
  -OEChem-04052323503D

 91102  0     1  0  0  0  0  0999 V2000
  -27.2744  -18.3165   21.7892 C   0  0  0  0  0  0  0  0  0  0  0  0
  -28.4026  -18.9089   21.2308 C   0  0  0  0  0  0  0  0  0  0  0  0
  -23.2791   -9.7881   19.9274 C   0  0  0  0  0  0  0  0  0  0  0  0
  -23.7073   -9.9529   22.2995 C   0  0  0  0  0  0  0  0  0  0  0  0
  -26.0665  -19.0121   21.8205 C   0  0  0  0  0  0  0  0  0  0  0  0
  -28.3231  -20.1968   20.7023 C   0  0  0  0  0  0  0  0  0  0  0  0
  -32.2268  -23.1098   22.0882 C   0  0  0  0  0  0  0  0  0  0  0  0
  -22.5398   -8.6249   20.1416 C   0  0  0  0  0  0  0  0  0  0  0  0
  -22.9679   -8.7896   22.5137 C   0  0  0  0  0  0  0  0  0  0  0  0
  -33.4343  -22.9172   21.4184 C   0  0  0  0  0  0  0  0  0  0  0  0
  -19.7106   -7.9111   22.7088 C   0  0  0  0  0  0  0  0  0  0  0  0
  -18.7974   -7.9104   23.7632 C   0  0  0  0  0  0  0  0  0  0  0  0
  -32.9680  -24.8396   20.0377 C   0  0  0  0  0  0  0  0  0  0  0  0
  -19.9759   -6.0641   24.7827 C   0  0  0  0  0  0  0  0  0  0  0  0
  -23.8629  -10.4521   21.0063 C   0  0  0  0  0  0  0  0  0  0  0  0
  -24.1478  -12.9771   20.7804 C   0  0  0  0  0  0  0  0  0  0  0  0
  -25.9745  -20.3129   21.3008 C   0  0  0  0  0  0  0  0  0  0  0  0
  -31.3743  -24.1640   21.7299 C   0  0  0  0  0  0  0  0  0  0  0  0
  -27.1124  -20.9099   20.7254 C   0  0  0  0  0  0  0  0  0  0  0  0
  -31.7514  -25.0449   20.7062 C   0  0  0  0  0  0  0  0  0  0  0  0
  -22.3842   -8.1256   21.4348 C   0  0  0  0  0  0  0  0  0  0  0  0
  -33.8037  -23.7804   20.3910 C   0  0  0  0  0  0  0  0  0  0  0  0
  -20.7564   -6.9882   22.6913 C   0  0  0  0  0  0  0  0  0  0  0  0
  -18.9301   -6.9869   24.8001 C   0  0  0  0  0  0  0  0  0  0  0  0
  -20.8891   -6.0648   23.7282 C   0  0  0  0  0  0  0  0  0  0  0  0
  -24.6272  -11.6535   20.7856 C   0  0  0  0  0  0  0  0  0  0  0  0
  -25.2589  -13.7437   20.5274 C   0  0  0  0  0  0  0  0  0  0  0  0
  -32.3902  -17.1149   13.5759 C   0  0  0  0  0  0  0  0  0  0  0  0
  -34.2839  -17.4888   14.5675 C   0  0  0  0  0  0  0  0  0  0  0  0
  -22.8170  -13.4696   20.9860 C   0  0  0  0  0  0  0  0  0  0  0  0
  -28.4113  -24.3667   20.5972 C   0  0  0  0  0  0  0  0  0  0  0  0
  -28.8773  -27.5466   21.0368 C   0  0  0  0  0  0  0  0  0  0  0  0
  -31.0768  -30.1408   21.3182 C   0  0  0  0  0  0  0  0  0  0  0  0
  -29.7573  -14.7821   17.6778 C   0  0  0  0  0  0  0  0  0  0  0  0
  -24.6356  -21.0070   21.3144 C   0  0  0  0  0  0  0  0  0  0  0  0
  -30.0877  -24.3741   22.4801 C   0  0  0  0  0  0  0  0  0  0  0  0
  -30.8812  -26.2041   20.2969 C   0  0  0  0  0  0  0  0  0  0  0  0
  -24.7270  -22.5114   21.0715 C   0  0  0  0  0  0  0  0  0  0  0  0
  -30.1574  -12.5566   20.4803 C   0  0  0  0  0  0  0  0  0  0  0  0
  -25.6458  -22.8065   19.8902 C   0  0  0  0  0  0  0  0  0  0  0  0
  -30.6368  -16.3897   11.7671 C   0  0  0  0  0  0  0  0  0  0  0  0
  -30.0056  -17.4950   12.5546 C   0  0  0  0  0  0  0  0  0  0  0  0
  -28.7057  -12.1984   20.7849 C   0  0  0  0  0  0  0  0  0  0  0  0
  -32.4768  -14.3571   15.2428 C   0  0  0  0  0  0  0  0  0  0  0  0
  -30.4191  -12.7030   18.9798 C   0  0  0  0  0  0  0  0  0  0  0  0
  -31.7324  -13.7374   16.4195 C   0  0  0  0  0  0  0  0  0  0  0  0
  -28.0349  -13.2755   18.6102 C   0  0  0  0  0  0  0  0  0  0  0  0
  -31.4724  -16.1246   16.4979 C   0  0  0  0  0  0  0  0  0  0  0  0
  -36.2340  -18.3623   17.8409 C   0  0  0  0  0  0  0  0  0  0  0  0
  -35.0645  -19.7144   16.7601 C   0  0  0  0  0  0  0  0  0  0  0  0
  -27.0721  -22.3148   20.1644 C   0  0  1  0  0  0  0  0  0  0  0  0
  -31.0025  -16.5729   13.2254 C   0  0  0  0  0  0  0  0  0  0  0  0
  -29.0577  -25.1732   21.6878 C   0  0  1  0  0  0  0  0  0  0  0  0
  -35.0668  -18.1735   16.8489 C   0  0  0  0  0  0  0  0  0  0  0  0
  -27.7491  -13.1985   20.1164 C   0  0  1  0  0  0  0  0  0  0  0  0
  -32.7572  -15.7809   15.7400 C   0  0  2  0  0  0  0  0  0  0  0  0
  -31.1583  -32.6289   21.6344 C   0  0  0  0  0  0  0  0  0  0  0  0
  -28.0667  -27.9412   18.1218 C   0  0  0  0  0  0  0  0  0  0  0  0
  -29.0630  -30.2357   18.2280 C   0  0  0  0  0  0  0  0  0  0  0  0
  -27.1397  -29.6436   19.7020 C   0  0  0  0  0  0  0  0  0  0  0  0
  -32.5750  -29.8856   23.8577 C   0  0  0  0  0  0  0  0  0  0  0  0
  -35.3728  -17.4060   15.5573 C   0  0  0  0  0  0  0  0  0  0  0  0
  -36.2831  -22.1206   18.3547 C   0  0  0  0  0  0  0  0  0  0  0  0
  -36.8319  -20.7205   18.1251 C   0  0  0  0  0  0  0  0  0  0  0  0
  -35.4642  -22.2562   19.6325 C   0  0  0  0  0  0  0  0  0  1  0  0
  -29.4223  -28.6739   20.1934 C   0  0  1  0  0  0  0  0  0  0  0  0
  -31.1750  -31.2736   22.3240 C   0  0  2  0  0  0  0  0  0  0  0  0
  -28.4386  -29.1007   19.0675 C   0  0  0  0  0  0  0  0  0  0  0  0
  -25.9406  -11.5799   20.5541 N   0  0  0  0  0  0  0  0  0  0  0  0
  -33.0437  -18.0001   12.8578 N   0  0  0  0  0  0  0  0  0  0  0  0
  -34.2485  -18.2381   13.4887 N   0  0  0  0  0  0  0  0  0  0  0  0
  -26.2959  -12.8669   20.4010 N   0  0  0  0  0  0  0  0  0  0  0  0
  -33.1341  -16.7651   14.6617 N   0  0  0  0  0  0  0  0  0  0  0  0
  -29.6301  -26.3639   21.0563 N   0  0  0  0  0  0  0  0  0  0  0  0
  -29.4410  -13.5941   18.3459 N   0  0  0  0  0  0  0  0  0  0  0  0
  -30.9768  -14.8470   17.0048 N   0  0  0  0  0  0  0  0  0  0  0  0
  -25.4404  -15.0756   20.4029 N   0  0  0  0  0  0  0  0  0  0  0  0
  -21.7933  -12.5450   21.2342 N   0  0  0  0  0  0  0  0  0  0  0  0
  -27.7623  -23.2322   21.0456 N   0  0  0  0  0  0  0  0  0  0  0  0
  -29.7708  -29.7454   21.1202 N   0  0  0  0  0  0  0  0  0  0  0  0
  -35.7331  -19.7316   18.0772 N   0  3  0  0  0  0  0  0  0  0  0  0
  -32.4368  -31.1612   23.1091 N   0  3  0  0  0  0  0  0  0  0  0  0
  -22.5408  -14.6921   20.9343 O   0  0  0  0  0  0  0  0  0  0  0  0
  -28.4939  -24.7465   19.4350 O   0  0  0  0  0  0  0  0  0  0  0  0
  -27.8263  -27.7119   21.6611 O   0  0  0  0  0  0  0  0  0  0  0  0
  -32.0600  -29.6577   20.7609 O   0  0  0  0  0  0  0  0  0  0  0  0
  -28.9639  -15.7327   17.6467 O   0  0  0  0  0  0  0  0  0  0  0  0
  -21.6627   -6.9907   21.6442 O   0  0  0  0  0  0  0  0  0  0  0  0
  -34.9897  -23.5931   19.7305 O   0  0  0  0  0  0  0  0  0  1  0  0
  -18.0540   -6.9873   25.8133 F   0  0  0  0  0  0  0  0  0  0  0  0
  -21.8925   -5.1765   23.7175 F   0  0  0  0  0  0  0  0  0  0  0  0
  1  2  1  0  0  0  0
  1  5  2  0  0  0  0
  2  6  2  0  0  0  0
  3  8  2  0  0  0  0
  3 15  1  0  0  0  0
  4  9  1  0  0  0  0
  4 15  2  0  0  0  0
  5 17  1  0  0  0  0
  6 19  1  0  0  0  0
  7 10  2  0  0  0  0
  7 18  1  0  0  0  0
  8 21  1  0  0  0  0
  9 21  2  0  0  0  0
 10 22  1  0  0  0  0
 11 12  2  0  0  0  0
 11 23  1  0  0  0  0
 12 24  1  0  0  0  0
 13 20  1  0  0  0  0
 13 22  2  0  0  0  0
 14 24  2  0  0  0  0
 14 25  1  0  0  0  0
 15 26  1  0  0  0  0
 16 26  1  0  0  0  0
 16 27  2  0  0  0  0
 16 30  1  0  0  0  0
 17 19  2  0  0  0  0
 17 35  1  0  0  0  0
 18 20  2  0  0  0  0
 18 36  1  0  0  0  0
 19 51  1  0  0  0  0
 20 37  1  0  0  0  0
 21 88  1  0  0  0  0
 22 89  1  0  0  0  0
 23 25  2  0  0  0  0
 23 88  1  0  0  0  0
 24 90  1  0  0  0  0
 25 91  1  0  0  0  0
 26 69  2  0  0  0  0
 27 72  1  0  0  0  0
 27 77  1  0  0  0  0
 28 52  1  0  0  0  0
 28 70  2  0  0  0  0
 28 73  1  0  0  0  0
 29 62  1  0  0  0  0
 29 71  2  0  0  0  0
 29 73  1  0  0  0  0
 30 78  1  0  0  0  0
 30 83  2  0  0  0  0
 31 53  1  0  0  0  0
 31 79  1  0  0  0  0
 31 84  2  0  0  0  0
 32 66  1  0  0  0  0
 32 74  1  0  0  0  0
 32 85  2  0  0  0  0
 33 67  1  0  0  0  0
 33 80  1  0  0  0  0
 33 86  2  0  0  0  0
 34 75  1  0  0  0  0
 34 76  1  0  0  0  0
 34 87  2  0  0  0  0
 35 38  1  0  0  0  0
 36 53  1  0  0  0  0
 37 74  1  0  0  0  0
 38 40  1  0  0  0  0
 39 43  1  0  0  0  0
 39 45  1  0  0  0  0
 40 51  1  0  0  0  0
 41 42  1  0  0  0  0
 41 52  1  0  0  0  0
 42 52  1  0  0  0  0
 43 55  1  0  0  0  0
 44 46  1  0  0  0  0
 44 56  1  0  0  0  0
 45 75  1  0  0  0  0
 46 76  1  0  0  0  0
 47 55  1  0  0  0  0
 47 75  1  0  0  0  0
 48 56  1  0  0  0  0
 48 76  1  0  0  0  0
 49 54  1  0  0  0  0
 49 81  1  0  0  0  0
 50 54  1  0  0  0  0
 50 81  1  0  0  0  0
 51 79  1  0  0  0  0
 53 74  1  0  0  0  0
 54 62  1  0  0  0  0
 55 72  1  0  0  0  0
 56 73  1  0  0  0  0
 57 67  1  0  0  0  0
 58 68  1  0  0  0  0
 59 68  1  0  0  0  0
 60 68  1  0  0  0  0
 61 82  1  0  0  0  0
 63 64  1  0  0  0  0
 63 65  1  0  0  0  0
 64 81  1  0  0  0  0
 65 89  1  0  0  0  0
 66 68  1  0  0  0  0
 66 80  1  0  0  0  0
 67 82  1  0  0  0  0
 69 72  1  0  0  0  0
 70 71  1  0  0  0  0
M  CHG  2  81   1  82   1
M  ISO  4  34 100  65 101  76 100  89 101
M  END
> <Batch ID>
0199

> <Smiles>
CNC(C)C(=O)NC(C(=O)N1Cc2cc([101O:1][101CH2:1]CCN3CC(Cc4nnc(C5CC5)n4C4CC[100N:0]([100C:0](=O)N5CCCC(n6nc(-c7ccc(Oc8ccc(F)cc8F)cc7)c(C(N)=O)c6N)C5)C4)C3)ccc2CC1C(=O)NC1CCCc2ccccc21)C(C)(C)C

> <Shape>
0.195

> <Color>
0.163

> <Negative vol penalty>
0.000

$$$$

  -OEChem-04052323503D

 94104  0     1  0  0  0  0  0999 V2000
  -20.1432  -10.7731   22.4305 C   0  0  0  0  0  0  0  0  0  0  0  0
  -21.1340  -11.5194   23.0605 C   0  0  0  0  0  0  0  0  0  0  0  0
  -26.4062  -31.3268   22.4312 C   0  0  0  0  0  0  0  0  0  0  0  0
  -26.1213  -32.1157   20.1655 C   0  0  0  0  0  0  0  0  0  0  0  0
  -20.4952   -9.7181   21.5897 C   0  0  0  0  0  0  0  0  0  0  0  0
  -22.4775  -11.2103   22.8509 C   0  0  0  0  0  0  0  0  0  0  0  0
  -25.3111  -15.3247   22.0221 C   0  0  0  0  0  0  0  0  0  0  0  0
  -26.5197  -32.6440   22.8757 C   0  0  0  0  0  0  0  0  0  0  0  0
  -26.2347  -33.4330   20.6099 C   0  0  0  0  0  0  0  0  0  0  0  0
  -25.6674  -16.0869   23.1337 C   0  0  0  0  0  0  0  0  0  0  0  0
  -26.0886  -37.0178   21.1978 C   0  0  0  0  0  0  0  0  0  0  0  0
  -25.1753  -37.9500   20.7055 C   0  0  0  0  0  0  0  0  0  0  0  0
  -27.8427  -15.0443   23.1439 C   0  0  0  0  0  0  0  0  0  0  0  0
  -23.3570  -36.6604   21.6371 C   0  0  0  0  0  0  0  0  0  0  0  0
  -26.2071  -31.0625   21.0761 C   0  0  0  0  0  0  0  0  0  0  0  0
  -24.9110  -28.9422   20.4999 C   0  0  0  0  0  0  0  0  0  0  0  0
  -21.8439   -9.4021   21.3621 C   0  0  0  0  0  0  0  0  0  0  0  0
  -26.2157  -14.4070   21.4687 C   0  0  0  0  0  0  0  0  0  0  0  0
  -22.8478  -10.1492   22.0073 C   0  0  0  0  0  0  0  0  0  0  0  0
  -27.4964  -14.2734   22.0237 C   0  0  0  0  0  0  0  0  0  0  0  0
  -28.9478  -19.0170   24.9040 C   0  0  0  0  0  0  0  0  0  0  0  0
  -26.4339  -33.6971   21.9650 C   0  0  0  0  0  0  0  0  0  0  0  0
  -26.9323  -15.9447   23.6966 C   0  0  0  0  0  0  0  0  0  0  0  0
  -25.6362  -35.9068   21.9096 C   0  0  0  0  0  0  0  0  0  0  0  0
  -23.8095  -37.7714   20.9252 C   0  0  0  0  0  0  0  0  0  0  0  0
  -24.2704  -35.7282   22.1293 C   0  0  0  0  0  0  0  0  0  0  0  0
  -26.0904  -29.7020   20.6164 C   0  0  0  0  0  0  0  0  0  0  0  0
  -30.0518  -18.2573   25.2163 C   0  0  0  0  0  0  0  0  0  0  0  0
  -29.3532  -19.8154   23.8209 C   0  0  0  0  0  0  0  0  0  0  0  0
  -25.3323  -27.7253   20.0223 C   0  0  0  0  0  0  0  0  0  0  0  0
  -30.1207  -17.2764   26.2712 C   0  0  0  0  0  0  0  0  0  0  0  0
  -23.5558  -29.3041   20.7968 C   0  0  0  0  0  0  0  0  0  0  0  0
  -26.2407  -11.2562   21.0503 C   0  0  0  0  0  0  0  0  0  0  0  0
  -28.9807  -11.8845   19.4317 C   0  0  0  0  0  0  0  0  0  0  0  0
  -31.6281  -13.9763   18.9191 C   0  0  0  0  0  0  0  0  0  0  0  0
  -28.7859  -23.4727   19.9230 C   0  0  0  0  0  0  0  0  0  0  0  0
  -22.1746   -8.2227   20.4821 C   0  0  0  0  0  0  0  0  0  0  0  0
  -25.8255  -13.6116   20.2532 C   0  0  0  0  0  0  0  0  0  0  0  0
  -28.5113  -13.3170   21.4549 C   0  0  0  0  0  0  0  0  0  0  0  0
  -23.6287   -8.1977   20.0182 C   0  0  0  0  0  0  0  0  0  0  0  0
  -29.8004  -26.2728   18.1683 C   0  0  0  0  0  0  0  0  0  0  0  0
  -24.5674   -8.4700   21.1894 C   0  0  0  0  0  0  0  0  0  0  0  0
  -28.8328  -27.3618   18.6308 C   0  0  0  0  0  0  0  0  0  0  0  0
  -29.1373  -22.2623   23.1985 C   0  0  0  0  0  0  0  0  0  0  0  0
  -28.3562  -20.4738   21.5859 C   0  0  0  0  0  0  0  0  0  0  0  0
  -30.2327  -25.3947   19.3369 C   0  0  0  0  0  0  0  0  0  0  0  0
  -28.3290  -23.2961   22.4091 C   0  0  0  0  0  0  0  0  0  0  0  0
  -27.5483  -21.5407   20.8528 C   0  0  0  0  0  0  0  0  0  0  0  0
  -27.9755  -18.3588   27.0671 C   0  0  0  0  0  0  0  0  0  0  0  0
  -28.1177  -25.8400   20.5396 C   0  0  0  0  0  0  0  0  0  0  0  0
  -27.6680  -18.8915   25.6476 C   0  0  2  0  0  0  0  0  0  0  0  0
  -24.3167   -9.8603   21.7856 C   0  0  1  0  0  0  0  0  0  0  0  0
  -28.5390  -20.8501   23.0674 C   0  0  0  0  0  0  0  0  0  0  0  0
  -26.6445  -12.3354   20.0860 C   0  0  1  0  0  0  0  0  0  0  0  0
  -27.6415  -26.7555   19.3935 C   0  0  1  0  0  0  0  0  0  0  0  0
  -33.9347  -16.5704   23.0010 C   0  0  0  0  0  0  0  0  0  0  0  0
  -29.9315  -18.0279   29.8101 C   0  0  0  0  0  0  0  0  0  0  0  0
  -33.7242  -14.2039   17.5582 C   0  0  0  0  0  0  0  0  0  0  0  0
  -27.7125  -15.3960   28.0045 C   0  0  0  0  0  0  0  0  0  0  0  0
  -30.3572   -9.8235   21.2114 C   0  0  0  0  0  0  0  0  0  0  0  0
  -32.5587  -10.7655   20.4807 C   0  0  0  0  0  0  0  0  0  0  0  0
  -31.0264   -9.7354   18.8034 C   0  0  0  0  0  0  0  0  0  0  0  0
  -30.6731  -16.4751   17.6530 C   0  0  0  0  0  0  0  0  0  0  0  0
  -26.6881  -17.9698   24.9194 C   0  0  0  0  0  0  0  0  0  1  0  0
  -32.5150  -17.1072   23.0799 C   0  0  0  0  0  0  0  0  0  0  0  0
  -28.7716  -17.0736   29.5557 C   0  0  0  0  0  0  0  0  0  0  0  0
  -32.3613  -18.1072   24.2237 C   0  0  0  0  0  0  0  0  0  0  0  0
  -30.4413  -11.9839   19.8002 C   0  0  1  0  0  0  0  0  0  0  0  0
  -32.2417  -14.5313   17.6463 C   0  0  2  0  0  0  0  0  0  0  0  0
  -28.8935  -16.3377   28.2151 C   0  0  2  0  0  0  0  0  0  0  0  0
  -31.0763  -10.5938   20.0861 C   0  0  0  0  0  0  0  0  0  0  0  0
  -27.1792  -29.0245   20.2430 N   0  0  0  0  0  0  0  0  0  0  0  0
  -30.6185  -19.5771   23.4597 N   0  0  0  0  0  0  0  0  0  0  0  0
  -31.0144  -18.6196   24.3200 N   0  0  0  0  0  0  0  0  0  0  0  0
  -26.6857  -27.8261   19.8873 N   0  0  0  0  0  0  0  0  0  0  0  0
  -28.9801  -17.2719   27.1037 N   0  0  0  0  0  0  0  0  0  0  0  0
  -28.0802  -12.5571   20.2699 N   0  0  0  0  0  0  0  0  0  0  0  0
  -29.0739  -24.8411   20.0372 N   0  0  0  0  0  0  0  0  0  0  0  0
  -28.1520  -22.8630   21.0161 N   0  0  0  0  0  0  0  0  0  0  0  0
  -24.6734  -26.5895   19.7089 N   0  0  0  0  0  0  0  0  0  0  0  0
  -23.2993  -30.5948   21.2793 N   0  0  0  0  0  0  0  0  0  0  0  0
  -24.9139  -10.8825   20.9531 N   0  0  0  0  0  0  0  0  0  0  0  0
  -31.0852  -12.7244   18.7207 N   0  0  0  0  0  0  0  0  0  0  0  0
  -32.0838  -16.0124   17.5982 N   0  3  0  0  0  0  0  0  0  0  0  0
  -31.0777  -16.5173   26.4067 O   0  0  0  0  0  0  0  0  0  0  0  0
  -22.6026  -28.5012   20.6545 O   0  0  0  0  0  0  0  0  0  0  0  0
  -27.0718  -10.7955   21.8241 O   0  0  0  0  0  0  0  0  0  0  0  0
  -28.6516  -11.2401   18.4327 O   0  0  0  0  0  0  0  0  0  0  0  0
  -31.6334  -14.5902   19.9838 O   0  0  0  0  0  0  0  0  0  0  0  0
  -29.0769  -22.8330   18.9045 O   0  0  0  0  0  0  0  0  0  0  0  0
  -26.5443  -34.9827   22.3984 O   0  0  0  0  0  0  0  0  0  0  0  0
  -27.2858  -16.6941   24.7924 O   0  0  0  0  0  0  0  0  0  1  0  0
  -22.9326  -38.6675   20.4537 F   0  0  0  0  0  0  0  0  0  0  0  0
  -23.8298  -34.6635   22.8135 F   0  0  0  0  0  0  0  0  0  0  0  0
  1  2  1  0  0  0  0
  1  5  2  0  0  0  0
  2  6  2  0  0  0  0
  3  8  2  0  0  0  0
  3 15  1  0  0  0  0
  4  9  1  0  0  0  0
  4 15  2  0  0  0  0
  5 17  1  0  0  0  0
  6 19  1  0  0  0  0
  7 10  2  0  0  0  0
  7 18  1  0  0  0  0
  8 22  1  0  0  0  0
  9 22  2  0  0  0  0
 10 23  1  0  0  0  0
 11 12  2  0  0  0  0
 11 24  1  0  0  0  0
 12 25  1  0  0  0  0
 13 20  1  0  0  0  0
 13 23  2  0  0  0  0
 14 25  2  0  0  0  0
 14 26  1  0  0  0  0
 15 27  1  0  0  0  0
 16 27  1  0  0  0  0
 16 30  2  0  0  0  0
 16 32  1  0  0  0  0
 17 19  2  0  0  0  0
 17 37  1  0  0  0  0
 18 20  2  0  0  0  0
 18 38  1  0  0  0  0
 19 52  1  0  0  0  0
 20 39  1  0  0  0  0
 21 28  2  0  0  0  0
 21 29  1  0  0  0  0
 21 51  1  0  0  0  0
 22 91  1  0  0  0  0
 23 92  1  0  0  0  0
 24 26  2  0  0  0  0
 24 91  1  0  0  0  0
 25 93  1  0  0  0  0
 26 94  1  0  0  0  0
 27 72  2  0  0  0  0
 28 31  1  0  0  0  0
 28 74  1  0  0  0  0
 29 53  1  0  0  0  0
 29 73  2  0  0  0  0
 30 75  1  0  0  0  0
 30 80  1  0  0  0  0
 31 76  1  0  0  0  0
 31 85  2  0  0  0  0
 32 81  1  0  0  0  0
 32 86  2  0  0  0  0
 33 54  1  0  0  0  0
 33 82  1  0  0  0  0
 33 87  2  0  0  0  0
 34 68  1  0  0  0  0
 34 77  1  0  0  0  0
 34 88  2  0  0  0  0
 35 69  1  0  0  0  0
 35 83  1  0  0  0  0
 35 89  2  0  0  0  0
 36 78  1  0  0  0  0
 36 79  1  0  0  0  0
 36 90  2  0  0  0  0
 37 40  1  0  0  0  0
 38 54  1  0  0  0  0
 39 77  1  0  0  0  0
 40 42  1  0  0  0  0
 41 43  1  0  0  0  0
 41 46  1  0  0  0  0
 42 52  1  0  0  0  0
 43 55  1  0  0  0  0
 44 47  1  0  0  0  0
 44 53  1  0  0  0  0
 45 48  1  0  0  0  0
 45 53  1  0  0  0  0
 46 78  1  0  0  0  0
 47 79  1  0  0  0  0
 48 79  1  0  0  0  0
 49 51  1  0  0  0  0
 49 76  1  0  0  0  0
 50 55  1  0  0  0  0
 50 78  1  0  0  0  0
 51 64  1  0  0  0  0
 52 82  1  0  0  0  0
 54 77  1  0  0  0  0
 55 75  1  0  0  0  0
 56 65  1  0  0  0  0
 57 66  1  0  0  0  0
 58 69  1  0  0  0  0
 59 70  1  0  0  0  0
 60 71  1  0  0  0  0
 61 71  1  0  0  0  0
 62 71  1  0  0  0  0
 63 84  1  0  0  0  0
 64 92  1  0  0  0  0
 65 67  1  0  0  0  0
 66 70  1  0  0  0  0
 67 74  1  0  0  0  0
 68 71  1  0  0  0  0
 68 83  1  0  0  0  0
 69 84  1  0  0  0  0
 70 76  1  0  0  0  0
 72 75  1  0  0  0  0
 73 74  1  0  0  0  0
M  CHG  1  84   1
M  ISO  4  36 100  64 101  79 100  92 101
M  END
> <Batch ID>
0199

> <Smiles>
CCCn1nc(C2CC[100N:0]([100C:0](=O)N3CCCC(n4nc(-c5ccc(Oc6ccc(F)cc6F)cc5)c(C(N)=O)c4N)C3)CC2)c2c1C(=O)N(C(C)CC)CC2[101CH2:1][101O:1]c1ccc2c(c1)CN(C(=O)C(NC(=O)C(C)NC)C(C)(C)C)C(C(=O)NC1CCCc3ccccc31)C2

> <Shape>
0.249

> <Color>
0.088

> <Negative vol penalty>
0.000

$$$$

  -OEChem-04052323503D

 81 90  0     1  0  0  0  0  0999 V2000
  -30.3217  -22.7659   17.7230 C   0  0  0  0  0  0  0  0  0  0  0  0
  -29.2283  -23.6146   17.5924 C   0  0  0  0  0  0  0  0  0  0  0  0
  -24.2204  -12.1981   21.2530 C   0  0  0  0  0  0  0  0  0  0  0  0
  -22.9812  -14.1595   21.9271 C   0  0  0  0  0  0  0  0  0  0  0  0
  -31.0204  -22.7158   18.9273 C   0  0  0  0  0  0  0  0  0  0  0  0
  -28.8405  -24.4222   18.6621 C   0  0  0  0  0  0  0  0  0  0  0  0
  -25.2864  -27.7139   17.8038 C   0  0  0  0  0  0  0  0  0  0  0  0
  -23.5350  -11.4391   22.2016 C   0  0  0  0  0  0  0  0  0  0  0  0
  -22.2958  -13.4005   22.8756 C   0  0  0  0  0  0  0  0  0  0  0  0
  -23.9526  -27.3522   17.6199 C   0  0  0  0  0  0  0  0  0  0  0  0
  -20.5030   -9.9727   22.5003 C   0  0  0  0  0  0  0  0  0  0  0  0
  -20.0159   -8.7269   22.1048 C   0  0  0  0  0  0  0  0  0  0  0  0
  -23.4499  -28.0901   19.8609 C   0  0  0  0  0  0  0  0  0  0  0  0
  -21.3655   -7.6605   23.8013 C   0  0  0  0  0  0  0  0  0  0  0  0
  -23.9435  -13.5584   21.1158 C   0  0  0  0  0  0  0  0  0  0  0  0
  -24.6735  -14.1451   18.7430 C   0  0  0  0  0  0  0  0  0  0  0  0
  -30.6328  -23.5144   20.0158 C   0  0  0  0  0  0  0  0  0  0  0  0
  -25.7149  -28.2572   19.0235 C   0  0  0  0  0  0  0  0  0  0  0  0
  -29.5476  -24.4037   19.8780 C   0  0  0  0  0  0  0  0  0  0  0  0
  -24.7892  -28.4602   20.0568 C   0  0  0  0  0  0  0  0  0  0  0  0
  -22.5727  -12.0403   23.0129 C   0  0  0  0  0  0  0  0  0  0  0  0
  -23.0346  -27.5376   18.6495 C   0  0  0  0  0  0  0  0  0  0  0  0
  -21.4215  -10.0623   23.5464 C   0  0  0  0  0  0  0  0  0  0  0  0
  -20.4471   -7.5709   22.7553 C   0  0  0  0  0  0  0  0  0  0  0  0
  -21.8527   -8.9062   24.1969 C   0  0  0  0  0  0  0  0  0  0  0  0
  -24.6515  -14.3431   20.1365 C   0  0  0  0  0  0  0  0  0  0  0  0
  -25.4829  -15.1473   18.2665 C   0  0  0  0  0  0  0  0  0  0  0  0
  -24.0206  -13.1448   17.9500 C   0  0  0  0  0  0  0  0  0  0  0  0
  -27.7873  -27.3760   21.2668 C   0  0  0  0  0  0  0  0  0  0  0  0
  -27.0842  -30.2885   22.5101 C   0  0  0  0  0  0  0  0  0  0  0  0
  -24.1307  -32.3055   22.9853 C   0  0  0  0  0  0  0  0  0  0  0  0
  -26.9552  -20.5519   20.3814 C   0  0  0  0  0  0  0  0  0  0  0  0
  -31.4294  -23.4263   21.2937 C   0  0  0  0  0  0  0  0  0  0  0  0
  -27.1518  -28.6669   19.1966 C   0  0  0  0  0  0  0  0  0  0  0  0
  -25.1943  -29.0585   21.3783 C   0  0  0  0  0  0  0  0  0  0  0  0
  -30.6805  -23.9819   22.5006 C   0  0  0  0  0  0  0  0  0  0  0  0
  -29.1803  -17.9011   19.5456 C   0  0  0  0  0  0  0  0  0  0  0  0
  -30.1156  -25.3563   22.1742 C   0  0  0  0  0  0  0  0  0  0  0  0
  -28.2740  -16.6708   19.4766 C   0  0  0  0  0  0  0  0  0  0  0  0
  -20.0709  -25.3031   18.5485 C   0  0  0  0  0  0  0  0  0  0  0  0
  -28.7454  -18.8611   20.6508 C   0  0  0  0  0  0  0  0  0  0  0  0
  -26.4242  -18.0430   20.5226 C   0  0  0  0  0  0  0  0  0  0  0  0
  -23.7808  -22.1440   19.2639 C   0  0  0  0  0  0  0  0  0  0  0  0
  -23.2484  -23.3107   21.2009 C   0  0  0  0  0  0  0  0  0  0  0  0
  -29.0889  -25.2689   21.0379 C   0  0  1  0  0  0  0  0  0  0  0  0
  -27.5818  -28.7346   20.6588 C   0  0  1  0  0  0  0  0  0  0  0  0
  -21.2660  -24.8791   19.3566 C   0  0  2  0  0  0  0  0  0  0  0  0
  -26.7894  -17.0723   19.3865 C   0  0  2  0  0  0  0  0  0  0  0  0
  -25.0588  -22.1135   20.0985 C   0  0  1  0  0  0  0  0  0  0  0  0
  -24.6818  -22.8293   21.4015 C   0  0  2  0  0  0  0  0  0  0  0  0
  -21.4440  -25.7887   18.1705 C   0  0  2  0  0  0  0  0  0  1  0  0
  -23.8640  -34.7957   23.1452 C   0  0  0  0  0  0  0  0  0  0  0  0
  -27.2846  -29.8259   25.5194 C   0  0  0  0  0  0  0  0  0  0  0  0
  -25.5407  -31.5940   25.8370 C   0  0  0  0  0  0  0  0  0  0  0  0
  -27.7302  -32.1772   24.7935 C   0  0  0  0  0  0  0  0  0  0  0  0
  -22.1486  -32.3508   20.7880 C   0  0  0  0  0  0  0  0  0  0  0  0
  -21.7483  -23.4710   19.2988 C   0  0  0  0  0  0  0  0  0  0  0  0
  -26.0533  -30.8172   23.4780 C   0  0  1  0  0  0  0  0  0  0  0  0
  -23.7693  -33.5775   22.2397 C   0  0  2  0  0  0  0  0  0  0  0  0
  -26.6470  -31.0809   24.8906 C   0  0  0  0  0  0  0  0  0  0  0  0
  -25.3886  -15.3888   20.5205 N   0  0  0  0  0  0  0  0  0  0  0  0
  -25.8813  -15.8568   19.3610 N   0  0  0  0  0  0  0  0  0  0  0  0
  -26.6117  -29.4372   21.5012 N   0  0  0  0  0  0  0  0  0  0  0  0
  -27.3284  -19.2036   20.5070 N   0  0  0  0  0  0  0  0  0  0  0  0
  -23.1319  -23.3699   19.7402 N   0  0  2  0  0  0  0  0  0  0  0  0
  -25.8856  -15.4819   17.0222 N   0  0  0  0  0  0  0  0  0  0  0  0
  -23.2259  -12.1906   18.6000 N   0  0  0  0  0  0  0  0  0  0  0  0
  -28.7342  -26.6067   20.6181 N   0  0  0  0  0  0  0  0  0  0  0  0
  -25.4669  -31.9946   22.8470 N   0  0  0  0  0  0  0  0  0  0  0  0
  -25.5930  -20.7886   20.2431 N   0  0  0  0  0  0  0  0  0  0  0  0
  -24.7577  -21.9502   22.5880 N   0  3  0  0  0  0  0  0  0  0  0  0
  -22.3782  -33.4911   21.7121 N   0  3  0  0  0  0  0  0  0  0  0  0
  -24.1516  -13.0885   16.7038 O   0  0  0  0  0  0  0  0  0  0  0  0
  -27.1361  -27.0505   22.2525 O   0  0  0  0  0  0  0  0  0  0  0  0
  -28.2640  -30.6243   22.6400 O   0  0  0  0  0  0  0  0  0  0  0  0
  -23.3106  -31.6551   23.6294 O   0  0  0  0  0  0  0  0  0  0  0  0
  -27.7756  -21.4759   20.3864 O   0  0  0  0  0  0  0  0  0  0  0  0
  -21.9036  -11.2998   23.9384 O   0  0  0  0  0  0  0  0  0  0  0  0
  -21.7322  -27.1849   18.4729 O   0  0  0  0  0  0  0  0  0  1  0  0
  -19.9780   -6.3748   22.3763 F   0  0  0  0  0  0  0  0  0  0  0  0
  -22.7340   -8.9861   25.2032 F   0  0  0  0  0  0  0  0  0  0  0  0
  1  2  1  0  0  0  0
  1  5  2  0  0  0  0
  2  6  2  0  0  0  0
  3  8  2  0  0  0  0
  3 15  1  0  0  0  0
  4  9  1  0  0  0  0
  4 15  2  0  0  0  0
  5 17  1  0  0  0  0
  6 19  1  0  0  0  0
  7 10  2  0  0  0  0
  7 18  1  0  0  0  0
  8 21  1  0  0  0  0
  9 21  2  0  0  0  0
 10 22  1  0  0  0  0
 11 12  2  0  0  0  0
 11 23  1  0  0  0  0
 12 24  1  0  0  0  0
 13 20  1  0  0  0  0
 13 22  2  0  0  0  0
 14 24  2  0  0  0  0
 14 25  1  0  0  0  0
 15 26  1  0  0  0  0
 16 26  1  0  0  0  0
 16 27  2  0  0  0  0
 16 28  1  0  0  0  0
 17 19  2  0  0  0  0
 17 33  1  0  0  0  0
 18 20  2  0  0  0  0
 18 34  1  0  0  0  0
 19 45  1  0  0  0  0
 20 35  1  0  0  0  0
 21 78  1  0  0  0  0
 22 79  1  0  0  0  0
 23 25  2  0  0  0  0
 23 78  1  0  0  0  0
 24 80  1  0  0  0  0
 25 81  1  0  0  0  0
 26 61  2  0  0  0  0
 27 62  1  0  0  0  0
 27 66  1  0  0  0  0
 28 67  1  0  0  0  0
 28 73  2  0  0  0  0
 29 46  1  0  0  0  0
 29 68  1  0  0  0  0
 29 74  2  0  0  0  0
 30 58  1  0  0  0  0
 30 63  1  0  0  0  0
 30 75  2  0  0  0  0
 31 59  1  0  0  0  0
 31 69  1  0  0  0  0
 31 76  2  0  0  0  0
 32 64  1  0  0  0  0
 32 70  1  0  0  0  0
 32 77  2  0  0  0  0
 33 36  1  0  0  0  0
 34 46  1  0  0  0  0
 35 63  1  0  0  0  0
 36 38  1  0  0  0  0
 37 39  1  0  0  0  0
 37 41  1  0  0  0  0
 38 45  1  0  0  0  0
 39 48  1  0  0  0  0
 40 47  1  0  0  0  0
 40 51  1  0  0  0  0
 41 64  1  0  0  0  0
 42 48  1  0  0  0  0
 42 64  1  0  0  0  0
 43 49  1  0  0  0  0
 43 65  1  0  0  0  0
 44 50  1  0  0  0  0
 44 65  1  0  0  0  0
 45 68  1  0  0  0  0
 46 63  1  0  0  0  0
 47 51  1  0  0  0  0
 47 57  1  0  0  0  0
 48 62  1  0  0  0  0
 49 50  1  0  0  0  0
 49 70  1  0  0  0  0
 50 71  1  0  0  0  0
 51 79  1  0  0  0  0
 52 59  1  0  0  0  0
 53 60  1  0  0  0  0
 54 60  1  0  0  0  0
 55 60  1  0  0  0  0
 56 72  1  0  0  0  0
 57 65  1  0  0  0  0
 58 60  1  0  0  0  0
 58 69  1  0  0  0  0
 59 72  1  0  0  0  0
 61 62  1  0  0  0  0
M  CHG  2  71   1  72   1
M  ISO  4  32 100  51 101  70 100  79 101
M  END
> <Batch ID>
0199

> <Smiles>
CNC(C)C(=O)NC(C(=O)N1Cc2cc([101O:1][101CH:1]3CC3CN3CC(N)C([100NH:0][100C:0](=O)N4CCCC(n5nc(-c6ccc(Oc7ccc(F)cc7F)cc6)c(C(N)=O)c5N)C4)C3)ccc2CC1C(=O)NC1CCCc2ccccc21)C(C)(C)C

> <Shape>
0.230

> <Color>
0.063

> <Negative vol penalty>
0.000

$$$$

  -OEChem-04052323503D

 83 92  0     1  0  0  0  0  0999 V2000
  -26.0824  -35.6916   21.2610 C   0  0  0  0  0  0  0  0  0  0  0  0
  -26.5754  -34.3936   21.3475 C   0  0  0  0  0  0  0  0  0  0  0  0
  -23.0230   -9.8771   19.9877 C   0  0  0  0  0  0  0  0  0  0  0  0
  -23.8539   -9.9068   22.2561 C   0  0  0  0  0  0  0  0  0  0  0  0
  -24.8363  -36.0005   21.8050 C   0  0  0  0  0  0  0  0  0  0  0  0
  -25.8230  -33.4038   21.9790 C   0  0  0  0  0  0  0  0  0  0  0  0
  -25.5291  -27.4763   20.4679 C   0  0  0  0  0  0  0  0  0  0  0  0
  -22.2871   -8.7269   20.2722 C   0  0  0  0  0  0  0  0  0  0  0  0
  -23.1181   -8.7565   22.5407 C   0  0  0  0  0  0  0  0  0  0  0  0
  -26.1686  -26.3461   20.9754 C   0  0  0  0  0  0  0  0  0  0  0  0
  -23.3911   -5.4290   22.0079 C   0  0  0  0  0  0  0  0  0  0  0  0
  -24.0286   -4.4107   22.7166 C   0  0  0  0  0  0  0  0  0  0  0  0
  -24.2539  -25.8977   22.3727 C   0  0  0  0  0  0  0  0  0  0  0  0
  -22.3812   -4.6021   24.4735 C   0  0  0  0  0  0  0  0  0  0  0  0
  -23.8064  -10.4671   20.9796 C   0  0  0  0  0  0  0  0  0  0  0  0
  -24.1446  -12.9908   20.8237 C   0  0  0  0  0  0  0  0  0  0  0  0
  -24.0640  -35.0118   22.4349 C   0  0  0  0  0  0  0  0  0  0  0  0
  -24.2495  -27.8323   20.9177 C   0  0  0  0  0  0  0  0  0  0  0  0
  -24.5660  -33.7001   22.5331 C   0  0  0  0  0  0  0  0  0  0  0  0
  -23.5994  -27.0314   21.8674 C   0  0  0  0  0  0  0  0  0  0  0  0
  -22.3346   -8.1666   21.5487 C   0  0  0  0  0  0  0  0  0  0  0  0
  -25.5322  -25.5582   21.9300 C   0  0  0  0  0  0  0  0  0  0  0  0
  -22.2487   -6.0339   22.5320 C   0  0  0  0  0  0  0  0  0  0  0  0
  -23.5236   -3.9972   23.9494 C   0  0  0  0  0  0  0  0  0  0  0  0
  -21.7438   -5.6205   23.7648 C   0  0  0  0  0  0  0  0  0  0  0  0
  -24.5672  -11.6550   20.6861 C   0  0  0  0  0  0  0  0  0  0  0  0
  -25.2250  -13.7361   20.4190 C   0  0  0  0  0  0  0  0  0  0  0  0
  -22.8878  -13.5113   21.2768 C   0  0  0  0  0  0  0  0  0  0  0  0
  -23.0217  -30.3449   22.4287 C   0  0  0  0  0  0  0  0  0  0  0  0
  -20.2155  -28.8140   21.8772 C   0  0  0  0  0  0  0  0  0  0  0  0
  -18.5893  -25.8771   21.2633 C   0  0  0  0  0  0  0  0  0  0  0  0
  -30.8524  -14.4333   20.8726 C   0  0  0  0  0  0  0  0  0  0  0  0
  -22.7438  -35.4041   23.0496 C   0  0  0  0  0  0  0  0  0  0  0  0
  -23.5624  -29.0395   20.3407 C   0  0  0  0  0  0  0  0  0  0  0  0
  -22.2173  -27.3590   22.3684 C   0  0  0  0  0  0  0  0  0  0  0  0
  -21.8444  -34.2135   23.3720 C   0  0  0  0  0  0  0  0  0  0  0  0
  -29.4978  -12.3839   18.0966 C   0  0  0  0  0  0  0  0  0  0  0  0
  -22.6386  -33.1209   24.0807 C   0  0  0  0  0  0  0  0  0  0  0  0
  -27.5310  -22.0317   23.3768 C   0  0  0  0  0  0  0  0  0  0  0  0
  -28.0850  -12.0641   18.5815 C   0  0  0  0  0  0  0  0  0  0  0  0
  -28.4864  -20.8357   23.3150 C   0  0  0  0  0  0  0  0  0  0  0  0
  -31.0691  -17.7085   21.9964 C   0  0  0  0  0  0  0  0  0  0  0  0
  -28.6930  -17.1809   21.3195 C   0  0  0  0  0  0  0  0  0  0  0  0
  -28.0425  -21.4842   21.0615 C   0  0  0  0  0  0  0  0  0  0  0  0
  -30.4592  -12.6069   19.2598 C   0  0  0  0  0  0  0  0  0  0  0  0
  -31.2118  -16.2721   22.4927 C   0  0  0  0  0  0  0  0  0  0  0  0
  -28.8923  -15.7426   21.8066 C   0  0  0  0  0  0  0  0  0  0  0  0
  -28.5887  -13.3254   20.7115 C   0  0  0  0  0  0  0  0  0  0  0  0
  -23.7687  -32.5934   23.1885 C   0  0  1  0  0  0  0  0  0  0  0  0
  -22.4700  -29.5961   21.2486 C   0  0  1  0  0  0  0  0  0  0  0  0
  -27.0819  -22.2998   21.9299 C   0  0  2  0  0  0  0  0  0  0  0  0
  -27.5864  -13.1391   19.5625 C   0  0  2  0  0  0  0  0  0  0  0  0
  -28.2808  -20.2585   21.9246 C   0  0  1  0  0  0  0  0  0  0  0  0
  -29.6079  -18.1474   22.0685 C   0  0  0  0  0  0  0  0  0  0  0  0
  -16.2917  -24.9369   20.8968 C   0  0  0  0  0  0  0  0  0  0  0  0
  -19.6483  -29.0410   24.8667 C   0  0  0  0  0  0  0  0  0  0  0  0
  -17.8700  -27.3004   24.5906 C   0  0  0  0  0  0  0  0  0  0  0  0
  -17.6752  -29.4806   23.3941 C   0  0  0  0  0  0  0  0  0  0  0  0
  -19.2886  -24.9167   18.5527 C   0  0  0  0  0  0  0  0  0  0  0  0
  -27.0659  -23.7764   21.5710 C   0  0  0  0  0  0  0  0  0  1  0  0
  -19.3910  -27.7919   22.6218 C   0  0  1  0  0  0  0  0  0  0  0  0
  -17.5375  -25.5041   20.2342 C   0  0  2  0  0  0  0  0  0  0  0  0
  -18.6730  -28.3981   23.8605 C   0  0  0  0  0  0  0  0  0  0  0  0
  -25.8184  -11.5545   20.2296 N   0  0  0  0  0  0  0  0  0  0  0  0
  -26.1913  -12.8365   20.0767 N   0  0  0  0  0  0  0  0  0  0  0  0
  -21.5895  -28.5529   21.7785 N   0  0  0  0  0  0  0  0  0  0  0  0
  -29.9421  -13.5980   20.2037 N   0  0  0  0  0  0  0  0  0  0  0  0
  -30.3145  -15.3711   21.7669 N   0  0  0  0  0  0  0  0  0  0  0  0
  -25.4331  -15.0667   20.3262 N   0  0  0  0  0  0  0  0  0  0  0  0
  -21.8868  -12.6060   21.6545 N   0  0  0  0  0  0  0  0  0  0  0  0
  -23.2430  -31.6878   22.1895 N   0  0  0  0  0  0  0  0  0  0  0  0
  -18.4898  -27.2001   21.6390 N   0  0  0  0  0  0  0  0  0  0  0  0
  -29.4779  -19.5014   21.4706 N   0  3  0  0  0  0  0  0  0  0  0  0
  -18.0748  -24.4828   19.2912 N   0  3  0  0  0  0  0  0  0  0  0  0
  -22.6536  -14.7425   21.3291 O   0  0  0  0  0  0  0  0  0  0  0  0
  -23.2297  -29.7488   23.4790 O   0  0  0  0  0  0  0  0  0  0  0  0
  -19.6598  -29.8039   21.3947 O   0  0  0  0  0  0  0  0  0  0  0  0
  -19.4142  -25.0742   21.6939 O   0  0  0  0  0  0  0  0  0  0  0  0
  -32.0716  -14.3467   20.6795 O   0  0  0  0  0  0  0  0  0  0  0  0
  -21.6166   -7.0443   21.8268 O   0  0  0  0  0  0  0  0  0  0  0  0
  -26.1596  -24.4456   22.4317 O   0  0  0  0  0  0  0  0  0  1  0  0
  -24.1350   -3.0182   24.6291 F   0  0  0  0  0  0  0  0  0  0  0  0
  -20.6459   -6.1970   24.2728 F   0  0  0  0  0  0  0  0  0  0  0  0
  1  2  1  0  0  0  0
  1  5  2  0  0  0  0
  2  6  2  0  0  0  0
  3  8  2  0  0  0  0
  3 15  1  0  0  0  0
  4  9  1  0  0  0  0
  4 15  2  0  0  0  0
  5 17  1  0  0  0  0
  6 19  1  0  0  0  0
  7 10  2  0  0  0  0
  7 18  1  0  0  0  0
  8 21  1  0  0  0  0
  9 21  2  0  0  0  0
 10 22  1  0  0  0  0
 11 12  2  0  0  0  0
 11 23  1  0  0  0  0
 12 24  1  0  0  0  0
 13 20  1  0  0  0  0
 13 22  2  0  0  0  0
 14 24  2  0  0  0  0
 14 25  1  0  0  0  0
 15 26  1  0  0  0  0
 16 26  1  0  0  0  0
 16 27  2  0  0  0  0
 16 28  1  0  0  0  0
 17 19  2  0  0  0  0
 17 33  1  0  0  0  0
 18 20  2  0  0  0  0
 18 34  1  0  0  0  0
 19 49  1  0  0  0  0
 20 35  1  0  0  0  0
 21 80  1  0  0  0  0
 22 81  1  0  0  0  0
 23 25  2  0  0  0  0
 23 80  1  0  0  0  0
 24 82  1  0  0  0  0
 25 83  1  0  0  0  0
 26 64  2  0  0  0  0
 27 65  1  0  0  0  0
 27 69  1  0  0  0  0
 28 70  1  0  0  0  0
 28 75  2  0  0  0  0
 29 50  1  0  0  0  0
 29 71  1  0  0  0  0
 29 76  2  0  0  0  0
 30 61  1  0  0  0  0
 30 66  1  0  0  0  0
 30 77  2  0  0  0  0
 31 62  1  0  0  0  0
 31 72  1  0  0  0  0
 31 78  2  0  0  0  0
 32 67  1  0  0  0  0
 32 68  1  0  0  0  0
 32 79  2  0  0  0  0
 33 36  1  0  0  0  0
 34 50  1  0  0  0  0
 35 66  1  0  0  0  0
 36 38  1  0  0  0  0
 37 40  1  0  0  0  0
 37 45  1  0  0  0  0
 38 49  1  0  0  0  0
 39 41  1  0  0  0  0
 39 51  1  0  0  0  0
 40 52  1  0  0  0  0
 41 53  1  0  0  0  0
 42 46  1  0  0  0  0
 42 54  1  0  0  0  0
 43 47  1  0  0  0  0
 43 54  1  0  0  0  0
 44 51  1  0  0  0  0
 44 53  1  0  0  0  0
 45 67  1  0  0  0  0
 46 68  1  0  0  0  0
 47 68  1  0  0  0  0
 48 52  1  0  0  0  0
 48 67  1  0  0  0  0
 49 71  1  0  0  0  0
 50 66  1  0  0  0  0
 51 60  1  0  0  0  0
 52 65  1  0  0  0  0
 53 73  1  0  0  0  0
 54 73  1  0  0  0  0
 55 62  1  0  0  0  0
 56 63  1  0  0  0  0
 57 63  1  0  0  0  0
 58 63  1  0  0  0  0
 59 74  1  0  0  0  0
 60 81  1  0  0  0  0
 61 63  1  0  0  0  0
 61 72  1  0  0  0  0
 62 74  1  0  0  0  0
 64 65  1  0  0  0  0
M  CHG  2  73   1  74   1
M  ISO  4  32 100  60 101  68 100  81 101
M  END
> <Batch ID>
0199

> <Smiles>
CNC(C)C(=O)NC(C(=O)N1Cc2cc([101O:1][101CH2:1]C3CCC(NC4CC[100N:0]([100C:0](=O)N5CCCC(n6nc(-c7ccc(Oc8ccc(F)cc8F)cc7)c(C(N)=O)c6N)C5)CC4)C3)ccc2CC1C(=O)NC1CCCc2ccccc21)C(C)(C)C

> <Shape>
0.346

> <Color>
0.193

> <Negative vol penalty>
0.000

$$$$

  -OEChem-04052323503D

 86 95  0     1  0  0  0  0  0999 V2000
  -26.6814  -30.6985   13.4311 C   0  0  0  0  0  0  0  0  0  0  0  0
  -27.1210  -29.9519   14.5195 C   0  0  0  0  0  0  0  0  0  0  0  0
  -23.3716   -9.6461   20.6620 C   0  0  0  0  0  0  0  0  0  0  0  0
  -24.0489  -10.2567   22.8993 C   0  0  0  0  0  0  0  0  0  0  0  0
  -26.2933  -32.0258   13.6088 C   0  0  0  0  0  0  0  0  0  0  0  0
  -27.1738  -30.5325   15.7862 C   0  0  0  0  0  0  0  0  0  0  0  0
  -25.2987  -27.5081   19.3893 C   0  0  0  0  0  0  0  0  0  0  0  0
  -22.7469   -8.5040   21.1628 C   0  0  0  0  0  0  0  0  0  0  0  0
  -23.4241   -9.1146   23.4001 C   0  0  0  0  0  0  0  0  0  0  0  0
  -26.1151  -26.4711   19.8386 C   0  0  0  0  0  0  0  0  0  0  0  0
  -23.6595   -5.4225   22.2098 C   0  0  0  0  0  0  0  0  0  0  0  0
  -23.8672   -4.2212   21.5322 C   0  0  0  0  0  0  0  0  0  0  0  0
  -26.7120  -27.7862   21.7709 C   0  0  0  0  0  0  0  0  0  0  0  0
  -29.0685  -18.6040   21.6340 C   0  0  0  0  0  0  0  0  0  0  0  0
  -21.4917   -4.0363   21.1318 C   0  0  0  0  0  0  0  0  0  0  0  0
  -24.0227  -10.5225   21.5302 C   0  0  0  0  0  0  0  0  0  0  0  0
  -30.6412  -20.3733   21.2775 C   0  0  0  0  0  0  0  0  0  0  0  0
  -24.0973  -12.9768   20.8387 C   0  0  0  0  0  0  0  0  0  0  0  0
  -26.3321  -32.6201   14.8800 C   0  0  0  0  0  0  0  0  0  0  0  0
  -25.1912  -28.6983   20.1231 C   0  0  0  0  0  0  0  0  0  0  0  0
  -26.7871  -31.8694   15.9809 C   0  0  0  0  0  0  0  0  0  0  0  0
  -25.8916  -28.8358   21.3301 C   0  0  0  0  0  0  0  0  0  0  0  0
  -29.4135  -19.9353   21.7651 C   0  0  0  0  0  0  0  0  0  0  0  0
  -22.7731   -8.2382   22.5319 C   0  0  0  0  0  0  0  0  0  0  0  0
  -26.8242  -26.6112   21.0281 C   0  0  0  0  0  0  0  0  0  0  0  0
  -22.3679   -5.9307   22.3486 C   0  0  0  0  0  0  0  0  0  0  0  0
  -22.7833   -3.5281   20.9931 C   0  0  0  0  0  0  0  0  0  0  0  0
  -21.2840   -5.2377   21.8095 C   0  0  0  0  0  0  0  0  0  0  0  0
  -24.6687  -11.7021   21.0134 C   0  0  0  0  0  0  0  0  0  0  0  0
  -31.5130  -19.4969   20.6786 C   0  0  0  0  0  0  0  0  0  0  0  0
  -30.0016  -17.7784   21.0175 C   0  0  0  0  0  0  0  0  0  0  0  0
  -25.1150  -13.7415   20.3228 C   0  0  0  0  0  0  0  0  0  0  0  0
  -30.7877  -21.8074   21.5126 C   0  0  0  0  0  0  0  0  0  0  0  0
  -29.5343  -22.2532   22.1912 C   0  0  0  0  0  0  0  0  0  0  0  0
  -29.3305  -23.5263   22.5473 C   0  0  0  0  0  0  0  0  0  0  0  0
  -22.7658  -13.4292   21.1179 C   0  0  0  0  0  0  0  0  0  0  0  0
  -25.8773  -31.7505   19.5601 C   0  0  0  0  0  0  0  0  0  0  0  0
  -24.4432  -32.1988   22.4350 C   0  0  0  0  0  0  0  0  0  0  0  0
  -23.5334  -30.8929   25.4538 C   0  0  0  0  0  0  0  0  0  0  0  0
  -30.4297  -15.4019   20.2997 C   0  0  0  0  0  0  0  0  0  0  0  0
  -25.9475  -34.0722   15.0145 C   0  0  0  0  0  0  0  0  0  0  0  0
  -24.2854  -29.7970   19.6386 C   0  0  0  0  0  0  0  0  0  0  0  0
  -25.7945  -30.0854   22.1653 C   0  0  0  0  0  0  0  0  0  0  0  0
  -25.6778  -34.4999   16.4549 C   0  0  0  0  0  0  0  0  0  0  0  0
  -29.6591  -12.4058   18.5370 C   0  0  0  0  0  0  0  0  0  0  0  0
  -26.7788  -33.9888   17.3786 C   0  0  0  0  0  0  0  0  0  0  0  0
  -28.2451  -12.0605   19.0098 C   0  0  0  0  0  0  0  0  0  0  0  0
  -30.5037  -13.0012   19.6621 C   0  0  0  0  0  0  0  0  0  0  0  0
  -28.4850  -13.8025   20.8250 C   0  0  0  0  0  0  0  0  0  0  0  0
  -28.6148  -21.0592   22.3729 C   0  0  2  0  0  0  0  0  0  0  0  0
  -26.8350  -32.4564   17.3749 C   0  0  1  0  0  0  0  0  0  0  0  0
  -24.6517  -31.1660   20.2035 C   0  0  1  0  0  0  0  0  0  0  0  0
  -27.5764  -13.2598   19.7099 C   0  0  2  0  0  0  0  0  0  0  0  0
  -32.8351  -19.9348   20.1525 C   0  0  0  0  0  0  0  0  0  0  0  0
  -28.2628  -20.7945   23.8339 C   0  0  0  0  0  0  0  0  0  0  0  0
  -22.4080  -31.5123   27.6095 C   0  0  0  0  0  0  0  0  0  0  0  0
  -26.9549  -33.6914   23.3144 C   0  0  0  0  0  0  0  0  0  0  0  0
  -26.1858  -33.4473   25.6845 C   0  0  0  0  0  0  0  0  0  0  0  0
  -24.8071  -34.7373   24.0543 C   0  0  0  0  0  0  0  0  0  0  0  0
  -21.3971  -28.8848   25.0502 C   0  0  0  0  0  0  0  0  0  0  0  0
  -28.0874  -24.0195   23.2307 C   0  0  0  0  0  0  0  0  0  0  0  0
  -27.7879  -25.4722   22.8801 C   0  0  0  0  0  0  0  0  0  1  0  0
  -24.9092  -32.2178   23.8707 C   0  0  1  0  0  0  0  0  0  0  0  0
  -22.2207  -30.9350   26.2151 C   0  0  2  0  0  0  0  0  0  0  0  0
  -25.7178  -33.5005   24.2145 C   0  0  0  0  0  0  0  0  0  0  0  0
  -25.9499  -11.6556   20.6388 N   0  0  0  0  0  0  0  0  0  0  0  0
  -31.2100  -18.1877   20.5395 N   0  0  0  0  0  0  0  0  0  0  0  0
  -26.1920  -12.9106   20.2235 N   0  0  0  0  0  0  0  0  0  0  0  0
  -24.9009  -31.1339   21.6461 N   0  0  0  0  0  0  0  0  0  0  0  0
  -29.8089  -14.1350   20.2758 N   0  0  0  0  0  0  0  0  0  0  0  0
  -25.1847  -15.0368   19.9490 N   0  0  0  0  0  0  0  0  0  0  0  0
  -21.8457  -12.5131   21.6456 N   0  0  0  0  0  0  0  0  0  0  0  0
  -29.6603  -16.4101   20.8794 N   0  0  0  0  0  0  0  0  0  0  0  0
  -25.7725  -31.9098   18.1915 N   0  0  0  0  0  0  0  0  0  0  0  0
  -23.7170  -32.0256   24.6894 N   0  0  0  0  0  0  0  0  0  0  0  0
  -21.6540  -29.5630   26.3468 N   0  3  0  0  0  0  0  0  0  0  0  0
  -31.7423  -22.4943   21.2128 O   0  0  0  0  0  0  0  0  0  0  0  0
  -22.3979  -14.6067   20.8902 O   0  0  0  0  0  0  0  0  0  0  0  0
  -26.8456  -32.0372   20.2542 O   0  0  0  0  0  0  0  0  0  0  0  0
  -23.6948  -33.0920   22.0302 O   0  0  0  0  0  0  0  0  0  0  0  0
  -24.3191  -29.9510   25.5325 O   0  0  0  0  0  0  0  0  0  0  0  0
  -31.5494  -15.5851   19.8154 O   0  0  0  0  0  0  0  0  0  0  0  0
  -22.1634   -7.1239   23.0210 O   0  0  0  0  0  0  0  0  0  0  0  0
  -27.6222  -25.6008   21.4685 O   0  0  0  0  0  0  0  0  0  1  0  0
  -22.9831   -2.3752   20.3411 F   0  0  0  0  0  0  0  0  0  0  0  0
  -20.0410   -5.7215   21.9386 F   0  0  0  0  0  0  0  0  0  0  0  0
  1  2  1  0  0  0  0
  1  5  2  0  0  0  0
  2  6  2  0  0  0  0
  3  8  2  0  0  0  0
  3 16  1  0  0  0  0
  4  9  1  0  0  0  0
  4 16  2  0  0  0  0
  5 19  1  0  0  0  0
  6 21  1  0  0  0  0
  7 10  2  0  0  0  0
  7 20  1  0  0  0  0
  8 24  1  0  0  0  0
  9 24  2  0  0  0  0
 10 25  1  0  0  0  0
 11 12  2  0  0  0  0
 11 26  1  0  0  0  0
 12 27  1  0  0  0  0
 13 22  1  0  0  0  0
 13 25  2  0  0  0  0
 14 23  2  0  0  0  0
 14 31  1  0  0  0  0
 15 27  2  0  0  0  0
 15 28  1  0  0  0  0
 16 29  1  0  0  0  0
 17 23  1  0  0  0  0
 17 30  2  0  0  0  0
 17 33  1  0  0  0  0
 18 29  1  0  0  0  0
 18 32  2  0  0  0  0
 18 36  1  0  0  0  0
 19 21  2  0  0  0  0
 19 41  1  0  0  0  0
 20 22  2  0  0  0  0
 20 42  1  0  0  0  0
 21 51  1  0  0  0  0
 22 43  1  0  0  0  0
 23 50  1  0  0  0  0
 24 83  1  0  0  0  0
 25 84  1  0  0  0  0
 26 28  2  0  0  0  0
 26 83  1  0  0  0  0
 27 85  1  0  0  0  0
 28 86  1  0  0  0  0
 29 66  2  0  0  0  0
 30 54  1  0  0  0  0
 30 67  1  0  0  0  0
 31 67  2  0  0  0  0
 31 73  1  0  0  0  0
 32 68  1  0  0  0  0
 32 71  1  0  0  0  0
 33 34  1  0  0  0  0
 33 77  2  0  0  0  0
 34 35  2  0  0  0  0
 34 50  1  0  0  0  0
 35 61  1  0  0  0  0
 36 72  1  0  0  0  0
 36 78  2  0  0  0  0
 37 52  1  0  0  0  0
 37 74  1  0  0  0  0
 37 79  2  0  0  0  0
 38 63  1  0  0  0  0
 38 69  1  0  0  0  0
 38 80  2  0  0  0  0
 39 64  1  0  0  0  0
 39 75  1  0  0  0  0
 39 81  2  0  0  0  0
 40 70  1  0  0  0  0
 40 73  1  0  0  0  0
 40 82  2  0  0  0  0
 41 44  1  0  0  0  0
 42 52  1  0  0  0  0
 43 69  1  0  0  0  0
 44 46  1  0  0  0  0
 45 47  1  0  0  0  0
 45 48  1  0  0  0  0
 46 51  1  0  0  0  0
 47 53  1  0  0  0  0
 48 70  1  0  0  0  0
 49 53  1  0  0  0  0
 49 70  1  0  0  0  0
 50 55  1  0  0  0  0
 51 74  1  0  0  0  0
 52 69  1  0  0  0  0
 53 68  1  0  0  0  0
 56 64  1  0  0  0  0
 57 65  1  0  0  0  0
 58 65  1  0  0  0  0
 59 65  1  0  0  0  0
 60 76  1  0  0  0  0
 61 62  1  0  0  0  0
 62 84  1  0  0  0  0
 63 65  1  0  0  0  0
 63 75  1  0  0  0  0
 64 76  1  0  0  0  0
 66 68  1  0  0  0  0
M  CHG  1  76   1
M  ISO  4  40 100  62 101  73 100  84 101
M  END
> <Batch ID>
0199

> <Smiles>
CNC(C)C(=O)NC(C(=O)N1Cc2cc([101O:1][101CH2:1]CC=C3C(=O)c4c(cc([100NH:0][100C:0](=O)N5CCCC(n6nc(-c7ccc(Oc8ccc(F)cc8F)cc7)c(C(N)=O)c6N)C5)nc4C)C3C)ccc2CC1C(=O)NC1CCCc2ccccc21)C(C)(C)C

> <Shape>
0.290

> <Color>
0.181

> <Negative vol penalty>
0.000

$$$$

  -OEChem-04052323503D

 89 98  0     1  0  0  0  0  0999 V2000
  -23.7075   -7.9118   21.8016 C   0  0  0  0  0  0  0  0  0  0  0  0
  -24.5355   -9.0287   21.7523 C   0  0  0  0  0  0  0  0  0  0  0  0
  -25.8324  -30.5762   24.6780 C   0  0  0  0  0  0  0  0  0  0  0  0
  -23.5527  -31.3318   24.9410 C   0  0  0  0  0  0  0  0  0  0  0  0
  -22.3623   -8.0269   21.4539 C   0  0  0  0  0  0  0  0  0  0  0  0
  -24.0188  -10.2612   21.3542 C   0  0  0  0  0  0  0  0  0  0  0  0
  -25.5397  -14.0604   24.3372 C   0  0  0  0  0  0  0  0  0  0  0  0
  -26.2889  -31.8744   24.9053 C   0  0  0  0  0  0  0  0  0  0  0  0
  -24.0092  -32.6301   25.1683 C   0  0  0  0  0  0  0  0  0  0  0  0
  -26.8315  -14.5465   24.1403 C   0  0  0  0  0  0  0  0  0  0  0  0
  -24.5544  -36.2115   25.4614 C   0  0  0  0  0  0  0  0  0  0  0  0
  -23.8974  -37.2537   24.8073 C   0  0  0  0  0  0  0  0  0  0  0  0
  -25.9369  -16.3924   22.8709 C   0  0  0  0  0  0  0  0  0  0  0  0
  -24.4741  -36.2780   22.6736 C   0  0  0  0  0  0  0  0  0  0  0  0
  -24.4642  -30.3048   24.6958 C   0  0  0  0  0  0  0  0  0  0  0  0
  -23.7699  -27.9600   25.4220 C   0  0  0  0  0  0  0  0  0  0  0  0
  -21.8266   -9.2634   21.0606 C   0  0  0  0  0  0  0  0  0  0  0  0
  -24.4358  -14.7318   23.7922 C   0  0  0  0  0  0  0  0  0  0  0  0
  -22.6654  -10.3926   20.9996 C   0  0  0  0  0  0  0  0  0  0  0  0
  -24.6320  -15.9142   23.0644 C   0  0  0  0  0  0  0  0  0  0  0  0
  -25.3774  -32.9014   25.1505 C   0  0  0  0  0  0  0  0  0  0  0  0
  -27.0305  -15.7111   23.4047 C   0  0  0  0  0  0  0  0  0  0  0  0
  -25.1714  -35.2027   24.7217 C   0  0  0  0  0  0  0  0  0  0  0  0
  -23.8572  -37.2869   23.4134 C   0  0  0  0  0  0  0  0  0  0  0  0
  -25.1312  -35.2359   23.3278 C   0  0  0  0  0  0  0  0  0  0  0  0
  -23.9919  -28.9641   24.4605 C   0  0  0  0  0  0  0  0  0  0  0  0
  -23.3276  -26.8812   24.6960 C   0  0  0  0  0  0  0  0  0  0  0  0
  -30.2321  -20.7323   19.6964 C   0  0  0  0  0  0  0  0  0  0  0  0
  -30.5857  -19.5143   19.2821 C   0  0  0  0  0  0  0  0  0  0  0  0
  -28.0430  -20.1668   20.0603 C   0  0  0  0  0  0  0  0  0  0  0  0
  -28.3414  -18.7422   19.6033 C   0  0  0  0  0  0  0  0  0  0  0  0
  -23.9474  -27.9991   26.8442 C   0  0  0  0  0  0  0  0  0  0  0  0
  -22.1797  -13.9920   21.6789 C   0  0  0  0  0  0  0  0  0  0  0  0
  -20.9639  -16.8693   22.5536 C   0  0  0  0  0  0  0  0  0  0  0  0
  -21.5186  -19.9726   23.8608 C   0  0  0  0  0  0  0  0  0  0  0  0
  -24.4386  -24.5200   19.4283 C   0  0  0  0  0  0  0  0  0  0  0  0
  -20.3772   -9.3286   20.6486 C   0  0  0  0  0  0  0  0  0  0  0  0
  -23.0467  -14.2091   24.0362 C   0  0  0  0  0  0  0  0  0  0  0  0
  -23.4788  -16.6835   22.4756 C   0  0  0  0  0  0  0  0  0  0  0  0
  -19.8218  -10.7496   20.5976 C   0  0  0  0  0  0  0  0  0  0  0  0
  -21.3097  -26.2658   20.2253 C   0  0  0  0  0  0  0  0  0  0  0  0
  -20.7896  -11.6752   19.8672 C   0  0  0  0  0  0  0  0  0  0  0  0
  -21.6831  -27.0818   21.4636 C   0  0  0  0  0  0  0  0  0  0  0  0
  -25.0095  -21.6220   21.6175 C   0  0  0  0  0  0  0  0  0  0  0  0
  -22.5059  -26.0494   19.3012 C   0  0  0  0  0  0  0  0  0  0  0  0
  -24.5057  -23.0591   21.5336 C   0  0  0  0  0  0  0  0  0  0  0  0
  -24.0635  -26.2939   21.1952 C   0  0  0  0  0  0  0  0  0  0  0  0
  -26.0231  -22.6372   19.7212 C   0  0  0  0  0  0  0  0  0  0  0  0
  -22.1363  -11.7520   20.5967 C   0  0  1  0  0  0  0  0  0  0  0  0
  -22.0361  -14.6921   23.0005 C   0  0  1  0  0  0  0  0  0  0  0  0
  -22.9020  -26.4740   22.1824 C   0  0  1  0  0  0  0  0  0  0  0  0
  -26.3412  -21.7036   20.8794 C   0  0  2  0  0  0  0  0  0  0  0  0
  -20.3378  -22.1161   24.4160 C   0  0  0  0  0  0  0  0  0  0  0  0
  -31.6289  -15.2405   19.3167 C   0  0  0  0  0  0  0  0  0  0  0  0
  -20.9281  -17.6132   19.5946 C   0  0  0  0  0  0  0  0  0  0  0  0
  -20.6639  -20.0090   20.2717 C   0  0  0  0  0  0  0  0  0  0  0  0
  -18.9094  -18.3426   20.8782 C   0  0  0  0  0  0  0  0  0  0  0  0
  -22.1722  -19.7231   26.7365 C   0  0  0  0  0  0  0  0  0  0  0  0
  -30.0541  -17.1796   18.7742 C   0  0  0  0  0  0  0  0  0  0  0  0
  -30.4314  -15.7061   22.2187 C   0  0  0  0  0  0  0  0  0  0  0  0
  -29.3478  -15.2318   23.1668 C   0  0  0  0  0  0  0  0  0  1  0  0
  -21.1347  -18.2916   22.0772 C   0  0  1  0  0  0  0  0  0  0  0  0
  -20.7876  -20.7589   24.9340 C   0  0  2  0  0  0  0  0  0  0  0  0
  -30.8146  -16.4101   19.8531 C   0  0  1  0  0  0  0  0  0  0  0  0
  -20.4311  -18.5488   20.7147 C   0  0  0  0  0  0  0  0  0  0  0  0
  -23.7139  -28.5591   23.2185 N   0  0  0  0  0  0  0  0  0  0  0  0
  -28.9716  -21.0826   20.0894 N   0  0  0  0  0  0  0  0  0  0  0  0
  -23.3126  -27.2887   23.3945 N   0  0  0  0  0  0  0  0  0  0  0  0
  -29.6577  -18.5048   19.2276 N   0  0  0  0  0  0  0  0  0  0  0  0
  -22.1402  -16.1287   22.7363 N   0  0  0  0  0  0  0  0  0  0  0  0
  -23.6441  -25.4979   20.0368 N   0  0  0  0  0  0  0  0  0  0  0  0
  -25.0127  -23.5506   20.2497 N   0  0  0  0  0  0  0  0  0  0  0  0
  -22.9541  -25.6333   25.0503 N   0  0  0  0  0  0  0  0  0  0  0  0
  -24.4091  -29.1869   27.4275 N   0  0  0  0  0  0  0  0  0  0  0  0
  -26.7850  -20.4125   20.4243 N   0  0  0  0  0  0  0  0  0  0  0  0
  -22.0371  -12.6194   21.7509 N   0  0  0  0  0  0  0  0  0  0  0  0
  -20.6645  -19.1450   23.1630 N   0  0  0  0  0  0  0  0  0  0  0  0
  -21.6745  -20.9758   26.1119 N   0  3  0  0  0  0  0  0  0  0  0  0
  -29.8507  -15.8919   20.8637 N   0  3  0  0  0  0  0  0  0  0  0  0
  -27.4195  -17.9368   19.6031 O   0  0  0  0  0  0  0  0  0  0  0  0
  -23.7193  -27.0048   27.5742 O   0  0  0  0  0  0  0  0  0  0  0  0
  -22.4019  -14.6486   20.6683 O   0  0  0  0  0  0  0  0  0  0  0  0
  -19.8289  -16.4339   22.7629 O   0  0  0  0  0  0  0  0  0  0  0  0
  -22.7258  -20.0843   23.6590 O   0  0  0  0  0  0  0  0  0  0  0  0
  -24.5904  -24.4861   18.2000 O   0  0  0  0  0  0  0  0  0  0  0  0
  -25.8226  -34.1683   25.3725 O   0  0  0  0  0  0  0  0  0  0  0  0
  -28.2994  -16.1908   23.2091 O   0  0  0  0  0  0  0  0  0  1  0  0
  -23.2249  -38.2869   22.7855 F   0  0  0  0  0  0  0  0  0  0  0  0
  -25.7211  -34.2689   22.6117 F   0  0  0  0  0  0  0  0  0  0  0  0
  1  2  1  0  0  0  0
  1  5  2  0  0  0  0
  2  6  2  0  0  0  0
  3  8  2  0  0  0  0
  3 15  1  0  0  0  0
  4  9  1  0  0  0  0
  4 15  2  0  0  0  0
  5 17  1  0  0  0  0
  6 19  1  0  0  0  0
  7 10  2  0  0  0  0
  7 18  1  0  0  0  0
  8 21  1  0  0  0  0
  9 21  2  0  0  0  0
 10 22  1  0  0  0  0
 11 12  2  0  0  0  0
 11 23  1  0  0  0  0
 12 24  1  0  0  0  0
 13 20  1  0  0  0  0
 13 22  2  0  0  0  0
 14 24  2  0  0  0  0
 14 25  1  0  0  0  0
 15 26  1  0  0  0  0
 16 26  1  0  0  0  0
 16 27  2  0  0  0  0
 16 32  1  0  0  0  0
 17 19  2  0  0  0  0
 17 37  1  0  0  0  0
 18 20  2  0  0  0  0
 18 38  1  0  0  0  0
 19 49  1  0  0  0  0
 20 39  1  0  0  0  0
 21 86  1  0  0  0  0
 22 87  1  0  0  0  0
 23 25  2  0  0  0  0
 23 86  1  0  0  0  0
 24 88  1  0  0  0  0
 25 89  1  0  0  0  0
 26 66  2  0  0  0  0
 27 68  1  0  0  0  0
 27 73  1  0  0  0  0
 28 29  2  0  0  0  0
 28 67  1  0  0  0  0
 29 69  1  0  0  0  0
 30 31  1  0  0  0  0
 30 67  2  0  0  0  0
 30 75  1  0  0  0  0
 31 69  1  0  0  0  0
 31 80  2  0  0  0  0
 32 74  1  0  0  0  0
 32 81  2  0  0  0  0
 33 50  1  0  0  0  0
 33 76  1  0  0  0  0
 33 82  2  0  0  0  0
 34 62  1  0  0  0  0
 34 70  1  0  0  0  0
 34 83  2  0  0  0  0
 35 63  1  0  0  0  0
 35 77  1  0  0  0  0
 35 84  2  0  0  0  0
 36 71  1  0  0  0  0
 36 72  1  0  0  0  0
 36 85  2  0  0  0  0
 37 40  1  0  0  0  0
 38 50  1  0  0  0  0
 39 70  1  0  0  0  0
 40 42  1  0  0  0  0
 41 43  1  0  0  0  0
 41 45  1  0  0  0  0
 42 49  1  0  0  0  0
 43 51  1  0  0  0  0
 44 46  1  0  0  0  0
 44 52  1  0  0  0  0
 45 71  1  0  0  0  0
 46 72  1  0  0  0  0
 47 51  1  0  0  0  0
 47 71  1  0  0  0  0
 48 52  1  0  0  0  0
 48 72  1  0  0  0  0
 49 76  1  0  0  0  0
 50 70  1  0  0  0  0
 51 68  1  0  0  0  0
 52 75  1  0  0  0  0
 53 63  1  0  0  0  0
 54 64  1  0  0  0  0
 55 65  1  0  0  0  0
 56 65  1  0  0  0  0
 57 65  1  0  0  0  0
 58 78  1  0  0  0  0
 59 64  1  0  0  0  0
 59 69  1  0  0  0  0
 60 61  1  0  0  0  0
 60 79  1  0  0  0  0
 61 87  1  0  0  0  0
 62 65  1  0  0  0  0
 62 77  1  0  0  0  0
 63 78  1  0  0  0  0
 64 79  1  0  0  0  0
 66 68  1  0  0  0  0
M  CHG  2  78   1  79   1
M  ISO  4  36 100  61 101  72 100  87 101
M  END
> <Batch ID>
0199

> <Smiles>
CNC(C)C(=O)NC(C(=O)N1Cc2cc([101O:1][101CH2:1]CNC(C)Cn3ccnc(NC4CC[100N:0]([100C:0](=O)N5CCCC(n6nc(-c7ccc(Oc8ccc(F)cc8F)cc7)c(C(N)=O)c6N)C5)C4)c3=O)ccc2CC1C(=O)NC1CCCc2ccccc21)C(C)(C)C

> <Shape>
0.195

> <Color>
0.078

> <Negative vol penalty>
0.000

$$$$

  -OEChem-04052323503D

 84 93  0     1  0  0  0  0  0999 V2000
  -27.8712  -24.3908   16.7294 C   0  0  0  0  0  0  0  0  0  0  0  0
  -26.6938  -24.6262   17.4320 C   0  0  0  0  0  0  0  0  0  0  0  0
  -27.0118  -15.5075   20.5192 C   0  0  0  0  0  0  0  0  0  0  0  0
  -24.6368  -15.4190   20.9536 C   0  0  0  0  0  0  0  0  0  0  0  0
  -29.0846  -24.8649   17.2261 C   0  0  0  0  0  0  0  0  0  0  0  0
  -26.7292  -25.3350   18.6323 C   0  0  0  0  0  0  0  0  0  0  0  0
  -23.0619  -28.8134   18.9436 C   0  0  0  0  0  0  0  0  0  0  0  0
  -27.0529  -14.1145   20.4598 C   0  0  0  0  0  0  0  0  0  0  0  0
  -24.6779  -14.0260   20.8941 C   0  0  0  0  0  0  0  0  0  0  0  0
  -21.7807  -28.3615   19.2566 C   0  0  0  0  0  0  0  0  0  0  0  0
  -27.0930  -11.5291   22.6365 C   0  0  0  0  0  0  0  0  0  0  0  0
  -28.1285  -10.8826   23.3113 C   0  0  0  0  0  0  0  0  0  0  0  0
  -22.1085  -29.0384   21.5487 C   0  0  0  0  0  0  0  0  0  0  0  0
  -28.8854   -9.9208   21.2283 C   0  0  0  0  0  0  0  0  0  0  0  0
  -20.2647  -24.7648   23.8846 C   0  0  0  0  0  0  0  0  0  0  0  0
  -20.0562  -23.0736   22.2869 C   0  0  0  0  0  0  0  0  0  0  0  0
  -25.8038  -16.1598   20.7662 C   0  0  0  0  0  0  0  0  0  0  0  0
  -25.5325  -18.4891   19.7621 C   0  0  0  0  0  0  0  0  0  0  0  0
  -29.1337  -25.5882   18.4283 C   0  0  0  0  0  0  0  0  0  0  0  0
  -23.8816  -29.3721   19.9348 C   0  0  0  0  0  0  0  0  0  0  0  0
  -27.9446  -25.8181   19.1463 C   0  0  0  0  0  0  0  0  0  0  0  0
  -23.3988  -29.4989   21.2451 C   0  0  0  0  0  0  0  0  0  0  0  0
  -20.4897  -23.4469   23.5427 C   0  0  0  0  0  0  0  0  0  0  0  0
  -25.8859  -13.3738   20.6472 C   0  0  0  0  0  0  0  0  0  0  0  0
  -21.3048  -28.4713   20.5599 C   0  0  0  0  0  0  0  0  0  0  0  0
  -26.9536  -11.3714   21.2576 C   0  0  0  0  0  0  0  0  0  0  0  0
  -29.0247  -10.0785   22.6072 C   0  0  0  0  0  0  0  0  0  0  0  0
  -27.8499  -10.5673   20.5535 C   0  0  0  0  0  0  0  0  0  0  0  0
  -25.7609  -17.5987   20.8283 C   0  0  0  0  0  0  0  0  0  0  0  0
  -25.5904  -19.7351   20.3370 C   0  0  0  0  0  0  0  0  0  0  0  0
  -19.2871  -25.1723   21.8733 C   0  0  0  0  0  0  0  0  0  0  0  0
  -25.2897  -18.2145   18.3760 C   0  0  0  0  0  0  0  0  0  0  0  0
  -26.6917  -28.6137   21.2121 C   0  0  0  0  0  0  0  0  0  0  0  0
  -26.3290  -31.4565   22.7318 C   0  0  0  0  0  0  0  0  0  0  0  0
  -24.2177  -33.8811   23.8764 C   0  0  0  0  0  0  0  0  0  0  0  0
  -24.6553  -21.6991   25.9155 C   0  0  0  0  0  0  0  0  0  0  0  0
  -30.4750  -26.0398   18.9495 C   0  0  0  0  0  0  0  0  0  0  0  0
  -25.2512  -29.8792   19.5752 C   0  0  0  0  0  0  0  0  0  0  0  0
  -24.2315  -30.1098   22.3414 C   0  0  0  0  0  0  0  0  0  0  0  0
  -30.3781  -27.1057   20.0380 C   0  0  0  0  0  0  0  0  0  0  0  0
  -27.6159  -22.0892   23.9766 C   0  0  0  0  0  0  0  0  0  0  0  0
  -29.3300  -26.7155   21.0753 C   0  0  0  0  0  0  0  0  0  0  0  0
  -27.4556  -21.0629   22.8537 C   0  0  0  0  0  0  0  0  0  0  0  0
  -17.3279  -26.7806   21.4072 C   0  0  0  0  0  0  0  0  0  0  0  0
  -17.2853  -25.7247   20.3472 C   0  0  0  0  0  0  0  0  0  0  0  0
  -27.0510  -21.5728   25.2980 C   0  0  0  0  0  0  0  0  0  0  0  0
  -25.4942  -20.0765   24.1101 C   0  0  0  0  0  0  0  0  0  0  0  0
  -27.9390  -26.6043   20.4393 C   0  0  1  0  0  0  0  0  0  0  0  0
  -26.1917  -29.9611   20.7736 C   0  0  1  0  0  0  0  0  0  0  0  0
  -25.9988  -20.5739   22.7447 C   0  0  2  0  0  0  0  0  0  0  0  0
  -18.6199  -26.1297   20.9469 C   0  0  0  0  0  0  0  0  0  0  0  0
  -24.2118  -36.0653   25.1119 C   0  0  0  0  0  0  0  0  0  0  0  0
  -26.7934  -29.9706   25.3560 C   0  0  0  0  0  0  0  0  0  0  0  0
  -25.8513  -31.9512   26.5635 C   0  0  0  0  0  0  0  0  0  0  0  0
  -27.9271  -32.1944   25.2016 C   0  0  0  0  0  0  0  0  0  0  0  0
  -23.0282  -35.3124   21.5752 C   0  0  0  0  0  0  0  0  0  0  0  0
  -19.5441  -26.9392   20.1038 C   0  0  0  0  0  0  0  0  0  1  0  0
  -21.5766  -22.9111   25.7238 C   0  0  0  0  0  0  0  0  0  0  0  0
  -22.2241  -21.7200   26.4135 C   0  0  0  0  0  0  0  0  0  0  0  0
  -25.7047  -31.9015   24.0322 C   0  0  1  0  0  0  0  0  0  0  0  0
  -24.2567  -35.3932   23.7485 C   0  0  2  0  0  0  0  0  0  0  0  0
  -26.5539  -31.4911   25.2683 C   0  0  0  0  0  0  0  0  0  0  0  0
  -19.6640  -25.6581   23.0713 N   0  0  0  0  0  0  0  0  0  0  0  0
  -19.4487  -23.9133   21.4232 N   0  0  0  0  0  0  0  0  0  0  0  0
  -25.9499  -18.2257   21.9924 N   0  0  0  0  0  0  0  0  0  0  0  0
  -25.8405  -19.5235   21.6610 N   0  0  0  0  0  0  0  0  0  0  0  0
  -25.5663  -30.5851   21.9413 N   0  0  0  0  0  0  0  0  0  0  0  0
  -25.6664  -21.1262   25.1265 N   0  0  0  0  0  0  0  0  0  0  0  0
  -25.4513  -20.9802   19.8342 N   0  0  0  0  0  0  0  0  0  0  0  0
  -25.2631  -16.8782   17.9543 N   0  0  0  0  0  0  0  0  0  0  0  0
  -21.1160  -22.5487   24.4119 N   0  0  0  0  0  0  0  0  0  0  0  0
  -27.3723  -27.9193   20.2301 N   0  0  0  0  0  0  0  0  0  0  0  0
  -25.4849  -33.3384   23.9088 N   0  0  0  0  0  0  0  0  0  0  0  0
  -23.3702  -21.2236   25.6849 N   0  0  0  0  0  0  0  0  0  0  0  0
  -23.0956  -35.8755   22.9483 N   0  3  0  0  0  0  0  0  0  0  0  0
  -25.1182  -19.1277   17.5333 O   0  0  0  0  0  0  0  0  0  0  0  0
  -26.4773  -28.2329   22.3569 O   0  0  0  0  0  0  0  0  0  0  0  0
  -27.4491  -31.8724   22.4251 O   0  0  0  0  0  0  0  0  0  0  0  0
  -23.1681  -33.2453   23.9449 O   0  0  0  0  0  0  0  0  0  0  0  0
  -24.8804  -22.5737   26.7590 O   0  0  0  0  0  0  0  0  0  0  0  0
  -25.9255  -12.0145   20.5890 O   0  0  0  0  0  0  0  0  0  0  0  0
  -20.0549  -28.0305   20.8683 O   0  0  0  0  0  0  0  0  0  1  0  0
  -30.0200   -9.4590   23.2552 F   0  0  0  0  0  0  0  0  0  0  0  0
  -27.7218  -10.4129   19.2285 F   0  0  0  0  0  0  0  0  0  0  0  0
  1  2  1  0  0  0  0
  1  5  2  0  0  0  0
  2  6  2  0  0  0  0
  3  8  2  0  0  0  0
  3 17  1  0  0  0  0
  4  9  1  0  0  0  0
  4 17  2  0  0  0  0
  5 19  1  0  0  0  0
  6 21  1  0  0  0  0
  7 10  2  0  0  0  0
  7 20  1  0  0  0  0
  8 24  1  0  0  0  0
  9 24  2  0  0  0  0
 10 25  1  0  0  0  0
 11 12  2  0  0  0  0
 11 26  1  0  0  0  0
 12 27  1  0  0  0  0
 13 22  1  0  0  0  0
 13 25  2  0  0  0  0
 14 27  2  0  0  0  0
 14 28  1  0  0  0  0
 15 23  1  0  0  0  0
 15 63  2  0  0  0  0
 16 23  2  0  0  0  0
 16 64  1  0  0  0  0
 17 29  1  0  0  0  0
 18 29  1  0  0  0  0
 18 30  2  0  0  0  0
 18 32  1  0  0  0  0
 19 21  2  0  0  0  0
 19 37  1  0  0  0  0
 20 22  2  0  0  0  0
 20 38  1  0  0  0  0
 21 48  1  0  0  0  0
 22 39  1  0  0  0  0
 23 71  1  0  0  0  0
 24 81  1  0  0  0  0
 25 82  1  0  0  0  0
 26 28  2  0  0  0  0
 26 81  1  0  0  0  0
 27 83  1  0  0  0  0
 28 84  1  0  0  0  0
 29 65  2  0  0  0  0
 30 66  1  0  0  0  0
 30 69  1  0  0  0  0
 31 51  1  0  0  0  0
 31 63  1  0  0  0  0
 31 64  2  0  0  0  0
 32 70  1  0  0  0  0
 32 76  2  0  0  0  0
 33 49  1  0  0  0  0
 33 72  1  0  0  0  0
 33 77  2  0  0  0  0
 34 60  1  0  0  0  0
 34 67  1  0  0  0  0
 34 78  2  0  0  0  0
 35 61  1  0  0  0  0
 35 73  1  0  0  0  0
 35 79  2  0  0  0  0
 36 68  1  0  0  0  0
 36 74  1  0  0  0  0
 36 80  2  0  0  0  0
 37 40  1  0  0  0  0
 38 49  1  0  0  0  0
 39 67  1  0  0  0  0
 40 42  1  0  0  0  0
 41 43  1  0  0  0  0
 41 46  1  0  0  0  0
 42 48  1  0  0  0  0
 43 50  1  0  0  0  0
 44 45  1  0  0  0  0
 44 51  1  0  0  0  0
 45 51  1  0  0  0  0
 46 68  1  0  0  0  0
 47 50  1  0  0  0  0
 47 68  1  0  0  0  0
 48 72  1  0  0  0  0
 49 67  1  0  0  0  0
 50 66  1  0  0  0  0
 51 57  1  0  0  0  0
 52 61  1  0  0  0  0
 53 62  1  0  0  0  0
 54 62  1  0  0  0  0
 55 62  1  0  0  0  0
 56 75  1  0  0  0  0
 57 82  1  0  0  0  0
 58 59  1  0  0  0  0
 58 71  1  0  0  0  0
 59 74  1  0  0  0  0
 60 62  1  0  0  0  0
 60 73  1  0  0  0  0
 61 75  1  0  0  0  0
 65 66  1  0  0  0  0
M  CHG  1  75   1
M  ISO  4  36 100  57 101  74 100  82 101
M  END
> <Batch ID>
0199

> <Smiles>
CNC(C)C(=O)NC(C(=O)N1Cc2cc([101O:1][101CH2:1]C3(c4ncc(NCC[100NH:0][100C:0](=O)N5CCCC(n6nc(-c7ccc(Oc8ccc(F)cc8F)cc7)c(C(N)=O)c6N)C5)cn4)CC3)ccc2CC1C(=O)NC1CCCc2ccccc21)C(C)(C)C

> <Shape>
0.244

> <Color>
0.069

> <Negative vol penalty>
0.000

$$$$

  -OEChem-04052323503D

 89 99  0     1  0  0  0  0  0999 V2000
  -21.0038  -32.8680   18.6800 C   0  0  0  0  0  0  0  0  0  0  0  0
  -22.2362  -32.2564   18.8863 C   0  0  0  0  0  0  0  0  0  0  0  0
  -22.1758  -13.5460   22.3445 C   0  0  0  0  0  0  0  0  0  0  0  0
  -22.9543  -15.3697   20.9643 C   0  0  0  0  0  0  0  0  0  0  0  0
  -20.0168  -32.7933   19.6618 C   0  0  0  0  0  0  0  0  0  0  0  0
  -22.4826  -31.5706   20.0751 C   0  0  0  0  0  0  0  0  0  0  0  0
  -24.7390  -27.1023   19.3085 C   0  0  0  0  0  0  0  0  0  0  0  0
  -21.0953  -14.3231   22.7619 C   0  0  0  0  0  0  0  0  0  0  0  0
  -21.8738  -16.1469   21.3817 C   0  0  0  0  0  0  0  0  0  0  0  0
  -26.1074  -27.1174   19.0420 C   0  0  0  0  0  0  0  0  0  0  0  0
  -18.0900  -15.2731   21.5379 C   0  0  0  0  0  0  0  0  0  0  0  0
  -16.8309  -14.6734   21.5613 C   0  0  0  0  0  0  0  0  0  0  0  0
  -26.5550  -26.5318   21.3390 C   0  0  0  0  0  0  0  0  0  0  0  0
  -16.6719  -15.1000   23.9340 C   0  0  0  0  0  0  0  0  0  0  0  0
  -28.7665  -19.2469   19.6622 C   0  0  0  0  0  0  0  0  0  0  0  0
  -23.1053  -14.0693   21.4457 C   0  0  0  0  0  0  0  0  0  0  0  0
  -24.1717  -12.0337   20.3380 C   0  0  0  0  0  0  0  0  0  0  0  0
  -20.2478  -32.0981   20.8592 C   0  0  0  0  0  0  0  0  0  0  0  0
  -24.2680  -26.8120   20.5970 C   0  0  0  0  0  0  0  0  0  0  0  0
  -21.4982  -31.4876   21.0745 C   0  0  0  0  0  0  0  0  0  0  0  0
  -25.1801  -26.5111   21.6185 C   0  0  0  0  0  0  0  0  0  0  0  0
  -20.9443  -15.6235   22.2805 C   0  0  0  0  0  0  0  0  0  0  0  0
  -27.0158  -26.8350   20.0580 C   0  0  0  0  0  0  0  0  0  0  0  0
  -18.6401  -15.7862   22.7125 C   0  0  0  0  0  0  0  0  0  0  0  0
  -16.1218  -14.5869   22.7594 C   0  0  0  0  0  0  0  0  0  0  0  0
  -17.9311  -15.6997   23.9106 C   0  0  0  0  0  0  0  0  0  0  0  0
  -24.2220  -13.2673   21.0145 C   0  0  0  0  0  0  0  0  0  0  0  0
  -29.4338  -18.8574   18.5353 C   0  0  0  0  0  0  0  0  0  0  0  0
  -25.4884  -11.6870   20.1578 C   0  0  0  0  0  0  0  0  0  0  0  0
  -29.9467  -20.9733   18.9361 C   0  0  0  0  0  0  0  0  0  0  0  0
  -23.0362  -11.2697   19.9105 C   0  0  0  0  0  0  0  0  0  0  0  0
  -22.5870  -28.3963   22.7806 C   0  0  0  0  0  0  0  0  0  0  0  0
  -22.6711  -25.5543   24.3421 C   0  0  0  0  0  0  0  0  0  0  0  0
  -22.7286  -22.8760   26.4563 C   0  0  0  0  0  0  0  0  0  0  0  0
  -30.5197  -15.0558   19.9726 C   0  0  0  0  0  0  0  0  0  0  0  0
  -19.1670  -32.0848   21.9111 C   0  0  0  0  0  0  0  0  0  0  0  0
  -22.7878  -26.7735   20.8617 C   0  0  0  0  0  0  0  0  0  0  0  0
  -24.7249  -26.1734   23.0140 C   0  0  0  0  0  0  0  0  0  0  0  0
  -19.3758  -31.0207   22.9856 C   0  0  0  0  0  0  0  0  0  0  0  0
  -29.8141  -12.2302   22.0744 C   0  0  0  0  0  0  0  0  0  0  0  0
  -20.8191  -31.0362   23.4788 C   0  0  0  0  0  0  0  0  0  0  0  0
  -28.2956  -12.0952   22.0273 C   0  0  0  0  0  0  0  0  0  0  0  0
  -31.3785  -22.7729   20.0442 C   0  0  0  0  0  0  0  0  0  0  0  0
  -30.2323  -13.6930   22.0098 C   0  0  0  0  0  0  0  0  0  0  0  0
  -30.6395  -16.5186   17.8885 C   0  0  0  0  0  0  0  0  0  0  0  0
  -28.6513  -16.2634   18.6013 C   0  0  0  0  0  0  0  0  0  0  0  0
  -28.2037  -14.2672   20.7026 C   0  0  0  0  0  0  0  0  0  0  0  0
  -31.5249  -24.2663   19.8405 C   0  0  0  0  0  0  0  0  0  0  0  0
  -29.5111  -23.4771   18.6961 C   0  0  0  0  0  0  0  0  0  0  0  0
  -21.7947  -30.7135   22.3405 C   0  0  1  0  0  0  0  0  0  0  0  0
  -29.3768  -17.4122   17.8571 C   0  0  0  0  0  0  0  0  0  0  0  0
  -30.5434  -22.3557   18.8355 C   0  0  2  0  0  0  0  0  0  0  0  0
  -22.4388  -26.9694   22.3338 C   0  0  1  0  0  0  0  0  0  0  0  0
  -27.7315  -12.8020   20.7863 C   0  0  2  0  0  0  0  0  0  0  0  0
  -31.2597  -20.6964   14.5403 C   0  0  0  0  0  0  0  0  0  0  0  0
  -22.5004  -22.2761   28.8823 C   0  0  0  0  0  0  0  0  0  0  0  0
  -25.4819  -26.6189   24.8673 C   0  0  0  0  0  0  0  0  0  0  0  0
  -25.5634  -25.1912   26.9223 C   0  0  0  0  0  0  0  0  0  0  0  0
  -23.8570  -27.0006   26.7296 C   0  0  0  0  0  0  0  0  0  0  0  0
  -20.3751  -21.1603   25.9303 C   0  0  0  0  0  0  0  0  0  0  0  0
  -30.3522  -20.6859   15.7594 C   0  0  0  0  0  0  0  0  0  0  0  0
  -31.0124  -19.9743   16.9382 C   0  0  0  0  0  0  0  0  0  0  0  0
  -30.1606  -25.9197   18.5175 C   0  0  0  0  0  0  0  0  0  0  0  0
  -28.7627  -26.5050   18.4783 C   0  0  0  0  0  0  0  0  0  1  0  0
  -23.6065  -24.9070   25.3346 C   0  0  1  0  0  0  0  0  0  0  0  0
  -21.7763  -22.4393   27.5550 C   0  0  2  0  0  0  0  0  0  0  0  0
  -24.6222  -25.9178   25.9379 C   0  0  0  0  0  0  0  0  0  0  0  0
  -25.4717  -13.6765   21.2484 N   0  0  0  0  0  0  0  0  0  0  0  0
  -30.1556  -19.9454   18.1070 N   0  0  0  0  0  0  0  0  0  0  0  0
  -26.2189  -12.6945   20.7159 N   0  0  0  0  0  0  0  0  0  0  0  0
  -29.1025  -20.5601   19.8869 N   0  3  0  0  0  0  0  0  0  0  0  0
  -23.2679  -26.1548   23.2245 N   0  0  0  0  0  0  0  0  0  0  0  0
  -29.6620  -14.3780   20.8460 N   0  0  0  0  0  0  0  0  0  0  0  0
  -29.9645  -15.7230   18.9045 N   0  0  0  0  0  0  0  0  0  0  0  0
  -26.0810  -10.6216   19.5780 N   0  0  0  0  0  0  0  0  0  0  0  0
  -21.7548  -11.7717   20.1760 N   0  0  0  0  0  0  0  0  0  0  0  0
  -21.8069  -29.2912   22.0734 N   0  0  0  0  0  0  0  0  0  0  0  0
  -22.7602  -24.2480   26.3234 N   0  0  0  0  0  0  0  0  0  0  0  0
  -30.1548  -24.6843   19.3586 N   0  3  2  0  0  0  0  0  0  0  0  0
  -21.1412  -21.1379   27.2029 N   0  3  0  0  0  0  0  0  0  0  0  0
  -23.1543  -10.1664   19.3255 O   0  0  0  0  0  0  0  0  0  0  0  0
  -23.3514  -28.6653   23.6999 O   0  0  0  0  0  0  0  0  0  0  0  0
  -21.4551  -25.5219   24.5472 O   0  0  0  0  0  0  0  0  0  0  0  0
  -23.3820  -22.0797   25.7858 O   0  0  0  0  0  0  0  0  0  0  0  0
  -31.7436  -15.0920   20.1564 O   0  0  0  0  0  0  0  0  0  0  0  0
  -19.8900  -16.3820   22.6875 O   0  0  0  0  0  0  0  0  0  0  0  0
  -28.3520  -26.8497   19.8008 O   0  0  0  0  0  0  0  0  0  1  0  0
  -14.9120  -14.0124   22.7814 F   0  0  0  0  0  0  0  0  0  0  0  0
  -18.4539  -16.1919   25.0421 F   0  0  0  0  0  0  0  0  0  0  0  0
  1  2  1  0  0  0  0
  1  5  2  0  0  0  0
  2  6  2  0  0  0  0
  3  8  2  0  0  0  0
  3 16  1  0  0  0  0
  4  9  1  0  0  0  0
  4 16  2  0  0  0  0
  5 18  1  0  0  0  0
  6 20  1  0  0  0  0
  7 10  2  0  0  0  0
  7 19  1  0  0  0  0
  8 22  1  0  0  0  0
  9 22  2  0  0  0  0
 10 23  1  0  0  0  0
 11 12  2  0  0  0  0
 11 24  1  0  0  0  0
 12 25  1  0  0  0  0
 13 21  1  0  0  0  0
 13 23  2  0  0  0  0
 14 25  2  0  0  0  0
 14 26  1  0  0  0  0
 15 28  2  0  0  0  0
 15 71  1  0  0  0  0
 16 27  1  0  0  0  0
 17 27  1  0  0  0  0
 17 29  2  0  0  0  0
 17 31  1  0  0  0  0
 18 20  2  0  0  0  0
 18 36  1  0  0  0  0
 19 21  2  0  0  0  0
 19 37  1  0  0  0  0
 20 50  1  0  0  0  0
 21 38  1  0  0  0  0
 22 86  1  0  0  0  0
 23 87  1  0  0  0  0
 24 26  2  0  0  0  0
 24 86  1  0  0  0  0
 25 88  1  0  0  0  0
 26 89  1  0  0  0  0
 27 68  2  0  0  0  0
 28 51  1  0  0  0  0
 28 69  1  0  0  0  0
 29 70  1  0  0  0  0
 29 75  1  0  0  0  0
 30 52  1  0  0  0  0
 30 69  1  0  0  0  0
 30 71  2  0  0  0  0
 31 76  1  0  0  0  0
 31 81  2  0  0  0  0
 32 53  1  0  0  0  0
 32 77  1  0  0  0  0
 32 82  2  0  0  0  0
 33 65  1  0  0  0  0
 33 72  1  0  0  0  0
 33 83  2  0  0  0  0
 34 66  1  0  0  0  0
 34 78  1  0  0  0  0
 34 84  2  0  0  0  0
 35 73  1  0  0  0  0
 35 74  1  0  0  0  0
 35 85  2  0  0  0  0
 36 39  1  0  0  0  0
 37 53  1  0  0  0  0
 38 72  1  0  0  0  0
 39 41  1  0  0  0  0
 40 42  1  0  0  0  0
 40 44  1  0  0  0  0
 41 50  1  0  0  0  0
 42 54  1  0  0  0  0
 43 48  1  0  0  0  0
 43 52  1  0  0  0  0
 44 73  1  0  0  0  0
 45 51  1  0  0  0  0
 45 74  1  0  0  0  0
 46 51  1  0  0  0  0
 46 74  1  0  0  0  0
 47 54  1  0  0  0  0
 47 73  1  0  0  0  0
 48 79  1  0  0  0  0
 49 52  1  0  0  0  0
 49 79  1  0  0  0  0
 50 77  1  0  0  0  0
 53 72  1  0  0  0  0
 54 70  1  0  0  0  0
 55 61  1  0  0  0  0
 56 66  1  0  0  0  0
 57 67  1  0  0  0  0
 58 67  1  0  0  0  0
 59 67  1  0  0  0  0
 60 80  1  0  0  0  0
 61 62  1  0  0  0  0
 62 69  1  0  0  0  0
 63 64  1  0  0  0  0
 63 79  1  0  0  0  0
 64 87  1  0  0  0  0
 65 67  1  0  0  0  0
 65 78  1  0  0  0  0
 66 80  1  0  0  0  0
 68 70  1  0  0  0  0
M  CHG  3  71   1  79   1  80   1
M  ISO  4  35 100  64 101  74 100  87 101
M  END
> <Batch ID>
0199

> <Smiles>
CCCn1c(C2C[100N:0]([100C:0](=O)N3CCCC(n4nc(-c5ccc(Oc6ccc(F)cc6F)cc5)c(C(N)=O)c4N)C3)C2)cnc1C1CCN(C[101CH2:1][101O:1]c2ccc3c(c2)CN(C(=O)C(NC(=O)C(C)NC)C(C)(C)C)C(C(=O)NC2CCCc4ccccc42)C3)C1

> <Shape>
0.202

> <Color>
0.085

> <Negative vol penalty>
0.000

$$$$

  -OEChem-04052323503D

 82 90  0     1  0  0  0  0  0999 V2000
  -30.6169  -23.0844   14.9071 C   0  0  0  0  0  0  0  0  0  0  0  0
  -30.1610  -22.8531   16.2010 C   0  0  0  0  0  0  0  0  0  0  0  0
  -23.4991  -15.7942   22.8207 C   0  0  0  0  0  0  0  0  0  0  0  0
  -22.6164  -15.8705   20.5730 C   0  0  0  0  0  0  0  0  0  0  0  0
  -30.8769  -24.3870   14.4834 C   0  0  0  0  0  0  0  0  0  0  0  0
  -29.9660  -23.9242   17.0723 C   0  0  0  0  0  0  0  0  0  0  0  0
  -25.5981  -23.5912   19.6131 C   0  0  0  0  0  0  0  0  0  0  0  0
  -22.5862  -16.7733   23.2125 C   0  0  0  0  0  0  0  0  0  0  0  0
  -21.7035  -16.8496   20.9648 C   0  0  0  0  0  0  0  0  0  0  0  0
  -25.5562  -22.7129   20.6950 C   0  0  0  0  0  0  0  0  0  0  0  0
  -19.3812  -19.6270   21.2856 C   0  0  0  0  0  0  0  0  0  0  0  0
  -19.2143  -20.7300   20.4484 C   0  0  0  0  0  0  0  0  0  0  0  0
  -25.8662  -24.5682   22.2053 C   0  0  0  0  0  0  0  0  0  0  0  0
  -21.5513  -21.2836   20.7121 C   0  0  0  0  0  0  0  0  0  0  0  0
  -23.5143  -15.3428   21.5009 C   0  0  0  0  0  0  0  0  0  0  0  0
  -24.2716  -12.9366   21.1209 C   0  0  0  0  0  0  0  0  0  0  0  0
  -30.6757  -25.4755   15.3467 C   0  0  0  0  0  0  0  0  0  0  0  0
  -25.7855  -24.9656   19.8188 C   0  0  0  0  0  0  0  0  0  0  0  0
  -30.2248  -25.2425   16.6600 C   0  0  0  0  0  0  0  0  0  0  0  0
  -25.9075  -25.4621   21.1245 C   0  0  0  0  0  0  0  0  0  0  0  0
  -21.6884  -17.3010   22.2845 C   0  0  0  0  0  0  0  0  0  0  0  0
  -25.6932  -23.2010   21.9912 C   0  0  0  0  0  0  0  0  0  0  0  0
  -20.6330  -19.3522   21.8362 C   0  0  0  0  0  0  0  0  0  0  0  0
  -20.2994  -21.5583   20.1616 C   0  0  0  0  0  0  0  0  0  0  0  0
  -21.7181  -20.1805   21.5493 C   0  0  0  0  0  0  0  0  0  0  0  0
  -24.4575  -14.3318   21.0954 C   0  0  0  0  0  0  0  0  0  0  0  0
  -25.4514  -12.4242   20.6393 C   0  0  0  0  0  0  0  0  0  0  0  0
  -23.1342  -12.1722   21.5421 C   0  0  0  0  0  0  0  0  0  0  0  0
  -28.0074  -27.0772   18.9774 C   0  0  0  0  0  0  0  0  0  0  0  0
  -25.9385  -29.1968   20.3000 C   0  0  0  0  0  0  0  0  0  0  0  0
  -23.3810  -29.7705   22.4855 C   0  0  0  0  0  0  0  0  0  0  0  0
  -31.0335  -14.5707   20.4785 C   0  0  0  0  0  0  0  0  0  0  0  0
  -31.0155  -26.8615   14.8589 C   0  0  0  0  0  0  0  0  0  0  0  0
  -25.8017  -25.9031   18.6428 C   0  0  0  0  0  0  0  0  0  0  0  0
  -26.0904  -26.9315   21.4003 C   0  0  0  0  0  0  0  0  0  0  0  0
  -30.4257  -27.9731   15.7230 C   0  0  0  0  0  0  0  0  0  0  0  0
  -29.0941  -13.4587   17.7436 C   0  0  0  0  0  0  0  0  0  0  0  0
  -30.6646  -27.6836   17.2015 C   0  0  0  0  0  0  0  0  0  0  0  0
  -27.6628  -13.4555   18.2734 C   0  0  0  0  0  0  0  0  0  0  0  0
  -32.1487  -16.1504   23.6343 C   0  0  0  0  0  0  0  0  0  0  0  0
  -29.8736  -14.6429   18.2993 C   0  0  0  0  0  0  0  0  0  0  0  0
  -32.3735  -15.2113   22.4595 C   0  0  0  0  0  0  0  0  0  0  0  0
  -30.2515  -16.3029   22.2033 C   0  0  0  0  0  0  0  0  0  0  0  0
  -28.4952  -14.6569   20.3607 C   0  0  0  0  0  0  0  0  0  0  0  0
  -29.9773  -26.3804   17.6265 C   0  0  1  0  0  0  0  0  0  0  0  0
  -26.5122  -27.2203   18.9383 C   0  0  1  0  0  0  0  0  0  0  0  0
  -31.1672  -17.1743   23.0628 C   0  0  1  0  0  0  0  0  0  0  0  0
  -27.6540  -13.4871   19.8096 C   0  0  1  0  0  0  0  0  0  0  0  0
  -21.9260  -31.6112   23.3757 C   0  0  0  0  0  0  0  0  0  0  0  0
  -25.8172  -20.5508   25.3832 C   0  0  0  0  0  0  0  0  0  0  0  0
  -28.2522  -30.1884   22.0243 C   0  0  0  0  0  0  0  0  0  0  0  0
  -26.5750  -31.3094   23.5072 C   0  0  0  0  0  0  0  0  0  0  0  0
  -26.7787  -31.9940   21.1171 C   0  0  0  0  0  0  0  0  0  0  0  0
  -20.9204  -28.4697   21.4794 C   0  0  0  0  0  0  0  0  0  0  0  0
  -30.4257  -17.9556   24.1328 C   0  0  0  0  0  0  0  0  0  0  0  0
  -29.4838  -18.9931   23.5210 C   0  0  0  0  0  0  0  0  0  0  0  0
  -28.7195  -19.7440   24.6012 C   0  0  0  0  0  0  0  0  0  0  0  0
  -26.4075  -22.7070   24.2052 C   0  0  0  0  0  0  0  0  0  1  0  0
  -25.7283  -29.7649   21.6827 C   0  0  1  0  0  0  0  0  0  0  0  0
  -22.0697  -30.5187   22.3275 C   0  0  2  0  0  0  0  0  0  0  0  0
  -26.9370  -21.4655   24.9140 C   0  0  2  0  0  0  0  0  0  0  0  0
  -26.8320  -30.7862   22.0779 C   0  0  0  0  0  0  0  0  0  0  0  0
  -25.6607  -14.6834   20.6343 N   0  0  0  0  0  0  0  0  0  0  0  0
  -26.2416  -13.5017   20.3656 N   0  0  0  0  0  0  0  0  0  0  0  0
  -26.1059  -27.8072   20.2169 N   0  0  0  0  0  0  0  0  0  0  0  0
  -29.8363  -14.6802   19.7625 N   0  0  0  0  0  0  0  0  0  0  0  0
  -31.1321  -15.2492   21.6926 N   0  0  0  0  0  0  0  0  0  0  0  0
  -25.8797  -11.1616   20.4275 N   0  0  0  0  0  0  0  0  0  0  0  0
  -22.0046  -12.8575   22.0098 N   0  0  0  0  0  0  0  0  0  0  0  0
  -28.5571  -26.5931   17.8057 N   0  0  0  0  0  0  0  0  0  0  0  0
  -24.3756  -30.3111   21.6983 N   0  0  0  0  0  0  0  0  0  0  0  0
  -20.9189  -29.5818   22.4644 N   0  3  0  0  0  0  0  0  0  0  0  0
  -27.7893  -20.7041   23.9600 N   0  3  0  0  0  0  0  0  0  0  0  0
  -23.1259  -10.9180   21.5203 O   0  0  0  0  0  0  0  0  0  0  0  0
  -28.6175  -27.3847   19.9948 O   0  0  0  0  0  0  0  0  0  0  0  0
  -25.9465  -29.9570   19.3286 O   0  0  0  0  0  0  0  0  0  0  0  0
  -23.5111  -28.8054   23.2354 O   0  0  0  0  0  0  0  0  0  0  0  0
  -31.9929  -13.9273   20.0321 O   0  0  0  0  0  0  0  0  0  0  0  0
  -20.7972  -18.2562   22.6665 O   0  0  0  0  0  0  0  0  0  0  0  0
  -25.6530  -22.3400   23.0562 O   0  0  0  0  0  0  0  0  0  1  0  0
  -20.1394  -22.6167   19.3564 F   0  0  0  0  0  0  0  0  0  0  0  0
  -22.9234  -19.9209   22.0743 F   0  0  0  0  0  0  0  0  0  0  0  0
  1  2  1  0  0  0  0
  1  5  2  0  0  0  0
  2  6  2  0  0  0  0
  3  8  2  0  0  0  0
  3 15  1  0  0  0  0
  4  9  1  0  0  0  0
  4 15  2  0  0  0  0
  5 17  1  0  0  0  0
  6 19  1  0  0  0  0
  7 10  2  0  0  0  0
  7 18  1  0  0  0  0
  8 21  1  0  0  0  0
  9 21  2  0  0  0  0
 10 22  1  0  0  0  0
 11 12  2  0  0  0  0
 11 23  1  0  0  0  0
 12 24  1  0  0  0  0
 13 20  1  0  0  0  0
 13 22  2  0  0  0  0
 14 24  2  0  0  0  0
 14 25  1  0  0  0  0
 15 26  1  0  0  0  0
 16 26  1  0  0  0  0
 16 27  2  0  0  0  0
 16 28  1  0  0  0  0
 17 19  2  0  0  0  0
 17 33  1  0  0  0  0
 18 20  2  0  0  0  0
 18 34  1  0  0  0  0
 19 45  1  0  0  0  0
 20 35  1  0  0  0  0
 21 79  1  0  0  0  0
 22 80  1  0  0  0  0
 23 25  2  0  0  0  0
 23 79  1  0  0  0  0
 24 81  1  0  0  0  0
 25 82  1  0  0  0  0
 26 63  2  0  0  0  0
 27 64  1  0  0  0  0
 27 68  1  0  0  0  0
 28 69  1  0  0  0  0
 28 74  2  0  0  0  0
 29 46  1  0  0  0  0
 29 70  1  0  0  0  0
 29 75  2  0  0  0  0
 30 59  1  0  0  0  0
 30 65  1  0  0  0  0
 30 76  2  0  0  0  0
 31 60  1  0  0  0  0
 31 71  1  0  0  0  0
 31 77  2  0  0  0  0
 32 66  1  0  0  0  0
 32 67  1  0  0  0  0
 32 78  2  0  0  0  0
 33 36  1  0  0  0  0
 34 46  1  0  0  0  0
 35 65  1  0  0  0  0
 36 38  1  0  0  0  0
 37 39  1  0  0  0  0
 37 41  1  0  0  0  0
 38 45  1  0  0  0  0
 39 48  1  0  0  0  0
 40 42  1  0  0  0  0
 40 47  1  0  0  0  0
 41 66  1  0  0  0  0
 42 67  1  0  0  0  0
 43 47  1  0  0  0  0
 43 67  1  0  0  0  0
 44 48  1  0  0  0  0
 44 66  1  0  0  0  0
 45 70  1  0  0  0  0
 46 65  1  0  0  0  0
 47 55  1  0  0  0  0
 48 64  1  0  0  0  0
 49 60  1  0  0  0  0
 50 61  1  0  0  0  0
 51 62  1  0  0  0  0
 52 62  1  0  0  0  0
 53 62  1  0  0  0  0
 54 72  1  0  0  0  0
 55 56  1  0  0  0  0
 56 57  1  0  0  0  0
 57 73  1  0  0  0  0
 58 61  1  0  0  0  0
 58 80  1  0  0  0  0
 59 62  1  0  0  0  0
 59 71  1  0  0  0  0
 60 72  1  0  0  0  0
 61 73  1  0  0  0  0
 63 64  1  0  0  0  0
M  CHG  2  72   1  73   1
M  ISO  4  32 100  58 101  67 100  80 101
M  END
> <Batch ID>
0199

> <Smiles>
CNC(C)C(=O)NC(C(=O)N1Cc2cc([101O:1][101CH2:1]C(C)NCCCC3CC[100N:0]([100C:0](=O)N4CCCC(n5nc(-c6ccc(Oc7ccc(F)cc7F)cc6)c(C(N)=O)c5N)C4)C3)ccc2CC1C(=O)NC1CCCc2ccccc21)C(C)(C)C

> <Shape>
0.219

> <Color>
0.120

> <Negative vol penalty>
0.000

$$$$

  -OEChem-04052323503D

 84 93  0     1  0  0  0  0  0999 V2000
  -32.3509  -21.7000   22.8900 C   0  0  0  0  0  0  0  0  0  0  0  0
  -31.0712  -21.9338   23.3831 C   0  0  0  0  0  0  0  0  0  0  0  0
  -26.4554  -27.9972   20.9608 C   0  0  0  0  0  0  0  0  0  0  0  0
  -26.7183  -29.8692   19.4562 C   0  0  0  0  0  0  0  0  0  0  0  0
  -32.5178  -21.0544   21.6656 C   0  0  0  0  0  0  0  0  0  0  0  0
  -29.9575  -21.5230   22.6513 C   0  0  0  0  0  0  0  0  0  0  0  0
  -24.6432  -19.4551   24.8845 C   0  0  0  0  0  0  0  0  0  0  0  0
  -27.4338  -27.2946   20.2576 C   0  0  0  0  0  0  0  0  0  0  0  0
  -27.6967  -29.1665   18.7529 C   0  0  0  0  0  0  0  0  0  0  0  0
  -23.4126  -20.0736   25.1011 C   0  0  0  0  0  0  0  0  0  0  0  0
  -30.8092  -27.2435   20.0641 C   0  0  0  0  0  0  0  0  0  0  0  0
  -31.7852  -26.5756   20.8036 C   0  0  0  0  0  0  0  0  0  0  0  0
  -22.6305  -19.2490   22.9732 C   0  0  0  0  0  0  0  0  0  0  0  0
  -31.0982  -24.4797   19.8178 C   0  0  0  0  0  0  0  0  0  0  0  0
  -26.0976  -29.2845   20.5601 C   0  0  0  0  0  0  0  0  0  0  0  0
  -25.2801  -30.8678   22.3856 C   0  0  0  0  0  0  0  0  0  0  0  0
  -31.4059  -20.6270   20.9230 C   0  0  0  0  0  0  0  0  0  0  0  0
  -24.8808  -18.7369   23.7038 C   0  0  0  0  0  0  0  0  0  0  0  0
  -30.1097  -20.8723   21.4151 C   0  0  0  0  0  0  0  0  0  0  0  0
  -23.8641  -18.6202   22.7453 C   0  0  0  0  0  0  0  0  0  0  0  0
  -28.0545  -27.8792   19.1537 C   0  0  0  0  0  0  0  0  0  0  0  0
  -22.4070  -19.9731   24.1441 C   0  0  0  0  0  0  0  0  0  0  0  0
  -29.9775  -26.5294   19.2015 C   0  0  0  0  0  0  0  0  0  0  0  0
  -31.9298  -25.1938   20.6805 C   0  0  0  0  0  0  0  0  0  0  0  0
  -30.1220  -25.1475   19.0783 C   0  0  0  0  0  0  0  0  0  0  0  0
  -25.0865  -30.0107   21.2858 C   0  0  0  0  0  0  0  0  0  0  0  0
  -24.0181  -31.3044   22.7070 C   0  0  0  0  0  0  0  0  0  0  0  0
  -26.4922  -31.2365   23.0568 C   0  0  0  0  0  0  0  0  0  0  0  0
  -26.9173  -19.0167   21.2794 C   0  0  0  0  0  0  0  0  0  0  0  0
  -25.6153  -16.1888   20.3683 C   0  0  0  0  0  0  0  0  0  0  0  0
  -22.9618  -14.0465   20.4948 C   0  0  0  0  0  0  0  0  0  0  0  0
  -18.5764  -28.9809   21.7909 C   0  0  0  0  0  0  0  0  0  0  0  0
  -31.6352  -19.9754   19.5823 C   0  0  0  0  0  0  0  0  0  0  0  0
  -26.2045  -18.0531   23.4973 C   0  0  0  0  0  0  0  0  0  0  0  0
  -24.0619  -17.8436   21.4700 C   0  0  0  0  0  0  0  0  0  0  0  0
  -30.4111  -19.2375   19.0463 C   0  0  0  0  0  0  0  0  0  0  0  0
  -19.7393  -32.1690   20.7942 C   0  0  0  0  0  0  0  0  0  0  0  0
  -29.1620  -20.1013   19.1896 C   0  0  0  0  0  0  0  0  0  0  0  0
  -21.2592  -32.0558   20.8705 C   0  0  0  0  0  0  0  0  0  0  0  0
  -18.9140  -25.3633   21.2584 C   0  0  0  0  0  0  0  0  0  0  0  0
  -19.1245  -30.8683   20.2954 C   0  0  0  0  0  0  0  0  0  0  0  0
  -19.5809  -26.7239   21.1022 C   0  0  0  0  0  0  0  0  0  0  0  0
  -17.9560  -26.8374   22.8651 C   0  0  0  0  0  0  0  0  0  0  0  0
  -19.0341  -22.6936   23.5384 C   0  0  0  0  0  0  0  0  0  0  0  0
  -20.9953  -29.5506   21.2523 C   0  0  0  0  0  0  0  0  0  0  0  0
  -16.8481  -21.9918   23.0057 C   0  0  0  0  0  0  0  0  0  0  0  0
  -28.8774  -20.4197   20.6623 C   0  0  1  0  0  0  0  0  0  0  0  0
  -26.5126  -17.7787   22.0286 C   0  0  1  0  0  0  0  0  0  0  0  0
  -18.4304  -25.3955   22.7086 C   0  0  1  0  0  0  0  0  0  0  0  0
  -18.9576  -21.1744   23.7629 C   0  0  1  0  0  0  0  0  0  0  0  0
  -21.6694  -30.8521   21.7330 C   0  0  1  0  0  0  0  0  0  0  0  0
  -17.7248  -20.7567   22.9665 C   0  0  1  0  0  0  0  0  0  0  0  0
  -22.1754  -11.8307   19.6177 C   0  0  0  0  0  0  0  0  0  0  0  0
  -25.0503  -17.4659   17.6555 C   0  0  0  0  0  0  0  0  0  0  0  0
  -23.4627  -15.5891   17.1807 C   0  0  0  0  0  0  0  0  0  0  0  0
  -25.8834  -15.1104   17.5464 C   0  0  0  0  0  0  0  0  0  0  0  0
  -15.7901  -19.1782   22.9040 C   0  0  0  0  0  0  0  0  0  0  0  0
  -22.7445  -12.9138   23.2204 C   0  0  0  0  0  0  0  0  0  0  0  0
  -17.3496  -24.3708   23.0021 C   0  0  0  0  0  0  0  0  0  0  0  0
  -20.2184  -20.4370   23.3375 C   0  0  0  0  0  0  0  0  0  1  0  0
  -24.4413  -15.7787   19.5125 C   0  0  1  0  0  0  0  0  0  0  0  0
  -22.8847  -12.5525   20.7529 C   0  0  2  0  0  0  0  0  0  0  0  0
  -24.7060  -16.0024   17.9968 C   0  0  0  0  0  0  0  0  0  0  0  0
  -23.8027  -29.9074   20.9322 N   0  0  0  0  0  0  0  0  0  0  0  0
  -23.1780  -30.7052   21.8150 N   0  0  0  0  0  0  0  0  0  0  0  0
  -25.3756  -17.1982   21.3114 N   0  0  0  0  0  0  0  0  0  0  0  0
  -19.5442  -29.7220   21.1038 N   0  0  0  0  0  0  0  0  0  0  0  0
  -18.8005  -27.6154   21.9628 N   0  0  0  0  0  0  0  0  0  0  0  0
  -17.8468  -23.0296   22.7392 N   0  0  1  0  0  0  0  0  0  0  0  0
  -23.5561  -32.1384   23.6627 N   0  0  0  0  0  0  0  0  0  0  0  0
  -27.7012  -30.6964   22.5973 N   0  0  0  0  0  0  0  0  0  0  0  0
  -28.2733  -19.2798   21.3183 N   0  0  0  0  0  0  0  0  0  0  0  0
  -24.1394  -14.3966   19.8688 N   0  0  0  0  0  0  0  0  0  0  0  0
  -17.0481  -19.6011   23.5853 N   0  3  0  0  0  0  0  0  0  0  0  0
  -22.1434  -12.2828   22.0172 N   0  3  0  0  0  0  0  0  0  0  0  0
  -26.5012  -32.0087   24.0453 O   0  0  0  0  0  0  0  0  0  0  0  0
  -26.0628  -19.6830   20.7071 O   0  0  0  0  0  0  0  0  0  0  0  0
  -26.7032  -15.6290   20.2109 O   0  0  0  0  0  0  0  0  0  0  0  0
  -22.0652  -14.8246   20.8130 O   0  0  0  0  0  0  0  0  0  0  0  0
  -17.5326  -29.5083   22.1984 O   0  0  0  0  0  0  0  0  0  0  0  0
  -29.0095  -27.1939   18.4674 O   0  0  0  0  0  0  0  0  0  0  0  0
  -21.1949  -20.5815   24.3544 O   0  0  0  0  0  0  0  0  0  1  0  0
  -32.8681  -24.5528   21.3895 F   0  0  0  0  0  0  0  0  0  0  0  0
  -29.3268  -24.4563   18.2503 F   0  0  0  0  0  0  0  0  0  0  0  0
  1  2  1  0  0  0  0
  1  5  2  0  0  0  0
  2  6  2  0  0  0  0
  3  8  2  0  0  0  0
  3 15  1  0  0  0  0
  4  9  1  0  0  0  0
  4 15  2  0  0  0  0
  5 17  1  0  0  0  0
  6 19  1  0  0  0  0
  7 10  2  0  0  0  0
  7 18  1  0  0  0  0
  8 21  1  0  0  0  0
  9 21  2  0  0  0  0
 10 22  1  0  0  0  0
 11 12  2  0  0  0  0
 11 23  1  0  0  0  0
 12 24  1  0  0  0  0
 13 20  1  0  0  0  0
 13 22  2  0  0  0  0
 14 24  2  0  0  0  0
 14 25  1  0  0  0  0
 15 26  1  0  0  0  0
 16 26  1  0  0  0  0
 16 27  2  0  0  0  0
 16 28  1  0  0  0  0
 17 19  2  0  0  0  0
 17 33  1  0  0  0  0
 18 20  2  0  0  0  0
 18 34  1  0  0  0  0
 19 47  1  0  0  0  0
 20 35  1  0  0  0  0
 21 81  1  0  0  0  0
 22 82  1  0  0  0  0
 23 25  2  0  0  0  0
 23 81  1  0  0  0  0
 24 83  1  0  0  0  0
 25 84  1  0  0  0  0
 26 64  2  0  0  0  0
 27 65  1  0  0  0  0
 27 70  1  0  0  0  0
 28 71  1  0  0  0  0
 28 76  2  0  0  0  0
 29 48  1  0  0  0  0
 29 72  1  0  0  0  0
 29 77  2  0  0  0  0
 30 61  1  0  0  0  0
 30 66  1  0  0  0  0
 30 78  2  0  0  0  0
 31 62  1  0  0  0  0
 31 73  1  0  0  0  0
 31 79  2  0  0  0  0
 32 67  1  0  0  0  0
 32 68  1  0  0  0  0
 32 80  2  0  0  0  0
 33 36  1  0  0  0  0
 34 48  1  0  0  0  0
 35 66  1  0  0  0  0
 36 38  1  0  0  0  0
 37 39  1  0  0  0  0
 37 41  1  0  0  0  0
 38 47  1  0  0  0  0
 39 51  1  0  0  0  0
 40 42  1  0  0  0  0
 40 49  1  0  0  0  0
 41 67  1  0  0  0  0
 42 68  1  0  0  0  0
 43 49  1  0  0  0  0
 43 68  1  0  0  0  0
 44 50  1  0  0  0  0
 44 69  1  0  0  0  0
 45 51  1  0  0  0  0
 45 67  1  0  0  0  0
 46 52  1  0  0  0  0
 46 69  1  0  0  0  0
 47 72  1  0  0  0  0
 48 66  1  0  0  0  0
 49 59  1  0  0  0  0
 50 52  1  0  0  0  0
 50 60  1  0  0  0  0
 51 65  1  0  0  0  0
 52 74  1  0  0  0  0
 53 62  1  0  0  0  0
 54 63  1  0  0  0  0
 55 63  1  0  0  0  0
 56 63  1  0  0  0  0
 57 74  1  0  0  0  0
 58 75  1  0  0  0  0
 59 69  1  0  0  0  0
 60 82  1  0  0  0  0
 61 63  1  0  0  0  0
 61 73  1  0  0  0  0
 62 75  1  0  0  0  0
 64 65  1  0  0  0  0
M  CHG  2  74   1  75   1
M  ISO  4  32 100  60 101  68 100  82 101
M  END
> <Batch ID>
0199

> <Smiles>
CNC(C)C(=O)NC(C(=O)N1Cc2cc([101O:1][101CH2:1]C3CN(CC4CC[100N:0]([100C:0](=O)N5CCCC(n6nc(-c7ccc(Oc8ccc(F)cc8F)cc7)c(C(N)=O)c6N)C5)C4)CC3NC)ccc2CC1C(=O)NC1CCCc2ccccc21)C(C)(C)C

> <Shape>
0.222

> <Color>
0.067

> <Negative vol penalty>
0.000

$$$$

  -OEChem-04052323503D

 81 90  0     1  0  0  0  0  0999 V2000
  -16.6760  -30.0989   23.1076 C   0  0  0  0  0  0  0  0  0  0  0  0
  -17.8254  -30.4623   22.4131 C   0  0  0  0  0  0  0  0  0  0  0  0
  -22.3756  -14.3894   19.9161 C   0  0  0  0  0  0  0  0  0  0  0  0
  -23.7338  -14.0788   17.9423 C   0  0  0  0  0  0  0  0  0  0  0  0
  -16.7205  -29.0520   24.0273 C   0  0  0  0  0  0  0  0  0  0  0  0
  -19.0202  -29.7797   22.6388 C   0  0  0  0  0  0  0  0  0  0  0  0
  -24.9655  -27.6612   19.2504 C   0  0  0  0  0  0  0  0  0  0  0  0
  -21.2286  -14.4157   19.1227 C   0  0  0  0  0  0  0  0  0  0  0  0
  -22.5869  -14.1050   17.1489 C   0  0  0  0  0  0  0  0  0  0  0  0
  -26.3532  -27.7214   19.3706 C   0  0  0  0  0  0  0  0  0  0  0  0
  -20.0912  -11.9864   16.3104 C   0  0  0  0  0  0  0  0  0  0  0  0
  -19.9731  -11.0191   15.3125 C   0  0  0  0  0  0  0  0  0  0  0  0
  -26.2925  -25.8775   20.9248 C   0  0  0  0  0  0  0  0  0  0  0  0
  -19.8672  -12.7585   13.6390 C   0  0  0  0  0  0  0  0  0  0  0  0
  -30.7005  -24.3809   20.1916 C   0  0  0  0  0  0  0  0  0  0  0  0
  -30.2516  -24.4782   18.0362 C   0  0  0  0  0  0  0  0  0  0  0  0
  -23.6282  -14.2210   19.3259 C   0  0  0  0  0  0  0  0  0  0  0  0
  -25.4135  -13.0660   20.7352 C   0  0  0  0  0  0  0  0  0  0  0  0
  -17.9141  -28.3499   24.2573 C   0  0  0  0  0  0  0  0  0  0  0  0
  -24.2286  -26.7142   19.9761 C   0  0  0  0  0  0  0  0  0  0  0  0
  -19.0809  -28.7233   23.5635 C   0  0  0  0  0  0  0  0  0  0  0  0
  -24.8958  -25.8057   20.8101 C   0  0  0  0  0  0  0  0  0  0  0  0
  -21.3343  -14.2735   17.7391 C   0  0  0  0  0  0  0  0  0  0  0  0
  -27.0167  -26.8314   20.2101 C   0  0  0  0  0  0  0  0  0  0  0  0
  -20.0972  -13.3398   15.9728 C   0  0  0  0  0  0  0  0  0  0  0  0
  -19.8611  -11.4051   13.9768 C   0  0  0  0  0  0  0  0  0  0  0  0
  -19.9853  -13.7258   14.6371 C   0  0  0  0  0  0  0  0  0  0  0  0
  -24.8134  -14.1943   20.1449 C   0  0  0  0  0  0  0  0  0  0  0  0
  -30.5826  -23.1247   19.6453 C   0  0  0  0  0  0  0  0  0  0  0  0
  -26.5028  -13.5674   21.4049 C   0  0  0  0  0  0  0  0  0  0  0  0
  -25.0215  -11.6879   20.6828 C   0  0  0  0  0  0  0  0  0  0  0  0
  -21.9695  -26.8605   22.2073 C   0  0  0  0  0  0  0  0  0  0  0  0
  -21.8970  -23.6442   21.7916 C   0  0  0  0  0  0  0  0  0  0  0  0
  -23.5240  -20.8141   20.7964 C   0  0  0  0  0  0  0  0  0  0  0  0
  -29.6807  -18.4993   20.4227 C   0  0  0  0  0  0  0  0  0  0  0  0
  -17.9245  -27.2563   25.2959 C   0  0  0  0  0  0  0  0  0  0  0  0
  -22.7348  -26.6449   19.8149 C   0  0  0  0  0  0  0  0  0  0  0  0
  -24.1528  -24.7569   21.5953 C   0  0  0  0  0  0  0  0  0  0  0  0
  -19.1410  -26.3389   25.2023 C   0  0  0  0  0  0  0  0  0  0  0  0
  -28.1039  -17.4834   23.5845 C   0  0  0  0  0  0  0  0  0  0  0  0
  -20.4180  -27.1594   25.0509 C   0  0  0  0  0  0  0  0  0  0  0  0
  -27.0799  -16.4691   23.0877 C   0  0  0  0  0  0  0  0  0  0  0  0
  -28.3427  -18.6116   22.5805 C   0  0  0  0  0  0  0  0  0  0  0  0
  -29.4822  -21.0351   20.9516 C   0  0  0  0  0  0  0  0  0  0  0  0
  -31.0944  -20.4764   19.6855 C   0  0  0  0  0  0  0  0  0  0  0  0
  -27.6632  -17.1052   20.7226 C   0  0  0  0  0  0  0  0  0  0  0  0
  -20.3901  -27.9908   23.7626 C   0  0  1  0  0  0  0  0  0  0  0  0
  -30.7485  -21.7695   20.4522 C   0  0  0  0  0  0  0  0  0  0  0  0
  -22.0369  -25.9756   20.9949 C   0  0  1  0  0  0  0  0  0  0  0  0
  -27.4799  -15.9390   21.7032 C   0  0  2  0  0  0  0  0  0  0  0  0
  -23.2208  -18.3301   20.6097 C   0  0  0  0  0  0  0  0  0  0  0  0
  -22.2948  -23.3716   24.8045 C   0  0  0  0  0  0  0  0  0  0  0  0
  -22.9280  -20.9778   24.4340 C   0  0  0  0  0  0  0  0  0  0  0  0
  -20.6437  -21.7711   23.8212 C   0  0  0  0  0  0  0  0  0  0  0  0
  -23.8889  -20.8736   17.8601 C   0  0  0  0  0  0  0  0  0  0  0  0
  -30.5065  -26.7455   19.2112 C   0  0  0  0  0  0  0  0  0  0  0  0
  -29.1047  -27.3453   19.1943 C   0  0  0  0  0  0  0  0  0  1  0  0
  -22.6194  -22.4702   22.4070 C   0  0  1  0  0  0  0  0  0  0  0  0
  -23.0942  -19.6682   19.8983 C   0  0  2  0  0  0  0  0  0  0  0  0
  -22.1356  -22.1686   23.8535 C   0  0  0  0  0  0  0  0  0  0  0  0
  -30.3034  -23.1921   18.3032 N   0  0  0  0  0  0  0  0  0  0  0  0
  -25.4671  -15.3272   20.4158 N   0  0  0  0  0  0  0  0  0  0  0  0
  -30.4864  -25.2375   19.1487 N   0  0  0  0  0  0  0  0  0  0  0  0
  -26.4892  -14.9132   21.1839 N   0  0  0  0  0  0  0  0  0  0  0  0
  -22.6926  -24.7334   21.4088 N   0  0  0  0  0  0  0  0  0  0  0  0
  -28.6085  -18.1053   21.2301 N   0  0  0  0  0  0  0  0  0  0  0  0
  -30.1381  -19.7953   20.5537 N   0  0  0  0  0  0  0  0  0  0  0  0
  -27.4613  -12.9840   22.1555 N   0  0  0  0  0  0  0  0  0  0  0  0
  -23.8768  -11.3463   19.9498 N   0  0  0  0  0  0  0  0  0  0  0  0
  -20.6834  -27.1570   22.6166 N   0  0  0  0  0  0  0  0  0  0  0  0
  -22.4554  -21.3574   21.4779 N   0  0  0  0  0  0  0  0  0  0  0  0
  -23.9368  -19.6290   18.6697 N   0  3  0  0  0  0  0  0  0  0  0  0
  -25.6577  -10.7883   21.2823 O   0  0  0  0  0  0  0  0  0  0  0  0
  -23.0074  -27.2445   22.7335 O   0  0  0  0  0  0  0  0  0  0  0  0
  -20.6727  -23.5938   21.6491 O   0  0  0  0  0  0  0  0  0  0  0  0
  -24.6914  -21.1874   20.8875 O   0  0  0  0  0  0  0  0  0  0  0  0
  -30.1918  -17.7380   19.5915 O   0  0  0  0  0  0  0  0  0  0  0  0
  -20.2153  -14.2989   16.9646 O   0  0  0  0  0  0  0  0  0  0  0  0
  -28.3710  -26.8883   20.3297 O   0  0  0  0  0  0  0  0  0  1  0  0
  -19.7493  -10.4761   13.0184 F   0  0  0  0  0  0  0  0  0  0  0  0
  -19.9917  -15.0245   14.3064 F   0  0  0  0  0  0  0  0  0  0  0  0
  1  2  1  0  0  0  0
  1  5  2  0  0  0  0
  2  6  2  0  0  0  0
  3  8  2  0  0  0  0
  3 17  1  0  0  0  0
  4  9  1  0  0  0  0
  4 17  2  0  0  0  0
  5 19  1  0  0  0  0
  6 21  1  0  0  0  0
  7 10  2  0  0  0  0
  7 20  1  0  0  0  0
  8 23  1  0  0  0  0
  9 23  2  0  0  0  0
 10 24  1  0  0  0  0
 11 12  2  0  0  0  0
 11 25  1  0  0  0  0
 12 26  1  0  0  0  0
 13 22  1  0  0  0  0
 13 24  2  0  0  0  0
 14 26  2  0  0  0  0
 14 27  1  0  0  0  0
 15 29  2  0  0  0  0
 15 63  1  0  0  0  0
 16 61  2  0  0  0  0
 16 63  1  0  0  0  0
 17 28  1  0  0  0  0
 18 28  1  0  0  0  0
 18 30  2  0  0  0  0
 18 31  1  0  0  0  0
 19 21  2  0  0  0  0
 19 36  1  0  0  0  0
 20 22  2  0  0  0  0
 20 37  1  0  0  0  0
 21 47  1  0  0  0  0
 22 38  1  0  0  0  0
 23 78  1  0  0  0  0
 24 79  1  0  0  0  0
 25 27  2  0  0  0  0
 25 78  1  0  0  0  0
 26 80  1  0  0  0  0
 27 81  1  0  0  0  0
 28 62  2  0  0  0  0
 29 48  1  0  0  0  0
 29 61  1  0  0  0  0
 30 64  1  0  0  0  0
 30 68  1  0  0  0  0
 31 69  1  0  0  0  0
 31 73  2  0  0  0  0
 32 49  1  0  0  0  0
 32 70  1  0  0  0  0
 32 74  2  0  0  0  0
 33 58  1  0  0  0  0
 33 65  1  0  0  0  0
 33 75  2  0  0  0  0
 34 59  1  0  0  0  0
 34 71  1  0  0  0  0
 34 76  2  0  0  0  0
 35 66  1  0  0  0  0
 35 67  1  0  0  0  0
 35 77  2  0  0  0  0
 36 39  1  0  0  0  0
 37 49  1  0  0  0  0
 38 65  1  0  0  0  0
 39 41  1  0  0  0  0
 40 42  1  0  0  0  0
 40 43  1  0  0  0  0
 41 47  1  0  0  0  0
 42 50  1  0  0  0  0
 43 66  1  0  0  0  0
 44 48  1  0  0  0  0
 44 67  1  0  0  0  0
 45 48  1  0  0  0  0
 45 67  1  0  0  0  0
 46 50  1  0  0  0  0
 46 66  1  0  0  0  0
 47 70  1  0  0  0  0
 49 65  1  0  0  0  0
 50 64  1  0  0  0  0
 51 59  1  0  0  0  0
 52 60  1  0  0  0  0
 53 60  1  0  0  0  0
 54 60  1  0  0  0  0
 55 72  1  0  0  0  0
 56 57  1  0  0  0  0
 56 63  1  0  0  0  0
 57 79  1  0  0  0  0
 58 60  1  0  0  0  0
 58 71  1  0  0  0  0
 59 72  1  0  0  0  0
 62 64  1  0  0  0  0
M  CHG  1  72   1
M  ISO  4  35 100  57 101  67 100  79 101
M  END
> <Batch ID>
0199

> <Smiles>
CNC(C)C(=O)NC(C(=O)N1Cc2cc([101O:1][101CH2:1]Cn3cnc(C4C[100N:0]([100C:0](=O)N5CCCC(n6nc(-c7ccc(Oc8ccc(F)cc8F)cc7)c(C(N)=O)c6N)C5)C4)c3)ccc2CC1C(=O)NC1CCCc2ccccc21)C(C)(C)C

> <Shape>
0.196

> <Color>
0.084

> <Negative vol penalty>
0.000

$$$$

  -OEChem-04052323503D

 86 94  0     1  0  0  0  0  0999 V2000
  -30.5284  -24.1415   18.8373 C   0  0  0  0  0  0  0  0  0  0  0  0
  -29.1448  -24.1033   18.9770 C   0  0  0  0  0  0  0  0  0  0  0  0
  -23.4588  -12.6369   20.9506 C   0  0  0  0  0  0  0  0  0  0  0  0
  -24.1713  -12.6436   18.6421 C   0  0  0  0  0  0  0  0  0  0  0  0
  -31.2986  -24.8782   19.7362 C   0  0  0  0  0  0  0  0  0  0  0  0
  -28.5306  -24.8009   20.0165 C   0  0  0  0  0  0  0  0  0  0  0  0
  -23.0767  -27.5827   19.8655 C   0  0  0  0  0  0  0  0  0  0  0  0
  -22.3526  -11.8599   20.6070 C   0  0  0  0  0  0  0  0  0  0  0  0
  -23.0651  -11.8665   18.2984 C   0  0  0  0  0  0  0  0  0  0  0  0
  -21.8118  -27.1915   20.3022 C   0  0  0  0  0  0  0  0  0  0  0  0
  -19.5355   -9.5719   20.3967 C   0  0  0  0  0  0  0  0  0  0  0  0
  -19.2281   -8.4840   21.2137 C   0  0  0  0  0  0  0  0  0  0  0  0
  -22.1615  -28.3879   22.3675 C   0  0  0  0  0  0  0  0  0  0  0  0
  -21.3951   -7.5224   20.7484 C   0  0  0  0  0  0  0  0  0  0  0  0
  -24.3681  -13.0288   19.9682 C   0  0  0  0  0  0  0  0  0  0  0  0
  -26.7832  -13.3743   20.7137 C   0  0  0  0  0  0  0  0  0  0  0  0
  -30.6927  -25.5931   20.7814 C   0  0  0  0  0  0  0  0  0  0  0  0
  -23.8992  -28.3717   20.6824 C   0  0  0  0  0  0  0  0  0  0  0  0
  -29.2934  -25.5468   20.9310 C   0  0  0  0  0  0  0  0  0  0  0  0
  -23.4354  -28.7899   21.9378 C   0  0  0  0  0  0  0  0  0  0  0  0
  -22.1557  -11.4746   19.2809 C   0  0  0  0  0  0  0  0  0  0  0  0
  -21.3551  -27.5917   21.5546 C   0  0  0  0  0  0  0  0  0  0  0  0
  -20.7726   -9.6351   19.7555 C   0  0  0  0  0  0  0  0  0  0  0  0
  -20.1579   -7.4593   21.3896 C   0  0  0  0  0  0  0  0  0  0  0  0
  -21.7024   -8.6103   19.9314 C   0  0  0  0  0  0  0  0  0  0  0  0
  -25.5107  -13.8320   20.3225 C   0  0  0  0  0  0  0  0  0  0  0  0
  -27.5060  -14.5202   20.9392 C   0  0  0  0  0  0  0  0  0  0  0  0
  -27.2685  -12.0331   20.8601 C   0  0  0  0  0  0  0  0  0  0  0  0
  -26.7472  -27.9841   22.0397 C   0  0  0  0  0  0  0  0  0  0  0  0
  -26.3429  -31.0944   22.8671 C   0  0  0  0  0  0  0  0  0  0  0  0
  -24.1944  -33.6778   23.4642 C   0  0  0  0  0  0  0  0  0  0  0  0
  -26.1036  -19.8958   22.5347 C   0  0  0  0  0  0  0  0  0  0  0  0
  -31.5705  -26.3369   21.7565 C   0  0  0  0  0  0  0  0  0  0  0  0
  -25.2504  -28.8076   20.1857 C   0  0  0  0  0  0  0  0  0  0  0  0
  -24.2715  -29.6542   22.8446 C   0  0  0  0  0  0  0  0  0  0  0  0
  -30.8118  -27.3523   22.6071 C   0  0  0  0  0  0  0  0  0  0  0  0
  -27.8170  -19.0901   19.5752 C   0  0  0  0  0  0  0  0  0  0  0  0
  -29.5327  -26.7339   23.1624 C   0  0  0  0  0  0  0  0  0  0  0  0
  -27.5426  -17.5907   19.4646 C   0  0  0  0  0  0  0  0  0  0  0  0
  -26.5852  -19.8653   20.0463 C   0  0  0  0  0  0  0  0  0  0  0  0
  -25.4385  -22.1329   21.5460 C   0  0  0  0  0  0  0  0  0  0  0  0
  -26.4867  -22.0035   23.7759 C   0  0  0  0  0  0  0  0  0  0  0  0
  -25.7215  -17.8501   21.1916 C   0  0  0  0  0  0  0  0  0  0  0  0
  -24.2368  -22.8586   22.1425 C   0  0  0  0  0  0  0  0  0  0  0  0
  -25.2942  -22.7021   24.4085 C   0  0  0  0  0  0  0  0  0  0  0  0
  -28.5883  -26.3104   22.0309 C   0  0  1  0  0  0  0  0  0  0  0  0
  -26.2085  -29.1831   21.3120 C   0  0  1  0  0  0  0  0  0  0  0  0
  -26.9580  -17.0380   20.7767 C   0  0  1  0  0  0  0  0  0  0  0  0
  -23.0337  -26.4603   25.4145 C   0  0  0  0  0  0  0  0  0  0  0  0
  -24.1575  -36.0886   24.1600 C   0  0  0  0  0  0  0  0  0  0  0  0
  -20.4236  -22.8826   25.8510 C   0  0  0  0  0  0  0  0  0  0  0  0
  -26.8855  -30.2671   25.7535 C   0  0  0  0  0  0  0  0  0  0  0  0
  -25.9172  -32.4555   26.4894 C   0  0  0  0  0  0  0  0  0  0  0  0
  -27.9639  -32.4156   25.0638 C   0  0  0  0  0  0  0  0  0  0  0  0
  -22.9336  -34.5131   20.9203 C   0  0  0  0  0  0  0  0  0  0  0  0
  -24.0927  -25.5195   24.8530 C   0  0  0  0  0  0  0  0  0  0  0  0
  -18.6895  -25.3668   22.5512 C   0  0  0  0  0  0  0  0  0  0  0  0
  -22.6254  -23.4138   24.7280 C   0  0  0  0  0  0  0  0  0  0  0  0
  -19.3525  -25.1325   23.9002 C   0  0  0  0  0  0  0  0  0  0  0  0
  -19.6228  -25.9630   21.5047 C   0  0  0  0  0  0  0  0  0  1  0  0
  -25.7300  -31.8171   24.0423 C   0  0  1  0  0  0  0  0  0  0  0  0
  -24.1957  -35.1195   22.9887 C   0  0  2  0  0  0  0  0  0  0  0  0
  -23.5237  -24.4041   23.9667 C   0  0  2  0  0  0  0  0  0  0  0  0
  -21.2071  -23.9087   25.0411 C   0  0  1  0  0  0  0  0  0  0  0  0
  -26.6089  -31.7210   25.3212 C   0  0  0  0  0  0  0  0  0  0  0  0
  -25.4267  -15.1648   20.2999 N   0  0  0  0  0  0  0  0  0  0  0  0
  -26.6555  -15.5544   20.6798 N   0  0  0  0  0  0  0  0  0  0  0  0
  -25.5879  -30.0491   22.3166 N   0  0  0  0  0  0  0  0  0  0  0  0
  -26.0391  -19.2771   21.2773 N   0  0  0  0  0  0  0  0  0  0  0  0
  -26.1017  -21.2984   22.5552 N   0  0  0  0  0  0  0  0  0  0  0  0
  -28.7796  -14.7341   21.3322 N   0  0  0  0  0  0  0  0  0  0  0  0
  -26.3937  -10.9725   20.5878 N   0  0  0  0  0  0  0  0  0  0  0  0
  -27.9018  -27.4628   21.4877 N   0  0  0  0  0  0  0  0  0  0  0  0
  -25.4743  -33.1817   23.5941 N   0  0  0  0  0  0  0  0  0  0  0  0
  -24.6585  -23.6105   23.3821 N   0  3  0  0  0  0  0  0  0  0  0  0
  -23.0105  -35.3806   22.1238 N   0  3  0  0  0  0  0  0  0  0  0  0
  -20.4658  -24.1561   23.7738 N   0  3  0  0  0  0  0  0  0  0  0  0
  -28.4383  -11.7826   21.2375 O   0  0  0  0  0  0  0  0  0  0  0  0
  -26.1599  -27.5639   23.0297 O   0  0  0  0  0  0  0  0  0  0  0  0
  -27.4477  -31.4491   22.4484 O   0  0  0  0  0  0  0  0  0  0  0  0
  -23.1614  -33.0553   23.7007 O   0  0  0  0  0  0  0  0  0  0  0  0
  -26.1588  -19.2334   23.5785 O   0  0  0  0  0  0  0  0  0  0  0  0
  -21.0765  -10.7162   18.9452 O   0  0  0  0  0  0  0  0  0  0  0  0
  -20.1125  -27.2080   21.9865 O   0  0  0  0  0  0  0  0  0  1  0  0
  -19.8633   -6.4153   22.1755 F   0  0  0  0  0  0  0  0  0  0  0  0
  -22.8931   -8.6660   19.3189 F   0  0  0  0  0  0  0  0  0  0  0  0
  1  2  1  0  0  0  0
  1  5  2  0  0  0  0
  2  6  2  0  0  0  0
  3  8  2  0  0  0  0
  3 15  1  0  0  0  0
  4  9  1  0  0  0  0
  4 15  2  0  0  0  0
  5 17  1  0  0  0  0
  6 19  1  0  0  0  0
  7 10  2  0  0  0  0
  7 18  1  0  0  0  0
  8 21  1  0  0  0  0
  9 21  2  0  0  0  0
 10 22  1  0  0  0  0
 11 12  2  0  0  0  0
 11 23  1  0  0  0  0
 12 24  1  0  0  0  0
 13 20  1  0  0  0  0
 13 22  2  0  0  0  0
 14 24  2  0  0  0  0
 14 25  1  0  0  0  0
 15 26  1  0  0  0  0
 16 26  1  0  0  0  0
 16 27  2  0  0  0  0
 16 28  1  0  0  0  0
 17 19  2  0  0  0  0
 17 33  1  0  0  0  0
 18 20  2  0  0  0  0
 18 34  1  0  0  0  0
 19 46  1  0  0  0  0
 20 35  1  0  0  0  0
 21 83  1  0  0  0  0
 22 84  1  0  0  0  0
 23 25  2  0  0  0  0
 23 83  1  0  0  0  0
 24 85  1  0  0  0  0
 25 86  1  0  0  0  0
 26 66  2  0  0  0  0
 27 67  1  0  0  0  0
 27 71  1  0  0  0  0
 28 72  1  0  0  0  0
 28 78  2  0  0  0  0
 29 47  1  0  0  0  0
 29 73  1  0  0  0  0
 29 79  2  0  0  0  0
 30 61  1  0  0  0  0
 30 68  1  0  0  0  0
 30 80  2  0  0  0  0
 31 62  1  0  0  0  0
 31 74  1  0  0  0  0
 31 81  2  0  0  0  0
 32 69  1  0  0  0  0
 32 70  1  0  0  0  0
 32 82  2  0  0  0  0
 33 36  1  0  0  0  0
 34 47  1  0  0  0  0
 35 68  1  0  0  0  0
 36 38  1  0  0  0  0
 37 39  1  0  0  0  0
 37 40  1  0  0  0  0
 38 46  1  0  0  0  0
 39 48  1  0  0  0  0
 40 69  1  0  0  0  0
 41 44  1  0  0  0  0
 41 70  1  0  0  0  0
 42 45  1  0  0  0  0
 42 70  1  0  0  0  0
 43 48  1  0  0  0  0
 43 69  1  0  0  0  0
 44 75  1  0  0  0  0
 45 75  1  0  0  0  0
 46 73  1  0  0  0  0
 47 68  1  0  0  0  0
 48 67  1  0  0  0  0
 49 56  1  0  0  0  0
 50 62  1  0  0  0  0
 51 64  1  0  0  0  0
 52 65  1  0  0  0  0
 53 65  1  0  0  0  0
 54 65  1  0  0  0  0
 55 76  1  0  0  0  0
 56 63  1  0  0  0  0
 57 59  1  0  0  0  0
 57 60  1  0  0  0  0
 58 63  1  0  0  0  0
 58 64  1  0  0  0  0
 59 77  1  0  0  0  0
 60 84  1  0  0  0  0
 61 65  1  0  0  0  0
 61 74  1  0  0  0  0
 62 76  1  0  0  0  0
 63 75  1  0  0  0  0
 64 77  1  0  0  0  0
 66 67  1  0  0  0  0
M  CHG  3  75   1  76   1  77   1
M  ISO  4  32 100  60 101  70 100  84 101
M  END
> <Batch ID>
0199

> <Smiles>
CCC(CC(C)NCC[101CH2:1][101O:1]c1ccc2c(c1)CN(C(=O)C(NC(=O)C(C)NC)C(C)(C)C)C(C(=O)NC1CCCc3ccccc31)C2)N1CC[100N:0]([100C:0](=O)N2CCCC(n3nc(-c4ccc(Oc5ccc(F)cc5F)cc4)c(C(N)=O)c3N)C2)CC1

> <Shape>
0.264

> <Color>
0.052

> <Negative vol penalty>
0.000

$$$$

  -OEChem-04052323503D

 87 97  0     1  0  0  0  0  0999 V2000
  -28.0956  -36.8430   21.8468 C   0  0  0  0  0  0  0  0  0  0  0  0
  -28.4087  -35.5005   21.6596 C   0  0  0  0  0  0  0  0  0  0  0  0
  -26.7848  -12.2937   21.7421 C   0  0  0  0  0  0  0  0  0  0  0  0
  -25.8991  -13.9303   20.2014 C   0  0  0  0  0  0  0  0  0  0  0  0
  -27.0084  -37.1996   22.6435 C   0  0  0  0  0  0  0  0  0  0  0  0
  -27.6353  -34.5138   22.2701 C   0  0  0  0  0  0  0  0  0  0  0  0
  -26.5175  -30.7017   19.1295 C   0  0  0  0  0  0  0  0  0  0  0  0
  -25.5126  -11.7399   21.8852 C   0  0  0  0  0  0  0  0  0  0  0  0
  -24.6269  -13.3765   20.3444 C   0  0  0  0  0  0  0  0  0  0  0  0
  -27.5172  -29.7599   18.8902 C   0  0  0  0  0  0  0  0  0  0  0  0
  -23.4884   -9.6660   20.1433 C   0  0  0  0  0  0  0  0  0  0  0  0
  -23.3775   -8.2763   20.0979 C   0  0  0  0  0  0  0  0  0  0  0  0
  -26.4821  -28.2667   20.4770 C   0  0  0  0  0  0  0  0  0  0  0  0
  -22.4540   -8.2771   22.3305 C   0  0  0  0  0  0  0  0  0  0  0  0
  -33.0909  -24.7265   22.3706 C   0  0  0  0  0  0  0  0  0  0  0  0
  -26.9780  -13.3889   20.9002 C   0  0  0  0  0  0  0  0  0  0  0  0
  -29.4518  -13.3182   20.2813 C   0  0  0  0  0  0  0  0  0  0  0  0
  -26.2155  -36.2165   23.2561 C   0  0  0  0  0  0  0  0  0  0  0  0
  -25.4969  -30.4370   20.0540 C   0  0  0  0  0  0  0  0  0  0  0  0
  -26.5373  -34.8576   23.0768 C   0  0  0  0  0  0  0  0  0  0  0  0
  -25.4691  -29.2057   20.7243 C   0  0  0  0  0  0  0  0  0  0  0  0
  -32.6343  -25.2985   21.1681 C   0  0  0  0  0  0  0  0  0  0  0  0
  -24.4337  -12.2813   21.1863 C   0  0  0  0  0  0  0  0  0  0  0  0
  -27.5013  -28.5433   19.5661 C   0  0  0  0  0  0  0  0  0  0  0  0
  -23.0822  -10.3612   21.2823 C   0  0  0  0  0  0  0  0  0  0  0  0
  -22.8603   -7.5818   21.1915 C   0  0  0  0  0  0  0  0  0  0  0  0
  -22.5650   -9.6668   22.3759 C   0  0  0  0  0  0  0  0  0  0  0  0
  -28.2918  -13.9618   20.7524 C   0  0  0  0  0  0  0  0  0  0  0  0
  -30.4258  -14.2852   20.3323 C   0  0  0  0  0  0  0  0  0  0  0  0
  -31.6188  -26.1398   21.5520 C   0  0  0  0  0  0  0  0  0  0  0  0
  -29.6327  -11.9670   19.8372 C   0  0  0  0  0  0  0  0  0  0  0  0
  -24.5400  -31.7632   22.7797 C   0  0  0  0  0  0  0  0  0  0  0  0
  -22.1167  -29.6228   22.5176 C   0  0  0  0  0  0  0  0  0  0  0  0
  -21.7518  -26.1614   21.5671 C   0  0  0  0  0  0  0  0  0  0  0  0
  -32.0515  -19.3997   19.2260 C   0  0  0  0  0  0  0  0  0  0  0  0
  -25.0788  -36.6518   24.1468 C   0  0  0  0  0  0  0  0  0  0  0  0
  -24.4109  -31.4526   20.2811 C   0  0  0  0  0  0  0  0  0  0  0  0
  -24.3841  -28.8646   21.7117 C   0  0  0  0  0  0  0  0  0  0  0  0
  -24.0841  -35.5354   24.4543 C   0  0  0  0  0  0  0  0  0  0  0  0
  -30.4546  -18.8425   22.4755 C   0  0  0  0  0  0  0  0  0  0  0  0
  -24.8197  -34.2584   24.8479 C   0  0  0  0  0  0  0  0  0  0  0  0
  -29.7945  -17.4865   22.2485 C   0  0  0  0  0  0  0  0  0  0  0  0
  -34.5208  -25.6141   19.2372 C   0  0  0  0  0  0  0  0  0  0  0  0
  -30.4736  -19.6994   21.2090 C   0  0  0  0  0  0  0  0  0  0  0  0
  -30.4077  -17.6520   19.8112 C   0  0  0  0  0  0  0  0  0  0  0  0
  -33.6613  -21.3186   18.7264 C   0  0  0  0  0  0  0  0  0  0  0  0
  -32.1673  -21.8481   20.1480 C   0  0  0  0  0  0  0  0  0  0  0  0
  -34.7697  -24.2344   18.6127 C   0  0  0  0  0  0  0  0  0  0  0  0
  -25.7073  -33.7575   23.7021 C   0  0  1  0  0  0  0  0  0  0  0  0
  -33.1729  -25.0284   19.7071 C   0  0  1  0  0  0  0  0  0  0  0  0
  -23.7071  -31.2847   21.6242 C   0  0  1  0  0  0  0  0  0  0  0  0
  -30.4470  -16.7622   21.0615 C   0  0  2  0  0  0  0  0  0  0  0  0
  -32.9199  -22.6194   19.0551 C   0  0  0  0  0  0  0  0  0  0  0  0
  -19.7890  -24.9335   20.5993 C   0  0  0  0  0  0  0  0  0  0  0  0
  -21.4948  -28.9186   25.4206 C   0  0  0  0  0  0  0  0  0  0  0  0
  -20.7944  -26.6433   24.6457 C   0  0  0  0  0  0  0  0  0  0  0  0
  -19.5663  -28.6631   23.8490 C   0  0  0  0  0  0  0  0  0  0  0  0
  -30.6131  -26.7124   23.7869 C   0  0  0  0  0  0  0  0  0  0  0  0
  -23.3373  -25.2132   19.2550 C   0  0  0  0  0  0  0  0  0  0  0  0
  -30.8353  -27.1331   19.4013 C   0  0  0  0  0  0  0  0  0  0  0  0
  -29.7621  -28.1161   18.9644 C   0  0  0  0  0  0  0  0  0  1  0  0
  -21.8923  -28.2009   22.9725 C   0  0  1  0  0  0  0  0  0  0  0  0
  -21.1071  -25.6302   20.2996 C   0  0  2  0  0  0  0  0  0  0  0  0
  -20.9630  -28.1163   24.2162 C   0  0  0  0  0  0  0  0  0  0  0  0
  -32.4205  -25.1672   23.4385 N   0  0  0  0  0  0  0  0  0  0  0  0
  -28.5073  -15.2389   21.0789 N   0  0  0  0  0  0  0  0  0  0  0  0
  -29.8140  -15.4056   20.8125 N   0  0  0  0  0  0  0  0  0  0  0  0
  -31.5324  -26.0252   22.9083 N   0  0  0  0  0  0  0  0  0  0  0  0
  -23.3482  -29.8929   21.9041 N   0  0  0  0  0  0  0  0  0  0  0  0
  -31.0153  -18.9648   20.0594 N   0  0  0  0  0  0  0  0  0  0  0  0
  -32.6036  -20.6363   19.4681 N   0  0  0  0  0  0  0  0  0  0  0  0
  -31.7374  -14.2780   20.0129 N   0  0  0  0  0  0  0  0  0  0  0  0
  -29.4388  -11.6783   18.4795 N   0  0  0  0  0  0  0  0  0  0  0  0
  -30.8026  -26.9574   20.8546 N   0  0  0  0  0  0  0  0  0  0  0  0
  -24.9068  -33.0928   22.6962 N   0  0  0  0  0  0  0  0  0  0  0  0
  -21.4000  -27.4727   21.8082 N   0  0  0  0  0  0  0  0  0  0  0  0
  -33.7946  -23.6749   19.5789 N   0  3  1  0  0  0  0  0  0  0  0  0
  -22.0120  -24.6551   19.6277 N   0  3  0  0  0  0  0  0  0  0  0  0
  -29.9406  -11.0399   20.6241 O   0  0  0  0  0  0  0  0  0  0  0  0
  -24.8272  -30.9842   23.6809 O   0  0  0  0  0  0  0  0  0  0  0  0
  -21.2291  -30.4612   22.6934 O   0  0  0  0  0  0  0  0  0  0  0  0
  -22.4905  -25.4801   22.2748 O   0  0  0  0  0  0  0  0  0  0  0  0
  -32.4529  -18.7190   18.2729 O   0  0  0  0  0  0  0  0  0  0  0  0
  -23.1922  -11.7410   21.3255 O   0  0  0  0  0  0  0  0  0  0  0  0
  -28.4831  -27.6161   19.3332 O   0  0  0  0  0  0  0  0  0  1  0  0
  -22.7524   -6.2474   21.1471 F   0  0  0  0  0  0  0  0  0  0  0  0
  -22.1720  -10.3293   23.4724 F   0  0  0  0  0  0  0  0  0  0  0  0
  1  2  1  0  0  0  0
  1  5  2  0  0  0  0
  2  6  2  0  0  0  0
  3  8  2  0  0  0  0
  3 16  1  0  0  0  0
  4  9  1  0  0  0  0
  4 16  2  0  0  0  0
  5 18  1  0  0  0  0
  6 20  1  0  0  0  0
  7 10  2  0  0  0  0
  7 19  1  0  0  0  0
  8 23  1  0  0  0  0
  9 23  2  0  0  0  0
 10 24  1  0  0  0  0
 11 12  2  0  0  0  0
 11 25  1  0  0  0  0
 12 26  1  0  0  0  0
 13 21  1  0  0  0  0
 13 24  2  0  0  0  0
 14 26  2  0  0  0  0
 14 27  1  0  0  0  0
 15 22  1  0  0  0  0
 15 65  2  0  0  0  0
 16 28  1  0  0  0  0
 17 28  1  0  0  0  0
 17 29  2  0  0  0  0
 17 31  1  0  0  0  0
 18 20  2  0  0  0  0
 18 36  1  0  0  0  0
 19 21  2  0  0  0  0
 19 37  1  0  0  0  0
 20 49  1  0  0  0  0
 21 38  1  0  0  0  0
 22 30  2  0  0  0  0
 22 50  1  0  0  0  0
 23 84  1  0  0  0  0
 24 85  1  0  0  0  0
 25 27  2  0  0  0  0
 25 84  1  0  0  0  0
 26 86  1  0  0  0  0
 27 87  1  0  0  0  0
 28 66  2  0  0  0  0
 29 67  1  0  0  0  0
 29 72  1  0  0  0  0
 30 68  1  0  0  0  0
 30 74  1  0  0  0  0
 31 73  1  0  0  0  0
 31 79  2  0  0  0  0
 32 51  1  0  0  0  0
 32 75  1  0  0  0  0
 32 80  2  0  0  0  0
 33 62  1  0  0  0  0
 33 69  1  0  0  0  0
 33 81  2  0  0  0  0
 34 63  1  0  0  0  0
 34 76  1  0  0  0  0
 34 82  2  0  0  0  0
 35 70  1  0  0  0  0
 35 71  1  0  0  0  0
 35 83  2  0  0  0  0
 36 39  1  0  0  0  0
 37 51  1  0  0  0  0
 38 69  1  0  0  0  0
 39 41  1  0  0  0  0
 40 42  1  0  0  0  0
 40 44  1  0  0  0  0
 41 49  1  0  0  0  0
 42 52  1  0  0  0  0
 43 48  1  0  0  0  0
 43 50  1  0  0  0  0
 44 70  1  0  0  0  0
 45 52  1  0  0  0  0
 45 70  1  0  0  0  0
 46 53  1  0  0  0  0
 46 71  1  0  0  0  0
 47 53  1  0  0  0  0
 47 71  1  0  0  0  0
 48 77  1  0  0  0  0
 49 75  1  0  0  0  0
 50 77  1  0  0  0  0
 51 69  1  0  0  0  0
 52 67  1  0  0  0  0
 53 77  1  0  0  0  0
 54 63  1  0  0  0  0
 55 64  1  0  0  0  0
 56 64  1  0  0  0  0
 57 64  1  0  0  0  0
 58 68  1  0  0  0  0
 59 78  1  0  0  0  0
 60 61  1  0  0  0  0
 60 74  1  0  0  0  0
 61 85  1  0  0  0  0
 62 64  1  0  0  0  0
 62 76  1  0  0  0  0
 63 78  1  0  0  0  0
 65 68  1  0  0  0  0
 66 67  1  0  0  0  0
M  CHG  2  77   1  78   1
M  ISO  4  35 100  61 101  71 100  85 101
M  END
> <Batch ID>
0199

> <Smiles>
CNC(C)C(=O)NC(C(=O)N1Cc2cc([101O:1][101CH2:1]CNc3c(C4CCN4C4C[100N:0]([100C:0](=O)N5CCCC(n6nc(-c7ccc(Oc8ccc(F)cc8F)cc7)c(C(N)=O)c6N)C5)C4)cnn3C)ccc2CC1C(=O)NC1CCCc2ccccc21)C(C)(C)C

> <Shape>
0.313

> <Color>
0.071

> <Negative vol penalty>
0.000

$$$$

  -OEChem-04052323503D

 86 95  0     1  0  0  0  0  0999 V2000
  -24.8068  -19.6419   24.3981 C   0  0  0  0  0  0  0  0  0  0  0  0
  -24.7991  -20.9952   24.0758 C   0  0  0  0  0  0  0  0  0  0  0  0
  -26.0832  -14.6733   21.8310 C   0  0  0  0  0  0  0  0  0  0  0  0
  -27.8896  -14.3988   20.2503 C   0  0  0  0  0  0  0  0  0  0  0  0
  -23.7591  -18.8214   23.9820 C   0  0  0  0  0  0  0  0  0  0  0  0
  -23.7442  -21.5287   23.3363 C   0  0  0  0  0  0  0  0  0  0  0  0
  -22.0793  -25.9249   25.2195 C   0  0  0  0  0  0  0  0  0  0  0  0
  -25.6493  -13.3755   21.5606 C   0  0  0  0  0  0  0  0  0  0  0  0
  -27.4558  -13.1010   19.9799 C   0  0  0  0  0  0  0  0  0  0  0  0
  -22.8372  -27.0627   24.9456 C   0  0  0  0  0  0  0  0  0  0  0  0
  -23.8937  -11.7887   19.1473 C   0  0  0  0  0  0  0  0  0  0  0  0
  -22.5267  -11.5903   18.9537 C   0  0  0  0  0  0  0  0  0  0  0  0
  -21.2973  -27.6575   23.1865 C   0  0  0  0  0  0  0  0  0  0  0  0
  -22.4834  -10.0631   20.8253 C   0  0  0  0  0  0  0  0  0  0  0  0
  -30.5084  -26.9075   21.6355 C   0  0  0  0  0  0  0  0  0  0  0  0
  -27.2033  -15.1849   21.1758 C   0  0  0  0  0  0  0  0  0  0  0  0
  -28.5745  -16.9261   22.4391 C   0  0  0  0  0  0  0  0  0  0  0  0
  -22.6860  -19.3471   23.2453 C   0  0  0  0  0  0  0  0  0  0  0  0
  -20.9289  -25.6387   24.4705 C   0  0  0  0  0  0  0  0  0  0  0  0
  -22.6818  -20.7142   22.9088 C   0  0  0  0  0  0  0  0  0  0  0  0
  -20.5252  -26.5168   23.4546 C   0  0  0  0  0  0  0  0  0  0  0  0
  -29.3111  -27.5018   21.9281 C   0  0  0  0  0  0  0  0  0  0  0  0
  -26.3356  -12.5893   20.6351 C   0  0  0  0  0  0  0  0  0  0  0  0
  -22.4478  -27.9276   23.9271 C   0  0  0  0  0  0  0  0  0  0  0  0
  -24.5556  -11.1242   20.1798 C   0  0  0  0  0  0  0  0  0  0  0  0
  -21.8215  -10.7275   19.7928 C   0  0  0  0  0  0  0  0  0  0  0  0
  -23.8504  -10.2614   21.0188 C   0  0  0  0  0  0  0  0  0  0  0  0
  -27.6517  -16.5257   21.4543 C   0  0  0  0  0  0  0  0  0  0  0  0
  -28.2640  -27.2602   21.0577 C   0  0  0  0  0  0  0  0  0  0  0  0
  -28.6584  -18.2896   22.2969 C   0  0  0  0  0  0  0  0  0  0  0  0
  -29.5649  -25.9525   19.7772 C   0  0  0  0  0  0  0  0  0  0  0  0
  -29.2918  -16.1362   23.3968 C   0  0  0  0  0  0  0  0  0  0  0  0
  -20.0310  -23.2643   22.5575 C   0  0  0  0  0  0  0  0  0  0  0  0
  -17.2005  -24.8488   22.5645 C   0  0  0  0  0  0  0  0  0  0  0  0
  -15.5300  -27.7939   22.9916 C   0  0  0  0  0  0  0  0  0  0  0  0
  -29.2032  -22.7169   19.1268 C   0  0  0  0  0  0  0  0  0  0  0  0
  -21.5996  -18.4115   22.7771 C   0  0  0  0  0  0  0  0  0  0  0  0
  -20.1075  -24.4214   24.7960 C   0  0  0  0  0  0  0  0  0  0  0  0
  -19.2871  -26.2654   22.6347 C   0  0  0  0  0  0  0  0  0  0  0  0
  -28.9099  -28.4109   23.0285 C   0  0  0  0  0  0  0  0  0  0  0  0
  -27.0391  -28.0012   21.4971 C   0  0  0  0  0  0  0  0  0  0  0  0
  -20.3332  -19.1299   22.3181 C   0  0  0  0  0  0  0  0  0  0  0  0
  -25.8276  -21.5013   19.6019 C   0  0  0  0  0  0  0  0  0  0  0  0
  -20.6841  -20.2956   21.3989 C   0  0  0  0  0  0  0  0  0  0  0  0
  -26.0841  -20.1221   20.2119 C   0  0  0  0  0  0  0  0  0  0  0  0
  -26.8655  -21.8353   18.5344 C   0  0  0  0  0  0  0  0  0  0  0  0
  -28.5365  -20.3798   19.6128 C   0  0  0  0  0  0  0  0  0  0  0  0
  -21.5428  -21.3350   22.1294 C   0  0  1  0  0  0  0  0  0  0  0  0
  -19.2396  -23.9571   23.6305 C   0  0  1  0  0  0  0  0  0  0  0  0
  -27.5340  -19.9928   20.7151 C   0  0  2  0  0  0  0  0  0  0  0  0
  -26.7985  -31.7195   24.9823 C   0  0  0  0  0  0  0  0  0  0  0  0
  -13.2262  -28.7840   22.8938 C   0  0  0  0  0  0  0  0  0  0  0  0
  -17.3216  -24.8234   19.5158 C   0  0  0  0  0  0  0  0  0  0  0  0
  -15.5583  -26.6007   19.5003 C   0  0  0  0  0  0  0  0  0  0  0  0
  -15.0587  -24.3589   20.4738 C   0  0  0  0  0  0  0  0  0  0  0  0
  -15.6137  -28.5638   25.8480 C   0  0  0  0  0  0  0  0  0  0  0  0
  -29.7271  -25.0794   18.5782 C   0  0  0  0  0  0  0  0  0  0  0  0
  -27.2238  -30.3055   24.6090 C   0  0  0  0  0  0  0  0  0  0  0  0
  -25.3335  -29.9088   22.9775 C   0  0  0  0  0  0  0  0  0  0  0  0
  -24.5873  -28.9662   23.9175 C   0  0  0  0  0  0  0  0  0  1  0  0
  -16.5845  -25.9407   21.7235 C   0  0  1  0  0  0  0  0  0  0  0  0
  -14.2791  -28.1373   23.7802 C   0  0  2  0  0  0  0  0  0  0  0  0
  -26.8542  -29.9069   23.1739 C   0  0  2  0  0  0  0  0  0  0  0  0
  -16.1552  -25.4349   20.3173 C   0  0  0  0  0  0  0  0  0  0  0  0
  -30.6655  -26.1142   20.5533 N   0  0  0  0  0  0  0  0  0  0  0  0
  -27.1827  -17.5518   20.7394 N   0  0  0  0  0  0  0  0  0  0  0  0
  -28.3416  -26.4917   19.9633 N   0  0  0  0  0  0  0  0  0  0  0  0
  -27.8133  -18.6106   21.2756 N   0  0  0  0  0  0  0  0  0  0  0  0
  -18.5208  -25.0587   22.9871 N   0  0  0  0  0  0  0  0  0  0  0  0
  -28.2234  -21.7112   19.0829 N   0  0  0  0  0  0  0  0  0  0  0  0
  -29.3717  -19.2334   22.9471 N   0  0  0  0  0  0  0  0  0  0  0  0
  -29.0881  -14.7495   23.4059 N   0  0  0  0  0  0  0  0  0  0  0  0
  -20.7202  -22.1503   22.9973 N   0  0  0  0  0  0  0  0  0  0  0  0
  -15.4946  -26.5003   22.5156 N   0  0  0  0  0  0  0  0  0  0  0  0
  -28.8290  -23.9463   18.5984 N   0  0  0  0  0  0  0  0  0  0  0  0
  -27.3876  -28.5445   22.8877 N   0  3  2  0  0  0  0  0  0  0  0  0
  -14.6068  -29.0811   24.8860 N   0  3  0  0  0  0  0  0  0  0  0  0
  -30.0774  -16.6467   24.2308 O   0  0  0  0  0  0  0  0  0  0  0  0
  -20.0161  -23.7067   21.4148 O   0  0  0  0  0  0  0  0  0  0  0  0
  -16.5324  -23.8498   22.8424 O   0  0  0  0  0  0  0  0  0  0  0  0
  -16.4451  -28.5945   22.8123 O   0  0  0  0  0  0  0  0  0  0  0  0
  -30.3273  -22.5344   19.6065 O   0  0  0  0  0  0  0  0  0  0  0  0
  -25.9127  -11.3228   20.3711 O   0  0  0  0  0  0  0  0  0  0  0  0
  -23.1861  -29.0385   23.6572 O   0  0  0  0  0  0  0  0  0  1  0  0
  -20.5084  -10.5383   19.6078 F   0  0  0  0  0  0  0  0  0  0  0  0
  -24.4806   -9.6212   22.0132 F   0  0  0  0  0  0  0  0  0  0  0  0
  1  2  1  0  0  0  0
  1  5  2  0  0  0  0
  2  6  2  0  0  0  0
  3  8  2  0  0  0  0
  3 16  1  0  0  0  0
  4  9  1  0  0  0  0
  4 16  2  0  0  0  0
  5 18  1  0  0  0  0
  6 20  1  0  0  0  0
  7 10  2  0  0  0  0
  7 19  1  0  0  0  0
  8 23  1  0  0  0  0
  9 23  2  0  0  0  0
 10 24  1  0  0  0  0
 11 12  2  0  0  0  0
 11 25  1  0  0  0  0
 12 26  1  0  0  0  0
 13 21  1  0  0  0  0
 13 24  2  0  0  0  0
 14 26  2  0  0  0  0
 14 27  1  0  0  0  0
 15 22  1  0  0  0  0
 15 65  2  0  0  0  0
 16 28  1  0  0  0  0
 17 28  1  0  0  0  0
 17 30  2  0  0  0  0
 17 32  1  0  0  0  0
 18 20  2  0  0  0  0
 18 37  1  0  0  0  0
 19 21  2  0  0  0  0
 19 38  1  0  0  0  0
 20 48  1  0  0  0  0
 21 39  1  0  0  0  0
 22 29  2  0  0  0  0
 22 40  1  0  0  0  0
 23 83  1  0  0  0  0
 24 84  1  0  0  0  0
 25 27  2  0  0  0  0
 25 83  1  0  0  0  0
 26 85  1  0  0  0  0
 27 86  1  0  0  0  0
 28 66  2  0  0  0  0
 29 41  1  0  0  0  0
 29 67  1  0  0  0  0
 30 68  1  0  0  0  0
 30 71  1  0  0  0  0
 31 57  1  0  0  0  0
 31 65  1  0  0  0  0
 31 67  2  0  0  0  0
 32 72  1  0  0  0  0
 32 78  2  0  0  0  0
 33 49  1  0  0  0  0
 33 73  1  0  0  0  0
 33 79  2  0  0  0  0
 34 61  1  0  0  0  0
 34 69  1  0  0  0  0
 34 80  2  0  0  0  0
 35 62  1  0  0  0  0
 35 74  1  0  0  0  0
 35 81  2  0  0  0  0
 36 70  1  0  0  0  0
 36 75  1  0  0  0  0
 36 82  2  0  0  0  0
 37 42  1  0  0  0  0
 38 49  1  0  0  0  0
 39 69  1  0  0  0  0
 40 76  1  0  0  0  0
 41 76  1  0  0  0  0
 42 44  1  0  0  0  0
 43 45  1  0  0  0  0
 43 46  1  0  0  0  0
 44 48  1  0  0  0  0
 45 50  1  0  0  0  0
 46 70  1  0  0  0  0
 47 50  1  0  0  0  0
 47 70  1  0  0  0  0
 48 73  1  0  0  0  0
 49 69  1  0  0  0  0
 50 68  1  0  0  0  0
 51 58  1  0  0  0  0
 52 62  1  0  0  0  0
 53 64  1  0  0  0  0
 54 64  1  0  0  0  0
 55 64  1  0  0  0  0
 56 77  1  0  0  0  0
 57 75  1  0  0  0  0
 58 63  1  0  0  0  0
 59 60  1  0  0  0  0
 59 63  1  0  0  0  0
 60 84  1  0  0  0  0
 61 64  1  0  0  0  0
 61 74  1  0  0  0  0
 62 77  1  0  0  0  0
 63 76  1  0  0  0  0
 66 68  1  0  0  0  0
M  CHG  2  76   1  77   1
M  ISO  4  36 100  60 101  75 100  84 101
M  END
> <Batch ID>
0199

> <Smiles>
CCC(C[101CH2:1][101O:1]c1ccc2c(c1)CN(C(=O)C(NC(=O)C(C)NC)C(C)(C)C)C(C(=O)NC1CCCc3ccccc31)C2)N1Cc2cnc(C[100NH:0][100C:0](=O)N3CCCC(n4nc(-c5ccc(Oc6ccc(F)cc6F)cc5)c(C(N)=O)c4N)C3)nc2C1

> <Shape>
0.222

> <Color>
0.064

> <Negative vol penalty>
0.000

$$$$

  -OEChem-04052323503D

 84 93  0     1  0  0  0  0  0999 V2000
  -30.4074  -31.0710   26.0053 C   0  0  0  0  0  0  0  0  0  0  0  0
  -29.7529  -30.0595   25.3097 C   0  0  0  0  0  0  0  0  0  0  0  0
  -24.5506   -8.7001   21.4013 C   0  0  0  0  0  0  0  0  0  0  0  0
  -23.3842  -10.5471   22.4335 C   0  0  0  0  0  0  0  0  0  0  0  0
  -29.6985  -32.1927   26.4331 C   0  0  0  0  0  0  0  0  0  0  0  0
  -28.3886  -30.1686   25.0427 C   0  0  0  0  0  0  0  0  0  0  0  0
  -27.2339  -28.8968   20.2788 C   0  0  0  0  0  0  0  0  0  0  0  0
  -24.0499   -7.8385   22.3773 C   0  0  0  0  0  0  0  0  0  0  0  0
  -22.8834   -9.6854   23.4094 C   0  0  0  0  0  0  0  0  0  0  0  0
  -27.1765  -27.5364   19.9791 C   0  0  0  0  0  0  0  0  0  0  0  0
  -22.7877   -5.0855   24.3880 C   0  0  0  0  0  0  0  0  0  0  0  0
  -22.2804   -3.8557   23.9688 C   0  0  0  0  0  0  0  0  0  0  0  0
  -24.7714  -27.6061   20.1518 C   0  0  0  0  0  0  0  0  0  0  0  0
  -20.6417   -4.9956   22.6076 C   0  0  0  0  0  0  0  0  0  0  0  0
  -26.7377  -21.8407   17.4665 C   0  0  0  0  0  0  0  0  0  0  0  0
  -24.2179  -10.0545   21.4295 C   0  0  0  0  0  0  0  0  0  0  0  0
  -24.1445  -11.2638   19.1845 C   0  0  0  0  0  0  0  0  0  0  0  0
  -28.3269  -32.3201   26.1627 C   0  0  0  0  0  0  0  0  0  0  0  0
  -26.0592  -29.6208   20.5285 C   0  0  0  0  0  0  0  0  0  0  0  0
  -27.6604  -31.2924   25.4685 C   0  0  0  0  0  0  0  0  0  0  0  0
  -24.8164  -28.9761   20.4520 C   0  0  0  0  0  0  0  0  0  0  0  0
  -23.2163   -8.3311   23.3813 C   0  0  0  0  0  0  0  0  0  0  0  0
  -25.9453  -26.8902   19.9184 C   0  0  0  0  0  0  0  0  0  0  0  0
  -22.2220   -6.2704   23.9171 C   0  0  0  0  0  0  0  0  0  0  0  0
  -21.2074   -3.8107   23.0786 C   0  0  0  0  0  0  0  0  0  0  0  0
  -21.1491   -6.2254   23.0269 C   0  0  0  0  0  0  0  0  0  0  0  0
  -26.4850  -22.5555   20.0424 C   0  0  0  0  0  0  0  0  0  0  0  0
  -24.7353  -10.9451   20.4219 C   0  0  0  0  0  0  0  0  0  0  0  0
  -26.2586  -21.2639   19.6124 C   0  0  0  0  0  0  0  0  0  0  0  0
  -26.8499  -23.4557   19.0622 C   0  0  0  0  0  0  0  0  0  0  0  0
  -25.0223  -12.1449   18.6017 C   0  0  0  0  0  0  0  0  0  0  0  0
  -22.9124  -10.8044   18.6130 C   0  0  0  0  0  0  0  0  0  0  0  0
  -24.8975  -31.2227   23.0161 C   0  0  0  0  0  0  0  0  0  0  0  0
  -22.5708  -32.0383   20.9081 C   0  0  0  0  0  0  0  0  0  0  0  0
  -20.8586  -31.2935   18.0515 C   0  0  0  0  0  0  0  0  0  0  0  0
  -29.1088  -15.9078   20.8161 C   0  0  0  0  0  0  0  0  0  0  0  0
  -27.5929  -33.5290   26.6866 C   0  0  0  0  0  0  0  0  0  0  0  0
  -26.1364  -31.0936   20.8242 C   0  0  0  0  0  0  0  0  0  0  0  0
  -23.5248  -29.7127   20.6918 C   0  0  0  0  0  0  0  0  0  0  0  0
  -26.2283  -33.7421   26.0365 C   0  0  0  0  0  0  0  0  0  0  0  0
  -29.6704  -13.2800   18.4942 C   0  0  0  0  0  0  0  0  0  0  0  0
  -25.4507  -32.4308   25.9853 C   0  0  0  0  0  0  0  0  0  0  0  0
  -28.4148  -12.4138   18.6084 C   0  0  0  0  0  0  0  0  0  0  0  0
  -30.0872  -13.8507   19.8480 C   0  0  0  0  0  0  0  0  0  0  0  0
  -27.7732  -13.7156   20.6807 C   0  0  0  0  0  0  0  0  0  0  0  0
  -26.6107  -18.4951   22.1697 C   0  0  0  0  0  0  0  0  0  0  0  0
  -27.9581  -18.9338   20.6374 C   0  0  0  0  0  0  0  0  0  0  0  0
  -26.1865  -31.3858   25.1380 C   0  0  1  0  0  0  0  0  0  0  0  0
  -24.9117  -31.6189   21.5668 C   0  0  1  0  0  0  0  0  0  0  0  0
  -27.2798  -13.1631   19.3324 C   0  0  2  0  0  0  0  0  0  0  0  0
  -27.9951  -17.9307   21.8041 C   0  0  0  0  0  0  0  0  0  0  0  0
  -18.9873  -32.1275   16.6023 C   0  0  0  0  0  0  0  0  0  0  0  0
  -20.5414  -31.0154   22.9441 C   0  0  0  0  0  0  0  0  0  0  0  0
  -18.8295  -30.9829   21.1174 C   0  0  0  0  0  0  0  0  0  0  0  0
  -19.8871  -33.1382   21.7950 C   0  0  0  0  0  0  0  0  0  0  0  0
  -22.6528  -31.6161   15.7200 C   0  0  0  0  0  0  0  0  0  0  0  0
  -25.8564  -20.1899   20.5703 C   0  0  0  0  0  0  0  0  0  0  0  0
  -27.1250  -24.8930   19.3939 C   0  0  0  0  0  0  0  0  0  1  0  0
  -21.2446  -31.4455   20.4973 C   0  0  1  0  0  0  0  0  0  0  0  0
  -20.4878  -32.1426   16.8489 C   0  0  2  0  0  0  0  0  0  0  0  0
  -20.1499  -31.6309   21.5858 C   0  0  0  0  0  0  0  0  0  0  0  0
  -26.3762  -20.8703   18.3273 N   0  0  0  0  0  0  0  0  0  0  0  0
  -26.9864  -23.1314   17.7597 N   0  0  0  0  0  0  0  0  0  0  0  0
  -25.8985  -11.5726   20.6148 N   0  0  0  0  0  0  0  0  0  0  0  0
  -26.0457  -12.2943   19.4907 N   0  0  0  0  0  0  0  0  0  0  0  0
  -23.6530  -31.1501   20.9836 N   0  0  0  0  0  0  0  0  0  0  0  0
  -28.9658  -14.5531   20.4769 N   0  0  0  0  0  0  0  0  0  0  0  0
  -25.0108  -12.7986   17.4206 N   0  0  0  0  0  0  0  0  0  0  0  0
  -22.1317   -9.9006   19.3464 N   0  0  0  0  0  0  0  0  0  0  0  0
  -25.9996  -31.6555   23.7284 N   0  0  0  0  0  0  0  0  0  0  0  0
  -20.9125  -32.0422   19.2081 N   0  0  0  0  0  0  0  0  0  0  0  0
  -27.9993  -16.5093   21.4010 N   0  0  0  0  0  0  0  0  0  0  0  0
  -26.9792  -19.7090   21.4199 N   0  3  0  0  0  0  0  0  0  0  0  0
  -21.1704  -31.6341   15.6256 N   0  3  0  0  0  0  0  0  0  0  0  0
  -22.5235  -11.1716   17.4783 O   0  0  0  0  0  0  0  0  0  0  0  0
  -23.9556  -30.5737   23.4558 O   0  0  0  0  0  0  0  0  0  0  0  0
  -22.6454  -33.2464   21.1461 O   0  0  0  0  0  0  0  0  0  0  0  0
  -21.0748  -30.0862   17.9732 O   0  0  0  0  0  0  0  0  0  0  0  0
  -30.1467  -16.5454   20.6079 O   0  0  0  0  0  0  0  0  0  0  0  0
  -22.7273   -7.4906   24.3336 O   0  0  0  0  0  0  0  0  0  0  0  0
  -25.8864  -25.5623   19.6266 O   0  0  0  0  0  0  0  0  0  1  0  0
  -20.7214   -2.6296   22.6749 F   0  0  0  0  0  0  0  0  0  0  0  0
  -20.6022   -7.3604   22.5701 F   0  0  0  0  0  0  0  0  0  0  0  0
  -26.3218  -23.0132   21.6916 Cl  0  0  0  0  0  0  0  0  0  0  0  0
  1  2  1  0  0  0  0
  1  5  2  0  0  0  0
  2  6  2  0  0  0  0
  3  8  2  0  0  0  0
  3 16  1  0  0  0  0
  4  9  1  0  0  0  0
  4 16  2  0  0  0  0
  5 18  1  0  0  0  0
  6 20  1  0  0  0  0
  7 10  2  0  0  0  0
  7 19  1  0  0  0  0
  8 22  1  0  0  0  0
  9 22  2  0  0  0  0
 10 23  1  0  0  0  0
 11 12  2  0  0  0  0
 11 24  1  0  0  0  0
 12 25  1  0  0  0  0
 13 21  1  0  0  0  0
 13 23  2  0  0  0  0
 14 25  2  0  0  0  0
 14 26  1  0  0  0  0
 15 62  1  0  0  0  0
 15 63  2  0  0  0  0
 16 28  1  0  0  0  0
 17 28  1  0  0  0  0
 17 31  2  0  0  0  0
 17 32  1  0  0  0  0
 18 20  2  0  0  0  0
 18 37  1  0  0  0  0
 19 21  2  0  0  0  0
 19 38  1  0  0  0  0
 20 48  1  0  0  0  0
 21 39  1  0  0  0  0
 22 80  1  0  0  0  0
 23 81  1  0  0  0  0
 24 26  2  0  0  0  0
 24 80  1  0  0  0  0
 25 82  1  0  0  0  0
 26 83  1  0  0  0  0
 27 29  1  0  0  0  0
 27 30  2  0  0  0  0
 27 84  1  0  0  0  0
 28 64  2  0  0  0  0
 29 57  1  0  0  0  0
 29 62  2  0  0  0  0
 30 58  1  0  0  0  0
 30 63  1  0  0  0  0
 31 65  1  0  0  0  0
 31 68  1  0  0  0  0
 32 69  1  0  0  0  0
 32 75  2  0  0  0  0
 33 49  1  0  0  0  0
 33 70  1  0  0  0  0
 33 76  2  0  0  0  0
 34 59  1  0  0  0  0
 34 66  1  0  0  0  0
 34 77  2  0  0  0  0
 35 60  1  0  0  0  0
 35 71  1  0  0  0  0
 35 78  2  0  0  0  0
 36 67  1  0  0  0  0
 36 72  1  0  0  0  0
 36 79  2  0  0  0  0
 37 40  1  0  0  0  0
 38 49  1  0  0  0  0
 39 66  1  0  0  0  0
 40 42  1  0  0  0  0
 41 43  1  0  0  0  0
 41 44  1  0  0  0  0
 42 48  1  0  0  0  0
 43 50  1  0  0  0  0
 44 67  1  0  0  0  0
 45 50  1  0  0  0  0
 45 67  1  0  0  0  0
 46 51  1  0  0  0  0
 46 73  1  0  0  0  0
 47 51  1  0  0  0  0
 47 73  1  0  0  0  0
 48 70  1  0  0  0  0
 49 66  1  0  0  0  0
 50 65  1  0  0  0  0
 51 72  1  0  0  0  0
 52 60  1  0  0  0  0
 53 61  1  0  0  0  0
 54 61  1  0  0  0  0
 55 61  1  0  0  0  0
 56 74  1  0  0  0  0
 57 73  1  0  0  0  0
 58 81  1  0  0  0  0
 59 61  1  0  0  0  0
 59 71  1  0  0  0  0
 60 74  1  0  0  0  0
 64 65  1  0  0  0  0
M  CHG  2  73   1  74   1
M  ISO  4  36 100  58 101  72 100  81 101
M  END
> <Batch ID>
0199

> <Smiles>
CNC(C)C(=O)NC(C(=O)N1Cc2cc([101O:1][101CH2:1]c3ncnc(CN4CC([100NH:0][100C:0](=O)N5CCCC(n6nc(-c7ccc(Oc8ccc(F)cc8F)cc7)c(C(N)=O)c6N)C5)C4)c3Cl)ccc2CC1C(=O)NC1CCCc2ccccc21)C(C)(C)C

> <Shape>
0.276

> <Color>
0.092

> <Negative vol penalty>
0.000

$$$$

  -OEChem-04052323503D

 81 90  0     1  0  0  0  0  0999 V2000
  -22.7971  -12.4585   22.6383 C   0  0  0  0  0  0  0  0  0  0  0  0
  -23.4079  -11.9663   21.4905 C   0  0  0  0  0  0  0  0  0  0  0  0
  -23.0117  -24.3332   20.6103 C   0  0  0  0  0  0  0  0  0  0  0  0
  -24.3224  -24.1667   22.6330 C   0  0  0  0  0  0  0  0  0  0  0  0
  -22.2546  -13.7418   22.6389 C   0  0  0  0  0  0  0  0  0  0  0  0
  -23.4870  -12.7614   20.3467 C   0  0  0  0  0  0  0  0  0  0  0  0
  -27.5063  -18.6804   17.5065 C   0  0  0  0  0  0  0  0  0  0  0  0
  -23.3141  -23.0062   20.3050 C   0  0  0  0  0  0  0  0  0  0  0  0
  -24.6248  -22.8397   22.3278 C   0  0  0  0  0  0  0  0  0  0  0  0
  -28.0657  -19.7627   18.1842 C   0  0  0  0  0  0  0  0  0  0  0  0
  -25.4466  -19.2987   22.2641 C   0  0  0  0  0  0  0  0  0  0  0  0
  -25.3537  -18.3589   23.2906 C   0  0  0  0  0  0  0  0  0  0  0  0
  -28.8401  -18.2711   19.9147 C   0  0  0  0  0  0  0  0  0  0  0  0
  -23.0115  -18.8864   23.5614 C   0  0  0  0  0  0  0  0  0  0  0  0
  -23.5159  -24.9135   21.7742 C   0  0  0  0  0  0  0  0  0  0  0  0
  -22.1096  -26.7568   22.8383 C   0  0  0  0  0  0  0  0  0  0  0  0
  -22.3165  -14.5478   21.4902 C   0  0  0  0  0  0  0  0  0  0  0  0
  -27.6003  -17.3845   18.0340 C   0  0  0  0  0  0  0  0  0  0  0  0
  -22.9667  -14.0682   20.3349 C   0  0  0  0  0  0  0  0  0  0  0  0
  -28.2833  -17.1737   19.2404 C   0  0  0  0  0  0  0  0  0  0  0  0
  -24.1206  -22.2594   21.1638 C   0  0  0  0  0  0  0  0  0  0  0  0
  -28.7302  -19.5586   19.3900 C   0  0  0  0  0  0  0  0  0  0  0  0
  -24.3221  -20.0324   21.8862 C   0  0  0  0  0  0  0  0  0  0  0  0
  -24.1361  -18.1528   23.9393 C   0  0  0  0  0  0  0  0  0  0  0  0
  -23.1045  -19.8262   22.5349 C   0  0  0  0  0  0  0  0  0  0  0  0
  -23.2043  -26.2844   22.0898 C   0  0  0  0  0  0  0  0  0  0  0  0
  -22.2653  -28.1214   22.8507 C   0  0  0  0  0  0  0  0  0  0  0  0
  -21.0469  -26.0273   23.4663 C   0  0  0  0  0  0  0  0  0  0  0  0
  -25.5057  -15.2076   19.0224 C   0  0  0  0  0  0  0  0  0  0  0  0
  -28.1521  -13.3516   19.2944 C   0  0  0  0  0  0  0  0  0  0  0  0
  -31.5371  -13.1726   19.6898 C   0  0  0  0  0  0  0  0  0  0  0  0
  -27.0924  -28.4385   20.1939 C   0  0  0  0  0  0  0  0  0  0  0  0
  -21.7200  -15.9320   21.5484 C   0  0  0  0  0  0  0  0  0  0  0  0
  -27.0147  -16.2240   17.2773 C   0  0  0  0  0  0  0  0  0  0  0  0
  -28.4296  -15.7994   19.8391 C   0  0  0  0  0  0  0  0  0  0  0  0
  -21.4586  -16.5253   20.1679 C   0  0  0  0  0  0  0  0  0  0  0  0
  -23.9582  -29.9065   19.3057 C   0  0  0  0  0  0  0  0  0  0  0  0
  -30.0911  -29.0722   22.1319 C   0  0  0  0  0  0  0  0  0  0  0  0
  -22.6981  -16.3821   19.2974 C   0  0  0  0  0  0  0  0  0  0  0  0
  -23.3704  -30.3998   20.6232 C   0  0  0  0  0  0  0  0  0  0  0  0
  -30.1629  -27.5529   22.0723 C   0  0  0  0  0  0  0  0  0  0  0  0
  -25.4702  -30.0700   19.2989 C   0  0  0  0  0  0  0  0  0  0  0  0
  -28.5965  -29.3381   22.0398 C   0  0  0  0  0  0  0  0  0  0  0  0
  -25.5665  -29.7438   21.7627 C   0  0  0  0  0  0  0  0  0  0  0  0
  -29.7469  -24.3994   19.8703 C   0  0  0  0  0  0  0  0  0  0  0  0
  -28.9575  -23.4438   21.5519 C   0  0  0  0  0  0  0  0  0  0  0  0
  -23.0374  -14.9036   19.0694 C   0  0  1  0  0  0  0  0  0  0  0  0
  -26.7245  -15.0174   18.1646 C   0  0  1  0  0  0  0  0  0  0  0  0
  -29.7863  -22.9342   20.3537 C   0  0  0  0  0  0  0  0  0  0  0  0
  -24.0226  -29.7339   21.8455 C   0  0  2  0  0  0  0  0  0  0  0  0
  -29.0671  -27.1884   21.0668 C   0  0  1  0  0  0  0  0  0  0  0  0
  -33.4094  -11.5168   19.9143 C   0  0  0  0  0  0  0  0  0  0  0  0
  -27.3197  -12.8052   22.1786 C   0  0  0  0  0  0  0  0  0  0  0  0
  -29.6390  -11.9699   22.6163 C   0  0  0  0  0  0  0  0  0  0  0  0
  -28.1915  -10.8098   20.9485 C   0  0  0  0  0  0  0  0  0  0  0  0
  -32.8650  -14.1664   17.2386 C   0  0  0  0  0  0  0  0  0  0  0  0
  -29.1329  -21.9014   19.4602 C   0  0  0  0  0  0  0  0  0  1  0  0
  -28.4444  -25.8319   21.3706 C   0  0  0  0  0  0  0  0  0  0  0  0
  -29.1580  -13.0773   20.3862 C   0  0  1  0  0  0  0  0  0  0  0  0
  -32.5962  -12.3713   18.9545 C   0  0  2  0  0  0  0  0  0  0  0  0
  -28.5728  -12.1918   21.5223 C   0  0  0  0  0  0  0  0  0  0  0  0
  -23.9968  -27.2690   21.6579 N   0  0  0  0  0  0  0  0  0  0  0  0
  -23.3994  -28.3736   22.1364 N   0  0  0  0  0  0  0  0  0  0  0  0
  -27.8345  -14.6977   19.0646 N   0  0  0  0  0  0  0  0  0  0  0  0
  -26.0984  -29.3981   20.4367 N   0  0  0  0  0  0  0  0  0  0  0  0
  -28.0969  -28.2867   21.1524 N   0  0  0  0  0  0  0  0  0  0  0  0
  -21.5413  -29.1181   23.4028 N   0  0  0  0  0  0  0  0  0  0  0  0
  -21.0391  -24.6301   23.3555 N   0  0  0  0  0  0  0  0  0  0  0  0
  -24.3269  -14.8098   18.4211 N   0  0  0  0  0  0  0  0  0  0  0  0
  -30.3294  -12.5084   19.7285 N   0  0  0  0  0  0  0  0  0  0  0  0
  -29.4910  -24.7927   21.2712 N   0  3  0  0  0  0  0  0  0  0  0  0
  -33.5278  -13.2835   18.2327 N   0  3  0  0  0  0  0  0  0  0  0  0
  -20.1226  -26.5986   24.0929 O   0  0  0  0  0  0  0  0  0  0  0  0
  -25.6260  -15.6788   20.1472 O   0  0  0  0  0  0  0  0  0  0  0  0
  -27.6715  -12.4067   18.6637 O   0  0  0  0  0  0  0  0  0  0  0  0
  -31.7600  -14.2756   20.1839 O   0  0  0  0  0  0  0  0  0  0  0  0
  -27.0886  -27.7543   19.1619 O   0  0  0  0  0  0  0  0  0  0  0  0
  -24.4158  -20.9644   20.8663 O   0  0  0  0  0  0  0  0  0  0  0  0
  -29.2806  -20.6211   20.0588 O   0  0  0  0  0  0  0  0  0  1  0  0
  -24.0467  -17.2492   24.9240 F   0  0  0  0  0  0  0  0  0  0  0  0
  -22.0204  -20.5272   22.1755 F   0  0  0  0  0  0  0  0  0  0  0  0
  1  2  1  0  0  0  0
  1  5  2  0  0  0  0
  2  6  2  0  0  0  0
  3  8  2  0  0  0  0
  3 15  1  0  0  0  0
  4  9  1  0  0  0  0
  4 15  2  0  0  0  0
  5 17  1  0  0  0  0
  6 19  1  0  0  0  0
  7 10  2  0  0  0  0
  7 18  1  0  0  0  0
  8 21  1  0  0  0  0
  9 21  2  0  0  0  0
 10 22  1  0  0  0  0
 11 12  2  0  0  0  0
 11 23  1  0  0  0  0
 12 24  1  0  0  0  0
 13 20  1  0  0  0  0
 13 22  2  0  0  0  0
 14 24  2  0  0  0  0
 14 25  1  0  0  0  0
 15 26  1  0  0  0  0
 16 26  1  0  0  0  0
 16 27  2  0  0  0  0
 16 28  1  0  0  0  0
 17 19  2  0  0  0  0
 17 33  1  0  0  0  0
 18 20  2  0  0  0  0
 18 34  1  0  0  0  0
 19 47  1  0  0  0  0
 20 35  1  0  0  0  0
 21 78  1  0  0  0  0
 22 79  1  0  0  0  0
 23 25  2  0  0  0  0
 23 78  1  0  0  0  0
 24 80  1  0  0  0  0
 25 81  1  0  0  0  0
 26 62  2  0  0  0  0
 27 63  1  0  0  0  0
 27 67  1  0  0  0  0
 28 68  1  0  0  0  0
 28 73  2  0  0  0  0
 29 48  1  0  0  0  0
 29 69  1  0  0  0  0
 29 74  2  0  0  0  0
 30 59  1  0  0  0  0
 30 64  1  0  0  0  0
 30 75  2  0  0  0  0
 31 60  1  0  0  0  0
 31 70  1  0  0  0  0
 31 76  2  0  0  0  0
 32 65  1  0  0  0  0
 32 66  1  0  0  0  0
 32 77  2  0  0  0  0
 33 36  1  0  0  0  0
 34 48  1  0  0  0  0
 35 64  1  0  0  0  0
 36 39  1  0  0  0  0
 37 40  1  0  0  0  0
 37 42  1  0  0  0  0
 38 41  1  0  0  0  0
 38 43  1  0  0  0  0
 39 47  1  0  0  0  0
 40 50  1  0  0  0  0
 41 51  1  0  0  0  0
 42 65  1  0  0  0  0
 43 66  1  0  0  0  0
 44 50  1  0  0  0  0
 44 65  1  0  0  0  0
 45 49  1  0  0  0  0
 45 71  1  0  0  0  0
 46 49  1  0  0  0  0
 46 71  1  0  0  0  0
 47 69  1  0  0  0  0
 48 64  1  0  0  0  0
 49 57  1  0  0  0  0
 50 63  1  0  0  0  0
 51 58  1  0  0  0  0
 51 66  1  0  0  0  0
 52 60  1  0  0  0  0
 53 61  1  0  0  0  0
 54 61  1  0  0  0  0
 55 61  1  0  0  0  0
 56 72  1  0  0  0  0
 57 79  1  0  0  0  0
 58 71  1  0  0  0  0
 59 61  1  0  0  0  0
 59 70  1  0  0  0  0
 60 72  1  0  0  0  0
 62 63  1  0  0  0  0
M  CHG  2  71   1  72   1
M  ISO  4  32 100  57 101  66 100  79 101
M  END
> <Batch ID>
0199

> <Smiles>
CNC(C)C(=O)NC(C(=O)N1Cc2cc([101O:1][101CH2:1]C3CN(CC4CCC[100N:0]4[100C:0](=O)N4CCCC(n5nc(-c6ccc(Oc7ccc(F)cc7F)cc6)c(C(N)=O)c5N)C4)C3)ccc2CC1C(=O)NC1CCCc2ccccc21)C(C)(C)C

> <Shape>
0.238

> <Color>
0.070

> <Negative vol penalty>
0.000

$$$$

  -OEChem-04052323503D

 83 92  0     1  0  0  0  0  0999 V2000
  -23.6037  -23.8634   18.6318 C   0  0  0  0  0  0  0  0  0  0  0  0
  -24.6956  -23.1022   19.0366 C   0  0  0  0  0  0  0  0  0  0  0  0
  -22.0293  -28.1136   21.0844 C   0  0  0  0  0  0  0  0  0  0  0  0
  -23.0749  -27.0886   23.0061 C   0  0  0  0  0  0  0  0  0  0  0  0
  -22.3145  -23.4831   19.0022 C   0  0  0  0  0  0  0  0  0  0  0  0
  -24.4989  -21.9608   19.8131 C   0  0  0  0  0  0  0  0  0  0  0  0
  -27.2529  -18.0240   18.2124 C   0  0  0  0  0  0  0  0  0  0  0  0
  -20.7837  -28.0010   21.7020 C   0  0  0  0  0  0  0  0  0  0  0  0
  -21.8294  -26.9761   23.6238 C   0  0  0  0  0  0  0  0  0  0  0  0
  -28.6051  -18.0129   18.5517 C   0  0  0  0  0  0  0  0  0  0  0  0
  -19.0306  -29.6322   24.0892 C   0  0  0  0  0  0  0  0  0  0  0  0
  -18.1826  -30.7388   24.0448 C   0  0  0  0  0  0  0  0  0  0  0  0
  -28.1347  -16.4779   20.3521 C   0  0  0  0  0  0  0  0  0  0  0  0
  -16.5250  -29.4219   22.8806 C   0  0  0  0  0  0  0  0  0  0  0  0
  -23.1749  -27.6574   21.7364 C   0  0  0  0  0  0  0  0  0  0  0  0
  -25.3601  -28.8532   21.1863 C   0  0  0  0  0  0  0  0  0  0  0  0
  -22.1012  -22.3311   19.7755 C   0  0  0  0  0  0  0  0  0  0  0  0
  -26.3282  -17.2693   18.9485 C   0  0  0  0  0  0  0  0  0  0  0  0
  -23.2057  -21.5655   20.1953 C   0  0  0  0  0  0  0  0  0  0  0  0
  -26.7716  -16.4791   20.0186 C   0  0  0  0  0  0  0  0  0  0  0  0
  -20.6838  -27.4323   22.9718 C   0  0  0  0  0  0  0  0  0  0  0  0
  -29.0458  -17.2421   19.6235 C   0  0  0  0  0  0  0  0  0  0  0  0
  -18.6258  -28.4204   23.5293 C   0  0  0  0  0  0  0  0  0  0  0  0
  -16.9298  -30.6336   23.4405 C   0  0  0  0  0  0  0  0  0  0  0  0
  -17.3731  -28.3153   22.9250 C   0  0  0  0  0  0  0  0  0  0  0  0
  -24.4618  -27.7729   21.0986 C   0  0  0  0  0  0  0  0  0  0  0  0
  -26.4265  -28.4772   20.4066 C   0  0  0  0  0  0  0  0  0  0  0  0
  -25.2413  -30.0863   21.9081 C   0  0  0  0  0  0  0  0  0  0  0  0
  -23.7766  -17.9523   20.7167 C   0  0  0  0  0  0  0  0  0  0  0  0
  -23.4694  -14.7248   20.8221 C   0  0  0  0  0  0  0  0  0  0  0  0
  -24.9590  -11.6634   20.5856 C   0  0  0  0  0  0  0  0  0  0  0  0
  -29.5816  -23.8910   18.9741 C   0  0  0  0  0  0  0  0  0  0  0  0
  -20.6930  -21.9862   20.1910 C   0  0  0  0  0  0  0  0  0  0  0  0
  -24.8770  -17.2711   18.5531 C   0  0  0  0  0  0  0  0  0  0  0  0
  -25.8223  -15.6352   20.8280 C   0  0  0  0  0  0  0  0  0  0  0  0
  -20.5413  -20.5551   20.7000 C   0  0  0  0  0  0  0  0  0  0  0  0
  -28.0505  -26.1657   16.7400 C   0  0  0  0  0  0  0  0  0  0  0  0
  -21.6545  -20.2187   21.6872 C   0  0  0  0  0  0  0  0  0  0  0  0
  -27.1879  -27.0499   17.6360 C   0  0  0  0  0  0  0  0  0  0  0  0
  -28.7529  -20.4139   23.6544 C   0  0  0  0  0  0  0  0  0  0  0  0
  -28.7166  -18.9305   23.4187 C   0  0  0  0  0  0  0  0  0  0  0  0
  -31.4830  -23.5764   22.0998 C   0  0  0  0  0  0  0  0  0  0  0  0
  -29.3585  -25.8072   17.4322 C   0  0  0  0  0  0  0  0  0  0  0  0
  -30.5530  -24.4601   21.2784 C   0  0  0  0  0  0  0  0  0  0  0  0
  -30.2496  -22.1704   20.6254 C   0  0  0  0  0  0  0  0  0  0  0  0
  -28.2881  -25.9687   19.6637 C   0  0  0  0  0  0  0  0  0  0  0  0
  -23.0311  -20.3070   21.0174 C   0  0  1  0  0  0  0  0  0  0  0  0
  -23.9467  -16.8661   19.6925 C   0  0  1  0  0  0  0  0  0  0  0  0
  -30.7766  -22.2209   22.0565 C   0  0  1  0  0  0  0  0  0  0  0  0
  -26.9579  -26.3784   18.9988 C   0  0  1  0  0  0  0  0  0  0  0  0
  -30.0334  -19.6312   23.5950 C   0  0  0  0  0  0  0  0  0  0  0  0
  -24.4579   -9.2104   20.7562 C   0  0  0  0  0  0  0  0  0  0  0  0
  -23.3723  -14.9586   23.8628 C   0  0  0  0  0  0  0  0  0  0  0  0
  -23.8290  -12.5006   23.9967 C   0  0  0  0  0  0  0  0  0  0  0  0
  -21.7500  -13.3226   22.8900 C   0  0  0  0  0  0  0  0  0  0  0  0
  -25.7747  -11.1834   17.7815 C   0  0  0  0  0  0  0  0  0  0  0  0
  -31.6896  -21.0588   22.4035 C   0  0  0  0  0  0  0  0  0  0  0  0
  -32.2446  -18.5276   20.7024 C   0  0  0  0  0  0  0  0  0  0  0  0
  -31.7663  -18.5832   22.1455 C   0  0  0  0  0  0  0  0  0  0  0  0
  -31.1151  -18.4125   19.6862 C   0  0  0  0  0  0  0  0  0  1  0  0
  -23.9760  -13.6317   21.7318 C   0  0  1  0  0  0  0  0  0  0  0  0
  -24.5674  -10.4086   19.8262 C   0  0  2  0  0  0  0  0  0  0  0  0
  -23.2497  -13.6207   23.1065 C   0  0  0  0  0  0  0  0  0  0  0  0
  -24.9177  -26.7847   20.3242 N   0  0  0  0  0  0  0  0  0  0  0  0
  -26.1141  -27.2427   19.9180 N   0  0  0  0  0  0  0  0  0  0  0  0
  -24.4123  -15.6753   20.4062 N   0  0  0  0  0  0  0  0  0  0  0  0
  -29.1317  -25.1956   18.7430 N   0  0  0  0  0  0  0  0  0  0  0  0
  -29.9957  -23.5625   20.2644 N   0  0  0  0  0  0  0  0  0  0  0  0
  -27.5914  -29.0855   20.0980 N   0  0  0  0  0  0  0  0  0  0  0  0
  -24.0797  -30.3116   22.6593 N   0  0  0  0  0  0  0  0  0  0  0  0
  -23.2743  -19.1338   20.2057 N   0  0  0  0  0  0  0  0  0  0  0  0
  -23.8538  -12.3867   20.9814 N   0  0  0  0  0  0  0  0  0  0  0  0
  -25.5815  -10.0995   18.7788 N   0  3  0  0  0  0  0  0  0  0  0  0
  -30.9060  -19.8037   22.3741 N   0  3  1  0  0  0  0  0  0  0  0  0
  -26.1314  -30.9695   21.8743 O   0  0  0  0  0  0  0  0  0  0  0  0
  -24.0772  -17.7340   21.8845 O   0  0  0  0  0  0  0  0  0  0  0  0
  -22.2822  -14.7307   20.4869 O   0  0  0  0  0  0  0  0  0  0  0  0
  -26.1282  -11.9693   20.8088 O   0  0  0  0  0  0  0  0  0  0  0  0
  -29.6513  -23.0630   18.0558 O   0  0  0  0  0  0  0  0  0  0  0  0
  -19.4685  -27.3225   23.5749 O   0  0  0  0  0  0  0  0  0  0  0  0
  -30.3742  -17.2300   19.9595 O   0  0  0  0  0  0  0  0  0  1  0  0
  -16.1150  -31.6960   23.3993 F   0  0  0  0  0  0  0  0  0  0  0  0
  -16.9782  -27.1534   22.3864 F   0  0  0  0  0  0  0  0  0  0  0  0
  1  2  1  0  0  0  0
  1  5  2  0  0  0  0
  2  6  2  0  0  0  0
  3  8  2  0  0  0  0
  3 15  1  0  0  0  0
  4  9  1  0  0  0  0
  4 15  2  0  0  0  0
  5 17  1  0  0  0  0
  6 19  1  0  0  0  0
  7 10  2  0  0  0  0
  7 18  1  0  0  0  0
  8 21  1  0  0  0  0
  9 21  2  0  0  0  0
 10 22  1  0  0  0  0
 11 12  2  0  0  0  0
 11 23  1  0  0  0  0
 12 24  1  0  0  0  0
 13 20  1  0  0  0  0
 13 22  2  0  0  0  0
 14 24  2  0  0  0  0
 14 25  1  0  0  0  0
 15 26  1  0  0  0  0
 16 26  1  0  0  0  0
 16 27  2  0  0  0  0
 16 28  1  0  0  0  0
 17 19  2  0  0  0  0
 17 33  1  0  0  0  0
 18 20  2  0  0  0  0
 18 34  1  0  0  0  0
 19 47  1  0  0  0  0
 20 35  1  0  0  0  0
 21 80  1  0  0  0  0
 22 81  1  0  0  0  0
 23 25  2  0  0  0  0
 23 80  1  0  0  0  0
 24 82  1  0  0  0  0
 25 83  1  0  0  0  0
 26 64  2  0  0  0  0
 27 65  1  0  0  0  0
 27 69  1  0  0  0  0
 28 70  1  0  0  0  0
 28 75  2  0  0  0  0
 29 48  1  0  0  0  0
 29 71  1  0  0  0  0
 29 76  2  0  0  0  0
 30 61  1  0  0  0  0
 30 66  1  0  0  0  0
 30 77  2  0  0  0  0
 31 62  1  0  0  0  0
 31 72  1  0  0  0  0
 31 78  2  0  0  0  0
 32 67  1  0  0  0  0
 32 68  1  0  0  0  0
 32 79  2  0  0  0  0
 33 36  1  0  0  0  0
 34 48  1  0  0  0  0
 35 66  1  0  0  0  0
 36 38  1  0  0  0  0
 37 39  1  0  0  0  0
 37 43  1  0  0  0  0
 38 47  1  0  0  0  0
 39 50  1  0  0  0  0
 40 41  1  0  0  0  0
 40 51  1  0  0  0  0
 41 51  1  0  0  0  0
 42 44  1  0  0  0  0
 42 49  1  0  0  0  0
 43 67  1  0  0  0  0
 44 68  1  0  0  0  0
 45 49  1  0  0  0  0
 45 68  1  0  0  0  0
 46 50  1  0  0  0  0
 46 67  1  0  0  0  0
 47 71  1  0  0  0  0
 48 66  1  0  0  0  0
 49 57  1  0  0  0  0
 50 65  1  0  0  0  0
 51 74  1  0  0  0  0
 52 62  1  0  0  0  0
 53 63  1  0  0  0  0
 54 63  1  0  0  0  0
 55 63  1  0  0  0  0
 56 73  1  0  0  0  0
 57 74  1  0  0  0  0
 58 59  1  0  0  0  0
 58 60  1  0  0  0  0
 59 74  1  0  0  0  0
 60 81  1  0  0  0  0
 61 63  1  0  0  0  0
 61 72  1  0  0  0  0
 62 73  1  0  0  0  0
 64 65  1  0  0  0  0
M  CHG  2  73   1  74   1
M  ISO  4  32 100  60 101  68 100  81 101
M  END
> <Batch ID>
0199

> <Smiles>
CNC(C)C(=O)NC(C(=O)N1Cc2cc([101O:1][101CH2:1]CCN(CC3CC[100N:0]([100C:0](=O)N4CCCC(n5nc(-c6ccc(Oc7ccc(F)cc7F)cc6)c(C(N)=O)c5N)C4)C3)C3CC3)ccc2CC1C(=O)NC1CCCc2ccccc21)C(C)(C)C

> <Shape>
0.242

> <Color>
0.087

> <Negative vol penalty>
0.000

$$$$

  -OEChem-04052323503D

 91100  0     1  0  0  0  0  0999 V2000
  -26.7516  -24.4628   24.3055 C   0  0  0  0  0  0  0  0  0  0  0  0
  -25.8433  -23.4231   24.1338 C   0  0  0  0  0  0  0  0  0  0  0  0
  -26.4466  -30.6255   22.1518 C   0  0  0  0  0  0  0  0  0  0  0  0
  -26.6212  -28.6483   23.5292 C   0  0  0  0  0  0  0  0  0  0  0  0
  -27.7620  -24.6664   23.3666 C   0  0  0  0  0  0  0  0  0  0  0  0
  -25.9442  -22.5871   23.0223 C   0  0  0  0  0  0  0  0  0  0  0  0
  -24.6725  -16.6009   22.7908 C   0  0  0  0  0  0  0  0  0  0  0  0
  -26.6907  -31.4249   23.2684 C   0  0  0  0  0  0  0  0  0  0  0  0
  -26.8653  -29.4477   24.6459 C   0  0  0  0  0  0  0  0  0  0  0  0
  -23.5504  -15.8964   22.3569 C   0  0  0  0  0  0  0  0  0  0  0  0
  -26.9113  -34.0015   25.8250 C   0  0  0  0  0  0  0  0  0  0  0  0
  -26.1059  -35.1254   26.0084 C   0  0  0  0  0  0  0  0  0  0  0  0
  -24.5928  -15.5729   20.2056 C   0  0  0  0  0  0  0  0  0  0  0  0
  -24.1523  -33.7079   26.1151 C   0  0  0  0  0  0  0  0  0  0  0  0
  -20.0607  -12.4146   21.2687 C   0  0  0  0  0  0  0  0  0  0  0  0
  -26.4119  -29.2371   22.2822 C   0  0  0  0  0  0  0  0  0  0  0  0
  -27.1119  -27.8761   20.2413 C   0  0  0  0  0  0  0  0  0  0  0  0
  -27.8812  -23.8265   22.2481 C   0  0  0  0  0  0  0  0  0  0  0  0
  -25.7606  -16.8063   21.9303 C   0  0  0  0  0  0  0  0  0  0  0  0
  -26.9563  -22.7805   22.0669 C   0  0  0  0  0  0  0  0  0  0  0  0
  -25.7286  -16.2780   20.6319 C   0  0  0  0  0  0  0  0  0  0  0  0
  -26.9001  -30.8361   24.5154 C   0  0  0  0  0  0  0  0  0  0  0  0
  -23.5091  -15.3848   21.0632 C   0  0  0  0  0  0  0  0  0  0  0  0
  -26.3373  -32.7308   25.7866 C   0  0  0  0  0  0  0  0  0  0  0  0
  -24.7264  -34.9786   26.1534 C   0  0  0  0  0  0  0  0  0  0  0  0
  -24.9578  -32.5840   25.9316 C   0  0  0  0  0  0  0  0  0  0  0  0
  -26.1592  -28.4107   21.1292 C   0  0  0  0  0  0  0  0  0  0  0  0
  -20.2527  -13.7345   20.9247 C   0  0  0  0  0  0  0  0  0  0  0  0
  -18.3177  -12.2837   19.7942 C   0  0  0  0  0  0  0  0  0  0  0  0
  -18.5091  -13.6039   19.4506 C   0  0  0  0  0  0  0  0  0  0  0  0
  -26.3700  -27.1713   19.3252 C   0  0  0  0  0  0  0  0  0  0  0  0
  -28.5399  -28.0049   20.2445 C   0  0  0  0  0  0  0  0  0  0  0  0
  -27.1850  -19.3609   20.6859 C   0  0  0  0  0  0  0  0  0  0  0  0
  -29.2989  -17.1617   19.5826 C   0  0  0  0  0  0  0  0  0  0  0  0
  -29.9173  -13.9212   18.7089 C   0  0  0  0  0  0  0  0  0  0  0  0
  -21.0712  -24.5951   19.7015 C   0  0  0  0  0  0  0  0  0  0  0  0
  -28.9610  -24.1150   21.2355 C   0  0  0  0  0  0  0  0  0  0  0  0
  -26.9747  -17.5453   22.4224 C   0  0  0  0  0  0  0  0  0  0  0  0
  -26.8791  -16.4536   19.6758 C   0  0  0  0  0  0  0  0  0  0  0  0
  -29.2268  -22.9538   20.2809 C   0  0  0  0  0  0  0  0  0  0  0  0
  -22.0474  -27.0932   17.2717 C   0  0  0  0  0  0  0  0  0  0  0  0
  -27.9136  -22.3894   19.7481 C   0  0  0  0  0  0  0  0  0  0  0  0
  -23.3138  -27.6631   17.9134 C   0  0  0  0  0  0  0  0  0  0  0  0
  -17.8612  -22.8620   18.9377 C   0  0  0  0  0  0  0  0  0  0  0  0
  -20.9949  -26.7616   18.3255 C   0  0  0  0  0  0  0  0  0  0  0  0
  -22.7303  -26.4051   20.0387 C   0  0  0  0  0  0  0  0  0  0  0  0
  -17.5305  -21.3802   18.8511 C   0  0  0  0  0  0  0  0  0  0  0  0
  -19.8910  -21.7877   18.3555 C   0  0  0  0  0  0  0  0  0  0  0  0
  -27.0481  -21.8371   20.8871 C   0  0  1  0  0  0  0  0  0  0  0  0
  -27.8120  -18.1378   21.2931 C   0  0  1  0  0  0  0  0  0  0  0  0
  -23.8417  -26.7397   19.0273 C   0  0  2  0  0  0  0  0  0  0  0  0
  -19.3474  -22.8836   19.2508 C   0  0  1  0  0  0  0  0  0  0  0  0
  -17.7772  -10.5119   18.1045 C   0  0  0  0  0  0  0  0  0  0  0  0
  -31.7271  -12.4352   17.8065 C   0  0  0  0  0  0  0  0  0  0  0  0
  -28.8527  -18.3159   16.7936 C   0  0  0  0  0  0  0  0  0  0  0  0
  -29.9013  -16.2492   15.8464 C   0  0  0  0  0  0  0  0  0  0  0  0
  -31.2321  -17.7566   17.3227 C   0  0  0  0  0  0  0  0  0  0  0  0
  -29.8999  -12.2299   21.1375 C   0  0  0  0  0  0  0  0  0  0  0  0
  -17.2398  -11.4661   19.1684 C   0  0  0  0  0  0  0  0  0  0  0  0
  -17.6472  -14.2760   18.4372 C   0  0  0  0  0  0  0  0  0  0  0  0
  -21.3449  -14.5377   21.5676 C   0  0  0  0  0  0  0  0  0  1  0  0
  -18.1217  -18.4926   17.6787 C   0  0  0  0  0  0  0  0  0  0  0  0
  -18.0513  -17.5317   16.4914 C   0  0  0  0  0  0  0  0  0  0  0  0
  -18.7481  -19.8183   17.2726 C   0  0  0  0  0  0  0  0  0  0  0  0
  -17.3922  -16.2192   16.8887 C   0  0  0  0  0  0  0  0  0  0  0  0
  -29.4131  -16.3211   18.3339 C   0  0  1  0  0  0  0  0  0  0  0  0
  -31.0596  -12.9842   19.0579 C   0  0  2  0  0  0  0  0  0  0  0  0
  -29.8271  -17.1589   17.0913 C   0  0  0  0  0  0  0  0  0  0  0  0
  -19.0898  -11.6654   20.7096 N   0  0  0  0  0  0  0  0  0  0  0  0
  -24.9076  -28.0745   20.8062 N   0  0  0  0  0  0  0  0  0  0  0  0
  -19.4803  -14.3529   20.0095 N   0  0  0  0  0  0  0  0  0  0  0  0
  -25.0686  -27.3211   19.7050 N   0  0  0  0  0  0  0  0  0  0  0  0
  -28.0411  -17.1889   20.2016 N   0  0  0  0  0  0  0  0  0  0  0  0
  -21.5559  -25.8647   19.3459 N   0  0  0  0  0  0  0  0  0  0  0  0
  -26.7103  -26.4443   18.2398 N   0  0  0  0  0  0  0  0  0  0  0  0
  -29.1400  -28.7647   21.2578 N   0  0  0  0  0  0  0  0  0  0  0  0
  -27.5364  -20.5423   21.3108 N   0  0  0  0  0  0  0  0  0  0  0  0
  -30.3324  -15.2350   18.6556 N   0  0  0  0  0  0  0  0  0  0  0  0
  -19.9518  -24.1599   19.0028 N   0  0  0  0  0  0  0  0  0  0  0  0
  -18.8374  -20.7056   18.4724 N   0  3  2  0  0  0  0  0  0  0  0  0
  -30.5595  -11.8362   19.8659 N   0  3  0  0  0  0  0  0  0  0  0  0
  -18.2100  -15.5628   17.9415 N   0  3  0  0  0  0  0  0  0  0  0  0
  -29.2611  -27.4758   19.3650 O   0  0  0  0  0  0  0  0  0  0  0  0
  -26.4390  -19.2418   19.7211 O   0  0  0  0  0  0  0  0  0  0  0  0
  -30.2909  -17.7660   19.9976 O   0  0  0  0  0  0  0  0  0  0  0  0
  -28.7721  -13.5266   18.5004 O   0  0  0  0  0  0  0  0  0  0  0  0
  -21.6003  -23.8980   20.5739 O   0  0  0  0  0  0  0  0  0  0  0  0
  -27.1385  -31.6159   25.6052 O   0  0  0  0  0  0  0  0  0  0  0  0
  -22.4148  -14.6974   20.6369 O   0  0  0  0  0  0  0  0  0  1  0  0
  -23.9531  -36.0578   26.3311 F   0  0  0  0  0  0  0  0  0  0  0  0
  -24.4008  -31.3657   25.8968 F   0  0  0  0  0  0  0  0  0  0  0  0
  1  2  1  0  0  0  0
  1  5  2  0  0  0  0
  2  6  2  0  0  0  0
  3  8  2  0  0  0  0
  3 16  1  0  0  0  0
  4  9  1  0  0  0  0
  4 16  2  0  0  0  0
  5 18  1  0  0  0  0
  6 20  1  0  0  0  0
  7 10  2  0  0  0  0
  7 19  1  0  0  0  0
  8 22  1  0  0  0  0
  9 22  2  0  0  0  0
 10 23  1  0  0  0  0
 11 12  2  0  0  0  0
 11 24  1  0  0  0  0
 12 25  1  0  0  0  0
 13 21  1  0  0  0  0
 13 23  2  0  0  0  0
 14 25  2  0  0  0  0
 14 26  1  0  0  0  0
 15 28  1  0  0  0  0
 15 69  2  0  0  0  0
 16 27  1  0  0  0  0
 17 27  1  0  0  0  0
 17 31  2  0  0  0  0
 17 32  1  0  0  0  0
 18 20  2  0  0  0  0
 18 37  1  0  0  0  0
 19 21  2  0  0  0  0
 19 38  1  0  0  0  0
 20 49  1  0  0  0  0
 21 39  1  0  0  0  0
 22 88  1  0  0  0  0
 23 89  1  0  0  0  0
 24 26  2  0  0  0  0
 24 88  1  0  0  0  0
 25 90  1  0  0  0  0
 26 91  1  0  0  0  0
 27 70  2  0  0  0  0
 28 61  1  0  0  0  0
 28 71  2  0  0  0  0
 29 30  2  0  0  0  0
 29 59  1  0  0  0  0
 29 69  1  0  0  0  0
 30 60  1  0  0  0  0
 30 71  1  0  0  0  0
 31 72  1  0  0  0  0
 31 75  1  0  0  0  0
 32 76  1  0  0  0  0
 32 83  2  0  0  0  0
 33 50  1  0  0  0  0
 33 77  1  0  0  0  0
 33 84  2  0  0  0  0
 34 66  1  0  0  0  0
 34 73  1  0  0  0  0
 34 85  2  0  0  0  0
 35 67  1  0  0  0  0
 35 78  1  0  0  0  0
 35 86  2  0  0  0  0
 36 74  1  0  0  0  0
 36 79  1  0  0  0  0
 36 87  2  0  0  0  0
 37 40  1  0  0  0  0
 38 50  1  0  0  0  0
 39 73  1  0  0  0  0
 40 42  1  0  0  0  0
 41 43  1  0  0  0  0
 41 45  1  0  0  0  0
 42 49  1  0  0  0  0
 43 51  1  0  0  0  0
 44 47  1  0  0  0  0
 44 52  1  0  0  0  0
 45 74  1  0  0  0  0
 46 51  1  0  0  0  0
 46 74  1  0  0  0  0
 47 80  1  0  0  0  0
 48 52  1  0  0  0  0
 48 80  1  0  0  0  0
 49 77  1  0  0  0  0
 50 73  1  0  0  0  0
 51 72  1  0  0  0  0
 52 79  1  0  0  0  0
 53 59  1  0  0  0  0
 54 67  1  0  0  0  0
 55 68  1  0  0  0  0
 56 68  1  0  0  0  0
 57 68  1  0  0  0  0
 58 81  1  0  0  0  0
 60 82  1  0  0  0  0
 61 89  1  0  0  0  0
 62 63  1  0  0  0  0
 62 64  1  0  0  0  0
 63 65  1  0  0  0  0
 64 80  1  0  0  0  0
 65 82  1  0  0  0  0
 66 68  1  0  0  0  0
 66 78  1  0  0  0  0
 67 81  1  0  0  0  0
 70 72  1  0  0  0  0
M  CHG  3  80   1  81   1  82   1
M  ISO  4  36 100  61 101  79 100  89 101
M  END
> <Batch ID>
0199

> <Smiles>
CCc1ncc([101CH2:1][101O:1]c2ccc3c(c2)CN(C(=O)C(NC(=O)C(C)NC)C(C)(C)C)C(C(=O)NC2CCCc4ccccc42)C3)nc1CNCCCCN1CCC([100NH:0][100C:0](=O)N2CCCC(n3nc(-c4ccc(Oc5ccc(F)cc5F)cc4)c(C(N)=O)c3N)C2)C1

> <Shape>
0.207

> <Color>
0.050

> <Negative vol penalty>
0.000

$$$$

  -OEChem-04052323503D

 84 93  0     1  0  0  0  0  0999 V2000
  -17.9285  -25.7741   21.4033 C   0  0  0  0  0  0  0  0  0  0  0  0
  -19.2524  -25.3468   21.3893 C   0  0  0  0  0  0  0  0  0  0  0  0
  -24.7696   -9.5458   21.0274 C   0  0  0  0  0  0  0  0  0  0  0  0
  -22.6298  -10.0948   22.0057 C   0  0  0  0  0  0  0  0  0  0  0  0
  -17.6278  -27.1157   21.1720 C   0  0  0  0  0  0  0  0  0  0  0  0
  -20.2763  -26.2608   21.1428 C   0  0  0  0  0  0  0  0  0  0  0  0
  -25.8976  -26.2357   23.5731 C   0  0  0  0  0  0  0  0  0  0  0  0
  -24.8126   -8.3722   21.7800 C   0  0  0  0  0  0  0  0  0  0  0  0
  -22.6728   -8.9212   22.7583 C   0  0  0  0  0  0  0  0  0  0  0  0
  -27.1247  -25.7797   23.0936 C   0  0  0  0  0  0  0  0  0  0  0  0
  -22.1055   -5.6263   22.2661 C   0  0  0  0  0  0  0  0  0  0  0  0
  -20.9468   -4.8519   22.3230 C   0  0  0  0  0  0  0  0  0  0  0  0
  -27.6550  -28.0113   22.3465 C   0  0  0  0  0  0  0  0  0  0  0  0
  -20.8883   -5.1158   24.7238 C   0  0  0  0  0  0  0  0  0  0  0  0
  -29.9576  -23.5421   20.0710 C   0  0  0  0  0  0  0  0  0  0  0  0
  -23.6782  -10.4071   21.1402 C   0  0  0  0  0  0  0  0  0  0  0  0
  -23.0874  -11.7854   19.0765 C   0  0  0  0  0  0  0  0  0  0  0  0
  -18.6491  -28.0484   20.9321 C   0  0  0  0  0  0  0  0  0  0  0  0
  -25.5347  -27.5829   23.4330 C   0  0  0  0  0  0  0  0  0  0  0  0
  -19.9888  -27.6159   20.9067 C   0  0  0  0  0  0  0  0  0  0  0  0
  -26.4238  -28.4823   22.8274 C   0  0  0  0  0  0  0  0  0  0  0  0
  -23.7642   -8.0599   22.6455 C   0  0  0  0  0  0  0  0  0  0  0  0
  -28.0025  -26.6670   22.4776 C   0  0  0  0  0  0  0  0  0  0  0  0
  -22.6557   -6.1454   23.4381 C   0  0  0  0  0  0  0  0  0  0  0  0
  -20.3382   -4.5967   23.5518 C   0  0  0  0  0  0  0  0  0  0  0  0
  -22.0471   -5.8902   24.6669 C   0  0  0  0  0  0  0  0  0  0  0  0
  -23.6335  -11.6199   20.3634 C   0  0  0  0  0  0  0  0  0  0  0  0
  -29.1107  -22.8623   19.2322 C   0  0  0  0  0  0  0  0  0  0  0  0
  -23.2931  -13.1116   18.7842 C   0  0  0  0  0  0  0  0  0  0  0  0
  -22.4510  -10.8262   18.2218 C   0  0  0  0  0  0  0  0  0  0  0  0
  -28.7616  -21.4407   19.2934 C   0  0  0  0  0  0  0  0  0  0  0  0
  -23.1969  -29.1323   21.9371 C   0  0  0  0  0  0  0  0  0  0  0  0
  -24.4639  -31.7073   23.4491 C   0  0  0  0  0  0  0  0  0  0  0  0
  -27.1808  -33.1556   24.9214 C   0  0  0  0  0  0  0  0  0  0  0  0
  -26.9497  -17.3478   18.7260 C   0  0  0  0  0  0  0  0  0  0  0  0
  -18.2718  -29.4792   20.6405 C   0  0  0  0  0  0  0  0  0  0  0  0
  -24.2186  -28.0643   23.9795 C   0  0  0  0  0  0  0  0  0  0  0  0
  -26.0903  -29.9427   22.6705 C   0  0  0  0  0  0  0  0  0  0  0  0
  -19.4410  -30.4536   20.7584 C   0  0  0  0  0  0  0  0  0  0  0  0
  -24.7948  -16.9434   21.7194 C   0  0  0  0  0  0  0  0  0  0  0  0
  -20.6691  -29.9033   20.0403 C   0  0  0  0  0  0  0  0  0  0  0  0
  -24.2928  -15.5105   21.5360 C   0  0  0  0  0  0  0  0  0  0  0  0
  -26.3632  -20.9778   18.7489 C   0  0  0  0  0  0  0  0  0  0  0  0
  -26.1869  -17.1135   21.1251 C   0  0  0  0  0  0  0  0  0  0  0  0
  -26.1885  -19.6651   19.5031 C   0  0  0  0  0  0  0  0  0  0  0  0
  -28.0438  -19.4456   17.9901 C   0  0  0  0  0  0  0  0  0  0  0  0
  -25.7911  -15.3083   19.4938 C   0  0  0  0  0  0  0  0  0  0  0  0
  -21.1290  -28.5818   20.6676 C   0  0  1  0  0  0  0  0  0  0  0  0
  -27.8070  -20.9256   18.2585 C   0  0  2  0  0  0  0  0  0  0  0  0
  -23.7345  -29.3533   23.3227 C   0  0  1  0  0  0  0  0  0  0  0  0
  -24.3802  -15.0742   20.0621 C   0  0  1  0  0  0  0  0  0  0  0  0
  -27.9211  -35.2816   26.0303 C   0  0  0  0  0  0  0  0  0  0  0  0
  -24.6353  -33.0668   20.7228 C   0  0  0  0  0  0  0  0  0  0  0  0
  -26.2100  -34.7324   21.7301 C   0  0  0  0  0  0  0  0  0  0  0  0
  -23.8730  -34.5534   22.5838 C   0  0  0  0  0  0  0  0  0  0  0  0
  -27.7818  -31.7586   27.4603 C   0  0  0  0  0  0  0  0  0  0  0  0
  -30.6476  -25.9605   20.0878 C   0  0  0  0  0  0  0  0  0  0  0  0
  -29.7474  -26.9032   20.8791 C   0  0  0  0  0  0  0  0  0  1  0  0
  -25.5318  -32.7222   23.1194 C   0  0  1  0  0  0  0  0  0  0  0  0
  -27.3393  -33.8921   26.2394 C   0  0  2  0  0  0  0  0  0  0  0  0
  -25.0683  -33.7409   22.0401 C   0  0  0  0  0  0  0  0  0  0  0  0
  -24.1477  -12.7505   20.8547 N   0  0  0  0  0  0  0  0  0  0  0  0
  -28.6115  -23.7189   18.2905 N   0  0  0  0  0  0  0  0  0  0  0  0
  -29.1270  -24.9219   18.5188 N   0  0  0  0  0  0  0  0  0  0  0  0
  -29.9340  -24.8137   19.5866 N   0  0  0  0  0  0  0  0  0  0  0  0
  -23.9256  -13.6391   19.8713 N   0  0  0  0  0  0  0  0  0  0  0  0
  -24.7890  -30.3636   23.2154 N   0  0  0  0  0  0  0  0  0  0  0  0
  -26.2200  -16.6896   19.7226 N   0  0  0  0  0  0  0  0  0  0  0  0
  -27.0955  -18.7302   18.8399 N   0  0  0  0  0  0  0  0  0  0  0  0
  -22.9929  -13.8662   17.7059 N   0  0  0  0  0  0  0  0  0  0  0  0
  -22.3217   -9.5072   18.6775 N   0  0  0  0  0  0  0  0  0  0  0  0
  -21.8490  -28.8301   21.8982 N   0  0  0  0  0  0  0  0  0  0  0  0
  -25.9220  -33.3306   24.3868 N   0  0  0  0  0  0  0  0  0  0  0  0
  -28.2446  -33.1357   27.1499 N   0  3  0  0  0  0  0  0  0  0  0  0
  -22.0247  -11.1261   17.0807 O   0  0  0  0  0  0  0  0  0  0  0  0
  -29.1915  -20.6543   20.1308 O   0  0  0  0  0  0  0  0  0  0  0  0
  -23.9488  -29.2303   20.9745 O   0  0  0  0  0  0  0  0  0  0  0  0
  -23.3839  -32.0921   23.9042 O   0  0  0  0  0  0  0  0  0  0  0  0
  -28.0847  -32.4945   24.4150 O   0  0  0  0  0  0  0  0  0  0  0  0
  -27.4077  -16.7352   17.7524 O   0  0  0  0  0  0  0  0  0  0  0  0
  -23.8057   -6.9147   23.3799 O   0  0  0  0  0  0  0  0  0  0  0  0
  -29.2090  -26.2214   22.0048 O   0  0  0  0  0  0  0  0  0  1  0  0
  -19.2246   -3.8543   23.6061 F   0  0  0  0  0  0  0  0  0  0  0  0
  -22.5703   -6.3872   25.7961 F   0  0  0  0  0  0  0  0  0  0  0  0
  1  2  1  0  0  0  0
  1  5  2  0  0  0  0
  2  6  2  0  0  0  0
  3  8  2  0  0  0  0
  3 16  1  0  0  0  0
  4  9  1  0  0  0  0
  4 16  2  0  0  0  0
  5 18  1  0  0  0  0
  6 20  1  0  0  0  0
  7 10  2  0  0  0  0
  7 19  1  0  0  0  0
  8 22  1  0  0  0  0
  9 22  2  0  0  0  0
 10 23  1  0  0  0  0
 11 12  2  0  0  0  0
 11 24  1  0  0  0  0
 12 25  1  0  0  0  0
 13 21  1  0  0  0  0
 13 23  2  0  0  0  0
 14 25  2  0  0  0  0
 14 26  1  0  0  0  0
 15 28  2  0  0  0  0
 15 65  1  0  0  0  0
 16 27  1  0  0  0  0
 17 27  1  0  0  0  0
 17 29  2  0  0  0  0
 17 30  1  0  0  0  0
 18 20  2  0  0  0  0
 18 36  1  0  0  0  0
 19 21  2  0  0  0  0
 19 37  1  0  0  0  0
 20 48  1  0  0  0  0
 21 38  1  0  0  0  0
 22 81  1  0  0  0  0
 23 82  1  0  0  0  0
 24 26  2  0  0  0  0
 24 81  1  0  0  0  0
 25 83  1  0  0  0  0
 26 84  1  0  0  0  0
 27 62  2  0  0  0  0
 28 31  1  0  0  0  0
 28 63  1  0  0  0  0
 29 66  1  0  0  0  0
 29 70  1  0  0  0  0
 30 71  1  0  0  0  0
 30 75  2  0  0  0  0
 31 49  1  0  0  0  0
 31 76  2  0  0  0  0
 32 50  1  0  0  0  0
 32 72  1  0  0  0  0
 32 77  2  0  0  0  0
 33 59  1  0  0  0  0
 33 67  1  0  0  0  0
 33 78  2  0  0  0  0
 34 60  1  0  0  0  0
 34 73  1  0  0  0  0
 34 79  2  0  0  0  0
 35 68  1  0  0  0  0
 35 69  1  0  0  0  0
 35 80  2  0  0  0  0
 36 39  1  0  0  0  0
 37 50  1  0  0  0  0
 38 67  1  0  0  0  0
 39 41  1  0  0  0  0
 40 42  1  0  0  0  0
 40 44  1  0  0  0  0
 41 48  1  0  0  0  0
 42 51  1  0  0  0  0
 43 45  1  0  0  0  0
 43 49  1  0  0  0  0
 44 68  1  0  0  0  0
 45 69  1  0  0  0  0
 46 49  1  0  0  0  0
 46 69  1  0  0  0  0
 47 51  1  0  0  0  0
 47 68  1  0  0  0  0
 48 72  1  0  0  0  0
 50 67  1  0  0  0  0
 51 66  1  0  0  0  0
 52 60  1  0  0  0  0
 53 61  1  0  0  0  0
 54 61  1  0  0  0  0
 55 61  1  0  0  0  0
 56 74  1  0  0  0  0
 57 58  1  0  0  0  0
 57 65  1  0  0  0  0
 58 82  1  0  0  0  0
 59 61  1  0  0  0  0
 59 73  1  0  0  0  0
 60 74  1  0  0  0  0
 62 66  1  0  0  0  0
 63 64  2  0  0  0  0
 64 65  1  0  0  0  0
M  CHG  1  74   1
M  ISO  4  35 100  58 101  69 100  82 101
M  END
> <Batch ID>
0199

> <Smiles>
CNC(C)C(=O)NC(C(=O)N1Cc2cc([101O:1][101CH2:1]Cn3cc(C(=O)C4CC[100N:0]([100C:0](=O)N5CCCC(n6nc(-c7ccc(Oc8ccc(F)cc8F)cc7)c(C(N)=O)c6N)C5)C4)nn3)ccc2CC1C(=O)NC1CCCc2ccccc21)C(C)(C)C

> <Shape>
0.286

> <Color>
0.094

> <Negative vol penalty>
0.000

$$$$

  -OEChem-04052323503D

 85 94  0     1  0  0  0  0  0999 V2000
  -28.4341  -37.1265   19.4884 C   0  0  0  0  0  0  0  0  0  0  0  0
  -28.7840  -35.7803   19.4606 C   0  0  0  0  0  0  0  0  0  0  0  0
  -24.3359  -10.6129   23.3424 C   0  0  0  0  0  0  0  0  0  0  0  0
  -24.2879  -12.4243   24.9404 C   0  0  0  0  0  0  0  0  0  0  0  0
  -27.4620  -37.5746   20.3818 C   0  0  0  0  0  0  0  0  0  0  0  0
  -28.1627  -34.8815   20.3270 C   0  0  0  0  0  0  0  0  0  0  0  0
  -26.7633  -29.0308   19.1798 C   0  0  0  0  0  0  0  0  0  0  0  0
  -23.8216   -9.7475   24.3079 C   0  0  0  0  0  0  0  0  0  0  0  0
  -23.7736  -11.5589   25.9059 C   0  0  0  0  0  0  0  0  0  0  0  0
  -27.4013  -27.8334   19.5009 C   0  0  0  0  0  0  0  0  0  0  0  0
  -20.8106   -9.0540   25.6811 C   0  0  0  0  0  0  0  0  0  0  0  0
  -19.7759   -8.1995   25.3006 C   0  0  0  0  0  0  0  0  0  0  0  0
  -25.9818  -27.6035   21.4378 C   0  0  0  0  0  0  0  0  0  0  0  0
  -21.1446   -6.2904   25.8656 C   0  0  0  0  0  0  0  0  0  0  0  0
  -30.6044  -22.6516   21.2594 C   0  0  0  0  0  0  0  0  0  0  0  0
  -24.5691  -11.9513   23.6586 C   0  0  0  0  0  0  0  0  0  0  0  0
  -24.3719  -13.6316   21.7494 C   0  0  0  0  0  0  0  0  0  0  0  0
  -26.8216  -36.6792   21.2530 C   0  0  0  0  0  0  0  0  0  0  0  0
  -25.7355  -29.5299   19.9927 C   0  0  0  0  0  0  0  0  0  0  0  0
  -27.1821  -35.3183   21.2339 C   0  0  0  0  0  0  0  0  0  0  0  0
  -25.3307  -28.8061   21.1234 C   0  0  0  0  0  0  0  0  0  0  0  0
  -23.5404  -10.2205   25.5896 C   0  0  0  0  0  0  0  0  0  0  0  0
  -27.0125  -27.1210   20.6316 C   0  0  0  0  0  0  0  0  0  0  0  0
  -22.0124   -8.5267   26.1538 C   0  0  0  0  0  0  0  0  0  0  0  0
  -19.9428   -6.8177   25.3929 C   0  0  0  0  0  0  0  0  0  0  0  0
  -22.1793   -7.1449   26.2461 C   0  0  0  0  0  0  0  0  0  0  0  0
  -25.1008  -12.8456   22.6619 C   0  0  0  0  0  0  0  0  0  0  0  0
  -29.3716  -22.0800   21.1167 C   0  0  0  0  0  0  0  0  0  0  0  0
  -25.3315  -14.2964   21.0258 C   0  0  0  0  0  0  0  0  0  0  0  0
  -29.2090  -24.2093   20.5336 C   0  0  0  0  0  0  0  0  0  0  0  0
  -22.9542  -13.7502   21.5717 C   0  0  0  0  0  0  0  0  0  0  0  0
  -25.3243  -32.1625   21.7259 C   0  0  0  0  0  0  0  0  0  0  0  0
  -22.3362  -30.9647   22.1244 C   0  0  0  0  0  0  0  0  0  0  0  0
  -20.2878  -28.2351   22.1438 C   0  0  0  0  0  0  0  0  0  0  0  0
  -30.0990  -17.1816   20.8145 C   0  0  0  0  0  0  0  0  0  0  0  0
  -25.8108  -37.2185   22.2339 C   0  0  0  0  0  0  0  0  0  0  0  0
  -25.0392  -30.8094   19.6178 C   0  0  0  0  0  0  0  0  0  0  0  0
  -24.2189  -29.2886   22.0176 C   0  0  0  0  0  0  0  0  0  0  0  0
  -24.9322  -36.1380   22.8590 C   0  0  0  0  0  0  0  0  0  0  0  0
  -30.3247  -13.6559   20.7794 C   0  0  0  0  0  0  0  0  0  0  0  0
  -25.7832  -34.9597   23.3219 C   0  0  0  0  0  0  0  0  0  0  0  0
  -28.9419  -13.1859   21.2221 C   0  0  0  0  0  0  0  0  0  0  0  0
  -29.1193  -20.1110   22.7926 C   0  0  0  0  0  0  0  0  0  0  0  0
  -30.7391  -14.9089   21.5391 C   0  0  0  0  0  0  0  0  0  0  0  0
  -28.9514  -18.6090   22.6061 C   0  0  0  0  0  0  0  0  0  0  0  0
  -29.6327  -19.5971   20.5320 C   0  0  0  0  0  0  0  0  0  0  0  0
  -28.3723  -15.6002   21.8048 C   0  0  0  0  0  0  0  0  0  0  0  0
  -26.5130  -34.3085   22.1409 C   0  0  1  0  0  0  0  0  0  0  0  0
  -28.9128  -20.6614   21.3722 C   0  0  2  0  0  0  0  0  0  0  0  0
  -24.3530  -31.4850   20.8011 C   0  0  1  0  0  0  0  0  0  0  0  0
  -27.9134  -14.3185   21.0792 C   0  0  2  0  0  0  0  0  0  0  0  0
  -17.9022  -27.5653   22.5404 C   0  0  0  0  0  0  0  0  0  0  0  0
  -24.7954  -22.7406   21.3514 C   0  0  0  0  0  0  0  0  0  0  0  0
  -22.7595  -31.2471   25.1329 C   0  0  0  0  0  0  0  0  0  0  0  0
  -20.8044  -29.7224   25.4807 C   0  0  0  0  0  0  0  0  0  0  0  0
  -20.4860  -31.9138   24.3321 C   0  0  0  0  0  0  0  0  0  0  0  0
  -19.9958  -27.2081   19.3836 C   0  0  0  0  0  0  0  0  0  0  0  0
  -28.6770  -25.5164   20.0743 C   0  0  0  0  0  0  0  0  0  1  0  0
  -27.1151  -22.9036   20.3781 C   0  0  0  0  0  0  0  0  0  0  0  0
  -21.6786  -30.0417   23.1217 C   0  0  1  0  0  0  0  0  0  0  0  0
  -18.9330  -27.9878   21.5053 C   0  0  2  0  0  0  0  0  0  0  0  0
  -26.2769  -22.8745   21.6545 C   0  0  1  0  0  0  0  0  0  0  0  0
  -21.4544  -30.7229   24.5013 C   0  0  0  0  0  0  0  0  0  0  0  0
  -26.4216  -12.9960   22.5318 N   0  0  0  0  0  0  0  0  0  0  0  0
  -28.5277  -23.0667   20.6669 N   0  0  0  0  0  0  0  0  0  0  0  0
  -26.5302  -13.8841   21.5290 N   0  0  0  0  0  0  0  0  0  0  0  0
  -30.4746  -23.9691   20.8915 N   0  3  0  0  0  0  0  0  0  0  0  0
  -23.5733  -30.5482   21.6125 N   0  0  0  0  0  0  0  0  0  0  0  0
  -29.7400  -15.9725   21.4203 N   0  0  0  0  0  0  0  0  0  0  0  0
  -29.4851  -18.3473   21.2710 N   0  0  0  0  0  0  0  0  0  0  0  0
  -25.2585  -15.1877   20.0144 N   0  0  0  0  0  0  0  0  0  0  0  0
  -22.1116  -12.9962   22.4000 N   0  0  0  0  0  0  0  0  0  0  0  0
  -25.6057  -33.4718   21.3853 N   0  0  0  0  0  0  0  0  0  0  0  0
  -20.4563  -29.5597   22.4876 N   0  0  0  0  0  0  0  0  0  0  0  0
  -19.0335  -26.9142   20.4766 N   0  3  0  0  0  0  0  0  0  0  0  0
  -22.4497  -14.4900   20.6933 O   0  0  0  0  0  0  0  0  0  0  0  0
  -25.7832  -31.5437   22.6788 O   0  0  0  0  0  0  0  0  0  0  0  0
  -21.7696  -32.0130   21.8056 O   0  0  0  0  0  0  0  0  0  0  0  0
  -21.1126  -27.3417   22.3234 O   0  0  0  0  0  0  0  0  0  0  0  0
  -30.9640  -17.2251   19.9291 O   0  0  0  0  0  0  0  0  0  0  0  0
  -23.0384   -9.3764   26.5320 O   0  0  0  0  0  0  0  0  0  0  0  0
  -27.6378  -25.9453   20.9496 O   0  0  0  0  0  0  0  0  0  1  0  0
  -18.9485   -5.9973   25.0289 F   0  0  0  0  0  0  0  0  0  0  0  0
  -23.3311   -6.6325   26.7007 F   0  0  0  0  0  0  0  0  0  0  0  0
  -26.4583  -24.0495   22.3223 F   0  0  0  0  0  0  0  0  0  0  0  0
  1  2  1  0  0  0  0
  1  5  2  0  0  0  0
  2  6  2  0  0  0  0
  3  8  2  0  0  0  0
  3 16  1  0  0  0  0
  4  9  1  0  0  0  0
  4 16  2  0  0  0  0
  5 18  1  0  0  0  0
  6 20  1  0  0  0  0
  7 10  2  0  0  0  0
  7 19  1  0  0  0  0
  8 22  1  0  0  0  0
  9 22  2  0  0  0  0
 10 23  1  0  0  0  0
 11 12  2  0  0  0  0
 11 24  1  0  0  0  0
 12 25  1  0  0  0  0
 13 21  1  0  0  0  0
 13 23  2  0  0  0  0
 14 25  2  0  0  0  0
 14 26  1  0  0  0  0
 15 28  2  0  0  0  0
 15 67  1  0  0  0  0
 16 27  1  0  0  0  0
 17 27  1  0  0  0  0
 17 29  2  0  0  0  0
 17 31  1  0  0  0  0
 18 20  2  0  0  0  0
 18 36  1  0  0  0  0
 19 21  2  0  0  0  0
 19 37  1  0  0  0  0
 20 48  1  0  0  0  0
 21 38  1  0  0  0  0
 22 81  1  0  0  0  0
 23 82  1  0  0  0  0
 24 26  2  0  0  0  0
 24 81  1  0  0  0  0
 25 83  1  0  0  0  0
 26 84  1  0  0  0  0
 27 64  2  0  0  0  0
 28 49  1  0  0  0  0
 28 65  1  0  0  0  0
 29 66  1  0  0  0  0
 29 71  1  0  0  0  0
 30 58  1  0  0  0  0
 30 65  1  0  0  0  0
 30 67  2  0  0  0  0
 31 72  1  0  0  0  0
 31 76  2  0  0  0  0
 32 50  1  0  0  0  0
 32 73  1  0  0  0  0
 32 77  2  0  0  0  0
 33 60  1  0  0  0  0
 33 68  1  0  0  0  0
 33 78  2  0  0  0  0
 34 61  1  0  0  0  0
 34 74  1  0  0  0  0
 34 79  2  0  0  0  0
 35 69  1  0  0  0  0
 35 70  1  0  0  0  0
 35 80  2  0  0  0  0
 36 39  1  0  0  0  0
 37 50  1  0  0  0  0
 38 68  1  0  0  0  0
 39 41  1  0  0  0  0
 40 42  1  0  0  0  0
 40 44  1  0  0  0  0
 41 48  1  0  0  0  0
 42 51  1  0  0  0  0
 43 45  1  0  0  0  0
 43 49  1  0  0  0  0
 44 69  1  0  0  0  0
 45 70  1  0  0  0  0
 46 49  1  0  0  0  0
 46 70  1  0  0  0  0
 47 51  1  0  0  0  0
 47 69  1  0  0  0  0
 48 73  1  0  0  0  0
 50 68  1  0  0  0  0
 51 66  1  0  0  0  0
 52 61  1  0  0  0  0
 53 62  1  0  0  0  0
 54 63  1  0  0  0  0
 55 63  1  0  0  0  0
 56 63  1  0  0  0  0
 57 75  1  0  0  0  0
 58 82  1  0  0  0  0
 59 62  1  0  0  0  0
 59 65  1  0  0  0  0
 60 63  1  0  0  0  0
 60 74  1  0  0  0  0
 61 75  1  0  0  0  0
 62 85  1  0  0  0  0
 64 66  1  0  0  0  0
M  CHG  2  67   1  75   1
M  ISO  4  35 100  58 101  70 100  82 101
M  END
> <Batch ID>
0199

> <Smiles>
CNC(C)C(=O)NC(C(=O)N1Cc2cc([101O:1][101CH2:1]c3ncc(C4CC[100N:0]([100C:0](=O)N5CCCC(n6nc(-c7ccc(Oc8ccc(F)cc8F)cc7)c(C(N)=O)c6N)C5)C4)n3CC(C)F)ccc2CC1C(=O)NC1CCCc2ccccc21)C(C)(C)C

> <Shape>
0.271

> <Color>
0.131

> <Negative vol penalty>
0.000

$$$$

  -OEChem-04052323503D

 84 93  0     1  0  0  0  0  0999 V2000
  -25.3016  -27.4322   11.1402 C   0  0  0  0  0  0  0  0  0  0  0  0
  -26.0084  -26.8572   12.1915 C   0  0  0  0  0  0  0  0  0  0  0  0
  -23.0608   -9.9085   19.9764 C   0  0  0  0  0  0  0  0  0  0  0  0
  -23.7943   -9.9670   22.2776 C   0  0  0  0  0  0  0  0  0  0  0  0
  -24.5886  -28.6128   11.3444 C   0  0  0  0  0  0  0  0  0  0  0  0
  -26.0034  -27.4630   13.4474 C   0  0  0  0  0  0  0  0  0  0  0  0
  -25.2915  -24.1421   17.2037 C   0  0  0  0  0  0  0  0  0  0  0  0
  -22.2885   -8.7799   20.2512 C   0  0  0  0  0  0  0  0  0  0  0  0
  -23.0220   -8.8384   22.5524 C   0  0  0  0  0  0  0  0  0  0  0  0
  -26.3876  -23.3710   17.5880 C   0  0  0  0  0  0  0  0  0  0  0  0
  -19.7702   -8.1301   23.1391 C   0  0  0  0  0  0  0  0  0  0  0  0
  -18.9992   -8.1417   24.3014 C   0  0  0  0  0  0  0  0  0  0  0  0
  -26.7614  -24.8461   19.4598 C   0  0  0  0  0  0  0  0  0  0  0  0
  -20.1885   -6.2002   25.1097 C   0  0  0  0  0  0  0  0  0  0  0  0
  -32.3032  -22.1235   20.3721 C   0  0  0  0  0  0  0  0  0  0  0  0
  -23.8137  -10.5020   20.9895 C   0  0  0  0  0  0  0  0  0  0  0  0
  -24.2132  -13.0143   20.7992 C   0  0  0  0  0  0  0  0  0  0  0  0
  -24.5670  -29.2283   12.6059 C   0  0  0  0  0  0  0  0  0  0  0  0
  -24.9281  -25.2792   17.9395 C   0  0  0  0  0  0  0  0  0  0  0  0
  -25.2905  -28.6537   13.6683 C   0  0  0  0  0  0  0  0  0  0  0  0
  -25.6587  -25.6285   19.0841 C   0  0  0  0  0  0  0  0  0  0  0  0
  -22.2691   -8.2449   21.5392 C   0  0  0  0  0  0  0  0  0  0  0  0
  -27.1245  -23.7245   18.7146 C   0  0  0  0  0  0  0  0  0  0  0  0
  -20.7503   -7.1535   22.9620 C   0  0  0  0  0  0  0  0  0  0  0  0
  -19.2083   -7.1768   25.2868 C   0  0  0  0  0  0  0  0  0  0  0  0
  -20.9595   -6.1886   23.9474 C   0  0  0  0  0  0  0  0  0  0  0  0
  -29.8626  -21.1962   20.9994 C   0  0  0  0  0  0  0  0  0  0  0  0
  -24.6121  -11.6675   20.7061 C   0  0  0  0  0  0  0  0  0  0  0  0
  -30.0586  -22.4630   20.4884 C   0  0  0  0  0  0  0  0  0  0  0  0
  -31.0027  -20.4370   21.1668 C   0  0  0  0  0  0  0  0  0  0  0  0
  -25.3259  -13.7285   20.4272 C   0  0  0  0  0  0  0  0  0  0  0  0
  -22.9498  -13.5702   21.1873 C   0  0  0  0  0  0  0  0  0  0  0  0
  -24.7287  -28.3886   17.3107 C   0  0  0  0  0  0  0  0  0  0  0  0
  -23.4568  -28.5130   20.2922 C   0  0  0  0  0  0  0  0  0  0  0  0
  -23.1678  -27.0896   23.3804 C   0  0  0  0  0  0  0  0  0  0  0  0
  -30.8285  -14.6319   20.6517 C   0  0  0  0  0  0  0  0  0  0  0  0
  -23.8206  -30.5290   12.7663 C   0  0  0  0  0  0  0  0  0  0  0  0
  -23.7270  -26.0852   17.5271 C   0  0  0  0  0  0  0  0  0  0  0  0
  -25.2976  -26.8283   19.9200 C   0  0  0  0  0  0  0  0  0  0  0  0
  -23.5602  -30.9062   14.2224 C   0  0  0  0  0  0  0  0  0  0  0  0
  -29.6653  -12.2030   18.3228 C   0  0  0  0  0  0  0  0  0  0  0  0
  -24.8266  -30.7297   15.0542 C   0  0  0  0  0  0  0  0  0  0  0  0
  -28.2168  -11.9539   18.7468 C   0  0  0  0  0  0  0  0  0  0  0  0
  -30.4749  -17.3817   23.1644 C   0  0  0  0  0  0  0  0  0  0  0  0
  -30.5734  -12.4393   19.5277 C   0  0  0  0  0  0  0  0  0  0  0  0
  -30.9408  -18.8359   23.0970 C   0  0  0  0  0  0  0  0  0  0  0  0
  -28.6727  -13.2529   20.8689 C   0  0  0  0  0  0  0  0  0  0  0  0
  -30.6679  -17.9688   20.8538 C   0  0  0  0  0  0  0  0  0  0  0  0
  -25.2891  -29.2677   15.0515 C   0  0  1  0  0  0  0  0  0  0  0  0
  -23.7578  -27.5162   18.0549 C   0  0  1  0  0  0  0  0  0  0  0  0
  -27.7084  -13.0648   19.6853 C   0  0  2  0  0  0  0  0  0  0  0  0
  -30.9282  -16.8164   21.8253 C   0  0  2  0  0  0  0  0  0  0  0  0
  -22.0904  -27.4426   25.6192 C   0  0  0  0  0  0  0  0  0  0  0  0
  -25.5401  -30.6410   20.9565 C   0  0  0  0  0  0  0  0  0  0  0  0
  -25.0521  -30.2618   23.3827 C   0  0  0  0  0  0  0  0  0  0  0  0
  -23.2558  -31.0973   21.8667 C   0  0  0  0  0  0  0  0  0  0  0  0
  -21.6199  -24.5766   23.1613 C   0  0  0  0  0  0  0  0  0  0  0  0
  -28.9051  -23.3940   20.2560 C   0  0  0  0  0  0  0  0  0  1  0  0
  -24.0118  -28.6916   21.6847 C   0  0  1  0  0  0  0  0  0  0  0  0
  -21.9553  -26.8009   24.2470 C   0  0  2  0  0  0  0  0  0  0  0  0
  -24.4732  -30.1514   21.9560 C   0  0  0  0  0  0  0  0  0  0  0  0
  -31.2696  -22.9608   20.1626 N   0  0  0  0  0  0  0  0  0  0  0  0
  -32.2435  -20.8706   20.8624 N   0  0  0  0  0  0  0  0  0  0  0  0
  -25.8792  -11.5315   20.3061 N   0  0  0  0  0  0  0  0  0  0  0  0
  -26.2861  -12.8021   20.1446 N   0  0  0  0  0  0  0  0  0  0  0  0
  -30.8861  -19.1600   21.6729 N   0  0  3  0  0  0  0  0  0  0  0  0
  -24.1187  -27.5881   19.4722 N   0  0  0  0  0  0  0  0  0  0  0  0
  -30.0358  -13.5056   20.3762 N   0  0  0  0  0  0  0  0  0  0  0  0
  -25.5668  -15.0522   20.3174 N   0  0  0  0  0  0  0  0  0  0  0  0
  -21.9141  -12.6939   21.5390 N   0  0  0  0  0  0  0  0  0  0  0  0
  -24.4784  -28.4794   15.9548 N   0  0  0  0  0  0  0  0  0  0  0  0
  -22.9820  -28.2106   22.5993 N   0  0  0  0  0  0  0  0  0  0  0  0
  -30.2406  -15.5983   21.4587 N   0  0  0  0  0  0  0  0  0  0  0  0
  -21.7873  -25.3315   24.4299 N   0  3  0  0  0  0  0  0  0  0  0  0
  -22.7405  -14.8069   21.2054 O   0  0  0  0  0  0  0  0  0  0  0  0
  -25.6367  -28.9398   17.9217 O   0  0  0  0  0  0  0  0  0  0  0  0
  -22.4679  -29.1647   19.9471 O   0  0  0  0  0  0  0  0  0  0  0  0
  -24.1799  -26.3927   23.3976 O   0  0  0  0  0  0  0  0  0  0  0  0
  -31.9732  -14.7688   20.2069 O   0  0  0  0  0  0  0  0  0  0  0  0
  -21.5155   -7.1438   21.8079 O   0  0  0  0  0  0  0  0  0  0  0  0
  -28.1952  -22.9740   19.0916 O   0  0  0  0  0  0  0  0  0  1  0  0
  -18.4689   -7.1889   26.4036 F   0  0  0  0  0  0  0  0  0  0  0  0
  -21.9004   -5.2486   23.7834 F   0  0  0  0  0  0  0  0  0  0  0  0
  -28.2916  -20.6140   21.3976 Cl  0  0  0  0  0  0  0  0  0  0  0  0
  1  2  1  0  0  0  0
  1  5  2  0  0  0  0
  2  6  2  0  0  0  0
  3  8  2  0  0  0  0
  3 16  1  0  0  0  0
  4  9  1  0  0  0  0
  4 16  2  0  0  0  0
  5 18  1  0  0  0  0
  6 20  1  0  0  0  0
  7 10  2  0  0  0  0
  7 19  1  0  0  0  0
  8 22  1  0  0  0  0
  9 22  2  0  0  0  0
 10 23  1  0  0  0  0
 11 12  2  0  0  0  0
 11 24  1  0  0  0  0
 12 25  1  0  0  0  0
 13 21  1  0  0  0  0
 13 23  2  0  0  0  0
 14 25  2  0  0  0  0
 14 26  1  0  0  0  0
 15 62  2  0  0  0  0
 15 63  1  0  0  0  0
 16 28  1  0  0  0  0
 17 28  1  0  0  0  0
 17 31  2  0  0  0  0
 17 32  1  0  0  0  0
 18 20  2  0  0  0  0
 18 37  1  0  0  0  0
 19 21  2  0  0  0  0
 19 38  1  0  0  0  0
 20 49  1  0  0  0  0
 21 39  1  0  0  0  0
 22 80  1  0  0  0  0
 23 81  1  0  0  0  0
 24 26  2  0  0  0  0
 24 80  1  0  0  0  0
 25 82  1  0  0  0  0
 26 83  1  0  0  0  0
 27 29  2  0  0  0  0
 27 30  1  0  0  0  0
 27 84  1  0  0  0  0
 28 64  2  0  0  0  0
 29 58  1  0  0  0  0
 29 62  1  0  0  0  0
 30 63  2  0  0  0  0
 30 66  1  0  0  0  0
 31 65  1  0  0  0  0
 31 69  1  0  0  0  0
 32 70  1  0  0  0  0
 32 75  2  0  0  0  0
 33 50  1  0  0  0  0
 33 71  1  0  0  0  0
 33 76  2  0  0  0  0
 34 59  1  0  0  0  0
 34 67  1  0  0  0  0
 34 77  2  0  0  0  0
 35 60  1  0  0  0  0
 35 72  1  0  0  0  0
 35 78  2  0  0  0  0
 36 68  1  0  0  0  0
 36 73  1  0  0  0  0
 36 79  2  0  0  0  0
 37 40  1  0  0  0  0
 38 50  1  0  0  0  0
 39 67  1  0  0  0  0
 40 42  1  0  0  0  0
 41 43  1  0  0  0  0
 41 45  1  0  0  0  0
 42 49  1  0  0  0  0
 43 51  1  0  0  0  0
 44 46  1  0  0  0  0
 44 52  1  0  0  0  0
 45 68  1  0  0  0  0
 46 66  1  0  0  0  0
 47 51  1  0  0  0  0
 47 68  1  0  0  0  0
 48 52  1  0  0  0  0
 48 66  1  0  0  0  0
 49 71  1  0  0  0  0
 50 67  1  0  0  0  0
 51 65  1  0  0  0  0
 52 73  1  0  0  0  0
 53 60  1  0  0  0  0
 54 61  1  0  0  0  0
 55 61  1  0  0  0  0
 56 61  1  0  0  0  0
 57 74  1  0  0  0  0
 58 81  1  0  0  0  0
 59 61  1  0  0  0  0
 59 72  1  0  0  0  0
 60 74  1  0  0  0  0
 64 65  1  0  0  0  0
M  CHG  1  74   1
M  ISO  4  36 100  58 101  73 100  81 101
M  END
> <Batch ID>
0199

> <Smiles>
CNC(C)C(=O)NC(C(=O)N1Cc2cc([101O:1][101CH2:1]c3ncnc(N4CCC([100NH:0][100C:0](=O)N5CCCC(n6nc(-c7ccc(Oc8ccc(F)cc8F)cc7)c(C(N)=O)c6N)C5)C4)c3Cl)ccc2CC1C(=O)NC1CCCc2ccccc21)C(C)(C)C

> <Shape>
0.281

> <Color>
0.197

> <Negative vol penalty>
0.000

$$$$

  -OEChem-04052323503D

 85 95  0     1  0  0  0  0  0999 V2000
  -29.0707  -33.7403   28.7209 C   0  0  0  0  0  0  0  0  0  0  0  0
  -28.6750  -33.1466   27.5266 C   0  0  0  0  0  0  0  0  0  0  0  0
  -23.0855   -9.8558   19.9480 C   0  0  0  0  0  0  0  0  0  0  0  0
  -23.8364   -9.8852   22.2442 C   0  0  0  0  0  0  0  0  0  0  0  0
  -29.8324  -33.0178   29.6384 C   0  0  0  0  0  0  0  0  0  0  0  0
  -29.0417  -31.8303   27.2486 C   0  0  0  0  0  0  0  0  0  0  0  0
  -25.7541  -27.6584   24.2001 C   0  0  0  0  0  0  0  0  0  0  0  0
  -22.3465   -8.7009   20.2045 C   0  0  0  0  0  0  0  0  0  0  0  0
  -23.0974   -8.7303   22.5007 C   0  0  0  0  0  0  0  0  0  0  0  0
  -25.7899  -27.2200   22.8771 C   0  0  0  0  0  0  0  0  0  0  0  0
  -19.8710   -7.9209   23.0971 C   0  0  0  0  0  0  0  0  0  0  0  0
  -19.1096   -7.8866   24.2654 C   0  0  0  0  0  0  0  0  0  0  0  0
  -27.1910  -25.3696   23.5345 C   0  0  0  0  0  0  0  0  0  0  0  0
  -20.3580   -5.9615   25.0223 C   0  0  0  0  0  0  0  0  0  0  0  0
  -28.8165  -21.5502   19.6859 C   0  0  0  0  0  0  0  0  0  0  0  0
  -23.8305  -10.4479   20.9679 C   0  0  0  0  0  0  0  0  0  0  0  0
  -24.1600  -12.9737   20.8288 C   0  0  0  0  0  0  0  0  0  0  0  0
  -30.2004  -31.6888   29.3758 C   0  0  0  0  0  0  0  0  0  0  0  0
  -26.4467  -26.9607   25.2001 C   0  0  0  0  0  0  0  0  0  0  0  0
  -29.8101  -31.0898   28.1629 C   0  0  0  0  0  0  0  0  0  0  0  0
  -27.1603  -25.7998   24.8699 C   0  0  0  0  0  0  0  0  0  0  0  0
  -22.3524   -8.1382   21.4807 C   0  0  0  0  0  0  0  0  0  0  0  0
  -26.5108  -26.0771   22.5437 C   0  0  0  0  0  0  0  0  0  0  0  0
  -20.8757   -6.9755   22.8914 C   0  0  0  0  0  0  0  0  0  0  0  0
  -19.3531   -6.9069   25.2280 C   0  0  0  0  0  0  0  0  0  0  0  0
  -21.1193   -5.9958   23.8540 C   0  0  0  0  0  0  0  0  0  0  0  0
  -24.5946  -11.6405   20.7035 C   0  0  0  0  0  0  0  0  0  0  0  0
  -28.5952  -22.5049   20.6538 C   0  0  0  0  0  0  0  0  0  0  0  0
  -29.7564  -20.1773   21.2547 C   0  0  0  0  0  0  0  0  0  0  0  0
  -29.5358  -21.1323   22.2227 C   0  0  0  0  0  0  0  0  0  0  0  0
  -25.2498  -13.7258   20.4637 C   0  0  0  0  0  0  0  0  0  0  0  0
  -22.8853  -13.4864   21.2386 C   0  0  0  0  0  0  0  0  0  0  0  0
  -28.8221  -27.6644   27.1915 C   0  0  0  0  0  0  0  0  0  0  0  0
  -28.1538  -24.7314   28.4054 C   0  0  0  0  0  0  0  0  0  0  0  0
  -26.8316  -21.6242   27.9119 C   0  0  0  0  0  0  0  0  0  0  0  0
  -30.7203  -14.7843   20.6474 C   0  0  0  0  0  0  0  0  0  0  0  0
  -31.0642  -30.9634   30.3769 C   0  0  0  0  0  0  0  0  0  0  0  0
  -26.3761  -27.4315   26.6270 C   0  0  0  0  0  0  0  0  0  0  0  0
  -27.9042  -25.0035   25.9096 C   0  0  0  0  0  0  0  0  0  0  0  0
  -31.0939  -29.4509   30.1730 C   0  0  0  0  0  0  0  0  0  0  0  0
  -29.6136  -12.3642   18.2958 C   0  0  0  0  0  0  0  0  0  0  0  0
  -31.3120  -29.1148   28.7012 C   0  0  0  0  0  0  0  0  0  0  0  0
  -28.1749  -12.0677   18.7227 C   0  0  0  0  0  0  0  0  0  0  0  0
  -26.6092  -23.7713   19.5918 C   0  0  0  0  0  0  0  0  0  0  0  0
  -30.5223  -12.6000   19.5003 C   0  0  0  0  0  0  0  0  0  0  0  0
  -28.6108  -13.3324   20.8701 C   0  0  0  0  0  0  0  0  0  0  0  0
  -29.8850  -18.0184   22.5407 C   0  0  0  0  0  0  0  0  0  0  0  0
  -30.9158  -18.0121   20.7085 C   0  0  0  0  0  0  0  0  0  0  0  0
  -30.1671  -29.6559   27.8363 C   0  0  1  0  0  0  0  0  0  0  0  0
  -27.9484  -23.7884   20.2911 C   0  0  1  0  0  0  0  0  0  0  0  0
  -27.5404  -26.9346   27.4784 C   0  0  1  0  0  0  0  0  0  0  0  0
  -27.6431  -13.1434   19.6891 C   0  0  2  0  0  0  0  0  0  0  0  0
  -30.7893  -16.9899   21.8469 C   0  0  0  0  0  0  0  0  0  0  0  0
  -26.6933  -24.2162   21.0199 C   0  0  1  0  0  0  0  0  0  1  0  0
  -26.4648  -19.4317   29.0764 C   0  0  0  0  0  0  0  0  0  0  0  0
  -31.1033  -24.0437   28.0345 C   0  0  0  0  0  0  0  0  0  0  0  0
  -30.5011  -21.6277   28.2971 C   0  0  0  0  0  0  0  0  0  0  0  0
  -30.1015  -23.2221   30.1736 C   0  0  0  0  0  0  0  0  0  0  0  0
  -23.8924  -21.8403   27.6421 C   0  0  0  0  0  0  0  0  0  0  0  0
  -28.6250  -23.3251   28.1239 C   0  0  1  0  0  0  0  0  0  0  0  0
  -25.8732  -20.7932   28.7458 C   0  0  2  0  0  0  0  0  0  0  0  0
  -30.0704  -23.0705   28.6371 C   0  0  0  0  0  0  0  0  0  0  0  0
  -29.4011  -20.3692   19.9689 N   0  0  0  0  0  0  0  0  0  0  0  0
  -25.8615  -11.5478   20.2909 N   0  0  0  0  0  0  0  0  0  0  0  0
  -28.9510  -22.3131   21.9396 N   0  0  0  0  0  0  0  0  0  0  0  0
  -26.2324  -12.8322   20.1537 N   0  0  0  0  0  0  0  0  0  0  0  0
  -30.3731  -18.9556   21.6059 N   0  0  0  0  0  0  0  0  0  0  0  0
  -27.8101  -25.5077   27.2896 N   0  0  0  0  0  0  0  0  0  0  0  0
  -29.9618  -13.6357   20.3720 N   0  0  0  0  0  0  0  0  0  0  0  0
  -25.4537  -15.0576   20.3807 N   0  0  0  0  0  0  0  0  0  0  0  0
  -21.8767  -12.5748   21.5793 N   0  0  0  0  0  0  0  0  0  0  0  0
  -29.0019  -28.8051   27.9503 N   0  0  0  0  0  0  0  0  0  0  0  0
  -27.6215  -22.4357   28.6985 N   0  0  0  0  0  0  0  0  0  0  0  0
  -30.1191  -15.7270   21.4749 N   0  0  0  0  0  0  0  0  0  0  0  0
  -24.5942  -20.5838   28.0102 N   0  3  0  0  0  0  0  0  0  0  0  0
  -22.6426  -14.7162   21.2850 O   0  0  0  0  0  0  0  0  0  0  0  0
  -29.5917  -27.2242   26.3456 O   0  0  0  0  0  0  0  0  0  0  0  0
  -28.0862  -25.1242   29.5728 O   0  0  0  0  0  0  0  0  0  0  0  0
  -26.8777  -21.5571   26.6855 O   0  0  0  0  0  0  0  0  0  0  0  0
  -31.8517  -14.9677   20.1852 O   0  0  0  0  0  0  0  0  0  0  0  0
  -21.6312   -7.0114   21.7314 O   0  0  0  0  0  0  0  0  0  0  0  0
  -26.5479  -25.6474   21.2530 O   0  0  0  0  0  0  0  0  0  1  0  0
  -18.6230   -6.8750   26.3505 F   0  0  0  0  0  0  0  0  0  0  0  0
  -22.0840   -5.0856   23.6625 F   0  0  0  0  0  0  0  0  0  0  0  0
  -29.9689  -20.9405   23.8729 Cl  0  0  0  0  0  0  0  0  0  0  0  0
  1  2  1  0  0  0  0
  1  5  2  0  0  0  0
  2  6  2  0  0  0  0
  3  8  2  0  0  0  0
  3 16  1  0  0  0  0
  4  9  1  0  0  0  0
  4 16  2  0  0  0  0
  5 18  1  0  0  0  0
  6 20  1  0  0  0  0
  7 10  2  0  0  0  0
  7 19  1  0  0  0  0
  8 22  1  0  0  0  0
  9 22  2  0  0  0  0
 10 23  1  0  0  0  0
 11 12  2  0  0  0  0
 11 24  1  0  0  0  0
 12 25  1  0  0  0  0
 13 21  1  0  0  0  0
 13 23  2  0  0  0  0
 14 25  2  0  0  0  0
 14 26  1  0  0  0  0
 15 28  1  0  0  0  0
 15 63  2  0  0  0  0
 16 27  1  0  0  0  0
 17 27  1  0  0  0  0
 17 31  2  0  0  0  0
 17 32  1  0  0  0  0
 18 20  2  0  0  0  0
 18 37  1  0  0  0  0
 19 21  2  0  0  0  0
 19 38  1  0  0  0  0
 20 49  1  0  0  0  0
 21 39  1  0  0  0  0
 22 81  1  0  0  0  0
 23 82  1  0  0  0  0
 24 26  2  0  0  0  0
 24 81  1  0  0  0  0
 25 83  1  0  0  0  0
 26 84  1  0  0  0  0
 27 64  2  0  0  0  0
 28 50  1  0  0  0  0
 28 65  2  0  0  0  0
 29 30  2  0  0  0  0
 29 63  1  0  0  0  0
 29 67  1  0  0  0  0
 30 65  1  0  0  0  0
 30 85  1  0  0  0  0
 31 66  1  0  0  0  0
 31 70  1  0  0  0  0
 32 71  1  0  0  0  0
 32 76  2  0  0  0  0
 33 51  1  0  0  0  0
 33 72  1  0  0  0  0
 33 77  2  0  0  0  0
 34 60  1  0  0  0  0
 34 68  1  0  0  0  0
 34 78  2  0  0  0  0
 35 61  1  0  0  0  0
 35 73  1  0  0  0  0
 35 79  2  0  0  0  0
 36 69  1  0  0  0  0
 36 74  1  0  0  0  0
 36 80  2  0  0  0  0
 37 40  1  0  0  0  0
 38 51  1  0  0  0  0
 39 68  1  0  0  0  0
 40 42  1  0  0  0  0
 41 43  1  0  0  0  0
 41 45  1  0  0  0  0
 42 49  1  0  0  0  0
 43 52  1  0  0  0  0
 44 50  1  0  0  0  0
 44 54  1  0  0  0  0
 45 69  1  0  0  0  0
 46 52  1  0  0  0  0
 46 69  1  0  0  0  0
 47 53  1  0  0  0  0
 47 67  1  0  0  0  0
 48 53  1  0  0  0  0
 48 67  1  0  0  0  0
 49 72  1  0  0  0  0
 50 54  1  0  0  0  0
 51 68  1  0  0  0  0
 52 66  1  0  0  0  0
 53 74  1  0  0  0  0
 54 82  1  0  0  0  0
 55 61  1  0  0  0  0
 56 62  1  0  0  0  0
 57 62  1  0  0  0  0
 58 62  1  0  0  0  0
 59 75  1  0  0  0  0
 60 62  1  0  0  0  0
 60 73  1  0  0  0  0
 61 75  1  0  0  0  0
 64 66  1  0  0  0  0
M  CHG  1  75   1
M  ISO  4  36 100  54 101  74 100  82 101
M  END
> <Batch ID>
0199

> <Smiles>
CNC(C)C(=O)NC(C(=O)N1Cc2cc([101O:1][101CH:1]3CC3c3cnc(N4CC([100NH:0][100C:0](=O)N5CCCC(n6nc(-c7ccc(Oc8ccc(F)cc8F)cc7)c(C(N)=O)c6N)C5)C4)c(Cl)n3)ccc2CC1C(=O)NC1CCCc2ccccc21)C(C)(C)C

> <Shape>
0.212

> <Color>
0.213

> <Negative vol penalty>
0.000

$$$$

  -OEChem-04052323503D

 85 94  0     1  0  0  0  0  0999 V2000
  -24.9368  -30.1554   17.3019 C   0  0  0  0  0  0  0  0  0  0  0  0
  -24.3303  -28.9123   17.4515 C   0  0  0  0  0  0  0  0  0  0  0  0
  -30.9052  -20.1369   19.5243 C   0  0  0  0  0  0  0  0  0  0  0  0
  -28.6893  -20.2918   20.4744 C   0  0  0  0  0  0  0  0  0  0  0  0
  -25.2322  -30.9255   18.4260 C   0  0  0  0  0  0  0  0  0  0  0  0
  -24.0199  -28.4381   18.7256 C   0  0  0  0  0  0  0  0  0  0  0  0
  -19.1935  -25.0150   20.3048 C   0  0  0  0  0  0  0  0  0  0  0  0
  -30.7868  -21.4380   19.0358 C   0  0  0  0  0  0  0  0  0  0  0  0
  -28.5708  -21.5930   19.9860 C   0  0  0  0  0  0  0  0  0  0  0  0
  -19.0425  -23.6442   20.5097 C   0  0  0  0  0  0  0  0  0  0  0  0
  -27.8263  -25.0847   19.2989 C   0  0  0  0  0  0  0  0  0  0  0  0
  -27.3093  -26.0556   20.1565 C   0  0  0  0  0  0  0  0  0  0  0  0
  -19.3570  -23.9700   22.8792 C   0  0  0  0  0  0  0  0  0  0  0  0
  -29.1220  -25.6552   21.7027 C   0  0  0  0  0  0  0  0  0  0  0  0
  -29.8565  -19.5638   20.2436 C   0  0  0  0  0  0  0  0  0  0  0  0
  -30.4868  -17.8240   21.9996 C   0  0  0  0  0  0  0  0  0  0  0  0
  -24.9164  -30.4647   19.7139 C   0  0  0  0  0  0  0  0  0  0  0  0
  -19.4385  -25.8736   21.3861 C   0  0  0  0  0  0  0  0  0  0  0  0
  -24.3125  -29.2022   19.8681 C   0  0  0  0  0  0  0  0  0  0  0  0
  -19.5081  -25.3515   22.6856 C   0  0  0  0  0  0  0  0  0  0  0  0
  -29.6196  -22.1661   19.2666 C   0  0  0  0  0  0  0  0  0  0  0  0
  -19.1271  -23.1211   21.7967 C   0  0  0  0  0  0  0  0  0  0  0  0
  -28.9912  -24.3989   19.6432 C   0  0  0  0  0  0  0  0  0  0  0  0
  -27.9571  -26.3409   21.3584 C   0  0  0  0  0  0  0  0  0  0  0  0
  -29.6391  -24.6842   20.8451 C   0  0  0  0  0  0  0  0  0  0  0  0
  -29.9780  -18.2196   20.7480 C   0  0  0  0  0  0  0  0  0  0  0  0
  -30.3873  -16.4541   21.9933 C   0  0  0  0  0  0  0  0  0  0  0  0
  -31.0030  -18.6233   23.0721 C   0  0  0  0  0  0  0  0  0  0  0  0
  -21.8117  -27.8206   22.2112 C   0  0  0  0  0  0  0  0  0  0  0  0
  -19.7793  -28.6524   24.5986 C   0  0  0  0  0  0  0  0  0  0  0  0
  -17.1294  -27.8040   26.5747 C   0  0  0  0  0  0  0  0  0  0  0  0
  -26.7114  -12.8716   18.7127 C   0  0  0  0  0  0  0  0  0  0  0  0
  -25.2980  -31.3120   20.9018 C   0  0  0  0  0  0  0  0  0  0  0  0
  -19.5724  -27.3533   21.1514 C   0  0  0  0  0  0  0  0  0  0  0  0
  -19.7494  -26.2333   23.8826 C   0  0  0  0  0  0  0  0  0  0  0  0
  -24.5961  -30.9010   22.1936 C   0  0  0  0  0  0  0  0  0  0  0  0
  -30.3722  -12.6998   19.0320 C   0  0  0  0  0  0  0  0  0  0  0  0
  -24.6575  -29.3879   22.3765 C   0  0  0  0  0  0  0  0  0  0  0  0
  -30.7307  -14.0887   19.5599 C   0  0  0  0  0  0  0  0  0  0  0  0
  -25.8657  -11.6718   21.6343 C   0  0  0  0  0  0  0  0  0  0  0  0
  -24.7239  -11.2452   20.6810 C   0  0  0  0  0  0  0  0  0  0  0  0
  -24.9829  -14.0090   21.6823 C   0  0  0  0  0  0  0  0  0  0  0  0
  -29.1161  -12.7270   18.1651 C   0  0  0  0  0  0  0  0  0  0  0  0
  -28.3010  -14.7383   19.3468 C   0  0  0  0  0  0  0  0  0  0  0  0
  -23.9379  -28.6642   21.2320 C   0  0  1  0  0  0  0  0  0  0  0  0
  -20.3308  -28.0687   22.2652 C   0  0  1  0  0  0  0  0  0  0  0  0
  -23.8171  -13.5758   20.7461 C   0  0  2  0  0  0  0  0  0  0  0  0
  -29.5277  -14.7342   20.2704 C   0  0  2  0  0  0  0  0  0  0  0  0
  -26.1453  -13.1259   21.2008 C   0  0  2  0  0  0  0  0  0  0  0  0
  -24.4951  -12.5179   19.8453 C   0  0  1  0  0  0  0  0  0  0  0  0
  -15.7203  -28.6734   28.4605 C   0  0  0  0  0  0  0  0  0  0  0  0
  -19.5536  -16.5437   21.4283 C   0  0  0  0  0  0  0  0  0  0  0  0
  -22.0343  -28.0425   26.5615 C   0  0  0  0  0  0  0  0  0  0  0  0
  -20.3318  -28.0009   28.3966 C   0  0  0  0  0  0  0  0  0  0  0  0
  -20.7117  -30.0963   27.0974 C   0  0  0  0  0  0  0  0  0  0  0  0
  -14.6694  -27.7147   24.9317 C   0  0  0  0  0  0  0  0  0  0  0  0
  -23.2707  -14.7510   19.9426 C   0  0  0  0  0  0  0  0  0  0  0  0
  -19.8835  -19.6071   21.5399 C   0  0  0  0  0  0  0  0  0  0  0  0
  -21.7529  -16.7243   20.1450 C   0  0  0  0  0  0  0  0  0  0  0  0
  -19.3905  -20.9167   20.9439 C   0  0  0  0  0  0  0  0  0  1  0  0
  -19.5168  -28.1570   26.0003 C   0  0  1  0  0  0  0  0  0  0  0  0
  -15.8698  -28.5631   26.9511 C   0  0  2  0  0  0  0  0  0  0  0  0
  -20.7484  -17.4194   21.0635 C   0  0  1  0  0  0  0  0  0  0  0  0
  -20.6460  -28.5571   26.9914 C   0  0  0  0  0  0  0  0  0  0  0  0
  -29.5847  -17.1847   20.0008 N   0  0  0  0  0  0  0  0  0  0  0  0
  -29.8465  -16.1252   20.7852 N   0  0  0  0  0  0  0  0  0  0  0  0
  -19.8799  -27.6724   23.6009 N   0  0  0  0  0  0  0  0  0  0  0  0
  -28.0067  -13.3852   18.8562 N   0  0  0  0  0  0  0  0  0  0  0  0
  -25.8483  -13.0365   19.7799 N   0  0  0  0  0  0  0  0  0  0  0  0
  -30.7108  -15.5108   22.9032 N   0  0  0  0  0  0  0  0  0  0  0  0
  -31.0330  -20.0155   22.9132 N   0  0  0  0  0  0  0  0  0  0  0  0
  -22.5042  -28.7189   21.4218 N   0  0  0  0  0  0  0  0  0  0  0  0
  -18.1953  -28.6539   26.3680 N   0  0  0  0  0  0  0  0  0  0  0  0
  -20.3057  -18.6728   20.4989 N   0  0  0  0  0  0  0  0  0  0  0  0
  -14.6664  -27.8710   26.4090 N   0  3  0  0  0  0  0  0  0  0  0  0
  -22.3244  -15.5072   20.7889 N   0  3  0  0  0  0  0  0  0  0  0  0
  -31.4403  -18.1170   24.1332 O   0  0  0  0  0  0  0  0  0  0  0  0
  -22.2909  -26.8846   22.8404 O   0  0  0  0  0  0  0  0  0  0  0  0
  -19.8838  -29.8645   24.3952 O   0  0  0  0  0  0  0  0  0  0  0  0
  -17.1651  -26.5793   26.4777 O   0  0  0  0  0  0  0  0  0  0  0  0
  -26.3501  -12.2864   17.6846 O   0  0  0  0  0  0  0  0  0  0  0  0
  -29.5037  -23.4358   18.7903 O   0  0  0  0  0  0  0  0  0  0  0  0
  -18.9798  -21.7739   22.0009 O   0  0  0  0  0  0  0  0  0  1  0  0
  -27.4613  -27.2744   22.1811 F   0  0  0  0  0  0  0  0  0  0  0  0
  -30.7592  -24.0296   21.1807 F   0  0  0  0  0  0  0  0  0  0  0  0
  1  2  1  0  0  0  0
  1  5  2  0  0  0  0
  2  6  2  0  0  0  0
  3  8  2  0  0  0  0
  3 15  1  0  0  0  0
  4  9  1  0  0  0  0
  4 15  2  0  0  0  0
  5 17  1  0  0  0  0
  6 19  1  0  0  0  0
  7 10  2  0  0  0  0
  7 18  1  0  0  0  0
  8 21  1  0  0  0  0
  9 21  2  0  0  0  0
 10 22  1  0  0  0  0
 11 12  2  0  0  0  0
 11 23  1  0  0  0  0
 12 24  1  0  0  0  0
 13 20  1  0  0  0  0
 13 22  2  0  0  0  0
 14 24  2  0  0  0  0
 14 25  1  0  0  0  0
 15 26  1  0  0  0  0
 16 26  1  0  0  0  0
 16 27  2  0  0  0  0
 16 28  1  0  0  0  0
 17 19  2  0  0  0  0
 17 33  1  0  0  0  0
 18 20  2  0  0  0  0
 18 34  1  0  0  0  0
 19 45  1  0  0  0  0
 20 35  1  0  0  0  0
 21 82  1  0  0  0  0
 22 83  1  0  0  0  0
 23 25  2  0  0  0  0
 23 82  1  0  0  0  0
 24 84  1  0  0  0  0
 25 85  1  0  0  0  0
 26 65  2  0  0  0  0
 27 66  1  0  0  0  0
 27 70  1  0  0  0  0
 28 71  1  0  0  0  0
 28 77  2  0  0  0  0
 29 46  1  0  0  0  0
 29 72  1  0  0  0  0
 29 78  2  0  0  0  0
 30 61  1  0  0  0  0
 30 67  1  0  0  0  0
 30 79  2  0  0  0  0
 31 62  1  0  0  0  0
 31 73  1  0  0  0  0
 31 80  2  0  0  0  0
 32 68  1  0  0  0  0
 32 69  1  0  0  0  0
 32 81  2  0  0  0  0
 33 36  1  0  0  0  0
 34 46  1  0  0  0  0
 35 67  1  0  0  0  0
 36 38  1  0  0  0  0
 37 39  1  0  0  0  0
 37 43  1  0  0  0  0
 38 45  1  0  0  0  0
 39 48  1  0  0  0  0
 40 41  1  0  0  0  0
 40 49  1  0  0  0  0
 41 50  1  0  0  0  0
 42 47  1  0  0  0  0
 42 49  1  0  0  0  0
 43 68  1  0  0  0  0
 44 48  1  0  0  0  0
 44 68  1  0  0  0  0
 45 72  1  0  0  0  0
 46 67  1  0  0  0  0
 47 50  1  0  0  0  0
 47 57  1  0  0  0  0
 48 66  1  0  0  0  0
 49 69  1  0  0  0  0
 50 69  1  0  0  0  0
 51 62  1  0  0  0  0
 52 63  1  0  0  0  0
 53 64  1  0  0  0  0
 54 64  1  0  0  0  0
 55 64  1  0  0  0  0
 56 75  1  0  0  0  0
 57 76  1  0  0  0  0
 58 60  1  0  0  0  0
 58 74  1  0  0  0  0
 59 63  1  0  0  0  0
 59 76  1  0  0  0  0
 60 83  1  0  0  0  0
 61 64  1  0  0  0  0
 61 73  1  0  0  0  0
 62 75  1  0  0  0  0
 63 74  1  0  0  0  0
 65 66  1  0  0  0  0
M  CHG  2  75   1  76   1
M  ISO  4  32 100  60 101  69 100  83 101
M  END
> <Batch ID>
0199

> <Smiles>
CNC(C)C(=O)NC(C(=O)N1Cc2cc([101O:1][101CH2:1]CNC(C)CNCC3CC4CCC3[100N:0]4[100C:0](=O)N3CCCC(n4nc(-c5ccc(Oc6ccc(F)cc6F)cc5)c(C(N)=O)c4N)C3)ccc2CC1C(=O)NC1CCCc2ccccc21)C(C)(C)C

> <Shape>
0.264

> <Color>
0.091

> <Negative vol penalty>
0.000

$$$$

  -OEChem-04052323503D

 86 95  0     1  0  0  0  0  0999 V2000
  -17.4689  -30.2298   24.1750 C   0  0  0  0  0  0  0  0  0  0  0  0
  -18.8260  -29.9365   24.2622 C   0  0  0  0  0  0  0  0  0  0  0  0
  -24.3093  -13.8908   21.6859 C   0  0  0  0  0  0  0  0  0  0  0  0
  -26.6654  -13.7229   21.1780 C   0  0  0  0  0  0  0  0  0  0  0  0
  -16.7017  -29.6762   23.1509 C   0  0  0  0  0  0  0  0  0  0  0  0
  -19.4165  -29.0887   23.3258 C   0  0  0  0  0  0  0  0  0  0  0  0
  -23.8522  -30.8514   21.6339 C   0  0  0  0  0  0  0  0  0  0  0  0
  -24.0852  -12.6699   21.0499 C   0  0  0  0  0  0  0  0  0  0  0  0
  -26.4412  -12.5018   20.5420 C   0  0  0  0  0  0  0  0  0  0  0  0
  -24.9597  -30.6922   22.4657 C   0  0  0  0  0  0  0  0  0  0  0  0
  -22.9480   -9.4229   19.8754 C   0  0  0  0  0  0  0  0  0  0  0  0
  -22.1240   -8.4988   20.5177 C   0  0  0  0  0  0  0  0  0  0  0  0
  -31.9041  -27.2359   21.0617 C   0  0  0  0  0  0  0  0  0  0  0  0
  -31.4078  -26.0824   20.4804 C   0  0  0  0  0  0  0  0  0  0  0  0
  -25.6483  -28.7761   21.1721 C   0  0  0  0  0  0  0  0  0  0  0  0
  -23.6360   -8.4601   22.4017 C   0  0  0  0  0  0  0  0  0  0  0  0
  -25.5995  -14.4174   21.7499 C   0  0  0  0  0  0  0  0  0  0  0  0
  -26.1393  -15.8867   23.7642 C   0  0  0  0  0  0  0  0  0  0  0  0
  -17.2851  -28.8289   22.1958 C   0  0  0  0  0  0  0  0  0  0  0  0
  -23.6282  -29.9661   20.5697 C   0  0  0  0  0  0  0  0  0  0  0  0
  -18.6561  -28.5222   22.2886 C   0  0  0  0  0  0  0  0  0  0  0  0
  -24.5387  -28.9278   20.3266 C   0  0  0  0  0  0  0  0  0  0  0  0
  -25.1511  -11.9753   20.4780 C   0  0  0  0  0  0  0  0  0  0  0  0
  -25.8564  -29.6527   22.2367 C   0  0  0  0  0  0  0  0  0  0  0  0
  -24.1161   -9.8656   20.4962 C   0  0  0  0  0  0  0  0  0  0  0  0
  -22.4680   -8.0174   21.7808 C   0  0  0  0  0  0  0  0  0  0  0  0
  -24.4600   -9.3843   21.7593 C   0  0  0  0  0  0  0  0  0  0  0  0
  -25.8316  -15.6789   22.4063 C   0  0  0  0  0  0  0  0  0  0  0  0
  -31.2533  -28.4242   20.7972 C   0  0  0  0  0  0  0  0  0  0  0  0
  -30.2934  -26.1934   19.6734 C   0  0  0  0  0  0  0  0  0  0  0  0
  -26.2631  -17.2494   23.8835 C   0  0  0  0  0  0  0  0  0  0  0  0
  -26.2991  -14.9332   24.8230 C   0  0  0  0  0  0  0  0  0  0  0  0
  -21.3250  -27.9125   19.8071 C   0  0  0  0  0  0  0  0  0  0  0  0
  -23.0319  -27.6175   17.0645 C   0  0  0  0  0  0  0  0  0  0  0  0
  -26.0406  -27.9044   15.4795 C   0  0  0  0  0  0  0  0  0  0  0  0
  -27.6827  -21.3401   19.7785 C   0  0  0  0  0  0  0  0  0  0  0  0
  -16.4054  -28.2167   21.1346 C   0  0  0  0  0  0  0  0  0  0  0  0
  -22.4433  -30.1675   19.6654 C   0  0  0  0  0  0  0  0  0  0  0  0
  -24.3544  -27.9625   19.1852 C   0  0  0  0  0  0  0  0  0  0  0  0
  -17.1855  -27.6261   19.9629 C   0  0  0  0  0  0  0  0  0  0  0  0
  -24.7186  -21.3408   21.9905 C   0  0  0  0  0  0  0  0  0  0  0  0
  -18.3486  -26.7788   20.4688 C   0  0  0  0  0  0  0  0  0  0  0  0
  -24.6740  -19.8774   22.4181 C   0  0  0  0  0  0  0  0  0  0  0  0
  -25.2475  -21.5085   20.5665 C   0  0  0  0  0  0  0  0  0  0  0  0
  -26.5276  -19.3936   20.7752 C   0  0  0  0  0  0  0  0  0  0  0  0
  -29.8730  -23.7133   19.6137 C   0  0  0  0  0  0  0  0  0  0  0  0
  -28.5150  -24.8616   18.4925 C   0  0  0  0  0  0  0  0  0  0  0  0
  -19.3381  -27.6266   21.2773 C   0  0  1  0  0  0  0  0  0  0  0  0
  -22.0354  -28.8985   18.9235 C   0  0  1  0  0  0  0  0  0  0  0  0
  -26.0459  -19.2150   22.2228 C   0  0  2  0  0  0  0  0  0  0  0  0
  -28.7113  -23.3503   18.6779 C   0  0  0  0  0  0  0  0  0  0  0  0
  -27.1322  -27.5555   13.2470 C   0  0  0  0  0  0  0  0  0  0  0  0
  -23.0479  -24.6046   17.5459 C   0  0  0  0  0  0  0  0  0  0  0  0
  -24.9009  -24.4173   15.8727 C   0  0  0  0  0  0  0  0  0  0  0  0
  -22.6685  -25.2790   15.1678 C   0  0  0  0  0  0  0  0  0  0  0  0
  -26.7623  -30.7659   15.2552 C   0  0  0  0  0  0  0  0  0  0  0  0
  -31.7497  -29.7044   21.4044 C   0  0  0  0  0  0  0  0  0  0  0  0
  -31.1309  -30.0239   22.7614 C   0  0  0  0  0  0  0  0  0  0  0  0
  -28.9591  -30.4688   23.9122 C   0  0  0  0  0  0  0  0  0  0  0  0
  -27.4814  -30.6724   23.6422 C   0  0  0  0  0  0  0  0  0  1  0  0
  -24.1626  -26.7322   16.5990 C   0  0  1  0  0  0  0  0  0  0  0  0
  -26.4264  -28.5467   14.1592 C   0  0  2  0  0  0  0  0  0  0  0  0
  -23.6977  -25.2751   16.3191 C   0  0  0  0  0  0  0  0  0  0  0  0
  -25.7638  -16.8183   21.7127 N   0  0  0  0  0  0  0  0  0  0  0  0
  -30.1645  -28.5034   20.0032 N   0  0  0  0  0  0  0  0  0  0  0  0
  -29.6765  -27.3695   19.4322 N   0  0  0  0  0  0  0  0  0  0  0  0
  -26.0306  -17.7553   22.6385 N   0  0  0  0  0  0  0  0  0  0  0  0
  -29.7888  -25.0143   19.0769 N   0  0  0  0  0  0  0  0  0  0  0  0
  -23.1772  -28.1972   18.3329 N   0  0  0  0  0  0  0  0  0  0  0  0
  -26.5260  -20.8057   20.3737 N   0  0  0  0  0  0  0  0  0  0  0  0
  -26.5469  -18.0523   24.9310 N   0  0  0  0  0  0  0  0  0  0  0  0
  -26.1376  -13.5729   24.5270 N   0  0  0  0  0  0  0  0  0  0  0  0
  -20.1753  -28.4077   20.3921 N   0  0  0  0  0  0  0  0  0  0  0  0
  -24.7572  -27.4013   15.4470 N   0  0  0  0  0  0  0  0  0  0  0  0
  -27.5842  -22.6540   19.3312 N   0  0  0  0  0  0  0  0  0  0  0  0
  -27.3379  -29.7025   14.3922 N   0  3  0  0  0  0  0  0  0  0  0  0
  -29.6608  -30.2119   22.6293 N   0  3  0  0  0  0  0  0  0  0  0  0
  -26.5608  -15.2786   26.0002 O   0  0  0  0  0  0  0  0  0  0  0  0
  -21.7852  -26.7853   19.9467 O   0  0  0  0  0  0  0  0  0  0  0  0
  -22.0591  -27.7941   16.3270 O   0  0  0  0  0  0  0  0  0  0  0  0
  -26.8029  -27.8508   16.4421 O   0  0  0  0  0  0  0  0  0  0  0  0
  -28.7290  -20.6960   19.6455 O   0  0  0  0  0  0  0  0  0  0  0  0
  -24.9327  -10.7837   19.8575 O   0  0  0  0  0  0  0  0  0  0  0  0
  -26.9378  -29.4946   23.0475 O   0  0  0  0  0  0  0  0  0  1  0  0
  -21.6758   -7.1312   22.3982 F   0  0  0  0  0  0  0  0  0  0  0  0
  -25.5803   -9.8068   22.3613 F   0  0  0  0  0  0  0  0  0  0  0  0
  1  2  1  0  0  0  0
  1  5  2  0  0  0  0
  2  6  2  0  0  0  0
  3  8  2  0  0  0  0
  3 17  1  0  0  0  0
  4  9  1  0  0  0  0
  4 17  2  0  0  0  0
  5 19  1  0  0  0  0
  6 21  1  0  0  0  0
  7 10  2  0  0  0  0
  7 20  1  0  0  0  0
  8 23  1  0  0  0  0
  9 23  2  0  0  0  0
 10 24  1  0  0  0  0
 11 12  2  0  0  0  0
 11 25  1  0  0  0  0
 12 26  1  0  0  0  0
 13 14  2  0  0  0  0
 13 29  1  0  0  0  0
 14 30  1  0  0  0  0
 15 22  1  0  0  0  0
 15 24  2  0  0  0  0
 16 26  2  0  0  0  0
 16 27  1  0  0  0  0
 17 28  1  0  0  0  0
 18 28  1  0  0  0  0
 18 31  2  0  0  0  0
 18 32  1  0  0  0  0
 19 21  2  0  0  0  0
 19 37  1  0  0  0  0
 20 22  2  0  0  0  0
 20 38  1  0  0  0  0
 21 48  1  0  0  0  0
 22 39  1  0  0  0  0
 23 83  1  0  0  0  0
 24 84  1  0  0  0  0
 25 27  2  0  0  0  0
 25 83  1  0  0  0  0
 26 85  1  0  0  0  0
 27 86  1  0  0  0  0
 28 64  2  0  0  0  0
 29 57  1  0  0  0  0
 29 65  2  0  0  0  0
 30 66  2  0  0  0  0
 30 68  1  0  0  0  0
 31 67  1  0  0  0  0
 31 71  1  0  0  0  0
 32 72  1  0  0  0  0
 32 78  2  0  0  0  0
 33 49  1  0  0  0  0
 33 73  1  0  0  0  0
 33 79  2  0  0  0  0
 34 61  1  0  0  0  0
 34 69  1  0  0  0  0
 34 80  2  0  0  0  0
 35 62  1  0  0  0  0
 35 74  1  0  0  0  0
 35 81  2  0  0  0  0
 36 70  1  0  0  0  0
 36 75  1  0  0  0  0
 36 82  2  0  0  0  0
 37 40  1  0  0  0  0
 38 49  1  0  0  0  0
 39 69  1  0  0  0  0
 40 42  1  0  0  0  0
 41 43  1  0  0  0  0
 41 44  1  0  0  0  0
 42 48  1  0  0  0  0
 43 50  1  0  0  0  0
 44 70  1  0  0  0  0
 45 50  1  0  0  0  0
 45 70  1  0  0  0  0
 46 51  1  0  0  0  0
 46 68  1  0  0  0  0
 47 51  1  0  0  0  0
 47 68  1  0  0  0  0
 48 73  1  0  0  0  0
 49 69  1  0  0  0  0
 50 67  1  0  0  0  0
 51 75  1  0  0  0  0
 52 62  1  0  0  0  0
 53 63  1  0  0  0  0
 54 63  1  0  0  0  0
 55 63  1  0  0  0  0
 56 76  1  0  0  0  0
 57 58  1  0  0  0  0
 58 77  1  0  0  0  0
 59 60  1  0  0  0  0
 59 77  1  0  0  0  0
 60 84  1  0  0  0  0
 61 63  1  0  0  0  0
 61 74  1  0  0  0  0
 62 76  1  0  0  0  0
 64 67  1  0  0  0  0
 65 66  1  0  0  0  0
M  CHG  2  76   1  77   1
M  ISO  4  36 100  60 101  75 100  84 101
M  END
> <Batch ID>
0199

> <Smiles>
CNC(C)C(=O)NC(C(=O)N1Cc2cc([101O:1][101CH2:1]CNCCc3ccc(N4CC([100NH:0][100C:0](=O)N5CCCC(n6nc(-c7ccc(Oc8ccc(F)cc8F)cc7)c(C(N)=O)c6N)C5)C4)nn3)ccc2CC1C(=O)NC1CCCc2ccccc21)C(C)(C)C

> <Shape>
0.246

> <Color>
0.072

> <Negative vol penalty>
0.000

$$$$

  -OEChem-04052323503D

 86 96  0     1  0  0  0  0  0999 V2000
  -31.7328  -20.6492   31.5439 C   0  0  0  0  0  0  0  0  0  0  0  0
  -32.2169  -20.8707   30.2586 C   0  0  0  0  0  0  0  0  0  0  0  0
  -23.0942   -9.8608   19.9410 C   0  0  0  0  0  0  0  0  0  0  0  0
  -23.7021   -9.9579   22.2773 C   0  0  0  0  0  0  0  0  0  0  0  0
  -30.4211  -20.9977   31.8632 C   0  0  0  0  0  0  0  0  0  0  0  0
  -31.3891  -21.4399   29.2915 C   0  0  0  0  0  0  0  0  0  0  0  0
  -33.0560  -25.2621   24.8062 C   0  0  0  0  0  0  0  0  0  0  0  0
  -22.3394   -8.7135   20.1850 C   0  0  0  0  0  0  0  0  0  0  0  0
  -22.9472   -8.8106   22.5213 C   0  0  0  0  0  0  0  0  0  0  0  0
  -33.3362  -25.0581   23.4557 C   0  0  0  0  0  0  0  0  0  0  0  0
  -23.2850   -5.4718   22.1098 C   0  0  0  0  0  0  0  0  0  0  0  0
  -23.8555   -4.4776   22.9046 C   0  0  0  0  0  0  0  0  0  0  0  0
  -31.0733  -25.6811   22.8983 C   0  0  0  0  0  0  0  0  0  0  0  0
  -22.0453   -4.7051   24.4884 C   0  0  0  0  0  0  0  0  0  0  0  0
  -23.7756  -10.4829   20.9871 C   0  0  0  0  0  0  0  0  0  0  0  0
  -24.1162  -13.0038   20.7946 C   0  0  0  0  0  0  0  0  0  0  0  0
  -29.5799  -21.5804   30.9022 C   0  0  0  0  0  0  0  0  0  0  0  0
  -31.7771  -25.6673   25.2144 C   0  0  0  0  0  0  0  0  0  0  0  0
  -30.0645  -21.7953   29.5979 C   0  0  0  0  0  0  0  0  0  0  0  0
  -30.7802  -25.8920   24.2543 C   0  0  0  0  0  0  0  0  0  0  0  0
  -22.2658   -8.1884   21.4752 C   0  0  0  0  0  0  0  0  0  0  0  0
  -32.3440  -25.2648   22.5018 C   0  0  0  0  0  0  0  0  0  0  0  0
  -22.0947   -6.0827   22.5043 C   0  0  0  0  0  0  0  0  0  0  0  0
  -23.2357   -4.0943   24.0939 C   0  0  0  0  0  0  0  0  0  0  0  0
  -21.4748   -5.6993   23.6936 C   0  0  0  0  0  0  0  0  0  0  0  0
  -24.5560  -11.6678   20.7355 C   0  0  0  0  0  0  0  0  0  0  0  0
  -25.2273  -13.7454   20.4756 C   0  0  0  0  0  0  0  0  0  0  0  0
  -22.8193  -13.5275   21.1098 C   0  0  0  0  0  0  0  0  0  0  0  0
  -29.5054  -24.4116   27.0492 C   0  0  0  0  0  0  0  0  0  0  0  0
  -28.0764  -27.2845   26.5735 C   0  0  0  0  0  0  0  0  0  0  0  0
  -27.7433  -30.0677   24.6268 C   0  0  0  0  0  0  0  0  0  0  0  0
  -30.5893  -14.7586   21.2805 C   0  0  0  0  0  0  0  0  0  0  0  0
  -28.1547  -21.8968   31.2811 C   0  0  0  0  0  0  0  0  0  0  0  0
  -31.4985  -25.9088   26.6727 C   0  0  0  0  0  0  0  0  0  0  0  0
  -29.3969  -26.3468   24.6390 C   0  0  0  0  0  0  0  0  0  0  0  0
  -27.4594  -22.8400   30.3028 C   0  0  0  0  0  0  0  0  0  0  0  0
  -29.6977  -12.3664   18.6045 C   0  0  0  0  0  0  0  0  0  0  0  0
  -27.7094  -22.3966   28.8648 C   0  0  0  0  0  0  0  0  0  0  0  0
  -35.3467  -20.1415   19.0168 C   0  0  0  0  0  0  0  0  0  0  0  0
  -28.2538  -12.0414   18.9735 C   0  0  0  0  0  0  0  0  0  0  0  0
  -35.8041  -18.8338   19.6979 C   0  0  0  0  0  0  0  0  0  0  0  0
  -30.9977  -23.3021   18.2709 C   0  0  0  0  0  0  0  0  0  0  0  0
  -30.5595  -12.6385   19.8369 C   0  0  0  0  0  0  0  0  0  0  0  0
  -28.5523  -13.3676   21.0998 C   0  0  0  0  0  0  0  0  0  0  0  0
  -31.6793  -22.1817   17.5024 C   0  0  0  0  0  0  0  0  0  0  0  0
  -32.7317  -22.5235   19.6818 C   0  0  0  0  0  0  0  0  0  0  0  0
  -32.4125  -17.3796   20.8558 C   0  0  0  0  0  0  0  0  0  0  0  0
  -34.1094  -16.1720   20.7967 C   0  0  0  0  0  0  0  0  0  0  0  0
  -29.2050  -22.4334   28.5282 C   0  0  1  0  0  0  0  0  0  0  0  0
  -30.0153  -25.8247   27.0196 C   0  0  1  0  0  0  0  0  0  0  0  0
  -33.9268  -19.8502   19.5700 C   0  0  2  0  0  0  0  0  0  0  0  0
  -32.0779  -23.8125   19.2143 C   0  0  2  0  0  0  0  0  0  0  0  0
  -27.6635  -13.1421   19.8675 C   0  0  2  0  0  0  0  0  0  0  0  0
  -32.7365  -16.0075   21.4685 C   0  0  0  0  0  0  0  0  0  0  0  0
  -34.3399  -18.3528   19.5922 C   0  0  2  0  0  0  0  0  0  0  0  0
  -26.4705  -32.2251   24.4757 C   0  0  0  0  0  0  0  0  0  0  0  0
  -25.6088  -25.7596   25.6271 C   0  0  0  0  0  0  0  0  0  0  0  0
  -24.7646  -27.8902   24.6191 C   0  0  0  0  0  0  0  0  0  0  0  0
  -25.1205  -27.7335   27.0831 C   0  0  0  0  0  0  0  0  0  0  0  0
  -30.2229  -31.6759   24.7821 C   0  0  0  0  0  0  0  0  0  0  0  0
  -32.7672  -20.2160   18.6695 C   0  0  0  0  0  0  0  0  0  0  0  0
  -31.5318  -24.6456   20.3541 C   0  0  0  0  0  0  0  0  0  1  0  0
  -27.1247  -27.8481   25.5461 C   0  0  1  0  0  0  0  0  0  0  0  0
  -27.7360  -31.5453   24.9747 C   0  0  2  0  0  0  0  0  0  0  0  0
  -25.6801  -27.2974   25.7114 C   0  0  0  0  0  0  0  0  0  0  0  0
  -25.8459  -11.5637   20.4048 N   0  0  0  0  0  0  0  0  0  0  0  0
  -26.2261  -12.8437   20.2531 N   0  0  0  0  0  0  0  0  0  0  0  0
  -29.1717  -26.5633   26.0777 N   0  0  0  0  0  0  0  0  0  0  0  0
  -29.9443  -13.6408   20.7215 N   0  0  0  0  0  0  0  0  0  0  0  0
  -25.4377  -15.0744   20.3664 N   0  0  0  0  0  0  0  0  0  0  0  0
  -21.7904  -12.6258   21.4142 N   0  0  0  0  0  0  0  0  0  0  0  0
  -29.6335  -23.7929   28.2782 N   0  0  0  0  0  0  0  0  0  0  0  0
  -27.2261  -29.2998   25.6487 N   0  0  0  0  0  0  0  0  0  0  0  0
  -31.9352  -14.9066   20.9600 N   0  0  0  0  0  0  0  0  0  0  0  0
  -33.8710  -17.6348   20.7890 N   0  3  0  0  0  0  0  0  0  0  0  0
  -32.7837  -21.6897   18.4198 N   0  3  1  0  0  0  0  0  0  0  0  0
  -28.9097  -32.2279   24.3603 N   0  3  0  0  0  0  0  0  0  0  0  0
  -22.5757  -14.7581   21.1052 O   0  0  0  0  0  0  0  0  0  0  0  0
  -29.0297  -23.9195   26.0328 O   0  0  0  0  0  0  0  0  0  0  0  0
  -27.8599  -27.4832   27.7716 O   0  0  0  0  0  0  0  0  0  0  0  0
  -28.1621  -29.6380   23.5542 O   0  0  0  0  0  0  0  0  0  0  0  0
  -30.0151  -15.5664   22.0187 O   0  0  0  0  0  0  0  0  0  0  0  0
  -21.5292   -7.0691   21.7138 O   0  0  0  0  0  0  0  0  0  0  0  0
  -32.6146  -25.0658   21.1831 O   0  0  0  0  0  0  0  0  0  1  0  0
  -23.7828   -3.1384   24.8563 F   0  0  0  0  0  0  0  0  0  0  0  0
  -20.3305   -6.2818   24.0773 F   0  0  0  0  0  0  0  0  0  0  0  0
  1  2  1  0  0  0  0
  1  5  2  0  0  0  0
  2  6  2  0  0  0  0
  3  8  2  0  0  0  0
  3 15  1  0  0  0  0
  4  9  1  0  0  0  0
  4 15  2  0  0  0  0
  5 17  1  0  0  0  0
  6 19  1  0  0  0  0
  7 10  2  0  0  0  0
  7 18  1  0  0  0  0
  8 21  1  0  0  0  0
  9 21  2  0  0  0  0
 10 22  1  0  0  0  0
 11 12  2  0  0  0  0
 11 23  1  0  0  0  0
 12 24  1  0  0  0  0
 13 20  1  0  0  0  0
 13 22  2  0  0  0  0
 14 24  2  0  0  0  0
 14 25  1  0  0  0  0
 15 26  1  0  0  0  0
 16 26  1  0  0  0  0
 16 27  2  0  0  0  0
 16 28  1  0  0  0  0
 17 19  2  0  0  0  0
 17 33  1  0  0  0  0
 18 20  2  0  0  0  0
 18 34  1  0  0  0  0
 19 49  1  0  0  0  0
 20 35  1  0  0  0  0
 21 83  1  0  0  0  0
 22 84  1  0  0  0  0
 23 25  2  0  0  0  0
 23 83  1  0  0  0  0
 24 85  1  0  0  0  0
 25 86  1  0  0  0  0
 26 66  2  0  0  0  0
 27 67  1  0  0  0  0
 27 70  1  0  0  0  0
 28 71  1  0  0  0  0
 28 78  2  0  0  0  0
 29 50  1  0  0  0  0
 29 72  1  0  0  0  0
 29 79  2  0  0  0  0
 30 63  1  0  0  0  0
 30 68  1  0  0  0  0
 30 80  2  0  0  0  0
 31 64  1  0  0  0  0
 31 73  1  0  0  0  0
 31 81  2  0  0  0  0
 32 69  1  0  0  0  0
 32 74  1  0  0  0  0
 32 82  2  0  0  0  0
 33 36  1  0  0  0  0
 34 50  1  0  0  0  0
 35 68  1  0  0  0  0
 36 38  1  0  0  0  0
 37 40  1  0  0  0  0
 37 43  1  0  0  0  0
 38 49  1  0  0  0  0
 39 41  1  0  0  0  0
 39 51  1  0  0  0  0
 40 53  1  0  0  0  0
 41 55  1  0  0  0  0
 42 45  1  0  0  0  0
 42 52  1  0  0  0  0
 43 69  1  0  0  0  0
 44 53  1  0  0  0  0
 44 69  1  0  0  0  0
 45 76  1  0  0  0  0
 46 52  1  0  0  0  0
 46 76  1  0  0  0  0
 47 54  1  0  0  0  0
 47 75  1  0  0  0  0
 48 54  1  0  0  0  0
 48 75  1  0  0  0  0
 49 72  1  0  0  0  0
 50 68  1  0  0  0  0
 51 55  1  0  0  0  0
 51 61  1  0  0  0  0
 52 62  1  0  0  0  0
 53 67  1  0  0  0  0
 54 74  1  0  0  0  0
 55 75  1  0  0  0  0
 56 64  1  0  0  0  0
 57 65  1  0  0  0  0
 58 65  1  0  0  0  0
 59 65  1  0  0  0  0
 60 77  1  0  0  0  0
 61 76  1  0  0  0  0
 62 84  1  0  0  0  0
 63 65  1  0  0  0  0
 63 73  1  0  0  0  0
 64 77  1  0  0  0  0
 66 67  1  0  0  0  0
M  CHG  3  75   1  76   1  77   1
M  ISO  4  32 100  62 101  74 100  84 101
M  END
> <Batch ID>
0199

> <Smiles>
CNC(C)C(=O)NC(C(=O)N1Cc2cc([101O:1][101CH2:1]C3CCN(CC4CCC4N4CC([100NH:0][100C:0](=O)N5CCCC(n6nc(-c7ccc(Oc8ccc(F)cc8F)cc7)c(C(N)=O)c6N)C5)C4)C3)ccc2CC1C(=O)NC1CCCc2ccccc21)C(C)(C)C

> <Shape>
0.206

> <Color>
0.162

> <Negative vol penalty>
0.000

$$$$

  -OEChem-04052323503D

 82 91  0     1  0  0  0  0  0999 V2000
  -24.1821  -34.2555   27.5448 C   0  0  0  0  0  0  0  0  0  0  0  0
  -25.1177  -33.5287   26.8155 C   0  0  0  0  0  0  0  0  0  0  0  0
  -26.5072  -12.4380   21.7194 C   0  0  0  0  0  0  0  0  0  0  0  0
  -25.9867  -13.6695   19.7071 C   0  0  0  0  0  0  0  0  0  0  0  0
  -22.8591  -33.8202   27.6090 C   0  0  0  0  0  0  0  0  0  0  0  0
  -24.7310  -32.3655   26.1507 C   0  0  0  0  0  0  0  0  0  0  0  0
  -26.8822  -30.2921   20.8048 C   0  0  0  0  0  0  0  0  0  0  0  0
  -25.2333  -11.8700   21.7013 C   0  0  0  0  0  0  0  0  0  0  0  0
  -24.7128  -13.1015   19.6890 C   0  0  0  0  0  0  0  0  0  0  0  0
  -27.8408  -29.3302   20.4891 C   0  0  0  0  0  0  0  0  0  0  0  0
  -23.6371   -9.3849   20.0554 C   0  0  0  0  0  0  0  0  0  0  0  0
  -23.5354   -8.0135   20.2892 C   0  0  0  0  0  0  0  0  0  0  0  0
  -26.0946  -27.6884   20.2157 C   0  0  0  0  0  0  0  0  0  0  0  0
  -22.1430   -8.4452   22.2158 C   0  0  0  0  0  0  0  0  0  0  0  0
  -31.8750  -25.3355   17.8962 C   0  0  0  0  0  0  0  0  0  0  0  0
  -26.8839  -13.3377   20.7223 C   0  0  0  0  0  0  0  0  0  0  0  0
  -29.3640  -13.4214   20.1310 C   0  0  0  0  0  0  0  0  0  0  0  0
  -22.4539  -32.6564   26.9368 C   0  0  0  0  0  0  0  0  0  0  0  0
  -25.5211  -29.9561   20.8391 C   0  0  0  0  0  0  0  0  0  0  0  0
  -23.4016  -31.9135   26.2071 C   0  0  0  0  0  0  0  0  0  0  0  0
  -25.1205  -28.6485   20.5297 C   0  0  0  0  0  0  0  0  0  0  0  0
  -24.3361  -12.2018   20.6861 C   0  0  0  0  0  0  0  0  0  0  0  0
  -27.4473  -28.0275   20.1973 C   0  0  0  0  0  0  0  0  0  0  0  0
  -22.9918  -10.2864   20.9019 C   0  0  0  0  0  0  0  0  0  0  0  0
  -22.7883   -7.5437   21.3693 C   0  0  0  0  0  0  0  0  0  0  0  0
  -22.2447   -9.8166   21.9820 C   0  0  0  0  0  0  0  0  0  0  0  0
  -30.8695  -25.3179   20.3859 C   0  0  0  0  0  0  0  0  0  0  0  0
  -28.1994  -13.9252   20.7407 C   0  0  0  0  0  0  0  0  0  0  0  0
  -31.6786  -24.3050   19.9128 C   0  0  0  0  0  0  0  0  0  0  0  0
  -30.6111  -26.3404   19.4961 C   0  0  0  0  0  0  0  0  0  0  0  0
  -30.3378  -14.3394   20.4399 C   0  0  0  0  0  0  0  0  0  0  0  0
  -29.5489  -12.2302   19.3547 C   0  0  0  0  0  0  0  0  0  0  0  0
  -23.2688  -29.9465   23.0820 C   0  0  0  0  0  0  0  0  0  0  0  0
  -21.3358  -29.1965   20.5874 C   0  0  0  0  0  0  0  0  0  0  0  0
  -21.0269  -27.8700   17.4583 C   0  0  0  0  0  0  0  0  0  0  0  0
  -31.9333  -19.5985   20.6850 C   0  0  0  0  0  0  0  0  0  0  0  0
  -21.0231  -32.1995   27.0743 C   0  0  0  0  0  0  0  0  0  0  0  0
  -24.4974  -31.0117   21.1553 C   0  0  0  0  0  0  0  0  0  0  0  0
  -23.6704  -28.2416   20.5328 C   0  0  0  0  0  0  0  0  0  0  0  0
  -20.6126  -31.1610   26.0335 C   0  0  0  0  0  0  0  0  0  0  0  0
  -30.3558  -18.1832   23.6888 C   0  0  0  0  0  0  0  0  0  0  0  0
  -21.6762  -30.0740   25.9156 C   0  0  0  0  0  0  0  0  0  0  0  0
  -29.6874  -16.9410   23.1103 C   0  0  0  0  0  0  0  0  0  0  0  0
  -30.3960  -19.3422   22.6925 C   0  0  0  0  0  0  0  0  0  0  0  0
  -31.0294  -21.9911   21.1409 C   0  0  0  0  0  0  0  0  0  0  0  0
  -32.8535  -21.8809   20.0570 C   0  0  0  0  0  0  0  0  0  0  0  0
  -30.3272  -17.7250   20.8049 C   0  0  0  0  0  0  0  0  0  0  0  0
  -23.0152  -30.6602   25.4521 C   0  0  1  0  0  0  0  0  0  0  0  0
  -32.1062  -23.0336   20.7589 C   0  0  0  0  0  0  0  0  0  0  0  0
  -23.1802  -30.4334   21.6633 C   0  0  1  0  0  0  0  0  0  0  0  0
  -30.3524  -16.5439   21.7845 C   0  0  2  0  0  0  0  0  0  0  0  0
  -19.3156  -27.3593   15.6952 C   0  0  0  0  0  0  0  0  0  0  0  0
  -20.3900  -26.7892   22.2061 C   0  0  0  0  0  0  0  0  0  0  0  0
  -19.4492  -25.8271   20.0948 C   0  0  0  0  0  0  0  0  0  0  0  0
  -18.5784  -27.9937   20.9726 C   0  0  0  0  0  0  0  0  0  0  0  0
  -22.3406  -29.6588   15.5004 C   0  0  0  0  0  0  0  0  0  0  0  0
  -29.7458  -27.5033   19.8840 C   0  0  0  0  0  0  0  0  0  1  0  0
  -20.8823  -27.9132   19.9345 C   0  0  1  0  0  0  0  0  0  0  0  0
  -20.3193  -28.3770   16.2146 C   0  0  2  0  0  0  0  0  0  0  0  0
  -19.8525  -27.1377   20.8037 C   0  0  0  0  0  0  0  0  0  0  0  0
  -32.2005  -24.2816   18.6689 N   0  0  0  0  0  0  0  0  0  0  0  0
  -31.0993  -26.3816   18.2390 N   0  0  0  0  0  0  0  0  0  0  0  0
  -28.4120  -15.0739   21.3882 N   0  0  0  0  0  0  0  0  0  0  0  0
  -29.7215  -15.2996   21.1871 N   0  0  0  0  0  0  0  0  0  0  0  0
  -22.7077  -29.3080   20.8544 N   0  0  0  0  0  0  0  0  0  0  0  0
  -30.9225  -18.9328   21.3864 N   0  0  0  0  0  0  0  0  0  0  0  0
  -32.0223  -20.9679   20.8364 N   0  0  0  0  0  0  0  0  0  0  0  0
  -31.6527  -14.4108   20.1426 N   0  0  0  0  0  0  0  0  0  0  0  0
  -28.4426  -11.3988   19.1330 N   0  0  0  0  0  0  0  0  0  0  0  0
  -22.9895  -30.9146   24.0276 N   0  0  0  0  0  0  0  0  0  0  0  0
  -20.3907  -28.2801   18.6108 N   0  0  0  0  0  0  0  0  0  0  0  0
  -21.3071  -28.6564   15.1342 N   0  3  0  0  0  0  0  0  0  0  0  0
  -30.6657  -11.9041   18.8859 O   0  0  0  0  0  0  0  0  0  0  0  0
  -23.5671  -28.7785   23.3024 O   0  0  0  0  0  0  0  0  0  0  0  0
  -20.5044  -30.0709   20.8444 O   0  0  0  0  0  0  0  0  0  0  0  0
  -22.0402  -27.1761   17.4119 O   0  0  0  0  0  0  0  0  0  0  0  0
  -32.7077  -19.0029   19.9253 O   0  0  0  0  0  0  0  0  0  0  0  0
  -23.0931  -11.6476   20.6680 O   0  0  0  0  0  0  0  0  0  0  0  0
  -28.3810  -27.0866   19.8894 O   0  0  0  0  0  0  0  0  0  1  0  0
  -22.6894   -6.2267   21.5928 F   0  0  0  0  0  0  0  0  0  0  0  0
  -21.6216  -10.6778   22.7980 F   0  0  0  0  0  0  0  0  0  0  0  0
  -30.2339  -25.2928   21.9804 Cl  0  0  0  0  0  0  0  0  0  0  0  0
  1  2  1  0  0  0  0
  1  5  2  0  0  0  0
  2  6  2  0  0  0  0
  3  8  2  0  0  0  0
  3 16  1  0  0  0  0
  4  9  1  0  0  0  0
  4 16  2  0  0  0  0
  5 18  1  0  0  0  0
  6 20  1  0  0  0  0
  7 10  2  0  0  0  0
  7 19  1  0  0  0  0
  8 22  1  0  0  0  0
  9 22  2  0  0  0  0
 10 23  1  0  0  0  0
 11 12  2  0  0  0  0
 11 24  1  0  0  0  0
 12 25  1  0  0  0  0
 13 21  1  0  0  0  0
 13 23  2  0  0  0  0
 14 25  2  0  0  0  0
 14 26  1  0  0  0  0
 15 61  1  0  0  0  0
 15 62  2  0  0  0  0
 16 28  1  0  0  0  0
 17 28  1  0  0  0  0
 17 31  2  0  0  0  0
 17 32  1  0  0  0  0
 18 20  2  0  0  0  0
 18 37  1  0  0  0  0
 19 21  2  0  0  0  0
 19 38  1  0  0  0  0
 20 48  1  0  0  0  0
 21 39  1  0  0  0  0
 22 78  1  0  0  0  0
 23 79  1  0  0  0  0
 24 26  2  0  0  0  0
 24 78  1  0  0  0  0
 25 80  1  0  0  0  0
 26 81  1  0  0  0  0
 27 29  1  0  0  0  0
 27 30  2  0  0  0  0
 27 82  1  0  0  0  0
 28 63  2  0  0  0  0
 29 49  1  0  0  0  0
 29 61  2  0  0  0  0
 30 57  1  0  0  0  0
 30 62  1  0  0  0  0
 31 64  1  0  0  0  0
 31 68  1  0  0  0  0
 32 69  1  0  0  0  0
 32 73  2  0  0  0  0
 33 50  1  0  0  0  0
 33 70  1  0  0  0  0
 33 74  2  0  0  0  0
 34 58  1  0  0  0  0
 34 65  1  0  0  0  0
 34 75  2  0  0  0  0
 35 59  1  0  0  0  0
 35 71  1  0  0  0  0
 35 76  2  0  0  0  0
 36 66  1  0  0  0  0
 36 67  1  0  0  0  0
 36 77  2  0  0  0  0
 37 40  1  0  0  0  0
 38 50  1  0  0  0  0
 39 65  1  0  0  0  0
 40 42  1  0  0  0  0
 41 43  1  0  0  0  0
 41 44  1  0  0  0  0
 42 48  1  0  0  0  0
 43 51  1  0  0  0  0
 44 66  1  0  0  0  0
 45 49  1  0  0  0  0
 45 67  1  0  0  0  0
 46 49  1  0  0  0  0
 46 67  1  0  0  0  0
 47 51  1  0  0  0  0
 47 66  1  0  0  0  0
 48 70  1  0  0  0  0
 50 65  1  0  0  0  0
 51 64  1  0  0  0  0
 52 59  1  0  0  0  0
 53 60  1  0  0  0  0
 54 60  1  0  0  0  0
 55 60  1  0  0  0  0
 56 72  1  0  0  0  0
 57 79  1  0  0  0  0
 58 60  1  0  0  0  0
 58 71  1  0  0  0  0
 59 72  1  0  0  0  0
 63 64  1  0  0  0  0
M  CHG  1  72   1
M  ISO  4  36 100  57 101  67 100  79 101
M  END
> <Batch ID>
0199

> <Smiles>
CNC(C)C(=O)NC(C(=O)N1Cc2cc([101O:1][101CH2:1]c3ncnc(C4C[100N:0]([100C:0](=O)N5CCCC(n6nc(-c7ccc(Oc8ccc(F)cc8F)cc7)c(C(N)=O)c6N)C5)C4)c3Cl)ccc2CC1C(=O)NC1CCCc2ccccc21)C(C)(C)C

> <Shape>
0.292

> <Color>
0.109

> <Negative vol penalty>
0.000

$$$$

  -OEChem-04052323503D

 89 99  0     1  0  0  0  0  0999 V2000
  -29.4048  -35.1627   25.8565 C   0  0  0  0  0  0  0  0  0  0  0  0
  -28.9408  -33.8596   26.0041 C   0  0  0  0  0  0  0  0  0  0  0  0
  -24.9911  -10.7863   23.7619 C   0  0  0  0  0  0  0  0  0  0  0  0
  -25.3177   -9.2308   21.9423 C   0  0  0  0  0  0  0  0  0  0  0  0
  -28.5658  -36.1452   25.3323 C   0  0  0  0  0  0  0  0  0  0  0  0
  -27.6368  -33.5383   25.6285 C   0  0  0  0  0  0  0  0  0  0  0  0
  -27.3817  -29.2211   22.9938 C   0  0  0  0  0  0  0  0  0  0  0  0
  -23.7247  -10.2494   23.9936 C   0  0  0  0  0  0  0  0  0  0  0  0
  -24.0513   -8.6939   22.1740 C   0  0  0  0  0  0  0  0  0  0  0  0
  -27.4601  -28.0300   23.7142 C   0  0  0  0  0  0  0  0  0  0  0  0
  -21.0490   -6.6725   22.5179 C   0  0  0  0  0  0  0  0  0  0  0  0
  -20.9237   -5.2833   22.5227 C   0  0  0  0  0  0  0  0  0  0  0  0
  -25.0606  -27.8097   23.5992 C   0  0  0  0  0  0  0  0  0  0  0  0
  -22.4935   -5.1482   24.3543 C   0  0  0  0  0  0  0  0  0  0  0  0
  -24.8331  -22.8803   20.7309 C   0  0  0  0  0  0  0  0  0  0  0  0
  -25.7876  -10.2770   22.7362 C   0  0  0  0  0  0  0  0  0  0  0  0
  -28.3129  -10.4170   23.0687 C   0  0  0  0  0  0  0  0  0  0  0  0
  -27.2541  -35.8336   24.9412 C   0  0  0  0  0  0  0  0  0  0  0  0
  -26.1392  -29.7220   22.5795 C   0  0  0  0  0  0  0  0  0  0  0  0
  -26.7790  -34.5178   25.0999 C   0  0  0  0  0  0  0  0  0  0  0  0
  -24.9694  -29.0061   22.8715 C   0  0  0  0  0  0  0  0  0  0  0  0
  -23.2548   -9.2032   23.1997 C   0  0  0  0  0  0  0  0  0  0  0  0
  -26.2992  -27.3256   24.0195 C   0  0  0  0  0  0  0  0  0  0  0  0
  -21.8966   -7.2996   23.4312 C   0  0  0  0  0  0  0  0  0  0  0  0
  -21.6460   -4.5211   23.4409 C   0  0  0  0  0  0  0  0  0  0  0  0
  -22.6188   -6.5374   24.3494 C   0  0  0  0  0  0  0  0  0  0  0  0
  -27.0956  -10.8316   22.4960 C   0  0  0  0  0  0  0  0  0  0  0  0
  -25.4347  -22.6618   19.5238 C   0  0  0  0  0  0  0  0  0  0  0  0
  -29.2532  -11.2546   22.5203 C   0  0  0  0  0  0  0  0  0  0  0  0
  -25.9995  -21.0046   20.8785 C   0  0  0  0  0  0  0  0  0  0  0  0
  -28.5708   -9.3684   24.0119 C   0  0  0  0  0  0  0  0  0  0  0  0
  -24.4781  -32.3676   23.1671 C   0  0  0  0  0  0  0  0  0  0  0  0
  -22.4935  -31.1576   20.9045 C   0  0  0  0  0  0  0  0  0  0  0  0
  -21.3362  -28.4175   19.2313 C   0  0  0  0  0  0  0  0  0  0  0  0
  -29.1328  -16.6783   20.2807 C   0  0  0  0  0  0  0  0  0  0  0  0
  -26.3688  -36.9396   24.4237 C   0  0  0  0  0  0  0  0  0  0  0  0
  -26.0740  -30.9944   21.7801 C   0  0  0  0  0  0  0  0  0  0  0  0
  -23.6127  -29.4906   22.4322 C   0  0  0  0  0  0  0  0  0  0  0  0
  -25.1226  -36.4347   23.7011 C   0  0  0  0  0  0  0  0  0  0  0  0
  -30.1530  -13.8342   18.6018 C   0  0  0  0  0  0  0  0  0  0  0  0
  -24.4476  -35.3308   24.5090 C   0  0  0  0  0  0  0  0  0  0  0  0
  -26.6122  -24.0588   17.6439 C   0  0  0  0  0  0  0  0  0  0  0  0
  -25.7169  -25.0048   18.3814 C   0  0  0  0  0  0  0  0  0  0  0  0
  -29.6097  -12.6915   19.4593 C   0  0  0  0  0  0  0  0  0  0  0  0
  -26.1455  -18.4869   20.6313 C   0  0  0  0  0  0  0  0  0  0  0  0
  -28.1671  -19.8009   21.4033 C   0  0  0  0  0  0  0  0  0  0  0  0
  -29.1371  -14.9653   18.4928 C   0  0  0  0  0  0  0  0  0  0  0  0
  -26.8097  -17.2059   21.1442 C   0  0  0  0  0  0  0  0  0  0  0  0
  -28.7699  -18.4977   21.9198 C   0  0  0  0  0  0  0  0  0  0  0  0
  -28.1477  -14.3763   20.6819 C   0  0  0  0  0  0  0  0  0  0  0  0
  -25.3789  -34.1248   24.6809 C   0  0  1  0  0  0  0  0  0  0  0  0
  -25.3370  -23.5365   18.2847 C   0  0  0  0  0  0  0  0  0  0  0  0
  -26.6294  -19.7279   21.4027 C   0  0  0  0  0  0  0  0  0  0  0  0
  -24.7115  -31.6769   21.8533 C   0  0  1  0  0  0  0  0  0  0  0  0
  -29.1400  -13.2051   20.8318 C   0  0  1  0  0  0  0  0  0  0  0  0
  -20.0488  -27.1034   17.5246 C   0  0  0  0  0  0  0  0  0  0  0  0
  -20.2177  -31.4688   22.9130 C   0  0  0  0  0  0  0  0  0  0  0  0
  -18.8432  -29.9369   21.4874 C   0  0  0  0  0  0  0  0  0  0  0  0
  -19.6358  -32.1164   20.5685 C   0  0  0  0  0  0  0  0  0  0  0  0
  -23.5202  -28.6357   17.2460 C   0  0  0  0  0  0  0  0  0  0  0  0
  -24.7808  -21.6756   22.9278 C   0  0  0  0  0  0  0  0  0  0  0  0
  -25.8613  -22.0288   23.9414 C   0  0  0  0  0  0  0  0  0  0  0  0
  -27.2425  -23.9190   24.8121 C   0  0  0  0  0  0  0  0  0  0  0  0
  -27.5554  -25.3820   24.5673 C   0  0  0  0  0  0  0  0  0  1  0  0
  -21.2948  -30.2400   20.9139 C   0  0  1  0  0  0  0  0  0  0  0  0
  -21.1213  -28.1575   17.7512 C   0  0  2  0  0  0  0  0  0  0  0  0
  -20.0231  -30.9321   21.4808 C   0  0  0  0  0  0  0  0  0  0  0  0
  -27.2457  -11.8533   21.6490 N   0  0  0  0  0  0  0  0  0  0  0  0
  -25.1994  -21.8394   21.5497 N   0  0  0  0  0  0  0  0  0  0  0  0
  -28.5685  -12.0878   21.6853 N   0  0  0  0  0  0  0  0  0  0  0  0
  -26.1501  -21.4948   19.6438 N   0  3  0  0  0  0  0  0  0  0  0  0
  -23.6005  -30.7431   21.6585 N   0  0  0  0  0  0  0  0  0  0  0  0
  -28.7134  -15.4226   19.8161 N   0  0  0  0  0  0  0  0  0  0  0  0
  -28.2720  -17.3504   21.1615 N   0  0  0  0  0  0  0  0  0  0  0  0
  -30.5906  -11.3525   22.6758 N   0  0  0  0  0  0  0  0  0  0  0  0
  -27.4904   -8.6037   24.4727 N   0  0  0  0  0  0  0  0  0  0  0  0
  -25.4156  -33.3374   23.4672 N   0  0  0  0  0  0  0  0  0  0  0  0
  -21.1481  -29.7460   19.5491 N   0  0  0  0  0  0  0  0  0  0  0  0
  -22.3856  -27.6851   17.1194 N   0  3  0  0  0  0  0  0  0  0  0  0
  -26.2303  -23.4607   23.8218 N   0  3  0  0  0  0  0  0  0  0  0  0
  -29.7227   -9.1277   24.4461 O   0  0  0  0  0  0  0  0  0  0  0  0
  -23.5177  -32.0456   23.8568 O   0  0  0  0  0  0  0  0  0  0  0  0
  -22.4519  -32.2001   20.2464 O   0  0  0  0  0  0  0  0  0  0  0  0
  -21.6370  -27.5302   20.0267 O   0  0  0  0  0  0  0  0  0  0  0  0
  -30.2128  -17.1702   19.9304 O   0  0  0  0  0  0  0  0  0  0  0  0
  -22.0193   -8.6789   23.4256 O   0  0  0  0  0  0  0  0  0  0  0  0
  -26.3733  -26.1547   24.7281 O   0  0  0  0  0  0  0  0  0  1  0  0
  -21.5244   -3.1872   23.4465 F   0  0  0  0  0  0  0  0  0  0  0  0
  -23.4337   -7.1342   25.2300 F   0  0  0  0  0  0  0  0  0  0  0  0
  1  2  1  0  0  0  0
  1  5  2  0  0  0  0
  2  6  2  0  0  0  0
  3  8  2  0  0  0  0
  3 16  1  0  0  0  0
  4  9  1  0  0  0  0
  4 16  2  0  0  0  0
  5 18  1  0  0  0  0
  6 20  1  0  0  0  0
  7 10  2  0  0  0  0
  7 19  1  0  0  0  0
  8 22  1  0  0  0  0
  9 22  2  0  0  0  0
 10 23  1  0  0  0  0
 11 12  2  0  0  0  0
 11 24  1  0  0  0  0
 12 25  1  0  0  0  0
 13 21  1  0  0  0  0
 13 23  2  0  0  0  0
 14 25  2  0  0  0  0
 14 26  1  0  0  0  0
 15 28  2  0  0  0  0
 15 69  1  0  0  0  0
 16 27  1  0  0  0  0
 17 27  1  0  0  0  0
 17 29  2  0  0  0  0
 17 31  1  0  0  0  0
 18 20  2  0  0  0  0
 18 36  1  0  0  0  0
 19 21  2  0  0  0  0
 19 37  1  0  0  0  0
 20 51  1  0  0  0  0
 21 38  1  0  0  0  0
 22 86  1  0  0  0  0
 23 87  1  0  0  0  0
 24 26  2  0  0  0  0
 24 86  1  0  0  0  0
 25 88  1  0  0  0  0
 26 89  1  0  0  0  0
 27 68  2  0  0  0  0
 28 52  1  0  0  0  0
 28 71  1  0  0  0  0
 29 70  1  0  0  0  0
 29 75  1  0  0  0  0
 30 53  1  0  0  0  0
 30 69  1  0  0  0  0
 30 71  2  0  0  0  0
 31 76  1  0  0  0  0
 31 81  2  0  0  0  0
 32 54  1  0  0  0  0
 32 77  1  0  0  0  0
 32 82  2  0  0  0  0
 33 65  1  0  0  0  0
 33 72  1  0  0  0  0
 33 83  2  0  0  0  0
 34 66  1  0  0  0  0
 34 78  1  0  0  0  0
 34 84  2  0  0  0  0
 35 73  1  0  0  0  0
 35 74  1  0  0  0  0
 35 85  2  0  0  0  0
 36 39  1  0  0  0  0
 37 54  1  0  0  0  0
 38 72  1  0  0  0  0
 39 41  1  0  0  0  0
 40 44  1  0  0  0  0
 40 47  1  0  0  0  0
 41 51  1  0  0  0  0
 42 43  1  0  0  0  0
 42 52  1  0  0  0  0
 43 52  1  0  0  0  0
 44 55  1  0  0  0  0
 45 48  1  0  0  0  0
 45 53  1  0  0  0  0
 46 49  1  0  0  0  0
 46 53  1  0  0  0  0
 47 73  1  0  0  0  0
 48 74  1  0  0  0  0
 49 74  1  0  0  0  0
 50 55  1  0  0  0  0
 50 73  1  0  0  0  0
 51 77  1  0  0  0  0
 54 72  1  0  0  0  0
 55 70  1  0  0  0  0
 56 66  1  0  0  0  0
 57 67  1  0  0  0  0
 58 67  1  0  0  0  0
 59 67  1  0  0  0  0
 60 79  1  0  0  0  0
 61 62  1  0  0  0  0
 61 69  1  0  0  0  0
 62 80  1  0  0  0  0
 63 64  1  0  0  0  0
 63 80  1  0  0  0  0
 64 87  1  0  0  0  0
 65 67  1  0  0  0  0
 65 78  1  0  0  0  0
 66 79  1  0  0  0  0
 68 70  1  0  0  0  0
M  CHG  3  71   1  79   1  80   1
M  ISO  4  35 100  64 101  74 100  87 101
M  END
> <Batch ID>
0199

> <Smiles>
CNC(C)C(=O)NC(C(=O)N1Cc2cc([101O:1][101CH2:1]CNCCn3cc(C4CC4)nc3C3CC[100N:0]([100C:0](=O)N4CCCC(n5nc(-c6ccc(Oc7ccc(F)cc7F)cc6)c(C(N)=O)c5N)C4)CC3)ccc2CC1C(=O)NC1CCCc2ccccc21)C(C)(C)C

> <Shape>
0.223

> <Color>
0.058

> <Negative vol penalty>
0.000

$$$$

  -OEChem-04052323503D

 88 97  0     1  0  0  0  0  0999 V2000
  -18.1572  -24.7159   19.4646 C   0  0  0  0  0  0  0  0  0  0  0  0
  -19.2722  -25.5464   19.4718 C   0  0  0  0  0  0  0  0  0  0  0  0
  -26.8298  -18.1813   22.2357 C   0  0  0  0  0  0  0  0  0  0  0  0
  -24.5461  -17.4928   22.6202 C   0  0  0  0  0  0  0  0  0  0  0  0
  -18.3220  -23.3337   19.5232 C   0  0  0  0  0  0  0  0  0  0  0  0
  -20.5526  -24.9946   19.5255 C   0  0  0  0  0  0  0  0  0  0  0  0
  -24.3429  -28.0885   19.0110 C   0  0  0  0  0  0  0  0  0  0  0  0
  -26.9765  -17.1665   21.2901 C   0  0  0  0  0  0  0  0  0  0  0  0
  -24.6928  -16.4780   21.6745 C   0  0  0  0  0  0  0  0  0  0  0  0
  -24.7148  -28.9962   20.0018 C   0  0  0  0  0  0  0  0  0  0  0  0
  -24.5768  -13.4796   19.6236 C   0  0  0  0  0  0  0  0  0  0  0  0
  -24.0876  -12.2146   19.9490 C   0  0  0  0  0  0  0  0  0  0  0  0
  -26.5649  -27.5707   20.6050 C   0  0  0  0  0  0  0  0  0  0  0  0
  -25.5782  -12.1268   21.8484 C   0  0  0  0  0  0  0  0  0  0  0  0
  -25.6145  -18.3445   22.9008 C   0  0  0  0  0  0  0  0  0  0  0  0
  -26.2032  -19.5636   25.0629 C   0  0  0  0  0  0  0  0  0  0  0  0
  -19.6051  -22.7660   19.5901 C   0  0  0  0  0  0  0  0  0  0  0  0
  -25.0741  -26.9078   18.8168 C   0  0  0  0  0  0  0  0  0  0  0  0
  -20.7405  -23.6010   19.5609 C   0  0  0  0  0  0  0  0  0  0  0  0
  -26.2018  -26.6509   19.6095 C   0  0  0  0  0  0  0  0  0  0  0  0
  -25.9081  -16.3148   21.0095 C   0  0  0  0  0  0  0  0  0  0  0  0
  -25.8242  -28.7360   20.8009 C   0  0  0  0  0  0  0  0  0  0  0  0
  -25.5668  -14.0683   20.4105 C   0  0  0  0  0  0  0  0  0  0  0  0
  -24.5883  -11.5381   21.0614 C   0  0  0  0  0  0  0  0  0  0  0  0
  -26.0674  -13.3918   21.5229 C   0  0  0  0  0  0  0  0  0  0  0  0
  -25.4625  -19.3922   23.8781 C   0  0  0  0  0  0  0  0  0  0  0  0
  -25.6778  -20.6961   25.6355 C   0  0  0  0  0  0  0  0  0  0  0  0
  -25.3427  -31.3537   24.2919 C   0  0  0  0  0  0  0  0  0  0  0  0
  -27.2709  -18.7701   25.5979 C   0  0  0  0  0  0  0  0  0  0  0  0
  -23.1368  -30.3295   24.8841 C   0  0  0  0  0  0  0  0  0  0  0  0
  -24.4189  -23.8042   19.0215 C   0  0  0  0  0  0  0  0  0  0  0  0
  -27.4217  -23.4897   17.8355 C   0  0  0  0  0  0  0  0  0  0  0  0
  -30.6346  -25.0468   18.3548 C   0  0  0  0  0  0  0  0  0  0  0  0
  -22.8601  -25.3100   23.1112 C   0  0  0  0  0  0  0  0  0  0  0  0
  -19.7260  -21.2634   19.6439 C   0  0  0  0  0  0  0  0  0  0  0  0
  -24.6758  -25.9517   17.7261 C   0  0  0  0  0  0  0  0  0  0  0  0
  -27.0324  -25.4076   19.4277 C   0  0  0  0  0  0  0  0  0  0  0  0
  -21.0883  -20.7941   20.1440 C   0  0  0  0  0  0  0  0  0  0  0  0
  -21.6574  -23.2375   25.9284 C   0  0  0  0  0  0  0  0  0  0  0  0
  -22.1955  -21.5139   19.3885 C   0  0  0  0  0  0  0  0  0  0  0  0
  -21.2265  -29.5667   22.3059 C   0  0  0  0  0  0  0  0  0  0  0  0
  -22.5387  -22.0017   25.7780 C   0  0  0  0  0  0  0  0  0  0  0  0
  -20.9238  -28.1550   21.7606 C   0  0  0  0  0  0  0  0  0  0  0  0
  -21.3236  -23.8741   24.5797 C   0  0  0  0  0  0  0  0  0  0  0  0
  -26.2258  -29.5925   25.6017 C   0  0  0  0  0  0  0  0  0  0  0  0
  -23.4115  -22.9510   23.6086 C   0  0  0  0  0  0  0  0  0  0  0  0
  -22.1420  -23.0245   19.6497 C   0  0  1  0  0  0  0  0  0  0  0  0
  -24.3322  -31.0769   25.3837 C   0  0  1  0  0  0  0  0  0  0  0  0
  -25.1891  -24.5339   17.9575 C   0  0  1  0  0  0  0  0  0  0  0  0
  -25.1072  -30.2374   26.4152 C   0  0  2  0  0  0  0  0  0  0  0  0
  -21.9003  -28.8738   23.5098 C   0  0  1  0  0  0  0  0  0  0  0  0
  -23.7965  -22.3311   24.9603 C   0  0  2  0  0  0  0  0  0  0  0  0
  -22.1363  -27.6567   22.5826 C   0  0  1  0  0  0  0  0  0  0  0  0
  -25.6682  -31.1153   27.5352 C   0  0  0  0  0  0  0  0  0  0  0  0
  -21.6497  -29.6244   26.7571 C   0  0  0  0  0  0  0  0  0  0  0  0
  -32.5938  -25.3006   16.8074 C   0  0  0  0  0  0  0  0  0  0  0  0
  -28.4227  -20.9247   19.1504 C   0  0  0  0  0  0  0  0  0  0  0  0
  -30.7408  -21.8662   19.0611 C   0  0  0  0  0  0  0  0  0  0  0  0
  -29.4833  -21.4502   16.9473 C   0  0  0  0  0  0  0  0  0  0  0  0
  -30.6792  -27.9851   18.7057 C   0  0  0  0  0  0  0  0  0  0  0  0
  -21.8130  -30.5712   25.5827 C   0  0  0  0  0  0  0  0  0  0  0  0
  -27.5541  -30.3622   23.6037 C   0  0  0  0  0  0  0  0  0  0  0  0
  -27.3361  -29.2901   22.5511 C   0  0  0  0  0  0  0  0  0  1  0  0
  -28.8020  -23.3767   18.4362 C   0  0  1  0  0  0  0  0  0  0  0  0
  -31.3621  -25.9713   17.3954 C   0  0  2  0  0  0  0  0  0  0  0  0
  -29.3413  -21.9186   18.4120 C   0  0  0  0  0  0  0  0  0  0  0  0
  -24.5369  -20.3398   23.7071 N   0  0  0  0  0  0  0  0  0  0  0  0
  -23.1439  -29.5222   23.8672 N   0  0  0  0  0  0  0  0  0  0  0  0
  -24.6924  -21.1175   24.7920 N   0  0  0  0  0  0  0  0  0  0  0  0
  -26.4143  -30.4892   24.4863 N   0  0  0  0  0  0  0  0  0  0  0  0
  -26.5989  -24.5005   18.3522 N   0  0  0  0  0  0  0  0  0  0  0  0
  -22.5329  -24.1150   23.7766 N   0  0  0  0  0  0  0  0  0  0  0  0
  -25.9671  -21.3624   26.7734 N   0  0  0  0  0  0  0  0  0  0  0  0
  -26.9501  -17.7115   26.4585 N   0  0  0  0  0  0  0  0  0  0  0  0
  -23.0669  -23.6906   18.7593 N   0  0  0  0  0  0  0  0  0  0  0  0
  -29.6380  -24.3350   17.7213 N   0  0  0  0  0  0  0  0  0  0  0  0
  -21.9371  -26.3444   23.2309 N   0  0  0  0  0  0  0  0  0  0  0  0
  -31.7934  -27.2124   18.0988 N   0  3  0  0  0  0  0  0  0  0  0  0
  -25.1847  -32.1652   23.3910 O   0  0  0  0  0  0  0  0  0  0  0  0
  -28.4748  -19.0036   25.3340 O   0  0  0  0  0  0  0  0  0  0  0  0
  -25.0078  -23.3748   20.0066 O   0  0  0  0  0  0  0  0  0  0  0  0
  -27.0884  -22.7144   16.9358 O   0  0  0  0  0  0  0  0  0  0  0  0
  -30.9240  -24.9617   19.5462 O   0  0  0  0  0  0  0  0  0  0  0  0
  -23.8950  -25.4497   22.4503 O   0  0  0  0  0  0  0  0  0  0  0  0
  -26.0508  -15.3246   20.0866 O   0  0  0  0  0  0  0  0  0  0  0  0
  -26.1889  -29.6201   21.7691 O   0  0  0  0  0  0  0  0  0  1  0  0
  -24.1173  -10.3240   21.3746 F   0  0  0  0  0  0  0  0  0  0  0  0
  -27.0176  -13.9527   22.2834 F   0  0  0  0  0  0  0  0  0  0  0  0
  1  2  1  0  0  0  0
  1  5  2  0  0  0  0
  2  6  2  0  0  0  0
  3  8  2  0  0  0  0
  3 15  1  0  0  0  0
  4  9  1  0  0  0  0
  4 15  2  0  0  0  0
  5 17  1  0  0  0  0
  6 19  1  0  0  0  0
  7 10  2  0  0  0  0
  7 18  1  0  0  0  0
  8 21  1  0  0  0  0
  9 21  2  0  0  0  0
 10 22  1  0  0  0  0
 11 12  2  0  0  0  0
 11 23  1  0  0  0  0
 12 24  1  0  0  0  0
 13 20  1  0  0  0  0
 13 22  2  0  0  0  0
 14 24  2  0  0  0  0
 14 25  1  0  0  0  0
 15 26  1  0  0  0  0
 16 26  1  0  0  0  0
 16 27  2  0  0  0  0
 16 29  1  0  0  0  0
 17 19  2  0  0  0  0
 17 35  1  0  0  0  0
 18 20  2  0  0  0  0
 18 36  1  0  0  0  0
 19 47  1  0  0  0  0
 20 37  1  0  0  0  0
 21 85  1  0  0  0  0
 22 86  1  0  0  0  0
 23 25  2  0  0  0  0
 23 85  1  0  0  0  0
 24 87  1  0  0  0  0
 25 88  1  0  0  0  0
 26 67  2  0  0  0  0
 27 69  1  0  0  0  0
 27 73  1  0  0  0  0
 28 48  1  0  0  0  0
 28 70  1  0  0  0  0
 28 79  2  0  0  0  0
 29 74  1  0  0  0  0
 29 80  2  0  0  0  0
 30 48  1  0  0  0  0
 30 61  1  0  0  0  0
 30 68  2  0  0  0  0
 31 49  1  0  0  0  0
 31 75  1  0  0  0  0
 31 81  2  0  0  0  0
 32 64  1  0  0  0  0
 32 71  1  0  0  0  0
 32 82  2  0  0  0  0
 33 65  1  0  0  0  0
 33 76  1  0  0  0  0
 33 83  2  0  0  0  0
 34 72  1  0  0  0  0
 34 77  1  0  0  0  0
 34 84  2  0  0  0  0
 35 38  1  0  0  0  0
 36 49  1  0  0  0  0
 37 71  1  0  0  0  0
 38 40  1  0  0  0  0
 39 42  1  0  0  0  0
 39 44  1  0  0  0  0
 40 47  1  0  0  0  0
 41 43  1  0  0  0  0
 41 51  1  0  0  0  0
 42 52  1  0  0  0  0
 43 53  1  0  0  0  0
 44 72  1  0  0  0  0
 45 50  1  0  0  0  0
 45 70  1  0  0  0  0
 46 52  1  0  0  0  0
 46 72  1  0  0  0  0
 47 75  1  0  0  0  0
 48 50  1  0  0  0  0
 49 71  1  0  0  0  0
 50 54  1  0  0  0  0
 51 53  1  0  0  0  0
 51 68  1  0  0  0  0
 52 69  1  0  0  0  0
 53 77  1  0  0  0  0
 55 61  1  0  0  0  0
 56 65  1  0  0  0  0
 57 66  1  0  0  0  0
 58 66  1  0  0  0  0
 59 66  1  0  0  0  0
 60 78  1  0  0  0  0
 62 63  1  0  0  0  0
 62 70  1  0  0  0  0
 63 86  1  0  0  0  0
 64 66  1  0  0  0  0
 64 76  1  0  0  0  0
 65 78  1  0  0  0  0
 67 69  1  0  0  0  0
M  CHG  1  78   1
M  ISO  4  34 100  63 101  77 100  86 101
M  END
> <Batch ID>
0199

> <Smiles>
CCC(NC1CCC1[100NH:0][100C:0](=O)N1CCCC(n2nc(-c3ccc(Oc4ccc(F)cc4F)cc3)c(C(N)=O)c2N)C1)=C1C(=O)N(C[101CH2:1][101O:1]c2ccc3c(c2)CN(C(=O)C(NC(=O)C(C)NC)C(C)(C)C)C(C(=O)NC2CCCc4ccccc42)C3)CC1C

> <Shape>
0.201

> <Color>
0.062

> <Negative vol penalty>
0.000

$$$$

  -OEChem-04052323503D

 84 93  0     1  0  0  0  0  0999 V2000
  -19.3382  -33.9831   23.5681 C   0  0  0  0  0  0  0  0  0  0  0  0
  -20.6944  -33.8613   23.2833 C   0  0  0  0  0  0  0  0  0  0  0  0
  -30.9528  -25.0812   16.6324 C   0  0  0  0  0  0  0  0  0  0  0  0
  -25.9502  -13.9824   20.4539 C   0  0  0  0  0  0  0  0  0  0  0  0
  -24.4143  -13.4422   22.2390 C   0  0  0  0  0  0  0  0  0  0  0  0
  -18.6009  -32.8588   23.9374 C   0  0  0  0  0  0  0  0  0  0  0  0
  -21.3145  -32.6152   23.3688 C   0  0  0  0  0  0  0  0  0  0  0  0
  -25.8538  -30.5118   19.8367 C   0  0  0  0  0  0  0  0  0  0  0  0
  -26.1395  -12.6230   20.2054 C   0  0  0  0  0  0  0  0  0  0  0  0
  -24.6036  -12.0827   21.9904 C   0  0  0  0  0  0  0  0  0  0  0  0
  -27.2335  -30.4425   20.0247 C   0  0  0  0  0  0  0  0  0  0  0  0
  -23.5212   -9.7856   19.7607 C   0  0  0  0  0  0  0  0  0  0  0  0
  -22.3892   -8.9715   19.7223 C   0  0  0  0  0  0  0  0  0  0  0  0
  -31.5938  -25.9532   17.5053 C   0  0  0  0  0  0  0  0  0  0  0  0
  -30.0313  -24.1645   17.1262 C   0  0  0  0  0  0  0  0  0  0  0  0
  -27.0098  -28.1626   20.7808 C   0  0  0  0  0  0  0  0  0  0  0  0
  -23.2700   -7.6604   21.5505 C   0  0  0  0  0  0  0  0  0  0  0  0
  -25.0876  -14.3920   21.4707 C   0  0  0  0  0  0  0  0  0  0  0  0
  -23.9240  -16.6395   21.1509 C   0  0  0  0  0  0  0  0  0  0  0  0
  -19.2101  -31.5967   24.0181 C   0  0  0  0  0  0  0  0  0  0  0  0
  -25.0391  -29.4088   20.1301 C   0  0  0  0  0  0  0  0  0  0  0  0
  -20.5849  -31.4733   23.7409 C   0  0  0  0  0  0  0  0  0  0  0  0
  -25.6203  -28.2197   20.5932 C   0  0  0  0  0  0  0  0  0  0  0  0
  -25.4662  -11.6731   20.9736 C   0  0  0  0  0  0  0  0  0  0  0  0
  -27.8114  -29.2687   20.4996 C   0  0  0  0  0  0  0  0  0  0  0  0
  -24.5277   -9.5370   20.6939 C   0  0  0  0  0  0  0  0  0  0  0  0
  -22.2636   -7.9090   20.6172 C   0  0  0  0  0  0  0  0  0  0  0  0
  -24.4021   -8.4745   21.5888 C   0  0  0  0  0  0  0  0  0  0  0  0
  -24.8920  -15.7961   21.7283 C   0  0  0  0  0  0  0  0  0  0  0  0
  -31.2805  -25.8690   18.8524 C   0  0  0  0  0  0  0  0  0  0  0  0
  -29.7882  -24.1602   18.4903 C   0  0  0  0  0  0  0  0  0  0  0  0
  -24.1542  -17.8674   21.7216 C   0  0  0  0  0  0  0  0  0  0  0  0
  -22.9076  -16.3398   20.1851 C   0  0  0  0  0  0  0  0  0  0  0  0
  -22.6622  -28.8543   22.1664 C   0  0  0  0  0  0  0  0  0  0  0  0
  -22.4863  -26.0274   20.5852 C   0  0  0  0  0  0  0  0  0  0  0  0
  -24.0545  -23.6732   18.6759 C   0  0  0  0  0  0  0  0  0  0  0  0
  -27.8616  -21.8260   23.2872 C   0  0  0  0  0  0  0  0  0  0  0  0
  -18.3825  -30.4186   24.4675 C   0  0  0  0  0  0  0  0  0  0  0  0
  -23.5555  -29.4909   19.8964 C   0  0  0  0  0  0  0  0  0  0  0  0
  -24.7920  -27.0007   20.9038 C   0  0  0  0  0  0  0  0  0  0  0  0
  -19.0321  -29.0694   24.1709 C   0  0  0  0  0  0  0  0  0  0  0  0
  -27.0403  -19.2169   25.6215 C   0  0  0  0  0  0  0  0  0  0  0  0
  -20.4998  -29.0807   24.5861 C   0  0  0  0  0  0  0  0  0  0  0  0
  -26.3812  -18.1396   24.7664 C   0  0  0  0  0  0  0  0  0  0  0  0
  -28.1373  -19.9321   24.8445 C   0  0  0  0  0  0  0  0  0  0  0  0
  -26.9634  -19.5088   22.7001 C   0  0  0  0  0  0  0  0  0  0  0  0
  -28.3051  -23.5236   21.4364 C   0  0  0  0  0  0  0  0  0  0  0  0
  -28.4443  -21.5124   20.7558 C   0  0  0  0  0  0  0  0  0  0  0  0
  -21.2879  -30.1343   23.7984 C   0  0  1  0  0  0  0  0  0  0  0  0
  -22.7645  -28.4759   20.7158 C   0  0  1  0  0  0  0  0  0  0  0  0
  -25.8590  -18.7412   23.4538 C   0  0  1  0  0  0  0  0  0  0  0  0
  -29.1269  -22.8261   20.3446 C   0  0  0  0  0  0  0  0  0  0  0  0
  -23.6643  -21.4548   17.5697 C   0  0  0  0  0  0  0  0  0  0  0  0
  -22.6979  -24.6415   23.2952 C   0  0  0  0  0  0  0  0  0  0  0  0
  -23.2560  -22.5200   22.0886 C   0  0  0  0  0  0  0  0  0  0  0  0
  -21.0443  -23.6149   21.7249 C   0  0  0  0  0  0  0  0  0  0  0  0
  -24.5908  -24.7887   15.9876 C   0  0  0  0  0  0  0  0  0  0  0  0
  -31.9492  -26.7896   19.8180 C   0  0  0  0  0  0  0  0  0  0  0  0
  -31.2051  -28.1144   20.0461 C   0  0  0  0  0  0  0  0  0  0  0  0
  -29.7706  -27.9209   20.5240 C   0  0  0  0  0  0  0  0  0  1  0  0
  -23.1247  -24.6693   20.7491 C   0  0  1  0  0  0  0  0  0  0  0  0
  -23.6323  -22.9659   17.4009 C   0  0  2  0  0  0  0  0  0  0  0  0
  -22.5464  -23.8848   21.9605 C   0  0  0  0  0  0  0  0  0  0  0  0
  -25.6787  -16.4343   22.5989 N   0  0  0  0  0  0  0  0  0  0  0  0
  -30.3911  -24.9919   19.3692 N   0  0  0  0  0  0  0  0  0  0  0  0
  -25.2053  -17.6918   22.5728 N   0  0  0  0  0  0  0  0  0  0  0  0
  -23.3453  -27.1326   20.6650 N   0  0  0  0  0  0  0  0  0  0  0  0
  -27.6499  -20.4724   23.5718 N   0  0  0  0  0  0  0  0  0  0  0  0
  -28.0387  -22.1945   21.9734 N   0  0  0  0  0  0  0  0  0  0  0  0
  -23.5579  -19.0695   21.5734 N   0  0  0  0  0  0  0  0  0  0  0  0
  -22.8102  -15.0274   19.7031 N   0  0  0  0  0  0  0  0  0  0  0  0
  -21.5766  -29.6560   22.4634 N   0  0  0  0  0  0  0  0  0  0  0  0
  -22.9707  -23.9886   19.4679 N   0  0  0  0  0  0  0  0  0  0  0  0
  -24.5424  -23.3329   16.2792 N   0  3  0  0  0  0  0  0  0  0  0  0
  -22.1200  -17.2138   19.7498 O   0  0  0  0  0  0  0  0  0  0  0  0
  -23.5049  -28.4478   22.9577 O   0  0  0  0  0  0  0  0  0  0  0  0
  -21.2713  -26.1045   20.3864 O   0  0  0  0  0  0  0  0  0  0  0  0
  -25.2286  -23.9180   18.9444 O   0  0  0  0  0  0  0  0  0  0  0  0
  -27.9229  -22.6798   24.1819 O   0  0  0  0  0  0  0  0  0  0  0  0
  -25.6506  -10.3466   20.7313 O   0  0  0  0  0  0  0  0  0  0  0  0
  -29.1672  -29.1981   20.6860 O   0  0  0  0  0  0  0  0  0  1  0  0
  -28.8884  -23.2711   18.9983 O   0  0  0  0  0  0  0  0  0  0  0  0
  -21.1757   -7.1283   20.5813 F   0  0  0  0  0  0  0  0  0  0  0  0
  -25.3652   -8.2315   22.4884 F   0  0  0  0  0  0  0  0  0  0  0  0
  1  2  1  0  0  0  0
  1  6  2  0  0  0  0
  2  7  2  0  0  0  0
  3 14  2  0  0  0  0
  3 15  1  0  0  0  0
  4  9  2  0  0  0  0
  4 18  1  0  0  0  0
  5 10  1  0  0  0  0
  5 18  2  0  0  0  0
  6 20  1  0  0  0  0
  7 22  1  0  0  0  0
  8 11  2  0  0  0  0
  8 21  1  0  0  0  0
  9 24  1  0  0  0  0
 10 24  2  0  0  0  0
 11 25  1  0  0  0  0
 12 13  2  0  0  0  0
 12 26  1  0  0  0  0
 13 27  1  0  0  0  0
 14 30  1  0  0  0  0
 15 31  2  0  0  0  0
 16 23  1  0  0  0  0
 16 25  2  0  0  0  0
 17 27  2  0  0  0  0
 17 28  1  0  0  0  0
 18 29  1  0  0  0  0
 19 29  1  0  0  0  0
 19 32  2  0  0  0  0
 19 33  1  0  0  0  0
 20 22  2  0  0  0  0
 20 38  1  0  0  0  0
 21 23  2  0  0  0  0
 21 39  1  0  0  0  0
 22 49  1  0  0  0  0
 23 40  1  0  0  0  0
 24 80  1  0  0  0  0
 25 81  1  0  0  0  0
 26 28  2  0  0  0  0
 26 80  1  0  0  0  0
 27 83  1  0  0  0  0
 28 84  1  0  0  0  0
 29 64  2  0  0  0  0
 30 58  1  0  0  0  0
 30 65  2  0  0  0  0
 31 65  1  0  0  0  0
 31 82  1  0  0  0  0
 32 66  1  0  0  0  0
 32 70  1  0  0  0  0
 33 71  1  0  0  0  0
 33 75  2  0  0  0  0
 34 50  1  0  0  0  0
 34 72  1  0  0  0  0
 34 76  2  0  0  0  0
 35 61  1  0  0  0  0
 35 67  1  0  0  0  0
 35 77  2  0  0  0  0
 36 62  1  0  0  0  0
 36 73  1  0  0  0  0
 36 78  2  0  0  0  0
 37 68  1  0  0  0  0
 37 69  1  0  0  0  0
 37 79  2  0  0  0  0
 38 41  1  0  0  0  0
 39 50  1  0  0  0  0
 40 67  1  0  0  0  0
 41 43  1  0  0  0  0
 42 44  1  0  0  0  0
 42 45  1  0  0  0  0
 43 49  1  0  0  0  0
 44 51  1  0  0  0  0
 45 68  1  0  0  0  0
 46 51  1  0  0  0  0
 46 68  1  0  0  0  0
 47 52  1  0  0  0  0
 47 69  1  0  0  0  0
 48 52  1  0  0  0  0
 48 69  1  0  0  0  0
 49 72  1  0  0  0  0
 50 67  1  0  0  0  0
 51 66  1  0  0  0  0
 52 82  1  0  0  0  0
 53 62  1  0  0  0  0
 54 63  1  0  0  0  0
 55 63  1  0  0  0  0
 56 63  1  0  0  0  0
 57 74  1  0  0  0  0
 58 59  1  0  0  0  0
 59 60  1  0  0  0  0
 60 81  1  0  0  0  0
 61 63  1  0  0  0  0
 61 73  1  0  0  0  0
 62 74  1  0  0  0  0
 64 66  1  0  0  0  0
M  CHG  1  74   1
M  ISO  4  37 100  60 101  69 100  81 101
M  END
> <Batch ID>
0199

> <Smiles>
CNC(C)C(=O)NC(C(=O)N1Cc2cc([101O:1][101CH2:1]CCc3cccc(OC4C[100N:0]([100C:0](=O)N5CCCC(n6nc(-c7ccc(Oc8ccc(F)cc8F)cc7)c(C(N)=O)c6N)C5)C4)n3)ccc2CC1C(=O)NC1CCCc2ccccc21)C(C)(C)C

> <Shape>
0.225

> <Color>
0.098

> <Negative vol penalty>
0.000

$$$$

  -OEChem-04052323503D

 85 94  0     1  0  0  0  0  0999 V2000
  -25.8850  -38.0983   23.9020 C   0  0  0  0  0  0  0  0  0  0  0  0
  -26.6110  -37.3496   22.9813 C   0  0  0  0  0  0  0  0  0  0  0  0
  -24.7856  -10.1290   22.5886 C   0  0  0  0  0  0  0  0  0  0  0  0
  -23.1714   -9.4155   20.9386 C   0  0  0  0  0  0  0  0  0  0  0  0
  -25.2176  -37.4599   24.9465 C   0  0  0  0  0  0  0  0  0  0  0  0
  -26.6710  -35.9620   23.1052 C   0  0  0  0  0  0  0  0  0  0  0  0
  -27.0942  -30.0154   19.1334 C   0  0  0  0  0  0  0  0  0  0  0  0
  -24.1351   -9.3633   23.5561 C   0  0  0  0  0  0  0  0  0  0  0  0
  -22.5209   -8.6498   21.9062 C   0  0  0  0  0  0  0  0  0  0  0  0
  -27.8540  -28.8527   19.0127 C   0  0  0  0  0  0  0  0  0  0  0  0
  -22.9575   -5.6620   23.4237 C   0  0  0  0  0  0  0  0  0  0  0  0
  -22.5795   -4.3653   23.0755 C   0  0  0  0  0  0  0  0  0  0  0  0
  -26.5963  -27.8513   20.8112 C   0  0  0  0  0  0  0  0  0  0  0  0
  -20.2688   -4.9227   23.5079 C   0  0  0  0  0  0  0  0  0  0  0  0
  -24.3038  -10.1551   21.2798 C   0  0  0  0  0  0  0  0  0  0  0  0
  -26.0219  -10.5360   19.4330 C   0  0  0  0  0  0  0  0  0  0  0  0
  -25.2615  -36.0629   25.0777 C   0  0  0  0  0  0  0  0  0  0  0  0
  -26.0854  -30.1090   20.1029 C   0  0  0  0  0  0  0  0  0  0  0  0
  -26.0047  -35.3044   24.1533 C   0  0  0  0  0  0  0  0  0  0  0  0
  -25.8234  -29.0154   20.9405 C   0  0  0  0  0  0  0  0  0  0  0  0
  -23.0028   -8.6237   23.2149 C   0  0  0  0  0  0  0  0  0  0  0  0
  -27.6070  -27.7714   19.8535 C   0  0  0  0  0  0  0  0  0  0  0  0
  -21.9911   -6.5890   23.8141 C   0  0  0  0  0  0  0  0  0  0  0  0
  -21.2352   -3.9956   23.1175 C   0  0  0  0  0  0  0  0  0  0  0  0
  -20.6468   -6.2194   23.8562 C   0  0  0  0  0  0  0  0  0  0  0  0
  -24.9750  -10.9463   20.2800 C   0  0  0  0  0  0  0  0  0  0  0  0
  -26.3051  -11.6457   18.6748 C   0  0  0  0  0  0  0  0  0  0  0  0
  -29.6193  -22.6559   19.6274 C   0  0  0  0  0  0  0  0  0  0  0  0
  -30.2645  -24.3504   20.6616 C   0  0  0  0  0  0  0  0  0  0  0  0
  -26.6794   -9.2653   19.3398 C   0  0  0  0  0  0  0  0  0  0  0  0
  -25.5680  -31.9665   22.6299 C   0  0  0  0  0  0  0  0  0  0  0  0
  -22.7293  -30.3990   22.7126 C   0  0  0  0  0  0  0  0  0  0  0  0
  -20.9310  -27.6168   21.8925 C   0  0  0  0  0  0  0  0  0  0  0  0
  -27.2165  -16.8970   18.0437 C   0  0  0  0  0  0  0  0  0  0  0  0
  -24.5631  -35.4217   26.2506 C   0  0  0  0  0  0  0  0  0  0  0  0
  -25.2569  -31.3604   20.2026 C   0  0  0  0  0  0  0  0  0  0  0  0
  -24.7382  -29.0578   21.9840 C   0  0  0  0  0  0  0  0  0  0  0  0
  -24.3681  -33.9157   26.0943 C   0  0  0  0  0  0  0  0  0  0  0  0
  -23.8201  -16.0127   18.1523 C   0  0  0  0  0  0  0  0  0  0  0  0
  -25.6577  -33.2574   25.6145 C   0  0  0  0  0  0  0  0  0  0  0  0
  -23.8980  -14.5703   18.6519 C   0  0  0  0  0  0  0  0  0  0  0  0
  -27.7346  -20.0881   19.4353 C   0  0  0  0  0  0  0  0  0  0  0  0
  -29.1903  -19.6746   17.4160 C   0  0  0  0  0  0  0  0  0  0  0  0
  -24.8202  -16.9222   18.8685 C   0  0  0  0  0  0  0  0  0  0  0  0
  -26.6292  -19.2478   18.7891 C   0  0  0  0  0  0  0  0  0  0  0  0
  -28.0499  -18.8691   16.7997 C   0  0  0  0  0  0  0  0  0  0  0  0
  -26.2937  -14.9885   19.3247 C   0  0  0  0  0  0  0  0  0  0  0  0
  -26.0732  -33.7951   24.2398 C   0  0  1  0  0  0  0  0  0  0  0  0
  -24.5977  -31.5335   21.5675 C   0  0  1  0  0  0  0  0  0  0  0  0
  -25.3407  -14.0389   18.5824 C   0  0  1  0  0  0  0  0  0  0  0  0
  -28.6428  -20.7280   18.3826 C   0  0  0  0  0  0  0  0  0  0  0  0
  -18.6452  -26.6085   22.1282 C   0  0  0  0  0  0  0  0  0  0  0  0
  -23.3324  -29.7184   25.6252 C   0  0  0  0  0  0  0  0  0  0  0  0
  -21.5451  -27.9687   25.5137 C   0  0  0  0  0  0  0  0  0  0  0  0
  -20.9601  -30.3700   25.1758 C   0  0  0  0  0  0  0  0  0  0  0  0
  -32.3079  -25.3043   21.7294 C   0  0  0  0  0  0  0  0  0  0  0  0
  -20.5398  -27.5307   18.9602 C   0  0  0  0  0  0  0  0  0  0  0  0
  -28.0451  -25.5599   20.6313 C   0  0  0  0  0  0  0  0  0  1  0  0
  -22.2242  -29.1359   23.3672 C   0  0  1  0  0  0  0  0  0  0  0  0
  -19.5620  -27.4533   21.2573 C   0  0  2  0  0  0  0  0  0  0  0  0
  -22.0373  -29.2979   24.9022 C   0  0  0  0  0  0  0  0  0  0  0  0
  -24.6175  -12.2175   20.0793 N   0  0  0  0  0  0  0  0  0  0  0  0
  -30.7223  -23.2028   20.2181 N   0  0  0  0  0  0  0  0  0  0  0  0
  -28.5077  -23.3930   19.6775 N   0  0  0  0  0  0  0  0  0  0  0  0
  -25.4444  -12.6156   19.0976 N   0  0  0  0  0  0  0  0  0  0  0  0
  -28.9475  -24.4712   20.3440 N   0  0  0  0  0  0  0  0  0  0  0  0
  -23.9597  -30.3058   22.0467 N   0  0  0  0  0  0  0  0  0  0  0  0
  -26.1743  -16.3543   18.8102 N   0  0  0  0  0  0  0  0  0  0  0  0
  -27.1979  -18.2843   17.8357 N   0  0  0  0  0  0  0  0  0  0  0  0
  -27.2040  -11.8767   17.6945 N   0  0  0  0  0  0  0  0  0  0  0  0
  -26.2642   -8.2339   20.1931 N   0  0  0  0  0  0  0  0  0  0  0  0
  -29.7375  -21.4103   19.0368 N   0  0  0  0  0  0  0  0  0  0  0  0
  -30.8988  -25.3344   21.3372 N   0  0  0  0  0  0  0  0  0  0  0  0
  -25.2714  -33.1910   23.1973 N   0  0  0  0  0  0  0  0  0  0  0  0
  -21.0075  -28.7645   22.6530 N   0  0  0  0  0  0  0  0  0  0  0  0
  -19.6840  -26.7947   19.9261 N   0  3  0  0  0  0  0  0  0  0  0  0
  -27.6188   -9.0558   18.5353 O   0  0  0  0  0  0  0  0  0  0  0  0
  -26.5148  -31.2425   22.9148 O   0  0  0  0  0  0  0  0  0  0  0  0
  -22.0536  -31.4286   22.7832 O   0  0  0  0  0  0  0  0  0  0  0  0
  -21.8404  -26.8055   21.7333 O   0  0  0  0  0  0  0  0  0  0  0  0
  -28.1115  -16.1841   17.5727 O   0  0  0  0  0  0  0  0  0  0  0  0
  -22.3679   -7.8763   24.1588 O   0  0  0  0  0  0  0  0  0  0  0  0
  -28.3523  -26.6282   19.7375 O   0  0  0  0  0  0  0  0  0  1  0  0
  -20.8722   -2.7508   22.7816 F   0  0  0  0  0  0  0  0  0  0  0  0
  -19.7138   -7.1060   24.2293 F   0  0  0  0  0  0  0  0  0  0  0  0
  1  2  1  0  0  0  0
  1  5  2  0  0  0  0
  2  6  2  0  0  0  0
  3  8  2  0  0  0  0
  3 15  1  0  0  0  0
  4  9  1  0  0  0  0
  4 15  2  0  0  0  0
  5 17  1  0  0  0  0
  6 19  1  0  0  0  0
  7 10  2  0  0  0  0
  7 18  1  0  0  0  0
  8 21  1  0  0  0  0
  9 21  2  0  0  0  0
 10 22  1  0  0  0  0
 11 12  2  0  0  0  0
 11 23  1  0  0  0  0
 12 24  1  0  0  0  0
 13 20  1  0  0  0  0
 13 22  2  0  0  0  0
 14 24  2  0  0  0  0
 14 25  1  0  0  0  0
 15 26  1  0  0  0  0
 16 26  1  0  0  0  0
 16 27  2  0  0  0  0
 16 30  1  0  0  0  0
 17 19  2  0  0  0  0
 17 35  1  0  0  0  0
 18 20  2  0  0  0  0
 18 36  1  0  0  0  0
 19 48  1  0  0  0  0
 20 37  1  0  0  0  0
 21 82  1  0  0  0  0
 22 83  1  0  0  0  0
 23 25  2  0  0  0  0
 23 82  1  0  0  0  0
 24 84  1  0  0  0  0
 25 85  1  0  0  0  0
 26 62  2  0  0  0  0
 27 65  1  0  0  0  0
 27 70  1  0  0  0  0
 28 63  1  0  0  0  0
 28 64  2  0  0  0  0
 28 72  1  0  0  0  0
 29 63  2  0  0  0  0
 29 66  1  0  0  0  0
 29 73  1  0  0  0  0
 30 71  1  0  0  0  0
 30 77  2  0  0  0  0
 31 49  1  0  0  0  0
 31 74  1  0  0  0  0
 31 78  2  0  0  0  0
 32 59  1  0  0  0  0
 32 67  1  0  0  0  0
 32 79  2  0  0  0  0
 33 60  1  0  0  0  0
 33 75  1  0  0  0  0
 33 80  2  0  0  0  0
 34 68  1  0  0  0  0
 34 69  1  0  0  0  0
 34 81  2  0  0  0  0
 35 38  1  0  0  0  0
 36 49  1  0  0  0  0
 37 67  1  0  0  0  0
 38 40  1  0  0  0  0
 39 41  1  0  0  0  0
 39 44  1  0  0  0  0
 40 48  1  0  0  0  0
 41 50  1  0  0  0  0
 42 45  1  0  0  0  0
 42 51  1  0  0  0  0
 43 46  1  0  0  0  0
 43 51  1  0  0  0  0
 44 68  1  0  0  0  0
 45 69  1  0  0  0  0
 46 69  1  0  0  0  0
 47 50  1  0  0  0  0
 47 68  1  0  0  0  0
 48 74  1  0  0  0  0
 49 67  1  0  0  0  0
 50 65  1  0  0  0  0
 51 72  1  0  0  0  0
 52 60  1  0  0  0  0
 53 61  1  0  0  0  0
 54 61  1  0  0  0  0
 55 61  1  0  0  0  0
 56 73  1  0  0  0  0
 57 76  1  0  0  0  0
 58 66  1  0  0  0  0
 58 83  1  0  0  0  0
 59 61  1  0  0  0  0
 59 75  1  0  0  0  0
 60 76  1  0  0  0  0
 62 65  1  0  0  0  0
 64 66  1  0  0  0  0
M  CHG  1  76   1
M  ISO  4  34 100  58 101  69 100  83 101
M  END
> <Batch ID>
0199

> <Smiles>
CNc1nc(NC2CC[100N:0]([100C:0](=O)N3CCCC(n4nc(-c5ccc(Oc6ccc(F)cc6F)cc5)c(C(N)=O)c4N)C3)CC2)nn1[101CH2:1][101O:1]c1ccc2c(c1)CN(C(=O)C(NC(=O)C(C)NC)C(C)(C)C)C(C(=O)NC1CCCc3ccccc31)C2

> <Shape>
0.309

> <Color>
0.087

> <Negative vol penalty>
0.000

$$$$

  -OEChem-04052323503D

 86 96  0     1  0  0  0  0  0999 V2000
  -18.9833  -28.5238   26.5535 C   0  0  0  0  0  0  0  0  0  0  0  0
  -20.1671  -27.9017   26.1701 C   0  0  0  0  0  0  0  0  0  0  0  0
  -24.6365   -9.1431   22.0106 C   0  0  0  0  0  0  0  0  0  0  0  0
  -23.1674  -10.0213   20.3054 C   0  0  0  0  0  0  0  0  0  0  0  0
  -18.1987  -29.1738   25.6017 C   0  0  0  0  0  0  0  0  0  0  0  0
  -20.5665  -27.9283   24.8344 C   0  0  0  0  0  0  0  0  0  0  0  0
  -26.3035  -28.2281   22.7126 C   0  0  0  0  0  0  0  0  0  0  0  0
  -23.5746   -8.4189   22.5525 C   0  0  0  0  0  0  0  0  0  0  0  0
  -22.1055   -9.2970   20.8472 C   0  0  0  0  0  0  0  0  0  0  0  0
  -27.1803  -27.2534   22.2381 C   0  0  0  0  0  0  0  0  0  0  0  0
  -21.9110   -5.5541   21.8756 C   0  0  0  0  0  0  0  0  0  0  0  0
  -22.1447   -4.2240   22.2245 C   0  0  0  0  0  0  0  0  0  0  0  0
  -26.5108  -27.7604   19.9768 C   0  0  0  0  0  0  0  0  0  0  0  0
  -21.5668   -4.7236   24.5165 C   0  0  0  0  0  0  0  0  0  0  0  0
  -30.5171  -24.9943   18.7638 C   0  0  0  0  0  0  0  0  0  0  0  0
  -24.4328   -9.9444   20.8871 C   0  0  0  0  0  0  0  0  0  0  0  0
  -26.4293  -10.2672   19.3322 C   0  0  0  0  0  0  0  0  0  0  0  0
  -18.5936  -29.2166   24.2553 C   0  0  0  0  0  0  0  0  0  0  0  0
  -25.5145  -28.9700   21.8218 C   0  0  0  0  0  0  0  0  0  0  0  0
  -19.7858  -28.5783   23.8634 C   0  0  0  0  0  0  0  0  0  0  0  0
  -25.6267  -28.7457   20.4422 C   0  0  0  0  0  0  0  0  0  0  0  0
  -22.3092   -8.4958   21.9708 C   0  0  0  0  0  0  0  0  0  0  0  0
  -27.2819  -27.0174   20.8703 C   0  0  0  0  0  0  0  0  0  0  0  0
  -21.5053   -6.4690   22.8472 C   0  0  0  0  0  0  0  0  0  0  0  0
  -21.9726   -3.8087   23.5449 C   0  0  0  0  0  0  0  0  0  0  0  0
  -21.3331   -6.0538   24.1676 C   0  0  0  0  0  0  0  0  0  0  0  0
  -25.5292  -10.6932   20.3273 C   0  0  0  0  0  0  0  0  0  0  0  0
  -30.9053  -22.8307   18.1333 C   0  0  0  0  0  0  0  0  0  0  0  0
  -29.1598  -24.7749   18.6812 C   0  0  0  0  0  0  0  0  0  0  0  0
  -29.5479  -22.6109   18.0514 C   0  0  0  0  0  0  0  0  0  0  0  0
  -27.2740  -11.3353   19.1533 C   0  0  0  0  0  0  0  0  0  0  0  0
  -26.4957   -9.0177   18.6321 C   0  0  0  0  0  0  0  0  0  0  0  0
  -22.3907  -29.3217   21.3506 C   0  0  0  0  0  0  0  0  0  0  0  0
  -23.3597  -31.5780   19.2309 C   0  0  0  0  0  0  0  0  0  0  0  0
  -25.8217  -32.7676   17.1889 C   0  0  0  0  0  0  0  0  0  0  0  0
  -26.5341  -17.1210   20.0163 C   0  0  0  0  0  0  0  0  0  0  0  0
  -17.6887  -29.8907   23.2545 C   0  0  0  0  0  0  0  0  0  0  0  0
  -24.5932  -30.0363   22.3478 C   0  0  0  0  0  0  0  0  0  0  0  0
  -24.8166  -29.5291   19.4430 C   0  0  0  0  0  0  0  0  0  0  0  0
  -18.3719  -30.1947   21.9237 C   0  0  0  0  0  0  0  0  0  0  0  0
  -29.1280  -15.0760   21.4926 C   0  0  0  0  0  0  0  0  0  0  0  0
  -19.1568  -28.9808   21.4369 C   0  0  0  0  0  0  0  0  0  0  0  0
  -32.2547  -20.7712   18.9153 C   0  0  0  0  0  0  0  0  0  0  0  0
  -33.2487  -21.7868   18.4452 C   0  0  0  0  0  0  0  0  0  0  0  0
  -28.5736  -13.6696   21.2592 C   0  0  0  0  0  0  0  0  0  0  0  0
  -28.0134  -16.0616   21.8319 C   0  0  0  0  0  0  0  0  0  0  0  0
  -26.3626  -14.7187   20.5910 C   0  0  0  0  0  0  0  0  0  0  0  0
  -27.2717  -19.5890   18.0477 C   0  0  0  0  0  0  0  0  0  0  0  0
  -27.7793  -20.7434   19.7106 C   0  0  0  0  0  0  0  0  0  0  0  0
  -20.2652  -28.6066   22.4283 C   0  0  1  0  0  0  0  0  0  0  0  0
  -31.8763  -21.7406   17.8266 C   0  0  0  0  0  0  0  0  0  0  0  0
  -23.4607  -30.3761   21.3838 C   0  0  1  0  0  0  0  0  0  0  0  0
  -27.4375  -13.6812   20.2196 C   0  0  2  0  0  0  0  0  0  0  0  0
  -26.8070  -19.5666   19.5148 C   0  0  0  0  0  0  0  0  0  0  0  0
  -26.3062  -34.6077   15.5529 C   0  0  0  0  0  0  0  0  0  0  0  0
  -21.6646  -30.1541   17.1312 C   0  0  0  0  0  0  0  0  0  0  0  0
  -22.9082  -31.4232   15.3674 C   0  0  0  0  0  0  0  0  0  0  0  0
  -21.5405  -32.6507   17.0542 C   0  0  0  0  0  0  0  0  0  0  0  0
  -28.0482  -33.8062   18.8390 C   0  0  0  0  0  0  0  0  0  0  0  0
  -28.9942  -21.2852   17.6540 C   0  0  0  0  0  0  0  0  0  0  0  0
  -28.1900  -25.8771   18.9912 C   0  0  0  0  0  0  0  0  0  1  0  0
  -23.7193  -31.5832   17.7648 C   0  0  1  0  0  0  0  0  0  0  0  0
  -26.3910  -34.1628   17.0046 C   0  0  2  0  0  0  0  0  0  0  0  0
  -22.4721  -31.4365   16.8481 C   0  0  0  0  0  0  0  0  0  0  0  0
  -31.4143  -24.0262   18.4913 N   0  0  0  0  0  0  0  0  0  0  0  0
  -25.7789  -11.9350   20.7510 N   0  0  0  0  0  0  0  0  0  0  0  0
  -28.6508  -23.5792   18.3236 N   0  0  0  0  0  0  0  0  0  0  0  0
  -26.8455  -12.2985   20.0186 N   0  0  0  0  0  0  0  0  0  0  0  0
  -23.9254  -30.5564   20.0069 N   0  0  0  0  0  0  0  0  0  0  0  0
  -26.9735  -16.0372   20.7931 N   0  0  0  0  0  0  0  0  0  0  0  0
  -28.3342  -11.5351   18.3418 N   0  0  0  0  0  0  0  0  0  0  0  0
  -25.5506   -8.0292   18.9383 N   0  0  0  0  0  0  0  0  0  0  0  0
  -21.3923  -29.5036   22.2884 N   0  0  0  0  0  0  0  0  0  0  0  0
  -24.4881  -32.8021   17.5374 N   0  0  0  0  0  0  0  0  0  0  0  0
  -27.1590  -18.3396   20.2589 N   0  0  0  0  0  0  0  0  0  0  0  0
  -27.6672  -20.9915   18.2629 N   0  3  0  0  0  0  0  0  0  0  0  0
  -27.8205  -34.1985   17.4244 N   0  3  0  0  0  0  0  0  0  0  0  0
  -27.3775   -8.7787   17.7725 O   0  0  0  0  0  0  0  0  0  0  0  0
  -22.4647  -28.4114   20.5335 O   0  0  0  0  0  0  0  0  0  0  0  0
  -22.6102  -32.4524   19.6729 O   0  0  0  0  0  0  0  0  0  0  0  0
  -26.4920  -31.7490   17.0352 O   0  0  0  0  0  0  0  0  0  0  0  0
  -25.6500  -17.0165   19.1590 O   0  0  0  0  0  0  0  0  0  0  0  0
  -21.2729   -7.7891   22.4991 O   0  0  0  0  0  0  0  0  0  0  0  0
  -28.1364  -26.0662   20.4046 O   0  0  0  0  0  0  0  0  0  1  0  0
  -22.1956   -2.5310   23.8795 F   0  0  0  0  0  0  0  0  0  0  0  0
  -20.9423   -6.9279   25.1052 F   0  0  0  0  0  0  0  0  0  0  0  0
  1  2  1  0  0  0  0
  1  5  2  0  0  0  0
  2  6  2  0  0  0  0
  3  8  2  0  0  0  0
  3 16  1  0  0  0  0
  4  9  1  0  0  0  0
  4 16  2  0  0  0  0
  5 18  1  0  0  0  0
  6 20  1  0  0  0  0
  7 10  2  0  0  0  0
  7 19  1  0  0  0  0
  8 22  1  0  0  0  0
  9 22  2  0  0  0  0
 10 23  1  0  0  0  0
 11 12  2  0  0  0  0
 11 24  1  0  0  0  0
 12 25  1  0  0  0  0
 13 21  1  0  0  0  0
 13 23  2  0  0  0  0
 14 25  2  0  0  0  0
 14 26  1  0  0  0  0
 15 29  1  0  0  0  0
 15 65  2  0  0  0  0
 16 27  1  0  0  0  0
 17 27  1  0  0  0  0
 17 31  2  0  0  0  0
 17 32  1  0  0  0  0
 18 20  2  0  0  0  0
 18 37  1  0  0  0  0
 19 21  2  0  0  0  0
 19 38  1  0  0  0  0
 20 50  1  0  0  0  0
 21 39  1  0  0  0  0
 22 83  1  0  0  0  0
 23 84  1  0  0  0  0
 24 26  2  0  0  0  0
 24 83  1  0  0  0  0
 25 85  1  0  0  0  0
 26 86  1  0  0  0  0
 27 66  2  0  0  0  0
 28 30  2  0  0  0  0
 28 51  1  0  0  0  0
 28 65  1  0  0  0  0
 29 61  1  0  0  0  0
 29 67  2  0  0  0  0
 30 60  1  0  0  0  0
 30 67  1  0  0  0  0
 31 68  1  0  0  0  0
 31 71  1  0  0  0  0
 32 72  1  0  0  0  0
 32 78  2  0  0  0  0
 33 52  1  0  0  0  0
 33 73  1  0  0  0  0
 33 79  2  0  0  0  0
 34 62  1  0  0  0  0
 34 69  1  0  0  0  0
 34 80  2  0  0  0  0
 35 63  1  0  0  0  0
 35 74  1  0  0  0  0
 35 81  2  0  0  0  0
 36 70  1  0  0  0  0
 36 75  1  0  0  0  0
 36 82  2  0  0  0  0
 37 40  1  0  0  0  0
 38 52  1  0  0  0  0
 39 69  1  0  0  0  0
 40 42  1  0  0  0  0
 41 45  1  0  0  0  0
 41 46  1  0  0  0  0
 42 50  1  0  0  0  0
 43 44  1  0  0  0  0
 43 51  1  0  0  0  0
 44 51  1  0  0  0  0
 45 53  1  0  0  0  0
 46 70  1  0  0  0  0
 47 53  1  0  0  0  0
 47 70  1  0  0  0  0
 48 54  1  0  0  0  0
 48 76  1  0  0  0  0
 49 54  1  0  0  0  0
 49 76  1  0  0  0  0
 50 73  1  0  0  0  0
 52 69  1  0  0  0  0
 53 68  1  0  0  0  0
 54 75  1  0  0  0  0
 55 63  1  0  0  0  0
 56 64  1  0  0  0  0
 57 64  1  0  0  0  0
 58 64  1  0  0  0  0
 59 77  1  0  0  0  0
 60 76  1  0  0  0  0
 61 84  1  0  0  0  0
 62 64  1  0  0  0  0
 62 74  1  0  0  0  0
 63 77  1  0  0  0  0
 66 68  1  0  0  0  0
M  CHG  2  76   1  77   1
M  ISO  4  36 100  61 101  75 100  84 101
M  END
> <Batch ID>
0199

> <Smiles>
CNC(C)C(=O)NC(C(=O)N1Cc2cc([101O:1][101CH2:1]c3cnc(C4CC4)c(CN4CC([100NH:0][100C:0](=O)N5CCCC(n6nc(-c7ccc(Oc8ccc(F)cc8F)cc7)c(C(N)=O)c6N)C5)C4)n3)ccc2CC1C(=O)NC1CCCc2ccccc21)C(C)(C)C

> <Shape>
0.286

> <Color>
0.114

> <Negative vol penalty>
0.000

$$$$

  -OEChem-04052323503D

 86 95  0     1  0  0  0  0  0999 V2000
  -31.2564  -25.9593   17.2330 C   0  0  0  0  0  0  0  0  0  0  0  0
  -29.8951  -25.7121   17.3785 C   0  0  0  0  0  0  0  0  0  0  0  0
  -25.4287  -14.0421   20.1391 C   0  0  0  0  0  0  0  0  0  0  0  0
  -23.4190  -15.1451   19.3765 C   0  0  0  0  0  0  0  0  0  0  0  0
  -31.9616  -26.5939   18.2546 C   0  0  0  0  0  0  0  0  0  0  0  0
  -29.2384  -26.0986   18.5464 C   0  0  0  0  0  0  0  0  0  0  0  0
  -23.4755  -28.1124   19.0353 C   0  0  0  0  0  0  0  0  0  0  0  0
  -24.6547  -13.1018   20.8190 C   0  0  0  0  0  0  0  0  0  0  0  0
  -22.6450  -14.2048   20.0564 C   0  0  0  0  0  0  0  0  0  0  0  0
  -22.2879  -27.4783   19.3976 C   0  0  0  0  0  0  0  0  0  0  0  0
  -22.8778  -10.3253   20.0665 C   0  0  0  0  0  0  0  0  0  0  0  0
  -23.2347   -8.9824   19.9454 C   0  0  0  0  0  0  0  0  0  0  0  0
  -20.8105  -23.0686   17.2222 C   0  0  0  0  0  0  0  0  0  0  0  0
  -22.5634  -28.2682   21.6602 C   0  0  0  0  0  0  0  0  0  0  0  0
  -23.5610   -8.8536   22.3358 C   0  0  0  0  0  0  0  0  0  0  0  0
  -21.8947  -23.5325   16.5054 C   0  0  0  0  0  0  0  0  0  0  0  0
  -24.8109  -15.0638   19.4179 C   0  0  0  0  0  0  0  0  0  0  0  0
  -26.0708  -15.9579   17.3879 C   0  0  0  0  0  0  0  0  0  0  0  0
  -31.3113  -26.9970   19.4316 C   0  0  0  0  0  0  0  0  0  0  0  0
  -24.2229  -28.8212   19.9868 C   0  0  0  0  0  0  0  0  0  0  0  0
  -29.9359  -26.7380   19.5853 C   0  0  0  0  0  0  0  0  0  0  0  0
  -23.7589  -28.9126   21.3069 C   0  0  0  0  0  0  0  0  0  0  0  0
  -23.2628  -13.1831   20.7777 C   0  0  0  0  0  0  0  0  0  0  0  0
  -21.8332  -27.5537   20.7109 C   0  0  0  0  0  0  0  0  0  0  0  0
  -22.8625  -10.9325   21.3222 C   0  0  0  0  0  0  0  0  0  0  0  0
  -23.5763   -8.2465   21.0801 C   0  0  0  0  0  0  0  0  0  0  0  0
  -23.2041  -10.1966   22.4569 C   0  0  0  0  0  0  0  0  0  0  0  0
  -25.6100  -16.0358   18.7158 C   0  0  0  0  0  0  0  0  0  0  0  0
  -21.0350  -22.8424   18.5648 C   0  0  0  0  0  0  0  0  0  0  0  0
  -26.7785  -17.1201   17.2013 C   0  0  0  0  0  0  0  0  0  0  0  0
  -23.2008  -23.5031   18.3656 C   0  0  0  0  0  0  0  0  0  0  0  0
  -25.8766  -14.9271   16.4104 C   0  0  0  0  0  0  0  0  0  0  0  0
  -27.1474  -28.5450   21.2013 C   0  0  0  0  0  0  0  0  0  0  0  0
  -26.3862  -31.3435   22.6544 C   0  0  0  0  0  0  0  0  0  0  0  0
  -23.9536  -33.4479   23.7949 C   0  0  0  0  0  0  0  0  0  0  0  0
  -26.5264  -22.5090   19.7989 C   0  0  0  0  0  0  0  0  0  0  0  0
  -32.1253  -27.6373   20.5280 C   0  0  0  0  0  0  0  0  0  0  0  0
  -25.4881  -29.5221   19.5740 C   0  0  0  0  0  0  0  0  0  0  0  0
  -24.5137  -29.6782   22.3616 C   0  0  0  0  0  0  0  0  0  0  0  0
  -31.2780  -28.3513   21.5780 C   0  0  0  0  0  0  0  0  0  0  0  0
  -29.3576  -20.3595   19.5984 C   0  0  0  0  0  0  0  0  0  0  0  0
  -30.1096  -27.4709   22.0098 C   0  0  0  0  0  0  0  0  0  0  0  0
  -28.7598  -19.0006   19.2297 C   0  0  0  0  0  0  0  0  0  0  0  0
  -19.0108  -20.8073   20.2233 C   0  0  0  0  0  0  0  0  0  0  0  0
  -28.4485  -21.1372   20.5474 C   0  0  0  0  0  0  0  0  0  0  0  0
  -18.8776  -21.5637   18.8982 C   0  0  0  0  0  0  0  0  0  0  0  0
  -26.4620  -19.9430   19.7098 C   0  0  0  0  0  0  0  0  0  0  0  0
  -29.1832  -27.1644   20.8269 C   0  0  1  0  0  0  0  0  0  0  0  0
  -26.4339  -29.7850   20.7418 C   0  0  1  0  0  0  0  0  0  0  0  0
  -27.3167  -19.1452   18.7102 C   0  0  2  0  0  0  0  0  0  0  0  0
  -19.9400  -21.9447   20.6830 C   0  0  2  0  0  0  0  0  0  0  0  0
  -23.6398  -35.6423   24.9712 C   0  0  0  0  0  0  0  0  0  0  0  0
  -27.1400  -30.0290   25.3027 C   0  0  0  0  0  0  0  0  0  0  0  0
  -25.9325  -31.8770   26.4838 C   0  0  0  0  0  0  0  0  0  0  0  0
  -27.9112  -32.3951   25.0558 C   0  0  0  0  0  0  0  0  0  0  0  0
  -22.5002  -34.6067   21.4920 C   0  0  0  0  0  0  0  0  0  0  0  0
  -24.5281  -23.7453   19.0005 C   0  0  0  0  0  0  0  0  0  0  0  0
  -19.3283  -22.9578   21.6257 C   0  0  0  0  0  0  0  0  0  0  0  0
  -19.6269  -25.2887   22.4723 C   0  0  0  0  0  0  0  0  0  0  0  0
  -20.5734  -26.4714   22.4131 C   0  0  0  0  0  0  0  0  0  1  0  0
  -25.7329  -31.7270   23.9601 C   0  0  1  0  0  0  0  0  0  0  0  0
  -23.7547  -34.9433   23.6254 C   0  0  2  0  0  0  0  0  0  0  0  0
  -26.6657  -31.4909   25.1814 C   0  0  0  0  0  0  0  0  0  0  0  0
  -23.1089  -23.7617   17.0472 N   0  0  0  0  0  0  0  0  0  0  0  0
  -25.9928  -17.1586   19.3294 N   0  0  0  0  0  0  0  0  0  0  0  0
  -22.2221  -23.0496   19.1717 N   0  0  0  0  0  0  0  0  0  0  0  0
  -26.7018  -17.7970   18.3829 N   0  0  0  0  0  0  0  0  0  0  0  0
  -19.9676  -22.3760   19.3214 N   0  0  1  0  0  0  0  0  0  0  0  0
  -25.7484  -30.3410   21.9101 N   0  0  0  0  0  0  0  0  0  0  0  0
  -27.0954  -21.2399   19.9954 N   0  0  0  0  0  0  0  0  0  0  0  0
  -27.4528  -17.6189   16.1435 N   0  0  0  0  0  0  0  0  0  0  0  0
  -25.1234  -13.8005   16.7681 N   0  0  0  0  0  0  0  0  0  0  0  0
  -28.3362  -28.3023   20.5401 N   0  0  0  0  0  0  0  0  0  0  0  0
  -25.2900  -33.1084   23.8048 N   0  0  0  0  0  0  0  0  0  0  0  0
  -25.2433  -22.5169   19.2658 N   0  0  0  0  0  0  0  0  0  0  0  0
  -22.5134  -35.2158   22.8469 N   0  3  0  0  0  0  0  0  0  0  0  0
  -20.1600  -24.1916   21.6258 N   0  3  0  0  0  0  0  0  0  0  0  0
  -26.3704  -14.9953   15.2593 O   0  0  0  0  0  0  0  0  0  0  0  0
  -26.6564  -27.8601   22.0910 O   0  0  0  0  0  0  0  0  0  0  0  0
  -27.4204  -31.9175   22.3041 O   0  0  0  0  0  0  0  0  0  0  0  0
  -23.0173  -32.6603   23.9109 O   0  0  0  0  0  0  0  0  0  0  0  0
  -27.1201  -23.5575   20.0729 O   0  0  0  0  0  0  0  0  0  0  0  0
  -22.5072  -12.2656   21.4408 O   0  0  0  0  0  0  0  0  0  0  0  0
  -20.6746  -26.9352   21.0673 O   0  0  0  0  0  0  0  0  0  1  0  0
  -23.9175   -6.9564   20.9638 F   0  0  0  0  0  0  0  0  0  0  0  0
  -23.1901  -10.7741   23.6660 F   0  0  0  0  0  0  0  0  0  0  0  0
  1  2  1  0  0  0  0
  1  5  2  0  0  0  0
  2  6  2  0  0  0  0
  3  8  2  0  0  0  0
  3 17  1  0  0  0  0
  4  9  1  0  0  0  0
  4 17  2  0  0  0  0
  5 19  1  0  0  0  0
  6 21  1  0  0  0  0
  7 10  2  0  0  0  0
  7 20  1  0  0  0  0
  8 23  1  0  0  0  0
  9 23  2  0  0  0  0
 10 24  1  0  0  0  0
 11 12  2  0  0  0  0
 11 25  1  0  0  0  0
 12 26  1  0  0  0  0
 13 16  2  0  0  0  0
 13 29  1  0  0  0  0
 14 22  1  0  0  0  0
 14 24  2  0  0  0  0
 15 26  2  0  0  0  0
 15 27  1  0  0  0  0
 16 64  1  0  0  0  0
 17 28  1  0  0  0  0
 18 28  1  0  0  0  0
 18 30  2  0  0  0  0
 18 32  1  0  0  0  0
 19 21  2  0  0  0  0
 19 37  1  0  0  0  0
 20 22  2  0  0  0  0
 20 38  1  0  0  0  0
 21 48  1  0  0  0  0
 22 39  1  0  0  0  0
 23 83  1  0  0  0  0
 24 84  1  0  0  0  0
 25 27  2  0  0  0  0
 25 83  1  0  0  0  0
 26 85  1  0  0  0  0
 27 86  1  0  0  0  0
 28 65  2  0  0  0  0
 29 66  2  0  0  0  0
 29 68  1  0  0  0  0
 30 67  1  0  0  0  0
 30 71  1  0  0  0  0
 31 57  1  0  0  0  0
 31 64  2  0  0  0  0
 31 66  1  0  0  0  0
 32 72  1  0  0  0  0
 32 78  2  0  0  0  0
 33 49  1  0  0  0  0
 33 73  1  0  0  0  0
 33 79  2  0  0  0  0
 34 61  1  0  0  0  0
 34 69  1  0  0  0  0
 34 80  2  0  0  0  0
 35 62  1  0  0  0  0
 35 74  1  0  0  0  0
 35 81  2  0  0  0  0
 36 70  1  0  0  0  0
 36 75  1  0  0  0  0
 36 82  2  0  0  0  0
 37 40  1  0  0  0  0
 38 49  1  0  0  0  0
 39 69  1  0  0  0  0
 40 42  1  0  0  0  0
 41 43  1  0  0  0  0
 41 45  1  0  0  0  0
 42 48  1  0  0  0  0
 43 50  1  0  0  0  0
 44 46  1  0  0  0  0
 44 51  1  0  0  0  0
 45 70  1  0  0  0  0
 46 68  1  0  0  0  0
 47 50  1  0  0  0  0
 47 70  1  0  0  0  0
 48 73  1  0  0  0  0
 49 69  1  0  0  0  0
 50 67  1  0  0  0  0
 51 58  1  0  0  0  0
 51 68  1  0  0  0  0
 52 62  1  0  0  0  0
 53 63  1  0  0  0  0
 54 63  1  0  0  0  0
 55 63  1  0  0  0  0
 56 76  1  0  0  0  0
 57 75  1  0  0  0  0
 58 77  1  0  0  0  0
 59 60  1  0  0  0  0
 59 77  1  0  0  0  0
 60 84  1  0  0  0  0
 61 63  1  0  0  0  0
 61 74  1  0  0  0  0
 62 76  1  0  0  0  0
 65 67  1  0  0  0  0
M  CHG  2  76   1  77   1
M  ISO  4  36 100  60 101  75 100  84 101
M  END
> <Batch ID>
0199

> <Smiles>
CNC(C)C(=O)NC(C(=O)N1Cc2cc([101O:1][101CH2:1]CNCC3CCN3c3ccnc(C[100NH:0][100C:0](=O)N4CCCC(n5nc(-c6ccc(Oc7ccc(F)cc7F)cc6)c(C(N)=O)c5N)C4)n3)ccc2CC1C(=O)NC1CCCc2ccccc21)C(C)(C)C

> <Shape>
0.276

> <Color>
0.062

> <Negative vol penalty>
0.000

$$$$

  -OEChem-04052323503D

 84 93  0     1  0  0  0  0  0999 V2000
  -17.7671  -30.5042   25.8681 C   0  0  0  0  0  0  0  0  0  0  0  0
  -19.1347  -30.3938   26.0979 C   0  0  0  0  0  0  0  0  0  0  0  0
  -26.6145  -12.5184   21.5930 C   0  0  0  0  0  0  0  0  0  0  0  0
  -26.2118  -13.4882   19.4171 C   0  0  0  0  0  0  0  0  0  0  0  0
  -17.2140  -29.9862   24.6977 C   0  0  0  0  0  0  0  0  0  0  0  0
  -19.9499  -29.7643   25.1579 C   0  0  0  0  0  0  0  0  0  0  0  0
  -25.7294  -31.2113   23.7401 C   0  0  0  0  0  0  0  0  0  0  0  0
  -25.3220  -11.9942   21.5986 C   0  0  0  0  0  0  0  0  0  0  0  0
  -24.9193  -12.9639   19.4226 C   0  0  0  0  0  0  0  0  0  0  0  0
  -26.9545  -30.6794   24.1398 C   0  0  0  0  0  0  0  0  0  0  0  0
  -22.2514  -10.0961   22.0273 C   0  0  0  0  0  0  0  0  0  0  0  0
  -22.0900   -8.7730   22.4383 C   0  0  0  0  0  0  0  0  0  0  0  0
  -27.0017  -29.3113   22.1535 C   0  0  0  0  0  0  0  0  0  0  0  0
  -23.5325   -8.0397   20.6442 C   0  0  0  0  0  0  0  0  0  0  0  0
  -27.0594  -13.2655   20.5023 C   0  0  0  0  0  0  0  0  0  0  0  0
  -29.5604  -13.1907   20.0051 C   0  0  0  0  0  0  0  0  0  0  0  0
  -18.0243  -29.3586   23.7385 C   0  0  0  0  0  0  0  0  0  0  0  0
  -25.1249  -30.7885   22.5475 C   0  0  0  0  0  0  0  0  0  0  0  0
  -19.4070  -29.2363   23.9743 C   0  0  0  0  0  0  0  0  0  0  0  0
  -25.7701  -29.8413   21.7396 C   0  0  0  0  0  0  0  0  0  0  0  0
  -24.4743  -12.2168   20.5134 C   0  0  0  0  0  0  0  0  0  0  0  0
  -27.5895  -29.7271   23.3479 C   0  0  0  0  0  0  0  0  0  0  0  0
  -23.0533  -10.3910   20.9247 C   0  0  0  0  0  0  0  0  0  0  0  0
  -22.7306   -7.7448   21.7468 C   0  0  0  0  0  0  0  0  0  0  0  0
  -23.6938   -9.3629   20.2332 C   0  0  0  0  0  0  0  0  0  0  0  0
  -28.3943  -13.8079   20.4962 C   0  0  0  0  0  0  0  0  0  0  0  0
  -30.5560  -14.1099   20.2296 C   0  0  0  0  0  0  0  0  0  0  0  0
  -28.4112  -24.2680   24.1324 C   0  0  0  0  0  0  0  0  0  0  0  0
  -28.0018  -24.9868   25.3379 C   0  0  0  0  0  0  0  0  0  0  0  0
  -29.3583  -24.8280   23.3772 C   0  0  0  0  0  0  0  0  0  0  0  0
  -29.9347  -26.1412   23.8068 C   0  0  0  0  0  0  0  0  0  0  0  0
  -29.7286  -11.9018   19.4000 C   0  0  0  0  0  0  0  0  0  0  0  0
  -22.3995  -29.3291   21.8088 C   0  0  0  0  0  0  0  0  0  0  0  0
  -23.3642  -29.9126   18.7672 C   0  0  0  0  0  0  0  0  0  0  0  0
  -25.9382  -30.5212   16.6106 C   0  0  0  0  0  0  0  0  0  0  0  0
  -30.3242  -20.0104   20.7138 C   0  0  0  0  0  0  0  0  0  0  0  0
  -17.3740  -28.7722   22.5105 C   0  0  0  0  0  0  0  0  0  0  0  0
  -23.8160  -31.3917   22.1171 C   0  0  0  0  0  0  0  0  0  0  0  0
  -25.1729  -29.3690   20.4402 C   0  0  0  0  0  0  0  0  0  0  0  0
  -18.3623  -28.4521   21.3919 C   0  0  0  0  0  0  0  0  0  0  0  0
  -31.7879  -17.6797   23.1342 C   0  0  0  0  0  0  0  0  0  0  0  0
  -19.5776  -27.7166   21.9476 C   0  0  0  0  0  0  0  0  0  0  0  0
  -31.1332  -16.3689   22.7108 C   0  0  0  0  0  0  0  0  0  0  0  0
  -30.8631  -18.8817   22.9381 C   0  0  0  0  0  0  0  0  0  0  0  0
  -29.6562  -17.6718   21.1408 C   0  0  0  0  0  0  0  0  0  0  0  0
  -30.2942  -22.5602   20.5604 C   0  0  0  0  0  0  0  0  0  0  0  0
  -29.8693  -21.8514   22.5211 C   0  0  0  0  0  0  0  0  0  0  0  0
  -20.3279  -28.5823   22.9670 C   0  0  1  0  0  0  0  0  0  0  0  0
  -23.0443  -30.5100   21.1401 C   0  0  1  0  0  0  0  0  0  0  0  0
  -30.6043  -16.4716   21.2725 C   0  0  2  0  0  0  0  0  0  0  0  0
  -29.4029  -23.0623   21.7018 C   0  0  0  0  0  0  0  0  0  0  0  0
  -26.4196  -30.9178   14.1799 C   0  0  0  0  0  0  0  0  0  0  0  0
  -22.9869  -26.9367   18.2095 C   0  0  0  0  0  0  0  0  0  0  0  0
  -24.3530  -27.2241   16.1312 C   0  0  0  0  0  0  0  0  0  0  0  0
  -22.1945  -28.4492   16.3822 C   0  0  0  0  0  0  0  0  0  0  0  0
  -27.0564  -33.2076   17.1510 C   0  0  0  0  0  0  0  0  0  0  0  0
  -29.9844  -27.9711   25.4201 C   0  0  0  0  0  0  0  0  0  0  0  0
  -29.0329  -29.1200   25.1379 C   0  0  0  0  0  0  0  0  0  1  0  0
  -24.1956  -29.1711   17.7485 C   0  0  1  0  0  0  0  0  0  0  0  0
  -26.1151  -31.5645   15.5221 C   0  0  2  0  0  0  0  0  0  0  0  0
  -23.4431  -27.9525   17.1432 C   0  0  0  0  0  0  0  0  0  0  0  0
  -28.6261  -15.0249   20.9951 N   0  0  0  0  0  0  0  0  0  0  0  0
  -28.4681  -26.1157   25.7469 N   0  0  0  0  0  0  0  0  0  0  0  0
  -29.9494  -15.1799   20.8188 N   0  0  0  0  0  0  0  0  0  0  0  0
  -29.4383  -26.6969   24.9815 N   0  0  0  0  0  0  0  0  0  0  0  0
  -23.8887  -29.9838   20.0656 N   0  0  0  0  0  0  0  0  0  0  0  0
  -30.2908  -18.9177   21.5869 N   0  0  0  0  0  0  0  0  0  0  0  0
  -30.3010  -21.2749   21.2551 N   0  0  0  0  0  0  0  0  0  0  0  0
  -31.8823  -14.0991   19.9785 N   0  0  0  0  0  0  0  0  0  0  0  0
  -28.6009  -11.0841   19.2451 N   0  0  0  0  0  0  0  0  0  0  0  0
  -29.8440  -24.2990   22.2428 N   0  0  0  0  0  0  0  0  0  0  0  0
  -21.1289  -29.5799   22.2906 N   0  0  0  0  0  0  0  0  0  0  0  0
  -24.6157  -30.1628   16.7644 N   0  0  0  0  0  0  0  0  0  0  0  0
  -27.2353  -32.4858   15.8648 N   0  3  0  0  0  0  0  0  0  0  0  0
  -30.8093  -26.6673   23.1156 O   0  0  0  0  0  0  0  0  0  0  0  0
  -30.8486  -11.4808   19.0232 O   0  0  0  0  0  0  0  0  0  0  0  0
  -23.0089  -28.2684   21.8809 O   0  0  0  0  0  0  0  0  0  0  0  0
  -22.2926  -30.4166   18.4220 O   0  0  0  0  0  0  0  0  0  0  0  0
  -26.8796  -30.0667   17.2569 O   0  0  0  0  0  0  0  0  0  0  0  0
  -30.3425  -19.8643   19.4845 O   0  0  0  0  0  0  0  0  0  0  0  0
  -23.2131  -11.7052   20.5184 O   0  0  0  0  0  0  0  0  0  0  0  0
  -28.7936  -29.2021   23.7388 O   0  0  0  0  0  0  0  0  0  1  0  0
  -22.5767   -6.4744   22.1425 F   0  0  0  0  0  0  0  0  0  0  0  0
  -24.4664   -9.6402   19.1739 F   0  0  0  0  0  0  0  0  0  0  0  0
  1  2  1  0  0  0  0
  1  5  2  0  0  0  0
  2  6  2  0  0  0  0
  3  8  2  0  0  0  0
  3 15  1  0  0  0  0
  4  9  1  0  0  0  0
  4 15  2  0  0  0  0
  5 17  1  0  0  0  0
  6 19  1  0  0  0  0
  7 10  2  0  0  0  0
  7 18  1  0  0  0  0
  8 21  1  0  0  0  0
  9 21  2  0  0  0  0
 10 22  1  0  0  0  0
 11 12  2  0  0  0  0
 11 23  1  0  0  0  0
 12 24  1  0  0  0  0
 13 20  1  0  0  0  0
 13 22  2  0  0  0  0
 14 24  2  0  0  0  0
 14 25  1  0  0  0  0
 15 26  1  0  0  0  0
 16 26  1  0  0  0  0
 16 27  2  0  0  0  0
 16 32  1  0  0  0  0
 17 19  2  0  0  0  0
 17 37  1  0  0  0  0
 18 20  2  0  0  0  0
 18 38  1  0  0  0  0
 19 48  1  0  0  0  0
 20 39  1  0  0  0  0
 21 81  1  0  0  0  0
 22 82  1  0  0  0  0
 23 25  2  0  0  0  0
 23 81  1  0  0  0  0
 24 83  1  0  0  0  0
 25 84  1  0  0  0  0
 26 62  2  0  0  0  0
 27 64  1  0  0  0  0
 27 69  1  0  0  0  0
 28 29  1  0  0  0  0
 28 30  2  0  0  0  0
 29 63  2  0  0  0  0
 30 31  1  0  0  0  0
 30 71  1  0  0  0  0
 31 65  1  0  0  0  0
 31 75  2  0  0  0  0
 32 70  1  0  0  0  0
 32 76  2  0  0  0  0
 33 49  1  0  0  0  0
 33 72  1  0  0  0  0
 33 77  2  0  0  0  0
 34 59  1  0  0  0  0
 34 66  1  0  0  0  0
 34 78  2  0  0  0  0
 35 60  1  0  0  0  0
 35 73  1  0  0  0  0
 35 79  2  0  0  0  0
 36 67  1  0  0  0  0
 36 68  1  0  0  0  0
 36 80  2  0  0  0  0
 37 40  1  0  0  0  0
 38 49  1  0  0  0  0
 39 66  1  0  0  0  0
 40 42  1  0  0  0  0
 41 43  1  0  0  0  0
 41 44  1  0  0  0  0
 42 48  1  0  0  0  0
 43 50  1  0  0  0  0
 44 67  1  0  0  0  0
 45 50  1  0  0  0  0
 45 67  1  0  0  0  0
 46 51  1  0  0  0  0
 46 68  1  0  0  0  0
 47 51  1  0  0  0  0
 47 68  1  0  0  0  0
 48 72  1  0  0  0  0
 49 66  1  0  0  0  0
 50 64  1  0  0  0  0
 51 71  1  0  0  0  0
 52 60  1  0  0  0  0
 53 61  1  0  0  0  0
 54 61  1  0  0  0  0
 55 61  1  0  0  0  0
 56 74  1  0  0  0  0
 57 58  1  0  0  0  0
 57 65  1  0  0  0  0
 58 82  1  0  0  0  0
 59 61  1  0  0  0  0
 59 73  1  0  0  0  0
 60 74  1  0  0  0  0
 62 64  1  0  0  0  0
 63 65  1  0  0  0  0
M  CHG  1  74   1
M  ISO  4  36 100  58 101  68 100  82 101
M  END
> <Batch ID>
0199

> <Smiles>
CNC(C)C(=O)NC(C(=O)N1Cc2cc([101O:1][101CH2:1]Cn3nccc(NC4C[100N:0]([100C:0](=O)N5CCCC(n6nc(-c7ccc(Oc8ccc(F)cc8F)cc7)c(C(N)=O)c6N)C5)C4)c3=O)ccc2CC1C(=O)NC1CCCc2ccccc21)C(C)(C)C

> <Shape>
0.295

> <Color>
0.092

> <Negative vol penalty>
0.000

$$$$

  -OEChem-04052323503D

 82 91  0     1  0  0  0  0  0999 V2000
  -25.6792  -37.5348   22.9118 C   0  0  0  0  0  0  0  0  0  0  0  0
  -26.3506  -36.6769   22.0466 C   0  0  0  0  0  0  0  0  0  0  0  0
  -24.5416   -9.5124   22.2232 C   0  0  0  0  0  0  0  0  0  0  0  0
  -23.6176   -9.9877   20.0420 C   0  0  0  0  0  0  0  0  0  0  0  0
  -25.0657  -37.0284   24.0568 C   0  0  0  0  0  0  0  0  0  0  0  0
  -26.4098  -35.3122   22.3265 C   0  0  0  0  0  0  0  0  0  0  0  0
  -26.5869  -28.9439   19.0507 C   0  0  0  0  0  0  0  0  0  0  0  0
  -23.3913   -8.7964   22.5545 C   0  0  0  0  0  0  0  0  0  0  0  0
  -22.4673   -9.2716   20.3733 C   0  0  0  0  0  0  0  0  0  0  0  0
  -27.3329  -27.7663   19.0250 C   0  0  0  0  0  0  0  0  0  0  0  0
  -22.1000   -5.7328   21.9377 C   0  0  0  0  0  0  0  0  0  0  0  0
  -22.2634   -4.4978   22.5650 C   0  0  0  0  0  0  0  0  0  0  0  0
  -30.8928  -22.6272   19.5402 C   0  0  0  0  0  0  0  0  0  0  0  0
  -26.1685  -26.9929   20.9910 C   0  0  0  0  0  0  0  0  0  0  0  0
  -21.0140   -5.3005   24.4707 C   0  0  0  0  0  0  0  0  0  0  0  0
  -30.7138  -23.9887   19.5700 C   0  0  0  0  0  0  0  0  0  0  0  0
  -24.6547  -10.1081   20.9670 C   0  0  0  0  0  0  0  0  0  0  0  0
  -27.0113  -10.3479   20.0200 C   0  0  0  0  0  0  0  0  0  0  0  0
  -25.1092  -35.6554   24.3459 C   0  0  0  0  0  0  0  0  0  0  0  0
  -25.6322  -29.1599   20.0549 C   0  0  0  0  0  0  0  0  0  0  0  0
  -25.7975  -34.7871   23.4771 C   0  0  0  0  0  0  0  0  0  0  0  0
  -25.4100  -28.1729   21.0258 C   0  0  0  0  0  0  0  0  0  0  0  0
  -22.3542   -8.6759   21.6295 C   0  0  0  0  0  0  0  0  0  0  0  0
  -27.1258  -26.7918   19.9969 C   0  0  0  0  0  0  0  0  0  0  0  0
  -21.3937   -6.7518   22.5768 C   0  0  0  0  0  0  0  0  0  0  0  0
  -21.7204   -4.2816   23.8315 C   0  0  0  0  0  0  0  0  0  0  0  0
  -20.8506   -6.5356   23.8433 C   0  0  0  0  0  0  0  0  0  0  0  0
  -25.8425  -10.8483   20.6244 C   0  0  0  0  0  0  0  0  0  0  0  0
  -29.6843  -22.1246   19.0220 C   0  0  0  0  0  0  0  0  0  0  0  0
  -27.8351  -11.4412   19.9083 C   0  0  0  0  0  0  0  0  0  0  0  0
  -27.3242   -9.0141   19.5973 C   0  0  0  0  0  0  0  0  0  0  0  0
  -25.2616  -31.3014   22.3744 C   0  0  0  0  0  0  0  0  0  0  0  0
  -22.4231  -29.7866   22.7874 C   0  0  0  0  0  0  0  0  0  0  0  0
  -20.5686  -26.9494   22.3902 C   0  0  0  0  0  0  0  0  0  0  0  0
  -28.8250  -16.5761   18.6852 C   0  0  0  0  0  0  0  0  0  0  0  0
  -24.4715  -35.1613   25.6202 C   0  0  0  0  0  0  0  0  0  0  0  0
  -24.8170  -30.4239   20.0531 C   0  0  0  0  0  0  0  0  0  0  0  0
  -24.3827  -28.3475   22.1134 C   0  0  0  0  0  0  0  0  0  0  0  0
  -24.2603  -33.6497   25.6493 C   0  0  0  0  0  0  0  0  0  0  0  0
  -27.4602  -16.0752   21.8830 C   0  0  0  0  0  0  0  0  0  0  0  0
  -25.5187  -32.9258   25.1811 C   0  0  0  0  0  0  0  0  0  0  0  0
  -27.0056  -14.6187   21.7945 C   0  0  0  0  0  0  0  0  0  0  0  0
  -27.1769  -16.8435   20.5911 C   0  0  0  0  0  0  0  0  0  0  0  0
  -30.5572  -19.8147   19.1977 C   0  0  0  0  0  0  0  0  0  0  0  0
  -28.1092  -20.2421   18.9314 C   0  0  0  0  0  0  0  0  0  0  0  0
  -30.3829  -18.4776   18.4826 C   0  0  0  0  0  0  0  0  0  0  0  0
  -27.9808  -18.9047   18.2106 C   0  0  0  0  0  0  0  0  0  0  0  0
  -27.2715  -14.7431   19.2882 C   0  0  0  0  0  0  0  0  0  0  0  0
  -25.8625  -33.2971   23.7335 C   0  0  1  0  0  0  0  0  0  0  0  0
  -24.2332  -30.7604   21.4219 C   0  0  1  0  0  0  0  0  0  0  0  0
  -27.5963  -13.9303   20.5512 C   0  0  2  0  0  0  0  0  0  0  0  0
  -18.2934  -26.0012   22.8611 C   0  0  0  0  0  0  0  0  0  0  0  0
  -23.1785  -29.4385   25.7231 C   0  0  0  0  0  0  0  0  0  0  0  0
  -21.3786  -27.7082   25.9090 C   0  0  0  0  0  0  0  0  0  0  0  0
  -20.7890  -30.0613   25.3276 C   0  0  0  0  0  0  0  0  0  0  0  0
  -20.0196  -26.5313   19.5122 C   0  0  0  0  0  0  0  0  0  0  0  0
  -28.8153  -25.4926   18.9268 C   0  0  0  0  0  0  0  0  0  1  0  0
  -21.9473  -28.6130   23.6092 C   0  0  1  0  0  0  0  0  0  0  0  0
  -19.1665  -26.7297   21.8513 C   0  0  2  0  0  0  0  0  0  0  0  0
  -21.8441  -28.9525   25.1230 C   0  0  0  0  0  0  0  0  0  0  0  0
  -25.9136  -12.1576   20.8790 N   0  0  0  0  0  0  0  0  0  0  0  0
  -28.8026  -23.0882   18.7428 N   0  0  0  0  0  0  0  0  0  0  0  0
  -29.4576  -24.2101   19.0869 N   0  0  0  0  0  0  0  0  0  0  0  0
  -27.1371  -12.4891   20.4325 N   0  0  0  0  0  0  0  0  0  0  0  0
  -29.4850  -20.7500   18.8405 N   0  0  0  0  0  0  0  0  0  0  0  0
  -23.6153  -29.6033   22.0727 N   0  0  0  0  0  0  0  0  0  0  0  0
  -27.7233  -16.1288   19.4297 N   0  0  0  0  0  0  0  0  0  0  0  0
  -29.0255  -17.9640   18.6204 N   0  0  0  0  0  0  0  0  0  0  0  0
  -29.0814  -11.5987   19.4139 N   0  0  0  0  0  0  0  0  0  0  0  0
  -26.3641   -8.0107   19.7862 N   0  0  0  0  0  0  0  0  0  0  0  0
  -25.0025  -32.5864   22.8116 N   0  0  0  0  0  0  0  0  0  0  0  0
  -20.6919  -28.1760   23.0079 N   0  0  0  0  0  0  0  0  0  0  0  0
  -19.2131  -25.9211   20.6004 N   0  3  0  0  0  0  0  0  0  0  0  0
  -28.4291   -8.7175   19.0827 O   0  0  0  0  0  0  0  0  0  0  0  0
  -26.2185  -30.6042   22.6905 O   0  0  0  0  0  0  0  0  0  0  0  0
  -21.7577  -30.8252   22.7743 O   0  0  0  0  0  0  0  0  0  0  0  0
  -21.4637  -26.1148   22.2778 O   0  0  0  0  0  0  0  0  0  0  0  0
  -29.5864  -15.7853   18.1145 O   0  0  0  0  0  0  0  0  0  0  0  0
  -21.2317   -7.9771   21.9524 O   0  0  0  0  0  0  0  0  0  0  0  0
  -27.8576  -25.6344   19.9743 O   0  0  0  0  0  0  0  0  0  1  0  0
  -21.8760   -3.0951   24.4332 F   0  0  0  0  0  0  0  0  0  0  0  0
  -20.1700   -7.5103   24.4619 F   0  0  0  0  0  0  0  0  0  0  0  0
  1  2  1  0  0  0  0
  1  5  2  0  0  0  0
  2  6  2  0  0  0  0
  3  8  2  0  0  0  0
  3 17  1  0  0  0  0
  4  9  1  0  0  0  0
  4 17  2  0  0  0  0
  5 19  1  0  0  0  0
  6 21  1  0  0  0  0
  7 10  2  0  0  0  0
  7 20  1  0  0  0  0
  8 23  1  0  0  0  0
  9 23  2  0  0  0  0
 10 24  1  0  0  0  0
 11 12  2  0  0  0  0
 11 25  1  0  0  0  0
 12 26  1  0  0  0  0
 13 16  2  0  0  0  0
 13 29  1  0  0  0  0
 14 22  1  0  0  0  0
 14 24  2  0  0  0  0
 15 26  2  0  0  0  0
 15 27  1  0  0  0  0
 16 63  1  0  0  0  0
 17 28  1  0  0  0  0
 18 28  1  0  0  0  0
 18 30  2  0  0  0  0
 18 31  1  0  0  0  0
 19 21  2  0  0  0  0
 19 36  1  0  0  0  0
 20 22  2  0  0  0  0
 20 37  1  0  0  0  0
 21 49  1  0  0  0  0
 22 38  1  0  0  0  0
 23 79  1  0  0  0  0
 24 80  1  0  0  0  0
 25 27  2  0  0  0  0
 25 79  1  0  0  0  0
 26 81  1  0  0  0  0
 27 82  1  0  0  0  0
 28 61  2  0  0  0  0
 29 62  2  0  0  0  0
 29 65  1  0  0  0  0
 30 64  1  0  0  0  0
 30 69  1  0  0  0  0
 31 70  1  0  0  0  0
 31 74  2  0  0  0  0
 32 50  1  0  0  0  0
 32 71  1  0  0  0  0
 32 75  2  0  0  0  0
 33 58  1  0  0  0  0
 33 66  1  0  0  0  0
 33 76  2  0  0  0  0
 34 59  1  0  0  0  0
 34 72  1  0  0  0  0
 34 77  2  0  0  0  0
 35 67  1  0  0  0  0
 35 68  1  0  0  0  0
 35 78  2  0  0  0  0
 36 39  1  0  0  0  0
 37 50  1  0  0  0  0
 38 66  1  0  0  0  0
 39 41  1  0  0  0  0
 40 42  1  0  0  0  0
 40 43  1  0  0  0  0
 41 49  1  0  0  0  0
 42 51  1  0  0  0  0
 43 67  1  0  0  0  0
 44 46  1  0  0  0  0
 44 65  1  0  0  0  0
 45 47  1  0  0  0  0
 45 65  1  0  0  0  0
 46 68  1  0  0  0  0
 47 68  1  0  0  0  0
 48 51  1  0  0  0  0
 48 67  1  0  0  0  0
 49 71  1  0  0  0  0
 50 66  1  0  0  0  0
 51 64  1  0  0  0  0
 52 59  1  0  0  0  0
 53 60  1  0  0  0  0
 54 60  1  0  0  0  0
 55 60  1  0  0  0  0
 56 73  1  0  0  0  0
 57 63  1  0  0  0  0
 57 80  1  0  0  0  0
 58 60  1  0  0  0  0
 58 72  1  0  0  0  0
 59 73  1  0  0  0  0
 61 64  1  0  0  0  0
 62 63  1  0  0  0  0
M  CHG  1  73   1
M  ISO  4  35 100  57 101  68 100  80 101
M  END
> <Batch ID>
0199

> <Smiles>
CNC(C)C(=O)NC(C(=O)N1Cc2cc([101O:1][101CH2:1]n3ccc(N4CC[100N:0]([100C:0](=O)N5CCCC(n6nc(-c7ccc(Oc8ccc(F)cc8F)cc7)c(C(N)=O)c6N)C5)CC4)n3)ccc2CC1C(=O)NC1CCCc2ccccc21)C(C)(C)C

> <Shape>
0.380

> <Color>
0.106

> <Negative vol penalty>
0.000

$$$$

  -OEChem-04052323503D

 84 93  0     1  0  0  0  0  0999 V2000
  -32.1320  -30.9870   16.5222 C   0  0  0  0  0  0  0  0  0  0  0  0
  -30.8152  -30.5448   16.5992 C   0  0  0  0  0  0  0  0  0  0  0  0
  -28.3574  -18.7089   21.1349 C   0  0  0  0  0  0  0  0  0  0  0  0
  -28.0791  -17.9965   18.8432 C   0  0  0  0  0  0  0  0  0  0  0  0
  -33.1509  -30.2464   17.1198 C   0  0  0  0  0  0  0  0  0  0  0  0
  -30.5167  -29.3610   17.2730 C   0  0  0  0  0  0  0  0  0  0  0  0
  -26.4755  -29.8096   20.2916 C   0  0  0  0  0  0  0  0  0  0  0  0
  -29.0390  -17.5258   21.4200 C   0  0  0  0  0  0  0  0  0  0  0  0
  -28.7608  -16.8134   19.1282 C   0  0  0  0  0  0  0  0  0  0  0  0
  -25.2206  -29.7724   19.6853 C   0  0  0  0  0  0  0  0  0  0  0  0
  -30.1127  -13.4462   19.3386 C   0  0  0  0  0  0  0  0  0  0  0  0
  -29.5748  -12.2547   18.8522 C   0  0  0  0  0  0  0  0  0  0  0  0
  -24.9841  -27.4600   20.3304 C   0  0  0  0  0  0  0  0  0  0  0  0
  -27.5534  -12.6520   20.1144 C   0  0  0  0  0  0  0  0  0  0  0  0
  -27.8774  -18.9442   19.8465 C   0  0  0  0  0  0  0  0  0  0  0  0
  -27.7271  -21.3809   19.1064 C   0  0  0  0  0  0  0  0  0  0  0  0
  -32.8636  -29.0579   17.8095 C   0  0  0  0  0  0  0  0  0  0  0  0
  -26.9997  -28.6672   20.9135 C   0  0  0  0  0  0  0  0  0  0  0  0
  -31.5330  -28.6030   17.8792 C   0  0  0  0  0  0  0  0  0  0  0  0
  -26.2448  -27.4860   20.9461 C   0  0  0  0  0  0  0  0  0  0  0  0
  -29.2408  -16.5781   20.4166 C   0  0  0  0  0  0  0  0  0  0  0  0
  -24.4759  -28.5966   19.7021 C   0  0  0  0  0  0  0  0  0  0  0  0
  -29.3710  -14.2406   20.2130 C   0  0  0  0  0  0  0  0  0  0  0  0
  -28.2951  -11.8576   19.2401 C   0  0  0  0  0  0  0  0  0  0  0  0
  -28.0913  -13.8435   20.6008 C   0  0  0  0  0  0  0  0  0  0  0  0
  -27.1727  -20.1659   19.5516 C   0  0  0  0  0  0  0  0  0  0  0  0
  -26.6495  -22.2222   18.9748 C   0  0  0  0  0  0  0  0  0  0  0  0
  -29.0940  -21.7187   18.8359 C   0  0  0  0  0  0  0  0  0  0  0  0
  -29.5551  -26.8344   20.4507 C   0  0  0  0  0  0  0  0  0  0  0  0
  -28.5489  -25.4138   23.1879 C   0  0  0  0  0  0  0  0  0  0  0  0
  -25.3995  -24.3889   24.6190 C   0  0  0  0  0  0  0  0  0  0  0  0
  -21.3835  -22.2029   21.6943 C   0  0  0  0  0  0  0  0  0  0  0  0
  -34.0044  -28.2668   18.3989 C   0  0  0  0  0  0  0  0  0  0  0  0
  -28.3434  -28.7313   21.5862 C   0  0  0  0  0  0  0  0  0  0  0  0
  -26.7538  -26.2380   21.6183 C   0  0  0  0  0  0  0  0  0  0  0  0
  -33.5578  -27.2187   19.4150 C   0  0  0  0  0  0  0  0  0  0  0  0
  -21.9712  -22.2225   18.0757 C   0  0  0  0  0  0  0  0  0  0  0  0
  -19.5436  -28.0365   23.6411 C   0  0  0  0  0  0  0  0  0  0  0  0
  -32.3721  -26.4243   18.8765 C   0  0  0  0  0  0  0  0  0  0  0  0
  -23.4184  -21.7460   18.0118 C   0  0  0  0  0  0  0  0  0  0  0  0
  -18.4423  -27.0348   23.3491 C   0  0  0  0  0  0  0  0  0  0  0  0
  -18.4091  -21.2357   22.9178 C   0  0  0  0  0  0  0  0  0  0  0  0
  -21.1975  -21.5795   19.2274 C   0  0  0  0  0  0  0  0  0  0  0  0
  -19.0575  -21.0171   21.5473 C   0  0  0  0  0  0  0  0  0  0  0  0
  -23.3139  -21.2557   20.4801 C   0  0  0  0  0  0  0  0  0  0  0  0
  -19.9740  -28.4699   22.2575 C   0  0  0  0  0  0  0  0  0  0  0  0
  -31.1663  -27.3369   18.6225 C   0  0  1  0  0  0  0  0  0  0  0  0
  -28.9992  -27.3628   21.7428 C   0  0  1  0  0  0  0  0  0  0  0  0
  -24.1119  -21.9492   19.3671 C   0  0  1  0  0  0  0  0  0  0  0  0
  -19.2486  -22.5140   23.0640 C   0  0  2  0  0  0  0  0  0  0  0  0
  -18.9326  -26.2577   22.1276 C   0  0  2  0  0  0  0  0  0  0  0  0
  -24.7069  -24.1210   27.0160 C   0  0  0  0  0  0  0  0  0  0  0  0
  -29.3481  -22.4960   22.7905 C   0  0  0  0  0  0  0  0  0  0  0  0
  -27.3877  -21.8394   24.2027 C   0  0  0  0  0  0  0  0  0  0  0  0
  -29.2173  -23.2258   25.1789 C   0  0  0  0  0  0  0  0  0  0  0  0
  -23.0945  -26.2136   24.2779 C   0  0  0  0  0  0  0  0  0  0  0  0
  -18.5787  -23.8341   22.7370 C   0  0  0  0  0  0  0  0  0  0  0  0
  -19.6044  -24.9394   22.4843 C   0  0  0  0  0  0  0  0  0  0  0  0
  -20.8931  -28.2257   19.4293 C   0  0  0  0  0  0  0  0  0  0  0  0
  -19.7797  -27.3631   20.0042 C   0  0  0  0  0  0  0  0  0  0  0  0
  -22.2891  -27.6627   19.6658 C   0  0  0  0  0  0  0  0  0  1  0  0
  -27.6206  -24.2707   23.5203 C   0  0  1  0  0  0  0  0  0  0  0  0
  -24.6851  -25.0284   25.7958 C   0  0  2  0  0  0  0  0  0  0  0  0
  -28.3898  -22.9738   23.8997 C   0  0  0  0  0  0  0  0  0  0  0  0
  -25.8459  -20.2259   19.6935 N   0  0  0  0  0  0  0  0  0  0  0  0
  -25.5577  -21.4888   19.3355 N   0  0  0  0  0  0  0  0  0  0  0  0
  -28.0758  -26.3490   22.2566 N   0  0  0  0  0  0  0  0  0  0  0  0
  -21.9145  -21.6973   20.5026 N   0  0  0  0  0  0  0  0  0  0  0  0
  -20.0403  -22.0181   21.9360 N   0  0  0  0  0  0  0  0  0  0  0  0
  -26.5389  -23.5106   18.5870 N   0  0  0  0  0  0  0  0  0  0  0  0
  -30.0749  -20.7353   19.0233 N   0  0  0  0  0  0  0  0  0  0  0  0
  -30.5020  -27.6551   19.8682 N   0  0  0  0  0  0  0  0  0  0  0  0
  -26.7259  -24.7614   24.5629 N   0  0  0  0  0  0  0  0  0  0  0  0
  -19.9652  -27.1759   21.4766 N   0  3  1  0  0  0  0  0  0  0  0  0
  -23.2644  -25.3128   25.4470 N   0  3  0  0  0  0  0  0  0  0  0  0
  -29.4373  -22.8636   18.4555 O   0  0  0  0  0  0  0  0  0  0  0  0
  -29.1557  -25.7608   20.0153 O   0  0  0  0  0  0  0  0  0  0  0  0
  -29.6503  -25.4785   23.7396 O   0  0  0  0  0  0  0  0  0  0  0  0
  -24.8381  -23.6314   23.8305 O   0  0  0  0  0  0  0  0  0  0  0  0
  -22.0905  -22.7755   22.5340 O   0  0  0  0  0  0  0  0  0  0  0  0
  -29.9061  -15.4236   20.6944 O   0  0  0  0  0  0  0  0  0  0  0  0
  -23.2425  -28.5571   19.1063 O   0  0  0  0  0  0  0  0  0  1  0  0
  -27.7781  -10.7142   18.7717 F   0  0  0  0  0  0  0  0  0  0  0  0
  -27.3735  -14.6031   21.4396 F   0  0  0  0  0  0  0  0  0  0  0  0
  1  2  1  0  0  0  0
  1  5  2  0  0  0  0
  2  6  2  0  0  0  0
  3  8  2  0  0  0  0
  3 15  1  0  0  0  0
  4  9  1  0  0  0  0
  4 15  2  0  0  0  0
  5 17  1  0  0  0  0
  6 19  1  0  0  0  0
  7 10  2  0  0  0  0
  7 18  1  0  0  0  0
  8 21  1  0  0  0  0
  9 21  2  0  0  0  0
 10 22  1  0  0  0  0
 11 12  2  0  0  0  0
 11 23  1  0  0  0  0
 12 24  1  0  0  0  0
 13 20  1  0  0  0  0
 13 22  2  0  0  0  0
 14 24  2  0  0  0  0
 14 25  1  0  0  0  0
 15 26  1  0  0  0  0
 16 26  1  0  0  0  0
 16 27  2  0  0  0  0
 16 28  1  0  0  0  0
 17 19  2  0  0  0  0
 17 33  1  0  0  0  0
 18 20  2  0  0  0  0
 18 34  1  0  0  0  0
 19 47  1  0  0  0  0
 20 35  1  0  0  0  0
 21 81  1  0  0  0  0
 22 82  1  0  0  0  0
 23 25  2  0  0  0  0
 23 81  1  0  0  0  0
 24 83  1  0  0  0  0
 25 84  1  0  0  0  0
 26 65  2  0  0  0  0
 27 66  1  0  0  0  0
 27 70  1  0  0  0  0
 28 71  1  0  0  0  0
 28 76  2  0  0  0  0
 29 48  1  0  0  0  0
 29 72  1  0  0  0  0
 29 77  2  0  0  0  0
 30 62  1  0  0  0  0
 30 67  1  0  0  0  0
 30 78  2  0  0  0  0
 31 63  1  0  0  0  0
 31 73  1  0  0  0  0
 31 79  2  0  0  0  0
 32 68  1  0  0  0  0
 32 69  1  0  0  0  0
 32 80  2  0  0  0  0
 33 36  1  0  0  0  0
 34 48  1  0  0  0  0
 35 67  1  0  0  0  0
 36 39  1  0  0  0  0
 37 40  1  0  0  0  0
 37 43  1  0  0  0  0
 38 41  1  0  0  0  0
 38 46  1  0  0  0  0
 39 47  1  0  0  0  0
 40 49  1  0  0  0  0
 41 51  1  0  0  0  0
 42 44  1  0  0  0  0
 42 50  1  0  0  0  0
 43 68  1  0  0  0  0
 44 69  1  0  0  0  0
 45 49  1  0  0  0  0
 45 68  1  0  0  0  0
 46 74  1  0  0  0  0
 47 72  1  0  0  0  0
 48 67  1  0  0  0  0
 49 66  1  0  0  0  0
 50 57  1  0  0  0  0
 50 69  1  0  0  0  0
 51 58  1  0  0  0  0
 51 74  1  0  0  0  0
 52 63  1  0  0  0  0
 53 64  1  0  0  0  0
 54 64  1  0  0  0  0
 55 64  1  0  0  0  0
 56 75  1  0  0  0  0
 57 58  1  0  0  0  0
 59 60  1  0  0  0  0
 59 61  1  0  0  0  0
 60 74  1  0  0  0  0
 61 82  1  0  0  0  0
 62 64  1  0  0  0  0
 62 73  1  0  0  0  0
 63 75  1  0  0  0  0
 65 66  1  0  0  0  0
M  CHG  2  74   1  75   1
M  ISO  4  32 100  61 101  69 100  82 101
M  END
> <Batch ID>
0199

> <Smiles>
CNC(C)C(=O)NC(C(=O)N1Cc2cc([101O:1][101CH2:1]CCN3CCCC3CCC3CC[100N:0]3[100C:0](=O)N3CCCC(n4nc(-c5ccc(Oc6ccc(F)cc6F)cc5)c(C(N)=O)c4N)C3)ccc2CC1C(=O)NC1CCCc2ccccc21)C(C)(C)C

> <Shape>
0.203

> <Color>
0.068

> <Negative vol penalty>
0.000

$$$$

  -OEChem-04052323503D

 86 96  0     1  0  0  0  0  0999 V2000
  -16.2577  -29.3863   23.3398 C   0  0  0  0  0  0  0  0  0  0  0  0
  -16.9808  -29.5954   22.1698 C   0  0  0  0  0  0  0  0  0  0  0  0
  -25.8098   -8.2617   22.1859 C   0  0  0  0  0  0  0  0  0  0  0  0
  -25.6944   -8.3190   19.7733 C   0  0  0  0  0  0  0  0  0  0  0  0
  -16.8012  -29.7559   24.5693 C   0  0  0  0  0  0  0  0  0  0  0  0
  -18.2475  -30.1754   22.2287 C   0  0  0  0  0  0  0  0  0  0  0  0
  -25.0928  -27.5205   19.5603 C   0  0  0  0  0  0  0  0  0  0  0  0
  -26.2621   -6.9433   22.1330 C   0  0  0  0  0  0  0  0  0  0  0  0
  -26.1468   -7.0006   19.7204 C   0  0  0  0  0  0  0  0  0  0  0  0
  -26.3866  -27.0854   19.2722 C   0  0  0  0  0  0  0  0  0  0  0  0
  -24.9309   -3.8702   21.6765 C   0  0  0  0  0  0  0  0  0  0  0  0
  -24.3565   -2.9530   22.5564 C   0  0  0  0  0  0  0  0  0  0  0  0
  -27.2612  -28.4774   21.0457 C   0  0  0  0  0  0  0  0  0  0  0  0
  -26.5270   -2.5250   23.5274 C   0  0  0  0  0  0  0  0  0  0  0  0
  -25.5259   -8.9496   21.0060 C   0  0  0  0  0  0  0  0  0  0  0  0
  -23.8907  -10.7848   21.6883 C   0  0  0  0  0  0  0  0  0  0  0  0
  -18.0792  -30.3318   24.6442 C   0  0  0  0  0  0  0  0  0  0  0  0
  -24.8764  -28.4251   20.6035 C   0  0  0  0  0  0  0  0  0  0  0  0
  -18.8081  -30.5543   23.4603 C   0  0  0  0  0  0  0  0  0  0  0  0
  -25.9661  -28.9073   21.3470 C   0  0  0  0  0  0  0  0  0  0  0  0
  -26.4306   -6.3127   20.9003 C   0  0  0  0  0  0  0  0  0  0  0  0
  -27.4681  -27.5628   20.0130 C   0  0  0  0  0  0  0  0  0  0  0  0
  -26.3035   -4.1148   21.7220 C   0  0  0  0  0  0  0  0  0  0  0  0
  -25.1545   -2.2804   23.4818 C   0  0  0  0  0  0  0  0  0  0  0  0
  -27.1015   -3.4422   22.6474 C   0  0  0  0  0  0  0  0  0  0  0  0
  -25.0580  -10.3113   21.0600 C   0  0  0  0  0  0  0  0  0  0  0  0
  -23.8998  -12.1383   21.4545 C   0  0  0  0  0  0  0  0  0  0  0  0
  -22.8878  -10.0656   22.4181 C   0  0  0  0  0  0  0  0  0  0  0  0
  -22.3967  -30.4200   22.5903 C   0  0  0  0  0  0  0  0  0  0  0  0
  -24.4555  -29.3206   24.5811 C   0  0  0  0  0  0  0  0  0  0  0  0
  -26.0899  -28.1196   27.3240 C   0  0  0  0  0  0  0  0  0  0  0  0
  -28.3053  -15.9231   20.4377 C   0  0  0  0  0  0  0  0  0  0  0  0
  -18.6054  -30.7584   25.9917 C   0  0  0  0  0  0  0  0  0  0  0  0
  -23.5069  -28.9682   20.9092 C   0  0  0  0  0  0  0  0  0  0  0  0
  -25.6896  -29.9059   22.4375 C   0  0  0  0  0  0  0  0  0  0  0  0
  -20.1088  -31.0233   26.0026 C   0  0  0  0  0  0  0  0  0  0  0  0
  -25.4429  -15.3817   18.2920 C   0  0  0  0  0  0  0  0  0  0  0  0
  -20.5091  -31.8767   24.8033 C   0  0  0  0  0  0  0  0  0  0  0  0
  -24.9089  -14.0531   18.8300 C   0  0  0  0  0  0  0  0  0  0  0  0
  -30.9911  -17.6442   20.7428 C   0  0  0  0  0  0  0  0  0  0  0  0
  -31.3943  -19.1078   20.4636 C   0  0  0  0  0  0  0  0  0  0  0  0
  -27.1056  -19.6725   20.8122 C   0  0  0  0  0  0  0  0  0  0  0  0
  -26.9897  -21.1650   20.6836 C   0  0  0  0  0  0  0  0  0  0  0  0
  -31.4529  -21.7988   19.4719 C   0  0  0  0  0  0  0  0  0  0  0  0
  -26.9687  -15.4105   18.3027 C   0  0  0  0  0  0  0  0  0  0  0  0
  -31.6731  -23.3107   19.5389 C   0  0  0  0  0  0  0  0  0  0  0  0
  -27.0484  -13.8065   20.1707 C   0  0  0  0  0  0  0  0  0  0  0  0
  -29.3606  -22.9739   19.5930 C   0  0  0  0  0  0  0  0  0  0  0  0
  -20.1956  -31.1580   23.4855 C   0  0  1  0  0  0  0  0  0  0  0  0
  -23.2787  -29.2195   22.4105 C   0  0  1  0  0  0  0  0  0  0  0  0
  -25.5117  -13.7246   20.2086 C   0  0  2  0  0  0  0  0  0  0  0  0
  -29.5187  -18.0942   20.5854 C   0  0  1  0  0  0  0  0  0  0  0  0
  -27.8877  -20.3984   19.7551 C   0  0  0  0  0  0  0  0  0  0  0  0
  -30.0554  -19.2515   19.7062 C   0  0  1  0  0  0  0  0  0  0  0  0
  -29.9662  -21.6459   19.1845 C   0  0  2  0  0  0  0  0  0  0  0  0
  -26.5889  -28.6753   29.7198 C   0  0  0  0  0  0  0  0  0  0  0  0
  -26.5200  -31.3733   23.6711 C   0  0  0  0  0  0  0  0  0  0  0  0
  -27.5996  -31.1803   25.9217 C   0  0  0  0  0  0  0  0  0  0  0  0
  -25.2545  -32.0092   25.7322 C   0  0  0  0  0  0  0  0  0  0  0  0
  -24.7184  -25.6837   28.2958 C   0  0  0  0  0  0  0  0  0  0  0  0
  -30.2097  -25.2500   19.6127 C   0  0  0  0  0  0  0  0  0  0  0  0
  -28.8573  -25.8111   19.2011 C   0  0  0  0  0  0  0  0  0  1  0  0
  -25.7393  -29.5599   25.3348 C   0  0  1  0  0  0  0  0  0  0  0  0
  -25.6488  -27.9533   28.7670 C   0  0  2  0  0  0  0  0  0  0  0  0
  -26.2747  -31.0077   25.1486 C   0  0  0  0  0  0  0  0  0  0  0  0
  -25.7578  -11.2848   20.4711 N   0  0  0  0  0  0  0  0  0  0  0  0
  -25.0279  -12.3835   20.7284 N   0  0  0  0  0  0  0  0  0  0  0  0
  -24.4927  -29.5055   23.1937 N   0  0  0  0  0  0  0  0  0  0  0  0
  -27.4779  -15.1085   19.6483 N   0  0  0  0  0  0  0  0  0  0  0  0
  -30.3957  -23.8948   19.1170 N   0  0  1  0  0  0  0  0  0  0  0  0
  -23.0527  -13.1306   21.8013 N   0  0  0  0  0  0  0  0  0  0  0  0
  -23.0329   -8.6793   22.5640 N   0  0  0  0  0  0  0  0  0  0  0  0
  -21.1933  -30.1460   23.2119 N   0  0  0  0  0  0  0  0  0  0  0  0
  -25.4722  -29.1954   26.7220 N   0  0  0  0  0  0  0  0  0  0  0  0
  -28.6707  -17.1442   19.8811 N   0  0  0  0  0  0  0  0  0  0  0  0
  -25.6218  -26.5100   29.1373 N   0  3  0  0  0  0  0  0  0  0  0  0
  -29.3816  -20.5316   19.9525 N   0  3  1  0  0  0  0  0  0  0  0  0
  -21.8839  -10.6331   22.9118 O   0  0  0  0  0  0  0  0  0  0  0  0
  -22.7793  -31.5154   22.1960 O   0  0  0  0  0  0  0  0  0  0  0  0
  -23.4443  -28.9843   25.2037 O   0  0  0  0  0  0  0  0  0  0  0  0
  -26.9039  -27.3723   26.7859 O   0  0  0  0  0  0  0  0  0  0  0  0
  -28.6912  -15.5941   21.5648 O   0  0  0  0  0  0  0  0  0  0  0  0
  -26.8722   -5.0263   20.8483 O   0  0  0  0  0  0  0  0  0  0  0  0
  -28.7280  -27.1304   19.7293 O   0  0  0  0  0  0  0  0  0  1  0  0
  -24.6024   -1.4007   24.3278 F   0  0  0  0  0  0  0  0  0  0  0  0
  -28.4205   -3.6739   22.6967 F   0  0  0  0  0  0  0  0  0  0  0  0
  1  2  1  0  0  0  0
  1  5  2  0  0  0  0
  2  6  2  0  0  0  0
  3  8  2  0  0  0  0
  3 15  1  0  0  0  0
  4  9  1  0  0  0  0
  4 15  2  0  0  0  0
  5 17  1  0  0  0  0
  6 19  1  0  0  0  0
  7 10  2  0  0  0  0
  7 18  1  0  0  0  0
  8 21  1  0  0  0  0
  9 21  2  0  0  0  0
 10 22  1  0  0  0  0
 11 12  2  0  0  0  0
 11 23  1  0  0  0  0
 12 24  1  0  0  0  0
 13 20  1  0  0  0  0
 13 22  2  0  0  0  0
 14 24  2  0  0  0  0
 14 25  1  0  0  0  0
 15 26  1  0  0  0  0
 16 26  1  0  0  0  0
 16 27  2  0  0  0  0
 16 28  1  0  0  0  0
 17 19  2  0  0  0  0
 17 33  1  0  0  0  0
 18 20  2  0  0  0  0
 18 34  1  0  0  0  0
 19 49  1  0  0  0  0
 20 35  1  0  0  0  0
 21 83  1  0  0  0  0
 22 84  1  0  0  0  0
 23 25  2  0  0  0  0
 23 83  1  0  0  0  0
 24 85  1  0  0  0  0
 25 86  1  0  0  0  0
 26 66  2  0  0  0  0
 27 67  1  0  0  0  0
 27 71  1  0  0  0  0
 28 72  1  0  0  0  0
 28 78  2  0  0  0  0
 29 50  1  0  0  0  0
 29 73  1  0  0  0  0
 29 79  2  0  0  0  0
 30 63  1  0  0  0  0
 30 68  1  0  0  0  0
 30 80  2  0  0  0  0
 31 64  1  0  0  0  0
 31 74  1  0  0  0  0
 31 81  2  0  0  0  0
 32 69  1  0  0  0  0
 32 75  1  0  0  0  0
 32 82  2  0  0  0  0
 33 36  1  0  0  0  0
 34 50  1  0  0  0  0
 35 68  1  0  0  0  0
 36 38  1  0  0  0  0
 37 39  1  0  0  0  0
 37 45  1  0  0  0  0
 38 49  1  0  0  0  0
 39 51  1  0  0  0  0
 40 41  1  0  0  0  0
 40 52  1  0  0  0  0
 41 54  1  0  0  0  0
 42 43  1  0  0  0  0
 42 53  1  0  0  0  0
 43 53  1  0  0  0  0
 44 46  1  0  0  0  0
 44 55  1  0  0  0  0
 45 69  1  0  0  0  0
 46 70  1  0  0  0  0
 47 51  1  0  0  0  0
 47 69  1  0  0  0  0
 48 55  1  0  0  0  0
 48 70  1  0  0  0  0
 49 73  1  0  0  0  0
 50 68  1  0  0  0  0
 51 67  1  0  0  0  0
 52 54  1  0  0  0  0
 52 75  1  0  0  0  0
 53 77  1  0  0  0  0
 54 77  1  0  0  0  0
 55 77  1  0  0  0  0
 56 64  1  0  0  0  0
 57 65  1  0  0  0  0
 58 65  1  0  0  0  0
 59 65  1  0  0  0  0
 60 76  1  0  0  0  0
 61 62  1  0  0  0  0
 61 70  1  0  0  0  0
 62 84  1  0  0  0  0
 63 65  1  0  0  0  0
 63 74  1  0  0  0  0
 64 76  1  0  0  0  0
 66 67  1  0  0  0  0
M  CHG  2  76   1  77   1
M  ISO  4  32 100  62 101  75 100  84 101
M  END
> <Batch ID>
0199

> <Smiles>
CNC(C)C(=O)NC(C(=O)N1Cc2cc([101O:1][101CH2:1]CN3CCC(N(C4CC4)C4CCC4[100NH:0][100C:0](=O)N4CCCC(n5nc(-c6ccc(Oc7ccc(F)cc7F)cc6)c(C(N)=O)c5N)C4)C3)ccc2CC1C(=O)NC1CCCc2ccccc21)C(C)(C)C

> <Shape>
0.282

> <Color>
0.094

> <Negative vol penalty>
0.000

$$$$

  -OEChem-04052323503D

 81 89  0     1  0  0  0  0  0999 V2000
  -18.3919  -15.2460   19.7688 C   0  0  0  0  0  0  0  0  0  0  0  0
  -19.4026  -16.2005   19.7152 C   0  0  0  0  0  0  0  0  0  0  0  0
  -21.5753  -28.8715   22.0371 C   0  0  0  0  0  0  0  0  0  0  0  0
  -23.3608  -28.0472   23.4405 C   0  0  0  0  0  0  0  0  0  0  0  0
  -18.5906  -14.0608   20.4758 C   0  0  0  0  0  0  0  0  0  0  0  0
  -20.6123  -15.9708   20.3696 C   0  0  0  0  0  0  0  0  0  0  0  0
  -26.1818  -17.7430   18.5404 C   0  0  0  0  0  0  0  0  0  0  0  0
  -20.6653  -28.0662   22.7218 C   0  0  0  0  0  0  0  0  0  0  0  0
  -22.4507  -27.2419   24.1253 C   0  0  0  0  0  0  0  0  0  0  0  0
  -26.9861  -18.8246   18.8969 C   0  0  0  0  0  0  0  0  0  0  0  0
  -20.1209  -27.6198   26.5439 C   0  0  0  0  0  0  0  0  0  0  0  0
  -20.1976  -27.5973   27.9364 C   0  0  0  0  0  0  0  0  0  0  0  0
  -28.1503  -17.4283   20.4825 C   0  0  0  0  0  0  0  0  0  0  0  0
  -20.6142  -25.2183   27.8751 C   0  0  0  0  0  0  0  0  0  0  0  0
  -22.9231  -28.8620   22.3964 C   0  0  0  0  0  0  0  0  0  0  0  0
  -24.2305  -31.0164   22.0000 C   0  0  0  0  0  0  0  0  0  0  0  0
  -19.8069  -13.8124   21.1311 C   0  0  0  0  0  0  0  0  0  0  0  0
  -26.3487  -16.4968   19.1611 C   0  0  0  0  0  0  0  0  0  0  0  0
  -20.8270  -14.7818   21.0872 C   0  0  0  0  0  0  0  0  0  0  0  0
  -27.3485  -16.3319   20.1303 C   0  0  0  0  0  0  0  0  0  0  0  0
  -21.1029  -27.2514   23.7659 C   0  0  0  0  0  0  0  0  0  0  0  0
  -27.9686  -18.6681   19.8701 C   0  0  0  0  0  0  0  0  0  0  0  0
  -20.2908  -26.4415   25.8169 C   0  0  0  0  0  0  0  0  0  0  0  0
  -20.4443  -26.3966   28.6020 C   0  0  0  0  0  0  0  0  0  0  0  0
  -20.5375  -25.2408   26.4825 C   0  0  0  0  0  0  0  0  0  0  0  0
  -23.8638  -29.6933   21.6891 C   0  0  0  0  0  0  0  0  0  0  0  0
  -25.1468  -31.3547   21.0344 C   0  0  0  0  0  0  0  0  0  0  0  0
  -29.4510  -23.0317   20.8766 C   0  0  0  0  0  0  0  0  0  0  0  0
  -30.0591  -23.9112   21.9081 C   0  0  0  0  0  0  0  0  0  0  0  0
  -28.7913  -21.9063   21.1501 C   0  0  0  0  0  0  0  0  0  0  0  0
  -23.7829  -31.8638   23.0664 C   0  0  0  0  0  0  0  0  0  0  0  0
  -24.5164  -14.6237   20.9606 C   0  0  0  0  0  0  0  0  0  0  0  0
  -26.9999  -12.5594   20.6548 C   0  0  0  0  0  0  0  0  0  0  0  0
  -30.3286  -12.0997   20.0590 C   0  0  0  0  0  0  0  0  0  0  0  0
  -28.8468  -28.1212   17.6131 C   0  0  0  0  0  0  0  0  0  0  0  0
  -19.9580  -12.5372   21.9223 C   0  0  0  0  0  0  0  0  0  0  0  0
  -25.4907  -15.3331   18.7462 C   0  0  0  0  0  0  0  0  0  0  0  0
  -27.5817  -15.0093   20.8121 C   0  0  0  0  0  0  0  0  0  0  0  0
  -29.6757  -23.6865   19.5569 C   0  0  0  0  0  0  0  0  0  0  0  0
  -30.5942  -25.1595   21.2619 C   0  0  0  0  0  0  0  0  0  0  0  0
  -21.4060  -12.2075   22.2755 C   0  0  0  0  0  0  0  0  0  0  0  0
  -26.3390  -30.3913   16.5022 C   0  0  0  0  0  0  0  0  0  0  0  0
  -22.1186  -13.4435   22.8152 C   0  0  0  0  0  0  0  0  0  0  0  0
  -25.4534  -30.5892   17.7336 C   0  0  0  0  0  0  0  0  0  0  0  0
  -26.8541  -28.9571   16.4021 C   0  0  0  0  0  0  0  0  0  0  0  0
  -26.6554  -28.6581   18.8403 C   0  0  0  0  0  0  0  0  0  0  0  0
  -22.1623  -14.5585   21.7634 C   0  0  1  0  0  0  0  0  0  0  0  0
  -25.4060  -14.2437   19.8108 C   0  0  1  0  0  0  0  0  0  0  0  0
  -26.1575  -30.1031   19.0147 C   0  0  2  0  0  0  0  0  0  0  0  0
  -32.0737  -10.3023   19.9122 C   0  0  0  0  0  0  0  0  0  0  0  0
  -27.0420  -12.3549   23.6989 C   0  0  0  0  0  0  0  0  0  0  0  0
  -29.3281  -11.3484   23.5301 C   0  0  0  0  0  0  0  0  0  0  0  0
  -27.3757  -10.1841   22.5028 C   0  0  0  0  0  0  0  0  0  0  0  0
  -30.9165  -12.7401   17.2300 C   0  0  0  0  0  0  0  0  0  0  0  0
  -28.1812  -21.0245   20.1115 C   0  0  0  0  0  0  0  0  0  1  0  0
  -30.7608  -27.3052   18.9659 C   0  0  0  0  0  0  0  0  0  0  0  0
  -30.8713  -25.7981   18.8289 C   0  0  0  0  0  0  0  0  0  0  0  0
  -28.2685  -12.2911   21.4278 C   0  0  1  0  0  0  0  0  0  0  0  0
  -31.0646  -11.1396   19.1419 C   0  0  2  0  0  0  0  0  0  0  0  0
  -27.9982  -11.5702   22.7786 C   0  0  0  0  0  0  0  0  0  0  0  0
  -24.4954  -29.2231   20.6102 N   0  0  0  0  0  0  0  0  0  0  0  0
  -25.2683  -30.2565   20.2348 N   0  0  0  0  0  0  0  0  0  0  0  0
  -26.7130  -13.9033   20.3766 N   0  0  0  0  0  0  0  0  0  0  0  0
  -27.5125  -28.5584   17.6485 N   0  0  0  0  0  0  0  0  0  0  0  0
  -25.8524  -32.4814   20.7998 N   0  0  0  0  0  0  0  0  0  0  0  0
  -22.8383  -31.3583   23.9700 N   0  0  0  0  0  0  0  0  0  0  0  0
  -23.1887  -14.2859   20.7803 N   0  0  0  0  0  0  0  0  0  0  0  0
  -29.1494  -11.5580   20.5250 N   0  0  0  0  0  0  0  0  0  0  0  0
  -29.3969  -27.7682   18.8393 N   0  0  0  0  0  0  0  0  0  0  0  0
  -30.0194  -25.1336   19.8591 N   0  3  1  0  0  0  0  0  0  0  0  0
  -31.7910  -11.8918   18.0801 N   0  3  0  0  0  0  0  0  0  0  0  0
  -30.1366  -23.6482   23.0973 O   0  0  0  0  0  0  0  0  0  0  0  0
  -24.1958  -33.0403   23.2040 O   0  0  0  0  0  0  0  0  0  0  0  0
  -24.9992  -15.1807   21.9396 O   0  0  0  0  0  0  0  0  0  0  0  0
  -26.2933  -11.6110   20.3043 O   0  0  0  0  0  0  0  0  0  0  0  0
  -30.7588  -13.2168   20.3374 O   0  0  0  0  0  0  0  0  0  0  0  0
  -29.5013  -28.0556   16.5670 O   0  0  0  0  0  0  0  0  0  0  0  0
  -20.2152  -26.4656   24.4344 O   0  0  0  0  0  0  0  0  0  0  0  0
  -28.7547  -19.7223   20.2204 O   0  0  0  0  0  0  0  0  0  1  0  0
  -20.5194  -26.3754   29.9392 F   0  0  0  0  0  0  0  0  0  0  0  0
  -20.7027  -24.1058   25.7894 F   0  0  0  0  0  0  0  0  0  0  0  0
  1  2  1  0  0  0  0
  1  5  2  0  0  0  0
  2  6  2  0  0  0  0
  3  8  2  0  0  0  0
  3 15  1  0  0  0  0
  4  9  1  0  0  0  0
  4 15  2  0  0  0  0
  5 17  1  0  0  0  0
  6 19  1  0  0  0  0
  7 10  2  0  0  0  0
  7 18  1  0  0  0  0
  8 21  1  0  0  0  0
  9 21  2  0  0  0  0
 10 22  1  0  0  0  0
 11 12  2  0  0  0  0
 11 23  1  0  0  0  0
 12 24  1  0  0  0  0
 13 20  1  0  0  0  0
 13 22  2  0  0  0  0
 14 24  2  0  0  0  0
 14 25  1  0  0  0  0
 15 26  1  0  0  0  0
 16 26  1  0  0  0  0
 16 27  2  0  0  0  0
 16 31  1  0  0  0  0
 17 19  2  0  0  0  0
 17 36  1  0  0  0  0
 18 20  2  0  0  0  0
 18 37  1  0  0  0  0
 19 47  1  0  0  0  0
 20 38  1  0  0  0  0
 21 78  1  0  0  0  0
 22 79  1  0  0  0  0
 23 25  2  0  0  0  0
 23 78  1  0  0  0  0
 24 80  1  0  0  0  0
 25 81  1  0  0  0  0
 26 61  2  0  0  0  0
 27 62  1  0  0  0  0
 27 65  1  0  0  0  0
 28 29  1  0  0  0  0
 28 30  2  0  0  0  0
 28 39  1  0  0  0  0
 29 40  1  0  0  0  0
 29 72  2  0  0  0  0
 30 55  1  0  0  0  0
 31 66  1  0  0  0  0
 31 73  2  0  0  0  0
 32 48  1  0  0  0  0
 32 67  1  0  0  0  0
 32 74  2  0  0  0  0
 33 58  1  0  0  0  0
 33 63  1  0  0  0  0
 33 75  2  0  0  0  0
 34 59  1  0  0  0  0
 34 68  1  0  0  0  0
 34 76  2  0  0  0  0
 35 64  1  0  0  0  0
 35 69  1  0  0  0  0
 35 77  2  0  0  0  0
 36 41  1  0  0  0  0
 37 48  1  0  0  0  0
 38 63  1  0  0  0  0
 39 70  1  0  0  0  0
 40 70  1  0  0  0  0
 41 43  1  0  0  0  0
 42 44  1  0  0  0  0
 42 45  1  0  0  0  0
 43 47  1  0  0  0  0
 44 49  1  0  0  0  0
 45 64  1  0  0  0  0
 46 49  1  0  0  0  0
 46 64  1  0  0  0  0
 47 67  1  0  0  0  0
 48 63  1  0  0  0  0
 49 62  1  0  0  0  0
 50 59  1  0  0  0  0
 51 60  1  0  0  0  0
 52 60  1  0  0  0  0
 53 60  1  0  0  0  0
 54 71  1  0  0  0  0
 55 79  1  0  0  0  0
 56 57  1  0  0  0  0
 56 69  1  0  0  0  0
 57 70  1  0  0  0  0
 58 60  1  0  0  0  0
 58 68  1  0  0  0  0
 59 71  1  0  0  0  0
 61 62  1  0  0  0  0
M  CHG  2  70   1  71   1
M  ISO  4  35 100  55 101  69 100  79 101
M  END
> <Batch ID>
0199

> <Smiles>
CNC(C)C(=O)NC(C(=O)N1Cc2cc([101O:1][101CH2:1]C=C3CN(CC[100NH:0][100C:0](=O)N4CCCC(n5nc(-c6ccc(Oc7ccc(F)cc7F)cc6)c(C(N)=O)c5N)C4)CC3=O)ccc2CC1C(=O)NC1CCCc2ccccc21)C(C)(C)C

> <Shape>
0.240

> <Color>
0.045

> <Negative vol penalty>
0.000

$$$$

  -OEChem-04052323503D

 86 96  0     1  0  0  0  0  0999 V2000
  -25.4106  -10.7717   20.0934 C   0  0  0  0  0  0  0  0  0  0  0  0
  -24.3509  -11.5442   19.6289 C   0  0  0  0  0  0  0  0  0  0  0  0
  -29.4967  -29.3421   20.3425 C   0  0  0  0  0  0  0  0  0  0  0  0
  -28.9144  -27.3970   21.6519 C   0  0  0  0  0  0  0  0  0  0  0  0
  -26.2808  -11.2886   21.0523 C   0  0  0  0  0  0  0  0  0  0  0  0
  -24.1602  -12.8338   20.1239 C   0  0  0  0  0  0  0  0  0  0  0  0
  -21.8093  -19.2948   18.1126 C   0  0  0  0  0  0  0  0  0  0  0  0
  -30.8249  -29.2191   20.7504 C   0  0  0  0  0  0  0  0  0  0  0  0
  -30.2426  -27.2739   22.0597 C   0  0  0  0  0  0  0  0  0  0  0  0
  -20.9111  -20.2851   18.5077 C   0  0  0  0  0  0  0  0  0  0  0  0
  -33.5483  -26.2336   23.1589 C   0  0  0  0  0  0  0  0  0  0  0  0
  -34.1195  -24.9613   23.1352 C   0  0  0  0  0  0  0  0  0  0  0  0
  -22.5241  -21.1027   20.1043 C   0  0  0  0  0  0  0  0  0  0  0  0
  -33.7144  -24.8238   20.7573 C   0  0  0  0  0  0  0  0  0  0  0  0
  -15.3741  -25.2342   22.6313 C   0  0  0  0  0  0  0  0  0  0  0  0
  -28.5414  -28.4311   20.7933 C   0  0  0  0  0  0  0  0  0  0  0  0
  -26.5696  -27.9750   19.2404 C   0  0  0  0  0  0  0  0  0  0  0  0
  -26.1063  -12.5887   21.5522 C   0  0  0  0  0  0  0  0  0  0  0  0
  -23.0697  -19.1940   18.7190 C   0  0  0  0  0  0  0  0  0  0  0  0
  -25.0280  -13.3681   21.0914 C   0  0  0  0  0  0  0  0  0  0  0  0
  -23.4375  -20.1117   19.7132 C   0  0  0  0  0  0  0  0  0  0  0  0
  -31.1978  -28.1850   21.6090 C   0  0  0  0  0  0  0  0  0  0  0  0
  -21.2673  -21.1875   19.5057 C   0  0  0  0  0  0  0  0  0  0  0  0
  -33.0600  -26.8009   21.9819 C   0  0  0  0  0  0  0  0  0  0  0  0
  -34.2026  -24.2564   21.9344 C   0  0  0  0  0  0  0  0  0  0  0  0
  -33.1431  -26.0960   20.7811 C   0  0  0  0  0  0  0  0  0  0  0  0
  -27.1691  -28.5580   20.3728 C   0  0  0  0  0  0  0  0  0  0  0  0
  -15.8131  -24.0388   22.1361 C   0  0  0  0  0  0  0  0  0  0  0  0
  -25.2634  -28.3969   19.2878 C   0  0  0  0  0  0  0  0  0  0  0  0
  -17.5317  -25.4335   22.1781 C   0  0  0  0  0  0  0  0  0  0  0  0
  -27.1423  -27.1277   18.2355 C   0  0  0  0  0  0  0  0  0  0  0  0
  -24.5609  -16.9747   20.4380 C   0  0  0  0  0  0  0  0  0  0  0  0
  -27.0717  -19.0111   20.1710 C   0  0  0  0  0  0  0  0  0  0  0  0
  -28.1737  -22.2006   19.6621 C   0  0  0  0  0  0  0  0  0  0  0  0
  -20.5858  -29.3433   22.1727 C   0  0  0  0  0  0  0  0  0  0  0  0
  -27.0447  -13.0869   22.6226 C   0  0  0  0  0  0  0  0  0  0  0  0
  -24.0373  -18.1367   18.2627 C   0  0  0  0  0  0  0  0  0  0  0  0
  -24.7863  -20.0589   20.3814 C   0  0  0  0  0  0  0  0  0  0  0  0
  -26.9944  -14.5996   22.8210 C   0  0  0  0  0  0  0  0  0  0  0  0
  -23.0204  -31.9034   22.1298 C   0  0  0  0  0  0  0  0  0  0  0  0
  -25.5487  -15.0810   22.8916 C   0  0  0  0  0  0  0  0  0  0  0  0
  -14.3493  -22.5302   20.5699 C   0  0  0  0  0  0  0  0  0  0  0  0
  -13.4749  -22.9293   21.7172 C   0  0  0  0  0  0  0  0  0  0  0  0
  -24.2800  -31.2161   21.6097 C   0  0  0  0  0  0  0  0  0  0  0  0
  -19.8438  -25.9193   23.2587 C   0  0  0  0  0  0  0  0  0  0  0  0
  -22.2307  -30.9701   23.0377 C   0  0  0  0  0  0  0  0  0  0  0  0
  -20.9420  -26.9259   22.9430 C   0  0  0  0  0  0  0  0  0  0  0  0
  -18.9436  -27.5345   21.7691 C   0  0  0  0  0  0  0  0  0  0  0  0
  -23.0778  -28.9798   21.8248 C   0  0  0  0  0  0  0  0  0  0  0  0
  -24.8028  -14.7805   21.5859 C   0  0  1  0  0  0  0  0  0  0  0  0
  -14.9715  -22.7869   21.9310 C   0  0  0  0  0  0  0  0  0  0  0  0
  -18.9176  -26.0229   22.0361 C   0  0  2  0  0  0  0  0  0  0  0  0
  -25.0983  -17.8066   19.3081 C   0  0  1  0  0  0  0  0  0  0  0  0
  -23.9270  -29.8917   20.9153 C   0  0  2  0  0  0  0  0  0  0  0  0
  -30.2787  -23.5612   19.5373 C   0  0  0  0  0  0  0  0  0  0  0  0
  -27.3085  -18.9192   23.2116 C   0  0  0  0  0  0  0  0  0  0  0  0
  -28.7447  -20.9664   23.0920 C   0  0  0  0  0  0  0  0  0  0  0  0
  -29.4913  -18.8552   21.9929 C   0  0  0  0  0  0  0  0  0  0  0  0
  -27.6358  -22.9890   16.8607 C   0  0  0  0  0  0  0  0  0  0  0  0
  -18.2923  -23.3223   19.8210 C   0  0  0  0  0  0  0  0  0  0  0  0
  -18.0179  -23.1647   21.3182 C   0  0  0  0  0  0  0  0  0  0  0  0
  -19.1266  -22.1881   19.2371 C   0  0  0  0  0  0  0  0  0  1  0  0
  -27.5921  -20.1778   20.9752 C   0  0  1  0  0  0  0  0  0  0  0  0
  -29.2516  -22.7607   18.7517 C   0  0  2  0  0  0  0  0  0  0  0  0
  -28.2579  -19.7297   22.3069 C   0  0  0  0  0  0  0  0  0  0  0  0
  -26.3140  -29.2944   21.0874 N   0  0  0  0  0  0  0  0  0  0  0  0
  -17.1513  -24.1909   21.8637 N   0  0  0  0  0  0  0  0  0  0  0  0
  -25.1639  -29.1769   20.4022 N   0  0  0  0  0  0  0  0  0  0  0  0
  -16.4583  -26.0782   22.6464 N   0  3  0  0  0  0  0  0  0  0  0  0
  -25.6951  -19.0031   19.9051 N   0  0  0  0  0  0  0  0  0  0  0  0
  -21.9233  -29.7002   22.3772 N   0  0  0  0  0  0  0  0  0  0  0  0
  -20.2599  -27.9881   22.2067 N   0  0  0  0  0  0  0  0  0  0  0  0
  -24.2018  -28.1731   18.4845 N   0  0  0  0  0  0  0  0  0  0  0  0
  -28.4991  -26.7918   18.3386 N   0  0  0  0  0  0  0  0  0  0  0  0
  -25.1661  -15.7389   20.5642 N   0  0  0  0  0  0  0  0  0  0  0  0
  -28.4763  -20.9241   20.0866 N   0  0  0  0  0  0  0  0  0  0  0  0
  -28.6478  -23.6530   17.7220 N   0  3  0  0  0  0  0  0  0  0  0  0
  -26.4747  -26.6950   17.2656 O   0  0  0  0  0  0  0  0  0  0  0  0
  -23.6645  -17.4215   21.1440 O   0  0  0  0  0  0  0  0  0  0  0  0
  -27.8588  -18.1425   19.7866 O   0  0  0  0  0  0  0  0  0  0  0  0
  -27.1660  -22.8337   19.9692 O   0  0  0  0  0  0  0  0  0  0  0  0
  -19.7094  -30.2026   22.0074 O   0  0  0  0  0  0  0  0  0  0  0  0
  -32.4938  -28.0645   22.0070 O   0  0  0  0  0  0  0  0  0  0  0  0
  -20.3860  -22.1615   19.8965 O   0  0  0  0  0  0  0  0  0  1  0  0
  -34.7526  -23.0353   21.9115 F   0  0  0  0  0  0  0  0  0  0  0  0
  -32.6768  -26.6364   19.6469 F   0  0  0  0  0  0  0  0  0  0  0  0
  1  2  1  0  0  0  0
  1  5  2  0  0  0  0
  2  6  2  0  0  0  0
  3  8  2  0  0  0  0
  3 16  1  0  0  0  0
  4  9  1  0  0  0  0
  4 16  2  0  0  0  0
  5 18  1  0  0  0  0
  6 20  1  0  0  0  0
  7 10  2  0  0  0  0
  7 19  1  0  0  0  0
  8 22  1  0  0  0  0
  9 22  2  0  0  0  0
 10 23  1  0  0  0  0
 11 12  2  0  0  0  0
 11 24  1  0  0  0  0
 12 25  1  0  0  0  0
 13 21  1  0  0  0  0
 13 23  2  0  0  0  0
 14 25  2  0  0  0  0
 14 26  1  0  0  0  0
 15 28  2  0  0  0  0
 15 69  1  0  0  0  0
 16 27  1  0  0  0  0
 17 27  1  0  0  0  0
 17 29  2  0  0  0  0
 17 31  1  0  0  0  0
 18 20  2  0  0  0  0
 18 36  1  0  0  0  0
 19 21  2  0  0  0  0
 19 37  1  0  0  0  0
 20 50  1  0  0  0  0
 21 38  1  0  0  0  0
 22 83  1  0  0  0  0
 23 84  1  0  0  0  0
 24 26  2  0  0  0  0
 24 83  1  0  0  0  0
 25 85  1  0  0  0  0
 26 86  1  0  0  0  0
 27 66  2  0  0  0  0
 28 51  1  0  0  0  0
 28 67  1  0  0  0  0
 29 68  1  0  0  0  0
 29 73  1  0  0  0  0
 30 52  1  0  0  0  0
 30 67  1  0  0  0  0
 30 69  2  0  0  0  0
 31 74  1  0  0  0  0
 31 78  2  0  0  0  0
 32 53  1  0  0  0  0
 32 75  1  0  0  0  0
 32 79  2  0  0  0  0
 33 63  1  0  0  0  0
 33 70  1  0  0  0  0
 33 80  2  0  0  0  0
 34 64  1  0  0  0  0
 34 76  1  0  0  0  0
 34 81  2  0  0  0  0
 35 71  1  0  0  0  0
 35 72  1  0  0  0  0
 35 82  2  0  0  0  0
 36 39  1  0  0  0  0
 37 53  1  0  0  0  0
 38 70  1  0  0  0  0
 39 41  1  0  0  0  0
 40 44  1  0  0  0  0
 40 46  1  0  0  0  0
 41 50  1  0  0  0  0
 42 43  1  0  0  0  0
 42 51  1  0  0  0  0
 43 51  1  0  0  0  0
 44 54  1  0  0  0  0
 45 47  1  0  0  0  0
 45 52  1  0  0  0  0
 46 71  1  0  0  0  0
 47 72  1  0  0  0  0
 48 52  1  0  0  0  0
 48 72  1  0  0  0  0
 49 54  1  0  0  0  0
 49 71  1  0  0  0  0
 50 75  1  0  0  0  0
 53 70  1  0  0  0  0
 54 68  1  0  0  0  0
 55 64  1  0  0  0  0
 56 65  1  0  0  0  0
 57 65  1  0  0  0  0
 58 65  1  0  0  0  0
 59 77  1  0  0  0  0
 60 61  1  0  0  0  0
 60 62  1  0  0  0  0
 61 67  1  0  0  0  0
 62 84  1  0  0  0  0
 63 65  1  0  0  0  0
 63 76  1  0  0  0  0
 64 77  1  0  0  0  0
 66 68  1  0  0  0  0
M  CHG  2  69   1  77   1
M  ISO  4  35 100  62 101  72 100  84 101
M  END
> <Batch ID>
0199

> <Smiles>
CNC(C)C(=O)NC(C(=O)N1Cc2cc([101O:1][101CH2:1]CCn3c(C4CC4)cnc3C3CC[100N:0]([100C:0](=O)N4CCCC(n5nc(-c6ccc(Oc7ccc(F)cc7F)cc6)c(C(N)=O)c5N)C4)C3)ccc2CC1C(=O)NC1CCCc2ccccc21)C(C)(C)C

> <Shape>
0.214

> <Color>
0.051

> <Negative vol penalty>
0.000

$$$$

  -OEChem-04052323503D

 85 94  0     1  0  0  0  0  0999 V2000
  -19.5377  -32.0571   14.9873 C   0  0  0  0  0  0  0  0  0  0  0  0
  -20.5297  -31.1070   15.2075 C   0  0  0  0  0  0  0  0  0  0  0  0
  -23.7309  -10.0136   22.2484 C   0  0  0  0  0  0  0  0  0  0  0  0
  -24.4696   -8.6164   20.4211 C   0  0  0  0  0  0  0  0  0  0  0  0
  -19.6680  -33.3369   15.5251 C   0  0  0  0  0  0  0  0  0  0  0  0
  -21.6533  -31.4364   15.9648 C   0  0  0  0  0  0  0  0  0  0  0  0
  -24.7602  -27.7473   19.7388 C   0  0  0  0  0  0  0  0  0  0  0  0
  -22.5266   -9.3117   22.2983 C   0  0  0  0  0  0  0  0  0  0  0  0
  -23.2653   -7.9145   20.4709 C   0  0  0  0  0  0  0  0  0  0  0  0
  -25.9359  -27.0155   19.5777 C   0  0  0  0  0  0  0  0  0  0  0  0
  -20.5316   -5.5204   20.3547 C   0  0  0  0  0  0  0  0  0  0  0  0
  -20.5882   -4.1284   20.2867 C   0  0  0  0  0  0  0  0  0  0  0  0
  -27.1851  -28.8098   20.5972 C   0  0  0  0  0  0  0  0  0  0  0  0
  -21.9345   -4.0851   22.2923 C   0  0  0  0  0  0  0  0  0  0  0  0
  -24.7025   -9.6660   21.3098 C   0  0  0  0  0  0  0  0  0  0  0  0
  -27.1311  -10.0987   21.9595 C   0  0  0  0  0  0  0  0  0  0  0  0
  -20.7891  -33.6792   16.2974 C   0  0  0  0  0  0  0  0  0  0  0  0
  -24.7896  -29.0225   20.3214 C   0  0  0  0  0  0  0  0  0  0  0  0
  -21.7994  -32.7224   16.5123 C   0  0  0  0  0  0  0  0  0  0  0  0
  -26.0080  -29.5546   20.7669 C   0  0  0  0  0  0  0  0  0  0  0  0
  -22.2938   -8.2621   21.4096 C   0  0  0  0  0  0  0  0  0  0  0  0
  -27.1490  -27.5480   20.0043 C   0  0  0  0  0  0  0  0  0  0  0  0
  -21.1766   -6.1948   21.3915 C   0  0  0  0  0  0  0  0  0  0  0  0
  -21.2896   -3.4107   21.2555 C   0  0  0  0  0  0  0  0  0  0  0  0
  -21.8780   -5.4771   22.3603 C   0  0  0  0  0  0  0  0  0  0  0  0
  -25.9465  -10.3911   21.2574 C   0  0  0  0  0  0  0  0  0  0  0  0
  -28.0128  -11.0762   21.5675 C   0  0  0  0  0  0  0  0  0  0  0  0
  -29.0105  -24.8272   22.5303 C   0  0  0  0  0  0  0  0  0  0  0  0
  -28.7100  -25.9959   20.8271 C   0  0  0  0  0  0  0  0  0  1  0  0
  -27.4096   -9.0383   22.8835 C   0  0  0  0  0  0  0  0  0  0  0  0
  -24.0490  -31.9541   19.3411 C   0  0  0  0  0  0  0  0  0  0  0  0
  -24.6574  -32.7210   22.4337 C   0  0  0  0  0  0  0  0  0  0  0  0
  -26.2488  -31.9463   25.3516 C   0  0  0  0  0  0  0  0  0  0  0  0
  -29.3380  -16.1678   20.5003 C   0  0  0  0  0  0  0  0  0  0  0  0
  -20.9085  -35.0895   16.8184 C   0  0  0  0  0  0  0  0  0  0  0  0
  -23.5089  -29.7879   20.5124 C   0  0  0  0  0  0  0  0  0  0  0  0
  -26.0908  -30.9107   21.4169 C   0  0  0  0  0  0  0  0  0  0  0  0
  -21.9508  -35.2447   17.9229 C   0  0  0  0  0  0  0  0  0  0  0  0
  -27.7169  -14.5011   17.8664 C   0  0  0  0  0  0  0  0  0  0  0  0
  -23.2469  -34.5392   17.5367 C   0  0  0  0  0  0  0  0  0  0  0  0
  -27.2001  -13.2483   18.5729 C   0  0  0  0  0  0  0  0  0  0  0  0
  -27.5677  -15.7518   18.7345 C   0  0  0  0  0  0  0  0  0  0  0  0
  -28.5787  -18.3971   19.5631 C   0  0  0  0  0  0  0  0  0  0  0  0
  -30.9485  -18.0119   20.1323 C   0  0  0  0  0  0  0  0  0  0  0  0
  -27.6566  -14.3717   20.7855 C   0  0  0  0  0  0  0  0  0  0  0  0
  -28.5393  -19.5998   20.5003 C   0  0  0  0  0  0  0  0  0  0  0  0
  -30.9384  -19.1890   21.0939 C   0  0  0  0  0  0  0  0  0  0  0  0
  -23.0211  -33.0341   17.3491 C   0  0  1  0  0  0  0  0  0  0  0  0
  -23.7264  -31.2915   20.6505 C   0  0  1  0  0  0  0  0  0  0  0  0
  -27.8474  -13.0899   19.9601 C   0  0  1  0  0  0  0  0  0  0  0  0
  -28.8142  -24.2111   23.8631 C   0  0  0  0  0  0  0  0  0  0  0  0
  -26.5858  -32.7822   27.6936 C   0  0  0  0  0  0  0  0  0  0  0  0
  -26.5958  -34.8369   21.3969 C   0  0  0  0  0  0  0  0  0  0  0  0
  -27.5773  -34.9645   23.6966 C   0  0  0  0  0  0  0  0  0  0  0  0
  -25.1858  -35.5705   23.3277 C   0  0  0  0  0  0  0  0  0  0  0  0
  -25.0292  -29.5153   26.5186 C   0  0  0  0  0  0  0  0  0  0  0  0
  -31.1111  -22.3247   21.1377 C   0  0  0  0  0  0  0  0  0  0  0  0
  -31.2138  -23.6209   21.9485 C   0  0  0  0  0  0  0  0  0  0  0  0
  -29.9198  -21.4348   21.4758 C   0  0  0  0  0  0  0  0  0  0  0  0
  -25.8817  -33.1428   23.2096 C   0  0  1  0  0  0  0  0  0  0  0  0
  -25.7531  -31.8910   26.7853 C   0  0  2  0  0  0  0  0  0  0  0  0
  -26.3092  -34.6039   22.8937 C   0  0  0  0  0  0  0  0  0  0  0  0
  -26.0617  -11.4700   20.4784 N   0  0  0  0  0  0  0  0  0  0  0  0
  -28.1478  -25.7339   21.9841 N   0  0  0  0  0  0  0  0  0  0  0  0
  -29.8551  -25.2729   20.7004 N   0  0  0  0  0  0  0  0  0  0  0  0
  -27.3292  -11.8641   20.6888 N   0  0  0  0  0  0  0  0  0  0  0  0
  -30.0713  -24.5119   21.7841 N   0  0  0  0  0  0  0  0  0  0  0  0
  -24.8121  -31.6230   21.5756 N   0  0  0  0  0  0  0  0  0  0  0  0
  -28.1635  -15.5390   20.0610 N   0  0  0  0  0  0  0  0  0  0  0  0
  -29.6120  -17.4411   19.9793 N   0  0  0  0  0  0  0  0  0  0  0  0
  -29.2983  -11.3300   21.8922 N   0  0  0  0  0  0  0  0  0  0  0  0
  -26.3909   -8.1207   23.1743 N   0  0  0  0  0  0  0  0  0  0  0  0
  -22.9382  -32.3716   18.6331 N   0  0  0  0  0  0  0  0  0  0  0  0
  -25.5776  -32.8998   24.6156 N   0  0  0  0  0  0  0  0  0  0  0  0
  -29.9198  -20.1993   20.6198 N   0  3  0  0  0  0  0  0  0  0  0  0
  -25.8226  -30.4955   27.3039 N   0  3  0  0  0  0  0  0  0  0  0  0
  -28.5236   -8.9180   23.4474 O   0  0  0  0  0  0  0  0  0  0  0  0
  -25.2191  -32.0786   18.9991 O   0  0  0  0  0  0  0  0  0  0  0  0
  -23.6007  -33.3383   22.5887 O   0  0  0  0  0  0  0  0  0  0  0  0
  -27.1445  -31.2192   24.9279 O   0  0  0  0  0  0  0  0  0  0  0  0
  -30.0976  -15.6235   21.3116 O   0  0  0  0  0  0  0  0  0  0  0  0
  -21.1188   -7.5768   21.4581 O   0  0  0  0  0  0  0  0  0  0  0  0
  -28.3279  -26.8177   19.8436 O   0  0  0  0  0  0  0  0  0  1  0  0
  -21.3425   -2.0738   21.1909 F   0  0  0  0  0  0  0  0  0  0  0  0
  -22.4986   -6.1194   23.3594 F   0  0  0  0  0  0  0  0  0  0  0  0
  1  2  1  0  0  0  0
  1  5  2  0  0  0  0
  2  6  2  0  0  0  0
  3  8  2  0  0  0  0
  3 15  1  0  0  0  0
  4  9  1  0  0  0  0
  4 15  2  0  0  0  0
  5 17  1  0  0  0  0
  6 19  1  0  0  0  0
  7 10  2  0  0  0  0
  7 18  1  0  0  0  0
  8 21  1  0  0  0  0
  9 21  2  0  0  0  0
 10 22  1  0  0  0  0
 11 12  2  0  0  0  0
 11 23  1  0  0  0  0
 12 24  1  0  0  0  0
 13 20  1  0  0  0  0
 13 22  2  0  0  0  0
 14 24  2  0  0  0  0
 14 25  1  0  0  0  0
 15 26  1  0  0  0  0
 16 26  1  0  0  0  0
 16 27  2  0  0  0  0
 16 30  1  0  0  0  0
 17 19  2  0  0  0  0
 17 35  1  0  0  0  0
 18 20  2  0  0  0  0
 18 36  1  0  0  0  0
 19 48  1  0  0  0  0
 20 37  1  0  0  0  0
 21 82  1  0  0  0  0
 22 83  1  0  0  0  0
 23 25  2  0  0  0  0
 23 82  1  0  0  0  0
 24 84  1  0  0  0  0
 25 85  1  0  0  0  0
 26 63  2  0  0  0  0
 27 66  1  0  0  0  0
 27 71  1  0  0  0  0
 28 51  1  0  0  0  0
 28 64  2  0  0  0  0
 28 67  1  0  0  0  0
 29 64  1  0  0  0  0
 29 65  2  0  0  0  0
 29 83  1  0  0  0  0
 30 72  1  0  0  0  0
 30 77  2  0  0  0  0
 31 49  1  0  0  0  0
 31 73  1  0  0  0  0
 31 78  2  0  0  0  0
 32 60  1  0  0  0  0
 32 68  1  0  0  0  0
 32 79  2  0  0  0  0
 33 61  1  0  0  0  0
 33 74  1  0  0  0  0
 33 80  2  0  0  0  0
 34 69  1  0  0  0  0
 34 70  1  0  0  0  0
 34 81  2  0  0  0  0
 35 38  1  0  0  0  0
 36 49  1  0  0  0  0
 37 68  1  0  0  0  0
 38 40  1  0  0  0  0
 39 41  1  0  0  0  0
 39 42  1  0  0  0  0
 40 48  1  0  0  0  0
 41 50  1  0  0  0  0
 42 69  1  0  0  0  0
 43 46  1  0  0  0  0
 43 70  1  0  0  0  0
 44 47  1  0  0  0  0
 44 70  1  0  0  0  0
 45 50  1  0  0  0  0
 45 69  1  0  0  0  0
 46 75  1  0  0  0  0
 47 75  1  0  0  0  0
 48 73  1  0  0  0  0
 49 68  1  0  0  0  0
 50 66  1  0  0  0  0
 52 61  1  0  0  0  0
 53 62  1  0  0  0  0
 54 62  1  0  0  0  0
 55 62  1  0  0  0  0
 56 76  1  0  0  0  0
 57 58  1  0  0  0  0
 57 59  1  0  0  0  0
 58 67  1  0  0  0  0
 59 75  1  0  0  0  0
 60 62  1  0  0  0  0
 60 74  1  0  0  0  0
 61 76  1  0  0  0  0
 63 66  1  0  0  0  0
 65 67  1  0  0  0  0
M  CHG  2  75   1  76   1
M  ISO  4  29 101  34 100  70 100  83 101
M  END
> <Batch ID>
0199

> <Smiles>
CNC(C)C(=O)NC(C(=O)N1Cc2cc([101O:1][101c:1]3nc(C)n(CCCN4CC[100N:0]([100C:0](=O)N5CCCC(n6nc(-c7ccc(Oc8ccc(F)cc8F)cc7)c(C(N)=O)c6N)C5)CC4)n3)ccc2CC1C(=O)NC1CCCc2ccccc21)C(C)(C)C

> <Shape>
0.288

> <Color>
0.107

> <Negative vol penalty>
0.000

$$$$

  -OEChem-04052323503D

 86 96  0     1  0  0  0  0  0999 V2000
  -17.1787  -30.7071   24.3049 C   0  0  0  0  0  0  0  0  0  0  0  0
  -18.4755  -30.9830   24.7263 C   0  0  0  0  0  0  0  0  0  0  0  0
  -24.9522  -13.5877   21.6351 C   0  0  0  0  0  0  0  0  0  0  0  0
  -26.2167  -13.4801   19.5793 C   0  0  0  0  0  0  0  0  0  0  0  0
  -16.9372  -29.6256   23.4587 C   0  0  0  0  0  0  0  0  0  0  0  0
  -19.5315  -30.1768   24.3027 C   0  0  0  0  0  0  0  0  0  0  0  0
  -25.2662  -31.9550   23.0955 C   0  0  0  0  0  0  0  0  0  0  0  0
  -24.1652  -12.5186   21.2070 C   0  0  0  0  0  0  0  0  0  0  0  0
  -25.4298  -12.4109   19.1512 C   0  0  0  0  0  0  0  0  0  0  0  0
  -26.4400  -31.9097   23.8464 C   0  0  0  0  0  0  0  0  0  0  0  0
  -24.4260   -9.1528   21.0171 C   0  0  0  0  0  0  0  0  0  0  0  0
  -24.1626   -8.1342   21.9329 C   0  0  0  0  0  0  0  0  0  0  0  0
  -27.0464  -29.8417   22.7624 C   0  0  0  0  0  0  0  0  0  0  0  0
  -21.7937   -8.5627   21.7281 C   0  0  0  0  0  0  0  0  0  0  0  0
  -30.0277  -27.1183   22.6637 C   0  0  0  0  0  0  0  0  0  0  0  0
  -25.9779  -14.0685   20.8213 C   0  0  0  0  0  0  0  0  0  0  0  0
  -27.9871  -15.1064   22.0018 C   0  0  0  0  0  0  0  0  0  0  0  0
  -17.9920  -28.8115   23.0168 C   0  0  0  0  0  0  0  0  0  0  0  0
  -24.9679  -30.9367   22.1787 C   0  0  0  0  0  0  0  0  0  0  0  0
  -19.3037  -29.0826   23.4509 C   0  0  0  0  0  0  0  0  0  0  0  0
  -25.8694  -29.8778   21.9992 C   0  0  0  0  0  0  0  0  0  0  0  0
  -24.4040  -11.9302   19.9651 C   0  0  0  0  0  0  0  0  0  0  0  0
  -27.3289  -30.8515   23.6820 C   0  0  0  0  0  0  0  0  0  0  0  0
  -23.3733   -9.8764   20.4568 C   0  0  0  0  0  0  0  0  0  0  0  0
  -22.8464   -7.8392   22.2884 C   0  0  0  0  0  0  0  0  0  0  0  0
  -22.0572   -9.5813   20.8122 C   0  0  0  0  0  0  0  0  0  0  0  0
  -26.7908  -15.1732   21.2627 C   0  0  0  0  0  0  0  0  0  0  0  0
  -30.7250  -27.7709   23.6980 C   0  0  0  0  0  0  0  0  0  0  0  0
  -30.9096  -26.1743   22.1974 C   0  0  0  0  0  0  0  0  0  0  0  0
  -28.3641  -16.4171   22.1642 C   0  0  0  0  0  0  0  0  0  0  0  0
  -28.6943  -13.9618   22.4973 C   0  0  0  0  0  0  0  0  0  0  0  0
  -22.6381  -28.7944   21.8852 C   0  0  0  0  0  0  0  0  0  0  0  0
  -24.1189  -28.1454   19.0730 C   0  0  0  0  0  0  0  0  0  0  0  0
  -26.9837  -28.2291   17.2203 C   0  0  0  0  0  0  0  0  0  0  0  0
  -29.2155  -21.4088   20.1098 C   0  0  0  0  0  0  0  0  0  0  0  0
  -17.6756  -27.6254   22.1406 C   0  0  0  0  0  0  0  0  0  0  0  0
  -23.7104  -31.0141   21.3571 C   0  0  0  0  0  0  0  0  0  0  0  0
  -25.6055  -28.7702   21.0134 C   0  0  0  0  0  0  0  0  0  0  0  0
  -18.8993  -27.0446   21.4365 C   0  0  0  0  0  0  0  0  0  0  0  0
  -25.8500  -20.7073   21.2371 C   0  0  0  0  0  0  0  0  0  0  0  0
  -20.0562  -26.8887   22.4183 C   0  0  0  0  0  0  0  0  0  0  0  0
  -25.8985  -19.1879   21.4064 C   0  0  0  0  0  0  0  0  0  0  0  0
  -30.9060  -30.2236   24.6046 C   0  0  0  0  0  0  0  0  0  0  0  0
  -26.6591  -21.1555   20.0232 C   0  0  0  0  0  0  0  0  0  0  0  0
  -28.1284  -19.1859   20.1968 C   0  0  0  0  0  0  0  0  0  0  0  0
  -30.9310  -23.8427   21.3693 C   0  0  0  0  0  0  0  0  0  0  0  0
  -29.8333  -25.1975   20.1950 C   0  0  0  0  0  0  0  0  0  0  0  0
  -20.4787  -28.2461   22.9931 C   0  0  1  0  0  0  0  0  0  0  0  0
  -30.1423  -28.9218   24.5361 C   0  0  1  0  0  0  0  0  0  0  0  0
  -23.2604  -29.6573   20.8242 C   0  0  1  0  0  0  0  0  0  0  0  0
  -27.3496  -18.6724   21.4213 C   0  0  2  0  0  0  0  0  0  0  0  0
  -30.2015  -23.7169   20.0243 C   0  0  0  0  0  0  0  0  0  0  0  0
  -29.6335  -30.1520   23.8172 C   0  0  1  0  0  0  0  0  0  1  0  0
  -27.8937  -27.5921   14.9701 C   0  0  0  0  0  0  0  0  0  0  0  0
  -33.5426  -24.7456   24.1187 C   0  0  0  0  0  0  0  0  0  0  0  0
  -34.4508  -26.4205   22.4526 C   0  0  0  0  0  0  0  0  0  0  0  0
  -24.2149  -25.2221   19.9420 C   0  0  0  0  0  0  0  0  0  0  0  0
  -25.9272  -24.8211   18.1601 C   0  0  0  0  0  0  0  0  0  0  0  0
  -23.6333  -25.5765   17.5357 C   0  0  0  0  0  0  0  0  0  0  0  0
  -27.6458  -31.0380   16.5641 C   0  0  0  0  0  0  0  0  0  0  0  0
  -25.2196  -27.2094   18.6354 C   0  0  1  0  0  0  0  0  0  0  0  0
  -27.2515  -28.6929   15.7999 C   0  0  2  0  0  0  0  0  0  0  0  0
  -33.2585  -25.5467   22.8466 C   0  0  0  0  0  0  0  0  0  0  0  0
  -24.7531  -25.7270   18.5884 C   0  0  0  0  0  0  0  0  0  0  0  0
  -26.4315  -16.4272   20.9755 N   0  0  0  0  0  0  0  0  0  0  0  0
  -31.9550  -27.2825   23.8786 N   0  0  0  0  0  0  0  0  0  0  0  0
  -32.0375  -26.3131   22.9516 N   0  0  0  0  0  0  0  0  0  0  0  0
  -27.4078  -17.1604   21.5371 N   0  0  0  0  0  0  0  0  0  0  0  0
  -30.8142  -25.2496   21.2198 N   0  0  0  0  0  0  0  0  0  0  0  0
  -24.3595  -28.8874   20.2380 N   0  0  0  0  0  0  0  0  0  0  0  0
  -28.0359  -20.6475   20.1087 N   0  0  0  0  0  0  0  0  0  0  0  0
  -29.4169  -16.9948   22.7807 N   0  0  0  0  0  0  0  0  0  0  0  0
  -28.1677  -12.6885   22.2409 N   0  0  0  0  0  0  0  0  0  0  0  0
  -21.2761  -28.9762   22.0310 N   0  0  0  0  0  0  0  0  0  0  0  0
  -25.7089  -27.7226   17.3605 N   0  0  0  0  0  0  0  0  0  0  0  0
  -29.0528  -22.7876   20.0270 N   0  0  0  0  0  0  0  0  0  0  0  0
  -28.1633  -29.8717   15.8032 N   0  3  0  0  0  0  0  0  0  0  0  0
  -29.7529  -14.0659   23.1622 O   0  0  0  0  0  0  0  0  0  0  0  0
  -23.3413  -28.0198   22.5233 O   0  0  0  0  0  0  0  0  0  0  0  0
  -23.0867  -28.2207   18.4018 O   0  0  0  0  0  0  0  0  0  0  0  0
  -27.8228  -28.3047   18.1151 O   0  0  0  0  0  0  0  0  0  0  0  0
  -30.3403  -20.9021   20.1851 O   0  0  0  0  0  0  0  0  0  0  0  0
  -23.6365  -10.8868   19.5471 O   0  0  0  0  0  0  0  0  0  0  0  0
  -28.4751  -30.8044   24.4142 O   0  0  0  0  0  0  0  0  0  1  0  0
  -22.5935   -6.8600   23.1667 F   0  0  0  0  0  0  0  0  0  0  0  0
  -21.0416  -10.2723   20.2764 F   0  0  0  0  0  0  0  0  0  0  0  0
  1  2  1  0  0  0  0
  1  5  2  0  0  0  0
  2  6  2  0  0  0  0
  3  8  2  0  0  0  0
  3 16  1  0  0  0  0
  4  9  1  0  0  0  0
  4 16  2  0  0  0  0
  5 18  1  0  0  0  0
  6 20  1  0  0  0  0
  7 10  2  0  0  0  0
  7 19  1  0  0  0  0
  8 22  1  0  0  0  0
  9 22  2  0  0  0  0
 10 23  1  0  0  0  0
 11 12  2  0  0  0  0
 11 24  1  0  0  0  0
 12 25  1  0  0  0  0
 13 21  1  0  0  0  0
 13 23  2  0  0  0  0
 14 25  2  0  0  0  0
 14 26  1  0  0  0  0
 15 28  1  0  0  0  0
 15 29  2  0  0  0  0
 16 27  1  0  0  0  0
 17 27  1  0  0  0  0
 17 30  2  0  0  0  0
 17 31  1  0  0  0  0
 18 20  2  0  0  0  0
 18 36  1  0  0  0  0
 19 21  2  0  0  0  0
 19 37  1  0  0  0  0
 20 48  1  0  0  0  0
 21 38  1  0  0  0  0
 22 83  1  0  0  0  0
 23 84  1  0  0  0  0
 24 26  2  0  0  0  0
 24 83  1  0  0  0  0
 25 85  1  0  0  0  0
 26 86  1  0  0  0  0
 27 65  2  0  0  0  0
 28 49  1  0  0  0  0
 28 66  2  0  0  0  0
 29 67  1  0  0  0  0
 29 69  1  0  0  0  0
 30 68  1  0  0  0  0
 30 72  1  0  0  0  0
 31 73  1  0  0  0  0
 31 78  2  0  0  0  0
 32 50  1  0  0  0  0
 32 74  1  0  0  0  0
 32 79  2  0  0  0  0
 33 61  1  0  0  0  0
 33 70  1  0  0  0  0
 33 80  2  0  0  0  0
 34 62  1  0  0  0  0
 34 75  1  0  0  0  0
 34 81  2  0  0  0  0
 35 71  1  0  0  0  0
 35 76  1  0  0  0  0
 35 82  2  0  0  0  0
 36 39  1  0  0  0  0
 37 50  1  0  0  0  0
 38 70  1  0  0  0  0
 39 41  1  0  0  0  0
 40 42  1  0  0  0  0
 40 44  1  0  0  0  0
 41 48  1  0  0  0  0
 42 51  1  0  0  0  0
 43 49  1  0  0  0  0
 43 53  1  0  0  0  0
 44 71  1  0  0  0  0
 45 51  1  0  0  0  0
 45 71  1  0  0  0  0
 46 52  1  0  0  0  0
 46 69  1  0  0  0  0
 47 52  1  0  0  0  0
 47 69  1  0  0  0  0
 48 74  1  0  0  0  0
 49 53  1  0  0  0  0
 50 70  1  0  0  0  0
 51 68  1  0  0  0  0
 52 76  1  0  0  0  0
 53 84  1  0  0  0  0
 54 62  1  0  0  0  0
 55 63  1  0  0  0  0
 56 63  1  0  0  0  0
 57 64  1  0  0  0  0
 58 64  1  0  0  0  0
 59 64  1  0  0  0  0
 60 77  1  0  0  0  0
 61 64  1  0  0  0  0
 61 75  1  0  0  0  0
 62 77  1  0  0  0  0
 63 67  1  0  0  0  0
 65 68  1  0  0  0  0
 66 67  1  0  0  0  0
M  CHG  1  77   1
M  ISO  4  35 100  53 101  76 100  84 101
M  END
> <Batch ID>
0199

> <Smiles>
CNC(C)C(=O)NC(C(=O)N1Cc2cc([101O:1][101CH:1]3CC3c3cc(N4CC([100NH:0][100C:0](=O)N5CCCC(n6nc(-c7ccc(Oc8ccc(F)cc8F)cc7)c(C(N)=O)c6N)C5)C4)n(C(C)C)n3)ccc2CC1C(=O)NC1CCCc2ccccc21)C(C)(C)C

> <Shape>
0.310

> <Color>
0.103

> <Negative vol penalty>
0.000

$$$$

  -OEChem-04052323503D

 84 93  0     1  0  0  0  0  0999 V2000
  -27.4919  -24.6886   16.2238 C   0  0  0  0  0  0  0  0  0  0  0  0
  -26.3323  -24.9322   16.9529 C   0  0  0  0  0  0  0  0  0  0  0  0
  -28.5380  -14.1028   20.8509 C   0  0  0  0  0  0  0  0  0  0  0  0
  -29.4830  -13.9524   18.6325 C   0  0  0  0  0  0  0  0  0  0  0  0
  -28.7301  -25.0728   16.7369 C   0  0  0  0  0  0  0  0  0  0  0  0
  -26.4104  -25.5590   18.1960 C   0  0  0  0  0  0  0  0  0  0  0  0
  -22.9129  -29.1759   18.7710 C   0  0  0  0  0  0  0  0  0  0  0  0
  -28.3526  -12.7204   20.8657 C   0  0  0  0  0  0  0  0  0  0  0  0
  -29.2977  -12.5700   18.6472 C   0  0  0  0  0  0  0  0  0  0  0  0
  -21.6144  -28.7645   19.0681 C   0  0  0  0  0  0  0  0  0  0  0  0
  -27.9625   -9.1883   21.6319 C   0  0  0  0  0  0  0  0  0  0  0  0
  -28.3285   -8.4972   22.7868 C   0  0  0  0  0  0  0  0  0  0  0  0
  -21.9915  -29.2751   21.3954 C   0  0  0  0  0  0  0  0  0  0  0  0
  -30.6037   -9.2672   22.5265 C   0  0  0  0  0  0  0  0  0  0  0  0
  -19.5032  -24.6908   21.2410 C   0  0  0  0  0  0  0  0  0  0  0  0
  -29.1032  -14.7188   19.7342 C   0  0  0  0  0  0  0  0  0  0  0  0
  -30.4291  -16.8575   20.1531 C   0  0  0  0  0  0  0  0  0  0  0  0
  -28.8225  -25.7134   17.9826 C   0  0  0  0  0  0  0  0  0  0  0  0
  -23.7656  -29.6305   19.7872 C   0  0  0  0  0  0  0  0  0  0  0  0
  -27.6511  -25.9509   18.7268 C   0  0  0  0  0  0  0  0  0  0  0  0
  -23.2996  -29.6941   21.1081 C   0  0  0  0  0  0  0  0  0  0  0  0
  -28.7325  -11.9540   19.7639 C   0  0  0  0  0  0  0  0  0  0  0  0
  -21.1544  -28.8113   20.3808 C   0  0  0  0  0  0  0  0  0  0  0  0
  -28.9171   -9.9188   20.9241 C   0  0  0  0  0  0  0  0  0  0  0  0
  -29.6491   -8.5367   23.2342 C   0  0  0  0  0  0  0  0  0  0  0  0
  -30.2377   -9.9582   21.3715 C   0  0  0  0  0  0  0  0  0  0  0  0
  -29.2944  -16.1468   19.7181 C   0  0  0  0  0  0  0  0  0  0  0  0
  -19.3637  -23.9671   20.0835 C   0  0  0  0  0  0  0  0  0  0  0  0
  -30.1153  -18.1758   19.9291 C   0  0  0  0  0  0  0  0  0  0  0  0
  -31.6570  -16.3697   20.7098 C   0  0  0  0  0  0  0  0  0  0  0  0
  -26.5470  -28.6614   20.9822 C   0  0  0  0  0  0  0  0  0  0  0  0
  -26.3300  -31.4131   22.6861 C   0  0  0  0  0  0  0  0  0  0  0  0
  -24.3438  -33.8534   24.0078 C   0  0  0  0  0  0  0  0  0  0  0  0
  -25.1548  -21.1347   19.7099 C   0  0  0  0  0  0  0  0  0  0  0  0
  -30.1875  -26.0676   18.5172 C   0  0  0  0  0  0  0  0  0  0  0  0
  -25.1546  -30.0960   19.4462 C   0  0  0  0  0  0  0  0  0  0  0  0
  -24.1686  -30.1933   22.2325 C   0  0  0  0  0  0  0  0  0  0  0  0
  -30.1492  -27.0638   19.6733 C   0  0  0  0  0  0  0  0  0  0  0  0
  -27.4858  -20.9765   17.0860 C   0  0  0  0  0  0  0  0  0  0  0  0
  -29.0921  -26.6560   20.6946 C   0  0  0  0  0  0  0  0  0  0  0  0
  -28.3348  -19.7773   17.5066 C   0  0  0  0  0  0  0  0  0  0  0  0
  -25.9969  -20.7462   17.3509 C   0  0  0  0  0  0  0  0  0  0  0  0
  -23.3526  -21.8384   18.0724 C   0  0  0  0  0  0  0  0  0  0  0  0
  -23.7497  -23.1276   20.1384 C   0  0  0  0  0  0  0  0  0  0  0  0
  -26.5382  -19.1538   19.1648 C   0  0  0  0  0  0  0  0  0  0  0  0
  -21.8943  -21.6328   18.4698 C   0  0  0  0  0  0  0  0  0  0  0  0
  -22.3094  -22.9211   20.5781 C   0  0  0  0  0  0  0  0  0  0  0  0
  -27.6926  -26.6508   20.0679 C   0  0  1  0  0  0  0  0  0  0  0  0
  -26.1073  -30.0561   20.6371 C   0  0  1  0  0  0  0  0  0  0  0  0
  -28.0448  -19.3796   18.9648 C   0  0  1  0  0  0  0  0  0  0  0  0
  -24.4500  -35.9507   25.3817 C   0  0  0  0  0  0  0  0  0  0  0  0
  -26.7447  -29.7399   25.2038 C   0  0  0  0  0  0  0  0  0  0  0  0
  -25.9061  -31.6794   26.5467 C   0  0  0  0  0  0  0  0  0  0  0  0
  -27.9802  -31.9142   25.1809 C   0  0  0  0  0  0  0  0  0  0  0  0
  -23.2047  -35.4847   21.8168 C   0  0  0  0  0  0  0  0  0  0  0  0
  -19.9852  -22.6536   19.7100 C   0  0  0  0  0  0  0  0  0  0  0  0
  -18.4878  -26.8869   21.9277 C   0  0  0  0  0  0  0  0  0  0  0  0
  -19.6640  -27.8565   21.9692 C   0  0  0  0  0  0  0  0  0  1  0  0
  -25.7375  -31.8011   24.0193 C   0  0  1  0  0  0  0  0  0  0  0  0
  -24.4527  -35.3672   23.9773 C   0  0  2  0  0  0  0  0  0  0  0  0
  -26.5762  -31.2724   25.2170 C   0  0  0  0  0  0  0  0  0  0  0  0
  -28.3316  -16.9473   19.2531 N   0  0  0  0  0  0  0  0  0  0  0  0
  -18.5213  -24.6236   19.2298 N   0  0  0  0  0  0  0  0  0  0  0  0
  -18.1290  -25.7446   19.8252 N   0  0  0  0  0  0  0  0  0  0  0  0
  -18.7190  -25.7831   21.0309 N   0  0  0  0  0  0  0  0  0  0  0  0
  -28.8604  -18.1746   19.3947 N   0  0  0  0  0  0  0  0  0  0  0  0
  -25.5210  -30.6313   21.8494 N   0  0  0  0  0  0  0  0  0  0  0  0
  -25.7739  -20.3294   18.7423 N   0  0  0  0  0  0  0  0  0  0  0  0
  -24.1941  -22.0507   19.2562 N   0  0  0  0  0  0  0  0  0  0  0  0
  -30.7930  -19.3242   20.1392 N   0  0  0  0  0  0  0  0  0  0  0  0
  -31.8143  -14.9864   20.8714 N   0  0  0  0  0  0  0  0  0  0  0  0
  -27.1865  -28.0015   19.9502 N   0  0  0  0  0  0  0  0  0  0  0  0
  -25.5843  -33.2517   23.9913 N   0  0  0  0  0  0  0  0  0  0  0  0
  -21.4402  -22.7714   19.3514 N   0  3  0  0  0  0  0  0  0  0  0  0
  -23.3092  -35.9537   23.2226 N   0  3  0  0  0  0  0  0  0  0  0  0
  -32.5807  -17.1387   21.0689 O   0  0  0  0  0  0  0  0  0  0  0  0
  -26.3240  -28.2174   22.1024 O   0  0  0  0  0  0  0  0  0  0  0  0
  -27.4659  -31.7958   22.3948 O   0  0  0  0  0  0  0  0  0  0  0  0
  -23.2661  -33.2638   24.0464 O   0  0  0  0  0  0  0  0  0  0  0  0
  -25.4431  -21.0403   20.9096 O   0  0  0  0  0  0  0  0  0  0  0  0
  -28.5519  -10.6050   19.7781 O   0  0  0  0  0  0  0  0  0  0  0  0
  -19.8787  -28.4069   20.6757 O   0  0  0  0  0  0  0  0  0  1  0  0
  -30.0001   -7.8743   24.3442 F   0  0  0  0  0  0  0  0  0  0  0  0
  -31.1589  -10.6593   20.6964 F   0  0  0  0  0  0  0  0  0  0  0  0
  1  2  1  0  0  0  0
  1  5  2  0  0  0  0
  2  6  2  0  0  0  0
  3  8  2  0  0  0  0
  3 16  1  0  0  0  0
  4  9  1  0  0  0  0
  4 16  2  0  0  0  0
  5 18  1  0  0  0  0
  6 20  1  0  0  0  0
  7 10  2  0  0  0  0
  7 19  1  0  0  0  0
  8 22  1  0  0  0  0
  9 22  2  0  0  0  0
 10 23  1  0  0  0  0
 11 12  2  0  0  0  0
 11 24  1  0  0  0  0
 12 25  1  0  0  0  0
 13 21  1  0  0  0  0
 13 23  2  0  0  0  0
 14 25  2  0  0  0  0
 14 26  1  0  0  0  0
 15 28  2  0  0  0  0
 15 65  1  0  0  0  0
 16 27  1  0  0  0  0
 17 27  1  0  0  0  0
 17 29  2  0  0  0  0
 17 30  1  0  0  0  0
 18 20  2  0  0  0  0
 18 35  1  0  0  0  0
 19 21  2  0  0  0  0
 19 36  1  0  0  0  0
 20 48  1  0  0  0  0
 21 37  1  0  0  0  0
 22 81  1  0  0  0  0
 23 82  1  0  0  0  0
 24 26  2  0  0  0  0
 24 81  1  0  0  0  0
 25 83  1  0  0  0  0
 26 84  1  0  0  0  0
 27 62  2  0  0  0  0
 28 56  1  0  0  0  0
 28 63  1  0  0  0  0
 29 66  1  0  0  0  0
 29 70  1  0  0  0  0
 30 71  1  0  0  0  0
 30 76  2  0  0  0  0
 31 49  1  0  0  0  0
 31 72  1  0  0  0  0
 31 77  2  0  0  0  0
 32 59  1  0  0  0  0
 32 67  1  0  0  0  0
 32 78  2  0  0  0  0
 33 60  1  0  0  0  0
 33 73  1  0  0  0  0
 33 79  2  0  0  0  0
 34 68  1  0  0  0  0
 34 69  1  0  0  0  0
 34 80  2  0  0  0  0
 35 38  1  0  0  0  0
 36 49  1  0  0  0  0
 37 67  1  0  0  0  0
 38 40  1  0  0  0  0
 39 41  1  0  0  0  0
 39 42  1  0  0  0  0
 40 48  1  0  0  0  0
 41 50  1  0  0  0  0
 42 68  1  0  0  0  0
 43 46  1  0  0  0  0
 43 69  1  0  0  0  0
 44 47  1  0  0  0  0
 44 69  1  0  0  0  0
 45 50  1  0  0  0  0
 45 68  1  0  0  0  0
 46 74  1  0  0  0  0
 47 74  1  0  0  0  0
 48 72  1  0  0  0  0
 49 67  1  0  0  0  0
 50 66  1  0  0  0  0
 51 60  1  0  0  0  0
 52 61  1  0  0  0  0
 53 61  1  0  0  0  0
 54 61  1  0  0  0  0
 55 75  1  0  0  0  0
 56 74  1  0  0  0  0
 57 58  1  0  0  0  0
 57 65  1  0  0  0  0
 58 82  1  0  0  0  0
 59 61  1  0  0  0  0
 59 73  1  0  0  0  0
 60 75  1  0  0  0  0
 62 66  1  0  0  0  0
 63 64  2  0  0  0  0
 64 65  1  0  0  0  0
M  CHG  2  74   1  75   1
M  ISO  4  34 100  58 101  69 100  82 101
M  END
> <Batch ID>
0199

> <Smiles>
CNC(C)C(=O)NC(C(=O)N1Cc2cc([101O:1][101CH2:1]Cn3cc(CN4CC[100N:0]([100C:0](=O)N5CCCC(n6nc(-c7ccc(Oc8ccc(F)cc8F)cc7)c(C(N)=O)c6N)C5)CC4)nn3)ccc2CC1C(=O)NC1CCCc2ccccc21)C(C)(C)C

> <Shape>
0.285

> <Color>
0.064

> <Negative vol penalty>
0.000

$$$$

  -OEChem-04052323503D

 85 94  0     1  0  0  0  0  0999 V2000
  -22.6764   -7.5982   21.4444 C   0  0  0  0  0  0  0  0  0  0  0  0
  -23.7904   -8.4296   21.5011 C   0  0  0  0  0  0  0  0  0  0  0  0
  -23.9619  -31.1327   21.3832 C   0  0  0  0  0  0  0  0  0  0  0  0
  -26.1943  -31.1131   22.3068 C   0  0  0  0  0  0  0  0  0  0  0  0
  -21.4282   -8.1282   21.1205 C   0  0  0  0  0  0  0  0  0  0  0  0
  -23.6570   -9.7914   21.2328 C   0  0  0  0  0  0  0  0  0  0  0  0
  -26.1381  -12.6811   24.5703 C   0  0  0  0  0  0  0  0  0  0  0  0
  -23.6170  -32.1787   22.2391 C   0  0  0  0  0  0  0  0  0  0  0  0
  -25.8494  -32.1591   23.1627 C   0  0  0  0  0  0  0  0  0  0  0  0
  -27.5189  -12.7928   24.4132 C   0  0  0  0  0  0  0  0  0  0  0  0
  -25.6633  -35.0651   25.3395 C   0  0  0  0  0  0  0  0  0  0  0  0
  -26.5645  -36.1218   25.4694 C   0  0  0  0  0  0  0  0  0  0  0  0
  -27.2178  -14.9335   23.3427 C   0  0  0  0  0  0  0  0  0  0  0  0
  -26.3784  -36.5715   23.1029 C   0  0  0  0  0  0  0  0  0  0  0  0
  -25.2506  -30.5999   21.4171 C   0  0  0  0  0  0  0  0  0  0  0  0
  -26.1450  -29.6234   19.2367 C   0  0  0  0  0  0  0  0  0  0  0  0
  -21.2777   -9.4990   20.8576 C   0  0  0  0  0  0  0  0  0  0  0  0
  -25.2846  -13.6915   24.1042 C   0  0  0  0  0  0  0  0  0  0  0  0
  -22.4058  -10.3401   20.9038 C   0  0  0  0  0  0  0  0  0  0  0  0
  -25.8267  -14.8334   23.4973 C   0  0  0  0  0  0  0  0  0  0  0  0
  -24.5607  -32.6919   23.1289 C   0  0  0  0  0  0  0  0  0  0  0  0
  -28.0588  -13.9178   23.7968 C   0  0  0  0  0  0  0  0  0  0  0  0
  -25.1197  -34.7616   24.0912 C   0  0  0  0  0  0  0  0  0  0  0  0
  -26.9220  -36.8750   24.3511 C   0  0  0  0  0  0  0  0  0  0  0  0
  -25.4772  -35.5148   22.9730 C   0  0  0  0  0  0  0  0  0  0  0  0
  -25.6073  -29.5190   20.5335 C   0  0  0  0  0  0  0  0  0  0  0  0
  -26.3045  -28.3226   18.8255 C   0  0  0  0  0  0  0  0  0  0  0  0
  -33.3041  -18.0550   22.1075 C   0  0  0  0  0  0  0  0  0  0  0  0
  -32.4064  -19.0558   21.6007 C   0  0  0  0  0  0  0  0  0  0  0  0
  -33.0702  -16.7653   21.8512 C   0  0  0  0  0  0  0  0  0  0  0  0
  -31.3265  -18.7391   20.8687 C   0  0  0  0  0  0  0  0  0  0  0  0
  -31.0582  -17.2813   20.5759 C   0  0  0  0  0  0  0  0  0  0  0  0
  -26.4711  -30.7916   18.4721 C   0  0  0  0  0  0  0  0  0  0  0  0
  -22.9569  -13.8423   21.9448 C   0  0  0  0  0  0  0  0  0  0  0  0
  -22.5976  -16.8469   23.1135 C   0  0  0  0  0  0  0  0  0  0  0  0
  -23.9898  -19.5158   24.7215 C   0  0  0  0  0  0  0  0  0  0  0  0
  -28.1530  -23.2425   19.9211 C   0  0  0  0  0  0  0  0  0  0  0  0
  -19.9169  -10.0178   20.4654 C   0  0  0  0  0  0  0  0  0  0  0  0
  -23.7991  -13.5682   24.3052 C   0  0  0  0  0  0  0  0  0  0  0  0
  -24.9550  -15.9554   22.9977 C   0  0  0  0  0  0  0  0  0  0  0  0
  -19.7929  -11.5362   20.5618 C   0  0  0  0  0  0  0  0  0  0  0  0
  -24.6441  -23.9999   20.8113 C   0  0  0  0  0  0  0  0  0  0  0  0
  -21.0007  -12.2121   19.9205 C   0  0  0  0  0  0  0  0  0  0  0  0
  -24.6548  -25.5245   20.7667 C   0  0  0  0  0  0  0  0  0  0  0  0
  -25.9830  -23.4282   21.2762 C   0  0  0  0  0  0  0  0  0  0  0  0
  -27.1554  -25.4464   20.4353 C   0  0  0  0  0  0  0  0  0  0  0  0
  -29.0604  -19.5133   20.0865 C   0  0  0  0  0  0  0  0  0  0  0  0
  -30.4988  -21.0390   20.2589 C   0  0  0  0  0  0  0  0  0  0  0  0
  -22.2970  -11.8269   20.6435 C   0  0  1  0  0  0  0  0  0  0  0  0
  -22.9915  -14.4206   23.3312 C   0  0  1  0  0  0  0  0  0  0  0  0
  -25.8320  -26.0322   19.9208 C   0  0  2  0  0  0  0  0  0  0  0  0
  -29.1306  -20.9567   19.5611 C   0  0  0  0  0  0  0  0  0  0  0  0
  -23.4607  -21.8426   25.4984 C   0  0  0  0  0  0  0  0  0  0  0  0
  -22.8398  -17.8572   20.2446 C   0  0  0  0  0  0  0  0  0  0  0  0
  -23.2584  -20.1492   21.1610 C   0  0  0  0  0  0  0  0  0  0  0  0
  -21.0876  -19.0054   21.6106 C   0  0  0  0  0  0  0  0  0  0  0  0
  -24.4828  -18.8074   27.5524 C   0  0  0  0  0  0  0  0  0  0  0  0
  -31.2294  -14.2195   22.0930 C   0  0  0  0  0  0  0  0  0  0  0  0
  -31.8069  -14.9334   20.8783 C   0  0  0  0  0  0  0  0  0  0  0  0
  -29.8711  -14.7682   22.5129 C   0  0  0  0  0  0  0  0  0  1  0  0
  -23.1788  -18.1999   22.7811 C   0  0  1  0  0  0  0  0  0  0  0  0
  -23.4918  -20.3692   25.8739 C   0  0  2  0  0  0  0  0  0  0  0  0
  -22.6077  -18.7811   21.4569 C   0  0  0  0  0  0  0  0  0  0  0  0
  -25.4366  -28.2521   20.9206 N   0  0  0  0  0  0  0  0  0  0  0  0
  -25.8694  -27.5484   19.8606 N   0  0  0  0  0  0  0  0  0  0  0  0
  -31.9753  -16.3427   21.1013 N   0  0  0  0  0  0  0  0  0  0  0  0
  -30.4357  -19.6365   20.3580 N   0  0  0  0  0  0  0  0  0  0  0  0
  -23.5084  -15.7854   23.2118 N   0  0  0  0  0  0  0  0  0  0  0  0
  -27.1084  -23.9807   20.5057 N   0  0  0  0  0  0  0  0  0  0  0  0
  -26.7731  -27.7770   17.6831 N   0  0  0  0  0  0  0  0  0  0  0  0
  -26.2441  -32.0502   19.0454 N   0  0  0  0  0  0  0  0  0  0  0  0
  -22.4257  -12.5683   21.8797 N   0  0  0  0  0  0  0  0  0  0  0  0
  -22.9496  -19.0412   23.9508 N   0  0  0  0  0  0  0  0  0  0  0  0
  -28.1013  -21.8645   20.1074 N   0  0  0  0  0  0  0  0  0  0  0  0
  -24.3782  -20.2053   27.0607 N   0  3  0  0  0  0  0  0  0  0  0  0
  -30.0727  -16.9701   19.9058 O   0  0  0  0  0  0  0  0  0  0  0  0
  -26.9342  -30.7215   17.3084 O   0  0  0  0  0  0  0  0  0  0  0  0
  -23.3795  -14.5036   21.0036 O   0  0  0  0  0  0  0  0  0  0  0  0
  -21.3813  -16.7372   23.2869 O   0  0  0  0  0  0  0  0  0  0  0  0
  -25.1824  -19.2955   24.5226 O   0  0  0  0  0  0  0  0  0  0  0  0
  -29.0725  -23.7676   19.2840 O   0  0  0  0  0  0  0  0  0  0  0  0
  -24.2246  -33.7127   23.9640 O   0  0  0  0  0  0  0  0  0  0  0  0
  -29.4061  -14.0290   23.6416 O   0  0  0  0  0  0  0  0  0  1  0  0
  -27.7862  -37.8907   24.4763 F   0  0  0  0  0  0  0  0  0  0  0  0
  -24.9574  -35.2286   21.7714 F   0  0  0  0  0  0  0  0  0  0  0  0
  1  2  1  0  0  0  0
  1  5  2  0  0  0  0
  2  6  2  0  0  0  0
  3  8  2  0  0  0  0
  3 15  1  0  0  0  0
  4  9  1  0  0  0  0
  4 15  2  0  0  0  0
  5 17  1  0  0  0  0
  6 19  1  0  0  0  0
  7 10  2  0  0  0  0
  7 18  1  0  0  0  0
  8 21  1  0  0  0  0
  9 21  2  0  0  0  0
 10 22  1  0  0  0  0
 11 12  2  0  0  0  0
 11 23  1  0  0  0  0
 12 24  1  0  0  0  0
 13 20  1  0  0  0  0
 13 22  2  0  0  0  0
 14 24  2  0  0  0  0
 14 25  1  0  0  0  0
 15 26  1  0  0  0  0
 16 26  1  0  0  0  0
 16 27  2  0  0  0  0
 16 33  1  0  0  0  0
 17 19  2  0  0  0  0
 17 38  1  0  0  0  0
 18 20  2  0  0  0  0
 18 39  1  0  0  0  0
 19 49  1  0  0  0  0
 20 40  1  0  0  0  0
 21 82  1  0  0  0  0
 22 83  1  0  0  0  0
 23 25  2  0  0  0  0
 23 82  1  0  0  0  0
 24 84  1  0  0  0  0
 25 85  1  0  0  0  0
 26 64  2  0  0  0  0
 27 65  1  0  0  0  0
 27 70  1  0  0  0  0
 28 29  1  0  0  0  0
 28 30  2  0  0  0  0
 29 31  2  0  0  0  0
 30 66  1  0  0  0  0
 31 32  1  0  0  0  0
 31 67  1  0  0  0  0
 32 66  1  0  0  0  0
 32 76  2  0  0  0  0
 33 71  1  0  0  0  0
 33 77  2  0  0  0  0
 34 50  1  0  0  0  0
 34 72  1  0  0  0  0
 34 78  2  0  0  0  0
 35 61  1  0  0  0  0
 35 68  1  0  0  0  0
 35 79  2  0  0  0  0
 36 62  1  0  0  0  0
 36 73  1  0  0  0  0
 36 80  2  0  0  0  0
 37 69  1  0  0  0  0
 37 74  1  0  0  0  0
 37 81  2  0  0  0  0
 38 41  1  0  0  0  0
 39 50  1  0  0  0  0
 40 68  1  0  0  0  0
 41 43  1  0  0  0  0
 42 44  1  0  0  0  0
 42 45  1  0  0  0  0
 43 49  1  0  0  0  0
 44 51  1  0  0  0  0
 45 69  1  0  0  0  0
 46 51  1  0  0  0  0
 46 69  1  0  0  0  0
 47 52  1  0  0  0  0
 47 67  1  0  0  0  0
 48 52  1  0  0  0  0
 48 67  1  0  0  0  0
 49 72  1  0  0  0  0
 50 68  1  0  0  0  0
 51 65  1  0  0  0  0
 52 74  1  0  0  0  0
 53 62  1  0  0  0  0
 54 63  1  0  0  0  0
 55 63  1  0  0  0  0
 56 63  1  0  0  0  0
 57 75  1  0  0  0  0
 58 59  1  0  0  0  0
 58 60  1  0  0  0  0
 59 66  1  0  0  0  0
 60 83  1  0  0  0  0
 61 63  1  0  0  0  0
 61 73  1  0  0  0  0
 62 75  1  0  0  0  0
 64 65  1  0  0  0  0
M  CHG  1  75   1
M  ISO  4  37 100  60 101  74 100  83 101
M  END
> <Batch ID>
0199

> <Smiles>
CNC(C)C(=O)NC(C(=O)N1Cc2cc([101O:1][101CH2:1]CCn3cccc(N4CC([100NH:0][100C:0](=O)N5CCCC(n6nc(-c7ccc(Oc8ccc(F)cc8F)cc7)c(C(N)=O)c6N)C5)C4)c3=O)ccc2CC1C(=O)NC1CCCc2ccccc21)C(C)(C)C

> <Shape>
0.223

> <Color>
0.070

> <Negative vol penalty>
0.000

$$$$

  -OEChem-04052323503D

 84 93  0     1  0  0  0  0  0999 V2000
  -29.5708  -24.2416   16.9931 C   0  0  0  0  0  0  0  0  0  0  0  0
  -28.3678  -24.2670   17.6914 C   0  0  0  0  0  0  0  0  0  0  0  0
  -21.5448   -8.1908   22.2619 C   0  0  0  0  0  0  0  0  0  0  0  0
  -22.2979   -7.1317   20.2251 C   0  0  0  0  0  0  0  0  0  0  0  0
  -30.6581  -24.9834   17.4528 C   0  0  0  0  0  0  0  0  0  0  0  0
  -28.2518  -25.0334   18.8505 C   0  0  0  0  0  0  0  0  0  0  0  0
  -23.9429  -27.6897   19.0003 C   0  0  0  0  0  0  0  0  0  0  0  0
  -20.7216   -7.0964   22.5266 C   0  0  0  0  0  0  0  0  0  0  0  0
  -21.4747   -6.0373   20.4899 C   0  0  0  0  0  0  0  0  0  0  0  0
  -22.7820  -27.0007   19.3484 C   0  0  0  0  0  0  0  0  0  0  0  0
  -21.5361   -3.2967   22.4663 C   0  0  0  0  0  0  0  0  0  0  0  0
  -22.0780   -2.0232   22.2929 C   0  0  0  0  0  0  0  0  0  0  0  0
  -22.9551  -27.8571   21.5969 C   0  0  0  0  0  0  0  0  0  0  0  0
  -20.3875   -1.5290   20.6391 C   0  0  0  0  0  0  0  0  0  0  0  0
  -20.3467  -23.0953   20.4357 C   0  0  0  0  0  0  0  0  0  0  0  0
  -22.3330   -8.2085   21.1111 C   0  0  0  0  0  0  0  0  0  0  0  0
  -24.5205   -9.5145   21.2399 C   0  0  0  0  0  0  0  0  0  0  0  0
  -30.5525  -25.7669   18.6128 C   0  0  0  0  0  0  0  0  0  0  0  0
  -24.6259  -28.4602   19.9524 C   0  0  0  0  0  0  0  0  0  0  0  0
  -29.3392  -25.7853   19.3269 C   0  0  0  0  0  0  0  0  0  0  0  0
  -24.1230  -28.5570   21.2577 C   0  0  0  0  0  0  0  0  0  0  0  0
  -20.6865   -6.0196   21.6406 C   0  0  0  0  0  0  0  0  0  0  0  0
  -22.2894  -27.0820   20.6475 C   0  0  0  0  0  0  0  0  0  0  0  0
  -20.4199   -3.6864   21.7261 C   0  0  0  0  0  0  0  0  0  0  0  0
  -21.5037   -1.1393   21.3794 C   0  0  0  0  0  0  0  0  0  0  0  0
  -19.8456   -2.8025   20.8125 C   0  0  0  0  0  0  0  0  0  0  0  0
  -23.1832   -9.3390   20.8368 C   0  0  0  0  0  0  0  0  0  0  0  0
  -24.8741  -10.7407   20.7320 C   0  0  0  0  0  0  0  0  0  0  0  0
  -21.9142  -21.8862   21.0976 C   0  0  0  0  0  0  0  0  0  0  0  0
  -25.3675   -8.6467   22.0048 C   0  0  0  0  0  0  0  0  0  0  0  0
  -27.5280  -28.3717   21.2460 C   0  0  0  0  0  0  0  0  0  0  0  0
  -26.5797  -31.1579   22.6099 C   0  0  0  0  0  0  0  0  0  0  0  0
  -24.0085  -33.1531   23.6368 C   0  0  0  0  0  0  0  0  0  0  0  0
  -23.9892  -15.9426   19.7506 C   0  0  0  0  0  0  0  0  0  0  0  0
  -31.7696  -26.5144   19.0972 C   0  0  0  0  0  0  0  0  0  0  0  0
  -25.8620  -29.2189   19.5540 C   0  0  0  0  0  0  0  0  0  0  0  0
  -24.8077  -29.3869   22.3117 C   0  0  0  0  0  0  0  0  0  0  0  0
  -31.4505  -27.5960   20.1261 C   0  0  0  0  0  0  0  0  0  0  0  0
  -22.5191  -13.7540   17.4315 C   0  0  0  0  0  0  0  0  0  0  0  0
  -30.5025  -27.0557   21.1920 C   0  0  0  0  0  0  0  0  0  0  0  0
  -22.6672  -12.4109   18.1459 C   0  0  0  0  0  0  0  0  0  0  0  0
  -22.0262  -18.8326   20.1779 C   0  0  0  0  0  0  0  0  0  0  0  0
  -24.4980  -19.3401   20.2010 C   0  0  0  0  0  0  0  0  0  0  0  0
  -22.1314  -14.8764   18.3959 C   0  0  0  0  0  0  0  0  0  0  0  0
  -22.2817  -17.7199   19.1571 C   0  0  0  0  0  0  0  0  0  0  0  0
  -24.7001  -18.2404   19.1624 C   0  0  0  0  0  0  0  0  0  0  0  0
  -23.1820  -13.6607   20.2766 C   0  0  0  0  0  0  0  0  0  0  0  0
  -29.1668  -26.6240   20.5747 C   0  0  1  0  0  0  0  0  0  0  0  0
  -26.7613  -29.5600   20.7382 C   0  0  1  0  0  0  0  0  0  0  0  0
  -23.6280  -12.5248   19.3428 C   0  0  1  0  0  0  0  0  0  0  0  0
  -23.0896  -19.9300   20.0916 C   0  0  0  0  0  0  0  0  0  0  0  0
  -23.5464  -35.3541   24.7502 C   0  0  0  0  0  0  0  0  0  0  0  0
  -27.3331  -29.9485   25.3080 C   0  0  0  0  0  0  0  0  0  0  0  0
  -25.9974  -31.7553   26.4124 C   0  0  0  0  0  0  0  0  0  0  0  0
  -27.9823  -32.3466   25.0219 C   0  0  0  0  0  0  0  0  0  0  0  0
  -22.5560  -34.1772   21.2703 C   0  0  0  0  0  0  0  0  0  0  0  0
  -20.0938  -24.7208   22.3825 C   0  0  0  0  0  0  0  0  0  0  0  0
  -20.9961  -25.9492   22.3394 C   0  0  0  0  0  0  0  0  0  1  0  0
  -25.8726  -31.5358   23.8890 C   0  0  1  0  0  0  0  0  0  0  0  0
  -23.7340  -34.6311   23.4255 C   0  0  2  0  0  0  0  0  0  0  0  0
  -26.7843  -31.3792   25.1387 C   0  0  0  0  0  0  0  0  0  0  0  0
  -21.1112  -22.0251   20.0684 N   0  0  0  0  0  0  0  0  0  0  0  0
  -22.7186  -10.3712   20.1278 N   0  0  0  0  0  0  0  0  0  0  0  0
  -21.6322  -22.8357   22.0296 N   0  0  0  0  0  0  0  0  0  0  0  0
  -20.6263  -23.6273   21.6275 N   0  0  0  0  0  0  0  0  0  0  0  0
  -23.7699  -11.2071   20.0813 N   0  0  0  0  0  0  0  0  0  0  0  0
  -26.0164  -30.1051   21.8750 N   0  0  0  0  0  0  0  0  0  0  0  0
  -23.0519  -14.9200   19.5406 N   0  0  0  0  0  0  0  0  0  0  0  0
  -23.6588  -17.2177   19.2681 N   0  0  0  0  0  0  0  0  0  0  0  0
  -26.0187  -11.4547   20.7831 N   0  0  0  0  0  0  0  0  0  0  0  0
  -24.8453   -7.4240   22.4483 N   0  0  0  0  0  0  0  0  0  0  0  0
  -22.8778  -20.8946   21.1483 N   0  0  0  0  0  0  0  0  0  0  0  0
  -28.3408  -27.7797   20.2982 N   0  0  0  0  0  0  0  0  0  0  0  0
  -25.3604  -32.8870   23.6885 N   0  0  0  0  0  0  0  0  0  0  0  0
  -22.5008  -34.8175   22.6096 N   0  3  0  0  0  0  0  0  0  0  0  0
  -26.5472   -8.9538   22.3007 O   0  0  0  0  0  0  0  0  0  0  0  0
  -27.3934  -28.0190   22.4119 O   0  0  0  0  0  0  0  0  0  0  0  0
  -27.5904  -31.7789   22.2715 O   0  0  0  0  0  0  0  0  0  0  0  0
  -23.1131  -32.3187   23.7489 O   0  0  0  0  0  0  0  0  0  0  0  0
  -25.0587  -15.7290   20.3351 O   0  0  0  0  0  0  0  0  0  0  0  0
  -19.8835   -4.9514   21.8987 O   0  0  0  0  0  0  0  0  0  0  0  0
  -21.1346  -26.3967   20.9968 O   0  0  0  0  0  0  0  0  0  1  0  0
  -22.0252    0.0831   21.2119 F   0  0  0  0  0  0  0  0  0  0  0  0
  -18.7739   -3.1716   20.0976 F   0  0  0  0  0  0  0  0  0  0  0  0
  1  2  1  0  0  0  0
  1  5  2  0  0  0  0
  2  6  2  0  0  0  0
  3  8  2  0  0  0  0
  3 16  1  0  0  0  0
  4  9  1  0  0  0  0
  4 16  2  0  0  0  0
  5 18  1  0  0  0  0
  6 20  1  0  0  0  0
  7 10  2  0  0  0  0
  7 19  1  0  0  0  0
  8 22  1  0  0  0  0
  9 22  2  0  0  0  0
 10 23  1  0  0  0  0
 11 12  2  0  0  0  0
 11 24  1  0  0  0  0
 12 25  1  0  0  0  0
 13 21  1  0  0  0  0
 13 23  2  0  0  0  0
 14 25  2  0  0  0  0
 14 26  1  0  0  0  0
 15 62  2  0  0  0  0
 15 65  1  0  0  0  0
 16 27  1  0  0  0  0
 17 27  1  0  0  0  0
 17 28  2  0  0  0  0
 17 30  1  0  0  0  0
 18 20  2  0  0  0  0
 18 35  1  0  0  0  0
 19 21  2  0  0  0  0
 19 36  1  0  0  0  0
 20 48  1  0  0  0  0
 21 37  1  0  0  0  0
 22 81  1  0  0  0  0
 23 82  1  0  0  0  0
 24 26  2  0  0  0  0
 24 81  1  0  0  0  0
 25 83  1  0  0  0  0
 26 84  1  0  0  0  0
 27 63  2  0  0  0  0
 28 66  1  0  0  0  0
 28 70  1  0  0  0  0
 29 62  1  0  0  0  0
 29 64  2  0  0  0  0
 29 72  1  0  0  0  0
 30 71  1  0  0  0  0
 30 76  2  0  0  0  0
 31 49  1  0  0  0  0
 31 73  1  0  0  0  0
 31 77  2  0  0  0  0
 32 59  1  0  0  0  0
 32 67  1  0  0  0  0
 32 78  2  0  0  0  0
 33 60  1  0  0  0  0
 33 74  1  0  0  0  0
 33 79  2  0  0  0  0
 34 68  1  0  0  0  0
 34 69  1  0  0  0  0
 34 80  2  0  0  0  0
 35 38  1  0  0  0  0
 36 49  1  0  0  0  0
 37 67  1  0  0  0  0
 38 40  1  0  0  0  0
 39 41  1  0  0  0  0
 39 44  1  0  0  0  0
 40 48  1  0  0  0  0
 41 50  1  0  0  0  0
 42 45  1  0  0  0  0
 42 51  1  0  0  0  0
 43 46  1  0  0  0  0
 43 51  1  0  0  0  0
 44 68  1  0  0  0  0
 45 69  1  0  0  0  0
 46 69  1  0  0  0  0
 47 50  1  0  0  0  0
 47 68  1  0  0  0  0
 48 73  1  0  0  0  0
 49 67  1  0  0  0  0
 50 66  1  0  0  0  0
 51 72  1  0  0  0  0
 52 60  1  0  0  0  0
 53 61  1  0  0  0  0
 54 61  1  0  0  0  0
 55 61  1  0  0  0  0
 56 75  1  0  0  0  0
 57 58  1  0  0  0  0
 57 65  1  0  0  0  0
 58 82  1  0  0  0  0
 59 61  1  0  0  0  0
 59 74  1  0  0  0  0
 60 75  1  0  0  0  0
 63 66  1  0  0  0  0
 64 65  1  0  0  0  0
M  CHG  1  75   1
M  ISO  4  34 100  58 101  69 100  82 101
M  END
> <Batch ID>
0199

> <Smiles>
CNC(C)C(=O)NC(C(=O)N1Cc2cc([101O:1][101CH2:1]Cn3cnc(NC4CC[100N:0]([100C:0](=O)N5CCCC(n6nc(-c7ccc(Oc8ccc(F)cc8F)cc7)c(C(N)=O)c6N)C5)CC4)n3)ccc2CC1C(=O)NC1CCCc2ccccc21)C(C)(C)C

> <Shape>
0.258

> <Color>
0.077

> <Negative vol penalty>
0.000

$$$$

  -OEChem-04052323503D

 90100  0     1  0  0  0  0  0999 V2000
  -18.7497  -26.8229   17.3320 C   0  0  0  0  0  0  0  0  0  0  0  0
  -19.6162  -25.8905   16.7706 C   0  0  0  0  0  0  0  0  0  0  0  0
  -27.1789  -29.1427   21.3083 C   0  0  0  0  0  0  0  0  0  0  0  0
  -27.2919  -27.7880   23.3056 C   0  0  0  0  0  0  0  0  0  0  0  0
  -18.7910  -27.0742   18.7028 C   0  0  0  0  0  0  0  0  0  0  0  0
  -20.5254  -25.2096   17.5795 C   0  0  0  0  0  0  0  0  0  0  0  0
  -21.5729  -17.5307   18.5609 C   0  0  0  0  0  0  0  0  0  0  0  0
  -26.4666  -30.1161   22.0088 C   0  0  0  0  0  0  0  0  0  0  0  0
  -26.5797  -28.7614   24.0061 C   0  0  0  0  0  0  0  0  0  0  0  0
  -21.7470  -16.1986   18.9371 C   0  0  0  0  0  0  0  0  0  0  0  0
  -24.9316  -33.1200   23.3634 C   0  0  0  0  0  0  0  0  0  0  0  0
  -25.3082  -34.4514   23.1875 C   0  0  0  0  0  0  0  0  0  0  0  0
  -22.5776  -16.9057   21.0954 C   0  0  0  0  0  0  0  0  0  0  0  0
  -27.5167  -33.9368   24.0212 C   0  0  0  0  0  0  0  0  0  0  0  0
  -27.5915  -27.9786   21.9567 C   0  0  0  0  0  0  0  0  0  0  0  0
  -29.5690  -27.1260   20.5890 C   0  0  0  0  0  0  0  0  0  0  0  0
  -19.6945  -26.3891   19.5304 C   0  0  0  0  0  0  0  0  0  0  0  0
  -21.8864  -18.5562   19.4572 C   0  0  0  0  0  0  0  0  0  0  0  0
  -20.5797  -25.4530   18.9625 C   0  0  0  0  0  0  0  0  0  0  0  0
  -22.3936  -18.2415   20.7287 C   0  0  0  0  0  0  0  0  0  0  0  0
  -26.1670  -29.9255   23.3577 C   0  0  0  0  0  0  0  0  0  0  0  0
  -22.2483  -15.8870   20.2012 C   0  0  0  0  0  0  0  0  0  0  0  0
  -25.8474  -32.1969   23.8683 C   0  0  0  0  0  0  0  0  0  0  0  0
  -26.6008  -34.8599   23.5164 C   0  0  0  0  0  0  0  0  0  0  0  0
  -27.1400  -32.6053   24.1971 C   0  0  0  0  0  0  0  0  0  0  0  0
  -28.3268  -26.9724   21.2335 C   0  0  0  0  0  0  0  0  0  0  0  0
  -29.8345  -25.8885   20.0557 C   0  0  0  0  0  0  0  0  0  0  0  0
  -28.5414  -13.1920   18.9237 C   0  0  0  0  0  0  0  0  0  0  0  0
  -28.9072  -15.0528   19.7961 C   0  0  0  0  0  0  0  0  0  0  0  0
  -30.4078  -28.2839   20.4820 C   0  0  0  0  0  0  0  0  0  0  0  0
  -22.0136  -22.2480   20.1133 C   0  0  0  0  0  0  0  0  0  0  0  0
  -21.0189  -20.9183   22.6927 C   0  0  0  0  0  0  0  0  0  0  0  0
  -19.5571  -19.1126   25.1906 C   0  0  0  0  0  0  0  0  0  0  0  0
  -30.0841  -20.5294   20.3043 C   0  0  0  0  0  0  0  0  0  0  0  0
  -19.7346  -26.7289   20.9993 C   0  0  0  0  0  0  0  0  0  0  0  0
  -21.7729  -20.0063   19.0724 C   0  0  0  0  0  0  0  0  0  0  0  0
  -22.7498  -19.3782   21.6473 C   0  0  0  0  0  0  0  0  0  0  0  0
  -20.4709  -25.6926   21.8444 C   0  0  0  0  0  0  0  0  0  0  0  0
  -26.8992  -21.8083   19.5558 C   0  0  0  0  0  0  0  0  0  0  0  0
  -21.7936  -25.3105   21.1877 C   0  0  0  0  0  0  0  0  0  0  0  0
  -27.0842  -23.2911   19.8764 C   0  0  0  0  0  0  0  0  0  0  0  0
  -25.5567  -10.4842   21.3931 C   0  0  0  0  0  0  0  0  0  0  0  0
  -27.5941  -20.9095   20.5798 C   0  0  0  0  0  0  0  0  0  0  0  0
  -29.8094  -17.1417   18.8212 C   0  0  0  0  0  0  0  0  0  0  0  0
  -28.5927  -17.1682   21.0040 C   0  0  0  0  0  0  0  0  0  0  0  0
  -30.6203  -18.3509   19.2794 C   0  0  0  0  0  0  0  0  0  0  0  0
  -29.4330  -18.3676   21.4280 C   0  0  0  0  0  0  0  0  0  0  0  0
  -29.2116  -22.7067   21.1013 C   0  0  0  0  0  0  0  0  0  0  0  0
  -24.0569  -10.7033   21.2863 C   0  0  0  0  0  0  0  0  0  0  0  0
  -25.2782  -12.8118   21.0762 C   0  0  0  0  0  0  0  0  0  0  0  0
  -21.5631  -24.6762   19.8108 C   0  0  1  0  0  0  0  0  0  0  0  0
  -21.3472  -20.9099   20.2434 C   0  0  1  0  0  0  0  0  0  0  0  0
  -26.1516  -11.6539   20.6230 C   0  0  1  0  0  0  0  0  0  0  0  0
  -28.5733  -23.6356   20.0568 C   0  0  2  0  0  0  0  0  0  0  0  0
  -28.4525  -12.1041   17.9222 C   0  0  0  0  0  0  0  0  0  0  0  0
  -18.5655  -19.3639   27.4821 C   0  0  0  0  0  0  0  0  0  0  0  0
  -23.8204  -21.1634   23.8740 C   0  0  0  0  0  0  0  0  0  0  0  0
  -22.8736  -20.4610   26.0827 C   0  0  0  0  0  0  0  0  0  0  0  0
  -22.0854  -22.5670   25.0028 C   0  0  0  0  0  0  0  0  0  0  0  0
  -16.9148  -18.1381   24.2808 C   0  0  0  0  0  0  0  0  0  0  0  0
  -27.6261  -11.8743   20.9111 C   0  0  0  0  0  0  0  0  0  0  0  0
  -22.9854  -12.8394   22.1221 C   0  0  0  0  0  0  0  0  0  0  0  0
  -22.9280  -14.3329   21.8687 C   0  0  0  0  0  0  0  0  0  1  0  0
  -21.3790  -20.3395   24.0376 C   0  0  1  0  0  0  0  0  0  0  0  0
  -18.2854  -19.3411   25.9875 C   0  0  2  0  0  0  0  0  0  0  0  0
  -22.5366  -21.1162   24.7263 C   0  0  0  0  0  0  0  0  0  0  0  0
  -27.8371  -25.7348   21.1210 N   0  0  0  0  0  0  0  0  0  0  0  0
  -29.0072  -14.4434   18.6376 N   0  0  0  0  0  0  0  0  0  0  0  0
  -28.4035  -14.1942   20.7229 N   0  0  0  0  0  0  0  0  0  0  0  0
  -28.7763  -25.0996   20.3995 N   0  0  0  0  0  0  0  0  0  0  0  0
  -28.1594  -12.9889   20.1863 N   0  0  0  0  0  0  0  0  0  0  0  0
  -29.2849  -16.3907   19.9669 N   0  0  0  0  0  0  0  0  0  0  0  0
  -21.7127  -20.4198   21.5833 N   0  0  0  0  0  0  0  0  0  0  0  0
  -28.9999  -21.3015   20.7476 N   0  0  0  0  0  0  0  0  0  0  0  0
  -29.9016  -19.1379   20.2742 N   0  0  0  0  0  0  0  0  0  0  0  0
  -30.8675  -25.4090   19.3309 N   0  0  0  0  0  0  0  0  0  0  0  0
  -29.9842  -29.4742   21.0887 N   0  0  0  0  0  0  0  0  0  0  0  0
  -21.1338  -23.3014   19.9531 N   0  0  0  0  0  0  0  0  0  0  0  0
  -20.1421  -20.3018   24.8102 N   0  0  0  0  0  0  0  0  0  0  0  0
  -23.8921  -12.2031   21.1182 N   0  3  2  0  0  0  0  0  0  0  0  0
  -17.2991  -18.2587   25.7107 N   0  3  0  0  0  0  0  0  0  0  0  0
  -31.4927  -28.2679   19.8526 O   0  0  0  0  0  0  0  0  0  0  0  0
  -23.2361  -22.3208   20.1565 O   0  0  0  0  0  0  0  0  0  0  0  0
  -20.1506  -21.7928   22.6253 O   0  0  0  0  0  0  0  0  0  0  0  0
  -19.9903  -17.9913   24.9346 O   0  0  0  0  0  0  0  0  0  0  0  0
  -31.1503  -21.0497   19.9532 O   0  0  0  0  0  0  0  0  0  0  0  0
  -25.4722  -30.8753   24.0416 O   0  0  0  0  0  0  0  0  0  0  0  0
  -22.4127  -14.5751   20.5663 O   0  0  0  0  0  0  0  0  0  1  0  0
  -26.9628  -36.1382   23.3460 F   0  0  0  0  0  0  0  0  0  0  0  0
  -28.0246  -31.7229   24.6814 F   0  0  0  0  0  0  0  0  0  0  0  0
  1  2  1  0  0  0  0
  1  5  2  0  0  0  0
  2  6  2  0  0  0  0
  3  8  2  0  0  0  0
  3 15  1  0  0  0  0
  4  9  1  0  0  0  0
  4 15  2  0  0  0  0
  5 17  1  0  0  0  0
  6 19  1  0  0  0  0
  7 10  2  0  0  0  0
  7 18  1  0  0  0  0
  8 21  1  0  0  0  0
  9 21  2  0  0  0  0
 10 22  1  0  0  0  0
 11 12  2  0  0  0  0
 11 23  1  0  0  0  0
 12 24  1  0  0  0  0
 13 20  1  0  0  0  0
 13 22  2  0  0  0  0
 14 24  2  0  0  0  0
 14 25  1  0  0  0  0
 15 26  1  0  0  0  0
 16 26  1  0  0  0  0
 16 27  2  0  0  0  0
 16 30  1  0  0  0  0
 17 19  2  0  0  0  0
 17 35  1  0  0  0  0
 18 20  2  0  0  0  0
 18 36  1  0  0  0  0
 19 51  1  0  0  0  0
 20 37  1  0  0  0  0
 21 87  1  0  0  0  0
 22 88  1  0  0  0  0
 23 25  2  0  0  0  0
 23 87  1  0  0  0  0
 24 89  1  0  0  0  0
 25 90  1  0  0  0  0
 26 67  2  0  0  0  0
 27 70  1  0  0  0  0
 27 76  1  0  0  0  0
 28 55  1  0  0  0  0
 28 68  2  0  0  0  0
 28 71  1  0  0  0  0
 29 68  1  0  0  0  0
 29 69  2  0  0  0  0
 29 72  1  0  0  0  0
 30 77  1  0  0  0  0
 30 82  2  0  0  0  0
 31 52  1  0  0  0  0
 31 78  1  0  0  0  0
 31 83  2  0  0  0  0
 32 64  1  0  0  0  0
 32 73  1  0  0  0  0
 32 84  2  0  0  0  0
 33 65  1  0  0  0  0
 33 79  1  0  0  0  0
 33 85  2  0  0  0  0
 34 74  1  0  0  0  0
 34 75  1  0  0  0  0
 34 86  2  0  0  0  0
 35 38  1  0  0  0  0
 36 52  1  0  0  0  0
 37 73  1  0  0  0  0
 38 40  1  0  0  0  0
 39 41  1  0  0  0  0
 39 43  1  0  0  0  0
 40 51  1  0  0  0  0
 41 54  1  0  0  0  0
 42 49  1  0  0  0  0
 42 53  1  0  0  0  0
 43 74  1  0  0  0  0
 44 46  1  0  0  0  0
 44 72  1  0  0  0  0
 45 47  1  0  0  0  0
 45 72  1  0  0  0  0
 46 75  1  0  0  0  0
 47 75  1  0  0  0  0
 48 54  1  0  0  0  0
 48 74  1  0  0  0  0
 49 80  1  0  0  0  0
 50 53  1  0  0  0  0
 50 80  1  0  0  0  0
 51 78  1  0  0  0  0
 52 73  1  0  0  0  0
 53 61  1  0  0  0  0
 54 70  1  0  0  0  0
 56 65  1  0  0  0  0
 57 66  1  0  0  0  0
 58 66  1  0  0  0  0
 59 66  1  0  0  0  0
 60 81  1  0  0  0  0
 61 71  1  0  0  0  0
 62 63  1  0  0  0  0
 62 80  1  0  0  0  0
 63 88  1  0  0  0  0
 64 66  1  0  0  0  0
 64 79  1  0  0  0  0
 65 81  1  0  0  0  0
 67 70  1  0  0  0  0
 69 71  1  0  0  0  0
M  CHG  2  80   1  81   1
M  ISO  4  34 100  63 101  75 100  88 101
M  END
> <Batch ID>
0199

> <Smiles>
CNC(C)C(=O)NC(C(=O)N1Cc2cc([101O:1][101CH2:1]CN3CCC(Cn4nc(N5CC[100N:0]([100C:0](=O)N6CCCC(n7nc(-c8ccc(Oc9ccc(F)cc9F)cc8)c(C(N)=O)c7N)C6)CC5)nc4C)C3)ccc2CC1C(=O)NC1CCCc2ccccc21)C(C)(C)C

> <Shape>
0.250

> <Color>
0.045

> <Negative vol penalty>
0.000

$$$$

  -OEChem-04052323503D

 85 95  0     1  0  0  0  0  0999 V2000
  -21.6329  -28.3099   14.6329 C   0  0  0  0  0  0  0  0  0  0  0  0
  -22.6608  -27.5343   15.1594 C   0  0  0  0  0  0  0  0  0  0  0  0
  -23.0804   -9.8568   19.9514 C   0  0  0  0  0  0  0  0  0  0  0  0
  -23.8317   -9.8875   22.2474 C   0  0  0  0  0  0  0  0  0  0  0  0
  -21.9323  -29.4574   13.8998 C   0  0  0  0  0  0  0  0  0  0  0  0
  -23.9889  -27.9052   14.9520 C   0  0  0  0  0  0  0  0  0  0  0  0
  -26.7823  -27.5599   19.1619 C   0  0  0  0  0  0  0  0  0  0  0  0
  -22.3387   -8.7041   20.2094 C   0  0  0  0  0  0  0  0  0  0  0  0
  -23.0900   -8.7347   22.5055 C   0  0  0  0  0  0  0  0  0  0  0  0
  -27.2048  -26.2872   19.5431 C   0  0  0  0  0  0  0  0  0  0  0  0
  -19.8617   -7.9339   23.1035 C   0  0  0  0  0  0  0  0  0  0  0  0
  -19.1005   -7.9029   24.2719 C   0  0  0  0  0  0  0  0  0  0  0  0
  -29.3739  -26.7263   18.5831 C   0  0  0  0  0  0  0  0  0  0  0  0
  -20.3444   -5.9758   25.0312 C   0  0  0  0  0  0  0  0  0  0  0  0
  -28.8371  -21.5449   19.6809 C   0  0  0  0  0  0  0  0  0  0  0  0
  -23.8270  -10.4485   20.9703 C   0  0  0  0  0  0  0  0  0  0  0  0
  -24.1625  -12.9733   20.8278 C   0  0  0  0  0  0  0  0  0  0  0  0
  -23.2646  -29.8478   13.6915 C   0  0  0  0  0  0  0  0  0  0  0  0
  -27.6504  -28.4228   18.4776 C   0  0  0  0  0  0  0  0  0  0  0  0
  -24.3065  -29.0583   14.2143 C   0  0  0  0  0  0  0  0  0  0  0  0
  -28.9608  -28.0104   18.1966 C   0  0  0  0  0  0  0  0  0  0  0  0
  -22.3434   -8.1430   21.4865 C   0  0  0  0  0  0  0  0  0  0  0  0
  -28.4998  -25.8691   19.2511 C   0  0  0  0  0  0  0  0  0  0  0  0
  -20.8642   -6.9858   22.8989 C   0  0  0  0  0  0  0  0  0  0  0  0
  -19.3418   -6.9239   25.2358 C   0  0  0  0  0  0  0  0  0  0  0  0
  -21.1055   -6.0068   23.8628 C   0  0  0  0  0  0  0  0  0  0  0  0
  -24.5938  -11.6390   20.7042 C   0  0  0  0  0  0  0  0  0  0  0  0
  -29.5609  -21.1167   22.2147 C   0  0  0  0  0  0  0  0  0  0  0  0
  -28.6211  -22.4973   20.6524 C   0  0  0  0  0  0  0  0  0  0  0  0
  -29.7762  -20.1641   21.2433 C   0  0  0  0  0  0  0  0  0  0  0  0
  -25.2540  -13.7223   20.4615 C   0  0  0  0  0  0  0  0  0  0  0  0
  -22.8891  -13.4896   21.2371 C   0  0  0  0  0  0  0  0  0  0  0  0
  -27.6415  -29.8087   15.6170 C   0  0  0  0  0  0  0  0  0  0  0  0
  -30.2849  -31.2996   16.7624 C   0  0  0  0  0  0  0  0  0  0  0  0
  -32.9045  -31.2781   18.9497 C   0  0  0  0  0  0  0  0  0  0  0  0
  -30.7270  -14.7681   20.6429 C   0  0  0  0  0  0  0  0  0  0  0  0
  -23.5400  -31.0703   12.8523 C   0  0  0  0  0  0  0  0  0  0  0  0
  -27.1879  -29.8026   18.0970 C   0  0  0  0  0  0  0  0  0  0  0  0
  -29.9381  -28.9064   17.4819 C   0  0  0  0  0  0  0  0  0  0  0  0
  -24.9647  -31.5993   12.9959 C   0  0  0  0  0  0  0  0  0  0  0  0
  -29.6141  -12.3474   18.2947 C   0  0  0  0  0  0  0  0  0  0  0  0
  -25.9706  -30.4564   12.9021 C   0  0  0  0  0  0  0  0  0  0  0  0
  -30.8749  -21.8736   24.3062 C   0  0  0  0  0  0  0  0  0  0  0  0
  -31.3940  -20.5196   23.9356 C   0  0  0  0  0  0  0  0  0  0  0  0
  -28.1748  -12.0550   18.7222 C   0  0  0  0  0  0  0  0  0  0  0  0
  -30.5236  -12.5826   19.4988 C   0  0  0  0  0  0  0  0  0  0  0  0
  -28.6141  -13.3215   20.8679 C   0  0  0  0  0  0  0  0  0  0  0  0
  -29.8998  -18.0066   22.5321 C   0  0  0  0  0  0  0  0  0  0  0  0
  -30.9303  -17.9954   20.6997 C   0  0  0  0  0  0  0  0  0  0  0  0
  -25.7591  -29.4413   14.0319 C   0  0  1  0  0  0  0  0  0  0  0  0
  -29.9645  -20.8818   23.6325 C   0  0  0  0  0  0  0  0  0  0  0  0
  -27.9919  -30.4070   16.9500 C   0  0  1  0  0  0  0  0  0  0  0  0
  -27.6458  -13.1332   19.6874 C   0  0  2  0  0  0  0  0  0  0  0  0
  -30.8016  -16.9751   21.8395 C   0  0  0  0  0  0  0  0  0  0  0  0
  -34.9187  -32.6143   19.6241 C   0  0  0  0  0  0  0  0  0  0  0  0
  -31.7560  -30.3357   14.2691 C   0  0  0  0  0  0  0  0  0  0  0  0
  -33.9143  -30.8565   15.4261 C   0  0  0  0  0  0  0  0  0  0  0  0
  -32.2841  -32.6836   14.9497 C   0  0  0  0  0  0  0  0  0  0  0  0
  -31.8853  -31.6414   21.7044 C   0  0  0  0  0  0  0  0  0  0  0  0
  -27.9707  -23.8044   20.3062 C   0  0  0  0  0  0  0  0  0  1  0  0
  -31.7647  -31.0009   16.7638 C   0  0  1  0  0  0  0  0  0  0  0  0
  -33.4448  -32.3450   19.8847 C   0  0  2  0  0  0  0  0  0  0  0  0
  -32.4110  -31.2013   15.3639 C   0  0  0  0  0  0  0  0  0  0  0  0
  -29.4185  -20.3612   19.9589 N   0  0  0  0  0  0  0  0  0  0  0  0
  -25.8605  -11.5426   20.2916 N   0  0  0  0  0  0  0  0  0  0  0  0
  -28.9792  -22.3003   21.9368 N   0  0  0  0  0  0  0  0  0  0  0  0
  -26.2344  -12.8260   20.1525 N   0  0  0  0  0  0  0  0  0  0  0  0
  -30.3901  -18.9410   21.5960 N   0  0  0  0  0  0  0  0  0  0  0  0
  -29.4366  -30.2437   17.1248 N   0  0  0  0  0  0  0  0  0  0  0  0
  -29.9657  -13.6208   20.3692 N   0  0  0  0  0  0  0  0  0  0  0  0
  -25.4611  -15.0536   20.3767 N   0  0  0  0  0  0  0  0  0  0  0  0
  -21.8783  -12.5809   21.5792 N   0  0  0  0  0  0  0  0  0  0  0  0
  -26.3102  -29.9435   15.2723 N   0  0  0  0  0  0  0  0  0  0  0  0
  -32.3472  -31.8282   17.8148 N   0  0  0  0  0  0  0  0  0  0  0  0
  -30.1282  -15.7133   21.4693 N   0  0  0  0  0  0  0  0  0  0  0  0
  -33.2889  -31.9175   21.3038 N   0  3  0  0  0  0  0  0  0  0  0  0
  -22.6493  -14.7201   21.2820 O   0  0  0  0  0  0  0  0  0  0  0  0
  -28.5146  -29.2662   14.9499 O   0  0  0  0  0  0  0  0  0  0  0  0
  -29.8964  -32.4301   16.4582 O   0  0  0  0  0  0  0  0  0  0  0  0
  -32.9734  -30.0767   19.1994 O   0  0  0  0  0  0  0  0  0  0  0  0
  -31.8588  -14.9481   20.1803 O   0  0  0  0  0  0  0  0  0  0  0  0
  -21.6196   -7.0183   21.7387 O   0  0  0  0  0  0  0  0  0  0  0  0
  -28.9146  -24.6270   19.6215 O   0  0  0  0  0  0  0  0  0  1  0  0
  -18.6118   -6.8953   26.3585 F   0  0  0  0  0  0  0  0  0  0  0  0
  -22.0681   -5.0940   23.6723 F   0  0  0  0  0  0  0  0  0  0  0  0
  1  2  1  0  0  0  0
  1  5  2  0  0  0  0
  2  6  2  0  0  0  0
  3  8  2  0  0  0  0
  3 16  1  0  0  0  0
  4  9  1  0  0  0  0
  4 16  2  0  0  0  0
  5 18  1  0  0  0  0
  6 20  1  0  0  0  0
  7 10  2  0  0  0  0
  7 19  1  0  0  0  0
  8 22  1  0  0  0  0
  9 22  2  0  0  0  0
 10 23  1  0  0  0  0
 11 12  2  0  0  0  0
 11 24  1  0  0  0  0
 12 25  1  0  0  0  0
 13 21  1  0  0  0  0
 13 23  2  0  0  0  0
 14 25  2  0  0  0  0
 14 26  1  0  0  0  0
 15 29  1  0  0  0  0
 15 64  2  0  0  0  0
 16 27  1  0  0  0  0
 17 27  1  0  0  0  0
 17 31  2  0  0  0  0
 17 32  1  0  0  0  0
 18 20  2  0  0  0  0
 18 37  1  0  0  0  0
 19 21  2  0  0  0  0
 19 38  1  0  0  0  0
 20 50  1  0  0  0  0
 21 39  1  0  0  0  0
 22 82  1  0  0  0  0
 23 83  1  0  0  0  0
 24 26  2  0  0  0  0
 24 82  1  0  0  0  0
 25 84  1  0  0  0  0
 26 85  1  0  0  0  0
 27 65  2  0  0  0  0
 28 30  2  0  0  0  0
 28 51  1  0  0  0  0
 28 66  1  0  0  0  0
 29 60  1  0  0  0  0
 29 66  2  0  0  0  0
 30 64  1  0  0  0  0
 30 68  1  0  0  0  0
 31 67  1  0  0  0  0
 31 71  1  0  0  0  0
 32 72  1  0  0  0  0
 32 77  2  0  0  0  0
 33 52  1  0  0  0  0
 33 73  1  0  0  0  0
 33 78  2  0  0  0  0
 34 61  1  0  0  0  0
 34 69  1  0  0  0  0
 34 79  2  0  0  0  0
 35 62  1  0  0  0  0
 35 74  1  0  0  0  0
 35 80  2  0  0  0  0
 36 70  1  0  0  0  0
 36 75  1  0  0  0  0
 36 81  2  0  0  0  0
 37 40  1  0  0  0  0
 38 52  1  0  0  0  0
 39 69  1  0  0  0  0
 40 42  1  0  0  0  0
 41 45  1  0  0  0  0
 41 46  1  0  0  0  0
 42 50  1  0  0  0  0
 43 44  1  0  0  0  0
 43 51  1  0  0  0  0
 44 51  1  0  0  0  0
 45 53  1  0  0  0  0
 46 70  1  0  0  0  0
 47 53  1  0  0  0  0
 47 70  1  0  0  0  0
 48 54  1  0  0  0  0
 48 68  1  0  0  0  0
 49 54  1  0  0  0  0
 49 68  1  0  0  0  0
 50 73  1  0  0  0  0
 52 69  1  0  0  0  0
 53 67  1  0  0  0  0
 54 75  1  0  0  0  0
 55 62  1  0  0  0  0
 56 63  1  0  0  0  0
 57 63  1  0  0  0  0
 58 63  1  0  0  0  0
 59 76  1  0  0  0  0
 60 83  1  0  0  0  0
 61 63  1  0  0  0  0
 61 74  1  0  0  0  0
 62 76  1  0  0  0  0
 65 67  1  0  0  0  0
M  CHG  1  76   1
M  ISO  4  36 100  60 101  75 100  83 101
M  END
> <Batch ID>
0199

> <Smiles>
CNC(C)C(=O)NC(C(=O)N1Cc2cc([101O:1][101CH2:1]c3cnc(N4CC([100NH:0][100C:0](=O)N5CCCC(n6nc(-c7ccc(Oc8ccc(F)cc8F)cc7)c(C(N)=O)c6N)C5)C4)c(C4CC4)n3)ccc2CC1C(=O)NC1CCCc2ccccc21)C(C)(C)C

> <Shape>
0.232

> <Color>
0.214

> <Negative vol penalty>
0.000

$$$$

  -OEChem-04052323503D

 93102  0     1  0  0  0  0  0999 V2000
  -29.7543  -19.8013   12.6233 C   0  0  0  0  0  0  0  0  0  0  0  0
  -28.9674  -20.8141   13.1623 C   0  0  0  0  0  0  0  0  0  0  0  0
  -23.1374   -9.8248   19.9679 C   0  0  0  0  0  0  0  0  0  0  0  0
  -23.8836   -9.9078   22.2643 C   0  0  0  0  0  0  0  0  0  0  0  0
  -30.5526  -19.0210   13.4585 C   0  0  0  0  0  0  0  0  0  0  0  0
  -28.9776  -21.0463   14.5373 C   0  0  0  0  0  0  0  0  0  0  0  0
  -28.3861  -26.3588   19.3064 C   0  0  0  0  0  0  0  0  0  0  0  0
  -22.4293   -8.6543   20.2403 C   0  0  0  0  0  0  0  0  0  0  0  0
  -23.1755   -8.7373   22.5367 C   0  0  0  0  0  0  0  0  0  0  0  0
  -27.6661  -26.7053   20.4489 C   0  0  0  0  0  0  0  0  0  0  0  0
  -21.2714   -5.9688   23.9251 C   0  0  0  0  0  0  0  0  0  0  0  0
  -20.5102   -5.9274   25.0933 C   0  0  0  0  0  0  0  0  0  0  0  0
  -29.1447  -25.3462   21.7854 C   0  0  0  0  0  0  0  0  0  0  0  0
  -19.2086   -7.8068   24.3117 C   0  0  0  0  0  0  0  0  0  0  0  0
  -23.8646  -10.4515   20.9799 C   0  0  0  0  0  0  0  0  0  0  0  0
  -24.1263  -12.9830   20.8043 C   0  0  0  0  0  0  0  0  0  0  0  0
  -30.5799  -19.2501   14.8432 C   0  0  0  0  0  0  0  0  0  0  0  0
  -29.4859  -25.4932   19.3934 C   0  0  0  0  0  0  0  0  0  0  0  0
  -29.7760  -20.2674   15.3920 C   0  0  0  0  0  0  0  0  0  0  0  0
  -29.8784  -24.9923   20.6428 C   0  0  0  0  0  0  0  0  0  0  0  0
  -28.1385  -19.5039   24.1395 C   0  0  0  0  0  0  0  0  0  0  0  0
  -22.4483   -8.1106   21.5246 C   0  0  0  0  0  0  0  0  0  0  0  0
  -28.0436  -26.1967   21.6882 C   0  0  0  0  0  0  0  0  0  0  0  0
  -21.0012   -6.9293   22.9503 C   0  0  0  0  0  0  0  0  0  0  0  0
  -19.4788   -6.8463   25.2866 C   0  0  0  0  0  0  0  0  0  0  0  0
  -19.9698   -7.8482   23.1436 C   0  0  0  0  0  0  0  0  0  0  0  0
  -24.5967  -11.6603   20.6990 C   0  0  0  0  0  0  0  0  0  0  0  0
  -28.3786  -19.7750   22.8030 C   0  0  0  0  0  0  0  0  0  0  0  0
  -28.7641  -18.4097   24.6711 C   0  0  0  0  0  0  0  0  0  0  0  0
  -25.1960  -13.7587   20.4296 C   0  0  0  0  0  0  0  0  0  0  0  0
  -29.7346  -17.9948   22.6348 C   0  0  0  0  0  0  0  0  0  0  0  0
  -22.8376  -13.4671   21.2051 C   0  0  0  0  0  0  0  0  0  0  0  0
  -30.1876  -22.6310   18.2021 C   0  0  0  0  0  0  0  0  0  0  0  0
  -26.0980  -22.5145   23.6425 C   0  0  0  0  0  0  0  0  0  0  0  0
  -33.0813  -23.2114   19.5482 C   0  0  0  0  0  0  0  0  0  0  0  0
  -34.8966  -24.8786   21.9087 C   0  0  0  0  0  0  0  0  0  0  0  0
  -30.6432  -14.9570   20.6220 C   0  0  0  0  0  0  0  0  0  0  0  0
  -31.4226  -18.3497   15.7115 C   0  0  0  0  0  0  0  0  0  0  0  0
  -30.2683  -25.1504   18.1553 C   0  0  0  0  0  0  0  0  0  0  0  0
  -31.0640  -24.0756   20.7928 C   0  0  0  0  0  0  0  0  0  0  0  0
  -27.2137  -20.4991   24.7361 C   0  0  0  0  0  0  0  0  0  0  0  0
  -27.6224  -20.9975   22.3819 C   0  0  0  0  0  0  0  0  0  0  0  0
  -31.6618  -18.9050   17.1132 C   0  0  0  0  0  0  0  0  0  0  0  0
  -29.5960  -12.4841   18.2844 C   0  0  0  0  0  0  0  0  0  0  0  0
  -30.3572  -19.4194   17.7134 C   0  0  0  0  0  0  0  0  0  0  0  0
  -28.1662  -12.1543   18.7167 C   0  0  0  0  0  0  0  0  0  0  0  0
  -30.4987  -12.7612   19.4845 C   0  0  0  0  0  0  0  0  0  0  0  0
  -28.5667  -13.4620   20.8447 C   0  0  0  0  0  0  0  0  0  0  0  0
  -29.7788  -20.5661   16.8755 C   0  0  1  0  0  0  0  0  0  0  0  0
  -31.0587  -23.8523   18.2883 C   0  0  1  0  0  0  0  0  0  0  0  0
  -27.6054  -13.2298   19.6665 C   0  0  2  0  0  0  0  0  0  0  0  0
  -27.4422  -16.4400   27.7171 C   0  0  0  0  0  0  0  0  0  0  0  0
  -37.2340  -25.1180   22.7902 C   0  0  0  0  0  0  0  0  0  0  0  0
  -32.8139  -20.5296   20.9788 C   0  0  0  0  0  0  0  0  0  0  0  0
  -34.6500  -21.2485   22.5217 C   0  0  0  0  0  0  0  0  0  0  0  0
  -35.0977  -21.0090   20.0794 C   0  0  0  0  0  0  0  0  0  0  0  0
  -34.9828  -27.7573   21.2274 C   0  0  0  0  0  0  0  0  0  0  0  0
  -28.5709  -18.0340   26.0989 C   0  0  0  0  0  0  0  0  0  0  0  0
  -30.6333  -17.1359   21.8101 C   0  0  0  0  0  0  0  0  0  0  0  0
  -25.4483  -22.7991   24.9728 C   0  0  0  0  0  0  0  0  0  0  0  0
  -27.6111  -16.8444   26.2611 C   0  0  0  0  0  0  0  0  0  0  0  0
  -24.5689  -24.0341   24.8966 C   0  0  0  0  0  0  0  0  0  0  0  0
  -24.6157  -26.4765   24.3759 C   0  0  0  0  0  0  0  0  0  0  0  0
  -26.2307  -27.4111   22.6339 C   0  0  0  0  0  0  0  0  0  1  0  0
  -33.7033  -22.9521   20.8991 C   0  0  1  0  0  0  0  0  0  0  0  0
  -36.1974  -25.6556   21.8159 C   0  0  2  0  0  0  0  0  0  0  0  0
  -25.5376  -27.6307   23.9822 C   0  0  1  0  0  0  0  0  0  0  0  0
  -34.0427  -21.4505   21.1170 C   0  0  0  0  0  0  0  0  0  0  0  0
  -25.8663  -11.5957   20.2893 N   0  0  0  0  0  0  0  0  0  0  0  0
  -29.1710  -19.0476   22.0054 N   0  0  0  0  0  0  0  0  0  0  0  0
  -29.5794  -17.6262   23.9315 N   0  0  0  0  0  0  0  0  0  0  0  0
  -26.2028  -12.8875   20.1338 N   0  0  0  0  0  0  0  0  0  0  0  0
  -26.9230  -21.4036   23.6086 N   0  0  0  0  0  0  0  0  0  0  0  0
  -31.7931  -23.7647   19.5521 N   0  0  0  0  0  0  0  0  0  0  0  0
  -29.9106  -13.7913   20.3441 N   0  0  0  0  0  0  0  0  0  0  0  0
  -25.3642  -15.0943   20.3274 N   0  0  0  0  0  0  0  0  0  0  0  0
  -21.8533  -12.5338   21.5579 N   0  0  0  0  0  0  0  0  0  0  0  0
  -24.7286  -28.8531   23.9067 N   0  0  0  0  0  0  0  0  0  0  0  0
  -30.4914  -21.7969   17.1431 N   0  0  0  0  0  0  0  0  0  0  0  0
  -34.8530  -23.8449   20.9972 N   0  0  0  0  0  0  0  0  0  0  0  0
  -30.0099  -15.8849   21.4398 N   0  0  0  0  0  0  0  0  0  0  0  0
  -35.9642  -27.0948   22.1246 N   0  3  0  0  0  0  0  0  0  0  0  0
  -25.3909  -25.2214   24.5368 N   0  3  0  0  0  0  0  0  0  0  0  0
  -22.5618  -14.6905   21.2333 O   0  0  0  0  0  0  0  0  0  0  0  0
  -29.3062  -22.4575   19.0356 O   0  0  0  0  0  0  0  0  0  0  0  0
  -25.8840  -23.2433   22.6726 O   0  0  0  0  0  0  0  0  0  0  0  0
  -33.7180  -22.9398   18.5272 O   0  0  0  0  0  0  0  0  0  0  0  0
  -34.0096  -25.1581   22.7122 O   0  0  0  0  0  0  0  0  0  0  0  0
  -31.7756  -15.1586   20.1702 O   0  0  0  0  0  0  0  0  0  0  0  0
  -21.7573   -6.9686   21.7908 O   0  0  0  0  0  0  0  0  0  0  0  0
  -27.3423  -26.5328   22.8049 O   0  0  0  0  0  0  0  0  0  1  0  0
  -18.7470   -6.8054   26.4077 F   0  0  0  0  0  0  0  0  0  0  0  0
  -19.7048   -8.7725   22.2102 F   0  0  0  0  0  0  0  0  0  0  0  0
  1  2  1  0  0  0  0
  1  5  2  0  0  0  0
  2  6  2  0  0  0  0
  3  8  2  0  0  0  0
  3 15  1  0  0  0  0
  4  9  1  0  0  0  0
  4 15  2  0  0  0  0
  5 17  1  0  0  0  0
  6 19  1  0  0  0  0
  7 10  2  0  0  0  0
  7 18  1  0  0  0  0
  8 22  1  0  0  0  0
  9 22  2  0  0  0  0
 10 23  1  0  0  0  0
 11 12  2  0  0  0  0
 11 24  1  0  0  0  0
 12 25  1  0  0  0  0
 13 20  1  0  0  0  0
 13 23  2  0  0  0  0
 14 25  2  0  0  0  0
 14 26  1  0  0  0  0
 15 27  1  0  0  0  0
 16 27  1  0  0  0  0
 16 30  2  0  0  0  0
 16 32  1  0  0  0  0
 17 19  2  0  0  0  0
 17 38  1  0  0  0  0
 18 20  2  0  0  0  0
 18 39  1  0  0  0  0
 19 49  1  0  0  0  0
 20 40  1  0  0  0  0
 21 28  1  0  0  0  0
 21 29  2  0  0  0  0
 21 41  1  0  0  0  0
 22 90  1  0  0  0  0
 23 91  1  0  0  0  0
 24 26  2  0  0  0  0
 24 90  1  0  0  0  0
 25 92  1  0  0  0  0
 26 93  1  0  0  0  0
 27 69  2  0  0  0  0
 28 42  1  0  0  0  0
 28 70  2  0  0  0  0
 29 58  1  0  0  0  0
 29 71  1  0  0  0  0
 30 72  1  0  0  0  0
 30 76  1  0  0  0  0
 31 59  1  0  0  0  0
 31 70  1  0  0  0  0
 31 71  2  0  0  0  0
 32 77  1  0  0  0  0
 32 84  2  0  0  0  0
 33 50  1  0  0  0  0
 33 79  1  0  0  0  0
 33 85  2  0  0  0  0
 34 60  1  0  0  0  0
 34 73  1  0  0  0  0
 34 86  2  0  0  0  0
 35 65  1  0  0  0  0
 35 74  1  0  0  0  0
 35 87  2  0  0  0  0
 36 66  1  0  0  0  0
 36 80  1  0  0  0  0
 36 88  2  0  0  0  0
 37 75  1  0  0  0  0
 37 81  1  0  0  0  0
 37 89  2  0  0  0  0
 38 43  1  0  0  0  0
 39 50  1  0  0  0  0
 40 74  1  0  0  0  0
 41 73  1  0  0  0  0
 42 73  1  0  0  0  0
 43 45  1  0  0  0  0
 44 46  1  0  0  0  0
 44 47  1  0  0  0  0
 45 49  1  0  0  0  0
 46 51  1  0  0  0  0
 47 75  1  0  0  0  0
 48 51  1  0  0  0  0
 48 75  1  0  0  0  0
 49 79  1  0  0  0  0
 50 74  1  0  0  0  0
 51 72  1  0  0  0  0
 52 61  1  0  0  0  0
 53 66  1  0  0  0  0
 54 68  1  0  0  0  0
 55 68  1  0  0  0  0
 56 68  1  0  0  0  0
 57 82  1  0  0  0  0
 58 61  1  0  0  0  0
 59 81  1  0  0  0  0
 60 62  1  0  0  0  0
 62 83  1  0  0  0  0
 63 67  1  0  0  0  0
 63 83  1  0  0  0  0
 64 67  1  0  0  0  0
 64 91  1  0  0  0  0
 65 68  1  0  0  0  0
 65 80  1  0  0  0  0
 66 82  1  0  0  0  0
 67 78  1  0  0  0  0
 69 72  1  0  0  0  0
M  CHG  2  82   1  83   1
M  ISO  4  37 100  64 101  81 100  91 101
M  END
> <Batch ID>
0199

> <Smiles>
CCCc1nc(C[100NH:0][100C:0](=O)N2CCCC(n3nc(-c4ccc(Oc5ccc(F)cc5F)cc4)c(C(N)=O)c3N)C2)nc2c1CN(C(=O)CCNCC(N)[101CH2:1][101O:1]c1ccc3c(c1)CN(C(=O)C(NC(=O)C(C)NC)C(C)(C)C)C(C(=O)NC1CCCc4ccccc41)C3)C2

> <Shape>
0.224

> <Color>
0.178

> <Negative vol penalty>
0.000

$$$$

  -OEChem-04052323503D

 86 95  0     1  0  0  0  0  0999 V2000
  -35.1457  -12.9828   17.0001 C   0  0  0  0  0  0  0  0  0  0  0  0
  -34.5116  -12.9656   18.2383 C   0  0  0  0  0  0  0  0  0  0  0  0
  -23.1891   -9.8180   19.9320 C   0  0  0  0  0  0  0  0  0  0  0  0
  -23.5661  -10.0001   22.3115 C   0  0  0  0  0  0  0  0  0  0  0  0
  -35.8717  -14.1058   16.6055 C   0  0  0  0  0  0  0  0  0  0  0  0
  -34.6042  -14.0711   19.0831 C   0  0  0  0  0  0  0  0  0  0  0  0
  -30.2916  -16.1628   22.8952 C   0  0  0  0  0  0  0  0  0  0  0  0
  -22.4220   -8.6720   20.1413 C   0  0  0  0  0  0  0  0  0  0  0  0
  -22.7990   -8.8541   22.5208 C   0  0  0  0  0  0  0  0  0  0  0  0
  -30.0912  -15.9991   24.2652 C   0  0  0  0  0  0  0  0  0  0  0  0
  -23.1983   -5.5069   22.2596 C   0  0  0  0  0  0  0  0  0  0  0  0
  -23.6956   -4.5460   23.1399 C   0  0  0  0  0  0  0  0  0  0  0  0
  -31.2119  -18.0959   24.6734 C   0  0  0  0  0  0  0  0  0  0  0  0
  -21.7384   -4.8083   24.5319 C   0  0  0  0  0  0  0  0  0  0  0  0
  -29.3037  -11.0831   26.7848 C   0  0  0  0  0  0  0  0  0  0  0  0
  -23.7612  -10.4820   21.0171 C   0  0  0  0  0  0  0  0  0  0  0  0
  -24.1015  -12.9983   20.7715 C   0  0  0  0  0  0  0  0  0  0  0  0
  -35.9653  -15.2293   17.4419 C   0  0  0  0  0  0  0  0  0  0  0  0
  -30.9644  -17.2908   22.4040 C   0  0  0  0  0  0  0  0  0  0  0  0
  -35.3334  -15.2096   18.6999 C   0  0  0  0  0  0  0  0  0  0  0  0
  -31.4172  -18.2728   23.2966 C   0  0  0  0  0  0  0  0  0  0  0  0
  -22.2269   -8.1900   21.4356 C   0  0  0  0  0  0  0  0  0  0  0  0
  -30.5539  -16.9644   25.1547 C   0  0  0  0  0  0  0  0  0  0  0  0
  -21.9710   -6.1186   22.5155 C   0  0  0  0  0  0  0  0  0  0  0  0
  -22.9657   -4.1967   24.2760 C   0  0  0  0  0  0  0  0  0  0  0  0
  -21.2411   -5.7693   23.6516 C   0  0  0  0  0  0  0  0  0  0  0  0
  -24.5542  -11.6656   20.8016 C   0  0  0  0  0  0  0  0  0  0  0  0
  -30.4857  -11.5436   26.2481 C   0  0  0  0  0  0  0  0  0  0  0  0
  -31.1556  -12.2398   28.3209 C   0  0  0  0  0  0  0  0  0  0  0  0
  -29.9731  -11.7799   28.8574 C   0  0  0  0  0  0  0  0  0  0  0  0
  -25.2333  -13.7401   20.5363 C   0  0  0  0  0  0  0  0  0  0  0  0
  -22.7765  -13.5191   20.9412 C   0  0  0  0  0  0  0  0  0  0  0  0
  -33.6473  -17.7664   20.7670 C   0  0  0  0  0  0  0  0  0  0  0  0
  -32.6213  -20.8435   20.7334 C   0  0  0  0  0  0  0  0  0  0  0  0
  -30.7219  -23.2802   22.1830 C   0  0  0  0  0  0  0  0  0  0  0  0
  -31.0844  -12.5172   21.5518 C   0  0  0  0  0  0  0  0  0  0  0  0
  -36.8007  -16.4016   16.9920 C   0  0  0  0  0  0  0  0  0  0  0  0
  -31.1490  -17.4656   20.9215 C   0  0  0  0  0  0  0  0  0  0  0  0
  -32.1275  -19.5120   22.8187 C   0  0  0  0  0  0  0  0  0  0  0  0
  -36.5383  -17.6776   17.7878 C   0  0  0  0  0  0  0  0  0  0  0  0
  -29.5189  -13.5045   18.4684 C   0  0  0  0  0  0  0  0  0  0  0  0
  -36.5163  -17.3790   19.2835 C   0  0  0  0  0  0  0  0  0  0  0  0
  -28.0377  -13.2150   18.6877 C   0  0  0  0  0  0  0  0  0  0  0  0
  -30.3857  -12.4783   19.1857 C   0  0  0  0  0  0  0  0  0  0  0  0
  -29.7630  -11.6699   23.6484 C   0  0  0  0  0  0  0  0  0  0  0  0
  -31.6174  -12.6165   24.0464 C   0  0  0  0  0  0  0  0  0  0  0  0
  -28.6399  -12.1392   20.9151 C   0  0  0  0  0  0  0  0  0  0  0  0
  -35.3900  -16.3990   19.6339 C   0  0  1  0  0  0  0  0  0  0  0  0
  -30.8643  -11.4418   24.7120 C   0  0  0  0  0  0  0  0  0  0  0  0
  -32.3004  -18.4023   20.5691 C   0  0  1  0  0  0  0  0  0  0  0  0
  -27.7214  -13.1415   20.1884 C   0  0  2  0  0  0  0  0  0  0  0  0
  -30.1153  -25.7042   21.9513 C   0  0  0  0  0  0  0  0  0  0  0  0
  -35.3372  -21.6302   21.8800 C   0  0  0  0  0  0  0  0  0  0  0  0
  -34.3537  -23.8462   22.5045 C   0  0  0  0  0  0  0  0  0  0  0  0
  -34.4688  -23.1658   20.1074 C   0  0  0  0  0  0  0  0  0  0  0  0
  -27.8561  -22.6465   21.8027 C   0  0  0  0  0  0  0  0  0  0  0  0
  -32.2089  -12.8927   29.1684 C   0  0  0  0  0  0  0  0  0  0  0  0
  -31.8745  -14.3249   29.5732 C   0  0  0  0  0  0  0  0  0  0  0  0
  -31.3827  -16.5966   28.6588 C   0  0  0  0  0  0  0  0  0  0  0  0
  -31.3356  -17.3803   27.3620 C   0  0  0  0  0  0  0  0  0  1  0  0
  -32.7997  -22.0399   21.6366 C   0  0  1  0  0  0  0  0  0  0  0  0
  -29.7383  -24.2750   21.5935 C   0  0  2  0  0  0  0  0  0  0  0  0
  -34.2282  -22.6464   21.5416 C   0  0  0  0  0  0  0  0  0  0  0  0
  -29.0261  -11.1930   28.0991 N   0  0  0  0  0  0  0  0  0  0  0  0
  -25.8708  -11.5636   20.6013 N   0  0  0  0  0  0  0  0  0  0  0  0
  -31.4330  -12.1302   27.0065 N   0  0  0  0  0  0  0  0  0  0  0  0
  -26.2551  -12.8416   20.4430 N   0  0  0  0  0  0  0  0  0  0  0  0
  -32.2893  -19.6342   21.3605 N   0  0  0  0  0  0  0  0  0  0  0  0
  -30.0576  -12.3784   20.6111 N   0  0  0  0  0  0  0  0  0  0  0  0
  -30.7684  -12.3879   22.8837 N   0  0  0  0  0  0  0  0  0  0  0  0
  -25.4441  -15.0667   20.4021 N   0  0  0  0  0  0  0  0  0  0  0  0
  -21.7292  -12.6177   21.1754 N   0  0  0  0  0  0  0  0  0  0  0  0
  -34.1150  -17.0832   19.6607 N   0  0  0  0  0  0  0  0  0  0  0  0
  -31.7308  -22.9722   21.2951 N   0  0  0  0  0  0  0  0  0  0  0  0
  -28.3639  -24.0095   22.1048 N   0  3  0  0  0  0  0  0  0  0  0  0
  -31.7656  -15.1918   28.3688 N   0  3  0  0  0  0  0  0  0  0  0  0
  -22.5261  -14.7462   20.8704 O   0  0  0  0  0  0  0  0  0  0  0  0
  -34.2205  -17.8879   21.8433 O   0  0  0  0  0  0  0  0  0  0  0  0
  -32.7639  -20.9785   19.5156 O   0  0  0  0  0  0  0  0  0  0  0  0
  -30.6087  -22.8250   23.3190 O   0  0  0  0  0  0  0  0  0  0  0  0
  -32.2576  -12.7213   21.2127 O   0  0  0  0  0  0  0  0  0  0  0  0
  -21.4783   -7.0719   21.6402 O   0  0  0  0  0  0  0  0  0  0  0  0
  -30.3602  -16.8068   26.4925 O   0  0  0  0  0  0  0  0  0  1  0  0
  -23.4427   -3.2728   25.1204 F   0  0  0  0  0  0  0  0  0  0  0  0
  -20.0609   -6.3526   23.9022 F   0  0  0  0  0  0  0  0  0  0  0  0
  -29.5829  -11.8947   30.5229 Cl  0  0  0  0  0  0  0  0  0  0  0  0
  1  2  1  0  0  0  0
  1  5  2  0  0  0  0
  2  6  2  0  0  0  0
  3  8  2  0  0  0  0
  3 16  1  0  0  0  0
  4  9  1  0  0  0  0
  4 16  2  0  0  0  0
  5 18  1  0  0  0  0
  6 20  1  0  0  0  0
  7 10  2  0  0  0  0
  7 19  1  0  0  0  0
  8 22  1  0  0  0  0
  9 22  2  0  0  0  0
 10 23  1  0  0  0  0
 11 12  2  0  0  0  0
 11 24  1  0  0  0  0
 12 25  1  0  0  0  0
 13 21  1  0  0  0  0
 13 23  2  0  0  0  0
 14 25  2  0  0  0  0
 14 26  1  0  0  0  0
 15 28  1  0  0  0  0
 15 64  2  0  0  0  0
 16 27  1  0  0  0  0
 17 27  1  0  0  0  0
 17 31  2  0  0  0  0
 17 32  1  0  0  0  0
 18 20  2  0  0  0  0
 18 37  1  0  0  0  0
 19 21  2  0  0  0  0
 19 38  1  0  0  0  0
 20 48  1  0  0  0  0
 21 39  1  0  0  0  0
 22 82  1  0  0  0  0
 23 83  1  0  0  0  0
 24 26  2  0  0  0  0
 24 82  1  0  0  0  0
 25 84  1  0  0  0  0
 26 85  1  0  0  0  0
 27 65  2  0  0  0  0
 28 49  1  0  0  0  0
 28 66  2  0  0  0  0
 29 30  2  0  0  0  0
 29 57  1  0  0  0  0
 29 66  1  0  0  0  0
 30 64  1  0  0  0  0
 30 86  1  0  0  0  0
 31 67  1  0  0  0  0
 31 71  1  0  0  0  0
 32 72  1  0  0  0  0
 32 77  2  0  0  0  0
 33 50  1  0  0  0  0
 33 73  1  0  0  0  0
 33 78  2  0  0  0  0
 34 61  1  0  0  0  0
 34 68  1  0  0  0  0
 34 79  2  0  0  0  0
 35 62  1  0  0  0  0
 35 74  1  0  0  0  0
 35 80  2  0  0  0  0
 36 69  1  0  0  0  0
 36 70  1  0  0  0  0
 36 81  2  0  0  0  0
 37 40  1  0  0  0  0
 38 50  1  0  0  0  0
 39 68  1  0  0  0  0
 40 42  1  0  0  0  0
 41 43  1  0  0  0  0
 41 44  1  0  0  0  0
 42 48  1  0  0  0  0
 43 51  1  0  0  0  0
 44 69  1  0  0  0  0
 45 49  1  0  0  0  0
 45 70  1  0  0  0  0
 46 49  1  0  0  0  0
 46 70  1  0  0  0  0
 47 51  1  0  0  0  0
 47 69  1  0  0  0  0
 48 73  1  0  0  0  0
 50 68  1  0  0  0  0
 51 67  1  0  0  0  0
 52 62  1  0  0  0  0
 53 63  1  0  0  0  0
 54 63  1  0  0  0  0
 55 63  1  0  0  0  0
 56 75  1  0  0  0  0
 57 58  1  0  0  0  0
 58 76  1  0  0  0  0
 59 60  1  0  0  0  0
 59 76  1  0  0  0  0
 60 83  1  0  0  0  0
 61 63  1  0  0  0  0
 61 74  1  0  0  0  0
 62 75  1  0  0  0  0
 65 67  1  0  0  0  0
M  CHG  2  75   1  76   1
M  ISO  4  36 100  60 101  70 100  83 101
M  END
> <Batch ID>
0199

> <Smiles>
CNC(C)C(=O)NC(C(=O)N1Cc2cc([101O:1][101CH2:1]CNCCc3nc(C4C[100N:0]([100C:0](=O)N5CCCC(n6nc(-c7ccc(Oc8ccc(F)cc8F)cc7)c(C(N)=O)c6N)C5)C4)cnc3Cl)ccc2CC1C(=O)NC1CCCc2ccccc21)C(C)(C)C

> <Shape>
0.171

> <Color>
0.174

> <Negative vol penalty>
0.000

$$$$

  -OEChem-04052323503D

 87 97  0     1  0  0  0  0  0999 V2000
  -28.5198  -17.2280   18.1701 C   0  0  0  0  0  0  0  0  0  0  0  0
  -27.4185  -18.0423   18.4141 C   0  0  0  0  0  0  0  0  0  0  0  0
  -23.9509  -14.3272   21.9420 C   0  0  0  0  0  0  0  0  0  0  0  0
  -25.5124  -14.7276   20.1425 C   0  0  0  0  0  0  0  0  0  0  0  0
  -29.7606  -17.5534   18.7164 C   0  0  0  0  0  0  0  0  0  0  0  0
  -27.5572  -19.1820   19.2054 C   0  0  0  0  0  0  0  0  0  0  0  0
  -24.6119  -24.5095   18.5359 C   0  0  0  0  0  0  0  0  0  0  0  0
  -24.2447  -12.9645   21.8938 C   0  0  0  0  0  0  0  0  0  0  0  0
  -25.8063  -13.3649   20.0942 C   0  0  0  0  0  0  0  0  0  0  0  0
  -23.4916  -25.0478   19.1675 C   0  0  0  0  0  0  0  0  0  0  0  0
  -23.4142  -10.3040   19.9816 C   0  0  0  0  0  0  0  0  0  0  0  0
  -22.3451   -9.4093   20.0268 C   0  0  0  0  0  0  0  0  0  0  0  0
  -24.9316  -26.2434   20.6894 C   0  0  0  0  0  0  0  0  0  0  0  0
  -23.2457   -8.4351   22.0460 C   0  0  0  0  0  0  0  0  0  0  0  0
  -20.1266  -27.8141   23.4149 C   0  0  0  0  0  0  0  0  0  0  0  0
  -24.5847  -15.2087   21.0663 C   0  0  0  0  0  0  0  0  0  0  0  0
  -24.9249  -17.5983   21.8920 C   0  0  0  0  0  0  0  0  0  0  0  0
  -29.9167  -18.7029   19.5069 C   0  0  0  0  0  0  0  0  0  0  0  0
  -25.9024  -24.8261   18.9839 C   0  0  0  0  0  0  0  0  0  0  0  0
  -28.8010  -19.5224   19.7639 C   0  0  0  0  0  0  0  0  0  0  0  0
  -26.0667  -25.7098   20.0600 C   0  0  0  0  0  0  0  0  0  0  0  0
  -18.9884  -27.0730   23.6194 C   0  0  0  0  0  0  0  0  0  0  0  0
  -25.1724  -12.4833   20.9699 C   0  0  0  0  0  0  0  0  0  0  0  0
  -23.6513  -25.9126   20.2463 C   0  0  0  0  0  0  0  0  0  0  0  0
  -24.3992  -10.2642   20.9686 C   0  0  0  0  0  0  0  0  0  0  0  0
  -22.2608   -8.4748   21.0590 C   0  0  0  0  0  0  0  0  0  0  0  0
  -24.3149   -9.3298   22.0008 C   0  0  0  0  0  0  0  0  0  0  0  0
  -24.2812  -16.6164   21.1153 C   0  0  0  0  0  0  0  0  0  0  0  0
  -18.5755  -26.6983   22.3267 C   0  0  0  0  0  0  0  0  0  0  0  0
  -24.2698  -18.7651   21.5822 C   0  0  0  0  0  0  0  0  0  0  0  0
  -26.0173  -17.4674   22.8114 C   0  0  0  0  0  0  0  0  0  0  0  0
  -28.3312  -23.1633   20.1838 C   0  0  0  0  0  0  0  0  0  0  0  0
  -29.8787  -26.0055   19.9616 C   0  0  0  0  0  0  0  0  0  0  0  0
  -29.6797  -29.4096   19.8231 C   0  0  0  0  0  0  0  0  0  0  0  0
  -19.5629  -21.4901   20.9046 C   0  0  0  0  0  0  0  0  0  0  0  0
  -31.2672  -18.9881   20.1147 C   0  0  0  0  0  0  0  0  0  0  0  0
  -27.1011  -24.2581   18.2748 C   0  0  0  0  0  0  0  0  0  0  0  0
  -27.4311  -26.0975   20.5667 C   0  0  0  0  0  0  0  0  0  0  0  0
  -31.4124  -20.4163   20.6335 C   0  0  0  0  0  0  0  0  0  0  0  0
  -20.9530  -19.8319   17.9452 C   0  0  0  0  0  0  0  0  0  0  0  0
  -19.1645  -26.0677   26.0340 C   0  0  0  0  0  0  0  0  0  0  0  0
  -18.0938  -25.2965   25.3275 C   0  0  0  0  0  0  0  0  0  0  0  0
  -30.1886  -20.8136   21.4530 C   0  0  0  0  0  0  0  0  0  0  0  0
  -21.9577  -18.8812   18.5874 C   0  0  0  0  0  0  0  0  0  0  0  0
  -16.2942  -22.2502   21.0365 C   0  0  0  0  0  0  0  0  0  0  0  0
  -19.7104  -20.0375   18.8125 C   0  0  0  0  0  0  0  0  0  0  0  0
  -17.0705  -21.2780   20.1428 C   0  0  0  0  0  0  0  0  0  0  0  0
  -21.0296  -19.5043   20.8444 C   0  0  0  0  0  0  0  0  0  0  0  0
  -18.3400  -26.7496   24.9539 C   0  0  0  0  0  0  0  0  0  0  0  0
  -28.9169  -20.7806   20.5967 C   0  0  1  0  0  0  0  0  0  0  0  0
  -28.3569  -24.2447   19.1410 C   0  0  1  0  0  0  0  0  0  0  0  0
  -22.3074  -19.3480   20.0082 C   0  0  1  0  0  0  0  0  0  0  0  0
  -17.5801  -23.0786   21.1799 C   0  0  2  0  0  0  0  0  0  0  0  0
  -31.1157  -31.4627   19.6823 C   0  0  0  0  0  0  0  0  0  0  0  0
  -30.5957  -25.7034   22.9120 C   0  0  0  0  0  0  0  0  0  0  0  0
  -31.1715  -28.1396   22.9497 C   0  0  0  0  0  0  0  0  0  0  0  0
  -32.4436  -26.5818   21.4740 C   0  0  0  0  0  0  0  0  0  0  0  0
  -28.4736  -30.2176   17.2441 C   0  0  0  0  0  0  0  0  0  0  0  0
  -17.7313  -24.2981   20.2921 C   0  0  0  0  0  0  0  0  0  0  0  0
  -21.3938  -28.4983   21.3645 C   0  0  0  0  0  0  0  0  0  0  0  0
  -16.9769  -25.5156   20.8197 C   0  0  0  0  0  0  0  0  0  0  0  0
  -22.7063  -27.7278   21.4579 C   0  0  0  0  0  0  0  0  0  1  0  0
  -30.0658  -27.1949   20.8722 C   0  0  1  0  0  0  0  0  0  0  0  0
  -30.3340  -30.4200   18.8984 C   0  0  2  0  0  0  0  0  0  0  0  0
  -31.0433  -26.8963   22.0439 C   0  0  0  0  0  0  0  0  0  0  0  0
  -23.2930  -17.1159   20.3683 N   0  0  0  0  0  0  0  0  0  0  0  0
  -19.3854  -27.1632   21.3717 N   0  0  0  0  0  0  0  0  0  0  0  0
  -20.3185  -27.8377   22.0648 N   0  0  0  0  0  0  0  0  0  0  0  0
  -23.3108  -18.4244   20.6743 N   0  0  0  0  0  0  0  0  0  0  0  0
  -28.5720  -25.5110   19.8443 N   0  0  0  0  0  0  0  0  0  0  0  0
  -20.0585  -20.3917   20.1937 N   0  0  0  0  0  0  0  0  0  0  0  0
  -18.2842  -21.9195   20.6269 N   0  0  0  0  0  0  0  0  0  0  0  0
  -24.4264  -20.0390   22.0005 N   0  0  0  0  0  0  0  0  0  0  0  0
  -26.5731  -16.1966   23.0119 N   0  0  0  0  0  0  0  0  0  0  0  0
  -17.4405  -25.9245   22.1166 N   0  0  0  0  0  0  0  0  0  0  0  0
  -28.8447  -21.9546   19.7536 N   0  0  0  0  0  0  0  0  0  0  0  0
  -30.4785  -28.3026   20.0172 N   0  0  0  0  0  0  0  0  0  0  0  0
  -29.3017  -31.1211   18.0837 N   0  3  0  0  0  0  0  0  0  0  0  0
  -26.4758  -18.4456   23.4489 O   0  0  0  0  0  0  0  0  0  0  0  0
  -27.8802  -23.4077   21.2967 O   0  0  0  0  0  0  0  0  0  0  0  0
  -30.8548  -25.5369   19.3705 O   0  0  0  0  0  0  0  0  0  0  0  0
  -28.5723  -29.5864   20.3262 O   0  0  0  0  0  0  0  0  0  0  0  0
  -20.2280  -22.0540   21.7836 O   0  0  0  0  0  0  0  0  0  0  0  0
  -25.4595  -11.1537   20.9227 O   0  0  0  0  0  0  0  0  0  0  0  0
  -22.5518  -26.4426   20.8694 O   0  0  0  0  0  0  0  0  0  1  0  0
  -21.2333   -7.6167   21.1031 F   0  0  0  0  0  0  0  0  0  0  0  0
  -25.2574   -9.2876   22.9524 F   0  0  0  0  0  0  0  0  0  0  0  0
  1  2  1  0  0  0  0
  1  5  2  0  0  0  0
  2  6  2  0  0  0  0
  3  8  2  0  0  0  0
  3 16  1  0  0  0  0
  4  9  1  0  0  0  0
  4 16  2  0  0  0  0
  5 18  1  0  0  0  0
  6 20  1  0  0  0  0
  7 10  2  0  0  0  0
  7 19  1  0  0  0  0
  8 23  1  0  0  0  0
  9 23  2  0  0  0  0
 10 24  1  0  0  0  0
 11 12  2  0  0  0  0
 11 25  1  0  0  0  0
 12 26  1  0  0  0  0
 13 21  1  0  0  0  0
 13 24  2  0  0  0  0
 14 26  2  0  0  0  0
 14 27  1  0  0  0  0
 15 22  2  0  0  0  0
 15 68  1  0  0  0  0
 16 28  1  0  0  0  0
 17 28  1  0  0  0  0
 17 30  2  0  0  0  0
 17 31  1  0  0  0  0
 18 20  2  0  0  0  0
 18 36  1  0  0  0  0
 19 21  2  0  0  0  0
 19 37  1  0  0  0  0
 20 50  1  0  0  0  0
 21 38  1  0  0  0  0
 22 29  1  0  0  0  0
 22 49  1  0  0  0  0
 23 84  1  0  0  0  0
 24 85  1  0  0  0  0
 25 27  2  0  0  0  0
 25 84  1  0  0  0  0
 26 86  1  0  0  0  0
 27 87  1  0  0  0  0
 28 66  2  0  0  0  0
 29 67  2  0  0  0  0
 29 75  1  0  0  0  0
 30 69  1  0  0  0  0
 30 73  1  0  0  0  0
 31 74  1  0  0  0  0
 31 79  2  0  0  0  0
 32 51  1  0  0  0  0
 32 76  1  0  0  0  0
 32 80  2  0  0  0  0
 33 63  1  0  0  0  0
 33 70  1  0  0  0  0
 33 81  2  0  0  0  0
 34 64  1  0  0  0  0
 34 77  1  0  0  0  0
 34 82  2  0  0  0  0
 35 71  1  0  0  0  0
 35 72  1  0  0  0  0
 35 83  2  0  0  0  0
 36 39  1  0  0  0  0
 37 51  1  0  0  0  0
 38 70  1  0  0  0  0
 39 43  1  0  0  0  0
 40 44  1  0  0  0  0
 40 46  1  0  0  0  0
 41 42  1  0  0  0  0
 41 49  1  0  0  0  0
 42 49  1  0  0  0  0
 43 50  1  0  0  0  0
 44 52  1  0  0  0  0
 45 47  1  0  0  0  0
 45 53  1  0  0  0  0
 46 71  1  0  0  0  0
 47 72  1  0  0  0  0
 48 52  1  0  0  0  0
 48 71  1  0  0  0  0
 50 76  1  0  0  0  0
 51 70  1  0  0  0  0
 52 69  1  0  0  0  0
 53 59  1  0  0  0  0
 53 72  1  0  0  0  0
 54 64  1  0  0  0  0
 55 65  1  0  0  0  0
 56 65  1  0  0  0  0
 57 65  1  0  0  0  0
 58 78  1  0  0  0  0
 59 61  1  0  0  0  0
 60 62  1  0  0  0  0
 60 68  1  0  0  0  0
 61 75  1  0  0  0  0
 62 85  1  0  0  0  0
 63 65  1  0  0  0  0
 63 77  1  0  0  0  0
 64 78  1  0  0  0  0
 66 69  1  0  0  0  0
 67 68  1  0  0  0  0
M  CHG  1  78   1
M  ISO  4  35 100  62 101  72 100  85 101
M  END
> <Batch ID>
0199

> <Smiles>
CNC(C)C(=O)NC(C(=O)N1Cc2cc([101O:1][101CH2:1]Cn3cc(C4CC4)c(NCCC4CC[100N:0]4[100C:0](=O)N4CCCC(n5nc(-c6ccc(Oc7ccc(F)cc7F)cc6)c(C(N)=O)c5N)C4)n3)ccc2CC1C(=O)NC1CCCc2ccccc21)C(C)(C)C

> <Shape>
0.220

> <Color>
0.066

> <Negative vol penalty>
0.000

$$$$

  -OEChem-04052323503D

 83 91  0     1  0  0  0  0  0999 V2000
  -20.4303  -10.4683   19.5905 C   0  0  0  0  0  0  0  0  0  0  0  0
  -20.6842  -11.6647   18.9274 C   0  0  0  0  0  0  0  0  0  0  0  0
  -21.3263  -25.9892   24.9928 C   0  0  0  0  0  0  0  0  0  0  0  0
  -21.7213  -25.0665   22.7951 C   0  0  0  0  0  0  0  0  0  0  0  0
  -21.1709  -10.1289   20.7219 C   0  0  0  0  0  0  0  0  0  0  0  0
  -21.6782  -12.5229   19.3962 C   0  0  0  0  0  0  0  0  0  0  0  0
  -26.5466  -17.2304   17.0606 C   0  0  0  0  0  0  0  0  0  0  0  0
  -22.2067  -25.0574   25.5423 C   0  0  0  0  0  0  0  0  0  0  0  0
  -22.6018  -24.1347   23.3446 C   0  0  0  0  0  0  0  0  0  0  0  0
  -26.9662  -18.5424   17.2760 C   0  0  0  0  0  0  0  0  0  0  0  0
  -25.2299  -21.7453   24.1204 C   0  0  0  0  0  0  0  0  0  0  0  0
  -26.4438  -21.5348   23.4664 C   0  0  0  0  0  0  0  0  0  0  0  0
  -28.2360  -17.8150   19.1938 C   0  0  0  0  0  0  0  0  0  0  0  0
  -27.0163  -23.8609   23.7803 C   0  0  0  0  0  0  0  0  0  0  0  0
  -21.0835  -25.9938   23.6192 C   0  0  0  0  0  0  0  0  0  0  0  0
  -18.8083  -27.1168   23.3541 C   0  0  0  0  0  0  0  0  0  0  0  0
  -22.1811  -10.9789   21.1991 C   0  0  0  0  0  0  0  0  0  0  0  0
  -26.9605  -16.2009   17.9180 C   0  0  0  0  0  0  0  0  0  0  0  0
  -22.4321  -12.1952   20.5359 C   0  0  0  0  0  0  0  0  0  0  0  0
  -27.8223  -16.4904   18.9856 C   0  0  0  0  0  0  0  0  0  0  0  0
  -22.8445  -24.1301   24.7182 C   0  0  0  0  0  0  0  0  0  0  0  0
  -27.8086  -18.8353   18.3444 C   0  0  0  0  0  0  0  0  0  0  0  0
  -24.9092  -23.0136   24.6043 C   0  0  0  0  0  0  0  0  0  0  0  0
  -27.3370  -22.5925   23.2964 C   0  0  0  0  0  0  0  0  0  0  0  0
  -25.8024  -24.0714   24.4343 C   0  0  0  0  0  0  0  0  0  0  0  0
  -20.1736  -26.9558   23.0510 C   0  0  0  0  0  0  0  0  0  0  0  0
  -18.3989  -28.1548   22.5533 C   0  0  0  0  0  0  0  0  0  0  0  0
  -17.9839  -26.3928   24.2772 C   0  0  0  0  0  0  0  0  0  0  0  0
  -25.4796  -14.1756   19.8697 C   0  0  0  0  0  0  0  0  0  0  0  0
  -27.4964  -26.3483   20.1767 C   0  0  0  0  0  0  0  0  0  0  0  0
  -28.4510  -12.9121   20.1808 C   0  0  0  0  0  0  0  0  0  0  0  0
  -31.8276  -13.3652   19.9799 C   0  0  0  0  0  0  0  0  0  0  0  0
  -23.3064  -29.7944   20.3140 C   0  0  0  0  0  0  0  0  0  0  0  0
  -22.9232  -10.5916   22.4537 C   0  0  0  0  0  0  0  0  0  0  0  0
  -26.5206  -14.7865   17.6563 C   0  0  0  0  0  0  0  0  0  0  0  0
  -28.3116  -15.4180   19.9231 C   0  0  0  0  0  0  0  0  0  0  0  0
  -24.2127  -11.3803   22.6667 C   0  0  0  0  0  0  0  0  0  0  0  0
  -20.2409  -28.3812   18.6990 C   0  0  0  0  0  0  0  0  0  0  0  0
  -23.9715  -12.8692   22.4390 C   0  0  0  0  0  0  0  0  0  0  0  0
  -19.1462  -29.1677   19.4172 C   0  0  0  0  0  0  0  0  0  0  0  0
  -21.5328  -29.1838   18.6321 C   0  0  0  0  0  0  0  0  0  0  0  0
  -26.5640  -28.6266   20.3827 C   0  0  0  0  0  0  0  0  0  0  0  0
  -24.9952  -26.7057   20.4295 C   0  0  0  0  0  0  0  0  0  0  0  0
  -25.5983  -29.3766   19.4745 C   0  0  0  0  0  0  0  0  0  0  0  0
  -24.0217  -27.4864   19.5444 C   0  0  0  0  0  0  0  0  0  0  0  0
  -20.9443  -30.3870   20.7186 C   0  0  0  0  0  0  0  0  0  0  0  0
  -23.5189  -13.1409   20.9992 C   0  0  1  0  0  0  0  0  0  0  0  0
  -26.5902  -13.9000   18.8959 C   0  0  1  0  0  0  0  0  0  0  0  0
  -19.5911  -29.6534   20.8111 C   0  0  2  0  0  0  0  0  0  0  0  0
  -34.0010  -12.1609   20.3306 C   0  0  0  0  0  0  0  0  0  0  0  0
  -28.1235  -13.2054   23.2002 C   0  0  0  0  0  0  0  0  0  0  0  0
  -30.5983  -12.9026   23.4279 C   0  0  0  0  0  0  0  0  0  0  0  0
  -29.2023  -11.0704   22.4704 C   0  0  0  0  0  0  0  0  0  0  0  0
  -32.6051  -13.7018   17.1442 C   0  0  0  0  0  0  0  0  0  0  0  0
  -27.2327  -24.8676   20.0660 C   0  0  0  0  0  0  0  0  0  0  0  0
  -28.5344  -24.1034   19.9657 C   0  0  0  0  0  0  0  0  0  0  0  0
  -29.4834  -21.8064   19.7168 C   0  0  0  0  0  0  0  0  0  0  0  0
  -29.0812  -20.3455   19.6694 C   0  0  0  0  0  0  0  0  0  1  0  0
  -29.6242  -13.1527   21.0999 C   0  0  1  0  0  0  0  0  0  0  0  0
  -32.9185  -12.5337   19.3296 C   0  0  2  0  0  0  0  0  0  0  0  0
  -29.3765  -12.6035   22.5333 C   0  0  0  0  0  0  0  0  0  0  0  0
  -20.6028  -27.8220   22.1293 N   0  0  0  0  0  0  0  0  0  0  0  0
  -19.5008  -28.5373   21.8464 N   0  0  0  0  0  0  0  0  0  0  0  0
  -27.8486  -14.0517   19.6293 N   0  0  0  0  0  0  0  0  0  0  0  0
  -26.3777  -27.1771   20.2767 N   0  0  0  0  0  0  0  0  0  0  0  0
  -21.9545  -29.6434   19.9604 N   0  0  0  0  0  0  0  0  0  0  0  0
  -24.2240  -28.9321   19.6951 N   0  0  0  0  0  0  0  0  0  0  0  0
  -17.2074  -28.7685   22.3918 N   0  0  0  0  0  0  0  0  0  0  0  0
  -17.3078  -25.2542   23.8181 N   0  0  0  0  0  0  0  0  0  0  0  0
  -24.6493  -13.0946   20.0968 N   0  0  0  0  0  0  0  0  0  0  0  0
  -30.7889  -12.5800   20.4336 N   0  0  0  0  0  0  0  0  0  0  0  0
  -33.5515  -13.2914   18.2133 N   0  3  0  0  0  0  0  0  0  0  0  0
  -28.2655  -22.6462   19.8767 N   0  3  0  0  0  0  0  0  0  0  0  0
  -17.8378  -26.7546   25.4693 O   0  0  0  0  0  0  0  0  0  0  0  0
  -25.3840  -15.2863   20.3786 O   0  0  0  0  0  0  0  0  0  0  0  0
  -28.6611  -26.7552   20.1707 O   0  0  0  0  0  0  0  0  0  0  0  0
  -28.0872  -11.7553   19.9548 O   0  0  0  0  0  0  0  0  0  0  0  0
  -31.8922  -14.5885   20.0790 O   0  0  0  0  0  0  0  0  0  0  0  0
  -23.6669  -30.6404   21.1418 O   0  0  0  0  0  0  0  0  0  0  0  0
  -23.7040  -23.2208   25.2541 O   0  0  0  0  0  0  0  0  0  0  0  0
  -28.2221  -20.1244   18.5588 O   0  0  0  0  0  0  0  0  0  1  0  0
  -28.5034  -22.3899   22.6697 F   0  0  0  0  0  0  0  0  0  0  0  0
  -25.5003  -25.2918   24.8980 F   0  0  0  0  0  0  0  0  0  0  0  0
  1  2  1  0  0  0  0
  1  5  2  0  0  0  0
  2  6  2  0  0  0  0
  3  8  2  0  0  0  0
  3 15  1  0  0  0  0
  4  9  1  0  0  0  0
  4 15  2  0  0  0  0
  5 17  1  0  0  0  0
  6 19  1  0  0  0  0
  7 10  2  0  0  0  0
  7 18  1  0  0  0  0
  8 21  1  0  0  0  0
  9 21  2  0  0  0  0
 10 22  1  0  0  0  0
 11 12  2  0  0  0  0
 11 23  1  0  0  0  0
 12 24  1  0  0  0  0
 13 20  1  0  0  0  0
 13 22  2  0  0  0  0
 14 24  2  0  0  0  0
 14 25  1  0  0  0  0
 15 26  1  0  0  0  0
 16 26  1  0  0  0  0
 16 27  2  0  0  0  0
 16 28  1  0  0  0  0
 17 19  2  0  0  0  0
 17 34  1  0  0  0  0
 18 20  2  0  0  0  0
 18 35  1  0  0  0  0
 19 47  1  0  0  0  0
 20 36  1  0  0  0  0
 21 80  1  0  0  0  0
 22 81  1  0  0  0  0
 23 25  2  0  0  0  0
 23 80  1  0  0  0  0
 24 82  1  0  0  0  0
 25 83  1  0  0  0  0
 26 62  2  0  0  0  0
 27 63  1  0  0  0  0
 27 68  1  0  0  0  0
 28 69  1  0  0  0  0
 28 74  2  0  0  0  0
 29 48  1  0  0  0  0
 29 70  1  0  0  0  0
 29 75  2  0  0  0  0
 30 55  1  0  0  0  0
 30 65  1  0  0  0  0
 30 76  2  0  0  0  0
 31 59  1  0  0  0  0
 31 64  1  0  0  0  0
 31 77  2  0  0  0  0
 32 60  1  0  0  0  0
 32 71  1  0  0  0  0
 32 78  2  0  0  0  0
 33 66  1  0  0  0  0
 33 67  1  0  0  0  0
 33 79  2  0  0  0  0
 34 37  1  0  0  0  0
 35 48  1  0  0  0  0
 36 64  1  0  0  0  0
 37 39  1  0  0  0  0
 38 40  1  0  0  0  0
 38 41  1  0  0  0  0
 39 47  1  0  0  0  0
 40 49  1  0  0  0  0
 41 66  1  0  0  0  0
 42 44  1  0  0  0  0
 42 65  1  0  0  0  0
 43 45  1  0  0  0  0
 43 65  1  0  0  0  0
 44 67  1  0  0  0  0
 45 67  1  0  0  0  0
 46 49  1  0  0  0  0
 46 66  1  0  0  0  0
 47 70  1  0  0  0  0
 48 64  1  0  0  0  0
 49 63  1  0  0  0  0
 50 60  1  0  0  0  0
 51 61  1  0  0  0  0
 52 61  1  0  0  0  0
 53 61  1  0  0  0  0
 54 72  1  0  0  0  0
 55 56  1  0  0  0  0
 56 73  1  0  0  0  0
 57 58  1  0  0  0  0
 57 73  1  0  0  0  0
 58 81  1  0  0  0  0
 59 61  1  0  0  0  0
 59 71  1  0  0  0  0
 60 72  1  0  0  0  0
 62 63  1  0  0  0  0
M  CHG  2  72   1  73   1
M  ISO  4  33 100  58 101  67 100  81 101
M  END
> <Batch ID>
0199

> <Smiles>
CNC(C)C(=O)NC(C(=O)N1Cc2cc([101O:1][101CH2:1]CNCCC(=O)N3CC[100N:0]([100C:0](=O)N4CCCC(n5nc(-c6ccc(Oc7ccc(F)cc7F)cc6)c(C(N)=O)c5N)C4)CC3)ccc2CC1C(=O)NC1CCCc2ccccc21)C(C)(C)C

> <Shape>
0.241

> <Color>
0.086

> <Negative vol penalty>
0.000

$$$$

  -OEChem-04052323503D

 87 96  0     1  0  0  0  0  0999 V2000
  -27.6936  -32.7526   26.6910 C   0  0  0  0  0  0  0  0  0  0  0  0
  -27.8840  -31.6131   25.9159 C   0  0  0  0  0  0  0  0  0  0  0  0
  -24.6146   -9.4114   21.9111 C   0  0  0  0  0  0  0  0  0  0  0  0
  -22.9639  -10.3769   20.4346 C   0  0  0  0  0  0  0  0  0  0  0  0
  -26.4024  -33.1615   27.0217 C   0  0  0  0  0  0  0  0  0  0  0  0
  -26.7832  -30.8813   25.4720 C   0  0  0  0  0  0  0  0  0  0  0  0
  -27.1660  -29.5604   20.5982 C   0  0  0  0  0  0  0  0  0  0  0  0
  -23.6099   -8.7052   22.5725 C   0  0  0  0  0  0  0  0  0  0  0  0
  -21.9592   -9.6707   21.0960 C   0  0  0  0  0  0  0  0  0  0  0  0
  -27.9963  -28.4825   20.2940 C   0  0  0  0  0  0  0  0  0  0  0  0
  -21.5237   -6.3697   24.4186 C   0  0  0  0  0  0  0  0  0  0  0  0
  -21.7586   -5.0255   24.7078 C   0  0  0  0  0  0  0  0  0  0  0  0
  -26.0653  -27.0439   20.1493 C   0  0  0  0  0  0  0  0  0  0  0  0
  -22.0146   -4.5632   22.3503 C   0  0  0  0  0  0  0  0  0  0  0  0
  -24.2916  -10.2474   20.8422 C   0  0  0  0  0  0  0  0  0  0  0  0
  -26.0760  -10.5511   19.0445 C   0  0  0  0  0  0  0  0  0  0  0  0
  -25.2848  -32.4398   26.5735 C   0  0  0  0  0  0  0  0  0  0  0  0
  -25.7778  -29.3856   20.6912 C   0  0  0  0  0  0  0  0  0  0  0  0
  -25.4759  -31.2802   25.7981 C   0  0  0  0  0  0  0  0  0  0  0  0
  -25.2194  -28.1217   20.4524 C   0  0  0  0  0  0  0  0  0  0  0  0
  -22.2822   -8.8348   22.1649 C   0  0  0  0  0  0  0  0  0  0  0  0
  -27.4462  -27.2234   20.0723 C   0  0  0  0  0  0  0  0  0  0  0  0
  -21.5342   -6.8107   23.0953 C   0  0  0  0  0  0  0  0  0  0  0  0
  -22.0041   -4.1223   23.6736 C   0  0  0  0  0  0  0  0  0  0  0  0
  -21.7797   -5.9074   22.0611 C   0  0  0  0  0  0  0  0  0  0  0  0
  -25.3289  -10.9776   20.1589 C   0  0  0  0  0  0  0  0  0  0  0  0
  -26.9245  -11.5979   18.7790 C   0  0  0  0  0  0  0  0  0  0  0  0
  -26.0088   -9.3189   18.3146 C   0  0  0  0  0  0  0  0  0  0  0  0
  -26.9330  -22.8509   20.9580 C   0  0  0  0  0  0  0  0  0  0  0  0
  -23.6241  -29.7254   23.0041 C   0  0  0  0  0  0  0  0  0  0  0  0
  -21.5266  -29.1052   20.6086 C   0  0  0  0  0  0  0  0  0  0  0  0
  -20.9523  -27.7000   17.5521 C   0  0  0  0  0  0  0  0  0  0  0  0
  -26.6075  -17.3165   19.6984 C   0  0  0  0  0  0  0  0  0  0  0  0
  -23.9101  -32.8940   26.9961 C   0  0  0  0  0  0  0  0  0  0  0  0
  -24.8936  -30.5641   20.9940 C   0  0  0  0  0  0  0  0  0  0  0  0
  -23.7335  -27.8856   20.5203 C   0  0  0  0  0  0  0  0  0  0  0  0
  -22.7840  -32.2746   26.1723 C   0  0  0  0  0  0  0  0  0  0  0  0
  -29.1937  -15.2223   20.9029 C   0  0  0  0  0  0  0  0  0  0  0  0
  -22.9983  -30.7720   26.0199 C   0  0  0  0  0  0  0  0  0  0  0  0
  -28.5577  -13.8416   20.7535 C   0  0  0  0  0  0  0  0  0  0  0  0
  -29.1886  -23.9492   20.4206 C   0  0  0  0  0  0  0  0  0  0  0  0
  -28.1891  -16.2720   21.3824 C   0  0  0  0  0  0  0  0  0  0  0  0
  -27.7368  -20.9311   19.5288 C   0  0  0  0  0  0  0  0  0  0  0  0
  -27.1920  -19.6036   19.0230 C   0  0  0  0  0  0  0  0  0  0  0  0
  -26.3273  -14.9635   20.4081 C   0  0  0  0  0  0  0  0  0  0  0  0
  -26.8786  -19.1375   21.4519 C   0  0  0  0  0  0  0  0  0  0  0  0
  -24.3061  -30.4738   25.2769 C   0  0  1  0  0  0  0  0  0  0  0  0
  -27.7438  -23.7677   20.0986 C   0  0  2  0  0  0  0  0  0  0  0  0
  -23.5389  -30.1625   21.5691 C   0  0  1  0  0  0  0  0  0  0  0  0
  -27.3036  -13.9092   19.8655 C   0  0  2  0  0  0  0  0  0  0  0  0
  -28.2129  -25.0576   20.6867 C   0  0  2  0  0  0  0  0  0  1  0  0
  -26.2500  -20.5359   21.5161 C   0  0  2  0  0  0  0  0  0  0  0  0
  -19.1296  -27.3208   15.8695 C   0  0  0  0  0  0  0  0  0  0  0  0
  -20.3426  -19.0213   22.5147 C   0  0  0  0  0  0  0  0  0  0  0  0
  -21.3392  -20.7635   24.0463 C   0  0  0  0  0  0  0  0  0  0  0  0
  -20.3733  -26.8895   22.3608 C   0  0  0  0  0  0  0  0  0  0  0  0
  -19.2510  -25.9594   20.3252 C   0  0  0  0  0  0  0  0  0  0  0  0
  -18.6663  -28.2452   21.1351 C   0  0  0  0  0  0  0  0  0  0  0  0
  -22.3878  -29.2458   15.4764 C   0  0  0  0  0  0  0  0  0  0  0  0
  -24.7525  -20.5005   21.1941 C   0  0  0  0  0  0  0  0  0  0  0  0
  -23.9496  -20.0925   22.4135 C   0  0  0  0  0  0  0  0  0  0  0  0
  -20.9058  -27.8579   20.0275 C   0  0  1  0  0  0  0  0  0  0  0  0
  -20.2614  -28.2355   16.3110 C   0  0  2  0  0  0  0  0  0  0  0  0
  -21.6140  -19.5785   23.1345 C   0  0  0  0  0  0  0  0  0  0  0  0
  -19.8273  -27.2417   20.9627 C   0  0  0  0  0  0  0  0  0  0  0  0
  -25.6728  -12.2000   20.5730 N   0  0  0  0  0  0  0  0  0  0  0  0
  -26.6453  -12.5506   19.7143 N   0  0  0  0  0  0  0  0  0  0  0  0
  -26.9577  -21.4854   20.6412 N   0  0  0  0  0  0  0  0  0  0  0  0
  -22.9113  -29.0680   20.8259 N   0  0  0  0  0  0  0  0  0  0  0  0
  -26.9815  -16.2666   20.5472 N   0  0  0  0  0  0  0  0  0  0  0  0
  -26.9689  -18.6198   20.0803 N   0  0  0  0  0  0  0  0  0  0  0  0
  -27.8749  -11.7872   17.8392 N   0  0  0  0  0  0  0  0  0  0  0  0
  -25.0801   -8.3512   18.7213 N   0  0  0  0  0  0  0  0  0  0  0  0
  -24.1390  -30.6848   23.8549 N   0  0  0  0  0  0  0  0  0  0  0  0
  -20.4104  -28.2264   18.7056 N   0  0  0  0  0  0  0  0  0  0  0  0
  -21.2338  -28.3558   15.1881 N   0  3  0  0  0  0  0  0  0  0  0  0
  -22.5168  -20.0257   22.0383 N   0  3  0  0  0  0  0  0  0  0  0  0
  -26.7617   -9.0763   17.3411 O   0  0  0  0  0  0  0  0  0  0  0  0
  -26.2906  -23.3426   21.8824 O   0  0  0  0  0  0  0  0  0  0  0  0
  -23.2490  -28.6014   23.3166 O   0  0  0  0  0  0  0  0  0  0  0  0
  -20.8106  -30.0793   20.8539 O   0  0  0  0  0  0  0  0  0  0  0  0
  -21.8775  -26.8924   17.5034 O   0  0  0  0  0  0  0  0  0  0  0  0
  -25.9650  -17.1076   18.6608 O   0  0  0  0  0  0  0  0  0  0  0  0
  -21.3016   -8.1456   22.8099 O   0  0  0  0  0  0  0  0  0  0  0  0
  -28.2561  -26.1671   19.7752 O   0  0  0  0  0  0  0  0  0  1  0  0
  -22.2311   -2.8318   23.9515 F   0  0  0  0  0  0  0  0  0  0  0  0
  -21.7923   -6.3253   20.7880 F   0  0  0  0  0  0  0  0  0  0  0  0
  1  2  1  0  0  0  0
  1  5  2  0  0  0  0
  2  6  2  0  0  0  0
  3  8  2  0  0  0  0
  3 15  1  0  0  0  0
  4  9  1  0  0  0  0
  4 15  2  0  0  0  0
  5 17  1  0  0  0  0
  6 19  1  0  0  0  0
  7 10  2  0  0  0  0
  7 18  1  0  0  0  0
  8 21  1  0  0  0  0
  9 21  2  0  0  0  0
 10 22  1  0  0  0  0
 11 12  2  0  0  0  0
 11 23  1  0  0  0  0
 12 24  1  0  0  0  0
 13 20  1  0  0  0  0
 13 22  2  0  0  0  0
 14 24  2  0  0  0  0
 14 25  1  0  0  0  0
 15 26  1  0  0  0  0
 16 26  1  0  0  0  0
 16 27  2  0  0  0  0
 16 28  1  0  0  0  0
 17 19  2  0  0  0  0
 17 34  1  0  0  0  0
 18 20  2  0  0  0  0
 18 35  1  0  0  0  0
 19 47  1  0  0  0  0
 20 36  1  0  0  0  0
 21 84  1  0  0  0  0
 22 85  1  0  0  0  0
 23 25  2  0  0  0  0
 23 84  1  0  0  0  0
 24 86  1  0  0  0  0
 25 87  1  0  0  0  0
 26 66  2  0  0  0  0
 27 67  1  0  0  0  0
 27 72  1  0  0  0  0
 28 73  1  0  0  0  0
 28 78  2  0  0  0  0
 29 48  1  0  0  0  0
 29 68  1  0  0  0  0
 29 79  2  0  0  0  0
 30 49  1  0  0  0  0
 30 74  1  0  0  0  0
 30 80  2  0  0  0  0
 31 62  1  0  0  0  0
 31 69  1  0  0  0  0
 31 81  2  0  0  0  0
 32 63  1  0  0  0  0
 32 75  1  0  0  0  0
 32 82  2  0  0  0  0
 33 70  1  0  0  0  0
 33 71  1  0  0  0  0
 33 83  2  0  0  0  0
 34 37  1  0  0  0  0
 35 49  1  0  0  0  0
 36 69  1  0  0  0  0
 37 39  1  0  0  0  0
 38 40  1  0  0  0  0
 38 42  1  0  0  0  0
 39 47  1  0  0  0  0
 40 50  1  0  0  0  0
 41 48  1  0  0  0  0
 41 51  1  0  0  0  0
 42 70  1  0  0  0  0
 43 44  1  0  0  0  0
 43 68  1  0  0  0  0
 44 71  1  0  0  0  0
 45 50  1  0  0  0  0
 45 70  1  0  0  0  0
 46 52  1  0  0  0  0
 46 71  1  0  0  0  0
 47 74  1  0  0  0  0
 48 51  1  0  0  0  0
 49 69  1  0  0  0  0
 50 67  1  0  0  0  0
 51 85  1  0  0  0  0
 52 60  1  0  0  0  0
 52 68  1  0  0  0  0
 53 63  1  0  0  0  0
 54 64  1  0  0  0  0
 55 64  1  0  0  0  0
 56 65  1  0  0  0  0
 57 65  1  0  0  0  0
 58 65  1  0  0  0  0
 59 76  1  0  0  0  0
 60 61  1  0  0  0  0
 61 77  1  0  0  0  0
 62 65  1  0  0  0  0
 62 75  1  0  0  0  0
 63 76  1  0  0  0  0
 64 77  1  0  0  0  0
 66 67  1  0  0  0  0
M  CHG  2  76   1  77   1
M  ISO  4  33 100  51 101  71 100  85 101
M  END
> <Batch ID>
0199

> <Smiles>
CNC(C)C(=O)NC(C(=O)N1Cc2cc([101O:1][101CH:1]3CC3C(=O)N3CC[100N:0]([100C:0](=O)N4CCCC(n5nc(-c6ccc(Oc7ccc(F)cc7F)cc6)c(C(N)=O)c5N)C4)CC3CCNC(C)C)ccc2CC1C(=O)NC1CCCc2ccccc21)C(C)(C)C

> <Shape>
0.306

> <Color>
0.099

> <Negative vol penalty>
0.000

$$$$

  -OEChem-04052323503D

 82 90  0     1  0  0  0  0  0999 V2000
  -31.8310  -22.8266   23.6794 C   0  0  0  0  0  0  0  0  0  0  0  0
  -30.4689  -23.0265   23.8798 C   0  0  0  0  0  0  0  0  0  0  0  0
  -29.0969  -27.6310   18.5067 C   0  0  0  0  0  0  0  0  0  0  0  0
  -28.9593  -25.8120   20.0908 C   0  0  0  0  0  0  0  0  0  0  0  0
  -32.2702  -22.0491   22.6086 C   0  0  0  0  0  0  0  0  0  0  0  0
  -29.5452  -22.4500   23.0087 C   0  0  0  0  0  0  0  0  0  0  0  0
  -23.9917  -20.2954   24.4307 C   0  0  0  0  0  0  0  0  0  0  0  0
  -30.3526  -27.1810   18.0989 C   0  0  0  0  0  0  0  0  0  0  0  0
  -30.2150  -25.3619   19.6830 C   0  0  0  0  0  0  0  0  0  0  0  0
  -22.7155  -20.8457   24.3200 C   0  0  0  0  0  0  0  0  0  0  0  0
  -31.6016  -24.7538   16.1036 C   0  0  0  0  0  0  0  0  0  0  0  0
  -31.8572  -24.6992   14.7334 C   0  0  0  0  0  0  0  0  0  0  0  0
  -22.4159  -19.7118   22.2120 C   0  0  0  0  0  0  0  0  0  0  0  0
  -33.6922  -26.2455   15.0141 C   0  0  0  0  0  0  0  0  0  0  0  0
  -28.4003  -26.9465   19.5027 C   0  0  0  0  0  0  0  0  0  0  0  0
  -25.8534  -27.0421   19.3926 C   0  0  0  0  0  0  0  0  0  0  0  0
  -31.3511  -21.4548   21.7296 C   0  0  0  0  0  0  0  0  0  0  0  0
  -24.4946  -19.4564   23.4259 C   0  0  0  0  0  0  0  0  0  0  0  0
  -29.9725  -21.6650   21.9244 C   0  0  0  0  0  0  0  0  0  0  0  0
  -23.6978  -19.1501   22.3135 C   0  0  0  0  0  0  0  0  0  0  0  0
  -30.9116  -26.0464   18.6870 C   0  0  0  0  0  0  0  0  0  0  0  0
  -21.9285  -20.5563   23.2092 C   0  0  0  0  0  0  0  0  0  0  0  0
  -32.3913  -25.5543   16.9290 C   0  0  0  0  0  0  0  0  0  0  0  0
  -32.9024  -25.4450   14.1887 C   0  0  0  0  0  0  0  0  0  0  0  0
  -33.4366  -26.3001   16.3842 C   0  0  0  0  0  0  0  0  0  0  0  0
  -27.1034  -27.4113   19.9248 C   0  0  0  0  0  0  0  0  0  0  0  0
  -24.9414  -27.7543   20.1325 C   0  0  0  0  0  0  0  0  0  0  0  0
  -25.5444  -26.1363   18.3250 C   0  0  0  0  0  0  0  0  0  0  0  0
  -26.9617  -19.5820   21.4255 C   0  0  0  0  0  0  0  0  0  0  0  0
  -26.0012  -16.5773   20.6693 C   0  0  0  0  0  0  0  0  0  0  0  0
  -23.4781  -14.2816   20.5679 C   0  0  0  0  0  0  0  0  0  0  0  0
  -23.0535  -29.6495   25.0239 C   0  0  0  0  0  0  0  0  0  0  0  0
  -31.8750  -20.6617   20.5587 C   0  0  0  0  0  0  0  0  0  0  0  0
  -25.8629  -18.8494   23.5730 C   0  0  0  0  0  0  0  0  0  0  0  0
  -24.1834  -18.2389   21.2170 C   0  0  0  0  0  0  0  0  0  0  0  0
  -30.8189  -19.7774   19.9006 C   0  0  0  0  0  0  0  0  0  0  0  0
  -25.6079  -31.5329   23.4301 C   0  0  0  0  0  0  0  0  0  0  0  0
  -29.5280  -20.5602   19.6821 C   0  0  0  0  0  0  0  0  0  0  0  0
  -26.1237  -30.5990   22.3338 C   0  0  0  0  0  0  0  0  0  0  0  0
  -18.3037  -27.8460   21.7384 C   0  0  0  0  0  0  0  0  0  0  0  0
  -25.2388  -30.7652   24.6976 C   0  0  0  0  0  0  0  0  0  0  0  0
  -24.8137  -28.7154   23.4000 C   0  0  0  0  0  0  0  0  0  0  0  0
  -18.7306  -29.2354   22.2362 C   0  0  0  0  0  0  0  0  0  0  0  0
  -28.9389  -21.0358   21.0156 C   0  0  1  0  0  0  0  0  0  0  0  0
  -26.4722  -18.4196   22.2421 C   0  0  1  0  0  0  0  0  0  0  0  0
  -25.1458  -29.4354   22.0817 C   0  0  2  0  0  0  0  0  0  0  0  0
  -18.9372  -27.3165   23.0421 C   0  0  1  0  0  0  0  0  0  0  0  0
  -22.9871  -11.9241   19.8619 C   0  0  0  0  0  0  0  0  0  0  0  0
  -25.9345  -17.4675   17.7516 C   0  0  0  0  0  0  0  0  0  0  0  0
  -24.5631  -15.4373   17.2361 C   0  0  0  0  0  0  0  0  0  0  0  0
  -26.8804  -15.1825   18.1237 C   0  0  0  0  0  0  0  0  0  0  0  0
  -22.7701  -13.4797   23.3274 C   0  0  0  0  0  0  0  0  0  0  0  0
  -19.7955  -26.0729   22.9304 C   0  0  0  0  0  0  0  0  0  0  0  0
  -20.8674  -28.4340   25.2507 C   0  0  0  0  0  0  0  0  0  0  0  0
  -19.8040  -29.1451   24.4348 C   0  0  0  0  0  0  0  0  0  0  0  0
  -19.0062  -24.9101   22.3504 C   0  0  0  0  0  0  0  0  0  0  0  0
  -19.2006  -22.4795   21.8090 C   0  0  0  0  0  0  0  0  0  0  0  0
  -20.1953  -21.3358   21.7795 C   0  0  0  0  0  0  0  0  0  1  0  0
  -25.0433  -15.9819   19.6659 C   0  0  1  0  0  0  0  0  0  0  0  0
  -23.4198  -12.8290   21.0050 C   0  0  2  0  0  0  0  0  0  0  0  0
  -25.5966  -16.0361   18.2139 C   0  0  0  0  0  0  0  0  0  0  0  0
  -26.9986  -28.2899   20.9253 N   0  0  0  0  0  0  0  0  0  0  0  0
  -25.6720  -28.4788   21.0277 N   0  0  0  0  0  0  0  0  0  0  0  0
  -25.5305  -17.6751   21.4036 N   0  0  0  0  0  0  0  0  0  0  0  0
  -24.3045  -29.6801   24.3875 N   0  0  0  0  0  0  0  0  0  0  0  0
  -23.5937  -27.8253   20.0981 N   0  0  0  0  0  0  0  0  0  0  0  0
  -26.6015  -25.4883   17.6716 N   0  0  0  0  0  0  0  0  0  0  0  0
  -28.2686  -19.9447   21.6899 N   0  0  0  0  0  0  0  0  0  0  0  0
  -24.7401  -14.6359   20.1400 N   0  0  0  0  0  0  0  0  0  0  0  0
  -22.2173  -28.5950   24.6724 N   0  0  0  0  0  0  0  0  0  0  0  0
  -19.7425  -28.5623   23.0758 N   0  3  2  0  0  0  0  0  0  0  0  0
  -22.4527  -12.6641   22.1269 N   0  3  0  0  0  0  0  0  0  0  0  0
  -19.8774  -23.7049   22.3037 N   0  3  0  0  0  0  0  0  0  0  0  0
  -24.3668  -25.9209   17.9504 O   0  0  0  0  0  0  0  0  0  0  0  0
  -26.2098  -20.1098   20.6144 O   0  0  0  0  0  0  0  0  0  0  0  0
  -27.1232  -16.0821   20.8019 O   0  0  0  0  0  0  0  0  0  0  0  0
  -22.5010  -15.0263   20.5992 O   0  0  0  0  0  0  0  0  0  0  0  0
  -22.6967  -30.5033   25.8430 O   0  0  0  0  0  0  0  0  0  0  0  0
  -32.1368  -25.6068   18.2892 O   0  0  0  0  0  0  0  0  0  0  0  0
  -20.6827  -21.0926   23.0984 O   0  0  0  0  0  0  0  0  0  1  0  0
  -33.1487  -25.3913   12.8731 F   0  0  0  0  0  0  0  0  0  0  0  0
  -34.1994  -27.0701   17.1723 F   0  0  0  0  0  0  0  0  0  0  0  0
  1  2  1  0  0  0  0
  1  5  2  0  0  0  0
  2  6  2  0  0  0  0
  3  8  2  0  0  0  0
  3 15  1  0  0  0  0
  4  9  1  0  0  0  0
  4 15  2  0  0  0  0
  5 17  1  0  0  0  0
  6 19  1  0  0  0  0
  7 10  2  0  0  0  0
  7 18  1  0  0  0  0
  8 21  1  0  0  0  0
  9 21  2  0  0  0  0
 10 22  1  0  0  0  0
 11 12  2  0  0  0  0
 11 23  1  0  0  0  0
 12 24  1  0  0  0  0
 13 20  1  0  0  0  0
 13 22  2  0  0  0  0
 14 24  2  0  0  0  0
 14 25  1  0  0  0  0
 15 26  1  0  0  0  0
 16 26  1  0  0  0  0
 16 27  2  0  0  0  0
 16 28  1  0  0  0  0
 17 19  2  0  0  0  0
 17 33  1  0  0  0  0
 18 20  2  0  0  0  0
 18 34  1  0  0  0  0
 19 44  1  0  0  0  0
 20 35  1  0  0  0  0
 21 79  1  0  0  0  0
 22 80  1  0  0  0  0
 23 25  2  0  0  0  0
 23 79  1  0  0  0  0
 24 81  1  0  0  0  0
 25 82  1  0  0  0  0
 26 62  2  0  0  0  0
 27 63  1  0  0  0  0
 27 66  1  0  0  0  0
 28 67  1  0  0  0  0
 28 74  2  0  0  0  0
 29 45  1  0  0  0  0
 29 68  1  0  0  0  0
 29 75  2  0  0  0  0
 30 59  1  0  0  0  0
 30 64  1  0  0  0  0
 30 76  2  0  0  0  0
 31 60  1  0  0  0  0
 31 69  1  0  0  0  0
 31 77  2  0  0  0  0
 32 65  1  0  0  0  0
 32 70  1  0  0  0  0
 32 78  2  0  0  0  0
 33 36  1  0  0  0  0
 34 45  1  0  0  0  0
 35 64  1  0  0  0  0
 36 38  1  0  0  0  0
 37 39  1  0  0  0  0
 37 41  1  0  0  0  0
 38 44  1  0  0  0  0
 39 46  1  0  0  0  0
 40 43  1  0  0  0  0
 40 47  1  0  0  0  0
 41 65  1  0  0  0  0
 42 46  1  0  0  0  0
 42 65  1  0  0  0  0
 43 71  1  0  0  0  0
 44 68  1  0  0  0  0
 45 64  1  0  0  0  0
 46 63  1  0  0  0  0
 47 53  1  0  0  0  0
 47 71  1  0  0  0  0
 48 60  1  0  0  0  0
 49 61  1  0  0  0  0
 50 61  1  0  0  0  0
 51 61  1  0  0  0  0
 52 72  1  0  0  0  0
 53 56  1  0  0  0  0
 54 55  1  0  0  0  0
 54 70  1  0  0  0  0
 55 71  1  0  0  0  0
 56 73  1  0  0  0  0
 57 58  1  0  0  0  0
 57 73  1  0  0  0  0
 58 80  1  0  0  0  0
 59 61  1  0  0  0  0
 59 69  1  0  0  0  0
 60 72  1  0  0  0  0
 62 63  1  0  0  0  0
M  CHG  3  71   1  72   1  73   1
M  ISO  4  32 100  58 101  70 100  80 101
M  END
> <Batch ID>
0199

> <Smiles>
CNC(C)C(=O)NC(C(=O)N1Cc2cc([101O:1][101CH2:1]CNCCC3CCN3CC[100NH:0][100C:0](=O)N3CCCC(n4nc(-c5ccc(Oc6ccc(F)cc6F)cc5)c(C(N)=O)c4N)C3)ccc2CC1C(=O)NC1CCCc2ccccc21)C(C)(C)C

> <Shape>
0.192

> <Color>
0.065

> <Negative vol penalty>
0.000

$$$$

  -OEChem-04052323503D

 89 99  0     1  0  0  0  0  0999 V2000
  -24.2151  -28.5617   29.7271 C   0  0  0  0  0  0  0  0  0  0  0  0
  -25.1675  -29.0029   28.8140 C   0  0  0  0  0  0  0  0  0  0  0  0
  -26.2295  -12.2367   19.6688 C   0  0  0  0  0  0  0  0  0  0  0  0
  -25.2540  -14.1181   20.8288 C   0  0  0  0  0  0  0  0  0  0  0  0
  -23.2842  -27.5950   29.3494 C   0  0  0  0  0  0  0  0  0  0  0  0
  -25.1902  -28.4767   27.5229 C   0  0  0  0  0  0  0  0  0  0  0  0
  -26.6945  -30.3238   20.7670 C   0  0  0  0  0  0  0  0  0  0  0  0
  -25.5675  -11.3621   20.5303 C   0  0  0  0  0  0  0  0  0  0  0  0
  -24.5919  -13.2435   21.6904 C   0  0  0  0  0  0  0  0  0  0  0  0
  -27.4574  -29.9012   19.6793 C   0  0  0  0  0  0  0  0  0  0  0  0
  -23.8492   -8.6264   22.1971 C   0  0  0  0  0  0  0  0  0  0  0  0
  -23.2124   -7.5202   21.6347 C   0  0  0  0  0  0  0  0  0  0  0  0
  -25.7501  -28.2934   19.1143 C   0  0  0  0  0  0  0  0  0  0  0  0
  -21.8141   -8.9914   20.3243 C   0  0  0  0  0  0  0  0  0  0  0  0
  -31.4812  -23.4422   18.7785 C   0  0  0  0  0  0  0  0  0  0  0  0
  -26.0728  -13.6147   19.8180 C   0  0  0  0  0  0  0  0  0  0  0  0
  -26.2833  -15.0281   17.7048 C   0  0  0  0  0  0  0  0  0  0  0  0
  -23.2893  -27.0637   28.0501 C   0  0  0  0  0  0  0  0  0  0  0  0
  -25.4566  -29.7259   21.0434 C   0  0  0  0  0  0  0  0  0  0  0  0
  -24.2592  -27.5009   27.1278 C   0  0  0  0  0  0  0  0  0  0  0  0
  -24.9722  -28.7120   20.2046 C   0  0  0  0  0  0  0  0  0  0  0  0
  -24.7486  -11.8655   21.5411 C   0  0  0  0  0  0  0  0  0  0  0  0
  -26.9865  -28.8838   18.8544 C   0  0  0  0  0  0  0  0  0  0  0  0
  -23.4685   -9.9151   21.8232 C   0  0  0  0  0  0  0  0  0  0  0  0
  -22.1948   -7.7027   20.6983 C   0  0  0  0  0  0  0  0  0  0  0  0
  -22.4509  -10.0976   20.8868 C   0  0  0  0  0  0  0  0  0  0  0  0
  -26.7570  -14.5187   18.9287 C   0  0  0  0  0  0  0  0  0  0  0  0
  -29.3264  -22.1784   19.7204 C   0  0  0  0  0  0  0  0  0  0  0  0
  -30.2174  -23.7663   18.3366 C   0  0  0  0  0  0  0  0  0  0  0  0
  -30.5904  -21.8539   20.1616 C   0  0  0  0  0  0  0  0  0  0  0  0
  -27.2988  -15.8346   17.2525 C   0  0  0  0  0  0  0  0  0  0  0  0
  -25.0367  -14.7932   17.0365 C   0  0  0  0  0  0  0  0  0  0  0  0
  -24.2601  -28.0668   23.4764 C   0  0  0  0  0  0  0  0  0  0  0  0
  -21.5089  -28.2975   21.7736 C   0  0  0  0  0  0  0  0  0  0  0  0
  -20.0070  -28.7361   18.7407 C   0  0  0  0  0  0  0  0  0  0  0  0
  -31.7077  -18.7841   20.0298 C   0  0  0  0  0  0  0  0  0  0  0  0
  -22.2929  -25.9862   27.7024 C   0  0  0  0  0  0  0  0  0  0  0  0
  -24.6336  -30.2115   22.2050 C   0  0  0  0  0  0  0  0  0  0  0  0
  -23.6404  -28.0516   20.4463 C   0  0  0  0  0  0  0  0  0  0  0  0
  -22.1481  -25.7520   26.2009 C   0  0  0  0  0  0  0  0  0  0  0  0
  -32.0516  -16.3434   17.4605 C   0  0  0  0  0  0  0  0  0  0  0  0
  -23.5199  -25.6633   25.5397 C   0  0  0  0  0  0  0  0  0  0  0  0
  -30.6909  -15.6449   17.4350 C   0  0  0  0  0  0  0  0  0  0  0  0
  -27.3398  -20.4747   19.2887 C   0  0  0  0  0  0  0  0  0  0  0  0
  -32.4641  -16.7240   18.8807 C   0  0  0  0  0  0  0  0  0  0  0  0
  -30.1079  -16.8221   19.5968 C   0  0  0  0  0  0  0  0  0  0  0  0
  -26.0365  -21.2036   19.6510 C   0  0  0  0  0  0  0  0  0  0  0  0
  -29.7582  -27.2437   16.9091 C   0  0  0  0  0  0  0  0  0  0  0  0
  -29.0817  -26.5721   18.7676 C   0  0  0  0  0  0  0  0  0  0  0  0
  -24.3003  -26.9722   25.7105 C   0  0  1  0  0  0  0  0  0  0  0  0
  -28.0307  -21.5086   20.2013 C   0  0  2  0  0  0  0  0  0  0  0  0
  -23.6221  -29.1793   22.6936 C   0  0  1  0  0  0  0  0  0  0  0  0
  -29.6236  -16.4690   18.1801 C   0  0  2  0  0  0  0  0  0  0  0  0
  -29.0371  -27.9450   18.0740 C   0  0  0  0  0  0  0  0  0  1  0  0
  -25.0517  -23.6871   20.9874 C   0  0  0  0  0  0  0  0  0  0  0  0
  -17.7448  -28.8387   17.6591 C   0  0  0  0  0  0  0  0  0  0  0  0
  -21.2809  -25.2610   21.9681 C   0  0  0  0  0  0  0  0  0  0  0  0
  -19.5937  -25.3390   20.1200 C   0  0  0  0  0  0  0  0  0  0  0  0
  -19.1263  -26.4912   22.2826 C   0  0  0  0  0  0  0  0  0  0  0  0
  -20.4436  -31.5156   17.8227 C   0  0  0  0  0  0  0  0  0  0  0  0
  -30.7986  -20.7866   21.1799 C   0  0  0  0  0  0  0  0  0  0  0  0
  -30.0225  -24.8447   17.3118 C   0  0  0  0  0  0  0  0  0  0  0  0
  -26.4001  -23.0428   21.2240 C   0  0  0  0  0  0  0  0  0  0  0  0
  -20.8415  -27.4684   20.7030 C   0  0  1  0  0  0  0  0  0  0  0  0
  -18.8675  -29.6382   18.3020 C   0  0  2  0  0  0  0  0  0  0  0  0
  -20.2366  -26.1508   21.2647 C   0  0  0  0  0  0  0  0  0  0  0  0
  -31.6904  -22.4802   19.6989 N   0  0  0  0  0  0  0  0  0  0  0  0
  -27.9785  -14.9642   19.2345 N   0  0  0  0  0  0  0  0  0  0  0  0
  -29.1173  -23.1402   18.7997 N   0  0  0  0  0  0  0  0  0  0  0  0
  -28.2810  -15.7619   18.1961 N   0  0  0  0  0  0  0  0  0  0  0  0
  -22.8755  -28.5570   21.5983 N   0  0  0  0  0  0  0  0  0  0  0  0
  -31.4094  -17.5053   19.5312 N   0  0  0  0  0  0  0  0  0  0  0  0
  -27.4387  -16.5918   16.1436 N   0  0  0  0  0  0  0  0  0  0  0  0
  -24.1058  -13.9371   17.6405 N   0  0  0  0  0  0  0  0  0  0  0  0
  -23.8185  -27.9727   24.7824 N   0  0  0  0  0  0  0  0  0  0  0  0
  -19.8702  -28.3433   20.0553 N   0  0  0  0  0  0  0  0  0  0  0  0
  -30.6496  -19.4594   20.6256 N   0  0  0  0  0  0  0  0  0  0  0  0
  -30.1889  -26.2066   17.8647 N   0  3  0  0  0  0  0  0  0  0  0  0
  -26.8544  -22.3899   19.9752 N   0  3  2  0  0  0  0  0  0  0  0  0
  -19.3533  -30.6436   17.3150 N   0  3  0  0  0  0  0  0  0  0  0  0
  -24.7634  -15.3138   15.9284 O   0  0  0  0  0  0  0  0  0  0  0  0
  -25.0905  -27.3462   22.9352 O   0  0  0  0  0  0  0  0  0  0  0  0
  -20.8406  -28.7060   22.7265 O   0  0  0  0  0  0  0  0  0  0  0  0
  -20.9244  -28.4095   17.9910 O   0  0  0  0  0  0  0  0  0  0  0  0
  -32.8324  -19.2890   19.9451 O   0  0  0  0  0  0  0  0  0  0  0  0
  -24.1022  -11.0124   22.3819 O   0  0  0  0  0  0  0  0  0  0  0  0
  -27.7295  -28.4690   17.7924 O   0  0  0  0  0  0  0  0  0  1  0  0
  -21.5844   -6.6403   20.1571 F   0  0  0  0  0  0  0  0  0  0  0  0
  -22.0816  -11.3333   20.5227 F   0  0  0  0  0  0  0  0  0  0  0  0
  1  2  1  0  0  0  0
  1  5  2  0  0  0  0
  2  6  2  0  0  0  0
  3  8  2  0  0  0  0
  3 16  1  0  0  0  0
  4  9  1  0  0  0  0
  4 16  2  0  0  0  0
  5 18  1  0  0  0  0
  6 20  1  0  0  0  0
  7 10  2  0  0  0  0
  7 19  1  0  0  0  0
  8 22  1  0  0  0  0
  9 22  2  0  0  0  0
 10 23  1  0  0  0  0
 11 12  2  0  0  0  0
 11 24  1  0  0  0  0
 12 25  1  0  0  0  0
 13 21  1  0  0  0  0
 13 23  2  0  0  0  0
 14 25  2  0  0  0  0
 14 26  1  0  0  0  0
 15 29  1  0  0  0  0
 15 67  2  0  0  0  0
 16 27  1  0  0  0  0
 17 27  1  0  0  0  0
 17 31  2  0  0  0  0
 17 32  1  0  0  0  0
 18 20  2  0  0  0  0
 18 37  1  0  0  0  0
 19 21  2  0  0  0  0
 19 38  1  0  0  0  0
 20 50  1  0  0  0  0
 21 39  1  0  0  0  0
 22 86  1  0  0  0  0
 23 87  1  0  0  0  0
 24 26  2  0  0  0  0
 24 86  1  0  0  0  0
 25 88  1  0  0  0  0
 26 89  1  0  0  0  0
 27 68  2  0  0  0  0
 28 30  2  0  0  0  0
 28 51  1  0  0  0  0
 28 69  1  0  0  0  0
 29 62  1  0  0  0  0
 29 69  2  0  0  0  0
 30 61  1  0  0  0  0
 30 67  1  0  0  0  0
 31 70  1  0  0  0  0
 31 73  1  0  0  0  0
 32 74  1  0  0  0  0
 32 81  2  0  0  0  0
 33 52  1  0  0  0  0
 33 75  1  0  0  0  0
 33 82  2  0  0  0  0
 34 64  1  0  0  0  0
 34 71  1  0  0  0  0
 34 83  2  0  0  0  0
 35 65  1  0  0  0  0
 35 76  1  0  0  0  0
 35 84  2  0  0  0  0
 36 72  1  0  0  0  0
 36 77  1  0  0  0  0
 36 85  2  0  0  0  0
 37 40  1  0  0  0  0
 38 52  1  0  0  0  0
 39 71  1  0  0  0  0
 40 42  1  0  0  0  0
 41 43  1  0  0  0  0
 41 45  1  0  0  0  0
 42 50  1  0  0  0  0
 43 53  1  0  0  0  0
 44 47  1  0  0  0  0
 44 51  1  0  0  0  0
 45 72  1  0  0  0  0
 46 53  1  0  0  0  0
 46 72  1  0  0  0  0
 47 79  1  0  0  0  0
 48 54  1  0  0  0  0
 48 78  1  0  0  0  0
 49 54  1  0  0  0  0
 49 78  1  0  0  0  0
 50 75  1  0  0  0  0
 51 79  1  0  0  0  0
 52 71  1  0  0  0  0
 53 70  1  0  0  0  0
 54 87  1  0  0  0  0
 55 63  1  0  0  0  0
 56 65  1  0  0  0  0
 57 66  1  0  0  0  0
 58 66  1  0  0  0  0
 59 66  1  0  0  0  0
 60 80  1  0  0  0  0
 61 77  1  0  0  0  0
 62 78  1  0  0  0  0
 63 79  1  0  0  0  0
 64 66  1  0  0  0  0
 64 76  1  0  0  0  0
 65 80  1  0  0  0  0
 68 70  1  0  0  0  0
M  CHG  3  78   1  79   1  80   1
M  ISO  4  36 100  54 101  77 100  87 101
M  END
> <Batch ID>
0199

> <Smiles>
CCN1CCC1c1nc(CN2C[101CH:1]([101O:1]c3ccc4c(c3)CN(C(=O)C(NC(=O)C(C)NC)C(C)(C)C)C(C(=O)NC3CCCc5ccccc53)C4)C2)cnc1C[100NH:0][100C:0](=O)N1CCCC(n2nc(-c3ccc(Oc4ccc(F)cc4F)cc3)c(C(N)=O)c2N)C1

> <Shape>
0.229

> <Color>
0.055

> <Negative vol penalty>
0.000

$$$$

  -OEChem-04052323503D

 87 97  0     1  0  0  0  0  0999 V2000
  -28.9530  -25.2012   16.6729 C   0  0  0  0  0  0  0  0  0  0  0  0
  -27.8271  -25.1787   17.4898 C   0  0  0  0  0  0  0  0  0  0  0  0
  -24.9576  -13.1370   21.6474 C   0  0  0  0  0  0  0  0  0  0  0  0
  -26.5079  -12.0673   20.1343 C   0  0  0  0  0  0  0  0  0  0  0  0
  -30.0611  -25.9655   17.0361 C   0  0  0  0  0  0  0  0  0  0  0  0
  -27.8092  -25.9196   18.6710 C   0  0  0  0  0  0  0  0  0  0  0  0
  -23.4679  -28.4465   19.3134 C   0  0  0  0  0  0  0  0  0  0  0  0
  -23.8878  -12.6112   20.9231 C   0  0  0  0  0  0  0  0  0  0  0  0
  -25.4381  -11.5415   19.4100 C   0  0  0  0  0  0  0  0  0  0  0  0
  -22.3674  -27.7177   19.7623 C   0  0  0  0  0  0  0  0  0  0  0  0
  -20.7510  -11.2543   19.6844 C   0  0  0  0  0  0  0  0  0  0  0  0
  -19.6980  -10.6875   20.4023 C   0  0  0  0  0  0  0  0  0  0  0  0
  -22.7453  -28.5366   21.9996 C   0  0  0  0  0  0  0  0  0  0  0  0
  -21.2225   -9.0835   21.3720 C   0  0  0  0  0  0  0  0  0  0  0  0
  -26.2677  -12.8650   21.2530 C   0  0  0  0  0  0  0  0  0  0  0  0
  -28.0325  -12.8162   23.0944 C   0  0  0  0  0  0  0  0  0  0  0  0
  -30.0531  -26.7237   18.2175 C   0  0  0  0  0  0  0  0  0  0  0  0
  -24.2232  -29.2185   20.2078 C   0  0  0  0  0  0  0  0  0  0  0  0
  -28.9187  -26.6936   19.0510 C   0  0  0  0  0  0  0  0  0  0  0  0
  -23.8534  -29.2763   21.5591 C   0  0  0  0  0  0  0  0  0  0  0  0
  -24.1280  -11.8135   19.8044 C   0  0  0  0  0  0  0  0  0  0  0  0
  -22.0076  -27.7604   21.1061 C   0  0  0  0  0  0  0  0  0  0  0  0
  -22.0398  -10.7357   19.8102 C   0  0  0  0  0  0  0  0  0  0  0  0
  -19.9337   -9.6021   21.2461 C   0  0  0  0  0  0  0  0  0  0  0  0
  -22.2755   -9.6503   20.6540 C   0  0  0  0  0  0  0  0  0  0  0  0
  -27.3732  -13.4083   22.0005 C   0  0  0  0  0  0  0  0  0  0  0  0
  -29.0017  -13.7245   23.4438 C   0  0  0  0  0  0  0  0  0  0  0  0
  -22.6169  -23.8787   22.8721 C   0  0  0  0  0  0  0  0  0  0  0  0
  -24.4621  -23.0711   23.6798 C   0  0  0  0  0  0  0  0  0  0  0  0
  -27.7906  -11.5576   23.7370 C   0  0  0  0  0  0  0  0  0  0  0  0
  -27.2432  -29.1901   21.1988 C   0  0  0  0  0  0  0  0  0  0  0  0
  -26.3639  -31.9216   22.7114 C   0  0  0  0  0  0  0  0  0  0  0  0
  -23.8577  -33.8219   24.0360 C   0  0  0  0  0  0  0  0  0  0  0  0
  -29.4761  -19.6409   22.6559 C   0  0  0  0  0  0  0  0  0  0  0  0
  -31.2925  -27.4971   18.5921 C   0  0  0  0  0  0  0  0  0  0  0  0
  -25.3915  -30.0201   19.7028 C   0  0  0  0  0  0  0  0  0  0  0  0
  -24.6192  -30.1059   22.5560 C   0  0  0  0  0  0  0  0  0  0  0  0
  -31.0508  -28.5496   19.6711 C   0  0  0  0  0  0  0  0  0  0  0  0
  -31.7702  -17.1528   21.6281 C   0  0  0  0  0  0  0  0  0  0  0  0
  -30.2311  -27.9622   20.8157 C   0  0  0  0  0  0  0  0  0  0  0  0
  -30.9641  -15.8577   21.6698 C   0  0  0  0  0  0  0  0  0  0  0  0
  -26.1198  -21.0315   22.1214 C   0  0  0  0  0  0  0  0  0  0  0  0
  -20.2243  -24.9220   22.6325 C   0  0  0  0  0  0  0  0  0  0  0  0
  -30.9078  -18.3112   21.1454 C   0  0  0  0  0  0  0  0  0  0  0  0
  -27.0172  -19.8129   21.9479 C   0  0  0  0  0  0  0  0  0  0  0  0
  -27.8551  -21.1623   23.7473 C   0  0  0  0  0  0  0  0  0  0  0  0
  -28.8638  -17.2457   22.0613 C   0  0  0  0  0  0  0  0  0  0  0  0
  -28.8517  -27.5035   20.3276 C   0  0  1  0  0  0  0  0  0  0  0  0
  -21.6055  -24.6877   22.0567 C   0  0  1  0  0  0  0  0  0  0  0  0
  -26.3971  -30.3649   20.7969 C   0  0  1  0  0  0  0  0  0  0  0  0
  -26.3593  -21.4144   23.5823 C   0  0  1  0  0  0  0  0  0  0  0  0
  -29.6995  -16.0348   22.5245 C   0  0  1  0  0  0  0  0  0  0  0  0
  -21.1960  -26.0598   22.5570 C   0  0  1  0  0  0  0  0  0  1  0  0
  -25.3001  -26.0287   22.6239 C   0  0  0  0  0  0  0  0  0  0  0  0
  -26.3625  -23.2332   25.3278 C   0  0  0  0  0  0  0  0  0  0  0  0
  -23.4523  -35.9874   25.2376 C   0  0  0  0  0  0  0  0  0  0  0  0
  -27.4204  -30.6844   25.2926 C   0  0  0  0  0  0  0  0  0  0  0  0
  -26.1559  -32.4307   26.5652 C   0  0  0  0  0  0  0  0  0  0  0  0
  -27.9723  -33.1052   24.9941 C   0  0  0  0  0  0  0  0  0  0  0  0
  -22.1448  -34.8474   21.8513 C   0  0  0  0  0  0  0  0  0  0  0  0
  -24.7271  -24.8242   21.8971 C   0  0  0  0  0  0  0  0  0  0  0  0
  -25.9501  -22.8409   23.9020 C   0  0  2  0  0  0  0  0  0  0  0  0
  -25.7808  -32.2549   24.0633 C   0  0  1  0  0  0  0  0  0  0  0  0
  -23.5234  -35.2950   23.8854 C   0  0  2  0  0  0  0  0  0  0  0  0
  -26.8188  -32.1015   25.2106 C   0  0  0  0  0  0  0  0  0  0  0  0
  -27.8805  -14.6007   21.6766 N   0  0  0  0  0  0  0  0  0  0  0  0
  -22.2929  -22.9864   23.7806 N   0  0  0  0  0  0  0  0  0  0  0  0
  -23.4669  -22.4726   24.2944 N   0  0  0  0  0  0  0  0  0  0  0  0
  -28.8689  -14.7652   22.5722 N   0  0  0  0  0  0  0  0  0  0  0  0
  -23.9727  -23.9644   22.7757 N   0  0  0  0  0  0  0  0  0  0  0  0
  -25.7574  -30.8668   22.0148 N   0  0  0  0  0  0  0  0  0  0  0  0
  -29.6901  -18.4544   21.9458 N   0  0  0  0  0  0  0  0  0  0  0  0
  -28.1610  -20.0724   22.8247 N   0  0  0  0  0  0  0  0  0  0  0  0
  -29.9460  -13.7267   24.4086 N   0  0  0  0  0  0  0  0  0  0  0  0
  -26.7557  -10.7471   23.2508 N   0  0  0  0  0  0  0  0  0  0  0  0
  -27.9709  -28.6397   20.1610 N   0  0  0  0  0  0  0  0  0  0  0  0
  -25.2146  -33.5942   23.9448 N   0  0  0  0  0  0  0  0  0  0  0  0
  -22.2091  -35.4607   23.2029 N   0  3  0  0  0  0  0  0  0  0  0  0
  -28.4614  -11.1706   24.7239 O   0  0  0  0  0  0  0  0  0  0  0  0
  -27.2375  -28.8120   22.3644 O   0  0  0  0  0  0  0  0  0  0  0  0
  -27.3178  -32.5779   22.2858 O   0  0  0  0  0  0  0  0  0  0  0  0
  -23.0012  -32.9599   24.2202 O   0  0  0  0  0  0  0  0  0  0  0  0
  -30.4238  -20.3121   23.0865 O   0  0  0  0  0  0  0  0  0  0  0  0
  -23.0844  -11.3001   19.0974 O   0  0  0  0  0  0  0  0  0  0  0  0
  -20.9320  -27.0479   21.5480 O   0  0  0  0  0  0  0  0  0  1  0  0
  -18.9226   -9.0588   21.9366 F   0  0  0  0  0  0  0  0  0  0  0  0
  -23.5117   -9.1485   20.7800 F   0  0  0  0  0  0  0  0  0  0  0  0
  1  2  1  0  0  0  0
  1  5  2  0  0  0  0
  2  6  2  0  0  0  0
  3  8  2  0  0  0  0
  3 15  1  0  0  0  0
  4  9  1  0  0  0  0
  4 15  2  0  0  0  0
  5 17  1  0  0  0  0
  6 19  1  0  0  0  0
  7 10  2  0  0  0  0
  7 18  1  0  0  0  0
  8 21  1  0  0  0  0
  9 21  2  0  0  0  0
 10 22  1  0  0  0  0
 11 12  2  0  0  0  0
 11 23  1  0  0  0  0
 12 24  1  0  0  0  0
 13 20  1  0  0  0  0
 13 22  2  0  0  0  0
 14 24  2  0  0  0  0
 14 25  1  0  0  0  0
 15 26  1  0  0  0  0
 16 26  1  0  0  0  0
 16 27  2  0  0  0  0
 16 30  1  0  0  0  0
 17 19  2  0  0  0  0
 17 35  1  0  0  0  0
 18 20  2  0  0  0  0
 18 36  1  0  0  0  0
 19 48  1  0  0  0  0
 20 37  1  0  0  0  0
 21 84  1  0  0  0  0
 22 85  1  0  0  0  0
 23 25  2  0  0  0  0
 23 84  1  0  0  0  0
 24 86  1  0  0  0  0
 25 87  1  0  0  0  0
 26 66  2  0  0  0  0
 27 69  1  0  0  0  0
 27 74  1  0  0  0  0
 28 49  1  0  0  0  0
 28 67  2  0  0  0  0
 28 70  1  0  0  0  0
 29 62  1  0  0  0  0
 29 68  2  0  0  0  0
 29 70  1  0  0  0  0
 30 75  1  0  0  0  0
 30 79  2  0  0  0  0
 31 50  1  0  0  0  0
 31 76  1  0  0  0  0
 31 80  2  0  0  0  0
 32 63  1  0  0  0  0
 32 71  1  0  0  0  0
 32 81  2  0  0  0  0
 33 64  1  0  0  0  0
 33 77  1  0  0  0  0
 33 82  2  0  0  0  0
 34 72  1  0  0  0  0
 34 73  1  0  0  0  0
 34 83  2  0  0  0  0
 35 38  1  0  0  0  0
 36 50  1  0  0  0  0
 37 71  1  0  0  0  0
 38 40  1  0  0  0  0
 39 41  1  0  0  0  0
 39 44  1  0  0  0  0
 40 48  1  0  0  0  0
 41 52  1  0  0  0  0
 42 45  1  0  0  0  0
 42 51  1  0  0  0  0
 43 49  1  0  0  0  0
 43 53  1  0  0  0  0
 44 72  1  0  0  0  0
 45 73  1  0  0  0  0
 46 51  1  0  0  0  0
 46 73  1  0  0  0  0
 47 52  1  0  0  0  0
 47 72  1  0  0  0  0
 48 76  1  0  0  0  0
 49 53  1  0  0  0  0
 50 71  1  0  0  0  0
 51 62  1  0  0  0  0
 52 69  1  0  0  0  0
 53 85  1  0  0  0  0
 54 61  1  0  0  0  0
 55 62  1  0  0  0  0
 56 64  1  0  0  0  0
 57 65  1  0  0  0  0
 58 65  1  0  0  0  0
 59 65  1  0  0  0  0
 60 78  1  0  0  0  0
 61 70  1  0  0  0  0
 63 65  1  0  0  0  0
 63 77  1  0  0  0  0
 64 78  1  0  0  0  0
 66 69  1  0  0  0  0
 67 68  1  0  0  0  0
M  CHG  1  78   1
M  ISO  4  34 100  53 101  73 100  85 101
M  END
> <Batch ID>
0199

> <Smiles>
CCn1c(C(C)C2CC[100N:0]([100C:0](=O)N3CCCC(n4nc(-c5ccc(Oc6ccc(F)cc6F)cc5)c(C(N)=O)c4N)C3)C2)nnc1C1C[101CH:1]1[101O:1]c1ccc2c(c1)CN(C(=O)C(NC(=O)C(C)NC)C(C)(C)C)C(C(=O)NC1CCCc3ccccc31)C2

> <Shape>
0.265

> <Color>
0.062

> <Negative vol penalty>
0.000

$$$$

  -OEChem-04052323503D

 85 94  0     1  0  0  0  0  0999 V2000
  -19.4686  -26.1925   25.2035 C   0  0  0  0  0  0  0  0  0  0  0  0
  -20.4770  -25.8926   24.2932 C   0  0  0  0  0  0  0  0  0  0  0  0
  -24.6684   -9.2076   22.0894 C   0  0  0  0  0  0  0  0  0  0  0  0
  -23.8199   -9.4489   19.8402 C   0  0  0  0  0  0  0  0  0  0  0  0
  -18.7046  -27.3473   25.0404 C   0  0  0  0  0  0  0  0  0  0  0  0
  -20.7213  -26.7470   23.2186 C   0  0  0  0  0  0  0  0  0  0  0  0
  -25.6594  -27.6234   22.5170 C   0  0  0  0  0  0  0  0  0  0  0  0
  -23.4729   -8.6016   22.4754 C   0  0  0  0  0  0  0  0  0  0  0  0
  -22.6243   -8.8429   20.2262 C   0  0  0  0  0  0  0  0  0  0  0  0
  -26.3992  -26.6262   21.8830 C   0  0  0  0  0  0  0  0  0  0  0  0
  -22.0254   -5.5571   22.2136 C   0  0  0  0  0  0  0  0  0  0  0  0
  -22.1056   -4.4053   22.9963 C   0  0  0  0  0  0  0  0  0  0  0  0
  -26.2649  -27.8526   19.8101 C   0  0  0  0  0  0  0  0  0  0  0  0
  -20.8623   -5.5096   24.7489 C   0  0  0  0  0  0  0  0  0  0  0  0
  -24.8419   -9.6313   20.7718 C   0  0  0  0  0  0  0  0  0  0  0  0
  -27.2281   -9.6233   19.8698 C   0  0  0  0  0  0  0  0  0  0  0  0
  -18.9460  -28.2212   23.9686 C   0  0  0  0  0  0  0  0  0  0  0  0
  -25.2066  -28.7393   21.7985 C   0  0  0  0  0  0  0  0  0  0  0  0
  -19.9589  -27.9139   23.0402 C   0  0  0  0  0  0  0  0  0  0  0  0
  -25.5216  -28.8639   20.4378 C   0  0  0  0  0  0  0  0  0  0  0  0
  -22.4508   -8.4192   21.5438 C   0  0  0  0  0  0  0  0  0  0  0  0
  -26.6996  -26.7392   20.5287 C   0  0  0  0  0  0  0  0  0  0  0  0
  -21.3637   -6.6852   22.6986 C   0  0  0  0  0  0  0  0  0  0  0  0
  -21.5241   -4.3815   24.2639 C   0  0  0  0  0  0  0  0  0  0  0  0
  -20.7821   -6.6614   23.9663 C   0  0  0  0  0  0  0  0  0  0  0  0
  -26.0765  -10.2579   20.3726 C   0  0  0  0  0  0  0  0  0  0  0  0
  -28.6681  -23.7167   19.8069 C   0  0  0  0  0  0  0  0  0  0  0  0
  -29.8196  -24.1423   19.1958 C   0  0  0  0  0  0  0  0  0  0  0  0
  -28.1143  -10.6483   19.6446 C   0  0  0  0  0  0  0  0  0  0  0  0
  -28.9686  -21.6785   18.8823 C   0  0  0  0  0  0  0  0  0  0  0  0
  -27.4748   -8.2318   19.6280 C   0  0  0  0  0  0  0  0  0  0  0  0
  -22.3514  -29.9404   21.0852 C   0  0  0  0  0  0  0  0  0  0  0  0
  -24.1131  -32.3723   19.8585 C   0  0  0  0  0  0  0  0  0  0  0  0
  -27.0902  -33.4287   18.5671 C   0  0  0  0  0  0  0  0  0  0  0  0
  -27.5213  -16.2642   18.4046 C   0  0  0  0  0  0  0  0  0  0  0  0
  -18.0628  -29.4330   23.8070 C   0  0  0  0  0  0  0  0  0  0  0  0
  -24.4324  -29.8194   22.5031 C   0  0  0  0  0  0  0  0  0  0  0  0
  -25.0764  -30.0520   19.6263 C   0  0  0  0  0  0  0  0  0  0  0  0
  -18.6330  -30.4793   22.8528 C   0  0  0  0  0  0  0  0  0  0  0  0
  -29.2650  -15.0215   21.1893 C   0  0  0  0  0  0  0  0  0  0  0  0
  -19.1378  -29.8174   21.5746 C   0  0  0  0  0  0  0  0  0  0  0  0
  -28.7535  -13.5825   21.2506 C   0  0  0  0  0  0  0  0  0  0  0  0
  -28.1508  -16.0115   20.8460 C   0  0  0  0  0  0  0  0  0  0  0  0
  -29.3283  -19.4554   17.8543 C   0  0  0  0  0  0  0  0  0  0  0  0
  -27.7598  -19.7377   19.7795 C   0  0  0  0  0  0  0  0  0  0  0  0
  -28.4852  -18.2816   17.3632 C   0  0  0  0  0  0  0  0  0  0  0  0
  -26.9384  -18.5684   19.2478 C   0  0  0  0  0  0  0  0  0  0  0  0
  -26.8925  -14.2327   19.6753 C   0  0  0  0  0  0  0  0  0  0  0  0
  -20.2705  -28.8286   21.8756 C   0  0  1  0  0  0  0  0  0  0  0  0
  -23.5831  -30.6609   21.5556 C   0  0  1  0  0  0  0  0  0  0  0  0
  -28.0016  -13.2082   19.9610 C   0  0  2  0  0  0  0  0  0  0  0  0
  -28.2155  -35.4611   17.6182 C   0  0  0  0  0  0  0  0  0  0  0  0
  -22.5823  -31.9971   17.2459 C   0  0  0  0  0  0  0  0  0  0  0  0
  -24.3504  -33.3471   16.0971 C   0  0  0  0  0  0  0  0  0  0  0  0
  -22.9665  -34.3810   17.8968 C   0  0  0  0  0  0  0  0  0  0  0  0
  -29.1392  -33.4339   20.7026 C   0  0  0  0  0  0  0  0  0  0  0  0
  -31.4860  -25.7535   18.6641 C   0  0  0  0  0  0  0  0  0  0  0  0
  -27.8641  -24.6312   20.6652 C   0  0  0  0  0  0  0  0  0  1  0  0
  -24.7273  -32.6747   18.5131 C   0  0  1  0  0  0  0  0  0  0  0  0
  -27.9459  -34.6448   18.8727 C   0  0  2  0  0  0  0  0  0  0  0  0
  -23.6635  -33.0765   17.4528 C   0  0  0  0  0  0  0  0  0  0  0  0
  -26.2154  -11.5834   20.4618 N   0  0  0  0  0  0  0  0  0  0  0  0
  -28.2115  -22.4634   19.6632 N   0  0  0  0  0  0  0  0  0  0  0  0
  -30.5385  -23.3085   18.4226 N   0  0  0  0  0  0  0  0  0  0  0  0
  -30.1062  -22.0411   18.2575 N   0  0  0  0  0  0  0  0  0  0  0  0
  -27.4649  -11.7900   20.0121 N   0  0  0  0  0  0  0  0  0  0  0  0
  -28.5385  -20.3581   18.6989 N   0  0  0  0  0  0  0  0  0  0  0  0
  -24.3167  -31.0785   20.3590 N   0  0  0  0  0  0  0  0  0  0  0  0
  -27.4367  -15.5916   19.6328 N   0  0  0  0  0  0  0  0  0  0  0  0
  -27.7544  -17.6476   18.4538 N   0  0  0  0  0  0  0  0  0  0  0  0
  -29.3778  -10.6753   19.1701 N   0  0  0  0  0  0  0  0  0  0  0  0
  -26.4560   -7.3130   19.9145 N   0  0  0  0  0  0  0  0  0  0  0  0
  -21.5116  -29.5366   22.1056 N   0  0  0  0  0  0  0  0  0  0  0  0
  -25.7485  -33.6895   18.7493 N   0  0  0  0  0  0  0  0  0  0  0  0
  -29.2539  -34.2256   19.4508 N   0  3  0  0  0  0  0  0  0  0  0  0
  -28.5722   -7.8139   19.1867 O   0  0  0  0  0  0  0  0  0  0  0  0
  -22.1752  -29.7651   19.8852 O   0  0  0  0  0  0  0  0  0  0  0  0
  -23.4821  -33.2538   20.4471 O   0  0  0  0  0  0  0  0  0  0  0  0
  -27.5642  -32.3560   18.1996 O   0  0  0  0  0  0  0  0  0  0  0  0
  -27.3994  -15.6667   17.3281 O   0  0  0  0  0  0  0  0  0  0  0  0
  -21.2842   -7.8277   21.9201 O   0  0  0  0  0  0  0  0  0  0  0  0
  -27.4350  -25.7482   19.8954 O   0  0  0  0  0  0  0  0  0  1  0  0
  -30.2790  -25.4183   19.3440 O   0  0  0  0  0  0  0  0  0  0  0  0
  -21.5998   -3.2749   25.0147 F   0  0  0  0  0  0  0  0  0  0  0  0
  -20.1440   -7.7417   24.4371 F   0  0  0  0  0  0  0  0  0  0  0  0
  1  2  1  0  0  0  0
  1  5  2  0  0  0  0
  2  6  2  0  0  0  0
  3  8  2  0  0  0  0
  3 15  1  0  0  0  0
  4  9  1  0  0  0  0
  4 15  2  0  0  0  0
  5 17  1  0  0  0  0
  6 19  1  0  0  0  0
  7 10  2  0  0  0  0
  7 18  1  0  0  0  0
  8 21  1  0  0  0  0
  9 21  2  0  0  0  0
 10 22  1  0  0  0  0
 11 12  2  0  0  0  0
 11 23  1  0  0  0  0
 12 24  1  0  0  0  0
 13 20  1  0  0  0  0
 13 22  2  0  0  0  0
 14 24  2  0  0  0  0
 14 25  1  0  0  0  0
 15 26  1  0  0  0  0
 16 26  1  0  0  0  0
 16 29  2  0  0  0  0
 16 31  1  0  0  0  0
 17 19  2  0  0  0  0
 17 36  1  0  0  0  0
 18 20  2  0  0  0  0
 18 37  1  0  0  0  0
 19 49  1  0  0  0  0
 20 38  1  0  0  0  0
 21 81  1  0  0  0  0
 22 82  1  0  0  0  0
 23 25  2  0  0  0  0
 23 81  1  0  0  0  0
 24 84  1  0  0  0  0
 25 85  1  0  0  0  0
 26 62  2  0  0  0  0
 27 28  2  0  0  0  0
 27 58  1  0  0  0  0
 27 63  1  0  0  0  0
 28 64  1  0  0  0  0
 28 83  1  0  0  0  0
 29 66  1  0  0  0  0
 29 71  1  0  0  0  0
 30 63  2  0  0  0  0
 30 65  1  0  0  0  0
 30 67  1  0  0  0  0
 31 72  1  0  0  0  0
 31 76  2  0  0  0  0
 32 50  1  0  0  0  0
 32 73  1  0  0  0  0
 32 77  2  0  0  0  0
 33 59  1  0  0  0  0
 33 68  1  0  0  0  0
 33 78  2  0  0  0  0
 34 60  1  0  0  0  0
 34 74  1  0  0  0  0
 34 79  2  0  0  0  0
 35 69  1  0  0  0  0
 35 70  1  0  0  0  0
 35 80  2  0  0  0  0
 36 39  1  0  0  0  0
 37 50  1  0  0  0  0
 38 68  1  0  0  0  0
 39 41  1  0  0  0  0
 40 42  1  0  0  0  0
 40 43  1  0  0  0  0
 41 49  1  0  0  0  0
 42 51  1  0  0  0  0
 43 69  1  0  0  0  0
 44 46  1  0  0  0  0
 44 67  1  0  0  0  0
 45 47  1  0  0  0  0
 45 67  1  0  0  0  0
 46 70  1  0  0  0  0
 47 70  1  0  0  0  0
 48 51  1  0  0  0  0
 48 69  1  0  0  0  0
 49 73  1  0  0  0  0
 50 68  1  0  0  0  0
 51 66  1  0  0  0  0
 52 60  1  0  0  0  0
 53 61  1  0  0  0  0
 54 61  1  0  0  0  0
 55 61  1  0  0  0  0
 56 75  1  0  0  0  0
 57 83  1  0  0  0  0
 58 82  1  0  0  0  0
 59 61  1  0  0  0  0
 59 74  1  0  0  0  0
 60 75  1  0  0  0  0
 62 66  1  0  0  0  0
 64 65  2  0  0  0  0
M  CHG  1  75   1
M  ISO  4  35 100  58 101  70 100  82 101
M  END
> <Batch ID>
0199

> <Smiles>
CNC(C)C(=O)NC(C(=O)N1Cc2cc([101O:1][101CH2:1]c3nc(N4CC[100N:0]([100C:0](=O)N5CCCC(n6nc(-c7ccc(Oc8ccc(F)cc8F)cc7)c(C(N)=O)c6N)C5)CC4)nnc3OC)ccc2CC1C(=O)NC1CCCc2ccccc21)C(C)(C)C

> <Shape>
0.288

> <Color>
0.124

> <Negative vol penalty>
0.000

$$$$

  -OEChem-04052323503D

 92102  0     1  0  0  0  0  0999 V2000
  -32.1889  -27.5872   10.9904 C   0  0  0  0  0  0  0  0  0  0  0  0
  -32.3612  -26.4335   11.7484 C   0  0  0  0  0  0  0  0  0  0  0  0
  -23.2911   -9.7914   19.9086 C   0  0  0  0  0  0  0  0  0  0  0  0
  -23.7185   -9.9359   22.2820 C   0  0  0  0  0  0  0  0  0  0  0  0
  -32.3930  -28.8383   11.5709 C   0  0  0  0  0  0  0  0  0  0  0  0
  -32.7388  -26.5302   13.0872 C   0  0  0  0  0  0  0  0  0  0  0  0
  -31.0145  -22.8557   17.6732 C   0  0  0  0  0  0  0  0  0  0  0  0
  -22.5599   -8.6210   20.1115 C   0  0  0  0  0  0  0  0  0  0  0  0
  -22.9873   -8.7655   22.4850 C   0  0  0  0  0  0  0  0  0  0  0  0
  -31.6368  -21.7721   18.2915 C   0  0  0  0  0  0  0  0  0  0  0  0
  -19.7361   -7.8625   22.6718 C   0  0  0  0  0  0  0  0  0  0  0  0
  -18.8231   -7.8452   23.7261 C   0  0  0  0  0  0  0  0  0  0  0  0
  -32.4619  -23.2394   20.0193 C   0  0  0  0  0  0  0  0  0  0  0  0
  -20.0146   -5.9972   24.7274 C   0  0  0  0  0  0  0  0  0  0  0  0
  -23.8704  -10.4488   20.9938 C   0  0  0  0  0  0  0  0  0  0  0  0
  -24.1378  -12.9778   20.7926 C   0  0  0  0  0  0  0  0  0  0  0  0
  -32.7639  -28.9507   12.9201 C   0  0  0  0  0  0  0  0  0  0  0  0
  -31.1206  -24.1434   18.2184 C   0  0  0  0  0  0  0  0  0  0  0  0
  -32.9493  -27.7839   13.6860 C   0  0  0  0  0  0  0  0  0  0  0  0
  -31.8380  -24.3373   19.4074 C   0  0  0  0  0  0  0  0  0  0  0  0
  -35.4777  -17.9385   18.1179 C   0  0  0  0  0  0  0  0  0  0  0  0
  -22.4080   -8.1081   21.3997 C   0  0  0  0  0  0  0  0  0  0  0  0
  -32.3630  -21.9643   19.4632 C   0  0  0  0  0  0  0  0  0  0  0  0
  -20.7883   -6.9472   22.6451 C   0  0  0  0  0  0  0  0  0  0  0  0
  -18.9623   -6.9126   24.7540 C   0  0  0  0  0  0  0  0  0  0  0  0
  -20.9276   -6.0146   23.6730 C   0  0  0  0  0  0  0  0  0  0  0  0
  -24.6263  -11.6576   20.7848 C   0  0  0  0  0  0  0  0  0  0  0  0
  -35.7757  -16.6634   17.6821 C   0  0  0  0  0  0  0  0  0  0  0  0
  -36.2866  -18.4305   19.1218 C   0  0  0  0  0  0  0  0  0  0  0  0
  -25.2436  -13.7546   20.5470 C   0  0  0  0  0  0  0  0  0  0  0  0
  -37.4996  -16.5084   19.1556 C   0  0  0  0  0  0  0  0  0  0  0  0
  -33.9053  -15.3110   16.8528 C   0  0  0  0  0  0  0  0  0  0  0  0
  -35.0139  -16.0358   16.6463 C   0  0  0  0  0  0  0  0  0  0  0  0
  -22.8037  -13.4590   21.0031 C   0  0  0  0  0  0  0  0  0  0  0  0
  -32.3321  -26.9081   17.2223 C   0  0  0  0  0  0  0  0  0  0  0  0
  -31.0083  -28.0294   19.9632 C   0  0  0  0  0  0  0  0  0  0  0  0
  -29.8918  -27.3739   23.1208 C   0  0  0  0  0  0  0  0  0  0  0  0
  -29.7553  -14.4317   17.2510 C   0  0  0  0  0  0  0  0  0  0  0  0
  -33.0192  -30.3232   13.4909 C   0  0  0  0  0  0  0  0  0  0  0  0
  -30.4212  -25.2974   17.5538 C   0  0  0  0  0  0  0  0  0  0  0  0
  -31.9652  -25.6963   20.0442 C   0  0  0  0  0  0  0  0  0  0  0  0
  -33.1350  -14.6681   15.7298 C   0  0  0  0  0  0  0  0  0  0  0  0
  -33.3154  -15.1015   18.2229 C   0  0  0  0  0  0  0  0  0  0  0  0
  -33.0534  -30.3516   15.0168 C   0  0  0  0  0  0  0  0  0  0  0  0
  -30.1543  -12.5905   20.4866 C   0  0  0  0  0  0  0  0  0  0  0  0
  -33.9118  -29.2102   15.5528 C   0  0  0  0  0  0  0  0  0  0  0  0
  -28.7016  -12.2370   20.8004 C   0  0  0  0  0  0  0  0  0  0  0  0
  -36.5164  -20.1221   21.0636 C   0  0  0  0  0  0  0  0  0  0  0  0
  -31.6551  -15.0461   15.7954 C   0  0  0  0  0  0  0  0  0  0  0  0
  -31.8354  -15.4796   18.2288 C   0  0  0  0  0  0  0  0  0  0  0  0
  -30.3817  -12.7107   18.9845 C   0  0  0  0  0  0  0  0  0  0  0  0
  -28.0158  -13.3400   18.6223 C   0  0  0  0  0  0  0  0  0  0  0  0
  -33.3343  -27.8485   15.1481 C   0  0  1  0  0  0  0  0  0  0  0  0
  -36.0499  -19.8020   19.6661 C   0  0  2  0  0  0  0  0  0  0  0  0
  -31.0247  -26.6508   17.9165 C   0  0  1  0  0  0  0  0  0  0  0  0
  -35.0503  -19.9789   20.7825 C   0  0  2  0  0  0  0  0  0  0  0  0
  -27.7375  -13.2307   20.1305 C   0  0  1  0  0  0  0  0  0  0  0  0
  -28.8998  -28.4990   25.1326 C   0  0  0  0  0  0  0  0  0  0  0  0
  -33.7464  -29.1758   20.6691 C   0  0  0  0  0  0  0  0  0  0  0  0
  -32.9536  -29.4309   23.0302 C   0  0  0  0  0  0  0  0  0  0  0  0
  -31.8188  -30.6804   21.1934 C   0  0  0  0  0  0  0  0  0  0  0  0
  -33.6448  -20.6827   14.3220 C   0  0  0  0  0  0  0  0  0  0  0  0
  -27.4338  -25.7323   22.9711 C   0  0  0  0  0  0  0  0  0  0  0  0
  -34.3579  -18.7374   17.5471 C   0  0  0  0  0  0  0  0  0  0  0  0
  -34.1642  -21.1767   20.8016 C   0  0  0  0  0  0  0  0  0  1  0  0
  -34.6478  -19.3288   16.1658 C   0  0  0  0  0  0  0  0  0  0  0  0
  -31.4747  -28.1834   21.3907 C   0  0  1  0  0  0  0  0  0  0  0  0
  -28.6094  -27.7593   23.8360 C   0  0  2  0  0  0  0  0  0  0  0  0
  -32.4978  -29.3422   21.5581 C   0  0  0  0  0  0  0  0  0  0  0  0
  -25.9402  -11.5953   20.5525 N   0  0  0  0  0  0  0  0  0  0  0  0
  -36.7832  -15.9172   18.1806 N   0  0  0  0  0  0  0  0  0  0  0  0
  -37.3101  -17.7402   19.6660 N   0  0  0  0  0  0  0  0  0  0  0  0
  -26.2866  -12.8862   20.4120 N   0  0  0  0  0  0  0  0  0  0  0  0
  -31.2687  -26.7940   19.3533 N   0  0  0  0  0  0  0  0  0  0  0  0
  -31.0979  -14.8284   17.1337 N   0  0  0  0  0  0  0  0  0  0  0  0
  -29.4261  -13.6359   18.3612 N   0  0  0  0  0  0  0  0  0  0  0  0
  -25.4157  -15.0889   20.4355 N   0  0  0  0  0  0  0  0  0  0  0  0
  -38.5630  -15.7564   19.7013 N   0  0  0  0  0  0  0  0  0  0  0  0
  -21.7865  -12.5250   21.2424 N   0  0  0  0  0  0  0  0  0  0  0  0
  -32.2033  -27.5102   15.9852 N   0  0  0  0  0  0  0  0  0  0  0  0
  -30.2699  -28.3285   22.2004 N   0  0  0  0  0  0  0  0  0  0  0  0
  -33.4580  -20.0562   15.6590 N   0  3  0  0  0  0  0  0  0  0  0  0
  -27.8102  -26.5432   24.1576 N   0  3  0  0  0  0  0  0  0  0  0  0
  -22.5190  -14.6800   20.9634 O   0  0  0  0  0  0  0  0  0  0  0  0
  -33.3803  -26.5857   17.7691 O   0  0  0  0  0  0  0  0  0  0  0  0
  -30.4278  -28.9679   19.4120 O   0  0  0  0  0  0  0  0  0  0  0  0
  -30.4995  -26.3322   23.3578 O   0  0  0  0  0  0  0  0  0  0  0  0
  -28.9045  -14.7668   16.4176 O   0  0  0  0  0  0  0  0  0  0  0  0
  -21.6943   -6.9662   21.5981 O   0  0  0  0  0  0  0  0  0  0  0  0
  -32.9764  -20.9005   20.0728 O   0  0  0  0  0  0  0  0  0  1  0  0
  -18.0864   -6.8970   25.7673 F   0  0  0  0  0  0  0  0  0  0  0  0
  -21.9371   -5.1335   23.6535 F   0  0  0  0  0  0  0  0  0  0  0  0
  1  2  1  0  0  0  0
  1  5  2  0  0  0  0
  2  6  2  0  0  0  0
  3  8  2  0  0  0  0
  3 15  1  0  0  0  0
  4  9  1  0  0  0  0
  4 15  2  0  0  0  0
  5 17  1  0  0  0  0
  6 19  1  0  0  0  0
  7 10  2  0  0  0  0
  7 18  1  0  0  0  0
  8 22  1  0  0  0  0
  9 22  2  0  0  0  0
 10 23  1  0  0  0  0
 11 12  2  0  0  0  0
 11 24  1  0  0  0  0
 12 25  1  0  0  0  0
 13 20  1  0  0  0  0
 13 23  2  0  0  0  0
 14 25  2  0  0  0  0
 14 26  1  0  0  0  0
 15 27  1  0  0  0  0
 16 27  1  0  0  0  0
 16 30  2  0  0  0  0
 16 34  1  0  0  0  0
 17 19  2  0  0  0  0
 17 39  1  0  0  0  0
 18 20  2  0  0  0  0
 18 40  1  0  0  0  0
 19 53  1  0  0  0  0
 20 41  1  0  0  0  0
 21 28  1  0  0  0  0
 21 29  2  0  0  0  0
 21 64  1  0  0  0  0
 22 89  1  0  0  0  0
 23 90  1  0  0  0  0
 24 26  2  0  0  0  0
 24 89  1  0  0  0  0
 25 91  1  0  0  0  0
 26 92  1  0  0  0  0
 27 70  2  0  0  0  0
 28 33  1  0  0  0  0
 28 71  2  0  0  0  0
 29 54  1  0  0  0  0
 29 72  1  0  0  0  0
 30 73  1  0  0  0  0
 30 77  1  0  0  0  0
 31 71  1  0  0  0  0
 31 72  2  0  0  0  0
 31 78  1  0  0  0  0
 32 33  2  0  0  0  0
 32 42  1  0  0  0  0
 32 43  1  0  0  0  0
 34 79  1  0  0  0  0
 34 84  2  0  0  0  0
 35 55  1  0  0  0  0
 35 80  1  0  0  0  0
 35 85  2  0  0  0  0
 36 67  1  0  0  0  0
 36 74  1  0  0  0  0
 36 86  2  0  0  0  0
 37 68  1  0  0  0  0
 37 81  1  0  0  0  0
 37 87  2  0  0  0  0
 38 75  1  0  0  0  0
 38 76  1  0  0  0  0
 38 88  2  0  0  0  0
 39 44  1  0  0  0  0
 40 55  1  0  0  0  0
 41 74  1  0  0  0  0
 42 49  1  0  0  0  0
 43 50  1  0  0  0  0
 44 46  1  0  0  0  0
 45 47  1  0  0  0  0
 45 51  1  0  0  0  0
 46 53  1  0  0  0  0
 47 57  1  0  0  0  0
 48 54  1  0  0  0  0
 48 56  1  0  0  0  0
 49 75  1  0  0  0  0
 50 75  1  0  0  0  0
 51 76  1  0  0  0  0
 52 57  1  0  0  0  0
 52 76  1  0  0  0  0
 53 80  1  0  0  0  0
 54 56  1  0  0  0  0
 55 74  1  0  0  0  0
 56 65  1  0  0  0  0
 57 73  1  0  0  0  0
 58 68  1  0  0  0  0
 59 69  1  0  0  0  0
 60 69  1  0  0  0  0
 61 69  1  0  0  0  0
 62 82  1  0  0  0  0
 63 83  1  0  0  0  0
 64 66  1  0  0  0  0
 65 90  1  0  0  0  0
 66 82  1  0  0  0  0
 67 69  1  0  0  0  0
 67 81  1  0  0  0  0
 68 83  1  0  0  0  0
 70 73  1  0  0  0  0
M  CHG  2  82   1  83   1
M  ISO  4  38 100  65 101  75 100  90 101
M  END
> <Batch ID>
0199

> <Smiles>
CNCCc1c(C=C2CC[100N:0]([100C:0](=O)N3CCCC(n4nc(-c5ccc(Oc6ccc(F)cc6F)cc5)c(C(N)=O)c4N)C3)CC2)nc(N)nc1C1CC1[101CH2:1][101O:1]c1ccc2c(c1)CN(C(=O)C(NC(=O)C(C)NC)C(C)(C)C)C(C(=O)NC1CCCc3ccccc31)C2

> <Shape>
0.175

> <Color>
0.160

> <Negative vol penalty>
0.000

$$$$

  -OEChem-04052323503D

 86 95  0     1  0  0  0  0  0999 V2000
  -29.0413  -37.3885   23.8634 C   0  0  0  0  0  0  0  0  0  0  0  0
  -29.0533  -36.1607   23.2092 C   0  0  0  0  0  0  0  0  0  0  0  0
  -24.0977   -9.5711   22.2781 C   0  0  0  0  0  0  0  0  0  0  0  0
  -23.2751   -9.7693   20.0151 C   0  0  0  0  0  0  0  0  0  0  0  0
  -28.1974  -37.5871   24.9553 C   0  0  0  0  0  0  0  0  0  0  0  0
  -28.2221  -35.1304   23.6474 C   0  0  0  0  0  0  0  0  0  0  0  0
  -25.4540  -30.9072   20.1822 C   0  0  0  0  0  0  0  0  0  0  0  0
  -23.0944   -8.6446   22.5617 C   0  0  0  0  0  0  0  0  0  0  0  0
  -22.2718   -8.8427   20.2986 C   0  0  0  0  0  0  0  0  0  0  0  0
  -25.7776  -29.5861   19.8760 C   0  0  0  0  0  0  0  0  0  0  0  0
  -22.5079   -5.3607   22.0090 C   0  0  0  0  0  0  0  0  0  0  0  0
  -22.8682   -4.2087   22.7078 C   0  0  0  0  0  0  0  0  0  0  0  0
  -24.3229  -28.8264   21.6439 C   0  0  0  0  0  0  0  0  0  0  0  0
  -27.7553  -23.6321   18.1890 C   0  0  0  0  0  0  0  0  0  0  0  0
  -21.3321   -4.8009   24.4761 C   0  0  0  0  0  0  0  0  0  0  0  0
  -24.1880  -10.1336   21.0048 C   0  0  0  0  0  0  0  0  0  0  0  0
  -26.5149  -10.8229   20.2184 C   0  0  0  0  0  0  0  0  0  0  0  0
  -27.3485  -36.5618   25.4011 C   0  0  0  0  0  0  0  0  0  0  0  0
  -24.5693  -31.1987   21.2304 C   0  0  0  0  0  0  0  0  0  0  0  0
  -27.3671  -35.3150   24.7472 C   0  0  0  0  0  0  0  0  0  0  0  0
  -23.9877  -30.1519   21.9597 C   0  0  0  0  0  0  0  0  0  0  0  0
  -27.6564  -25.0067   18.3133 C   0  0  0  0  0  0  0  0  0  0  0  0
  -22.1815   -8.2803   21.5719 C   0  0  0  0  0  0  0  0  0  0  0  0
  -25.2143  -28.5456   20.6087 C   0  0  0  0  0  0  0  0  0  0  0  0
  -21.5597   -6.2330   22.5437 C   0  0  0  0  0  0  0  0  0  0  0  0
  -22.2803   -3.9287   23.9414 C   0  0  0  0  0  0  0  0  0  0  0  0
  -20.9718   -5.9530   23.7772 C   0  0  0  0  0  0  0  0  0  0  0  0
  -25.2238  -11.0912   20.7114 C   0  0  0  0  0  0  0  0  0  0  0  0
  -26.6142  -25.5144   19.0627 C   0  0  0  0  0  0  0  0  0  0  0  0
  -26.8055  -22.8561   18.8226 C   0  0  0  0  0  0  0  0  0  0  0  0
  -27.1051  -12.0584   20.1112 C   0  0  0  0  0  0  0  0  0  0  0  0
  -27.1258   -9.5688   19.8870 C   0  0  0  0  0  0  0  0  0  0  0  0
  -24.7915  -32.7794   23.9791 C   0  0  0  0  0  0  0  0  0  0  0  0
  -21.5973  -32.2282   24.1053 C   0  0  0  0  0  0  0  0  0  0  0  0
  -18.9461  -30.3168   23.1232 C   0  0  0  0  0  0  0  0  0  0  0  0
  -27.1238  -17.2416   18.7049 C   0  0  0  0  0  0  0  0  0  0  0  0
  -26.4882  -36.8081   26.6151 C   0  0  0  0  0  0  0  0  0  0  0  0
  -24.2098  -32.6280   21.5307 C   0  0  0  0  0  0  0  0  0  0  0  0
  -23.0166  -30.4108   23.0815 C   0  0  0  0  0  0  0  0  0  0  0  0
  -25.3659  -35.7872   26.7836 C   0  0  0  0  0  0  0  0  0  0  0  0
  -25.6369  -16.5800   21.8179 C   0  0  0  0  0  0  0  0  0  0  0  0
  -25.8991  -34.3711   26.5910 C   0  0  0  0  0  0  0  0  0  0  0  0
  -25.4970  -15.0588   21.7705 C   0  0  0  0  0  0  0  0  0  0  0  0
  -25.3079  -17.2279   20.4720 C   0  0  0  0  0  0  0  0  0  0  0  0
  -28.1134  -20.7843   19.1764 C   0  0  0  0  0  0  0  0  0  0  0  0
  -25.6592  -20.6864   18.7143 C   0  0  0  0  0  0  0  0  0  0  0  0
  -28.2732  -19.4161   18.5189 C   0  0  0  0  0  0  0  0  0  0  0  0
  -25.8642  -19.3273   18.0544 C   0  0  0  0  0  0  0  0  0  0  0  0
  -25.9327  -15.1488   19.2867 C   0  0  0  0  0  0  0  0  0  0  0  0
  -26.4620  -34.1810   25.1773 C   0  0  1  0  0  0  0  0  0  0  0  0
  -23.6951  -32.8285   22.9528 C   0  0  1  0  0  0  0  0  0  0  0  0
  -26.3135  -14.4649   20.6090 C   0  0  2  0  0  0  0  0  0  0  0  0
  -16.4648  -30.0887   23.4203 C   0  0  0  0  0  0  0  0  0  0  0  0
  -22.0422  -31.0167   26.8702 C   0  0  0  0  0  0  0  0  0  0  0  0
  -19.7709  -29.9767   26.7033 C   0  0  0  0  0  0  0  0  0  0  0  0
  -20.0086  -32.4597   26.6784 C   0  0  0  0  0  0  0  0  0  0  0  0
  -18.4445  -30.7438   20.2379 C   0  0  0  0  0  0  0  0  0  0  0  0
  -26.4440  -26.9856   19.2404 C   0  0  0  0  0  0  0  0  0  1  0  0
  -28.6557  -25.8894   17.6493 C   0  0  0  0  0  0  0  0  0  0  0  0
  -20.7235  -31.1258   24.6532 C   0  0  1  0  0  0  0  0  0  0  0  0
  -17.5793  -30.6931   22.5804 C   0  0  2  0  0  0  0  0  0  0  0  0
  -20.6561  -31.1396   26.2064 C   0  0  0  0  0  0  0  0  0  0  0  0
  -25.0062  -12.3949   20.9042 N   0  0  0  0  0  0  0  0  0  0  0  0
  -25.6989  -24.7311   19.6718 N   0  0  0  0  0  0  0  0  0  0  0  0
  -25.7964  -23.3801   19.5499 N   0  0  0  0  0  0  0  0  0  0  0  0
  -26.1684  -12.9567   20.5304 N   0  0  0  0  0  0  0  0  0  0  0  0
  -26.9055  -21.4646   18.6968 N   0  0  0  0  0  0  0  0  0  0  0  0
  -22.7016  -31.8253   23.3410 N   0  0  0  0  0  0  0  0  0  0  0  0
  -26.0801  -16.6021   19.3903 N   0  0  0  0  0  0  0  0  0  0  0  0
  -27.0421  -18.6378   18.5849 N   0  0  0  0  0  0  0  0  0  0  0  0
  -28.3289  -12.4531   19.7001 N   0  0  0  0  0  0  0  0  0  0  0  0
  -26.3780   -8.3957   20.0569 N   0  0  0  0  0  0  0  0  0  0  0  0
  -25.3870  -34.0019   24.2251 N   0  0  0  0  0  0  0  0  0  0  0  0
  -19.4280  -31.2679   23.9975 N   0  0  0  0  0  0  0  0  0  0  0  0
  -17.4271  -30.2091   21.1792 N   0  3  0  0  0  0  0  0  0  0  0  0
  -28.3057   -9.4896   19.4686 O   0  0  0  0  0  0  0  0  0  0  0  0
  -25.0750  -31.7118   24.5097 O   0  0  0  0  0  0  0  0  0  0  0  0
  -21.3066  -33.4037   24.3407 O   0  0  0  0  0  0  0  0  0  0  0  0
  -19.5266  -29.2809   22.8062 O   0  0  0  0  0  0  0  0  0  0  0  0
  -28.0737  -16.6061   18.2308 O   0  0  0  0  0  0  0  0  0  0  0  0
  -21.2025   -7.3760   21.8482 O   0  0  0  0  0  0  0  0  0  0  0  0
  -25.5351  -27.2300   20.3066 O   0  0  0  0  0  0  0  0  0  1  0  0
  -22.6253   -2.8215   24.6117 F   0  0  0  0  0  0  0  0  0  0  0  0
  -20.0595   -6.7866   24.2954 F   0  0  0  0  0  0  0  0  0  0  0  0
  -28.0552  -26.7088   16.7456 F   0  0  0  0  0  0  0  0  0  0  0  0
  -29.5660  -25.1553   16.9557 F   0  0  0  0  0  0  0  0  0  0  0  0
  1  2  1  0  0  0  0
  1  5  2  0  0  0  0
  2  6  2  0  0  0  0
  3  8  2  0  0  0  0
  3 16  1  0  0  0  0
  4  9  1  0  0  0  0
  4 16  2  0  0  0  0
  5 18  1  0  0  0  0
  6 20  1  0  0  0  0
  7 10  2  0  0  0  0
  7 19  1  0  0  0  0
  8 23  1  0  0  0  0
  9 23  2  0  0  0  0
 10 24  1  0  0  0  0
 11 12  2  0  0  0  0
 11 25  1  0  0  0  0
 12 26  1  0  0  0  0
 13 21  1  0  0  0  0
 13 24  2  0  0  0  0
 14 22  1  0  0  0  0
 14 30  2  0  0  0  0
 15 26  2  0  0  0  0
 15 27  1  0  0  0  0
 16 28  1  0  0  0  0
 17 28  1  0  0  0  0
 17 31  2  0  0  0  0
 17 32  1  0  0  0  0
 18 20  2  0  0  0  0
 18 37  1  0  0  0  0
 19 21  2  0  0  0  0
 19 38  1  0  0  0  0
 20 50  1  0  0  0  0
 21 39  1  0  0  0  0
 22 29  2  0  0  0  0
 22 59  1  0  0  0  0
 23 81  1  0  0  0  0
 24 82  1  0  0  0  0
 25 27  2  0  0  0  0
 25 81  1  0  0  0  0
 26 83  1  0  0  0  0
 27 84  1  0  0  0  0
 28 63  2  0  0  0  0
 29 58  1  0  0  0  0
 29 64  1  0  0  0  0
 30 65  1  0  0  0  0
 30 67  1  0  0  0  0
 31 66  1  0  0  0  0
 31 71  1  0  0  0  0
 32 72  1  0  0  0  0
 32 76  2  0  0  0  0
 33 51  1  0  0  0  0
 33 73  1  0  0  0  0
 33 77  2  0  0  0  0
 34 60  1  0  0  0  0
 34 68  1  0  0  0  0
 34 78  2  0  0  0  0
 35 61  1  0  0  0  0
 35 74  1  0  0  0  0
 35 79  2  0  0  0  0
 36 69  1  0  0  0  0
 36 70  1  0  0  0  0
 36 80  2  0  0  0  0
 37 40  1  0  0  0  0
 38 51  1  0  0  0  0
 39 68  1  0  0  0  0
 40 42  1  0  0  0  0
 41 43  1  0  0  0  0
 41 44  1  0  0  0  0
 42 50  1  0  0  0  0
 43 52  1  0  0  0  0
 44 69  1  0  0  0  0
 45 47  1  0  0  0  0
 45 67  1  0  0  0  0
 46 48  1  0  0  0  0
 46 67  1  0  0  0  0
 47 70  1  0  0  0  0
 48 70  1  0  0  0  0
 49 52  1  0  0  0  0
 49 69  1  0  0  0  0
 50 73  1  0  0  0  0
 51 68  1  0  0  0  0
 52 66  1  0  0  0  0
 53 61  1  0  0  0  0
 54 62  1  0  0  0  0
 55 62  1  0  0  0  0
 56 62  1  0  0  0  0
 57 75  1  0  0  0  0
 58 82  1  0  0  0  0
 59 85  1  0  0  0  0
 59 86  1  0  0  0  0
 60 62  1  0  0  0  0
 60 74  1  0  0  0  0
 61 75  1  0  0  0  0
 63 66  1  0  0  0  0
 64 65  2  0  0  0  0
M  CHG  1  75   1
M  ISO  4  36 100  58 101  70 100  82 101
M  END
> <Batch ID>
0199

> <Smiles>
CNC(C)C(=O)NC(C(=O)N1Cc2cc([101O:1][101CH2:1]c3nnc(N4CC[100N:0]([100C:0](=O)N5CCCC(n6nc(-c7ccc(Oc8ccc(F)cc8F)cc7)c(C(N)=O)c6N)C5)CC4)cc3C(F)F)ccc2CC1C(=O)NC1CCCc2ccccc21)C(C)(C)C

> <Shape>
0.288

> <Color>
0.093

> <Negative vol penalty>
0.000

$$$$

  -OEChem-04052323503D

 84 93  0     1  0  0  0  0  0999 V2000
  -21.1929   -6.4881   24.4910 C   0  0  0  0  0  0  0  0  0  0  0  0
  -22.2685   -6.4881   23.6087 C   0  0  0  0  0  0  0  0  0  0  0  0
  -25.2193  -30.1571   23.0344 C   0  0  0  0  0  0  0  0  0  0  0  0
  -24.3533  -30.9842   20.9360 C   0  0  0  0  0  0  0  0  0  0  0  0
  -20.1609   -7.4118   24.3304 C   0  0  0  0  0  0  0  0  0  0  0  0
  -22.3122   -7.4113   22.5645 C   0  0  0  0  0  0  0  0  0  0  0  0
  -27.7938  -12.0425   21.9361 C   0  0  0  0  0  0  0  0  0  0  0  0
  -24.5399  -31.1684   23.7135 C   0  0  0  0  0  0  0  0  0  0  0  0
  -23.6738  -31.9955   21.6151 C   0  0  0  0  0  0  0  0  0  0  0  0
  -28.9110  -12.8188   21.6274 C   0  0  0  0  0  0  0  0  0  0  0  0
  -24.9515  -34.4662   24.3293 C   0  0  0  0  0  0  0  0  0  0  0  0
  -25.6454  -35.1592   25.3212 C   0  0  0  0  0  0  0  0  0  0  0  0
  -27.7451  -13.7611   19.7298 C   0  0  0  0  0  0  0  0  0  0  0  0
  -24.0186  -34.4448   26.9584 C   0  0  0  0  0  0  0  0  0  0  0  0
  -25.1261  -30.0650   21.6456 C   0  0  0  0  0  0  0  0  0  0  0  0
  -27.2174  -28.7938   20.9260 C   0  0  0  0  0  0  0  0  0  0  0  0
  -20.1968   -8.3530   23.2895 C   0  0  0  0  0  0  0  0  0  0  0  0
  -26.6412  -12.1341   21.1510 C   0  0  0  0  0  0  0  0  0  0  0  0
  -21.2791   -8.3475   22.3890 C   0  0  0  0  0  0  0  0  0  0  0  0
  -26.6187  -12.9952   20.0416 C   0  0  0  0  0  0  0  0  0  0  0  0
  -23.7671  -32.0876   23.0039 C   0  0  0  0  0  0  0  0  0  0  0  0
  -28.8868  -13.6758   20.5268 C   0  0  0  0  0  0  0  0  0  0  0  0
  -23.7911  -33.7626   24.6519 C   0  0  0  0  0  0  0  0  0  0  0  0
  -25.1790  -35.1485   26.6357 C   0  0  0  0  0  0  0  0  0  0  0  0
  -23.3247  -33.7519   25.9665 C   0  0  0  0  0  0  0  0  0  0  0  0
  -25.8282  -29.0209   20.9435 C   0  0  0  0  0  0  0  0  0  0  0  0
  -27.3750  -27.6918   20.1214 C   0  0  0  0  0  0  0  0  0  0  0  0
  -28.2712  -29.5144   21.5787 C   0  0  0  0  0  0  0  0  0  0  0  0
  -23.1177  -10.9849   20.5678 C   0  0  0  0  0  0  0  0  0  0  0  0
  -23.1701  -14.0049   20.0322 C   0  0  0  0  0  0  0  0  0  0  0  0
  -23.5587  -17.3930   19.9474 C   0  0  0  0  0  0  0  0  0  0  0  0
  -25.8290  -22.5743   18.5194 C   0  0  0  0  0  0  0  0  0  0  0  0
  -19.0350   -9.3010   23.1277 C   0  0  0  0  0  0  0  0  0  0  0  0
  -25.4362  -11.2712   21.4100 C   0  0  0  0  0  0  0  0  0  0  0  0
  -25.3692  -13.0353   19.2049 C   0  0  0  0  0  0  0  0  0  0  0  0
  -19.3405  -10.4895   22.2197 C   0  0  0  0  0  0  0  0  0  0  0  0
  -24.0845  -25.3301   17.0913 C   0  0  0  0  0  0  0  0  0  0  0  0
  -20.0332  -10.0221   20.9436 C   0  0  0  0  0  0  0  0  0  0  0  0
  -24.4923  -26.5153   17.9683 C   0  0  0  0  0  0  0  0  0  0  0  0
  -28.9006  -21.3131   18.1937 C   0  0  0  0  0  0  0  0  0  0  0  0
  -30.4616  -17.2715   20.7196 C   0  0  0  0  0  0  0  0  0  0  0  0
  -23.9344  -24.0487   17.9084 C   0  0  0  0  0  0  0  0  0  0  0  0
  -30.1056  -20.6610   18.8700 C   0  0  0  0  0  0  0  0  0  0  0  0
  -25.5164  -24.8809   19.6050 C   0  0  0  0  0  0  0  0  0  0  0  0
  -28.4926  -20.9236   20.5327 C   0  0  0  0  0  0  0  0  0  0  0  0
  -32.2886  -16.7154   22.1405 C   0  0  0  0  0  0  0  0  0  0  0  0
  -21.3747   -9.3493   21.2587 C   0  0  1  0  0  0  0  0  0  0  0  0
  -24.1069  -11.9813   21.0970 C   0  0  1  0  0  0  0  0  0  0  0  0
  -31.4601  -16.1563   20.9929 C   0  0  1  0  0  0  0  0  0  0  0  0
  -25.7347  -26.1837   18.8167 C   0  0  2  0  0  0  0  0  0  0  0  0
  -27.7777  -21.2278   19.2257 C   0  0  1  0  0  0  0  0  0  0  0  0
  -31.3347  -18.5184   20.7738 C   0  0  1  0  0  0  0  0  0  0  0  0
  -22.2848  -19.5116   19.5161 C   0  0  0  0  0  0  0  0  0  0  0  0
  -23.2694  -13.4500   17.0346 C   0  0  0  0  0  0  0  0  0  0  0  0
  -22.8961  -15.8942   16.6416 C   0  0  0  0  0  0  0  0  0  0  0  0
  -21.1637  -14.5441   17.8242 C   0  0  0  0  0  0  0  0  0  0  0  0
  -33.7082  -18.7394   21.6195 C   0  0  0  0  0  0  0  0  0  0  0  0
  -24.0652  -18.3922   22.6867 C   0  0  0  0  0  0  0  0  0  0  0  0
  -30.8036  -14.8341   21.3278 C   0  0  0  0  0  0  0  0  0  1  0  0
  -30.5655  -19.7880   21.0893 C   0  0  0  0  0  0  0  0  0  0  0  0
  -23.3223  -15.1066   19.0141 C   0  0  1  0  0  0  0  0  0  0  0  0
  -22.7477  -18.5160   20.5683 C   0  0  2  0  0  0  0  0  0  0  0  0
  -22.6849  -14.7398   17.6443 C   0  0  0  0  0  0  0  0  0  0  0  0
  -25.1515  -28.1346   20.2083 N   0  0  0  0  0  0  0  0  0  0  0  0
  -26.1196  -27.3398   19.7212 N   0  0  0  0  0  0  0  0  0  0  0  0
  -24.1823  -13.0383   20.0743 N   0  0  0  0  0  0  0  0  0  0  0  0
  -25.1471  -23.7907   18.6886 N   0  0  0  0  0  0  0  0  0  0  0  0
  -29.5547  -20.0278   20.0707 N   0  0  2  0  0  0  0  0  0  0  0  0
  -28.4637  -26.9994   19.7241 N   0  0  0  0  0  0  0  0  0  0  0  0
  -28.8698  -30.5840   20.8990 N   0  0  0  0  0  0  0  0  0  0  0  0
  -22.3839  -10.3452   21.5485 N   0  0  0  0  0  0  0  0  0  0  0  0
  -22.7689  -16.3089   19.6279 N   0  0  0  0  0  0  0  0  0  0  0  0
  -26.9722  -22.4130   19.2925 N   0  0  0  0  0  0  0  0  0  0  0  0
  -32.3304  -18.2143   21.8874 N   0  3  2  0  0  0  0  0  0  0  0  0
  -23.5634  -19.2462   21.5795 N   0  3  0  0  0  0  0  0  0  0  0  0
  -28.6813  -29.2081   22.7239 O   0  0  0  0  0  0  0  0  0  0  0  0
  -23.0249  -10.8094   19.3585 O   0  0  0  0  0  0  0  0  0  0  0  0
  -22.1790  -13.9960   20.7676 O   0  0  0  0  0  0  0  0  0  0  0  0
  -24.7710  -17.4712   19.7607 O   0  0  0  0  0  0  0  0  0  0  0  0
  -25.4502  -21.6993   17.7334 O   0  0  0  0  0  0  0  0  0  0  0  0
  -23.1037  -33.0744   23.6662 O   0  0  0  0  0  0  0  0  0  0  0  0
  -29.9793  -14.4342   20.2337 O   0  0  0  0  0  0  0  0  0  1  0  0
  -25.8463  -35.8128   27.5884 F   0  0  0  0  0  0  0  0  0  0  0  0
  -22.2111  -33.0767   26.2827 F   0  0  0  0  0  0  0  0  0  0  0  0
  1  2  1  0  0  0  0
  1  5  2  0  0  0  0
  2  6  2  0  0  0  0
  3  8  2  0  0  0  0
  3 15  1  0  0  0  0
  4  9  1  0  0  0  0
  4 15  2  0  0  0  0
  5 17  1  0  0  0  0
  6 19  1  0  0  0  0
  7 10  2  0  0  0  0
  7 18  1  0  0  0  0
  8 21  1  0  0  0  0
  9 21  2  0  0  0  0
 10 22  1  0  0  0  0
 11 12  2  0  0  0  0
 11 23  1  0  0  0  0
 12 24  1  0  0  0  0
 13 20  1  0  0  0  0
 13 22  2  0  0  0  0
 14 24  2  0  0  0  0
 14 25  1  0  0  0  0
 15 26  1  0  0  0  0
 16 26  1  0  0  0  0
 16 27  2  0  0  0  0
 16 28  1  0  0  0  0
 17 19  2  0  0  0  0
 17 33  1  0  0  0  0
 18 20  2  0  0  0  0
 18 34  1  0  0  0  0
 19 47  1  0  0  0  0
 20 35  1  0  0  0  0
 21 81  1  0  0  0  0
 22 82  1  0  0  0  0
 23 25  2  0  0  0  0
 23 81  1  0  0  0  0
 24 83  1  0  0  0  0
 25 84  1  0  0  0  0
 26 64  2  0  0  0  0
 27 65  1  0  0  0  0
 27 69  1  0  0  0  0
 28 70  1  0  0  0  0
 28 76  2  0  0  0  0
 29 48  1  0  0  0  0
 29 71  1  0  0  0  0
 29 77  2  0  0  0  0
 30 61  1  0  0  0  0
 30 66  1  0  0  0  0
 30 78  2  0  0  0  0
 31 62  1  0  0  0  0
 31 72  1  0  0  0  0
 31 79  2  0  0  0  0
 32 67  1  0  0  0  0
 32 73  1  0  0  0  0
 32 80  2  0  0  0  0
 33 36  1  0  0  0  0
 34 48  1  0  0  0  0
 35 66  1  0  0  0  0
 36 38  1  0  0  0  0
 37 39  1  0  0  0  0
 37 42  1  0  0  0  0
 38 47  1  0  0  0  0
 39 50  1  0  0  0  0
 40 43  1  0  0  0  0
 40 51  1  0  0  0  0
 41 49  1  0  0  0  0
 41 52  1  0  0  0  0
 42 67  1  0  0  0  0
 43 68  1  0  0  0  0
 44 50  1  0  0  0  0
 44 67  1  0  0  0  0
 45 51  1  0  0  0  0
 45 68  1  0  0  0  0
 46 49  1  0  0  0  0
 46 74  1  0  0  0  0
 47 71  1  0  0  0  0
 48 66  1  0  0  0  0
 49 59  1  0  0  0  0
 50 65  1  0  0  0  0
 51 73  1  0  0  0  0
 52 60  1  0  0  0  0
 52 74  1  0  0  0  0
 53 62  1  0  0  0  0
 54 63  1  0  0  0  0
 55 63  1  0  0  0  0
 56 63  1  0  0  0  0
 57 74  1  0  0  0  0
 58 75  1  0  0  0  0
 59 82  1  0  0  0  0
 60 68  1  0  0  0  0
 61 63  1  0  0  0  0
 61 72  1  0  0  0  0
 62 75  1  0  0  0  0
 64 65  1  0  0  0  0
M  CHG  2  74   1  75   1
M  ISO  4  32 100  59 101  73 100  82 101
M  END
> <Batch ID>
0199

> <Smiles>
CNC(C)C(=O)NC(C(=O)N1Cc2cc([101O:1][101CH2:1]C3CC(CN4CCC([100NH:0][100C:0](=O)N5CCCC(n6nc(-c7ccc(Oc8ccc(F)cc8F)cc7)c(C(N)=O)c6N)C5)C4)N(C)C3)ccc2CC1C(=O)NC1CCCc2ccccc21)C(C)(C)C

> <Shape>
0.252

> <Color>
0.070

> <Negative vol penalty>
0.000

$$$$

  -OEChem-04052323503D

 85 95  0     1  0  0  0  0  0999 V2000
  -29.9608  -36.1994   23.0122 C   0  0  0  0  0  0  0  0  0  0  0  0
  -30.0059  -34.8279   22.7834 C   0  0  0  0  0  0  0  0  0  0  0  0
  -23.1334  -10.1812   21.8859 C   0  0  0  0  0  0  0  0  0  0  0  0
  -24.7614   -8.5981   21.0612 C   0  0  0  0  0  0  0  0  0  0  0  0
  -28.7855  -36.7896   23.4749 C   0  0  0  0  0  0  0  0  0  0  0  0
  -28.8758  -34.0455   23.0185 C   0  0  0  0  0  0  0  0  0  0  0  0
  -27.0992  -29.1036   19.8677 C   0  0  0  0  0  0  0  0  0  0  0  0
  -22.1558   -9.1865   21.8659 C   0  0  0  0  0  0  0  0  0  0  0  0
  -23.7839   -7.6033   21.0412 C   0  0  0  0  0  0  0  0  0  0  0  0
  -27.2464  -27.7375   20.1042 C   0  0  0  0  0  0  0  0  0  0  0  0
  -22.2638   -5.5620   23.2645 C   0  0  0  0  0  0  0  0  0  0  0  0
  -22.6039   -4.3110   23.7791 C   0  0  0  0  0  0  0  0  0  0  0  0
  -25.0449  -27.6768   21.0887 C   0  0  0  0  0  0  0  0  0  0  0  0
  -22.1445   -3.3030   21.6320 C   0  0  0  0  0  0  0  0  0  0  0  0
  -24.4362   -9.8871   21.4835 C   0  0  0  0  0  0  0  0  0  0  0  0
  -26.3050  -11.2417   22.5699 C   0  0  0  0  0  0  0  0  0  0  0  0
  -27.6375  -36.0155   23.7065 C   0  0  0  0  0  0  0  0  0  0  0  0
  -25.9261  -29.7698   20.2505 C   0  0  0  0  0  0  0  0  0  0  0  0
  -27.6844  -34.6257   23.4861 C   0  0  0  0  0  0  0  0  0  0  0  0
  -24.8843  -29.0509   20.8536 C   0  0  0  0  0  0  0  0  0  0  0  0
  -22.4811   -7.8975   21.4435 C   0  0  0  0  0  0  0  0  0  0  0  0
  -26.2204  -27.0245   20.7174 C   0  0  0  0  0  0  0  0  0  0  0  0
  -21.8640   -5.6836   21.9337 C   0  0  0  0  0  0  0  0  0  0  0  0
  -22.5443   -3.1815   22.9628 C   0  0  0  0  0  0  0  0  0  0  0  0
  -21.8044   -4.5541   21.1174 C   0  0  0  0  0  0  0  0  0  0  0  0
  -25.4463  -10.9144   21.5035 C   0  0  0  0  0  0  0  0  0  0  0  0
  -27.0696  -12.2768   22.0898 C   0  0  0  0  0  0  0  0  0  0  0  0
  -27.3180  -21.4934   20.1716 C   0  0  0  0  0  0  0  0  0  0  0  0
  -27.6356  -21.9473   22.3463 C   0  0  0  0  0  0  0  0  0  0  0  0
  -27.5392  -23.6202   20.8533 C   0  0  0  0  0  0  0  0  0  0  0  0
  -26.4029  -10.6618   23.8775 C   0  0  0  0  0  0  0  0  0  0  0  0
  -25.2444  -32.1364   22.2600 C   0  0  0  0  0  0  0  0  0  0  0  0
  -22.2778  -31.8470   20.9803 C   0  0  0  0  0  0  0  0  0  0  0  0
  -19.9926  -29.8829   19.3782 C   0  0  0  0  0  0  0  0  0  0  0  0
  -27.3226  -17.1418   19.5169 C   0  0  0  0  0  0  0  0  0  0  0  0
  -26.4043  -36.6911   24.2518 C   0  0  0  0  0  0  0  0  0  0  0  0
  -25.7721  -31.2384   19.9641 C   0  0  0  0  0  0  0  0  0  0  0  0
  -23.5968  -29.7153   21.2652 C   0  0  0  0  0  0  0  0  0  0  0  0
  -25.1387  -35.8480   24.1187 C   0  0  0  0  0  0  0  0  0  0  0  0
  -27.5910  -14.1143   17.4252 C   0  0  0  0  0  0  0  0  0  0  0  0
  -25.4006  -34.4162   24.5752 C   0  0  0  0  0  0  0  0  0  0  0  0
  -25.9154  -19.6961   24.1793 C   0  0  0  0  0  0  0  0  0  0  0  0
  -26.4392  -20.1003   25.5291 C   0  0  0  0  0  0  0  0  0  0  0  0
  -27.0721  -13.0477   18.3849 C   0  0  0  0  0  0  0  0  0  0  0  0
  -28.0357  -20.5167   17.8903 C   0  0  0  0  0  0  0  0  0  0  0  0
  -26.8923  -15.4580   17.6288 C   0  0  0  0  0  0  0  0  0  0  0  0
  -26.4313  -14.8835   19.9956 C   0  0  0  0  0  0  0  0  0  0  0  0
  -26.4718  -33.7472   23.7056 C   0  0  1  0  0  0  0  0  0  0  0  0
  -27.1093  -20.5024   19.0760 C   0  0  1  0  0  0  0  0  0  0  0  0
  -24.7416  -31.9172   20.8612 C   0  0  1  0  0  0  0  0  0  0  0  0
  -26.4676  -21.0789   24.3880 C   0  0  0  0  0  0  0  0  0  0  0  0
  -27.1567  -13.5383   19.8383 C   0  0  1  0  0  0  0  0  0  0  0  0
  -28.1235  -19.3986   18.8865 C   0  0  1  0  0  0  0  0  0  0  0  0
  -17.6420  -29.9114   18.4999 C   0  0  0  0  0  0  0  0  0  0  0  0
  -21.2136  -31.5678   23.8263 C   0  0  0  0  0  0  0  0  0  0  0  0
  -19.0837  -30.6670   22.8671 C   0  0  0  0  0  0  0  0  0  0  0  0
  -19.8102  -32.9905   22.3227 C   0  0  0  0  0  0  0  0  0  0  0  0
  -20.8992  -29.3857   16.6051 C   0  0  0  0  0  0  0  0  0  0  0  0
  -27.7967  -21.4805   23.7530 C   0  0  0  0  0  0  0  0  0  0  0  0
  -27.5877  -25.0867   20.5399 C   0  0  0  0  0  0  0  0  0  1  0  0
  -21.0478  -31.0345   21.3056 C   0  0  1  0  0  0  0  0  0  0  0  0
  -19.1086  -30.1450   18.1722 C   0  0  2  0  0  0  0  0  0  0  0  0
  -20.3137  -31.5525   22.5745 C   0  0  0  0  0  0  0  0  0  0  0  0
  -25.6459  -11.6797   20.4272 N   0  0  0  0  0  0  0  0  0  0  0  0
  -27.4532  -20.9995   21.4130 N   0  0  0  0  0  0  0  0  0  0  0  0
  -27.3500  -22.7881   19.8166 N   0  0  0  0  0  0  0  0  0  0  0  0
  -27.6897  -23.2733   22.1417 N   0  0  0  0  0  0  0  0  0  0  0  0
  -26.6389  -12.4982   20.8148 N   0  0  0  0  0  0  0  0  0  0  0  0
  -23.4966  -31.1541   20.9697 N   0  0  0  0  0  0  0  0  0  0  0  0
  -26.9291  -15.8790   19.0382 N   0  0  0  0  0  0  0  0  0  0  0  0
  -28.0615  -13.0101   22.6382 N   0  0  0  0  0  0  0  0  0  0  0  0
  -25.5417   -9.6060   24.2064 N   0  0  0  0  0  0  0  0  0  0  0  0
  -25.9087  -33.3350   22.4378 N   0  0  0  0  0  0  0  0  0  0  0  0
  -20.2276  -31.0346   20.0990 N   0  0  0  0  0  0  0  0  0  0  0  0
  -27.7027  -18.0649   18.5493 N   0  0  0  0  0  0  0  0  0  0  0  0
  -19.4878  -29.2448   17.0466 N   0  3  0  0  0  0  0  0  0  0  0  0
  -27.2183  -11.0787   24.7347 O   0  0  0  0  0  0  0  0  0  0  0  0
  -25.0432  -31.2820   23.1152 O   0  0  0  0  0  0  0  0  0  0  0  0
  -22.1606  -33.0507   20.7374 O   0  0  0  0  0  0  0  0  0  0  0  0
  -20.4278  -28.7674   19.6552 O   0  0  0  0  0  0  0  0  0  0  0  0
  -27.3299  -17.4300   20.7188 O   0  0  0  0  0  0  0  0  0  0  0  0
  -21.5275   -6.9265   21.4241 O   0  0  0  0  0  0  0  0  0  0  0  0
  -26.3617  -25.6911   20.9500 O   0  0  0  0  0  0  0  0  0  1  0  0
  -22.8723   -1.9804   23.4567 F   0  0  0  0  0  0  0  0  0  0  0  0
  -21.4222   -4.6648   19.8377 F   0  0  0  0  0  0  0  0  0  0  0  0
  1  2  1  0  0  0  0
  1  5  2  0  0  0  0
  2  6  2  0  0  0  0
  3  8  2  0  0  0  0
  3 15  1  0  0  0  0
  4  9  1  0  0  0  0
  4 15  2  0  0  0  0
  5 17  1  0  0  0  0
  6 19  1  0  0  0  0
  7 10  2  0  0  0  0
  7 18  1  0  0  0  0
  8 21  1  0  0  0  0
  9 21  2  0  0  0  0
 10 22  1  0  0  0  0
 11 12  2  0  0  0  0
 11 23  1  0  0  0  0
 12 24  1  0  0  0  0
 13 20  1  0  0  0  0
 13 22  2  0  0  0  0
 14 24  2  0  0  0  0
 14 25  1  0  0  0  0
 15 26  1  0  0  0  0
 16 26  1  0  0  0  0
 16 27  2  0  0  0  0
 16 31  1  0  0  0  0
 17 19  2  0  0  0  0
 17 36  1  0  0  0  0
 18 20  2  0  0  0  0
 18 37  1  0  0  0  0
 19 48  1  0  0  0  0
 20 38  1  0  0  0  0
 21 82  1  0  0  0  0
 22 83  1  0  0  0  0
 23 25  2  0  0  0  0
 23 82  1  0  0  0  0
 24 84  1  0  0  0  0
 25 85  1  0  0  0  0
 26 64  2  0  0  0  0
 27 68  1  0  0  0  0
 27 71  1  0  0  0  0
 28 49  1  0  0  0  0
 28 65  2  0  0  0  0
 28 66  1  0  0  0  0
 29 59  1  0  0  0  0
 29 65  1  0  0  0  0
 29 67  2  0  0  0  0
 30 60  1  0  0  0  0
 30 66  2  0  0  0  0
 30 67  1  0  0  0  0
 31 72  1  0  0  0  0
 31 77  2  0  0  0  0
 32 50  1  0  0  0  0
 32 73  1  0  0  0  0
 32 78  2  0  0  0  0
 33 61  1  0  0  0  0
 33 69  1  0  0  0  0
 33 79  2  0  0  0  0
 34 62  1  0  0  0  0
 34 74  1  0  0  0  0
 34 80  2  0  0  0  0
 35 70  1  0  0  0  0
 35 75  1  0  0  0  0
 35 81  2  0  0  0  0
 36 39  1  0  0  0  0
 37 50  1  0  0  0  0
 38 69  1  0  0  0  0
 39 41  1  0  0  0  0
 40 44  1  0  0  0  0
 40 46  1  0  0  0  0
 41 48  1  0  0  0  0
 42 43  1  0  0  0  0
 42 51  1  0  0  0  0
 43 51  1  0  0  0  0
 44 52  1  0  0  0  0
 45 49  1  0  0  0  0
 45 53  1  0  0  0  0
 46 70  1  0  0  0  0
 47 52  1  0  0  0  0
 47 70  1  0  0  0  0
 48 73  1  0  0  0  0
 49 53  1  0  0  0  0
 50 69  1  0  0  0  0
 51 59  1  0  0  0  0
 52 68  1  0  0  0  0
 53 75  1  0  0  0  0
 54 62  1  0  0  0  0
 55 63  1  0  0  0  0
 56 63  1  0  0  0  0
 57 63  1  0  0  0  0
 58 76  1  0  0  0  0
 60 83  1  0  0  0  0
 61 63  1  0  0  0  0
 61 74  1  0  0  0  0
 62 76  1  0  0  0  0
 64 68  1  0  0  0  0
M  CHG  1  76   1
M  ISO  4  35 100  60 101  75 100  83 101
M  END
> <Batch ID>
0199

> <Smiles>
CNC(C)C(=O)NC(C(=O)N1Cc2cc([101O:1][101CH2:1]c3nc(CC4CC4)nc(C4CC4[100NH:0][100C:0](=O)N4CCCC(n5nc(-c6ccc(Oc7ccc(F)cc7F)cc6)c(C(N)=O)c5N)C4)n3)ccc2CC1C(=O)NC1CCCc2ccccc21)C(C)(C)C

> <Shape>
0.248

> <Color>
0.088

> <Negative vol penalty>
0.000

$$$$

  -OEChem-04052323503D

 91100  0     1  0  0  0  0  0999 V2000
  -17.2995  -34.0981   20.2661 C   0  0  0  0  0  0  0  0  0  0  0  0
  -18.2190  -33.7295   19.2893 C   0  0  0  0  0  0  0  0  0  0  0  0
  -24.1784   -9.4067   22.0661 C   0  0  0  0  0  0  0  0  0  0  0  0
  -24.4270   -8.5035   19.8391 C   0  0  0  0  0  0  0  0  0  0  0  0
  -17.7460  -34.5532   21.5060 C   0  0  0  0  0  0  0  0  0  0  0  0
  -19.5857  -33.8170   19.5515 C   0  0  0  0  0  0  0  0  0  0  0  0
  -25.1194  -28.3182   19.1403 C   0  0  0  0  0  0  0  0  0  0  0  0
  -23.0950   -8.5571   22.2897 C   0  0  0  0  0  0  0  0  0  0  0  0
  -23.3437   -7.6538   20.0627 C   0  0  0  0  0  0  0  0  0  0  0  0
  -26.1581  -27.3943   19.2571 C   0  0  0  0  0  0  0  0  0  0  0  0
  -22.5998   -5.3040   23.0676 C   0  0  0  0  0  0  0  0  0  0  0  0
  -22.5502   -4.6231   24.2840 C   0  0  0  0  0  0  0  0  0  0  0  0
  -27.2281  -28.7910   20.9161 C   0  0  0  0  0  0  0  0  0  0  0  0
  -20.4420   -5.6873   24.7938 C   0  0  0  0  0  0  0  0  0  0  0  0
  -30.3437  -21.1429   22.4713 C   0  0  0  0  0  0  0  0  0  0  0  0
  -24.8444   -9.3800   20.8407 C   0  0  0  0  0  0  0  0  0  0  0  0
  -27.3209   -9.9913   20.8684 C   0  0  0  0  0  0  0  0  0  0  0  0
  -19.1189  -34.6372   21.7869 C   0  0  0  0  0  0  0  0  0  0  0  0
  -25.1233  -29.4760   19.9232 C   0  0  0  0  0  0  0  0  0  0  0  0
  -20.0511  -34.2750   20.7959 C   0  0  0  0  0  0  0  0  0  0  0  0
  -26.1840  -29.7140   20.8125 C   0  0  0  0  0  0  0  0  0  0  0  0
  -22.6777   -7.6806   21.2880 C   0  0  0  0  0  0  0  0  0  0  0  0
  -27.2100  -27.6303   20.1426 C   0  0  0  0  0  0  0  0  0  0  0  0
  -21.5705   -6.1766   22.7143 C   0  0  0  0  0  0  0  0  0  0  0  0
  -21.4713   -4.8148   25.1471 C   0  0  0  0  0  0  0  0  0  0  0  0
  -20.4916   -6.3682   23.5774 C   0  0  0  0  0  0  0  0  0  0  0  0
  -25.9632  -10.2578   20.6089 C   0  0  0  0  0  0  0  0  0  0  0  0
  -31.1607  -22.2132   22.7037 C   0  0  0  0  0  0  0  0  0  0  0  0
  -27.9759  -11.1335   20.4774 C   0  0  0  0  0  0  0  0  0  0  0  0
  -30.5960  -22.2367   20.5634 C   0  0  0  0  0  0  0  0  0  0  0  0
  -27.9351   -8.8162   21.4140 C   0  0  0  0  0  0  0  0  0  0  0  0
  -23.3732  -32.6587   20.8631 C   0  0  0  0  0  0  0  0  0  0  0  0
  -24.4802  -31.4511   23.4567 C   0  0  0  0  0  0  0  0  0  0  0  0
  -25.4935  -29.5824   26.1246 C   0  0  0  0  0  0  0  0  0  0  0  0
  -28.4790  -16.5353   20.4364 C   0  0  0  0  0  0  0  0  0  0  0  0
  -19.5542  -35.1800   23.1250 C   0  0  0  0  0  0  0  0  0  0  0  0
  -24.0566  -30.5283   19.7857 C   0  0  0  0  0  0  0  0  0  0  0  0
  -26.1640  -30.9898   21.6093 C   0  0  0  0  0  0  0  0  0  0  0  0
  -21.0158  -34.8879   23.4545 C   0  0  0  0  0  0  0  0  0  0  0  0
  -26.3738  -15.1388   17.8702 C   0  0  0  0  0  0  0  0  0  0  0  0
  -21.9066  -35.2056   22.2577 C   0  0  0  0  0  0  0  0  0  0  0  0
  -26.1569  -13.7245   18.4008 C   0  0  0  0  0  0  0  0  0  0  0  0
  -27.6991  -20.0798   21.0139 C   0  0  0  0  0  0  0  0  0  0  0  0
  -26.4203  -16.1806   18.9900 C   0  0  0  0  0  0  0  0  0  0  0  0
  -27.2063  -18.7615   20.4292 C   0  0  0  0  0  0  0  0  0  0  0  0
  -27.1747  -14.4421   20.5891 C   0  0  0  0  0  0  0  0  0  0  0  0
  -29.6078  -18.7394   20.4963 C   0  0  0  0  0  0  0  0  0  0  0  0
  -21.5416  -34.3323   21.0511 C   0  0  1  0  0  0  0  0  0  0  0  0
  -23.7166  -31.2204   21.1178 C   0  0  1  0  0  0  0  0  0  0  0  0
  -27.1996  -13.3839   19.4774 C   0  0  1  0  0  0  0  0  0  0  0  0
  -29.1173  -20.1883   20.4395 C   0  0  2  0  0  0  0  0  0  0  0  0
  -31.8209  -22.6797   23.9257 C   0  0  0  0  0  0  0  0  0  0  0  0
  -25.5819  -29.6147   28.6323 C   0  0  0  0  0  0  0  0  0  0  0  0
  -36.7013  -22.7158   18.1401 C   0  0  0  0  0  0  0  0  0  0  0  0
  -26.8168  -33.4086   23.3454 C   0  0  0  0  0  0  0  0  0  0  0  0
  -27.4480  -32.6764   25.6549 C   0  0  0  0  0  0  0  0  0  0  0  0
  -25.2423  -33.7705   25.2544 C   0  0  0  0  0  0  0  0  0  0  0  0
  -23.7980  -27.1655   26.3312 C   0  0  0  0  0  0  0  0  0  0  0  0
  -29.3584  -24.6847   19.6929 C   0  0  0  0  0  0  0  0  0  0  0  0
  -31.7646  -23.3707   18.6458 C   0  0  0  0  0  0  0  0  0  0  0  0
  -34.2310  -23.1203   18.3410 C   0  0  0  0  0  0  0  0  0  0  0  0
  -28.1368  -25.5548   19.4400 C   0  0  0  0  0  0  0  0  0  1  0  0
  -30.4970  -22.6454   19.1400 C   0  0  2  0  0  0  0  0  0  0  0  0
  -25.6173  -31.4046   24.4458 C   0  0  1  0  0  0  0  0  0  0  0  0
  -24.7842  -29.1916   27.4086 C   0  0  2  0  0  0  0  0  0  0  0  0
  -35.3523  -22.1052   18.4723 C   0  0  2  0  0  0  0  0  0  0  0  0
  -26.2790  -32.7961   24.6540 C   0  0  0  0  0  0  0  0  0  0  0  0
  -25.7659  -11.4740   20.0931 N   0  0  0  0  0  0  0  0  0  0  0  0
  -30.0092  -21.1824   21.1392 N   0  0  0  0  0  0  0  0  0  0  0  0
  -27.0083  -11.9818   20.0254 N   0  0  0  0  0  0  0  0  0  0  0  0
  -31.2997  -22.8720   21.5060 N   0  3  0  0  0  0  0  0  0  0  0  0
  -24.8048  -31.2481   22.1098 N   0  0  0  0  0  0  0  0  0  0  0  0
  -27.3580  -15.7925   20.0494 N   0  0  0  0  0  0  0  0  0  0  0  0
  -28.4049  -17.9245   20.3422 N   0  0  0  0  0  0  0  0  0  0  0  0
  -29.2793  -11.4849   20.4796 N   0  0  0  0  0  0  0  0  0  0  0  0
  -27.1153   -7.7341   21.7621 N   0  0  0  0  0  0  0  0  0  0  0  0
  -22.0798  -32.9985   21.2114 N   0  0  0  0  0  0  0  0  0  0  0  0
  -25.0748  -30.8126   25.6638 N   0  0  0  0  0  0  0  0  0  0  0  0
  -29.3177  -23.4665   18.8959 N   0  0  0  0  0  0  0  0  0  0  0  0
  -24.5875  -27.7154   27.4632 N   0  3  0  0  0  0  0  0  0  0  0  0
  -32.9501  -22.4808   18.7446 N   0  3  0  0  0  0  0  0  0  0  0  0
  -29.1725   -8.7347   21.6029 O   0  0  0  0  0  0  0  0  0  0  0  0
  -24.2191  -33.4067   20.3870 O   0  0  0  0  0  0  0  0  0  0  0  0
  -23.3353  -31.6671   23.8637 O   0  0  0  0  0  0  0  0  0  0  0  0
  -26.3376  -28.8693   25.5865 O   0  0  0  0  0  0  0  0  0  0  0  0
  -29.4909  -15.9829   20.8888 O   0  0  0  0  0  0  0  0  0  0  0  0
  -21.6207   -6.8512   21.5060 O   0  0  0  0  0  0  0  0  0  0  0  0
  -28.2258  -26.7155   20.2557 O   0  0  0  0  0  0  0  0  0  1  0  0
  -21.4231   -4.1597   26.3144 F   0  0  0  0  0  0  0  0  0  0  0  0
  -19.4991   -7.2043   23.2429 F   0  0  0  0  0  0  0  0  0  0  0  0
  -35.3972  -21.6723   19.7640 F   0  0  0  0  0  0  0  0  0  0  0  0
  1  2  1  0  0  0  0
  1  5  2  0  0  0  0
  2  6  2  0  0  0  0
  3  8  2  0  0  0  0
  3 16  1  0  0  0  0
  4  9  1  0  0  0  0
  4 16  2  0  0  0  0
  5 18  1  0  0  0  0
  6 20  1  0  0  0  0
  7 10  2  0  0  0  0
  7 19  1  0  0  0  0
  8 22  1  0  0  0  0
  9 22  2  0  0  0  0
 10 23  1  0  0  0  0
 11 12  2  0  0  0  0
 11 24  1  0  0  0  0
 12 25  1  0  0  0  0
 13 21  1  0  0  0  0
 13 23  2  0  0  0  0
 14 25  2  0  0  0  0
 14 26  1  0  0  0  0
 15 28  2  0  0  0  0
 15 69  1  0  0  0  0
 16 27  1  0  0  0  0
 17 27  1  0  0  0  0
 17 29  2  0  0  0  0
 17 31  1  0  0  0  0
 18 20  2  0  0  0  0
 18 36  1  0  0  0  0
 19 21  2  0  0  0  0
 19 37  1  0  0  0  0
 20 48  1  0  0  0  0
 21 38  1  0  0  0  0
 22 87  1  0  0  0  0
 23 88  1  0  0  0  0
 24 26  2  0  0  0  0
 24 87  1  0  0  0  0
 25 89  1  0  0  0  0
 26 90  1  0  0  0  0
 27 68  2  0  0  0  0
 28 52  1  0  0  0  0
 28 71  1  0  0  0  0
 29 70  1  0  0  0  0
 29 75  1  0  0  0  0
 30 63  1  0  0  0  0
 30 69  1  0  0  0  0
 30 71  2  0  0  0  0
 31 76  1  0  0  0  0
 31 82  2  0  0  0  0
 32 49  1  0  0  0  0
 32 77  1  0  0  0  0
 32 83  2  0  0  0  0
 33 64  1  0  0  0  0
 33 72  1  0  0  0  0
 33 84  2  0  0  0  0
 34 65  1  0  0  0  0
 34 78  1  0  0  0  0
 34 85  2  0  0  0  0
 35 73  1  0  0  0  0
 35 74  1  0  0  0  0
 35 86  2  0  0  0  0
 36 39  1  0  0  0  0
 37 49  1  0  0  0  0
 38 72  1  0  0  0  0
 39 41  1  0  0  0  0
 40 42  1  0  0  0  0
 40 44  1  0  0  0  0
 41 48  1  0  0  0  0
 42 50  1  0  0  0  0
 43 45  1  0  0  0  0
 43 51  1  0  0  0  0
 44 73  1  0  0  0  0
 45 74  1  0  0  0  0
 46 50  1  0  0  0  0
 46 73  1  0  0  0  0
 47 51  1  0  0  0  0
 47 74  1  0  0  0  0
 48 77  1  0  0  0  0
 49 72  1  0  0  0  0
 50 70  1  0  0  0  0
 51 69  1  0  0  0  0
 53 65  1  0  0  0  0
 54 66  1  0  0  0  0
 55 67  1  0  0  0  0
 56 67  1  0  0  0  0
 57 67  1  0  0  0  0
 58 80  1  0  0  0  0
 59 62  1  0  0  0  0
 59 79  1  0  0  0  0
 60 63  1  0  0  0  0
 60 81  1  0  0  0  0
 61 66  1  0  0  0  0
 61 81  1  0  0  0  0
 62 88  1  0  0  0  0
 63 79  1  0  0  0  0
 64 67  1  0  0  0  0
 64 78  1  0  0  0  0
 65 80  1  0  0  0  0
 66 91  1  0  0  0  0
 68 70  1  0  0  0  0
M  CHG  3  71   1  80   1  81   1
M  ISO  4  35 100  62 101  74 100  88 101
M  END
> <Batch ID>
0199

> <Smiles>
CNC(C)C(=O)NC(C(=O)N1Cc2cc([101O:1][101CH2:1]CNC(CNCC(C)F)c3nc(C)cn3C3CC[100N:0]([100C:0](=O)N4CCCC(n5nc(-c6ccc(Oc7ccc(F)cc7F)cc6)c(C(N)=O)c5N)C4)C3)ccc2CC1C(=O)NC1CCCc2ccccc21)C(C)(C)C

> <Shape>
0.284

> <Color>
0.119

> <Negative vol penalty>
0.000

$$$$

  -OEChem-04052323503D

 87 96  0     1  0  0  0  0  0999 V2000
  -20.2442  -31.3950   22.6046 C   0  0  0  0  0  0  0  0  0  0  0  0
  -21.5175  -30.8405   22.5233 C   0  0  0  0  0  0  0  0  0  0  0  0
  -23.0402  -14.4685   22.3165 C   0  0  0  0  0  0  0  0  0  0  0  0
  -22.3378  -13.5666   20.1881 C   0  0  0  0  0  0  0  0  0  0  0  0
  -19.1271  -30.5645   22.6829 C   0  0  0  0  0  0  0  0  0  0  0  0
  -21.6745  -29.4549   22.5216 C   0  0  0  0  0  0  0  0  0  0  0  0
  -24.9699  -27.8776   19.0148 C   0  0  0  0  0  0  0  0  0  0  0  0
  -21.7061  -14.6624   22.6746 C   0  0  0  0  0  0  0  0  0  0  0  0
  -21.0037  -13.7604   20.5462 C   0  0  0  0  0  0  0  0  0  0  0  0
  -26.3259  -28.0236   19.3040 C   0  0  0  0  0  0  0  0  0  0  0  0
  -18.4759  -15.0605   24.2941 C   0  0  0  0  0  0  0  0  0  0  0  0
  -18.0867  -14.6771   25.5775 C   0  0  0  0  0  0  0  0  0  0  0  0
  -26.4381  -25.6952   19.9246 C   0  0  0  0  0  0  0  0  0  0  0  0
  -18.7441  -12.4024   25.0973 C   0  0  0  0  0  0  0  0  0  0  0  0
  -30.9552  -26.2843   17.1560 C   0  0  0  0  0  0  0  0  0  0  0  0
  -23.3560  -13.9207   21.0732 C   0  0  0  0  0  0  0  0  0  0  0  0
  -25.5175  -12.5735   20.9298 C   0  0  0  0  0  0  0  0  0  0  0  0
  -19.2698  -29.1680   22.6724 C   0  0  0  0  0  0  0  0  0  0  0  0
  -24.3342  -26.6399   19.1891 C   0  0  0  0  0  0  0  0  0  0  0  0
  -20.5583  -28.6049   22.6012 C   0  0  0  0  0  0  0  0  0  0  0  0
  -25.0745  -25.5355   19.6345 C   0  0  0  0  0  0  0  0  0  0  0  0
  -20.6879  -14.3084   21.7895 C   0  0  0  0  0  0  0  0  0  0  0  0
  -27.0596  -26.9331   19.7617 C   0  0  0  0  0  0  0  0  0  0  0  0
  -18.9992  -14.1148   23.4123 C   0  0  0  0  0  0  0  0  0  0  0  0
  -18.2208  -13.3481   25.9791 C   0  0  0  0  0  0  0  0  0  0  0  0
  -19.1333  -12.7858   23.8139 C   0  0  0  0  0  0  0  0  0  0  0  0
  -24.7339  -13.7207   20.7025 C   0  0  0  0  0  0  0  0  0  0  0  0
  -31.1286  -25.0278   16.6124 C   0  0  0  0  0  0  0  0  0  0  0  0
  -30.7792  -26.3237   18.5241 C   0  0  0  0  0  0  0  0  0  0  0  0
  -26.7434  -12.8831   20.3931 C   0  0  0  0  0  0  0  0  0  0  0  0
  -30.9505  -24.0613   18.6621 C   0  0  0  0  0  0  0  0  0  0  0  0
  -31.4631  -23.7009   14.5770 C   0  0  0  0  0  0  0  0  0  0  0  0
  -31.3227  -24.8740   15.1799 C   0  0  0  0  0  0  0  0  0  0  0  0
  -25.1686  -11.3384   21.5689 C   0  0  0  0  0  0  0  0  0  0  0  0
  -21.9532  -25.5773   21.0072 C   0  0  0  0  0  0  0  0  0  0  0  0
  -22.3607  -22.8643   19.2765 C   0  0  0  0  0  0  0  0  0  0  0  0
  -24.4261  -20.9228   17.3761 C   0  0  0  0  0  0  0  0  0  0  0  0
  -29.6127  -17.8247   19.5347 C   0  0  0  0  0  0  0  0  0  0  0  0
  -18.0359  -28.3112   22.8067 C   0  0  0  0  0  0  0  0  0  0  0  0
  -22.8769  -26.4923   18.8472 C   0  0  0  0  0  0  0  0  0  0  0  0
  -24.4438  -24.1803   19.8190 C   0  0  0  0  0  0  0  0  0  0  0  0
  -18.2629  -26.8517   22.4213 C   0  0  0  0  0  0  0  0  0  0  0  0
  -28.7859  -15.5488   16.9919 C   0  0  0  0  0  0  0  0  0  0  0  0
  -19.5432  -26.3236   23.0607 C   0  0  0  0  0  0  0  0  0  0  0  0
  -27.7182  -14.6991   17.6807 C   0  0  0  0  0  0  0  0  0  0  0  0
  -29.8119  -21.1055   18.2758 C   0  0  0  0  0  0  0  0  0  0  0  0
  -31.5849  -20.6338   20.0083 C   0  0  0  0  0  0  0  0  0  0  0  0
  -28.6432  -17.0337   17.3307 C   0  0  0  0  0  0  0  0  0  0  0  0
  -29.9114  -19.6521   17.8032 C   0  0  0  0  0  0  0  0  0  0  0  0
  -31.6693  -19.2028   19.4847 C   0  0  0  0  0  0  0  0  0  0  0  0
  -27.5416  -16.4676   19.4719 C   0  0  0  0  0  0  0  0  0  0  0  0
  -20.7677  -27.1064   22.5716 C   0  0  1  0  0  0  0  0  0  0  0  0
  -22.2145  -25.3122   19.5515 C   0  0  1  0  0  0  0  0  0  0  0  0
  -27.6949  -14.9637   19.1967 C   0  0  1  0  0  0  0  0  0  0  0  0
  -31.1242  -21.5848   18.9006 C   0  0  0  0  0  0  0  0  0  0  0  0
  -24.4889  -18.7440   16.1326 C   0  0  0  0  0  0  0  0  0  0  0  0
  -22.6202  -21.3651   21.9213 C   0  0  0  0  0  0  0  0  0  0  0  0
  -23.6060  -19.4433   20.6551 C   0  0  0  0  0  0  0  0  0  0  0  0
  -21.2713  -20.1817   20.1793 C   0  0  0  0  0  0  0  0  0  0  0  0
  -24.9462  -22.2769   14.7964 C   0  0  0  0  0  0  0  0  0  0  0  0
  -30.5822  -27.6375   19.2030 C   0  0  0  0  0  0  0  0  0  0  0  0
  -29.1092  -28.0463   19.2972 C   0  0  0  0  0  0  0  0  0  1  0  0
  -23.2057  -21.6215   19.4198 C   0  0  1  0  0  0  0  0  0  0  0  0
  -24.2150  -20.2370   16.0384 C   0  0  2  0  0  0  0  0  0  0  0  0
  -22.6875  -20.6788   20.5423 C   0  0  0  0  0  0  0  0  0  0  0  0
  -25.4056  -14.6870   20.0708 N   0  0  0  0  0  0  0  0  0  0  0  0
  -31.1317  -23.8907   17.3386 N   0  0  0  0  0  0  0  0  0  0  0  0
  -30.7711  -25.2277   19.3109 N   0  0  0  0  0  0  0  0  0  0  0  0
  -26.6242  -14.1478   19.8966 N   0  0  0  0  0  0  0  0  0  0  0  0
  -23.0147  -24.0881   19.4773 N   0  0  0  0  0  0  0  0  0  0  0  0
  -28.5851  -17.2323   18.7856 N   0  0  0  0  0  0  0  0  0  0  0  0
  -30.4016  -18.7855   18.8847 N   0  0  0  0  0  0  0  0  0  0  0  0
  -27.9008  -12.1942   20.3023 N   0  0  0  0  0  0  0  0  0  0  0  0
  -23.8661  -11.1869   22.0638 N   0  0  0  0  0  0  0  0  0  0  0  0
  -30.9477  -22.9159   19.4382 N   0  0  0  0  0  0  0  0  0  0  0  0
  -21.1465  -26.6741   21.2434 N   0  0  0  0  0  0  0  0  0  0  0  0
  -23.2542  -21.0062   18.0978 N   0  0  0  0  0  0  0  0  0  0  0  0
  -25.1235  -20.8174   15.0095 N   0  3  0  0  0  0  0  0  0  0  0  0
  -25.9923  -10.4032   21.7119 O   0  0  0  0  0  0  0  0  0  0  0  0
  -22.4458  -24.8405   21.8534 O   0  0  0  0  0  0  0  0  0  0  0  0
  -21.1661  -22.7535   18.9896 O   0  0  0  0  0  0  0  0  0  0  0  0
  -25.5219  -21.3393   17.7455 O   0  0  0  0  0  0  0  0  0  0  0  0
  -29.8138  -17.5136   20.7153 O   0  0  0  0  0  0  0  0  0  0  0  0
  -19.3860  -14.4972   22.1387 O   0  0  0  0  0  0  0  0  0  0  0  0
  -28.3925  -27.0740   20.0473 O   0  0  0  0  0  0  0  0  0  1  0  0
  -17.8484  -12.9804   27.2121 F   0  0  0  0  0  0  0  0  0  0  0  0
  -19.6365  -11.8730   22.9716 F   0  0  0  0  0  0  0  0  0  0  0  0
  1  2  1  0  0  0  0
  1  5  2  0  0  0  0
  2  6  2  0  0  0  0
  3  8  2  0  0  0  0
  3 16  1  0  0  0  0
  4  9  1  0  0  0  0
  4 16  2  0  0  0  0
  5 18  1  0  0  0  0
  6 20  1  0  0  0  0
  7 10  2  0  0  0  0
  7 19  1  0  0  0  0
  8 22  1  0  0  0  0
  9 22  2  0  0  0  0
 10 23  1  0  0  0  0
 11 12  2  0  0  0  0
 11 24  1  0  0  0  0
 12 25  1  0  0  0  0
 13 21  1  0  0  0  0
 13 23  2  0  0  0  0
 14 25  2  0  0  0  0
 14 26  1  0  0  0  0
 15 28  1  0  0  0  0
 15 29  2  0  0  0  0
 16 27  1  0  0  0  0
 17 27  1  0  0  0  0
 17 30  2  0  0  0  0
 17 34  1  0  0  0  0
 18 20  2  0  0  0  0
 18 39  1  0  0  0  0
 19 21  2  0  0  0  0
 19 40  1  0  0  0  0
 20 52  1  0  0  0  0
 21 41  1  0  0  0  0
 22 84  1  0  0  0  0
 23 85  1  0  0  0  0
 24 26  2  0  0  0  0
 24 84  1  0  0  0  0
 25 86  1  0  0  0  0
 26 87  1  0  0  0  0
 27 66  2  0  0  0  0
 28 33  1  0  0  0  0
 28 67  2  0  0  0  0
 29 61  1  0  0  0  0
 29 68  1  0  0  0  0
 30 69  1  0  0  0  0
 30 73  1  0  0  0  0
 31 67  1  0  0  0  0
 31 68  2  0  0  0  0
 31 75  1  0  0  0  0
 32 33  2  0  0  0  0
 34 74  1  0  0  0  0
 34 79  2  0  0  0  0
 35 53  1  0  0  0  0
 35 76  1  0  0  0  0
 35 80  2  0  0  0  0
 36 63  1  0  0  0  0
 36 70  1  0  0  0  0
 36 81  2  0  0  0  0
 37 64  1  0  0  0  0
 37 77  1  0  0  0  0
 37 82  2  0  0  0  0
 38 71  1  0  0  0  0
 38 72  1  0  0  0  0
 38 83  2  0  0  0  0
 39 42  1  0  0  0  0
 40 53  1  0  0  0  0
 41 70  1  0  0  0  0
 42 44  1  0  0  0  0
 43 45  1  0  0  0  0
 43 48  1  0  0  0  0
 44 52  1  0  0  0  0
 45 54  1  0  0  0  0
 46 49  1  0  0  0  0
 46 55  1  0  0  0  0
 47 50  1  0  0  0  0
 47 55  1  0  0  0  0
 48 71  1  0  0  0  0
 49 72  1  0  0  0  0
 50 72  1  0  0  0  0
 51 54  1  0  0  0  0
 51 71  1  0  0  0  0
 52 76  1  0  0  0  0
 53 70  1  0  0  0  0
 54 69  1  0  0  0  0
 55 75  1  0  0  0  0
 56 64  1  0  0  0  0
 57 65  1  0  0  0  0
 58 65  1  0  0  0  0
 59 65  1  0  0  0  0
 60 78  1  0  0  0  0
 61 62  1  0  0  0  0
 62 85  1  0  0  0  0
 63 65  1  0  0  0  0
 63 77  1  0  0  0  0
 64 78  1  0  0  0  0
 66 69  1  0  0  0  0
M  CHG  1  78   1
M  ISO  4  38 100  62 101  72 100  85 101
M  END
> <Batch ID>
0199

> <Smiles>
C=Cc1cc(C[101CH2:1][101O:1]c2ccc3c(c2)CN(C(=O)C(NC(=O)C(C)NC)C(C)(C)C)C(C(=O)NC2CCCc4ccccc42)C3)nc(NC2CC[100N:0]([100C:0](=O)N3CCCC(n4nc(-c5ccc(Oc6ccc(F)cc6F)cc5)c(C(N)=O)c4N)C3)CC2)n1

> <Shape>
0.224

> <Color>
0.081

> <Negative vol penalty>
0.000

$$$$

  -OEChem-04052323503D

 86 96  0     1  0  0  0  0  0999 V2000
  -32.3304  -37.9506   21.4832 C   0  0  0  0  0  0  0  0  0  0  0  0
  -32.2563  -36.9232   20.5481 C   0  0  0  0  0  0  0  0  0  0  0  0
  -24.4097   -9.1037   22.2533 C   0  0  0  0  0  0  0  0  0  0  0  0
  -23.8967   -9.1379   19.8927 C   0  0  0  0  0  0  0  0  0  0  0  0
  -31.9593  -37.7155   22.8064 C   0  0  0  0  0  0  0  0  0  0  0  0
  -31.8119  -35.6597   20.9360 C   0  0  0  0  0  0  0  0  0  0  0  0
  -28.1962  -30.0030   18.4372 C   0  0  0  0  0  0  0  0  0  0  0  0
  -23.3070   -8.2805   22.4811 C   0  0  0  0  0  0  0  0  0  0  0  0
  -22.7939   -8.3147   20.1204 C   0  0  0  0  0  0  0  0  0  0  0  0
  -28.3156  -28.6200   18.3075 C   0  0  0  0  0  0  0  0  0  0  0  0
  -22.5304   -5.0069   22.1439 C   0  0  0  0  0  0  0  0  0  0  0  0
  -22.7055   -3.9059   22.9821 C   0  0  0  0  0  0  0  0  0  0  0  0
  -27.6256  -28.3511   20.6033 C   0  0  0  0  0  0  0  0  0  0  0  0
  -21.0126   -4.7714   24.4727 C   0  0  0  0  0  0  0  0  0  0  0  0
  -27.6102  -23.7162   17.4004 C   0  0  0  0  0  0  0  0  0  0  0  0
  -24.7046   -9.5325   20.9591 C   0  0  0  0  0  0  0  0  0  0  0  0
  -27.1599   -9.9799   20.4311 C   0  0  0  0  0  0  0  0  0  0  0  0
  -31.5010  -36.4510   23.2086 C   0  0  0  0  0  0  0  0  0  0  0  0
  -27.8004  -30.5720   19.6562 C   0  0  0  0  0  0  0  0  0  0  0  0
  -31.4356  -35.4070   22.2662 C   0  0  0  0  0  0  0  0  0  0  0  0
  -27.4994  -29.7414   20.7451 C   0  0  0  0  0  0  0  0  0  0  0  0
  -28.5936  -24.4573   18.0235 C   0  0  0  0  0  0  0  0  0  0  0  0
  -22.4991   -7.8859   21.4147 C   0  0  0  0  0  0  0  0  0  0  0  0
  -28.0331  -27.7939   19.3914 C   0  0  0  0  0  0  0  0  0  0  0  0
  -21.5964   -5.9903   22.4701 C   0  0  0  0  0  0  0  0  0  0  0  0
  -21.9466   -3.7881   24.1465 C   0  0  0  0  0  0  0  0  0  0  0  0
  -20.8375   -5.8725   23.6345 C   0  0  0  0  0  0  0  0  0  0  0  0
  -25.8432  -10.3833   20.7233 C   0  0  0  0  0  0  0  0  0  0  0  0
  -29.5792  -23.7284   18.6571 C   0  0  0  0  0  0  0  0  0  0  0  0
  -27.8571  -11.1555   20.2957 C   0  0  0  0  0  0  0  0  0  0  0  0
  -28.5978  -21.7722   18.0427 C   0  0  0  0  0  0  0  0  0  0  0  0
  -27.7040   -8.6605   20.2941 C   0  0  0  0  0  0  0  0  0  0  0  0
  -29.1408  -32.5584   21.7446 C   0  0  0  0  0  0  0  0  0  0  0  0
  -26.2230  -32.4229   23.1553 C   0  0  0  0  0  0  0  0  0  0  0  0
  -23.3143  -30.7037   23.6360 C   0  0  0  0  0  0  0  0  0  0  0  0
  -28.4723  -16.1643   18.4580 C   0  0  0  0  0  0  0  0  0  0  0  0
  -31.1559  -36.2320   24.6604 C   0  0  0  0  0  0  0  0  0  0  0  0
  -27.6506  -32.0641   19.7720 C   0  0  0  0  0  0  0  0  0  0  0  0
  -27.0511  -30.3014   22.0695 C   0  0  0  0  0  0  0  0  0  0  0  0
  -30.3402  -34.9657   24.9081 C   0  0  0  0  0  0  0  0  0  0  0  0
  -26.5575  -15.9118   21.3921 C   0  0  0  0  0  0  0  0  0  0  0  0
  -30.9463  -33.7847   24.1567 C   0  0  0  0  0  0  0  0  0  0  0  0
  -31.4014  -23.7375   20.4883 C   0  0  0  0  0  0  0  0  0  0  0  0
  -30.4854  -24.8838   20.7836 C   0  0  0  0  0  0  0  0  0  0  0  0
  -26.3018  -14.4065   21.4594 C   0  0  0  0  0  0  0  0  0  0  0  0
  -26.4538  -16.4474   19.9632 C   0  0  0  0  0  0  0  0  0  0  0  0
  -29.6787  -19.6591   18.7459 C   0  0  0  0  0  0  0  0  0  0  0  0
  -27.3022  -19.6867   17.9729 C   0  0  0  0  0  0  0  0  0  0  0  0
  -29.8083  -18.2259   18.2372 C   0  0  0  0  0  0  0  0  0  0  0  0
  -27.4776  -18.2592   17.4670 C   0  0  0  0  0  0  0  0  0  0  0  0
  -27.0519  -14.2250   19.0569 C   0  0  0  0  0  0  0  0  0  0  0  0
  -30.9351  -34.0295   22.6430 C   0  0  1  0  0  0  0  0  0  0  0  0
  -30.6901  -24.4366   19.3613 C   0  0  0  0  0  0  0  0  0  0  0  0
  -27.7362  -32.5633   21.2111 C   0  0  1  0  0  0  0  0  0  0  0  0
  -27.2069  -13.6478   20.4726 C   0  0  2  0  0  0  0  0  0  0  0  0
  -21.1338  -30.8280   24.8718 C   0  0  0  0  0  0  0  0  0  0  0  0
  -27.6478  -31.6541   25.7416 C   0  0  0  0  0  0  0  0  0  0  0  0
  -25.4442  -30.8802   26.6437 C   0  0  0  0  0  0  0  0  0  0  0  0
  -25.7664  -33.2764   26.0296 C   0  0  0  0  0  0  0  0  0  0  0  0
  -21.7550  -30.6915   21.1206 C   0  0  0  0  0  0  0  0  0  0  0  0
  -28.5662  -25.9426   17.9971 C   0  0  0  0  0  0  0  0  0  1  0  0
  -25.5802  -31.5421   24.1994 C   0  0  1  0  0  0  0  0  0  0  0  0
  -21.8626  -31.1433   23.5748 C   0  0  2  0  0  0  0  0  0  0  0  0
  -26.1199  -31.8275   25.6293 C   0  0  0  0  0  0  0  0  0  0  0  0
  -27.5812  -22.3674   17.3902 N   0  0  0  0  0  0  0  0  0  0  0  0
  -25.7094  -11.7114   20.7711 N   0  0  0  0  0  0  0  0  0  0  0  0
  -29.6124  -22.3799   18.6868 N   0  0  0  0  0  0  0  0  0  0  0  0
  -26.9511  -12.1527   20.5072 N   0  0  0  0  0  0  0  0  0  0  0  0
  -28.5997  -20.3715   18.0530 N   0  0  0  0  0  0  0  0  0  0  0  0
  -26.9258  -31.7669   22.1348 N   0  0  0  0  0  0  0  0  0  0  0  0
  -27.3024  -15.6678   19.0520 N   0  0  0  0  0  0  0  0  0  0  0  0
  -28.5197  -17.5446   18.2070 N   0  0  0  0  0  0  0  0  0  0  0  0
  -29.1508  -11.4231   20.0177 N   0  0  0  0  0  0  0  0  0  0  0  0
  -26.8482   -7.5638   20.4650 N   0  0  0  0  0  0  0  0  0  0  0  0
  -29.6102  -33.8071   22.1048 N   0  0  0  0  0  0  0  0  0  0  0  0
  -24.1398  -31.7248   24.0569 N   0  0  0  0  0  0  0  0  0  0  0  0
  -21.1581  -30.4500   22.4594 N   0  3  0  0  0  0  0  0  0  0  0  0
  -28.9168   -8.4598   20.0443 O   0  0  0  0  0  0  0  0  0  0  0  0
  -29.7529  -31.4998   21.8248 O   0  0  0  0  0  0  0  0  0  0  0  0
  -26.0999  -33.6475   23.2382 O   0  0  0  0  0  0  0  0  0  0  0  0
  -23.6791  -29.5671   23.3434 O   0  0  0  0  0  0  0  0  0  0  0  0
  -29.4196  -15.4218   18.1712 O   0  0  0  0  0  0  0  0  0  0  0  0
  -21.4231   -7.0824   21.6365 O   0  0  0  0  0  0  0  0  0  0  0  0
  -28.1502  -26.4353   19.2669 O   0  0  0  0  0  0  0  0  0  1  0  0
  -22.1138   -2.7299   24.9505 F   0  0  0  0  0  0  0  0  0  0  0  0
  -19.9379   -6.8134   23.9526 F   0  0  0  0  0  0  0  0  0  0  0  0
  1  2  1  0  0  0  0
  1  5  2  0  0  0  0
  2  6  2  0  0  0  0
  3  8  2  0  0  0  0
  3 16  1  0  0  0  0
  4  9  1  0  0  0  0
  4 16  2  0  0  0  0
  5 18  1  0  0  0  0
  6 20  1  0  0  0  0
  7 10  2  0  0  0  0
  7 19  1  0  0  0  0
  8 23  1  0  0  0  0
  9 23  2  0  0  0  0
 10 24  1  0  0  0  0
 11 12  2  0  0  0  0
 11 25  1  0  0  0  0
 12 26  1  0  0  0  0
 13 21  1  0  0  0  0
 13 24  2  0  0  0  0
 14 26  2  0  0  0  0
 14 27  1  0  0  0  0
 15 22  1  0  0  0  0
 15 65  2  0  0  0  0
 16 28  1  0  0  0  0
 17 28  1  0  0  0  0
 17 30  2  0  0  0  0
 17 32  1  0  0  0  0
 18 20  2  0  0  0  0
 18 37  1  0  0  0  0
 19 21  2  0  0  0  0
 19 38  1  0  0  0  0
 20 52  1  0  0  0  0
 21 39  1  0  0  0  0
 22 29  2  0  0  0  0
 22 61  1  0  0  0  0
 23 83  1  0  0  0  0
 24 84  1  0  0  0  0
 25 27  2  0  0  0  0
 25 83  1  0  0  0  0
 26 85  1  0  0  0  0
 27 86  1  0  0  0  0
 28 66  2  0  0  0  0
 29 53  1  0  0  0  0
 29 67  1  0  0  0  0
 30 68  1  0  0  0  0
 30 73  1  0  0  0  0
 31 65  1  0  0  0  0
 31 67  2  0  0  0  0
 31 69  1  0  0  0  0
 32 74  1  0  0  0  0
 32 78  2  0  0  0  0
 33 54  1  0  0  0  0
 33 75  1  0  0  0  0
 33 79  2  0  0  0  0
 34 62  1  0  0  0  0
 34 70  1  0  0  0  0
 34 80  2  0  0  0  0
 35 63  1  0  0  0  0
 35 76  1  0  0  0  0
 35 81  2  0  0  0  0
 36 71  1  0  0  0  0
 36 72  1  0  0  0  0
 36 82  2  0  0  0  0
 37 40  1  0  0  0  0
 38 54  1  0  0  0  0
 39 70  1  0  0  0  0
 40 42  1  0  0  0  0
 41 45  1  0  0  0  0
 41 46  1  0  0  0  0
 42 52  1  0  0  0  0
 43 44  1  0  0  0  0
 43 53  1  0  0  0  0
 44 53  1  0  0  0  0
 45 55  1  0  0  0  0
 46 71  1  0  0  0  0
 47 49  1  0  0  0  0
 47 69  1  0  0  0  0
 48 50  1  0  0  0  0
 48 69  1  0  0  0  0
 49 72  1  0  0  0  0
 50 72  1  0  0  0  0
 51 55  1  0  0  0  0
 51 71  1  0  0  0  0
 52 75  1  0  0  0  0
 54 70  1  0  0  0  0
 55 68  1  0  0  0  0
 56 63  1  0  0  0  0
 57 64  1  0  0  0  0
 58 64  1  0  0  0  0
 59 64  1  0  0  0  0
 60 77  1  0  0  0  0
 61 84  1  0  0  0  0
 62 64  1  0  0  0  0
 62 76  1  0  0  0  0
 63 77  1  0  0  0  0
 66 68  1  0  0  0  0
M  CHG  1  77   1
M  ISO  4  36 100  61 101  72 100  84 101
M  END
> <Batch ID>
0199

> <Smiles>
CNC(C)C(=O)NC(C(=O)N1Cc2cc([101O:1][101CH2:1]c3cnc(N4CC[100N:0]([100C:0](=O)N5CCCC(n6nc(-c7ccc(Oc8ccc(F)cc8F)cc7)c(C(N)=O)c6N)C5)CC4)nc3C3CC3)ccc2CC1C(=O)NC1CCCc2ccccc21)C(C)(C)C

> <Shape>
0.267

> <Color>
0.111

> <Negative vol penalty>
0.000

$$$$

  -OEChem-04052323503D

 83 92  0     1  0  0  0  0  0999 V2000
  -28.4765  -37.9006   24.7260 C   0  0  0  0  0  0  0  0  0  0  0  0
  -28.9079  -36.9705   23.7857 C   0  0  0  0  0  0  0  0  0  0  0  0
  -24.4172   -9.0152   22.1720 C   0  0  0  0  0  0  0  0  0  0  0  0
  -23.8258   -9.1775   19.8352 C   0  0  0  0  0  0  0  0  0  0  0  0
  -27.5407  -37.5316   25.6914 C   0  0  0  0  0  0  0  0  0  0  0  0
  -28.4044  -35.6704   23.8109 C   0  0  0  0  0  0  0  0  0  0  0  0
  -26.7085  -30.2548   19.4392 C   0  0  0  0  0  0  0  0  0  0  0  0
  -23.3704   -8.1160   22.3746 C   0  0  0  0  0  0  0  0  0  0  0  0
  -22.7789   -8.2782   20.0377 C   0  0  0  0  0  0  0  0  0  0  0  0
  -26.9516  -28.8927   19.2673 C   0  0  0  0  0  0  0  0  0  0  0  0
  -22.7675   -4.8328   21.8361 C   0  0  0  0  0  0  0  0  0  0  0  0
  -23.0314   -3.6902   22.5914 C   0  0  0  0  0  0  0  0  0  0  0  0
  -25.2795  -28.3904   20.9320 C   0  0  0  0  0  0  0  0  0  0  0  0
  -21.3425   -4.3544   24.1863 C   0  0  0  0  0  0  0  0  0  0  0  0
  -27.1246  -22.8509   17.7158 C   0  0  0  0  0  0  0  0  0  0  0  0
  -24.6449   -9.5460   20.9023 C   0  0  0  0  0  0  0  0  0  0  0  0
  -27.0527  -10.1695   20.3353 C   0  0  0  0  0  0  0  0  0  0  0  0
  -27.0182  -36.2290   25.7224 C   0  0  0  0  0  0  0  0  0  0  0  0
  -25.7552  -30.6959   20.3682 C   0  0  0  0  0  0  0  0  0  0  0  0
  -27.4617  -35.2832   24.7784 C   0  0  0  0  0  0  0  0  0  0  0  0
  -25.0244  -29.7584   21.1120 C   0  0  0  0  0  0  0  0  0  0  0  0
  -22.5512   -7.7474   21.3075 C   0  0  0  0  0  0  0  0  0  0  0  0
  -26.2391  -27.9604   20.0158 C   0  0  0  0  0  0  0  0  0  0  0  0
  -21.7911   -5.7363   22.2560 C   0  0  0  0  0  0  0  0  0  0  0  0
  -22.3189   -3.4510   23.7664 C   0  0  0  0  0  0  0  0  0  0  0  0
  -21.0787   -5.4970   23.4311 C   0  0  0  0  0  0  0  0  0  0  0  0
  -25.7258  -10.4754   20.6926 C   0  0  0  0  0  0  0  0  0  0  0  0
  -27.7494  -22.1587   18.7213 C   0  0  0  0  0  0  0  0  0  0  0  0
  -27.6783  -11.3900   20.2608 C   0  0  0  0  0  0  0  0  0  0  0  0
  -27.5606  -24.7758   18.8133 C   0  0  0  0  0  0  0  0  0  0  0  0
  -27.6650   -8.8960   20.0924 C   0  0  0  0  0  0  0  0  0  0  0  0
  -25.8439  -32.4781   22.9988 C   0  0  0  0  0  0  0  0  0  0  0  0
  -22.6180  -32.1745   22.8440 C   0  0  0  0  0  0  0  0  0  0  0  0
  -19.9255  -30.3877   21.7465 C   0  0  0  0  0  0  0  0  0  0  0  0
  -27.9515  -16.5378   18.7542 C   0  0  0  0  0  0  0  0  0  0  0  0
  -26.0439  -35.8634   26.8141 C   0  0  0  0  0  0  0  0  0  0  0  0
  -25.4858  -32.1677   20.5226 C   0  0  0  0  0  0  0  0  0  0  0  0
  -23.9758  -30.1797   22.1077 C   0  0  0  0  0  0  0  0  0  0  0  0
  -25.2794  -34.5709   26.5405 C   0  0  0  0  0  0  0  0  0  0  0  0
  -26.1513  -15.9789   21.7183 C   0  0  0  0  0  0  0  0  0  0  0  0
  -26.2322  -33.4763   26.0704 C   0  0  0  0  0  0  0  0  0  0  0  0
  -25.9825  -14.4601   21.6895 C   0  0  0  0  0  0  0  0  0  0  0  0
  -25.9708  -16.6019   20.3331 C   0  0  0  0  0  0  0  0  0  0  0  0
  -28.9693  -20.0696   19.2462 C   0  0  0  0  0  0  0  0  0  0  0  0
  -26.5708  -20.0109   18.5461 C   0  0  0  0  0  0  0  0  0  0  0  0
  -29.1621  -18.6836   18.6368 C   0  0  0  0  0  0  0  0  0  0  0  0
  -26.8091  -18.6329   17.9385 C   0  0  0  0  0  0  0  0  0  0  0  0
  -26.6623  -14.4836   19.2595 C   0  0  0  0  0  0  0  0  0  0  0  0
  -26.9203  -33.8702   24.7578 C   0  0  1  0  0  0  0  0  0  0  0  0
  -24.8570  -32.5223   21.8666 C   0  0  1  0  0  0  0  0  0  0  0  0
  -26.8958  -13.8230   20.6271 C   0  0  2  0  0  0  0  0  0  0  0  0
  -17.4169  -30.3673   21.8087 C   0  0  0  0  0  0  0  0  0  0  0  0
  -22.7001  -31.1667   25.7228 C   0  0  0  0  0  0  0  0  0  0  0  0
  -20.3780  -30.2854   25.4069 C   0  0  0  0  0  0  0  0  0  0  0  0
  -20.8172  -32.7338   25.2194 C   0  0  0  0  0  0  0  0  0  0  0  0
  -19.7350  -30.6102   18.8015 C   0  0  0  0  0  0  0  0  0  0  0  0
  -27.4661  -26.2605   18.8929 C   0  0  0  0  0  0  0  0  0  1  0  0
  -21.6099  -31.1882   23.3824 C   0  0  1  0  0  0  0  0  0  0  0  0
  -18.6510  -30.8169   21.0423 C   0  0  2  0  0  0  0  0  0  0  0  0
  -21.3974  -31.3353   24.9156 C   0  0  0  0  0  0  0  0  0  0  0  0
  -27.0146  -24.1878   17.7384 N   0  0  0  0  0  0  0  0  0  0  0  0
  -25.5196  -11.7873   20.8353 N   0  0  0  0  0  0  0  0  0  0  0  0
  -28.2790  -22.8037   19.7765 N   0  0  0  0  0  0  0  0  0  0  0  0
  -28.1851  -24.1487   19.8295 N   0  0  0  0  0  0  0  0  0  0  0  0
  -26.7253  -12.3166   20.5664 N   0  0  0  0  0  0  0  0  0  0  0  0
  -27.8300  -20.7630   18.6353 N   0  0  0  0  0  0  0  0  0  0  0  0
  -23.7533  -31.6301   22.2272 N   0  0  0  0  0  0  0  0  0  0  0  0
  -26.8314  -15.9356   19.3464 N   0  0  0  0  0  0  0  0  0  0  0  0
  -27.9134  -17.9322   18.5972 N   0  0  0  0  0  0  0  0  0  0  0  0
  -28.9451  -11.7503   19.9645 N   0  0  0  0  0  0  0  0  0  0  0  0
  -26.8780   -7.7426   20.2123 N   0  0  0  0  0  0  0  0  0  0  0  0
  -26.0186  -33.6894   23.6404 N   0  0  0  0  0  0  0  0  0  0  0  0
  -20.3980  -31.3700   22.5910 N   0  0  0  0  0  0  0  0  0  0  0  0
  -18.5933  -30.2311   19.6732 N   0  3  0  0  0  0  0  0  0  0  0  0
  -28.8782   -8.7832   19.7944 O   0  0  0  0  0  0  0  0  0  0  0  0
  -26.4042  -31.4228   23.2711 O   0  0  0  0  0  0  0  0  0  0  0  0
  -22.4025  -33.3836   22.9599 O   0  0  0  0  0  0  0  0  0  0  0  0
  -20.4475  -29.2894   21.5683 O   0  0  0  0  0  0  0  0  0  0  0  0
  -28.9289  -15.8723   18.3898 O   0  0  0  0  0  0  0  0  0  0  0  0
  -21.5298   -6.8698   21.5047 O   0  0  0  0  0  0  0  0  0  0  0  0
  -26.4765  -26.6214   19.8494 O   0  0  0  0  0  0  0  0  0  1  0  0
  -22.5713   -2.3529   24.4908 F   0  0  0  0  0  0  0  0  0  0  0  0
  -20.1387   -6.3608   23.8389 F   0  0  0  0  0  0  0  0  0  0  0  0
  1  2  1  0  0  0  0
  1  5  2  0  0  0  0
  2  6  2  0  0  0  0
  3  8  2  0  0  0  0
  3 16  1  0  0  0  0
  4  9  1  0  0  0  0
  4 16  2  0  0  0  0
  5 18  1  0  0  0  0
  6 20  1  0  0  0  0
  7 10  2  0  0  0  0
  7 19  1  0  0  0  0
  8 22  1  0  0  0  0
  9 22  2  0  0  0  0
 10 23  1  0  0  0  0
 11 12  2  0  0  0  0
 11 24  1  0  0  0  0
 12 25  1  0  0  0  0
 13 21  1  0  0  0  0
 13 23  2  0  0  0  0
 14 25  2  0  0  0  0
 14 26  1  0  0  0  0
 15 28  1  0  0  0  0
 15 61  2  0  0  0  0
 16 27  1  0  0  0  0
 17 27  1  0  0  0  0
 17 29  2  0  0  0  0
 17 31  1  0  0  0  0
 18 20  2  0  0  0  0
 18 36  1  0  0  0  0
 19 21  2  0  0  0  0
 19 37  1  0  0  0  0
 20 49  1  0  0  0  0
 21 38  1  0  0  0  0
 22 80  1  0  0  0  0
 23 81  1  0  0  0  0
 24 26  2  0  0  0  0
 24 80  1  0  0  0  0
 25 82  1  0  0  0  0
 26 83  1  0  0  0  0
 27 62  2  0  0  0  0
 28 63  2  0  0  0  0
 28 66  1  0  0  0  0
 29 65  1  0  0  0  0
 29 70  1  0  0  0  0
 30 57  1  0  0  0  0
 30 61  1  0  0  0  0
 30 64  2  0  0  0  0
 31 71  1  0  0  0  0
 31 75  2  0  0  0  0
 32 50  1  0  0  0  0
 32 72  1  0  0  0  0
 32 76  2  0  0  0  0
 33 58  1  0  0  0  0
 33 67  1  0  0  0  0
 33 77  2  0  0  0  0
 34 59  1  0  0  0  0
 34 73  1  0  0  0  0
 34 78  2  0  0  0  0
 35 68  1  0  0  0  0
 35 69  1  0  0  0  0
 35 79  2  0  0  0  0
 36 39  1  0  0  0  0
 37 50  1  0  0  0  0
 38 67  1  0  0  0  0
 39 41  1  0  0  0  0
 40 42  1  0  0  0  0
 40 43  1  0  0  0  0
 41 49  1  0  0  0  0
 42 51  1  0  0  0  0
 43 68  1  0  0  0  0
 44 46  1  0  0  0  0
 44 66  1  0  0  0  0
 45 47  1  0  0  0  0
 45 66  1  0  0  0  0
 46 69  1  0  0  0  0
 47 69  1  0  0  0  0
 48 51  1  0  0  0  0
 48 68  1  0  0  0  0
 49 72  1  0  0  0  0
 50 67  1  0  0  0  0
 51 65  1  0  0  0  0
 52 59  1  0  0  0  0
 53 60  1  0  0  0  0
 54 60  1  0  0  0  0
 55 60  1  0  0  0  0
 56 74  1  0  0  0  0
 57 81  1  0  0  0  0
 58 60  1  0  0  0  0
 58 73  1  0  0  0  0
 59 74  1  0  0  0  0
 62 65  1  0  0  0  0
 63 64  1  0  0  0  0
M  CHG  1  74   1
M  ISO  4  35 100  57 101  69 100  81 101
M  END
> <Batch ID>
0199

> <Smiles>
CNC(C)C(=O)NC(C(=O)N1Cc2cc([101O:1][101CH2:1]c3ncc(N4CC[100N:0]([100C:0](=O)N5CCCC(n6nc(-c7ccc(Oc8ccc(F)cc8F)cc7)c(C(N)=O)c6N)C5)CC4)nn3)ccc2CC1C(=O)NC1CCCc2ccccc21)C(C)(C)C

> <Shape>
0.281

> <Color>
0.083

> <Negative vol penalty>
0.000

$$$$

  -OEChem-04052323503D

 84 93  0     1  0  0  0  0  0999 V2000
  -24.4929  -23.5053   20.3819 C   0  0  0  0  0  0  0  0  0  0  0  0
  -24.7558  -22.4031   19.5764 C   0  0  0  0  0  0  0  0  0  0  0  0
  -25.7688  -27.5242   19.1565 C   0  0  0  0  0  0  0  0  0  0  0  0
  -26.6868  -28.8118   20.9831 C   0  0  0  0  0  0  0  0  0  0  0  0
  -24.3388  -23.3383   21.7565 C   0  0  0  0  0  0  0  0  0  0  0  0
  -24.8528  -21.1319   20.1435 C   0  0  0  0  0  0  0  0  0  0  0  0
  -26.2770  -15.7692   17.6254 C   0  0  0  0  0  0  0  0  0  0  0  0
  -24.6752  -28.3879   19.0972 C   0  0  0  0  0  0  0  0  0  0  0  0
  -25.5932  -29.6757   20.9237 C   0  0  0  0  0  0  0  0  0  0  0  0
  -27.4232  -15.0050   17.4111 C   0  0  0  0  0  0  0  0  0  0  0  0
  -21.4629  -30.0459   18.7027 C   0  0  0  0  0  0  0  0  0  0  0  0
  -20.1934  -29.4802   18.5842 C   0  0  0  0  0  0  0  0  0  0  0  0
  -26.9428  -13.7363   19.4059 C   0  0  0  0  0  0  0  0  0  0  0  0
  -20.5196  -28.3106   20.6730 C   0  0  0  0  0  0  0  0  0  0  0  0
  -26.7746  -27.7361   20.0995 C   0  0  0  0  0  0  0  0  0  0  0  0
  -29.1218  -26.9640   19.4654 C   0  0  0  0  0  0  0  0  0  0  0  0
  -24.4465  -22.0658   22.3416 C   0  0  0  0  0  0  0  0  0  0  0  0
  -25.4596  -15.5295   18.7393 C   0  0  0  0  0  0  0  0  0  0  0  0
  -24.6766  -20.9394   21.5257 C   0  0  0  0  0  0  0  0  0  0  0  0
  -25.7854  -14.4973   19.6306 C   0  0  0  0  0  0  0  0  0  0  0  0
  -24.5874  -29.4637   19.9807 C   0  0  0  0  0  0  0  0  0  0  0  0
  -27.7578  -13.9902   18.3030 C   0  0  0  0  0  0  0  0  0  0  0  0
  -22.2608  -29.7439   19.8063 C   0  0  0  0  0  0  0  0  0  0  0  0
  -19.7217  -28.6126   19.5693 C   0  0  0  0  0  0  0  0  0  0  0  0
  -21.7891  -28.8763   20.7914 C   0  0  0  0  0  0  0  0  0  0  0  0
  -27.9043  -26.8438   20.1617 C   0  0  0  0  0  0  0  0  0  0  0  0
  -29.8555  -25.8742   19.8660 C   0  0  0  0  0  0  0  0  0  0  0  0
  -29.5512  -27.9708   18.5392 C   0  0  0  0  0  0  0  0  0  0  0  0
  -24.5715  -17.2260   21.2765 C   0  0  0  0  0  0  0  0  0  0  0  0
  -22.6662  -14.6614   21.8379 C   0  0  0  0  0  0  0  0  0  0  0  0
  -22.0762  -11.3328   21.3699 C   0  0  0  0  0  0  0  0  0  0  0  0
  -29.8919  -20.3450   20.7137 C   0  0  0  0  0  0  0  0  0  0  0  0
  -24.2632  -21.9411   23.8336 C   0  0  0  0  0  0  0  0  0  0  0  0
  -24.2122  -16.3452   18.9417 C   0  0  0  0  0  0  0  0  0  0  0  0
  -24.9302  -14.1864   20.8308 C   0  0  0  0  0  0  0  0  0  0  0  0
  -24.8202  -20.6366   24.3940 C   0  0  0  0  0  0  0  0  0  0  0  0
  -29.0550  -22.5421   23.5821 C   0  0  0  0  0  0  0  0  0  0  0  0
  -24.3161  -19.4602   23.5714 C   0  0  0  0  0  0  0  0  0  0  0  0
  -28.7416  -23.8589   22.8701 C   0  0  0  0  0  0  0  0  0  0  0  0
  -32.0776  -18.3139   22.8605 C   0  0  0  0  0  0  0  0  0  0  0  0
  -32.9805  -13.9069   21.1181 C   0  0  0  0  0  0  0  0  0  0  0  0
  -28.6976  -21.3496   22.7045 C   0  0  0  0  0  0  0  0  0  0  0  0
  -31.0274  -19.4195   22.8180 C   0  0  0  0  0  0  0  0  0  0  0  0
  -32.7120  -13.0550   19.8768 C   0  0  0  0  0  0  0  0  0  0  0  0
  -29.0487  -22.6640   20.6487 C   0  0  0  0  0  0  0  0  0  0  0  0
  -30.8201  -18.0504   20.8529 C   0  0  0  0  0  0  0  0  0  0  0  0
  -31.4386  -15.0002   19.6348 C   0  0  0  0  0  0  0  0  0  0  0  0
  -24.8167  -19.5515   22.1243 C   0  0  1  0  0  0  0  0  0  0  0  0
  -23.7309  -16.3519   20.3893 C   0  0  1  0  0  0  0  0  0  0  0  0
  -29.4008  -23.9106   21.4797 C   0  0  1  0  0  0  0  0  0  0  0  0
  -31.4407  -17.2478   21.9817 C   0  0  1  0  0  0  0  0  0  0  0  0
  -31.9068  -14.9847   21.0762 C   0  0  2  0  0  0  0  0  0  0  0  0
  -20.4606   -9.5132   21.9835 C   0  0  0  0  0  0  0  0  0  0  0  0
  -31.3695  -11.7812   17.6667 C   0  0  0  0  0  0  0  0  0  0  0  0
  -23.8826  -14.5273   24.6330 C   0  0  0  0  0  0  0  0  0  0  0  0
  -22.9741  -12.2036   24.8411 C   0  0  0  0  0  0  0  0  0  0  0  0
  -21.4151  -14.1289   24.5489 C   0  0  0  0  0  0  0  0  0  0  0  0
  -21.3630  -10.8516   18.5382 C   0  0  0  0  0  0  0  0  0  0  0  0
  -29.9672  -13.8765   17.4302 C   0  0  0  0  0  0  0  0  0  1  0  0
  -22.8176  -13.3614   22.5903 C   0  0  1  0  0  0  0  0  0  0  0  0
  -20.8230  -10.5796   20.9616 C   0  0  2  0  0  0  0  0  0  0  0  0
  -31.2913  -13.2873   17.9184 C   0  0  1  0  0  0  0  0  0  0  0  0
  -22.7897  -13.5622   24.1319 C   0  0  0  0  0  0  0  0  0  0  0  0
  -27.8629  -25.7629   20.9452 N   0  0  0  0  0  0  0  0  0  0  0  0
  -29.0636  -25.1939   20.7435 N   0  0  0  0  0  0  0  0  0  0  0  0
  -23.7242  -15.0159   20.9889 N   0  0  0  0  0  0  0  0  0  0  0  0
  -29.3501  -21.4406   21.3953 N   0  0  0  0  0  0  0  0  0  0  0  0
  -30.4395  -19.3159   21.4783 N   0  0  0  0  0  0  0  0  0  0  0  0
  -31.4472  -13.5657   19.3378 N   0  0  1  0  0  0  0  0  0  0  0  0
  -31.0944  -25.4411   19.5497 N   0  0  0  0  0  0  0  0  0  0  0  0
  -28.6729  -29.0210   18.2393 N   0  0  0  0  0  0  0  0  0  0  0  0
  -24.1522  -18.5416   21.3303 N   0  0  0  0  0  0  0  0  0  0  0  0
  -21.7765  -12.4734   22.0845 N   0  0  0  0  0  0  0  0  0  0  0  0
  -32.4453  -16.2966   21.4787 N   0  3  0  0  0  0  0  0  0  0  0  0
  -21.0237   -9.9169   19.6420 N   0  3  0  0  0  0  0  0  0  0  0  0
  -30.6740  -27.9312   17.9813 O   0  0  0  0  0  0  0  0  0  0  0  0
  -25.5286  -16.7423   21.8694 O   0  0  0  0  0  0  0  0  0  0  0  0
  -21.6437  -15.3339   21.9922 O   0  0  0  0  0  0  0  0  0  0  0  0
  -23.2078  -10.9459   21.0868 O   0  0  0  0  0  0  0  0  0  0  0  0
  -29.9291  -20.3097   19.4766 O   0  0  0  0  0  0  0  0  0  0  0  0
  -23.5205  -30.3069   19.9229 O   0  0  0  0  0  0  0  0  0  0  0  0
  -28.8841  -13.2380   18.0952 O   0  0  0  0  0  0  0  0  0  1  0  0
  -18.5020  -28.0707   19.4561 F   0  0  0  0  0  0  0  0  0  0  0  0
  -22.5505  -28.5833   21.8545 F   0  0  0  0  0  0  0  0  0  0  0  0
  1  2  1  0  0  0  0
  1  5  2  0  0  0  0
  2  6  2  0  0  0  0
  3  8  2  0  0  0  0
  3 15  1  0  0  0  0
  4  9  1  0  0  0  0
  4 15  2  0  0  0  0
  5 17  1  0  0  0  0
  6 19  1  0  0  0  0
  7 10  2  0  0  0  0
  7 18  1  0  0  0  0
  8 21  1  0  0  0  0
  9 21  2  0  0  0  0
 10 22  1  0  0  0  0
 11 12  2  0  0  0  0
 11 23  1  0  0  0  0
 12 24  1  0  0  0  0
 13 20  1  0  0  0  0
 13 22  2  0  0  0  0
 14 24  2  0  0  0  0
 14 25  1  0  0  0  0
 15 26  1  0  0  0  0
 16 26  1  0  0  0  0
 16 27  2  0  0  0  0
 16 28  1  0  0  0  0
 17 19  2  0  0  0  0
 17 33  1  0  0  0  0
 18 20  2  0  0  0  0
 18 34  1  0  0  0  0
 19 48  1  0  0  0  0
 20 35  1  0  0  0  0
 21 81  1  0  0  0  0
 22 82  1  0  0  0  0
 23 25  2  0  0  0  0
 23 81  1  0  0  0  0
 24 83  1  0  0  0  0
 25 84  1  0  0  0  0
 26 64  2  0  0  0  0
 27 65  1  0  0  0  0
 27 70  1  0  0  0  0
 28 71  1  0  0  0  0
 28 76  2  0  0  0  0
 29 49  1  0  0  0  0
 29 72  1  0  0  0  0
 29 77  2  0  0  0  0
 30 60  1  0  0  0  0
 30 66  1  0  0  0  0
 30 78  2  0  0  0  0
 31 61  1  0  0  0  0
 31 73  1  0  0  0  0
 31 79  2  0  0  0  0
 32 67  1  0  0  0  0
 32 68  1  0  0  0  0
 32 80  2  0  0  0  0
 33 36  1  0  0  0  0
 34 49  1  0  0  0  0
 35 66  1  0  0  0  0
 36 38  1  0  0  0  0
 37 39  1  0  0  0  0
 37 42  1  0  0  0  0
 38 48  1  0  0  0  0
 39 50  1  0  0  0  0
 40 43  1  0  0  0  0
 40 51  1  0  0  0  0
 41 44  1  0  0  0  0
 41 52  1  0  0  0  0
 42 67  1  0  0  0  0
 43 68  1  0  0  0  0
 44 69  1  0  0  0  0
 45 50  1  0  0  0  0
 45 67  1  0  0  0  0
 46 51  1  0  0  0  0
 46 68  1  0  0  0  0
 47 52  1  0  0  0  0
 47 69  1  0  0  0  0
 48 72  1  0  0  0  0
 49 66  1  0  0  0  0
 50 65  1  0  0  0  0
 51 74  1  0  0  0  0
 52 74  1  0  0  0  0
 53 61  1  0  0  0  0
 54 62  1  0  0  0  0
 55 63  1  0  0  0  0
 56 63  1  0  0  0  0
 57 63  1  0  0  0  0
 58 75  1  0  0  0  0
 59 62  1  0  0  0  0
 59 82  1  0  0  0  0
 60 63  1  0  0  0  0
 60 73  1  0  0  0  0
 61 75  1  0  0  0  0
 62 69  1  0  0  0  0
 64 65  1  0  0  0  0
M  CHG  2  74   1  75   1
M  ISO  4  32 100  59 101  68 100  82 101
M  END
> <Batch ID>
0199

> <Smiles>
CNC(C)C(=O)NC(C(=O)N1Cc2cc([101O:1][101CH2:1]C(C)N3CCC(NC4CC[100N:0]([100C:0](=O)N5CCCC(n6nc(-c7ccc(Oc8ccc(F)cc8F)cc7)c(C(N)=O)c6N)C5)C4)C3)ccc2CC1C(=O)NC1CCCc2ccccc21)C(C)(C)C

> <Shape>
0.219

> <Color>
0.060

> <Negative vol penalty>
0.000

$$$$

  -OEChem-04052323503D

 91101  0     1  0  0  0  0  0999 V2000
  -23.1769  -35.5174   27.3366 C   0  0  0  0  0  0  0  0  0  0  0  0
  -22.8058  -34.3162   26.7408 C   0  0  0  0  0  0  0  0  0  0  0  0
  -26.1601  -13.0069   20.4480 C   0  0  0  0  0  0  0  0  0  0  0  0
  -26.8163  -12.3524   18.2169 C   0  0  0  0  0  0  0  0  0  0  0  0
  -24.1085  -36.3455   26.7120 C   0  0  0  0  0  0  0  0  0  0  0  0
  -23.3655  -33.9430   25.5194 C   0  0  0  0  0  0  0  0  0  0  0  0
  -24.6197  -22.9100   22.3634 C   0  0  0  0  0  0  0  0  0  0  0  0
  -23.5238  -23.6901   22.7321 C   0  0  0  0  0  0  0  0  0  0  0  0
  -24.7900  -29.0841   25.4391 C   0  0  0  0  0  0  0  0  0  0  0  0
  -25.0417  -12.1779   20.3624 C   0  0  0  0  0  0  0  0  0  0  0  0
  -25.6979  -11.5232   18.1312 C   0  0  0  0  0  0  0  0  0  0  0  0
  -23.7888  -28.1298   25.2637 C   0  0  0  0  0  0  0  0  0  0  0  0
  -24.3596   -8.8782   20.6447 C   0  0  0  0  0  0  0  0  0  0  0  0
  -24.0687   -8.0667   21.7413 C   0  0  0  0  0  0  0  0  0  0  0  0
  -24.6590  -21.9192   24.5665 C   0  0  0  0  0  0  0  0  0  0  0  0
  -24.3722  -27.9555   22.9295 C   0  0  0  0  0  0  0  0  0  0  0  0
  -21.9177   -9.1433   21.9674 C   0  0  0  0  0  0  0  0  0  0  0  0
  -27.0474  -13.0943   19.3753 C   0  0  0  0  0  0  0  0  0  0  0  0
  -23.5556  -22.6972   24.9385 C   0  0  0  0  0  0  0  0  0  0  0  0
  -29.4817  -13.6071   19.9398 C   0  0  0  0  0  0  0  0  0  0  0  0
  -25.1855  -22.0259   23.2791 C   0  0  0  0  0  0  0  0  0  0  0  0
  -22.9795  -23.5885   24.0202 C   0  0  0  0  0  0  0  0  0  0  0  0
  -24.6871  -35.9776   25.4870 C   0  0  0  0  0  0  0  0  0  0  0  0
  -25.5840  -29.4899   24.3567 C   0  0  0  0  0  0  0  0  0  0  0  0
  -24.3048  -34.7676   24.8771 C   0  0  0  0  0  0  0  0  0  0  0  0
  -25.3845  -28.9132   23.0943 C   0  0  0  0  0  0  0  0  0  0  0  0
  -24.8106  -11.4360   19.2040 C   0  0  0  0  0  0  0  0  0  0  0  0
  -23.5779  -27.5675   24.0082 C   0  0  0  0  0  0  0  0  0  0  0  0
  -23.4296   -9.8223   20.2095 C   0  0  0  0  0  0  0  0  0  0  0  0
  -22.8478   -8.1992   22.4026 C   0  0  0  0  0  0  0  0  0  0  0  0
  -22.2086   -9.9548   20.8708 C   0  0  0  0  0  0  0  0  0  0  0  0
  -28.2026  -13.9510   19.4629 C   0  0  0  0  0  0  0  0  0  0  0  0
  -30.2159  -14.7613   19.8162 C   0  0  0  0  0  0  0  0  0  0  0  0
  -23.0188  -22.5894   26.3215 C   0  0  0  0  0  0  0  0  0  0  0  0
  -29.9632  -12.3563   20.4489 C   0  0  0  0  0  0  0  0  0  0  0  0
  -26.0798  -32.2423   22.8461 C   0  0  0  0  0  0  0  0  0  0  0  0
  -28.3369  -30.5239   21.2729 C   0  0  0  0  0  0  0  0  0  0  0  0
  -29.4626  -27.4682   20.2519 C   0  0  0  0  0  0  0  0  0  0  0  0
  -28.9125  -20.4831   19.7265 C   0  0  0  0  0  0  0  0  0  0  0  0
  -25.6545  -36.9278   24.8267 C   0  0  0  0  0  0  0  0  0  0  0  0
  -26.6776  -30.5007   24.5682 C   0  0  0  0  0  0  0  0  0  0  0  0
  -26.2231  -29.2997   21.9044 C   0  0  0  0  0  0  0  0  0  0  0  0
  -26.4806  -36.2824   23.7170 C   0  0  0  0  0  0  0  0  0  0  0  0
  -30.5266  -18.7512   17.2078 C   0  0  0  0  0  0  0  0  0  0  0  0
  -25.5865  -35.4573   22.7969 C   0  0  0  0  0  0  0  0  0  0  0  0
  -30.2468  -17.2852   17.5378 C   0  0  0  0  0  0  0  0  0  0  0  0
  -26.0396  -20.2160   21.7246 C   0  0  0  0  0  0  0  0  0  0  0  0
  -27.6033  -22.0416   22.5194 C   0  0  0  0  0  0  0  0  0  0  0  0
  -29.2882  -19.6089   17.4405 C   0  0  0  0  0  0  0  0  0  0  0  0
  -27.2565  -19.3884   21.3012 C   0  0  0  0  0  0  0  0  0  0  0  0
  -28.7796  -21.1632   22.1031 C   0  0  0  0  0  0  0  0  0  0  0  0
  -20.9652  -23.7023   25.4541 C   0  0  0  0  0  0  0  0  0  0  0  0
  -28.4539  -18.0516   19.1716 C   0  0  0  0  0  0  0  0  0  0  0  0
  -26.3785  -21.1798   22.8760 C   0  0  0  0  0  0  0  0  0  0  0  0
  -21.8063  -24.4489   24.4190 C   0  0  1  0  0  0  0  0  0  0  0  0
  -24.9081  -34.3163   23.5647 C   0  0  1  0  0  0  0  0  0  0  0  0
  -27.0863  -31.2163   23.2844 C   0  0  1  0  0  0  0  0  0  0  0  0
  -29.6779  -17.1374   18.9602 C   0  0  1  0  0  0  0  0  0  0  0  0
  -31.3145  -26.3854   18.9499 C   0  0  0  0  0  0  0  0  0  0  0  0
  -19.8167  -22.3741   27.7327 C   0  0  0  0  0  0  0  0  0  0  0  0
  -20.9669  -24.5115   28.4069 C   0  0  0  0  0  0  0  0  0  0  0  0
  -27.0323  -31.4306   18.6679 C   0  0  0  0  0  0  0  0  0  0  0  0
  -28.2839  -29.6108   17.4889 C   0  0  0  0  0  0  0  0  0  0  0  0
  -29.5330  -31.4377   18.6399 C   0  0  0  0  0  0  0  0  0  0  0  0
  -30.3690  -25.9201   22.6057 C   0  0  0  0  0  0  0  0  0  0  0  0
  -22.2790  -25.8075   24.9416 C   0  0  0  0  0  0  0  0  0  1  0  0
  -28.3578  -29.6776   20.0229 C   0  0  1  0  0  0  0  0  0  0  0  0
  -30.8355  -26.8246   20.3248 C   0  0  2  0  0  0  0  0  0  0  0  0
  -21.1467  -23.1026   27.8609 C   0  0  0  0  0  0  0  0  0  0  0  0
  -28.2845  -30.5331   18.7267 C   0  0  0  0  0  0  0  0  0  0  0  0
  -28.1252  -15.2240   19.0662 N   0  0  0  0  0  0  0  0  0  0  0  0
  -29.3650  -15.6902   19.2935 N   0  0  0  0  0  0  0  0  0  0  0  0
  -21.7747  -23.1815   26.5513 N   0  0  0  0  0  0  0  0  0  0  0  0
  -27.2756  -30.2968   22.1606 N   0  0  0  0  0  0  0  0  0  0  0  0
  -28.7766  -19.4381   18.8002 N   0  0  0  0  0  0  0  0  0  0  0  0
  -28.4037  -20.2610   21.0149 N   0  0  0  0  0  0  0  0  0  0  0  0
  -31.4999  -15.0621   20.1048 N   0  0  0  0  0  0  0  0  0  0  0  0
  -29.0763  -11.2726   20.5068 N   0  0  0  0  0  0  0  0  0  0  0  0
  -25.8392  -33.2299   23.7822 N   0  0  0  0  0  0  0  0  0  0  0  0
  -29.5470  -28.8380   20.1183 N   0  0  0  0  0  0  0  0  0  0  0  0
  -30.8008  -25.6295   21.2143 N   0  3  0  0  0  0  0  0  0  0  0  0
  -23.6846  -22.0075   27.1747 O   0  0  0  0  0  0  0  0  0  0  0  0
  -31.1404  -12.2085   20.8561 O   0  0  0  0  0  0  0  0  0  0  0  0
  -25.5612  -32.1460   21.7400 O   0  0  0  0  0  0  0  0  0  0  0  0
  -29.2332  -31.3508   21.4583 O   0  0  0  0  0  0  0  0  0  0  0  0
  -28.4195  -26.8202   20.3042 O   0  0  0  0  0  0  0  0  0  0  0  0
  -29.4570  -21.5515   19.4213 O   0  0  0  0  0  0  0  0  0  0  0  0
  -23.7195  -10.6266   19.1202 O   0  0  0  0  0  0  0  0  0  0  0  0
  -22.5915  -26.6275   23.8324 O   0  0  0  0  0  0  0  0  0  1  0  0
  -22.5680   -7.4188   23.4546 F   0  0  0  0  0  0  0  0  0  0  0  0
  -21.3106  -10.8592   20.4566 F   0  0  0  0  0  0  0  0  0  0  0  0
  1  2  1  0  0  0  0
  1  5  2  0  0  0  0
  2  6  2  0  0  0  0
  3 10  2  0  0  0  0
  3 18  1  0  0  0  0
  4 11  1  0  0  0  0
  4 18  2  0  0  0  0
  5 23  1  0  0  0  0
  6 25  1  0  0  0  0
  7  8  2  0  0  0  0
  7 21  1  0  0  0  0
  8 22  1  0  0  0  0
  9 12  2  0  0  0  0
  9 24  1  0  0  0  0
 10 27  1  0  0  0  0
 11 27  2  0  0  0  0
 12 28  1  0  0  0  0
 13 14  2  0  0  0  0
 13 29  1  0  0  0  0
 14 30  1  0  0  0  0
 15 19  1  0  0  0  0
 15 21  2  0  0  0  0
 16 26  1  0  0  0  0
 16 28  2  0  0  0  0
 17 30  2  0  0  0  0
 17 31  1  0  0  0  0
 18 32  1  0  0  0  0
 19 22  2  0  0  0  0
 19 34  1  0  0  0  0
 20 32  1  0  0  0  0
 20 33  2  0  0  0  0
 20 35  1  0  0  0  0
 21 54  1  0  0  0  0
 22 55  1  0  0  0  0
 23 25  2  0  0  0  0
 23 40  1  0  0  0  0
 24 26  2  0  0  0  0
 24 41  1  0  0  0  0
 25 56  1  0  0  0  0
 26 42  1  0  0  0  0
 27 88  1  0  0  0  0
 28 89  1  0  0  0  0
 29 31  2  0  0  0  0
 29 88  1  0  0  0  0
 30 90  1  0  0  0  0
 31 91  1  0  0  0  0
 32 71  2  0  0  0  0
 33 72  1  0  0  0  0
 33 77  1  0  0  0  0
 34 73  1  0  0  0  0
 34 82  2  0  0  0  0
 35 78  1  0  0  0  0
 35 83  2  0  0  0  0
 36 57  1  0  0  0  0
 36 79  1  0  0  0  0
 36 84  2  0  0  0  0
 37 67  1  0  0  0  0
 37 74  1  0  0  0  0
 37 85  2  0  0  0  0
 38 68  1  0  0  0  0
 38 80  1  0  0  0  0
 38 86  2  0  0  0  0
 39 75  1  0  0  0  0
 39 76  1  0  0  0  0
 39 87  2  0  0  0  0
 40 43  1  0  0  0  0
 41 57  1  0  0  0  0
 42 74  1  0  0  0  0
 43 45  1  0  0  0  0
 44 46  1  0  0  0  0
 44 49  1  0  0  0  0
 45 56  1  0  0  0  0
 46 58  1  0  0  0  0
 47 50  1  0  0  0  0
 47 54  1  0  0  0  0
 48 51  1  0  0  0  0
 48 54  1  0  0  0  0
 49 75  1  0  0  0  0
 50 76  1  0  0  0  0
 51 76  1  0  0  0  0
 52 55  1  0  0  0  0
 52 73  1  0  0  0  0
 53 58  1  0  0  0  0
 53 75  1  0  0  0  0
 55 66  1  0  0  0  0
 56 79  1  0  0  0  0
 57 74  1  0  0  0  0
 58 72  1  0  0  0  0
 59 68  1  0  0  0  0
 60 69  1  0  0  0  0
 61 69  1  0  0  0  0
 62 70  1  0  0  0  0
 63 70  1  0  0  0  0
 64 70  1  0  0  0  0
 65 81  1  0  0  0  0
 66 89  1  0  0  0  0
 67 70  1  0  0  0  0
 67 80  1  0  0  0  0
 68 81  1  0  0  0  0
 69 73  1  0  0  0  0
 71 72  1  0  0  0  0
M  CHG  1  81   1
M  ISO  4  39 100  66 101  76 100  89 101
M  END
> <Batch ID>
0199

> <Smiles>
CNC(C)C(=O)NC(C(=O)N1Cc2cc([101O:1][101CH2:1]C3CN(C(C)C)C(=O)c4cc(C5CC[100N:0]([100C:0](=O)N6CCCC(n7nc(-c8ccc(Oc9ccc(F)cc9F)cc8)c(C(N)=O)c7N)C6)CC5)ccc43)ccc2CC1C(=O)NC1CCCc2ccccc21)C(C)(C)C

> <Shape>
0.264

> <Color>
0.066

> <Negative vol penalty>
0.000

$$$$

  -OEChem-04052323503D

 84 93  0     1  0  0  0  0  0999 V2000
  -15.9570  -26.9576   24.6626 C   0  0  0  0  0  0  0  0  0  0  0  0
  -17.1973  -26.3297   24.6087 C   0  0  0  0  0  0  0  0  0  0  0  0
  -26.2376  -13.5690   21.9285 C   0  0  0  0  0  0  0  0  0  0  0  0
  -26.1807  -12.5127   19.7564 C   0  0  0  0  0  0  0  0  0  0  0  0
  -15.8086  -28.2497   24.1605 C   0  0  0  0  0  0  0  0  0  0  0  0
  -18.2897  -26.9934   24.0514 C   0  0  0  0  0  0  0  0  0  0  0  0
  -22.4862  -26.5130   26.8449 C   0  0  0  0  0  0  0  0  0  0  0  0
  -25.0779  -12.8845   22.2918 C   0  0  0  0  0  0  0  0  0  0  0  0
  -25.0209  -11.8281   20.1197 C   0  0  0  0  0  0  0  0  0  0  0  0
  -23.1796  -25.3072   26.7502 C   0  0  0  0  0  0  0  0  0  0  0  0
  -24.2062   -9.1118   21.9577 C   0  0  0  0  0  0  0  0  0  0  0  0
  -24.1335   -7.7536   21.6488 C   0  0  0  0  0  0  0  0  0  0  0  0
  -24.7501  -26.3362   25.2357 C   0  0  0  0  0  0  0  0  0  0  0  0
  -22.1764   -8.1665   20.2937 C   0  0  0  0  0  0  0  0  0  0  0  0
  -29.1890  -22.0611   24.6721 C   0  0  0  0  0  0  0  0  0  0  0  0
  -26.7890  -13.3831   20.6608 C   0  0  0  0  0  0  0  0  0  0  0  0
  -29.3166  -13.6623   20.4578 C   0  0  0  0  0  0  0  0  0  0  0  0
  -16.9020  -28.9332   23.6055 C   0  0  0  0  0  0  0  0  0  0  0  0
  -22.9140  -27.6384   26.1260 C   0  0  0  0  0  0  0  0  0  0  0  0
  -18.1555  -28.2954   23.5401 C   0  0  0  0  0  0  0  0  0  0  0  0
  -24.0619  -27.5558   25.3250 C   0  0  0  0  0  0  0  0  0  0  0  0
  -24.4695  -12.0140   21.3875 C   0  0  0  0  0  0  0  0  0  0  0  0
  -24.3100  -25.2178   25.9433 C   0  0  0  0  0  0  0  0  0  0  0  0
  -23.2640   -9.9974   21.4347 C   0  0  0  0  0  0  0  0  0  0  0  0
  -23.1187   -7.2809   20.8168 C   0  0  0  0  0  0  0  0  0  0  0  0
  -22.2491   -9.5248   20.6027 C   0  0  0  0  0  0  0  0  0  0  0  0
  -27.9867  -14.0904   20.2847 C   0  0  0  0  0  0  0  0  0  0  0  0
  -28.9878  -21.6551   25.9674 C   0  0  0  0  0  0  0  0  0  0  0  0
  -30.0760  -14.6831   19.9405 C   0  0  0  0  0  0  0  0  0  0  0  0
  -29.8203  -12.4501   21.0345 C   0  0  0  0  0  0  0  0  0  0  0  0
  -21.6486  -29.4598   23.8490 C   0  0  0  0  0  0  0  0  0  0  0  0
  -24.3160  -31.2410   24.3333 C   0  0  0  0  0  0  0  0  0  0  0  0
  -27.5477  -31.3818   25.4213 C   0  0  0  0  0  0  0  0  0  0  0  0
  -28.9018  -20.5452   19.2085 C   0  0  0  0  0  0  0  0  0  0  0  0
  -16.6820  -30.3109   23.0325 C   0  0  0  0  0  0  0  0  0  0  0  0
  -22.1705  -28.9391   26.2598 C   0  0  0  0  0  0  0  0  0  0  0  0
  -24.5742  -28.7405   24.5488 C   0  0  0  0  0  0  0  0  0  0  0  0
  -17.9756  -31.0869   22.7985 C   0  0  0  0  0  0  0  0  0  0  0  0
  -29.9334  -18.1854   16.6777 C   0  0  0  0  0  0  0  0  0  0  0  0
  -19.0079  -30.2061   22.1019 C   0  0  0  0  0  0  0  0  0  0  0  0
  -29.6499  -16.8269   17.3216 C   0  0  0  0  0  0  0  0  0  0  0  0
  -28.9195  -19.2444   17.1080 C   0  0  0  0  0  0  0  0  0  0  0  0
  -28.4700  -18.0283   19.1996 C   0  0  0  0  0  0  0  0  0  0  0  0
  -28.9351  -21.7218   21.4738 C   0  0  0  0  0  0  0  0  0  0  0  0
  -29.0706  -19.6142   21.6493 C   0  0  0  0  0  0  0  0  0  0  0  0
  -19.3700  -28.9919   22.9657 C   0  0  1  0  0  0  0  0  0  0  0  0
  -22.3976  -29.8811   25.0815 C   0  0  1  0  0  0  0  0  0  0  0  0
  -29.5102  -16.9538   18.8504 C   0  0  1  0  0  0  0  0  0  0  0  0
  -29.6900  -20.7873   22.4469 C   0  0  0  0  0  0  0  0  0  0  0  0
  -29.7985  -23.5133   27.4782 C   0  0  0  0  0  0  0  0  0  0  0  0
  -29.4798  -32.9658   25.6564 C   0  0  0  0  0  0  0  0  0  0  0  0
  -24.8455  -31.0363   21.3354 C   0  0  0  0  0  0  0  0  0  0  0  0
  -27.1958  -31.7814   21.7702 C   0  0  0  0  0  0  0  0  0  0  0  0
  -25.2884  -33.2915   22.3214 C   0  0  0  0  0  0  0  0  0  0  0  0
  -27.6078  -31.0552   28.3621 C   0  0  0  0  0  0  0  0  0  0  0  0
  -26.2155  -22.3319   27.0115 C   0  0  0  0  0  0  0  0  0  0  0  0
  -24.9611  -23.1828   26.9877 C   0  0  0  0  0  0  0  0  0  1  0  0
  -28.7015  -22.4903   27.1939 C   0  0  1  0  0  0  0  0  0  0  0  0
  -25.7116  -31.2545   23.7578 C   0  0  1  0  0  0  0  0  0  0  0  0
  -28.2608  -32.3614   26.3358 C   0  0  2  0  0  0  0  0  0  0  0  0
  -25.7498  -31.8179   22.3092 C   0  0  0  0  0  0  0  0  0  0  0  0
  -27.9027  -15.2898   19.7030 N   0  0  0  0  0  0  0  0  0  0  0  0
  -29.0804  -20.2929   26.0416 N   0  0  0  0  0  0  0  0  0  0  0  0
  -29.3365  -19.8342   24.8213 N   0  0  0  0  0  0  0  0  0  0  0  0
  -29.4014  -20.8959   24.0017 N   0  0  0  0  0  0  0  0  0  0  0  0
  -29.1894  -15.6241   19.5062 N   0  0  0  0  0  0  0  0  0  0  0  0
  -23.8093  -29.9884   24.7075 N   0  0  0  0  0  0  0  0  0  0  0  0
  -28.8213  -19.3058   18.5684 N   0  0  0  0  0  0  0  0  0  0  0  0
  -28.8416  -20.5726   20.5815 N   0  0  0  0  0  0  0  0  0  0  0  0
  -31.4090  -14.8587   19.8193 N   0  0  0  0  0  0  0  0  0  0  0  0
  -28.9020  -11.5080   21.5176 N   0  0  0  0  0  0  0  0  0  0  0  0
  -20.2802  -29.3772   24.0229 N   0  0  0  0  0  0  0  0  0  0  0  0
  -26.5377  -31.9918   24.7077 N   0  0  0  0  0  0  0  0  0  0  0  0
  -28.7085  -31.6757   27.5809 N   0  3  0  0  0  0  0  0  0  0  0  0
  -27.4052  -23.2152   27.1053 N   0  3  0  0  0  0  0  0  0  0  0  0
  -31.0489  -12.2169   21.1339 O   0  0  0  0  0  0  0  0  0  0  0  0
  -22.2663  -29.2284   22.8162 O   0  0  0  0  0  0  0  0  0  0  0  0
  -23.7010  -32.3035   24.4533 O   0  0  0  0  0  0  0  0  0  0  0  0
  -27.8580  -30.1951   25.3446 O   0  0  0  0  0  0  0  0  0  0  0  0
  -29.0545  -21.5978   18.5746 O   0  0  0  0  0  0  0  0  0  0  0  0
  -23.3379  -11.3457   21.7417 O   0  0  0  0  0  0  0  0  0  0  0  0
  -24.9883  -24.0419   25.8485 O   0  0  0  0  0  0  0  0  0  1  0  0
  -23.0499   -5.9768   20.5190 F   0  0  0  0  0  0  0  0  0  0  0  0
  -21.3417  -10.3710   20.0963 F   0  0  0  0  0  0  0  0  0  0  0  0
  1  2  1  0  0  0  0
  1  5  2  0  0  0  0
  2  6  2  0  0  0  0
  3  8  2  0  0  0  0
  3 16  1  0  0  0  0
  4  9  1  0  0  0  0
  4 16  2  0  0  0  0
  5 18  1  0  0  0  0
  6 20  1  0  0  0  0
  7 10  2  0  0  0  0
  7 19  1  0  0  0  0
  8 22  1  0  0  0  0
  9 22  2  0  0  0  0
 10 23  1  0  0  0  0
 11 12  2  0  0  0  0
 11 24  1  0  0  0  0
 12 25  1  0  0  0  0
 13 21  1  0  0  0  0
 13 23  2  0  0  0  0
 14 25  2  0  0  0  0
 14 26  1  0  0  0  0
 15 28  2  0  0  0  0
 15 65  1  0  0  0  0
 16 27  1  0  0  0  0
 17 27  1  0  0  0  0
 17 29  2  0  0  0  0
 17 30  1  0  0  0  0
 18 20  2  0  0  0  0
 18 35  1  0  0  0  0
 19 21  2  0  0  0  0
 19 36  1  0  0  0  0
 20 46  1  0  0  0  0
 21 37  1  0  0  0  0
 22 81  1  0  0  0  0
 23 82  1  0  0  0  0
 24 26  2  0  0  0  0
 24 81  1  0  0  0  0
 25 83  1  0  0  0  0
 26 84  1  0  0  0  0
 27 62  2  0  0  0  0
 28 58  1  0  0  0  0
 28 63  1  0  0  0  0
 29 66  1  0  0  0  0
 29 70  1  0  0  0  0
 30 71  1  0  0  0  0
 30 76  2  0  0  0  0
 31 47  1  0  0  0  0
 31 72  1  0  0  0  0
 31 77  2  0  0  0  0
 32 59  1  0  0  0  0
 32 67  1  0  0  0  0
 32 78  2  0  0  0  0
 33 60  1  0  0  0  0
 33 73  1  0  0  0  0
 33 79  2  0  0  0  0
 34 68  1  0  0  0  0
 34 69  1  0  0  0  0
 34 80  2  0  0  0  0
 35 38  1  0  0  0  0
 36 47  1  0  0  0  0
 37 67  1  0  0  0  0
 38 40  1  0  0  0  0
 39 41  1  0  0  0  0
 39 42  1  0  0  0  0
 40 46  1  0  0  0  0
 41 48  1  0  0  0  0
 42 68  1  0  0  0  0
 43 48  1  0  0  0  0
 43 68  1  0  0  0  0
 44 49  1  0  0  0  0
 44 69  1  0  0  0  0
 45 49  1  0  0  0  0
 45 69  1  0  0  0  0
 46 72  1  0  0  0  0
 47 67  1  0  0  0  0
 48 66  1  0  0  0  0
 49 65  1  0  0  0  0
 50 58  1  0  0  0  0
 51 60  1  0  0  0  0
 52 61  1  0  0  0  0
 53 61  1  0  0  0  0
 54 61  1  0  0  0  0
 55 74  1  0  0  0  0
 56 57  1  0  0  0  0
 56 75  1  0  0  0  0
 57 82  1  0  0  0  0
 58 75  1  0  0  0  0
 59 61  1  0  0  0  0
 59 73  1  0  0  0  0
 60 74  1  0  0  0  0
 62 66  1  0  0  0  0
 63 64  2  0  0  0  0
 64 65  1  0  0  0  0
M  CHG  2  74   1  75   1
M  ISO  4  34 100  57 101  69 100  82 101
M  END
> <Batch ID>
0199

> <Smiles>
CNC(C)C(=O)NC(C(=O)N1Cc2cc([101O:1][101CH2:1]CNC(C)c3cn(C4C[100N:0]([100C:0](=O)N5CCCC(n6nc(-c7ccc(Oc8ccc(F)cc8F)cc7)c(C(N)=O)c6N)C5)C4)nn3)ccc2CC1C(=O)NC1CCCc2ccccc21)C(C)(C)C

> <Shape>
0.270

> <Color>
0.074

> <Negative vol penalty>
0.000

$$$$

  -OEChem-04052323503D

 79 87  0     1  0  0  0  0  0999 V2000
  -28.1812  -23.9626   12.1444 C   0  0  0  0  0  0  0  0  0  0  0  0
  -27.3916  -24.9618   12.7043 C   0  0  0  0  0  0  0  0  0  0  0  0
  -25.6996  -14.5040   22.1851 C   0  0  0  0  0  0  0  0  0  0  0  0
  -25.3828  -13.8135   19.8917 C   0  0  0  0  0  0  0  0  0  0  0  0
  -28.6240  -22.9016   12.9332 C   0  0  0  0  0  0  0  0  0  0  0  0
  -27.0434  -24.9001   14.0531 C   0  0  0  0  0  0  0  0  0  0  0  0
  -25.7336  -29.1352   19.6803 C   0  0  0  0  0  0  0  0  0  0  0  0
  -25.6359  -13.1722   22.5949 C   0  0  0  0  0  0  0  0  0  0  0  0
  -25.3192  -12.4817   20.3014 C   0  0  0  0  0  0  0  0  0  0  0  0
  -24.7663  -29.3566   20.6596 C   0  0  0  0  0  0  0  0  0  0  0  0
  -23.0443  -10.4142   21.7090 C   0  0  0  0  0  0  0  0  0  0  0  0
  -22.0343   -9.6178   21.1695 C   0  0  0  0  0  0  0  0  0  0  0  0
  -25.6547  -27.5182   21.9442 C   0  0  0  0  0  0  0  0  0  0  0  0
  -23.6999   -8.1329   20.2433 C   0  0  0  0  0  0  0  0  0  0  0  0
  -25.5730  -14.8247   20.8335 C   0  0  0  0  0  0  0  0  0  0  0  0
  -26.7878  -16.9205   20.0339 C   0  0  0  0  0  0  0  0  0  0  0  0
  -28.2891  -22.8319   14.2947 C   0  0  0  0  0  0  0  0  0  0  0  0
  -26.6634  -28.0949   19.8206 C   0  0  0  0  0  0  0  0  0  0  0  0
  -27.4811  -23.8365   14.8606 C   0  0  0  0  0  0  0  0  0  0  0  0
  -26.6344  -27.2873   20.9665 C   0  0  0  0  0  0  0  0  0  0  0  0
  -25.4457  -12.1611   21.6530 C   0  0  0  0  0  0  0  0  0  0  0  0
  -24.7249  -28.5463   21.7904 C   0  0  0  0  0  0  0  0  0  0  0  0
  -24.3822  -10.0701   21.5156 C   0  0  0  0  0  0  0  0  0  0  0  0
  -22.3620   -8.4771   20.4367 C   0  0  0  0  0  0  0  0  0  0  0  0
  -24.7099   -8.9294   20.7827 C   0  0  0  0  0  0  0  0  0  0  0  0
  -25.6381  -16.2003   20.4097 C   0  0  0  0  0  0  0  0  0  0  0  0
  -26.3208  -18.1735   19.7203 C   0  0  0  0  0  0  0  0  0  0  0  0
  -28.1556  -16.4949   19.9736 C   0  0  0  0  0  0  0  0  0  0  0  0
  -27.3502  -25.4632   18.1757 C   0  0  0  0  0  0  0  0  0  0  0  0
  -29.7993  -25.2485   20.2919 C   0  0  0  0  0  0  0  0  0  0  0  0
  -31.0563  -26.0565   23.3601 C   0  0  0  0  0  0  0  0  0  0  0  0
  -23.0927  -22.4643   21.2890 C   0  0  0  0  0  0  0  0  0  0  0  0
  -28.7520  -21.6410   15.0961 C   0  0  0  0  0  0  0  0  0  0  0  0
  -27.7174  -27.8860   18.7680 C   0  0  0  0  0  0  0  0  0  0  0  0
  -27.6228  -26.1700   21.1744 C   0  0  0  0  0  0  0  0  0  0  0  0
  -28.6504  -21.8457   16.6054 C   0  0  0  0  0  0  0  0  0  0  0  0
  -21.6025  -19.8750   19.0913 C   0  0  0  0  0  0  0  0  0  0  0  0
  -27.2950  -22.4410   16.9733 C   0  0  0  0  0  0  0  0  0  0  0  0
  -22.6069  -18.7326   19.2497 C   0  0  0  0  0  0  0  0  0  0  0  0
  -20.3815  -24.8259   20.5253 C   0  0  0  0  0  0  0  0  0  0  0  0
  -21.5228  -20.7106   20.3623 C   0  0  0  0  0  0  0  0  0  0  0  0
  -20.8093  -23.3618   20.5444 C   0  0  0  0  0  0  0  0  0  0  0  0
  -23.8395  -20.1326   20.9751 C   0  0  0  0  0  0  0  0  0  0  0  0
  -22.1428  -24.6000   22.1153 C   0  0  0  0  0  0  0  0  0  0  0  0
  -27.1029  -23.8177   16.3258 C   0  0  1  0  0  0  0  0  0  0  0  0
  -28.2915  -26.4726   18.7695 C   0  0  1  0  0  0  0  0  0  0  0  0
  -23.9770  -19.2567   19.7172 C   0  0  1  0  0  0  0  0  0  0  0  0
  -20.8073  -25.2910   21.9099 C   0  0  1  0  0  0  0  0  0  0  0  0
  -33.0667  -25.7047   24.8202 C   0  0  0  0  0  0  0  0  0  0  0  0
  -28.8503  -22.4157   20.9118 C   0  0  0  0  0  0  0  0  0  0  0  0
  -30.2508  -22.4753   22.9863 C   0  0  0  0  0  0  0  0  0  0  0  0
  -31.3326  -22.6717   20.7471 C   0  0  0  0  0  0  0  0  0  0  0  0
  -31.6452  -28.9556   23.4465 C   0  0  0  0  0  0  0  0  0  0  0  0
  -21.4339  -28.8147   23.2553 C   0  0  0  0  0  0  0  0  0  0  0  0
  -21.3040  -27.2999   23.3083 C   0  0  0  0  0  0  0  0  0  0  0  0
  -22.5337  -29.3034   22.3208 C   0  0  0  0  0  0  0  0  0  1  0  0
  -29.9875  -24.6135   21.6484 C   0  0  1  0  0  0  0  0  0  0  0  0
  -32.4087  -26.6013   23.7830 C   0  0  2  0  0  0  0  0  0  0  0  0
  -30.0853  -23.0638   21.5689 C   0  0  0  0  0  0  0  0  0  0  0  0
  -24.5245  -16.9346   20.3419 N   0  0  0  0  0  0  0  0  0  0  0  0
  -24.9723  -18.1294   19.9199 N   0  0  0  0  0  0  0  0  0  0  0  0
  -28.6301  -26.0016   20.1140 N   0  0  0  0  0  0  0  0  0  0  0  0
  -22.8479  -21.1898   20.7654 N   0  0  0  0  0  0  0  0  0  0  0  0
  -22.0137  -23.3422   21.3811 N   0  0  0  0  0  0  0  0  0  0  0  0
  -26.9362  -19.2977   19.2961 N   0  0  0  0  0  0  0  0  0  0  0  0
  -28.4607  -15.1742   20.3298 N   0  0  0  0  0  0  0  0  0  0  0  0
  -27.8436  -24.8261   17.0531 N   0  0  0  0  0  0  0  0  0  0  0  0
  -31.1552  -25.2562   22.2416 N   0  0  0  0  0  0  0  0  0  0  0  0
  -20.9432  -26.7557   21.9656 N   0  3  0  0  0  0  0  0  0  0  0  0
  -32.2584  -27.9640   24.3672 N   0  3  0  0  0  0  0  0  0  0  0  0
  -29.0820  -17.2678   19.6302 O   0  0  0  0  0  0  0  0  0  0  0  0
  -26.2579  -25.2750   18.6982 O   0  0  0  0  0  0  0  0  0  0  0  0
  -30.6616  -25.0885   19.4243 O   0  0  0  0  0  0  0  0  0  0  0  0
  -30.0168  -26.3120   23.9639 O   0  0  0  0  0  0  0  0  0  0  0  0
  -24.2334  -22.8192   21.6143 O   0  0  0  0  0  0  0  0  0  0  0  0
  -25.3838  -10.8614   22.0525 O   0  0  0  0  0  0  0  0  0  0  0  0
  -23.7748  -28.7613   22.7542 O   0  0  0  0  0  0  0  0  0  1  0  0
  -21.3919   -7.7115   19.9200 F   0  0  0  0  0  0  0  0  0  0  0  0
  -25.9934   -8.5930   20.5946 F   0  0  0  0  0  0  0  0  0  0  0  0
  1  2  1  0  0  0  0
  1  5  2  0  0  0  0
  2  6  2  0  0  0  0
  3  8  2  0  0  0  0
  3 15  1  0  0  0  0
  4  9  1  0  0  0  0
  4 15  2  0  0  0  0
  5 17  1  0  0  0  0
  6 19  1  0  0  0  0
  7 10  2  0  0  0  0
  7 18  1  0  0  0  0
  8 21  1  0  0  0  0
  9 21  2  0  0  0  0
 10 22  1  0  0  0  0
 11 12  2  0  0  0  0
 11 23  1  0  0  0  0
 12 24  1  0  0  0  0
 13 20  1  0  0  0  0
 13 22  2  0  0  0  0
 14 24  2  0  0  0  0
 14 25  1  0  0  0  0
 15 26  1  0  0  0  0
 16 26  1  0  0  0  0
 16 27  2  0  0  0  0
 16 28  1  0  0  0  0
 17 19  2  0  0  0  0
 17 33  1  0  0  0  0
 18 20  2  0  0  0  0
 18 34  1  0  0  0  0
 19 45  1  0  0  0  0
 20 35  1  0  0  0  0
 21 76  1  0  0  0  0
 22 77  1  0  0  0  0
 23 25  2  0  0  0  0
 23 76  1  0  0  0  0
 24 78  1  0  0  0  0
 25 79  1  0  0  0  0
 26 60  2  0  0  0  0
 27 61  1  0  0  0  0
 27 65  1  0  0  0  0
 28 66  1  0  0  0  0
 28 71  2  0  0  0  0
 29 46  1  0  0  0  0
 29 67  1  0  0  0  0
 29 72  2  0  0  0  0
 30 57  1  0  0  0  0
 30 62  1  0  0  0  0
 30 73  2  0  0  0  0
 31 58  1  0  0  0  0
 31 68  1  0  0  0  0
 31 74  2  0  0  0  0
 32 63  1  0  0  0  0
 32 64  1  0  0  0  0
 32 75  2  0  0  0  0
 33 36  1  0  0  0  0
 34 46  1  0  0  0  0
 35 62  1  0  0  0  0
 36 38  1  0  0  0  0
 37 39  1  0  0  0  0
 37 41  1  0  0  0  0
 38 45  1  0  0  0  0
 39 47  1  0  0  0  0
 40 42  1  0  0  0  0
 40 48  1  0  0  0  0
 41 63  1  0  0  0  0
 42 64  1  0  0  0  0
 43 47  1  0  0  0  0
 43 63  1  0  0  0  0
 44 48  1  0  0  0  0
 44 64  1  0  0  0  0
 45 67  1  0  0  0  0
 46 62  1  0  0  0  0
 47 61  1  0  0  0  0
 48 69  1  0  0  0  0
 49 58  1  0  0  0  0
 50 59  1  0  0  0  0
 51 59  1  0  0  0  0
 52 59  1  0  0  0  0
 53 70  1  0  0  0  0
 54 55  1  0  0  0  0
 54 56  1  0  0  0  0
 55 69  1  0  0  0  0
 56 77  1  0  0  0  0
 57 59  1  0  0  0  0
 57 68  1  0  0  0  0
 58 70  1  0  0  0  0
 60 61  1  0  0  0  0
M  CHG  2  69   1  70   1
M  ISO  4  32 100  56 101  64 100  77 101
M  END
> <Batch ID>
0199

> <Smiles>
CNC(C)C(=O)NC(C(=O)N1Cc2cc([101O:1][101CH2:1]CCNC3CC[100N:0]([100C:0](=O)N4CCCC(n5nc(-c6ccc(Oc7ccc(F)cc7F)cc6)c(C(N)=O)c5N)C4)C3)ccc2CC1C(=O)NC1CCCc2ccccc21)C(C)(C)C

> <Shape>
0.175

> <Color>
0.071

> <Negative vol penalty>
0.000

$$$$

  -OEChem-04052323503D

 84 92  0     1  0  0  0  0  0999 V2000
  -26.2375  -35.2850   22.5103 C   0  0  0  0  0  0  0  0  0  0  0  0
  -26.7477  -34.0006   22.3515 C   0  0  0  0  0  0  0  0  0  0  0  0
  -26.2326  -14.5346   21.0431 C   0  0  0  0  0  0  0  0  0  0  0  0
  -25.5832  -13.1079   19.2047 C   0  0  0  0  0  0  0  0  0  0  0  0
  -24.9874  -35.4694   23.0995 C   0  0  0  0  0  0  0  0  0  0  0  0
  -26.0085  -32.8997   22.7829 C   0  0  0  0  0  0  0  0  0  0  0  0
  -25.9737  -29.1350   19.3960 C   0  0  0  0  0  0  0  0  0  0  0  0
  -24.9101  -14.9548   21.1843 C   0  0  0  0  0  0  0  0  0  0  0  0
  -24.2606  -13.5281   19.3459 C   0  0  0  0  0  0  0  0  0  0  0  0
  -27.1119  -28.3332   19.3236 C   0  0  0  0  0  0  0  0  0  0  0  0
  -21.7649  -16.6747   21.7953 C   0  0  0  0  0  0  0  0  0  0  0  0
  -21.5311  -18.0391   21.9670 C   0  0  0  0  0  0  0  0  0  0  0  0
  -26.0048  -26.6520   20.6528 C   0  0  0  0  0  0  0  0  0  0  0  0
  -22.5726  -18.4860   19.8332 C   0  0  0  0  0  0  0  0  0  0  0  0
  -26.5692  -13.6112   20.0533 C   0  0  0  0  0  0  0  0  0  0  0  0
  -28.5516  -12.0811   20.5392 C   0  0  0  0  0  0  0  0  0  0  0  0
  -24.2282  -34.3697   23.5295 C   0  0  0  0  0  0  0  0  0  0  0  0
  -24.8445  -28.7053   20.1078 C   0  0  0  0  0  0  0  0  0  0  0  0
  -24.7476  -33.0696   23.3796 C   0  0  0  0  0  0  0  0  0  0  0  0
  -24.8526  -27.4491   20.7307 C   0  0  0  0  0  0  0  0  0  0  0  0
  -23.9241  -14.4515   20.3357 C   0  0  0  0  0  0  0  0  0  0  0  0
  -27.1287  -27.0927   19.9544 C   0  0  0  0  0  0  0  0  0  0  0  0
  -22.4027  -16.2160   20.6427 C   0  0  0  0  0  0  0  0  0  0  0  0
  -21.9349  -18.9447   20.9859 C   0  0  0  0  0  0  0  0  0  0  0  0
  -22.8064  -17.1216   19.6616 C   0  0  0  0  0  0  0  0  0  0  0  0
  -27.9353  -13.1773   19.9065 C   0  0  0  0  0  0  0  0  0  0  0  0
  -29.8427  -12.0956   20.0707 C   0  0  0  0  0  0  0  0  0  0  0  0
  -28.0059  -11.1343   21.4674 C   0  0  0  0  0  0  0  0  0  0  0  0
  -23.2480  -29.7746   22.6399 C   0  0  0  0  0  0  0  0  0  0  0  0
  -21.2052  -27.3725   21.8790 C   0  0  0  0  0  0  0  0  0  0  0  0
  -20.7153  -24.3611   20.3499 C   0  0  0  0  0  0  0  0  0  0  0  0
  -31.4577  -22.4543   18.4086 C   0  0  0  0  0  0  0  0  0  0  0  0
  -29.4604  -16.6084   17.1295 C   0  0  0  0  0  0  0  0  0  0  0  0
  -22.9029  -34.6216   24.2037 C   0  0  0  0  0  0  0  0  0  0  0  0
  -23.6149  -29.5705   20.1540 C   0  0  0  0  0  0  0  0  0  0  0  0
  -23.6589  -26.9328   21.4903 C   0  0  0  0  0  0  0  0  0  0  0  0
  -22.0193  -33.3800   24.2932 C   0  0  0  0  0  0  0  0  0  0  0  0
  -30.4796  -13.4553   15.9576 C   0  0  0  0  0  0  0  0  0  0  0  0
  -22.8279  -32.1837   24.7851 C   0  0  0  0  0  0  0  0  0  0  0  0
  -31.2923  -12.8572   17.1028 C   0  0  0  0  0  0  0  0  0  0  0  0
  -30.7465  -14.9474   15.8231 C   0  0  0  0  0  0  0  0  0  0  0  0
  -30.9163  -18.2139   18.4356 C   0  0  0  0  0  0  0  0  0  0  0  0
  -31.2272  -15.1531   18.2470 C   0  0  0  0  0  0  0  0  0  0  0  0
  -31.0516  -19.6800   18.0462 C   0  0  0  0  0  0  0  0  0  0  0  0
  -28.5688  -19.9127   18.0764 C   0  0  0  0  0  0  0  0  0  0  0  0
  -23.9650  -31.8488   23.8123 C   0  0  1  0  0  0  0  0  0  0  0  0
  -22.7064  -29.2549   21.3383 C   0  0  1  0  0  0  0  0  0  0  0  0
  -31.1354  -13.6214   18.4291 C   0  0  1  0  0  0  0  0  0  0  0  0
  -28.4265  -18.4378   18.4550 C   0  0  2  0  0  0  0  0  0  0  0  0
  -28.1439  -18.2339   19.9465 C   0  0  0  0  0  0  0  0  0  0  0  0
  -18.9482  -22.6297   19.9294 C   0  0  0  0  0  0  0  0  0  0  0  0
  -21.4858  -26.3913   24.7545 C   0  0  0  0  0  0  0  0  0  0  0  0
  -20.5054  -24.2044   24.0302 C   0  0  0  0  0  0  0  0  0  0  0  0
  -19.1592  -26.2961   23.8421 C   0  0  0  0  0  0  0  0  0  0  0  0
  -20.9102  -24.7069   17.4171 C   0  0  0  0  0  0  0  0  0  0  0  0
  -29.1360  -24.2129   19.1223 C   0  0  0  0  0  0  0  0  0  0  0  0
  -28.9799  -22.6894   19.1477 C   0  0  0  0  0  0  0  0  0  0  0  0
  -28.0425  -24.8972   19.9327 C   0  0  0  0  0  0  0  0  0  1  0  0
  -21.0849  -25.9139   22.2490 C   0  0  1  0  0  0  0  0  0  0  0  0
  -19.6353  -23.8783   19.3987 C   0  0  2  0  0  0  0  0  0  0  0  0
  -30.0145  -21.9310   18.3057 C   0  0  2  0  0  0  0  0  0  0  0  0
  -20.5822  -25.7117   23.7063 C   0  0  0  0  0  0  0  0  0  0  0  0
  -28.7664  -13.8401   19.0979 N   0  0  0  0  0  0  0  0  0  0  0  0
  -29.9183  -13.1585   19.2193 N   0  0  0  0  0  0  0  0  0  0  0  0
  -22.4829  -27.8182   21.5121 N   0  0  0  0  0  0  0  0  0  0  0  0
  -30.4877  -15.6519   17.0777 N   0  0  0  0  0  0  0  0  0  0  0  0
  -29.6106  -17.6643   18.0426 N   0  0  0  0  0  0  0  0  0  0  0  0
  -30.9093  -11.3029   20.3082 N   0  0  0  0  0  0  0  0  0  0  0  0
  -26.6617  -11.2646   21.8421 N   0  0  0  0  0  0  0  0  0  0  0  0
  -23.4515  -31.1413   22.6590 N   0  0  0  0  0  0  0  0  0  0  0  0
  -20.2337  -25.3040   21.2332 N   0  0  0  0  0  0  0  0  0  0  0  0
  -29.8797  -20.4594   18.5841 N   0  3  2  0  0  0  0  0  0  0  0  0
  -20.2225  -23.5611   18.0662 N   0  3  0  0  0  0  0  0  0  0  0  0
  -31.9666  -22.4428   19.5646 O   0  5  0  0  0  0  0  0  0  0  0  0
  -28.6945  -10.2102   21.9627 O   0  0  0  0  0  0  0  0  0  0  0  0
  -23.4638  -28.9938   23.5594 O   0  0  0  0  0  0  0  0  0  0  0  0
  -20.2010  -28.0884   21.9073 O   0  0  0  0  0  0  0  0  0  0  0  0
  -21.8698  -23.9410   20.3154 O   0  0  0  0  0  0  0  0  0  0  0  0
  -31.9601  -22.8621   17.3224 O   0  0  0  0  0  0  0  0  0  0  0  0
  -28.4564  -16.5143   16.4119 O   0  0  0  0  0  0  0  0  0  0  0  0
  -22.6334  -14.8611   20.4734 O   0  0  0  0  0  0  0  0  0  0  0  0
  -28.2468  -26.3026   19.8853 O   0  0  0  0  0  0  0  0  0  1  0  0
  -21.7089  -20.2547   21.1502 F   0  0  0  0  0  0  0  0  0  0  0  0
  -23.4185  -16.6868   18.5516 F   0  0  0  0  0  0  0  0  0  0  0  0
  1  2  1  0  0  0  0
  1  5  2  0  0  0  0
  2  6  2  0  0  0  0
  3  8  2  0  0  0  0
  3 15  1  0  0  0  0
  4  9  1  0  0  0  0
  4 15  2  0  0  0  0
  5 17  1  0  0  0  0
  6 19  1  0  0  0  0
  7 10  2  0  0  0  0
  7 18  1  0  0  0  0
  8 21  1  0  0  0  0
  9 21  2  0  0  0  0
 10 22  1  0  0  0  0
 11 12  2  0  0  0  0
 11 23  1  0  0  0  0
 12 24  1  0  0  0  0
 13 20  1  0  0  0  0
 13 22  2  0  0  0  0
 14 24  2  0  0  0  0
 14 25  1  0  0  0  0
 15 26  1  0  0  0  0
 16 26  1  0  0  0  0
 16 27  2  0  0  0  0
 16 28  1  0  0  0  0
 17 19  2  0  0  0  0
 17 34  1  0  0  0  0
 18 20  2  0  0  0  0
 18 35  1  0  0  0  0
 19 46  1  0  0  0  0
 20 36  1  0  0  0  0
 21 81  1  0  0  0  0
 22 82  1  0  0  0  0
 23 25  2  0  0  0  0
 23 81  1  0  0  0  0
 24 83  1  0  0  0  0
 25 84  1  0  0  0  0
 26 63  2  0  0  0  0
 27 64  1  0  0  0  0
 27 68  1  0  0  0  0
 28 69  1  0  0  0  0
 28 75  2  0  0  0  0
 29 47  1  0  0  0  0
 29 70  1  0  0  0  0
 29 76  2  0  0  0  0
 30 59  1  0  0  0  0
 30 65  1  0  0  0  0
 30 77  2  0  0  0  0
 31 60  1  0  0  0  0
 31 71  1  0  0  0  0
 31 78  2  0  0  0  0
 32 61  1  0  0  0  0
 32 74  1  0  0  0  0
 32 79  2  0  0  0  0
 33 66  1  0  0  0  0
 33 67  1  0  0  0  0
 33 80  2  0  0  0  0
 34 37  1  0  0  0  0
 35 47  1  0  0  0  0
 36 65  1  0  0  0  0
 37 39  1  0  0  0  0
 38 40  1  0  0  0  0
 38 41  1  0  0  0  0
 39 46  1  0  0  0  0
 40 48  1  0  0  0  0
 41 66  1  0  0  0  0
 42 44  1  0  0  0  0
 42 67  1  0  0  0  0
 43 48  1  0  0  0  0
 43 66  1  0  0  0  0
 44 72  1  0  0  0  0
 45 49  1  0  0  0  0
 45 72  1  0  0  0  0
 46 70  1  0  0  0  0
 47 65  1  0  0  0  0
 48 64  1  0  0  0  0
 49 50  1  0  0  0  0
 49 67  1  0  0  0  0
 51 60  1  0  0  0  0
 52 62  1  0  0  0  0
 53 62  1  0  0  0  0
 54 62  1  0  0  0  0
 55 73  1  0  0  0  0
 56 57  1  0  0  0  0
 56 58  1  0  0  0  0
 57 61  1  0  0  0  0
 58 82  1  0  0  0  0
 59 62  1  0  0  0  0
 59 71  1  0  0  0  0
 60 73  1  0  0  0  0
 61 72  1  0  0  0  0
 63 64  1  0  0  0  0
M  CHG  3  72   1  73   1  74  -1
M  ISO  4  33 100  58 101  67 100  82 101
M  END
> <Batch ID>
0199

> <Smiles>
CNC(C)C(=O)NC(C(=O)N1Cc2cc([101O:1][101CH2:1]CCC(C(=O)O)N3CC[100N:0]([100C:0](=O)N4CCCC(n5nc(-c6ccc(Oc7ccc(F)cc7F)cc6)c(C(N)=O)c5N)C4)C(C)C3)ccc2CC1C(=O)NC1CCCc2ccccc21)C(C)(C)C

> <Shape>
0.254

> <Color>
0.084

> <Negative vol penalty>
0.000

$$$$

  -OEChem-04052323503D

 90100  0     1  0  0  0  0  0999 V2000
  -18.2233  -27.1442   21.9283 C   0  0  0  0  0  0  0  0  0  0  0  0
  -18.9493  -28.1084   21.2364 C   0  0  0  0  0  0  0  0  0  0  0  0
  -23.4677  -10.0322   22.2612 C   0  0  0  0  0  0  0  0  0  0  0  0
  -24.2277   -9.2585   20.1023 C   0  0  0  0  0  0  0  0  0  0  0  0
  -18.7407  -26.5901   23.0984 C   0  0  0  0  0  0  0  0  0  0  0  0
  -20.1927  -28.5199   21.7150 C   0  0  0  0  0  0  0  0  0  0  0  0
  -26.1247  -27.8506   17.6832 C   0  0  0  0  0  0  0  0  0  0  0  0
  -22.9587   -8.7632   22.5369 C   0  0  0  0  0  0  0  0  0  0  0  0
  -23.7187   -7.9894   20.3780 C   0  0  0  0  0  0  0  0  0  0  0  0
  -27.2705  -27.9502   16.8937 C   0  0  0  0  0  0  0  0  0  0  0  0
  -20.2264   -6.9459   21.7265 C   0  0  0  0  0  0  0  0  0  0  0  0
  -18.9494   -6.8672   22.2821 C   0  0  0  0  0  0  0  0  0  0  0  0
  -28.5112  -28.8081   18.7838 C   0  0  0  0  0  0  0  0  0  0  0  0
  -19.8605   -5.7444   24.2176 C   0  0  0  0  0  0  0  0  0  0  0  0
  -24.1022  -10.2799   21.0439 C   0  0  0  0  0  0  0  0  0  0  0  0
  -23.9096  -12.8002   20.6994 C   0  0  0  0  0  0  0  0  0  0  0  0
  -19.9954  -26.9880   23.5863 C   0  0  0  0  0  0  0  0  0  0  0  0
  -26.1718  -28.2153   19.0316 C   0  0  0  0  0  0  0  0  0  0  0  0
  -20.7268  -27.9715   22.8935 C   0  0  0  0  0  0  0  0  0  0  0  0
  -27.3699  -28.6987   19.5827 C   0  0  0  0  0  0  0  0  0  0  0  0
  -23.0842   -7.7418   21.5953 C   0  0  0  0  0  0  0  0  0  0  0  0
  -28.4607  -28.4280   17.4426 C   0  0  0  0  0  0  0  0  0  0  0  0
  -21.3205   -6.4237   22.4165 C   0  0  0  0  0  0  0  0  0  0  0  0
  -18.7665   -6.2665   23.5276 C   0  0  0  0  0  0  0  0  0  0  0  0
  -21.1376   -5.8230   23.6620 C   0  0  0  0  0  0  0  0  0  0  0  0
  -24.6277  -11.5908   20.7584 C   0  0  0  0  0  0  0  0  0  0  0  0
  -24.8568  -13.7476   20.3967 C   0  0  0  0  0  0  0  0  0  0  0  0
  -22.5113  -13.0454   20.9003 C   0  0  0  0  0  0  0  0  0  0  0  0
  -24.3261  -28.5401   22.2818 C   0  0  0  0  0  0  0  0  0  0  0  0
  -27.1201  -27.4627   22.9475 C   0  0  0  0  0  0  0  0  0  0  0  0
  -30.4273  -26.2050   23.6450 C   0  0  0  0  0  0  0  0  0  0  0  0
  -29.7681  -16.0055   21.2500 C   0  0  0  0  0  0  0  0  0  0  0  0
  -20.4921  -26.3950   24.8810 C   0  0  0  0  0  0  0  0  0  0  0  0
  -24.9464  -28.1826   19.9039 C   0  0  0  0  0  0  0  0  0  0  0  0
  -27.3649  -29.1120   21.0291 C   0  0  0  0  0  0  0  0  0  0  0  0
  -21.9843  -26.6132   25.1180 C   0  0  0  0  0  0  0  0  0  0  0  0
  -29.6677  -13.2408   18.9168 C   0  0  0  0  0  0  0  0  0  0  0  0
  -22.3638  -28.0627   24.8319 C   0  0  0  0  0  0  0  0  0  0  0  0
  -28.2771  -12.6641   19.1883 C   0  0  0  0  0  0  0  0  0  0  0  0
  -33.6244  -17.5656   22.6844 C   0  0  0  0  0  0  0  0  0  0  0  0
  -33.9379  -16.7014   21.5018 C   0  0  0  0  0  0  0  0  0  0  0  0
  -29.6960  -24.2314   18.4803 C   0  0  0  0  0  0  0  0  0  0  0  0
  -30.0232  -23.6818   16.0322 C   0  0  0  0  0  0  0  0  0  0  0  0
  -30.3254  -13.7275   20.2048 C   0  0  0  0  0  0  0  0  0  0  0  0
  -28.1299  -14.1458   21.2432 C   0  0  0  0  0  0  0  0  0  0  0  0
  -31.2193  -18.7270   20.0302 C   0  0  0  0  0  0  0  0  0  0  0  0
  -33.4699  -19.0984   20.5733 C   0  0  0  0  0  0  0  0  0  0  0  0
  -30.6871  -25.3815   18.3443 C   0  0  0  0  0  0  0  0  0  0  0  0
  -31.0115  -24.8364   15.9155 C   0  0  0  0  0  0  0  0  0  0  0  0
  -22.0903  -28.4258   23.3674 C   0  0  1  0  0  0  0  0  0  0  0  0
  -25.2543  -27.8013   21.3630 C   0  0  1  0  0  0  0  0  0  0  0  0
  -27.4030  -13.6569   19.9773 C   0  0  2  0  0  0  0  0  0  0  0  0
  -31.5066  -17.7628   21.1808 C   0  0  2  0  0  0  0  0  0  0  0  0
  -29.9136  -23.1245   17.4503 C   0  0  0  0  0  0  0  0  0  0  0  0
  -33.0024  -17.8823   21.3421 C   0  0  0  0  0  0  0  0  0  0  0  0
  -31.3414  -25.0601   25.6824 C   0  0  0  0  0  0  0  0  0  0  0  0
  -31.6465  -29.6433   17.1795 C   0  0  0  0  0  0  0  0  0  0  0  0
  -27.9796  -30.2679   23.7818 C   0  0  0  0  0  0  0  0  0  0  0  0
  -30.0902  -29.2742   24.6906 C   0  0  0  0  0  0  0  0  0  0  0  0
  -27.8859  -28.6067   25.6488 C   0  0  0  0  0  0  0  0  0  0  0  0
  -31.3598  -23.8832   22.0643 C   0  0  0  0  0  0  0  0  0  0  0  0
  -32.3261  -20.7001   19.1459 C   0  0  0  0  0  0  0  0  0  0  0  0
  -31.5288  -27.1210   16.7691 C   0  0  0  0  0  0  0  0  0  0  0  0
  -31.0091  -21.4124   18.9020 C   0  0  0  0  0  0  0  0  0  0  0  0
  -28.5375  -27.7846   23.3485 C   0  0  1  0  0  0  0  0  0  0  0  0
  -30.7774  -24.8726   24.2826 C   0  0  2  0  0  0  0  0  0  0  0  0
  -30.8353  -28.3620   17.3216 C   0  0  2  0  0  0  0  0  0  1  0  0
  -28.6161  -28.9795   24.3402 C   0  0  0  0  0  0  0  0  0  0  0  0
  -25.9306  -11.7523   20.5127 N   0  0  0  0  0  0  0  0  0  0  0  0
  -26.0387  -13.0742   20.2964 N   0  0  0  0  0  0  0  0  0  0  0  0
  -26.6115  -28.1334   21.8286 N   0  0  0  0  0  0  0  0  0  0  0  0
  -29.4502  -14.6833   20.8979 N   0  0  0  0  0  0  0  0  0  0  0  0
  -32.2044  -19.7873   20.2732 N   0  0  1  0  0  0  0  0  0  0  0  0
  -24.7858  -15.0826   20.2092 N   0  0  0  0  0  0  0  0  0  0  0  0
  -21.6555  -12.9798   19.7923 N   0  0  0  0  0  0  0  0  0  0  0  0
  -23.1280  -27.8914   22.5119 N   0  0  0  0  0  0  0  0  0  0  0  0
  -29.1084  -26.5439   23.8614 N   0  0  0  0  0  0  0  0  0  0  0  0
  -31.0405  -16.4349   20.8931 N   0  0  0  0  0  0  0  0  0  0  0  0
  -30.6620  -25.9019   16.9270 N   0  3  0  0  0  0  0  0  0  0  0  0
  -31.1610  -22.3787   17.7844 N   0  3  0  0  0  0  0  0  0  0  0  0
  -31.7917  -24.1551   23.4594 N   0  3  0  0  0  0  0  0  0  0  0  0
  -22.0373  -13.3308   22.0261 O   0  0  0  0  0  0  0  0  0  0  0  0
  -24.6711  -29.6190   22.7495 O   0  0  0  0  0  0  0  0  0  0  0  0
  -26.4771  -26.6436   23.6100 O   0  0  0  0  0  0  0  0  0  0  0  0
  -31.2433  -26.8797   23.0209 O   0  0  0  0  0  0  0  0  0  0  0  0
  -28.9744  -16.7508   21.8346 O   0  0  0  0  0  0  0  0  0  0  0  0
  -22.5879   -6.5032   21.8640 O   0  0  0  0  0  0  0  0  0  0  0  0
  -29.5768  -28.5184   16.6673 O   0  0  0  0  0  0  0  0  0  1  0  0
  -17.5403   -6.1924   24.0616 F   0  0  0  0  0  0  0  0  0  0  0  0
  -22.1850   -5.3206   24.3301 F   0  0  0  0  0  0  0  0  0  0  0  0
  1  2  1  0  0  0  0
  1  5  2  0  0  0  0
  2  6  2  0  0  0  0
  3  8  2  0  0  0  0
  3 15  1  0  0  0  0
  4  9  1  0  0  0  0
  4 15  2  0  0  0  0
  5 17  1  0  0  0  0
  6 19  1  0  0  0  0
  7 10  2  0  0  0  0
  7 18  1  0  0  0  0
  8 21  1  0  0  0  0
  9 21  2  0  0  0  0
 10 22  1  0  0  0  0
 11 12  2  0  0  0  0
 11 23  1  0  0  0  0
 12 24  1  0  0  0  0
 13 20  1  0  0  0  0
 13 22  2  0  0  0  0
 14 24  2  0  0  0  0
 14 25  1  0  0  0  0
 15 26  1  0  0  0  0
 16 26  1  0  0  0  0
 16 27  2  0  0  0  0
 16 28  1  0  0  0  0
 17 19  2  0  0  0  0
 17 33  1  0  0  0  0
 18 20  2  0  0  0  0
 18 34  1  0  0  0  0
 19 50  1  0  0  0  0
 20 35  1  0  0  0  0
 21 87  1  0  0  0  0
 22 88  1  0  0  0  0
 23 25  2  0  0  0  0
 23 87  1  0  0  0  0
 24 89  1  0  0  0  0
 25 90  1  0  0  0  0
 26 69  2  0  0  0  0
 27 70  1  0  0  0  0
 27 74  1  0  0  0  0
 28 75  1  0  0  0  0
 28 82  2  0  0  0  0
 29 51  1  0  0  0  0
 29 76  1  0  0  0  0
 29 83  2  0  0  0  0
 30 65  1  0  0  0  0
 30 71  1  0  0  0  0
 30 84  2  0  0  0  0
 31 66  1  0  0  0  0
 31 77  1  0  0  0  0
 31 85  2  0  0  0  0
 32 72  1  0  0  0  0
 32 78  1  0  0  0  0
 32 86  2  0  0  0  0
 33 36  1  0  0  0  0
 34 51  1  0  0  0  0
 35 71  1  0  0  0  0
 36 38  1  0  0  0  0
 37 39  1  0  0  0  0
 37 44  1  0  0  0  0
 38 50  1  0  0  0  0
 39 52  1  0  0  0  0
 40 41  1  0  0  0  0
 40 55  1  0  0  0  0
 41 55  1  0  0  0  0
 42 48  1  0  0  0  0
 42 54  1  0  0  0  0
 43 49  1  0  0  0  0
 43 54  1  0  0  0  0
 44 72  1  0  0  0  0
 45 52  1  0  0  0  0
 45 72  1  0  0  0  0
 46 53  1  0  0  0  0
 46 73  1  0  0  0  0
 47 55  1  0  0  0  0
 47 73  1  0  0  0  0
 48 79  1  0  0  0  0
 49 79  1  0  0  0  0
 50 76  1  0  0  0  0
 51 71  1  0  0  0  0
 52 70  1  0  0  0  0
 53 55  1  0  0  0  0
 53 78  1  0  0  0  0
 54 80  1  0  0  0  0
 56 66  1  0  0  0  0
 57 67  1  0  0  0  0
 58 68  1  0  0  0  0
 59 68  1  0  0  0  0
 60 68  1  0  0  0  0
 61 81  1  0  0  0  0
 62 64  1  0  0  0  0
 62 73  1  0  0  0  0
 63 67  1  0  0  0  0
 63 79  1  0  0  0  0
 64 80  1  0  0  0  0
 65 68  1  0  0  0  0
 65 77  1  0  0  0  0
 66 81  1  0  0  0  0
 67 88  1  0  0  0  0
 69 70  1  0  0  0  0
M  CHG  3  79   1  80   1  81   1
M  ISO  4  32 100  67 101  78 100  88 101
M  END
> <Batch ID>
0199

> <Smiles>
CNC(C)C(=O)NC(C(=O)N1Cc2cc([101O:1][101CH:1](C)CN3CCC(NCCN4CC([100NH:0][100C:0](=O)N5CCCC(n6nc(-c7ccc(Oc8ccc(F)cc8F)cc7)c(C(N)=O)c6N)C5)C5(CC5)C4)CC3)ccc2CC1C(=O)NC1CCCc2ccccc21)C(C)(C)C

> <Shape>
0.278

> <Color>
0.123

> <Negative vol penalty>
0.000

$$$$

  -OEChem-04052323503D

 83 92  0     1  0  0  0  0  0999 V2000
  -25.3146  -29.7718   22.9210 C   0  0  0  0  0  0  0  0  0  0  0  0
  -24.4090  -28.7717   23.2605 C   0  0  0  0  0  0  0  0  0  0  0  0
  -28.8012  -12.8956   20.9514 C   0  0  0  0  0  0  0  0  0  0  0  0
  -28.2347  -12.5576   18.6272 C   0  0  0  0  0  0  0  0  0  0  0  0
  -26.0788  -29.6542   21.7608 C   0  0  0  0  0  0  0  0  0  0  0  0
  -24.2664  -27.6539   22.4392 C   0  0  0  0  0  0  0  0  0  0  0  0
  -22.8335  -20.6421   22.7531 C   0  0  0  0  0  0  0  0  0  0  0  0
  -30.1569  -12.8793   20.6234 C   0  0  0  0  0  0  0  0  0  0  0  0
  -29.5904  -12.5414   18.2991 C   0  0  0  0  0  0  0  0  0  0  0  0
  -21.9812  -19.6909   22.1940 C   0  0  0  0  0  0  0  0  0  0  0  0
  -32.0654  -14.7943   17.8315 C   0  0  0  0  0  0  0  0  0  0  0  0
  -32.4701  -15.5306   16.7181 C   0  0  0  0  0  0  0  0  0  0  0  0
  -23.4114  -19.5573   20.2560 C   0  0  0  0  0  0  0  0  0  0  0  0
  -33.2980  -13.5105   15.6833 C   0  0  0  0  0  0  0  0  0  0  0  0
  -27.8402  -12.7347   19.9533 C   0  0  0  0  0  0  0  0  0  0  0  0
  -25.5887  -13.8715   20.3359 C   0  0  0  0  0  0  0  0  0  0  0  0
  -25.9524  -28.5297   20.9300 C   0  0  0  0  0  0  0  0  0  0  0  0
  -23.9772  -21.0668   22.0618 C   0  0  0  0  0  0  0  0  0  0  0  0
  -25.0286  -27.5217   21.2661 C   0  0  0  0  0  0  0  0  0  0  0  0
  -24.2779  -20.5121   20.8096 C   0  0  0  0  0  0  0  0  0  0  0  0
  -30.5514  -12.7022   19.2973 C   0  0  0  0  0  0  0  0  0  0  0  0
  -22.2685  -19.1504   20.9440 C   0  0  0  0  0  0  0  0  0  0  0  0
  -32.2772  -13.4162   17.8709 C   0  0  0  0  0  0  0  0  0  0  0  0
  -33.0864  -14.8887   15.6439 C   0  0  0  0  0  0  0  0  0  0  0  0
  -32.8934  -12.7742   16.7968 C   0  0  0  0  0  0  0  0  0  0  0  0
  -26.4397  -12.7509   20.2916 C   0  0  0  0  0  0  0  0  0  0  0  0
  -19.5567  -14.2572   19.0966 C   0  0  0  0  0  0  0  0  0  0  0  0
  -19.2814  -14.7914   20.3631 C   0  0  0  0  0  0  0  0  0  0  0  0
  -24.3684  -13.3615   20.7066 C   0  0  0  0  0  0  0  0  0  0  0  0
  -25.8756  -15.2501   20.0660 C   0  0  0  0  0  0  0  0  0  0  0  0
  -24.9926  -23.8452   20.8986 C   0  0  0  0  0  0  0  0  0  0  0  0
  -27.6906  -22.1549   20.2772 C   0  0  0  0  0  0  0  0  0  0  0  0
  -29.1412  -19.1177   19.7136 C   0  0  0  0  0  0  0  0  0  0  0  0
  -20.4714   -9.3991   19.9023 C   0  0  0  0  0  0  0  0  0  0  0  0
  -26.7658  -28.4694   19.6614 C   0  0  0  0  0  0  0  0  0  0  0  0
  -24.9007  -22.0740   22.6904 C   0  0  0  0  0  0  0  0  0  0  0  0
  -25.5041  -20.9195   20.0356 C   0  0  0  0  0  0  0  0  0  0  0  0
  -26.8251  -27.0756   19.0416 C   0  0  0  0  0  0  0  0  0  0  0  0
  -23.0695   -8.7821   22.4253 C   0  0  0  0  0  0  0  0  0  0  0  0
  -25.4346  -26.4499   19.0006 C   0  0  0  0  0  0  0  0  0  0  0  0
  -24.1307   -9.8246   22.0639 C   0  0  0  0  0  0  0  0  0  0  0  0
  -18.2272  -12.0432   18.8158 C   0  0  0  0  0  0  0  0  0  0  0  0
  -22.2753   -8.3233   21.2036 C   0  0  0  0  0  0  0  0  0  0  0  0
  -18.6540  -10.5887   18.6999 C   0  0  0  0  0  0  0  0  0  0  0  0
  -20.5370  -11.9041   19.3879 C   0  0  0  0  0  0  0  0  0  0  0  0
  -22.7605  -10.4405   20.0419 C   0  0  0  0  0  0  0  0  0  0  0  0
  -24.8632  -26.2822   20.4138 C   0  0  1  0  0  0  0  0  0  0  0  0
  -19.5441  -12.8132   18.6444 C   0  0  2  0  0  0  0  0  0  0  0  0
  -25.7630  -22.8119   21.6709 C   0  0  1  0  0  0  0  0  0  0  0  0
  -23.5191  -10.9875   21.2582 C   0  0  2  0  0  0  0  0  0  0  0  0
  -31.3570  -18.0580   19.1986 C   0  0  0  0  0  0  0  0  0  0  0  0
  -27.4712  -23.1065   17.3865 C   0  0  0  0  0  0  0  0  0  0  0  0
  -29.0900  -21.3078   16.7447 C   0  0  0  0  0  0  0  0  0  0  0  0
  -29.7937  -23.1147   18.3140 C   0  0  0  0  0  0  0  0  0  0  0  0
  -29.0926  -17.5289   22.2101 C   0  0  0  0  0  0  0  0  0  0  0  0
  -19.9981  -17.6412   18.5411 C   0  0  0  0  0  0  0  0  0  0  0  0
  -21.3569  -18.1822   18.9724 C   0  0  0  0  0  0  0  0  0  1  0  0
  -28.1921  -21.3305   19.1162 C   0  0  1  0  0  0  0  0  0  0  0  0
  -30.3871  -18.4732   20.2940 C   0  0  2  0  0  0  0  0  0  0  0  0
  -28.6125  -22.2084   17.9038 C   0  0  0  0  0  0  0  0  0  0  0  0
  -25.8131  -11.6148   20.6090 N   0  0  0  0  0  0  0  0  0  0  0  0
  -19.8595  -15.2416   18.2456 N   0  0  0  0  0  0  0  0  0  0  0  0
  -19.4076  -16.1210   20.3311 N   0  0  0  0  0  0  0  0  0  0  0  0
  -24.5555  -12.0188   20.8564 N   0  0  0  0  0  0  0  0  0  0  0  0
  -19.7506  -16.3133   19.0473 N   0  0  0  0  0  0  0  0  0  0  0  0
  -26.3727  -21.9122   20.6895 N   0  0  0  0  0  0  0  0  0  0  0  0
  -21.7478   -9.4710   20.4686 N   0  0  0  0  0  0  0  0  0  0  0  0
  -19.9959  -10.5478   19.2648 N   0  0  0  0  0  0  0  0  0  0  0  0
  -23.1645  -13.9351   20.9159 N   0  0  0  0  0  0  0  0  0  0  0  0
  -27.1815  -15.6010   19.6974 N   0  0  0  0  0  0  0  0  0  0  0  0
  -25.4578  -25.1356   21.0665 N   0  0  0  0  0  0  0  0  0  0  0  0
  -29.2609  -20.4896   19.6442 N   0  0  0  0  0  0  0  0  0  0  0  0
  -30.0241  -17.2627   21.0839 N   0  3  0  0  0  0  0  0  0  0  0  0
  -25.0037  -16.1465   20.1651 O   0  0  0  0  0  0  0  0  0  0  0  0
  -24.0472  -23.4974   20.2008 O   0  0  0  0  0  0  0  0  0  0  0  0
  -28.4429  -22.9787   20.8035 O   0  0  0  0  0  0  0  0  0  0  0  0
  -28.1614  -18.4687   19.3540 O   0  0  0  0  0  0  0  0  0  0  0  0
  -19.7769   -8.3809   20.0107 O   0  0  0  0  0  0  0  0  0  0  0  0
  -31.8742  -12.6865   18.9768 O   0  0  0  0  0  0  0  0  0  0  0  0
  -21.4321  -18.2158   20.3919 O   0  0  0  0  0  0  0  0  0  1  0  0
  -33.4735  -15.5956   14.5741 F   0  0  0  0  0  0  0  0  0  0  0  0
  -33.0984  -11.4503   16.8283 F   0  0  0  0  0  0  0  0  0  0  0  0
  -18.9442  -14.0892   21.4445 F   0  0  0  0  0  0  0  0  0  0  0  0
  1  2  1  0  0  0  0
  1  5  2  0  0  0  0
  2  6  2  0  0  0  0
  3  8  2  0  0  0  0
  3 15  1  0  0  0  0
  4  9  1  0  0  0  0
  4 15  2  0  0  0  0
  5 17  1  0  0  0  0
  6 19  1  0  0  0  0
  7 10  2  0  0  0  0
  7 18  1  0  0  0  0
  8 21  1  0  0  0  0
  9 21  2  0  0  0  0
 10 22  1  0  0  0  0
 11 12  2  0  0  0  0
 11 23  1  0  0  0  0
 12 24  1  0  0  0  0
 13 20  1  0  0  0  0
 13 22  2  0  0  0  0
 14 24  2  0  0  0  0
 14 25  1  0  0  0  0
 15 26  1  0  0  0  0
 16 26  1  0  0  0  0
 16 29  2  0  0  0  0
 16 30  1  0  0  0  0
 17 19  2  0  0  0  0
 17 35  1  0  0  0  0
 18 20  2  0  0  0  0
 18 36  1  0  0  0  0
 19 47  1  0  0  0  0
 20 37  1  0  0  0  0
 21 79  1  0  0  0  0
 22 80  1  0  0  0  0
 23 25  2  0  0  0  0
 23 79  1  0  0  0  0
 24 81  1  0  0  0  0
 25 82  1  0  0  0  0
 26 61  2  0  0  0  0
 27 28  1  0  0  0  0
 27 48  1  0  0  0  0
 27 62  2  0  0  0  0
 28 63  2  0  0  0  0
 28 83  1  0  0  0  0
 29 64  1  0  0  0  0
 29 69  1  0  0  0  0
 30 70  1  0  0  0  0
 30 74  2  0  0  0  0
 31 49  1  0  0  0  0
 31 71  1  0  0  0  0
 31 75  2  0  0  0  0
 32 58  1  0  0  0  0
 32 66  1  0  0  0  0
 32 76  2  0  0  0  0
 33 59  1  0  0  0  0
 33 72  1  0  0  0  0
 33 77  2  0  0  0  0
 34 67  1  0  0  0  0
 34 68  1  0  0  0  0
 34 78  2  0  0  0  0
 35 38  1  0  0  0  0
 36 49  1  0  0  0  0
 37 66  1  0  0  0  0
 38 40  1  0  0  0  0
 39 41  1  0  0  0  0
 39 43  1  0  0  0  0
 40 47  1  0  0  0  0
 41 50  1  0  0  0  0
 42 44  1  0  0  0  0
 42 48  1  0  0  0  0
 43 67  1  0  0  0  0
 44 68  1  0  0  0  0
 45 48  1  0  0  0  0
 45 68  1  0  0  0  0
 46 50  1  0  0  0  0
 46 67  1  0  0  0  0
 47 71  1  0  0  0  0
 49 66  1  0  0  0  0
 50 64  1  0  0  0  0
 51 59  1  0  0  0  0
 52 60  1  0  0  0  0
 53 60  1  0  0  0  0
 54 60  1  0  0  0  0
 55 73  1  0  0  0  0
 56 57  1  0  0  0  0
 56 65  1  0  0  0  0
 57 80  1  0  0  0  0
 58 60  1  0  0  0  0
 58 72  1  0  0  0  0
 59 73  1  0  0  0  0
 61 64  1  0  0  0  0
 62 65  1  0  0  0  0
 63 65  1  0  0  0  0
M  CHG  1  73   1
M  ISO  4  34 100  57 101  68 100  80 101
M  END
> <Batch ID>
0199

> <Smiles>
CNC(C)C(=O)NC(C(=O)N1Cc2cc([101O:1][101CH2:1]Cn3nc(F)c(C4CC[100N:0]([100C:0](=O)N5CCCC(n6nc(-c7ccc(Oc8ccc(F)cc8F)cc7)c(C(N)=O)c6N)C5)C4)n3)ccc2CC1C(=O)NC1CCCc2ccccc21)C(C)(C)C

> <Shape>
0.225

> <Color>
0.097

> <Negative vol penalty>
0.000

$$$$

  -OEChem-04052323503D

 85 94  0     1  0  0  0  0  0999 V2000
  -18.4403  -24.2536   24.2615 C   0  0  0  0  0  0  0  0  0  0  0  0
  -19.7764  -24.1567   23.8861 C   0  0  0  0  0  0  0  0  0  0  0  0
  -24.9573  -15.2309   22.9849 C   0  0  0  0  0  0  0  0  0  0  0  0
  -24.2911  -16.1194   20.8393 C   0  0  0  0  0  0  0  0  0  0  0  0
  -17.7403  -25.4394   24.0428 C   0  0  0  0  0  0  0  0  0  0  0  0
  -20.4130  -25.2452   23.2908 C   0  0  0  0  0  0  0  0  0  0  0  0
  -25.0221  -26.0889   25.2114 C   0  0  0  0  0  0  0  0  0  0  0  0
  -24.6011  -16.4341   23.5939 C   0  0  0  0  0  0  0  0  0  0  0  0
  -23.9349  -17.3227   21.4483 C   0  0  0  0  0  0  0  0  0  0  0  0
  -26.0543  -25.2577   24.7784 C   0  0  0  0  0  0  0  0  0  0  0  0
  -21.3445  -18.5277   23.2534 C   0  0  0  0  0  0  0  0  0  0  0  0
  -20.1281  -19.1030   22.8860 C   0  0  0  0  0  0  0  0  0  0  0  0
  -26.7838  -26.9720   23.2460 C   0  0  0  0  0  0  0  0  0  0  0  0
  -21.2926  -21.0770   22.1214 C   0  0  0  0  0  0  0  0  0  0  0  0
  -24.8024  -15.0735   21.6076 C   0  0  0  0  0  0  0  0  0  0  0  0
  -24.3484  -12.7079   20.7679 C   0  0  0  0  0  0  0  0  0  0  0  0
  -18.3713  -26.5462   23.4533 C   0  0  0  0  0  0  0  0  0  0  0  0
  -24.8562  -27.3659   24.6562 C   0  0  0  0  0  0  0  0  0  0  0  0
  -19.7203  -26.4464   23.0628 C   0  0  0  0  0  0  0  0  0  0  0  0
  -25.7503  -27.8184   23.6755 C   0  0  0  0  0  0  0  0  0  0  0  0
  -24.0898  -17.4801   22.8256 C   0  0  0  0  0  0  0  0  0  0  0  0
  -26.9336  -25.6980   23.7935 C   0  0  0  0  0  0  0  0  0  0  0  0
  -22.5350  -19.2271   23.0549 C   0  0  0  0  0  0  0  0  0  0  0  0
  -20.1022  -20.3776   22.3200 C   0  0  0  0  0  0  0  0  0  0  0  0
  -22.5090  -20.5017   22.4889 C   0  0  0  0  0  0  0  0  0  0  0  0
  -25.1707  -13.8310   20.9779 C   0  0  0  0  0  0  0  0  0  0  0  0
  -25.1628  -11.7990   20.1377 C   0  0  0  0  0  0  0  0  0  0  0  0
  -22.9714  -12.5044   21.1117 C   0  0  0  0  0  0  0  0  0  0  0  0
  -22.5583  -28.8119   23.0033 C   0  0  0  0  0  0  0  0  0  0  0  0
  -24.4683  -31.4085   23.3663 C   0  0  0  0  0  0  0  0  0  0  0  0
  -27.6012  -32.6471   23.9119 C   0  0  0  0  0  0  0  0  0  0  0  0
  -29.6738  -14.9357   19.6165 C   0  0  0  0  0  0  0  0  0  0  0  0
  -17.5603  -27.7911   23.1939 C   0  0  0  0  0  0  0  0  0  0  0  0
  -23.7540  -28.2606   25.1533 C   0  0  0  0  0  0  0  0  0  0  0  0
  -25.6276  -29.1885   23.0621 C   0  0  0  0  0  0  0  0  0  0  0  0
  -18.4126  -29.0228   22.8994 C   0  0  0  0  0  0  0  0  0  0  0  0
  -29.3201  -11.8007   21.2939 C   0  0  0  0  0  0  0  0  0  0  0  0
  -30.4176  -16.3635   16.3672 C   0  0  0  0  0  0  0  0  0  0  0  0
  -19.5047  -28.6871   21.8887 C   0  0  0  0  0  0  0  0  0  0  0  0
  -28.4225  -10.9697   20.3837 C   0  0  0  0  0  0  0  0  0  0  0  0
  -29.6742  -17.5418   16.9805 C   0  0  0  0  0  0  0  0  0  0  0  0
  -30.2400  -12.6904   20.4722 C   0  0  0  0  0  0  0  0  0  0  0  0
  -29.8025  -15.1724   17.0854 C   0  0  0  0  0  0  0  0  0  0  0  0
  -28.1402  -23.2412   20.8522 C   0  0  0  0  0  0  0  0  0  0  0  0
  -28.0021  -21.4171   21.8452 C   0  0  0  0  0  0  0  0  0  0  0  0
  -28.5410  -12.8615   18.6637 C   0  0  0  0  0  0  0  0  0  0  0  0
  -20.4526  -27.6136   22.4369 C   0  0  1  0  0  0  0  0  0  0  0  0
  -23.3671  -29.3447   24.1521 C   0  0  1  0  0  0  0  0  0  0  0  0
  -28.4859  -22.8159   22.3007 C   0  0  0  0  0  0  0  0  0  0  0  0
  -27.6381  -11.8324   19.3823 C   0  0  2  0  0  0  0  0  0  0  0  0
  -29.5208  -17.1350   18.4486 C   0  0  1  0  0  0  0  0  0  0  0  0
  -28.8558  -34.8106   24.1180 C   0  0  0  0  0  0  0  0  0  0  0  0
  -27.5593  -21.9527   18.1339 C   0  0  0  0  0  0  0  0  0  0  0  0
  -24.3519  -31.7617   20.3378 C   0  0  0  0  0  0  0  0  0  0  0  0
  -26.3256  -33.2924   20.5104 C   0  0  0  0  0  0  0  0  0  0  0  0
  -24.1845  -33.8882   21.6432 C   0  0  0  0  0  0  0  0  0  0  0  0
  -28.4272  -32.0378   26.6877 C   0  0  0  0  0  0  0  0  0  0  0  0
  -27.7118  -23.4824   23.4177 C   0  0  0  0  0  0  0  0  0  1  0  0
  -28.2530  -17.7084   19.0685 C   0  0  0  0  0  0  0  0  0  0  0  0
  -27.1192  -19.8797   19.5570 C   0  0  0  0  0  0  0  0  0  0  0  0
  -25.6043  -32.0182   22.5809 C   0  0  1  0  0  0  0  0  0  0  0  0
  -28.1107  -33.7144   24.8636 C   0  0  2  0  0  0  0  0  0  0  0  0
  -27.2954  -21.3976   19.5302 C   0  0  1  0  0  0  0  0  0  0  0  0
  -25.1180  -32.7135   21.2780 C   0  0  0  0  0  0  0  0  0  0  0  0
  -26.4124  -13.6540   20.5186 N   0  0  0  0  0  0  0  0  0  0  0  0
  -26.3763  -12.4091   20.0137 N   0  0  0  0  0  0  0  0  0  0  0  0
  -24.5300  -30.0237   23.5768 N   0  0  0  0  0  0  0  0  0  0  0  0
  -29.4932  -13.5462   19.5500 N   0  0  0  0  0  0  0  0  0  0  0  0
  -29.5285  -15.6672   18.4355 N   0  0  0  0  0  0  0  0  0  0  0  0
  -28.3380  -21.8234   20.4569 N   0  0  0  0  0  0  0  0  0  0  0  0
  -24.9522  -10.5454   19.6831 N   0  0  0  0  0  0  0  0  0  0  0  0
  -22.2832  -13.5416   21.7557 N   0  0  0  0  0  0  0  0  0  0  0  0
  -21.3815  -28.1946   23.3824 N   0  0  0  0  0  0  0  0  0  0  0  0
  -26.3094  -32.9023   23.5026 N   0  0  0  0  0  0  0  0  0  0  0  0
  -29.0364  -33.1152   25.8661 N   0  3  0  0  0  0  0  0  0  0  0  0
  -28.3277  -19.1843   19.0302 N   0  3  0  0  0  0  0  0  0  0  0  0
  -22.3737  -11.4283   20.8700 O   0  0  0  0  0  0  0  0  0  0  0  0
  -22.9705  -28.9519   21.8578 O   0  0  0  0  0  0  0  0  0  0  0  0
  -23.5633  -32.1353   23.7838 O   0  0  0  0  0  0  0  0  0  0  0  0
  -28.2823  -31.6853   23.5632 O   0  0  0  0  0  0  0  0  0  0  0  0
  -29.9620  -15.4974   20.6817 O   0  0  0  0  0  0  0  0  0  0  0  0
  -23.7419  -18.6543   23.4195 O   0  0  0  0  0  0  0  0  0  0  0  0
  -27.9489  -24.8826   23.3654 O   0  0  0  0  0  0  0  0  0  1  0  0
  -18.9341  -20.9293   21.9658 F   0  0  0  0  0  0  0  0  0  0  0  0
  -23.6495  -21.1779   22.2946 F   0  0  0  0  0  0  0  0  0  0  0  0
  1  2  1  0  0  0  0
  1  5  2  0  0  0  0
  2  6  2  0  0  0  0
  3  8  2  0  0  0  0
  3 15  1  0  0  0  0
  4  9  1  0  0  0  0
  4 15  2  0  0  0  0
  5 17  1  0  0  0  0
  6 19  1  0  0  0  0
  7 10  2  0  0  0  0
  7 18  1  0  0  0  0
  8 21  1  0  0  0  0
  9 21  2  0  0  0  0
 10 22  1  0  0  0  0
 11 12  2  0  0  0  0
 11 23  1  0  0  0  0
 12 24  1  0  0  0  0
 13 20  1  0  0  0  0
 13 22  2  0  0  0  0
 14 24  2  0  0  0  0
 14 25  1  0  0  0  0
 15 26  1  0  0  0  0
 16 26  1  0  0  0  0
 16 27  2  0  0  0  0
 16 28  1  0  0  0  0
 17 19  2  0  0  0  0
 17 33  1  0  0  0  0
 18 20  2  0  0  0  0
 18 34  1  0  0  0  0
 19 47  1  0  0  0  0
 20 35  1  0  0  0  0
 21 82  1  0  0  0  0
 22 83  1  0  0  0  0
 23 25  2  0  0  0  0
 23 82  1  0  0  0  0
 24 84  1  0  0  0  0
 25 85  1  0  0  0  0
 26 65  2  0  0  0  0
 27 66  1  0  0  0  0
 27 71  1  0  0  0  0
 28 72  1  0  0  0  0
 28 77  2  0  0  0  0
 29 48  1  0  0  0  0
 29 73  1  0  0  0  0
 29 78  2  0  0  0  0
 30 61  1  0  0  0  0
 30 67  1  0  0  0  0
 30 79  2  0  0  0  0
 31 62  1  0  0  0  0
 31 74  1  0  0  0  0
 31 80  2  0  0  0  0
 32 68  1  0  0  0  0
 32 69  1  0  0  0  0
 32 81  2  0  0  0  0
 33 36  1  0  0  0  0
 34 48  1  0  0  0  0
 35 67  1  0  0  0  0
 36 39  1  0  0  0  0
 37 40  1  0  0  0  0
 37 42  1  0  0  0  0
 38 41  1  0  0  0  0
 38 43  1  0  0  0  0
 39 47  1  0  0  0  0
 40 50  1  0  0  0  0
 41 51  1  0  0  0  0
 42 68  1  0  0  0  0
 43 69  1  0  0  0  0
 44 49  1  0  0  0  0
 44 70  1  0  0  0  0
 45 49  1  0  0  0  0
 45 70  1  0  0  0  0
 46 50  1  0  0  0  0
 46 68  1  0  0  0  0
 47 73  1  0  0  0  0
 48 67  1  0  0  0  0
 49 58  1  0  0  0  0
 50 66  1  0  0  0  0
 51 59  1  0  0  0  0
 51 69  1  0  0  0  0
 52 62  1  0  0  0  0
 53 63  1  0  0  0  0
 54 64  1  0  0  0  0
 55 64  1  0  0  0  0
 56 64  1  0  0  0  0
 57 75  1  0  0  0  0
 58 83  1  0  0  0  0
 59 76  1  0  0  0  0
 60 63  1  0  0  0  0
 60 76  1  0  0  0  0
 61 64  1  0  0  0  0
 61 74  1  0  0  0  0
 62 75  1  0  0  0  0
 63 70  1  0  0  0  0
 65 66  1  0  0  0  0
M  CHG  2  75   1  76   1
M  ISO  4  32 100  58 101  69 100  83 101
M  END
> <Batch ID>
0199

> <Smiles>
CNC(C)C(=O)NC(C(=O)N1Cc2cc([101O:1][101CH2:1]C3CN(C(C)CNCC4CCC[100N:0]4[100C:0](=O)N4CCCC(n5nc(-c6ccc(Oc7ccc(F)cc7F)cc6)c(C(N)=O)c5N)C4)C3)ccc2CC1C(=O)NC1CCCc2ccccc21)C(C)(C)C

> <Shape>
0.251

> <Color>
0.083

> <Negative vol penalty>
0.000

$$$$

  -OEChem-04052323503D

 84 94  0     1  0  0  0  0  0999 V2000
  -27.1745  -35.3633   20.6261 C   0  0  0  0  0  0  0  0  0  0  0  0
  -27.5016  -34.0348   20.8781 C   0  0  0  0  0  0  0  0  0  0  0  0
  -26.9931  -12.4344   21.8913 C   0  0  0  0  0  0  0  0  0  0  0  0
  -26.1518  -14.3055   20.6153 C   0  0  0  0  0  0  0  0  0  0  0  0
  -25.9141  -35.8476   20.9735 C   0  0  0  0  0  0  0  0  0  0  0  0
  -26.5688  -33.1900   21.4786 C   0  0  0  0  0  0  0  0  0  0  0  0
  -26.3071  -28.6658   19.2186 C   0  0  0  0  0  0  0  0  0  0  0  0
  -25.6996  -11.9229   21.9943 C   0  0  0  0  0  0  0  0  0  0  0  0
  -24.8582  -13.7940   20.7183 C   0  0  0  0  0  0  0  0  0  0  0  0
  -27.3154  -27.7485   19.5114 C   0  0  0  0  0  0  0  0  0  0  0  0
  -23.5395  -10.2006   20.0448 C   0  0  0  0  0  0  0  0  0  0  0  0
  -23.3614   -8.8367   19.8131 C   0  0  0  0  0  0  0  0  0  0  0  0
  -31.6880  -23.5508   21.5473 C   0  0  0  0  0  0  0  0  0  0  0  0
  -30.9499  -24.7560   21.6454 C   0  0  0  0  0  0  0  0  0  0  0  0
  -25.8467  -26.6414   21.0723 C   0  0  0  0  0  0  0  0  0  0  0  0
  -22.4901   -8.5703   22.0507 C   0  0  0  0  0  0  0  0  0  0  0  0
  -27.2192  -13.6258   21.2019 C   0  0  0  0  0  0  0  0  0  0  0  0
  -29.4971  -13.8887   20.0838 C   0  0  0  0  0  0  0  0  0  0  0  0
  -24.9619  -35.0059   21.5697 C   0  0  0  0  0  0  0  0  0  0  0  0
  -25.0626  -28.5841   19.8596 C   0  0  0  0  0  0  0  0  0  0  0  0
  -25.2949  -33.6639   21.8354 C   0  0  0  0  0  0  0  0  0  0  0  0
  -24.8234  -27.5573   20.7840 C   0  0  0  0  0  0  0  0  0  0  0  0
  -24.6321  -12.6026   21.4078 C   0  0  0  0  0  0  0  0  0  0  0  0
  -27.0863  -26.7379   20.4405 C   0  0  0  0  0  0  0  0  0  0  0  0
  -23.1930  -10.7493   21.2796 C   0  0  0  0  0  0  0  0  0  0  0  0
  -22.8367   -8.0215   20.8160 C   0  0  0  0  0  0  0  0  0  0  0  0
  -22.6683   -9.9341   22.2825 C   0  0  0  0  0  0  0  0  0  0  0  0
  -28.5552  -14.1550   21.0957 C   0  0  0  0  0  0  0  0  0  0  0  0
  -31.4127  -22.9989   20.3157 C   0  0  0  0  0  0  0  0  0  0  0  0
  -30.2459  -24.9039   20.4708 C   0  0  0  0  0  0  0  0  0  0  0  0
  -30.5996  -14.6272   20.4381 C   0  0  0  0  0  0  0  0  0  0  0  0
  -29.3853  -13.0490   18.9271 C   0  0  0  0  0  0  0  0  0  0  0  0
  -23.4027  -30.4905   21.7869 C   0  0  0  0  0  0  0  0  0  0  0  0
  -21.1104  -28.2262   21.4121 C   0  0  0  0  0  0  0  0  0  0  0  0
  -20.3311  -24.9874   20.6705 C   0  0  0  0  0  0  0  0  0  0  0  0
  -32.7342  -19.5165   22.2711 C   0  0  0  0  0  0  0  0  0  0  0  0
  -23.6291  -35.5869   21.9706 C   0  0  0  0  0  0  0  0  0  0  0  0
  -23.9764  -29.5652   19.5130 C   0  0  0  0  0  0  0  0  0  0  0  0
  -23.4979  -27.4138   21.4847 C   0  0  0  0  0  0  0  0  0  0  0  0
  -22.5667  -34.5300   22.2616 C   0  0  0  0  0  0  0  0  0  0  0  0
  -31.7159  -17.0716   24.6970 C   0  0  0  0  0  0  0  0  0  0  0  0
  -23.1369  -33.4310   23.1525 C   0  0  0  0  0  0  0  0  0  0  0  0
  -30.8372  -16.1039   23.9111 C   0  0  0  0  0  0  0  0  0  0  0  0
  -28.4969  -23.4673   18.1715 C   0  0  0  0  0  0  0  0  0  0  0  0
  -29.3638  -22.2550   18.0327 C   0  0  0  0  0  0  0  0  0  0  0  0
  -31.5527  -18.4953   24.1820 C   0  0  0  0  0  0  0  0  0  0  0  0
  -33.3331  -21.0878   20.3554 C   0  0  0  0  0  0  0  0  0  0  0  0
  -31.3675  -20.2923   20.1830 C   0  0  0  0  0  0  0  0  0  0  0  0
  -31.0152  -17.6641   21.9073 C   0  0  0  0  0  0  0  0  0  0  0  0
  -24.3013  -32.7101   22.4626 C   0  0  1  0  0  0  0  0  0  0  0  0
  -32.0162  -21.6314   19.7520 C   0  0  0  0  0  0  0  0  0  0  0  0
  -22.9198  -29.6975   20.6055 C   0  0  1  0  0  0  0  0  0  0  0  0
  -31.1317  -16.2106   22.4079 C   0  0  2  0  0  0  0  0  0  0  0  0
  -29.9998  -23.5984   18.3423 C   0  0  0  0  0  0  0  0  0  0  0  0
  -30.7709  -24.2734   17.2417 C   0  0  0  0  0  0  0  0  0  0  0  0
  -18.3764  -23.4249   20.4832 C   0  0  0  0  0  0  0  0  0  0  0  0
  -20.9601  -28.0533   24.4548 C   0  0  0  0  0  0  0  0  0  0  0  0
  -19.7418  -25.8808   24.2016 C   0  0  0  0  0  0  0  0  0  0  0  0
  -18.7456  -27.9805   23.2951 C   0  0  0  0  0  0  0  0  0  0  0  0
  -20.8607  -24.4830   17.8028 C   0  0  0  0  0  0  0  0  0  0  0  0
  -29.3103  -25.9958   20.0418 C   0  0  0  0  0  0  0  0  0  1  0  0
  -20.7396  -26.9512   22.1304 C   0  0  1  0  0  0  0  0  0  0  0  0
  -19.2896  -24.3892   19.7422 C   0  0  2  0  0  0  0  0  0  0  0  0
  -20.0725  -27.2201   23.5089 C   0  0  0  0  0  0  0  0  0  0  0  0
  -29.0189  -14.9967   22.0233 N   0  0  0  0  0  0  0  0  0  0  0  0
  -30.5346  -23.8299   19.6701 N   0  0  0  0  0  0  0  0  0  0  0  0
  -30.2643  -15.2657   21.5957 N   0  0  0  0  0  0  0  0  0  0  0  0
  -22.4698  -28.4012   21.1166 N   0  0  0  0  0  0  0  0  0  0  0  0
  -31.7957  -18.5903   22.7395 N   0  0  0  0  0  0  0  0  0  0  0  0
  -32.5246  -20.0855   21.0356 N   0  0  0  0  0  0  0  0  0  0  0  0
  -31.8135  -14.7861   19.8693 N   0  0  0  0  0  0  0  0  0  0  0  0
  -28.1825  -12.3619   18.7140 N   0  0  0  0  0  0  0  0  0  0  0  0
  -23.8038  -31.7758   21.4758 N   0  0  0  0  0  0  0  0  0  0  0  0
  -19.9107  -26.1872   21.2043 N   0  0  0  0  0  0  0  0  0  0  0  0
  -19.9506  -23.6497   18.6300 N   0  3  0  0  0  0  0  0  0  0  0  0
  -30.3300  -12.8993   18.1155 O   0  0  0  0  0  0  0  0  0  0  0  0
  -23.4094  -29.9750   22.8986 O   0  0  0  0  0  0  0  0  0  0  0  0
  -20.2256  -29.0336   21.1176 O   0  0  0  0  0  0  0  0  0  0  0  0
  -21.4083  -24.4428   20.9022 O   0  0  0  0  0  0  0  0  0  0  0  0
  -33.7155  -19.8510   22.9481 O   0  0  0  0  0  0  0  0  0  0  0  0
  -23.3697  -12.1037   21.5078 O   0  0  0  0  0  0  0  0  0  0  0  0
  -28.0690  -25.8417   20.7286 O   0  0  0  0  0  0  0  0  0  1  0  0
  -22.6642   -6.7121   20.5927 F   0  0  0  0  0  0  0  0  0  0  0  0
  -22.3324  -10.4558   23.4703 F   0  0  0  0  0  0  0  0  0  0  0  0
  1  2  1  0  0  0  0
  1  5  2  0  0  0  0
  2  6  2  0  0  0  0
  3  8  2  0  0  0  0
  3 17  1  0  0  0  0
  4  9  1  0  0  0  0
  4 17  2  0  0  0  0
  5 19  1  0  0  0  0
  6 21  1  0  0  0  0
  7 10  2  0  0  0  0
  7 20  1  0  0  0  0
  8 23  1  0  0  0  0
  9 23  2  0  0  0  0
 10 24  1  0  0  0  0
 11 12  2  0  0  0  0
 11 25  1  0  0  0  0
 12 26  1  0  0  0  0
 13 14  1  0  0  0  0
 13 29  2  0  0  0  0
 14 30  2  0  0  0  0
 15 22  1  0  0  0  0
 15 24  2  0  0  0  0
 16 26  2  0  0  0  0
 16 27  1  0  0  0  0
 17 28  1  0  0  0  0
 18 28  1  0  0  0  0
 18 31  2  0  0  0  0
 18 32  1  0  0  0  0
 19 21  2  0  0  0  0
 19 37  1  0  0  0  0
 20 22  2  0  0  0  0
 20 38  1  0  0  0  0
 21 50  1  0  0  0  0
 22 39  1  0  0  0  0
 23 81  1  0  0  0  0
 24 82  1  0  0  0  0
 25 27  2  0  0  0  0
 25 81  1  0  0  0  0
 26 83  1  0  0  0  0
 27 84  1  0  0  0  0
 28 65  2  0  0  0  0
 29 51  1  0  0  0  0
 29 66  1  0  0  0  0
 30 61  1  0  0  0  0
 30 66  1  0  0  0  0
 31 67  1  0  0  0  0
 31 71  1  0  0  0  0
 32 72  1  0  0  0  0
 32 76  2  0  0  0  0
 33 52  1  0  0  0  0
 33 73  1  0  0  0  0
 33 77  2  0  0  0  0
 34 62  1  0  0  0  0
 34 68  1  0  0  0  0
 34 78  2  0  0  0  0
 35 63  1  0  0  0  0
 35 74  1  0  0  0  0
 35 79  2  0  0  0  0
 36 69  1  0  0  0  0
 36 70  1  0  0  0  0
 36 80  2  0  0  0  0
 37 40  1  0  0  0  0
 38 52  1  0  0  0  0
 39 68  1  0  0  0  0
 40 42  1  0  0  0  0
 41 43  1  0  0  0  0
 41 46  1  0  0  0  0
 42 50  1  0  0  0  0
 43 53  1  0  0  0  0
 44 45  1  0  0  0  0
 44 54  1  0  0  0  0
 45 54  1  0  0  0  0
 46 69  1  0  0  0  0
 47 51  1  0  0  0  0
 47 70  1  0  0  0  0
 48 51  1  0  0  0  0
 48 70  1  0  0  0  0
 49 53  1  0  0  0  0
 49 69  1  0  0  0  0
 50 73  1  0  0  0  0
 52 68  1  0  0  0  0
 53 67  1  0  0  0  0
 54 55  1  0  0  0  0
 54 66  1  0  0  0  0
 56 63  1  0  0  0  0
 57 64  1  0  0  0  0
 58 64  1  0  0  0  0
 59 64  1  0  0  0  0
 60 75  1  0  0  0  0
 61 82  1  0  0  0  0
 62 64  1  0  0  0  0
 62 74  1  0  0  0  0
 63 75  1  0  0  0  0
 65 67  1  0  0  0  0
M  CHG  1  75   1
M  ISO  4  36 100  61 101  70 100  82 101
M  END
> <Batch ID>
0199

> <Smiles>
CNC(C)C(=O)NC(C(=O)N1Cc2cc([101O:1][101CH2:1]c3ccc(C4C[100N:0]([100C:0](=O)N5CCCC(n6nc(-c7ccc(Oc8ccc(F)cc8F)cc7)c(C(N)=O)c6N)C5)C4)n3C3(C)CC3)ccc2CC1C(=O)NC1CCCc2ccccc21)C(C)(C)C

> <Shape>
0.295

> <Color>
0.068

> <Negative vol penalty>
0.000

$$$$

  -OEChem-04052323503D

 86 95  0     1  0  0  0  0  0999 V2000
  -22.7665  -38.1351   19.5444 C   0  0  0  0  0  0  0  0  0  0  0  0
  -23.9192  -37.4999   19.9952 C   0  0  0  0  0  0  0  0  0  0  0  0
  -24.8696  -15.6775   22.2985 C   0  0  0  0  0  0  0  0  0  0  0  0
  -24.6228  -15.7920   19.8979 C   0  0  0  0  0  0  0  0  0  0  0  0
  -21.5165  -37.7067   19.9892 C   0  0  0  0  0  0  0  0  0  0  0  0
  -23.8225  -36.4366   20.8921 C   0  0  0  0  0  0  0  0  0  0  0  0
  -26.4848  -29.9474   19.2509 C   0  0  0  0  0  0  0  0  0  0  0  0
  -24.5667  -17.0356   22.3945 C   0  0  0  0  0  0  0  0  0  0  0  0
  -24.3197  -17.1501   19.9938 C   0  0  0  0  0  0  0  0  0  0  0  0
  -27.1550  -28.7336   19.0970 C   0  0  0  0  0  0  0  0  0  0  0  0
  -24.2103  -20.5548   23.2381 C   0  0  0  0  0  0  0  0  0  0  0  0
  -25.0047  -21.3407   24.0729 C   0  0  0  0  0  0  0  0  0  0  0  0
  -26.2686  -27.9639   21.2112 C   0  0  0  0  0  0  0  0  0  0  0  0
  -26.9502  -20.7698   22.7590 C   0  0  0  0  0  0  0  0  0  0  0  0
  -24.8978  -15.0556   21.0502 C   0  0  0  0  0  0  0  0  0  0  0  0
  -24.5105  -12.5814   21.5358 C   0  0  0  0  0  0  0  0  0  0  0  0
  -21.4040  -36.6314   20.8846 C   0  0  0  0  0  0  0  0  0  0  0  0
  -25.6907  -30.1684   20.3795 C   0  0  0  0  0  0  0  0  0  0  0  0
  -22.5699  -35.9943   21.3504 C   0  0  0  0  0  0  0  0  0  0  0  0
  -25.5849  -29.1729   21.3648 C   0  0  0  0  0  0  0  0  0  0  0  0
  -24.2916  -17.7719   21.2421 C   0  0  0  0  0  0  0  0  0  0  0  0
  -27.0473  -27.7444   20.0749 C   0  0  0  0  0  0  0  0  0  0  0  0
  -24.7859  -19.8764   22.1638 C   0  0  0  0  0  0  0  0  0  0  0  0
  -26.3747  -21.4482   23.8333 C   0  0  0  0  0  0  0  0  0  0  0  0
  -26.1558  -19.9839   21.9242 C   0  0  0  0  0  0  0  0  0  0  0  0
  -25.2113  -13.6528   20.9504 C   0  0  0  0  0  0  0  0  0  0  0  0
  -25.2040  -11.4625   21.1439 C   0  0  0  0  0  0  0  0  0  0  0  0
  -23.3374  -12.5962   22.3601 C   0  0  0  0  0  0  0  0  0  0  0  0
  -23.4135  -32.5062   22.2303 C   0  0  0  0  0  0  0  0  0  0  0  0
  -30.1697  -18.9799   17.9023 C   0  0  0  0  0  0  0  0  0  0  0  0
  -22.2167  -29.6948   22.5027 C   0  0  0  0  0  0  0  0  0  0  0  0
  -21.0080  -26.5181   22.2112 C   0  0  0  0  0  0  0  0  0  0  0  0
  -28.9427  -13.7042   17.5684 C   0  0  0  0  0  0  0  0  0  0  0  0
  -20.0337  -36.2346   21.3740 C   0  0  0  0  0  0  0  0  0  0  0  0
  -25.0002  -31.4840   20.6165 C   0  0  0  0  0  0  0  0  0  0  0  0
  -24.7472  -29.4680   22.5789 C   0  0  0  0  0  0  0  0  0  0  0  0
  -19.9975  -34.8586   22.0340 C   0  0  0  0  0  0  0  0  0  0  0  0
  -29.4454  -11.9122   20.8147 C   0  0  0  0  0  0  0  0  0  0  0  0
  -21.1527  -34.7082   23.0187 C   0  0  0  0  0  0  0  0  0  0  0  0
  -28.4706  -10.7471   20.6567 C   0  0  0  0  0  0  0  0  0  0  0  0
  -30.3853  -22.0210   20.3391 C   0  0  0  0  0  0  0  0  0  0  0  0
  -29.6884  -22.0748   18.3210 C   0  0  0  0  0  0  0  0  0  0  0  0
  -29.9550  -12.3830   19.4597 C   0  0  0  0  0  0  0  0  0  0  0  0
  -29.8176  -16.9101   16.6006 C   0  0  0  0  0  0  0  0  0  0  0  0
  -29.1767  -16.9151   18.9970 C   0  0  0  0  0  0  0  0  0  0  0  0
  -30.4244  -15.5245   16.7790 C   0  0  0  0  0  0  0  0  0  0  0  0
  -29.7608  -15.5094   19.1503 C   0  0  0  0  0  0  0  0  0  0  0  0
  -27.8622  -11.6315   18.3630 C   0  0  0  0  0  0  0  0  0  0  0  0
  -22.5048  -34.8212   22.3043 C   0  0  1  0  0  0  0  0  0  0  0  0
  -23.6405  -31.3335   21.3221 C   0  0  1  0  0  0  0  0  0  0  0  0
  -30.5980  -21.0971   19.1109 C   0  0  0  0  0  0  0  0  0  0  0  0
  -27.3133  -11.0772   19.6931 C   0  0  2  0  0  0  0  0  0  0  0  0
  -30.1030  -23.1622   19.3369 C   0  0  0  0  0  0  0  0  0  0  0  0
  -19.0795  -25.0725   22.9102 C   0  0  0  0  0  0  0  0  0  0  0  0
  -23.3929  -29.4894   25.3095 C   0  0  0  0  0  0  0  0  0  0  0  0
  -22.0627  -27.3937   25.6368 C   0  0  0  0  0  0  0  0  0  0  0  0
  -20.8943  -29.5594   25.2276 C   0  0  0  0  0  0  0  0  0  0  0  0
  -20.2099  -26.0249   19.4043 C   0  0  0  0  0  0  0  0  0  0  0  0
  -30.1076  -19.6702   19.2417 C   0  0  0  0  0  0  0  0  0  0  0  0
  -29.3376  -25.0330   20.8043 C   0  0  0  0  0  0  0  0  0  0  0  0
  -28.1185  -25.8842   21.1001 C   0  0  0  0  0  0  0  0  0  1  0  0
  -22.1220  -28.4345   23.3250 C   0  0  1  0  0  0  0  0  0  0  0  0
  -19.6342  -25.9934   21.8346 C   0  0  2  0  0  0  0  0  0  0  0  0
  -22.1363  -28.7215   24.8531 C   0  0  0  0  0  0  0  0  0  0  0  0
  -26.2690  -13.2508   20.2407 N   0  0  0  0  0  0  0  0  0  0  0  0
  -26.2380  -11.9142   20.3777 N   0  0  0  0  0  0  0  0  0  0  0  0
  -23.5029  -30.1433   22.1786 N   0  0  0  0  0  0  0  0  0  0  0  0
  -29.7767  -17.6409   17.8700 N   0  0  0  0  0  0  0  0  0  0  0  0
  -28.8513  -12.6978   18.5452 N   0  0  0  0  0  0  0  0  0  0  0  0
  -29.7641  -14.8026   17.8642 N   0  0  0  0  0  0  0  0  0  0  0  0
  -25.0242  -10.1462   21.3835 N   0  0  0  0  0  0  0  0  0  0  0  0
  -22.0835  -12.5166   21.7391 N   0  0  0  0  0  0  0  0  0  0  0  0
  -22.8158  -33.5884   21.6130 N   0  0  0  0  0  0  0  0  0  0  0  0
  -20.9308  -27.7323   22.8601 N   0  0  0  0  0  0  0  0  0  0  0  0
  -28.9981  -24.0366   19.7417 N   0  3  0  0  0  0  0  0  0  0  0  0
  -19.7030  -25.2332   20.5546 N   0  3  0  0  0  0  0  0  0  0  0  0
  -23.3988  -12.6942   23.6091 O   0  0  0  0  0  0  0  0  0  0  0  0
  -23.7537  -32.4350   23.4054 O   0  0  0  0  0  0  0  0  0  0  0  0
  -30.5593  -19.6111   16.9165 O   0  0  0  0  0  0  0  0  0  0  0  0
  -21.1803  -30.2710   22.1605 O   0  0  0  0  0  0  0  0  0  0  0  0
  -22.0456  -25.9097   21.9586 O   0  0  0  0  0  0  0  0  0  0  0  0
  -28.3174  -13.6292   16.5034 O   0  0  0  0  0  0  0  0  0  0  0  0
  -23.9957  -19.0972   21.3354 O   0  0  0  0  0  0  0  0  0  0  0  0
  -27.7053  -26.5515   19.9150 O   0  0  0  0  0  0  0  0  0  1  0  0
  -27.1372  -22.2042   24.6341 F   0  0  0  0  0  0  0  0  0  0  0  0
  -26.7142  -19.3354   20.8929 F   0  0  0  0  0  0  0  0  0  0  0  0
  1  2  1  0  0  0  0
  1  5  2  0  0  0  0
  2  6  2  0  0  0  0
  3  8  2  0  0  0  0
  3 15  1  0  0  0  0
  4  9  1  0  0  0  0
  4 15  2  0  0  0  0
  5 17  1  0  0  0  0
  6 19  1  0  0  0  0
  7 10  2  0  0  0  0
  7 18  1  0  0  0  0
  8 21  1  0  0  0  0
  9 21  2  0  0  0  0
 10 22  1  0  0  0  0
 11 12  2  0  0  0  0
 11 23  1  0  0  0  0
 12 24  1  0  0  0  0
 13 20  1  0  0  0  0
 13 22  2  0  0  0  0
 14 24  2  0  0  0  0
 14 25  1  0  0  0  0
 15 26  1  0  0  0  0
 16 26  1  0  0  0  0
 16 27  2  0  0  0  0
 16 28  1  0  0  0  0
 17 19  2  0  0  0  0
 17 34  1  0  0  0  0
 18 20  2  0  0  0  0
 18 35  1  0  0  0  0
 19 49  1  0  0  0  0
 20 36  1  0  0  0  0
 21 83  1  0  0  0  0
 22 84  1  0  0  0  0
 23 25  2  0  0  0  0
 23 83  1  0  0  0  0
 24 85  1  0  0  0  0
 25 86  1  0  0  0  0
 26 65  2  0  0  0  0
 27 66  1  0  0  0  0
 27 71  1  0  0  0  0
 28 72  1  0  0  0  0
 28 77  2  0  0  0  0
 29 50  1  0  0  0  0
 29 73  1  0  0  0  0
 29 78  2  0  0  0  0
 30 59  1  0  0  0  0
 30 68  1  0  0  0  0
 30 79  2  0  0  0  0
 31 62  1  0  0  0  0
 31 67  1  0  0  0  0
 31 80  2  0  0  0  0
 32 63  1  0  0  0  0
 32 74  1  0  0  0  0
 32 81  2  0  0  0  0
 33 69  1  0  0  0  0
 33 70  1  0  0  0  0
 33 82  2  0  0  0  0
 34 37  1  0  0  0  0
 35 50  1  0  0  0  0
 36 67  1  0  0  0  0
 37 39  1  0  0  0  0
 38 40  1  0  0  0  0
 38 43  1  0  0  0  0
 39 49  1  0  0  0  0
 40 52  1  0  0  0  0
 41 51  1  0  0  0  0
 41 53  1  0  0  0  0
 42 51  1  0  0  0  0
 42 53  1  0  0  0  0
 43 69  1  0  0  0  0
 44 46  1  0  0  0  0
 44 68  1  0  0  0  0
 45 47  1  0  0  0  0
 45 68  1  0  0  0  0
 46 70  1  0  0  0  0
 47 70  1  0  0  0  0
 48 52  1  0  0  0  0
 48 69  1  0  0  0  0
 49 73  1  0  0  0  0
 50 67  1  0  0  0  0
 51 59  1  0  0  0  0
 52 66  1  0  0  0  0
 53 75  1  0  0  0  0
 54 63  1  0  0  0  0
 55 64  1  0  0  0  0
 56 64  1  0  0  0  0
 57 64  1  0  0  0  0
 58 76  1  0  0  0  0
 60 61  1  0  0  0  0
 60 75  1  0  0  0  0
 61 84  1  0  0  0  0
 62 64  1  0  0  0  0
 62 74  1  0  0  0  0
 63 76  1  0  0  0  0
 65 66  1  0  0  0  0
M  CHG  2  75   1  76   1
M  ISO  4  33 100  61 101  70 100  84 101
M  END
> <Batch ID>
0199

> <Smiles>
CNC(C)C(=O)NC(C(=O)N1Cc2cc([101O:1][101CH2:1]CNC3CC(CC(=O)N4CC[100N:0]([100C:0](=O)N5CCCC(n6nc(-c7ccc(Oc8ccc(F)cc8F)cc7)c(C(N)=O)c6N)C5)CC4)C3)ccc2CC1C(=O)NC1CCCc2ccccc21)C(C)(C)C

> <Shape>
0.252

> <Color>
0.095

> <Negative vol penalty>
0.000

$$$$

  -OEChem-04052323503D

 83 92  0     1  0  0  0  0  0999 V2000
  -31.3710  -35.2906   27.2117 C   0  0  0  0  0  0  0  0  0  0  0  0
  -31.4953  -34.3382   26.2053 C   0  0  0  0  0  0  0  0  0  0  0  0
  -23.2900   -9.6383   21.5597 C   0  0  0  0  0  0  0  0  0  0  0  0
  -23.9457  -10.7452   23.6047 C   0  0  0  0  0  0  0  0  0  0  0  0
  -30.2573  -35.2757   28.0503 C   0  0  0  0  0  0  0  0  0  0  0  0
  -30.5064  -33.3695   26.0377 C   0  0  0  0  0  0  0  0  0  0  0  0
  -28.6146  -30.9153   20.7553 C   0  0  0  0  0  0  0  0  0  0  0  0
  -22.6101   -8.6719   22.3008 C   0  0  0  0  0  0  0  0  0  0  0  0
  -23.2657   -9.7788   24.3458 C   0  0  0  0  0  0  0  0  0  0  0  0
  -28.9272  -29.7186   20.1119 C   0  0  0  0  0  0  0  0  0  0  0  0
  -19.6566   -8.3997   23.9244 C   0  0  0  0  0  0  0  0  0  0  0  0
  -18.3780   -8.0383   23.5000 C   0  0  0  0  0  0  0  0  0  0  0  0
  -26.9691  -28.6941   21.0791 C   0  0  0  0  0  0  0  0  0  0  0  0
  -19.1172   -5.7556   23.2171 C   0  0  0  0  0  0  0  0  0  0  0  0
  -23.9579  -10.6750   22.2116 C   0  0  0  0  0  0  0  0  0  0  0  0
  -24.1446  -12.8873   20.9553 C   0  0  0  0  0  0  0  0  0  0  0  0
  -29.2495  -34.3123   27.8868 C   0  0  0  0  0  0  0  0  0  0  0  0
  -27.4810  -31.0074   21.5755 C   0  0  0  0  0  0  0  0  0  0  0  0
  -29.3788  -33.3408   26.8758 C   0  0  0  0  0  0  0  0  0  0  0  0
  -26.6429  -29.8939   21.7297 C   0  0  0  0  0  0  0  0  0  0  0  0
  -22.5979   -8.7421   23.6938 C   0  0  0  0  0  0  0  0  0  0  0  0
  -28.1060  -28.6069   20.2760 C   0  0  0  0  0  0  0  0  0  0  0  0
  -20.6656   -7.4391   23.9951 C   0  0  0  0  0  0  0  0  0  0  0  0
  -18.1083   -6.7162   23.1464 C   0  0  0  0  0  0  0  0  0  0  0  0
  -20.3959   -6.1171   23.6414 C   0  0  0  0  0  0  0  0  0  0  0  0
  -24.6609  -11.6733   21.4466 C   0  0  0  0  0  0  0  0  0  0  0  0
  -25.2023  -13.4706   20.3014 C   0  0  0  0  0  0  0  0  0  0  0  0
  -22.8268  -13.4385   21.0790 C   0  0  0  0  0  0  0  0  0  0  0  0
  -26.9847  -31.6094   24.6569 C   0  0  0  0  0  0  0  0  0  0  0  0
  -23.8668  -31.5629   23.7633 C   0  0  0  0  0  0  0  0  0  0  0  0
  -21.5046  -30.4949   21.5438 C   0  0  0  0  0  0  0  0  0  0  0  0
  -30.6197  -14.8941   20.2284 C   0  0  0  0  0  0  0  0  0  0  0  0
  -28.0872  -34.3071   28.8479 C   0  0  0  0  0  0  0  0  0  0  0  0
  -27.1430  -32.3132   22.2412 C   0  0  0  0  0  0  0  0  0  0  0  0
  -25.4031  -29.9466   22.5833 C   0  0  0  0  0  0  0  0  0  0  0  0
  -26.9010  -33.4766   28.3648 C   0  0  0  0  0  0  0  0  0  0  0  0
  -29.7272  -11.6109   19.0168 C   0  0  0  0  0  0  0  0  0  0  0  0
  -27.3736  -32.1224   27.8456 C   0  0  0  0  0  0  0  0  0  0  0  0
  -28.2956  -11.4224   19.5218 C   0  0  0  0  0  0  0  0  0  0  0  0
  -27.3453  -21.8702   20.4268 C   0  0  0  0  0  0  0  0  0  0  0  0
  -30.5710  -12.4359   19.9873 C   0  0  0  0  0  0  0  0  0  0  0  0
  -27.2997  -23.3766   20.1675 C   0  0  0  0  0  0  0  0  0  0  0  0
  -28.5868  -16.5361   20.4072 C   0  0  0  0  0  0  0  0  0  0  0  0
  -30.5135  -17.4180   20.5969 C   0  0  0  0  0  0  0  0  0  0  0  0
  -28.5565  -13.5350   20.8752 C   0  0  0  0  0  0  0  0  0  0  0  0
  -29.5597  -22.7852   20.2475 C   0  0  0  0  0  0  0  0  0  0  0  0
  -28.3150  -32.2892   26.6467 C   0  0  1  0  0  0  0  0  0  0  0  0
  -26.2458  -32.1460   23.4637 C   0  0  1  0  0  0  0  0  0  0  0  0
  -29.1775  -17.9013   20.0072 C   0  0  0  0  0  0  0  0  0  0  0  0
  -27.6540  -12.7724   19.8940 C   0  0  2  0  0  0  0  0  0  0  0  0
  -28.7971  -21.5931   20.7900 C   0  0  2  0  0  0  0  0  0  0  0  0
  -19.0368  -30.5853   21.0978 C   0  0  0  0  0  0  0  0  0  0  0  0
  -23.3957  -29.5052   25.9665 C   0  0  0  0  0  0  0  0  0  0  0  0
  -21.2120  -28.9431   24.8784 C   0  0  0  0  0  0  0  0  0  0  0  0
  -21.6081  -31.2421   25.7618 C   0  0  0  0  0  0  0  0  0  0  0  0
  -21.9059  -31.8629   18.9503 C   0  0  0  0  0  0  0  0  0  0  0  0
  -28.5569  -19.1237   20.6530 C   0  0  0  0  0  0  0  0  0  0  0  0
  -28.9749  -25.1198   19.9169 C   0  0  0  0  0  0  0  0  0  0  0  0
  -28.0072  -26.2308   20.2944 C   0  0  0  0  0  0  0  0  0  1  0  0
  -22.8001  -30.4997   23.6595 C   0  0  1  0  0  0  0  0  0  0  0  0
  -20.3865  -31.2329   20.8299 C   0  0  2  0  0  0  0  0  0  0  0  0
  -22.2784  -30.0457   25.0519 C   0  0  0  0  0  0  0  0  0  0  0  0
  -25.9466  -11.4946   21.1317 N   0  0  0  0  0  0  0  0  0  0  0  0
  -26.2470  -12.6041   20.4353 N   0  0  0  0  0  0  0  0  0  0  0  0
  -25.1187  -31.2440   23.2185 N   0  0  0  0  0  0  0  0  0  0  0  0
  -29.9023  -13.6981   20.3135 N   0  0  0  0  0  0  0  0  0  0  0  0
  -29.9615  -16.0691   20.5057 N   0  0  0  0  0  0  0  0  0  0  0  0
  -28.6236  -23.8660   20.5660 N   0  0  1  0  0  0  0  0  0  0  0  0
  -25.3313  -14.6350   19.6307 N   0  0  0  0  0  0  0  0  0  0  0  0
  -21.8604  -12.7078   21.7835 N   0  0  0  0  0  0  0  0  0  0  0  0
  -27.5596  -32.5854   25.4483 N   0  0  0  0  0  0  0  0  0  0  0  0
  -21.7680  -31.0413   22.7821 N   0  0  0  0  0  0  0  0  0  0  0  0
  -29.2715  -20.3341   20.1875 N   0  3  0  0  0  0  0  0  0  0  0  0
  -20.6234  -31.2341   19.3586 N   0  3  0  0  0  0  0  0  0  0  0  0
  -22.5111  -14.5386   20.5655 O   0  0  0  0  0  0  0  0  0  0  0  0
  -27.0287  -30.3995   24.8464 O   0  0  0  0  0  0  0  0  0  0  0  0
  -23.5970  -32.6396   24.3016 O   0  0  0  0  0  0  0  0  0  0  0  0
  -22.0838  -29.5281   21.0536 O   0  0  0  0  0  0  0  0  0  0  0  0
  -31.8088  -14.9179   19.8839 O   0  0  0  0  0  0  0  0  0  0  0  0
  -21.9343   -7.7993   24.4173 O   0  0  0  0  0  0  0  0  0  0  0  0
  -28.4113  -27.4291   19.6452 O   0  0  0  0  0  0  0  0  0  1  0  0
  -16.8800   -6.3690   22.7404 F   0  0  0  0  0  0  0  0  0  0  0  0
  -21.3608   -5.1895   23.7084 F   0  0  0  0  0  0  0  0  0  0  0  0
  1  2  1  0  0  0  0
  1  5  2  0  0  0  0
  2  6  2  0  0  0  0
  3  8  2  0  0  0  0
  3 15  1  0  0  0  0
  4  9  1  0  0  0  0
  4 15  2  0  0  0  0
  5 17  1  0  0  0  0
  6 19  1  0  0  0  0
  7 10  2  0  0  0  0
  7 18  1  0  0  0  0
  8 21  1  0  0  0  0
  9 21  2  0  0  0  0
 10 22  1  0  0  0  0
 11 12  2  0  0  0  0
 11 23  1  0  0  0  0
 12 24  1  0  0  0  0
 13 20  1  0  0  0  0
 13 22  2  0  0  0  0
 14 24  2  0  0  0  0
 14 25  1  0  0  0  0
 15 26  1  0  0  0  0
 16 26  1  0  0  0  0
 16 27  2  0  0  0  0
 16 28  1  0  0  0  0
 17 19  2  0  0  0  0
 17 33  1  0  0  0  0
 18 20  2  0  0  0  0
 18 34  1  0  0  0  0
 19 47  1  0  0  0  0
 20 35  1  0  0  0  0
 21 80  1  0  0  0  0
 22 81  1  0  0  0  0
 23 25  2  0  0  0  0
 23 80  1  0  0  0  0
 24 82  1  0  0  0  0
 25 83  1  0  0  0  0
 26 63  2  0  0  0  0
 27 64  1  0  0  0  0
 27 69  1  0  0  0  0
 28 70  1  0  0  0  0
 28 75  2  0  0  0  0
 29 48  1  0  0  0  0
 29 71  1  0  0  0  0
 29 76  2  0  0  0  0
 30 60  1  0  0  0  0
 30 65  1  0  0  0  0
 30 77  2  0  0  0  0
 31 61  1  0  0  0  0
 31 72  1  0  0  0  0
 31 78  2  0  0  0  0
 32 66  1  0  0  0  0
 32 67  1  0  0  0  0
 32 79  2  0  0  0  0
 33 36  1  0  0  0  0
 34 48  1  0  0  0  0
 35 65  1  0  0  0  0
 36 38  1  0  0  0  0
 37 39  1  0  0  0  0
 37 41  1  0  0  0  0
 38 47  1  0  0  0  0
 39 50  1  0  0  0  0
 40 42  1  0  0  0  0
 40 51  1  0  0  0  0
 41 66  1  0  0  0  0
 42 68  1  0  0  0  0
 43 49  1  0  0  0  0
 43 67  1  0  0  0  0
 44 49  1  0  0  0  0
 44 67  1  0  0  0  0
 45 50  1  0  0  0  0
 45 66  1  0  0  0  0
 46 51  1  0  0  0  0
 46 68  1  0  0  0  0
 47 71  1  0  0  0  0
 48 65  1  0  0  0  0
 49 57  1  0  0  0  0
 50 64  1  0  0  0  0
 51 73  1  0  0  0  0
 52 61  1  0  0  0  0
 53 62  1  0  0  0  0
 54 62  1  0  0  0  0
 55 62  1  0  0  0  0
 56 74  1  0  0  0  0
 57 73  1  0  0  0  0
 58 59  1  0  0  0  0
 58 68  1  0  0  0  0
 59 81  1  0  0  0  0
 60 62  1  0  0  0  0
 60 72  1  0  0  0  0
 61 74  1  0  0  0  0
 63 64  1  0  0  0  0
M  CHG  2  73   1  74   1
M  ISO  4  32 100  59 101  67 100  81 101
M  END
> <Batch ID>
0199

> <Smiles>
CNC(C)C(=O)NC(C(=O)N1Cc2cc([101O:1][101CH2:1]CN3CCC(NCC4C[100N:0]([100C:0](=O)N5CCCC(n6nc(-c7ccc(Oc8ccc(F)cc8F)cc7)c(C(N)=O)c6N)C5)C4)C3)ccc2CC1C(=O)NC1CCCc2ccccc21)C(C)(C)C

> <Shape>
0.318

> <Color>
0.147

> <Negative vol penalty>
0.000

$$$$

  -OEChem-04052323503D

 87 98  0     1  0  0  0  0  0999 V2000
  -27.8020  -32.4772   24.6926 C   0  0  0  0  0  0  0  0  0  0  0  0
  -26.8545  -31.6295   24.1277 C   0  0  0  0  0  0  0  0  0  0  0  0
  -23.5450  -13.8371   19.5011 C   0  0  0  0  0  0  0  0  0  0  0  0
  -24.8813  -14.3236   21.4543 C   0  0  0  0  0  0  0  0  0  0  0  0
  -29.0672  -32.5884   24.1175 C   0  0  0  0  0  0  0  0  0  0  0  0
  -27.1715  -30.8932   22.9867 C   0  0  0  0  0  0  0  0  0  0  0  0
  -25.6449  -26.0747   23.2978 C   0  0  0  0  0  0  0  0  0  0  0  0
  -24.4971  -12.9084   19.0810 C   0  0  0  0  0  0  0  0  0  0  0  0
  -25.8334  -13.3947   21.0342 C   0  0  0  0  0  0  0  0  0  0  0  0
  -24.2919  -25.8200   23.0776 C   0  0  0  0  0  0  0  0  0  0  0  0
  -28.7894  -11.4139   20.2940 C   0  0  0  0  0  0  0  0  0  0  0  0
  -30.1322  -11.7846   20.3649 C   0  0  0  0  0  0  0  0  0  0  0  0
  -24.7956  -25.1276   20.8224 C   0  0  0  0  0  0  0  0  0  0  0  0
  -29.7030  -13.6268   18.8618 C   0  0  0  0  0  0  0  0  0  0  0  0
  -23.7371  -14.5448   20.6877 C   0  0  0  0  0  0  0  0  0  0  0  0
  -21.6380  -15.2653   21.9455 C   0  0  0  0  0  0  0  0  0  0  0  0
  -29.4030  -31.8458   22.9745 C   0  0  0  0  0  0  0  0  0  0  0  0
  -26.5835  -25.8678   22.2767 C   0  0  0  0  0  0  0  0  0  0  0  0
  -28.4419  -30.9956   22.3950 C   0  0  0  0  0  0  0  0  0  0  0  0
  -26.1601  -25.3780   21.0330 C   0  0  0  0  0  0  0  0  0  0  0  0
  -25.6413  -12.6871   19.8476 C   0  0  0  0  0  0  0  0  0  0  0  0
  -23.8667  -25.3491   21.8389 C   0  0  0  0  0  0  0  0  0  0  0  0
  -27.9034  -12.1496   19.5069 C   0  0  0  0  0  0  0  0  0  0  0  0
  -30.5890  -12.8911   19.6489 C   0  0  0  0  0  0  0  0  0  0  0  0
  -28.3602  -13.2560   18.7908 C   0  0  0  0  0  0  0  0  0  0  0  0
  -22.7543  -15.5048   21.1219 C   0  0  0  0  0  0  0  0  0  0  0  0
  -21.0266  -16.4899   22.0598 C   0  0  0  0  0  0  0  0  0  0  0  0
  -21.1935  -14.0451   22.5530 C   0  0  0  0  0  0  0  0  0  0  0  0
  -28.6059  -27.7276   20.6784 C   0  0  0  0  0  0  0  0  0  0  0  0
  -29.5962  -24.9063   19.4207 C   0  0  0  0  0  0  0  0  0  0  0  0
  -28.8754  -21.6553   18.6737 C   0  0  0  0  0  0  0  0  0  0  0  0
  -21.0605  -21.1738   18.4332 C   0  0  0  0  0  0  0  0  0  0  0  0
  -30.7677  -32.0350   22.3609 C   0  0  0  0  0  0  0  0  0  0  0  0
  -28.0426  -26.1220   22.5387 C   0  0  0  0  0  0  0  0  0  0  0  0
  -27.1304  -25.1201   19.9102 C   0  0  0  0  0  0  0  0  0  0  0  0
  -31.1479  -30.9371   21.3708 C   0  0  0  0  0  0  0  0  0  0  0  0
  -21.9385  -21.1662   21.9904 C   0  0  0  0  0  0  0  0  0  0  0  0
  -29.9933  -30.6580   20.4139 C   0  0  0  0  0  0  0  0  0  0  0  0
  -22.2024  -19.6824   22.2237 C   0  0  0  0  0  0  0  0  0  0  0  0
  -22.0777  -23.6771   16.4467 C   0  0  0  0  0  0  0  0  0  0  0  0
  -19.6100  -27.0482   23.0284 C   0  0  0  0  0  0  0  0  0  0  0  0
  -19.0744  -25.1566   16.4417 C   0  0  0  0  0  0  0  0  0  0  0  0
  -19.7481  -24.7287   22.4934 C   0  0  0  0  0  0  0  0  0  0  0  0
  -22.3514  -21.6168   20.5887 C   0  0  0  0  0  0  0  0  0  0  0  0
  -22.5563  -23.2302   17.8307 C   0  0  0  0  0  0  0  0  0  0  0  0
  -22.0192  -19.3099   19.7395 C   0  0  0  0  0  0  0  0  0  0  0  0
  -20.9929  -26.4822   20.4129 C   0  0  0  0  0  0  0  0  0  0  0  0
  -28.7561  -30.1617   21.1719 C   0  0  1  0  0  0  0  0  0  0  0  0
  -28.8451  -26.3648   21.2641 C   0  0  1  0  0  0  0  0  0  0  0  0
  -20.6335  -25.9103   22.8854 C   0  0  1  0  0  0  0  0  0  0  0  0
  -19.5763  -23.9857   17.2431 C   0  0  2  0  0  0  0  0  0  0  0  0
  -19.8005  -25.3893   17.7396 C   0  0  2  0  0  0  0  0  0  0  0  0
  -18.4965  -26.7283   22.0031 C   0  0  1  0  0  0  0  0  0  0  0  0
  -21.5443  -18.8392   21.1213 C   0  0  1  0  0  0  0  0  0  0  0  0
  -20.6970  -23.0914   16.7787 C   0  0  2  0  0  0  0  0  0  0  0  0
  -18.8995  -25.3672   21.3996 C   0  0  1  0  0  0  0  0  0  0  0  0
  -21.6485  -26.2037   21.7670 C   0  0  1  0  0  0  0  0  0  1  0  0
  -17.1298  -26.6527   22.6838 C   0  0  0  0  0  0  0  0  0  0  0  0
  -29.8710  -19.6103   17.6135 C   0  0  0  0  0  0  0  0  0  0  0  0
  -29.1525  -26.1252   16.6589 C   0  0  0  0  0  0  0  0  0  0  0  0
  -29.2336  -23.8129   15.7021 C   0  0  0  0  0  0  0  0  0  0  0  0
  -31.2295  -24.7482   16.8701 C   0  0  0  0  0  0  0  0  0  0  0  0
  -28.6440  -20.1007   21.1814 C   0  0  0  0  0  0  0  0  0  0  0  0
  -19.0620  -25.8883   18.9330 C   0  0  0  0  0  0  0  0  0  0  0  0
  -29.2043  -24.0728   18.2246 C   0  0  1  0  0  0  0  0  0  0  0  0
  -29.6500  -20.3716   18.9113 C   0  0  2  0  0  0  0  0  0  0  0  0
  -29.6862  -24.6964   16.8843 C   0  0  0  0  0  0  0  0  0  0  0  0
  -22.8489  -16.7812   20.7399 N   0  0  0  0  0  0  0  0  0  0  0  0
  -21.7842  -17.3547   21.3260 N   0  0  0  0  0  0  0  0  0  0  0  0
  -28.5456  -25.3899   20.2134 N   0  0  0  0  0  0  0  0  0  0  0  0
  -21.7920  -20.7470   19.5470 N   0  0  0  0  0  0  0  0  0  0  0  0
  -21.3585  -22.4064   17.8953 N   0  0  0  0  0  0  0  0  0  0  0  0
  -19.9203  -16.9006   22.7153 N   0  0  0  0  0  0  0  0  0  0  0  0
  -21.9388  -12.8788   22.3326 N   0  0  0  0  0  0  0  0  0  0  0  0
  -28.9103  -28.7691   21.5341 N   0  0  0  0  0  0  0  0  0  0  0  0
  -29.7163  -22.7303   18.4772 N   0  0  0  0  0  0  0  0  0  0  0  0
  -19.8105  -25.5508   20.1757 N   0  3  1  0  0  0  0  0  0  0  0  0
  -28.9096  -19.4869   19.8548 N   0  3  0  0  0  0  0  0  0  0  0  0
  -20.1566  -13.9872   23.2566 O   0  0  0  0  0  0  0  0  0  0  0  0
  -28.1783  -27.8270   19.5343 O   0  0  0  0  0  0  0  0  0  0  0  0
  -30.7907  -25.1145   19.6475 O   0  0  0  0  0  0  0  0  0  0  0  0
  -27.6472  -21.6993   18.6598 O   0  0  0  0  0  0  0  0  0  0  0  0
  -20.1879  -20.4657   17.9134 O   0  0  0  0  0  0  0  0  0  0  0  0
  -26.5704  -11.7807   19.4381 O   0  0  0  0  0  0  0  0  0  0  0  0
  -22.5396  -25.0989   21.6199 O   0  0  0  0  0  0  0  0  0  1  0  0
  -31.8782  -13.2479   19.7183 F   0  0  0  0  0  0  0  0  0  0  0  0
  -27.5135  -13.9674   18.0339 F   0  0  0  0  0  0  0  0  0  0  0  0
  1  2  1  0  0  0  0
  1  5  2  0  0  0  0
  2  6  2  0  0  0  0
  3  8  2  0  0  0  0
  3 15  1  0  0  0  0
  4  9  1  0  0  0  0
  4 15  2  0  0  0  0
  5 17  1  0  0  0  0
  6 19  1  0  0  0  0
  7 10  2  0  0  0  0
  7 18  1  0  0  0  0
  8 21  1  0  0  0  0
  9 21  2  0  0  0  0
 10 22  1  0  0  0  0
 11 12  2  0  0  0  0
 11 23  1  0  0  0  0
 12 24  1  0  0  0  0
 13 20  1  0  0  0  0
 13 22  2  0  0  0  0
 14 24  2  0  0  0  0
 14 25  1  0  0  0  0
 15 26  1  0  0  0  0
 16 26  1  0  0  0  0
 16 27  2  0  0  0  0
 16 28  1  0  0  0  0
 17 19  2  0  0  0  0
 17 33  1  0  0  0  0
 18 20  2  0  0  0  0
 18 34  1  0  0  0  0
 19 48  1  0  0  0  0
 20 35  1  0  0  0  0
 21 84  1  0  0  0  0
 22 85  1  0  0  0  0
 23 25  2  0  0  0  0
 23 84  1  0  0  0  0
 24 86  1  0  0  0  0
 25 87  1  0  0  0  0
 26 68  2  0  0  0  0
 27 69  1  0  0  0  0
 27 73  1  0  0  0  0
 28 74  1  0  0  0  0
 28 79  2  0  0  0  0
 29 49  1  0  0  0  0
 29 75  1  0  0  0  0
 29 80  2  0  0  0  0
 30 65  1  0  0  0  0
 30 70  1  0  0  0  0
 30 81  2  0  0  0  0
 31 66  1  0  0  0  0
 31 76  1  0  0  0  0
 31 82  2  0  0  0  0
 32 71  1  0  0  0  0
 32 72  1  0  0  0  0
 32 83  2  0  0  0  0
 33 36  1  0  0  0  0
 34 49  1  0  0  0  0
 35 70  1  0  0  0  0
 36 38  1  0  0  0  0
 37 39  1  0  0  0  0
 37 44  1  0  0  0  0
 38 48  1  0  0  0  0
 39 54  1  0  0  0  0
 40 45  1  0  0  0  0
 40 55  1  0  0  0  0
 41 50  1  0  0  0  0
 41 53  1  0  0  0  0
 42 51  1  0  0  0  0
 42 52  1  0  0  0  0
 43 50  1  0  0  0  0
 43 56  1  0  0  0  0
 44 71  1  0  0  0  0
 45 72  1  0  0  0  0
 46 54  1  0  0  0  0
 46 71  1  0  0  0  0
 47 57  1  0  0  0  0
 47 77  1  0  0  0  0
 48 75  1  0  0  0  0
 49 70  1  0  0  0  0
 50 57  1  0  0  0  0
 51 52  1  0  0  0  0
 51 55  1  0  0  0  0
 52 64  1  0  0  0  0
 53 56  1  0  0  0  0
 53 58  1  0  0  0  0
 54 69  1  0  0  0  0
 55 72  1  0  0  0  0
 56 77  1  0  0  0  0
 57 85  1  0  0  0  0
 59 66  1  0  0  0  0
 60 67  1  0  0  0  0
 61 67  1  0  0  0  0
 62 67  1  0  0  0  0
 63 78  1  0  0  0  0
 64 77  1  0  0  0  0
 65 67  1  0  0  0  0
 65 76  1  0  0  0  0
 66 78  1  0  0  0  0
 68 69  1  0  0  0  0
M  CHG  2  77   1  78   1
M  ISO  4  32 100  57 101  72 100  85 101
M  END
> <Batch ID>
0199

> <Smiles>
CNC(C)C(=O)NC(C(=O)N1Cc2cc([101O:1][101CH:1]3CN(CC4CC4C4CC[100N:0]4[100C:0](=O)N4CCCC(n5nc(-c6ccc(Oc7ccc(F)cc7F)cc6)c(C(N)=O)c5N)C4)C4CC3CC4C)ccc2CC1C(=O)NC1CCCc2ccccc21)C(C)(C)C

> <Shape>
0.220

> <Color>
0.061

> <Negative vol penalty>
0.000

$$$$

  -OEChem-04052323503D

 84 93  0     1  0  0  0  0  0999 V2000
  -22.2808   -7.7140   20.6580 C   0  0  0  0  0  0  0  0  0  0  0  0
  -21.6248   -8.8908   21.0048 C   0  0  0  0  0  0  0  0  0  0  0  0
  -27.0908  -25.8362   20.7973 C   0  0  0  0  0  0  0  0  0  0  0  0
  -27.5939  -26.7590   18.6218 C   0  0  0  0  0  0  0  0  0  0  0  0
  -23.6394   -7.5671   20.9349 C   0  0  0  0  0  0  0  0  0  0  0  0
  -22.3267   -9.9209   21.6298 C   0  0  0  0  0  0  0  0  0  0  0  0
  -21.4390  -15.9389   20.9220 C   0  0  0  0  0  0  0  0  0  0  0  0
  -27.6853  -24.6310   20.4236 C   0  0  0  0  0  0  0  0  0  0  0  0
  -28.1884  -25.5537   18.2481 C   0  0  0  0  0  0  0  0  0  0  0  0
  -20.7458  -16.8805   21.6814 C   0  0  0  0  0  0  0  0  0  0  0  0
  -31.1301  -23.9680   18.7508 C   0  0  0  0  0  0  0  0  0  0  0  0
  -32.3574  -24.0297   18.0910 C   0  0  0  0  0  0  0  0  0  0  0  0
  -22.8018  -17.4976   22.7819 C   0  0  0  0  0  0  0  0  0  0  0  0
  -31.3896  -22.9030   16.1854 C   0  0  0  0  0  0  0  0  0  0  0  0
  -27.0451  -26.9002   19.8964 C   0  0  0  0  0  0  0  0  0  0  0  0
  -27.0558  -29.2481   20.8938 C   0  0  0  0  0  0  0  0  0  0  0  0
  -24.3605   -8.5996   21.5548 C   0  0  0  0  0  0  0  0  0  0  0  0
  -22.8193  -15.7616   21.0949 C   0  0  0  0  0  0  0  0  0  0  0  0
  -23.6959   -9.7870   21.9165 C   0  0  0  0  0  0  0  0  0  0  0  0
  -23.5106  -16.5548   22.0217 C   0  0  0  0  0  0  0  0  0  0  0  0
  -28.2341  -24.4897   19.1490 C   0  0  0  0  0  0  0  0  0  0  0  0
  -21.4267  -17.6580   22.6136 C   0  0  0  0  0  0  0  0  0  0  0  0
  -30.0325  -23.3737   18.1280 C   0  0  0  0  0  0  0  0  0  0  0  0
  -32.4872  -23.4972   16.8083 C   0  0  0  0  0  0  0  0  0  0  0  0
  -30.1623  -22.8412   16.8453 C   0  0  0  0  0  0  0  0  0  0  0  0
  -26.4307  -28.1453   20.2817 C   0  0  0  0  0  0  0  0  0  0  0  0
  -26.0495  -30.1696   21.0510 C   0  0  0  0  0  0  0  0  0  0  0  0
  -18.5450  -24.3950   25.6081 C   0  0  0  0  0  0  0  0  0  0  0  0
  -18.4657  -25.4206   24.6043 C   0  0  0  0  0  0  0  0  0  0  0  0
  -19.4243  -23.3987   25.4696 C   0  0  0  0  0  0  0  0  0  0  0  0
  -19.2573  -25.4068   23.5209 C   0  0  0  0  0  0  0  0  0  0  0  0
  -20.2518  -24.2868   23.3557 C   0  0  0  0  0  0  0  0  0  0  0  0
  -28.4238  -29.4240   21.2853 C   0  0  0  0  0  0  0  0  0  0  0  0
  -24.6731  -13.3491   22.0149 C   0  0  0  0  0  0  0  0  0  0  0  0
  -27.0626  -15.3905   21.2117 C   0  0  0  0  0  0  0  0  0  0  0  0
  -28.0851  -18.6124   20.7415 C   0  0  0  0  0  0  0  0  0  0  0  0
  -20.0363  -29.4977   21.3912 C   0  0  0  0  0  0  0  0  0  0  0  0
  -25.8169   -8.3761   21.8767 C   0  0  0  0  0  0  0  0  0  0  0  0
  -23.5570  -14.7604   20.2490 C   0  0  0  0  0  0  0  0  0  0  0  0
  -24.9958  -16.4176   22.2310 C   0  0  0  0  0  0  0  0  0  0  0  0
  -26.5729   -9.6616   22.2027 C   0  0  0  0  0  0  0  0  0  0  0  0
  -21.9166  -31.5811   19.1487 C   0  0  0  0  0  0  0  0  0  0  0  0
  -25.7734  -10.5180   23.1795 C   0  0  0  0  0  0  0  0  0  0  0  0
  -23.3292  -31.0079   19.1951 C   0  0  0  0  0  0  0  0  0  0  0  0
  -20.8768  -30.4773   19.2883 C   0  0  0  0  0  0  0  0  0  0  0  0
  -18.9475  -27.8959   23.0562 C   0  0  0  0  0  0  0  0  0  0  0  0
  -20.4883  -26.9715   21.9217 C   0  0  0  0  0  0  0  0  0  0  0  0
  -22.4430  -29.1026   20.6333 C   0  0  0  0  0  0  0  0  0  0  0  0
  -24.4286  -10.9368   22.5733 C   0  0  1  0  0  0  0  0  0  0  0  0
  -19.1545  -26.4738   22.5086 C   0  0  0  0  0  0  0  0  0  0  0  0
  -24.8726  -14.3050   20.8729 C   0  0  1  0  0  0  0  0  0  0  0  0
  -23.5323  -30.1819   20.4734 C   0  0  1  0  0  0  0  0  0  0  0  0
  -30.1045  -19.9679   20.1236 C   0  0  0  0  0  0  0  0  0  0  0  0
  -28.2143  -14.9420   24.0014 C   0  0  0  0  0  0  0  0  0  0  0  0
  -29.6273  -16.9821   23.6702 C   0  0  0  0  0  0  0  0  0  0  0  0
  -29.9152  -15.0106   22.1692 C   0  0  0  0  0  0  0  0  0  0  0  0
  -26.7485  -19.7261   18.3473 C   0  0  0  0  0  0  0  0  0  0  0  0
  -20.5127  -20.9141   23.8641 C   0  0  0  0  0  0  0  0  0  0  0  0
  -21.1937  -22.1997   24.3139 C   0  0  0  0  0  0  0  0  0  0  0  0
  -21.4742  -19.7356   23.7699 C   0  0  0  0  0  0  0  0  0  1  0  0
  -27.8512  -16.4525   21.9393 C   0  0  1  0  0  0  0  0  0  0  0  0
  -28.8546  -19.2700   19.6102 C   0  0  2  0  0  0  0  0  0  0  0  0
  -28.8737  -15.8483   22.9427 C   0  0  0  0  0  0  0  0  0  0  0  0
  -25.1281  -28.3457   20.0649 N   0  0  0  0  0  0  0  0  0  0  0  0
  -24.9264  -29.5852   20.5435 N   0  0  0  0  0  0  0  0  0  0  0  0
  -20.2683  -23.3254   24.3763 N   0  0  0  0  0  0  0  0  0  0  0  0
  -25.6716  -15.4205   21.3844 N   0  0  0  0  0  0  0  0  0  0  0  0
  -21.0932  -29.6655   20.4898 N   0  0  0  0  0  0  0  0  0  0  0  0
  -19.9611  -28.3174   22.0931 N   0  0  0  0  0  0  0  0  0  0  0  0
  -26.0245  -31.4145   21.5725 N   0  0  0  0  0  0  0  0  0  0  0  0
  -29.3258  -28.3772   21.0507 N   0  0  0  0  0  0  0  0  0  0  0  0
  -24.6137  -12.0221   21.6340 N   0  0  0  0  0  0  0  0  0  0  0  0
  -28.4508  -17.2935   20.9089 N   0  0  0  0  0  0  0  0  0  0  0  0
  -28.0017  -20.2797   18.9219 N   0  3  0  0  0  0  0  0  0  0  0  0
  -20.9795  -24.2709   22.3632 O   0  0  0  0  0  0  0  0  0  0  0  0
  -28.8308  -30.4718   21.8420 O   0  0  0  0  0  0  0  0  0  0  0  0
  -24.5815  -13.7832   23.1572 O   0  0  0  0  0  0  0  0  0  0  0  0
  -27.6583  -14.5692   20.5102 O   0  0  0  0  0  0  0  0  0  0  0  0
  -27.2463  -19.2100   21.4121 O   0  0  0  0  0  0  0  0  0  0  0  0
  -19.1652  -30.3640   21.5450 O   0  0  0  0  0  0  0  0  0  0  0  0
  -28.8144  -23.3139   18.7841 O   0  0  0  0  0  0  0  0  0  0  0  0
  -20.7476  -18.5839   23.3619 O   0  0  0  0  0  0  0  0  0  1  0  0
  -33.6655  -23.5579   16.1741 F   0  0  0  0  0  0  0  0  0  0  0  0
  -29.1111  -22.2701   16.2414 F   0  0  0  0  0  0  0  0  0  0  0  0
  1  2  1  0  0  0  0
  1  5  2  0  0  0  0
  2  6  2  0  0  0  0
  3  8  2  0  0  0  0
  3 15  1  0  0  0  0
  4  9  1  0  0  0  0
  4 15  2  0  0  0  0
  5 17  1  0  0  0  0
  6 19  1  0  0  0  0
  7 10  2  0  0  0  0
  7 18  1  0  0  0  0
  8 21  1  0  0  0  0
  9 21  2  0  0  0  0
 10 22  1  0  0  0  0
 11 12  2  0  0  0  0
 11 23  1  0  0  0  0
 12 24  1  0  0  0  0
 13 20  1  0  0  0  0
 13 22  2  0  0  0  0
 14 24  2  0  0  0  0
 14 25  1  0  0  0  0
 15 26  1  0  0  0  0
 16 26  1  0  0  0  0
 16 27  2  0  0  0  0
 16 33  1  0  0  0  0
 17 19  2  0  0  0  0
 17 38  1  0  0  0  0
 18 20  2  0  0  0  0
 18 39  1  0  0  0  0
 19 49  1  0  0  0  0
 20 40  1  0  0  0  0
 21 81  1  0  0  0  0
 22 82  1  0  0  0  0
 23 25  2  0  0  0  0
 23 81  1  0  0  0  0
 24 83  1  0  0  0  0
 25 84  1  0  0  0  0
 26 64  2  0  0  0  0
 27 65  1  0  0  0  0
 27 70  1  0  0  0  0
 28 29  1  0  0  0  0
 28 30  2  0  0  0  0
 29 31  2  0  0  0  0
 30 66  1  0  0  0  0
 31 32  1  0  0  0  0
 31 50  1  0  0  0  0
 32 66  1  0  0  0  0
 32 75  2  0  0  0  0
 33 71  1  0  0  0  0
 33 76  2  0  0  0  0
 34 51  1  0  0  0  0
 34 72  1  0  0  0  0
 34 77  2  0  0  0  0
 35 61  1  0  0  0  0
 35 67  1  0  0  0  0
 35 78  2  0  0  0  0
 36 62  1  0  0  0  0
 36 73  1  0  0  0  0
 36 79  2  0  0  0  0
 37 68  1  0  0  0  0
 37 69  1  0  0  0  0
 37 80  2  0  0  0  0
 38 41  1  0  0  0  0
 39 51  1  0  0  0  0
 40 67  1  0  0  0  0
 41 43  1  0  0  0  0
 42 44  1  0  0  0  0
 42 45  1  0  0  0  0
 43 49  1  0  0  0  0
 44 52  1  0  0  0  0
 45 68  1  0  0  0  0
 46 50  1  0  0  0  0
 46 69  1  0  0  0  0
 47 50  1  0  0  0  0
 47 69  1  0  0  0  0
 48 52  1  0  0  0  0
 48 68  1  0  0  0  0
 49 72  1  0  0  0  0
 51 67  1  0  0  0  0
 52 65  1  0  0  0  0
 53 62  1  0  0  0  0
 54 63  1  0  0  0  0
 55 63  1  0  0  0  0
 56 63  1  0  0  0  0
 57 74  1  0  0  0  0
 58 59  1  0  0  0  0
 58 60  1  0  0  0  0
 59 66  1  0  0  0  0
 60 82  1  0  0  0  0
 61 63  1  0  0  0  0
 61 73  1  0  0  0  0
 62 74  1  0  0  0  0
 64 65  1  0  0  0  0
M  CHG  1  74   1
M  ISO  4  37 100  60 101  69 100  82 101
M  END
> <Batch ID>
0199

> <Smiles>
CNC(C)C(=O)NC(C(=O)N1Cc2cc([101O:1][101CH2:1]CCn3cccc(C4C[100N:0]([100C:0](=O)N5CCCC(n6nc(-c7ccc(Oc8ccc(F)cc8F)cc7)c(C(N)=O)c6N)C5)C4)c3=O)ccc2CC1C(=O)NC1CCCc2ccccc21)C(C)(C)C

> <Shape>
0.250

> <Color>
0.057

> <Negative vol penalty>
0.000

$$$$

  -OEChem-04052323503D

 83 92  0     1  0  0  0  0  0999 V2000
  -26.8378  -35.3641   25.4490 C   0  0  0  0  0  0  0  0  0  0  0  0
  -27.1826  -34.0221   25.3250 C   0  0  0  0  0  0  0  0  0  0  0  0
  -23.4280   -9.2936   21.6020 C   0  0  0  0  0  0  0  0  0  0  0  0
  -23.9206  -10.3976   23.6938 C   0  0  0  0  0  0  0  0  0  0  0  0
  -25.5248  -35.7699   25.2139 C   0  0  0  0  0  0  0  0  0  0  0  0
  -26.2143  -33.0848   24.9667 C   0  0  0  0  0  0  0  0  0  0  0  0
  -27.8592  -29.8428   21.4413 C   0  0  0  0  0  0  0  0  0  0  0  0
  -23.5131   -8.0541   22.2361 C   0  0  0  0  0  0  0  0  0  0  0  0
  -24.0057   -9.1581   24.3280 C   0  0  0  0  0  0  0  0  0  0  0  0
  -28.6924  -28.8089   21.8662 C   0  0  0  0  0  0  0  0  0  0  0  0
  -21.5656   -6.1348   24.2252 C   0  0  0  0  0  0  0  0  0  0  0  0
  -20.5726   -5.1954   23.9479 C   0  0  0  0  0  0  0  0  0  0  0  0
  -26.8131  -27.2964   21.8511 C   0  0  0  0  0  0  0  0  0  0  0  0
  -22.2483   -3.6733   23.1038 C   0  0  0  0  0  0  0  0  0  0  0  0
  -23.6319  -10.4653   22.3309 C   0  0  0  0  0  0  0  0  0  0  0  0
  -22.3968  -12.5466   21.5243 C   0  0  0  0  0  0  0  0  0  0  0  0
  -24.5420  -34.8386   24.8431 C   0  0  0  0  0  0  0  0  0  0  0  0
  -26.4923  -29.6135   21.2282 C   0  0  0  0  0  0  0  0  0  0  0  0
  -24.8867  -33.4784   24.7277 C   0  0  0  0  0  0  0  0  0  0  0  0
  -25.9653  -28.3285   21.4210 C   0  0  0  0  0  0  0  0  0  0  0  0
  -23.8019   -7.9864   23.5991 C   0  0  0  0  0  0  0  0  0  0  0  0
  -28.1688  -27.5361   22.0740 C   0  0  0  0  0  0  0  0  0  0  0  0
  -22.9000   -5.8436   23.9417 C   0  0  0  0  0  0  0  0  0  0  0  0
  -20.9139   -3.9646   23.3873 C   0  0  0  0  0  0  0  0  0  0  0  0
  -23.2413   -4.6128   23.3810 C   0  0  0  0  0  0  0  0  0  0  0  0
  -23.5447  -11.7460   21.6763 C   0  0  0  0  0  0  0  0  0  0  0  0
  -22.8374  -13.6518   20.8382 C   0  0  0  0  0  0  0  0  0  0  0  0
  -21.0524  -12.3122   21.9640 C   0  0  0  0  0  0  0  0  0  0  0  0
  -23.8044  -30.7350   22.5015 C   0  0  0  0  0  0  0  0  0  0  0  0
  -22.4184  -28.9840   20.1488 C   0  0  0  0  0  0  0  0  0  0  0  0
  -22.6419  -26.3658   17.9712 C   0  0  0  0  0  0  0  0  0  0  0  0
  -28.2972  -16.0554   20.4949 C   0  0  0  0  0  0  0  0  0  0  0  0
  -23.1257  -35.3177   24.6454 C   0  0  0  0  0  0  0  0  0  0  0  0
  -25.6121  -30.7330   20.7441 C   0  0  0  0  0  0  0  0  0  0  0  0
  -24.5086  -28.0254   21.1868 C   0  0  0  0  0  0  0  0  0  0  0  0
  -22.2422  -34.3173   23.9045 C   0  0  0  0  0  0  0  0  0  0  0  0
  -26.1676  -15.0284   17.6924 C   0  0  0  0  0  0  0  0  0  0  0  0
  -22.4232  -32.9164   24.4803 C   0  0  0  0  0  0  0  0  0  0  0  0
  -25.1554  -14.1224   18.3952 C   0  0  0  0  0  0  0  0  0  0  0  0
  -31.8179  -22.9565   19.8617 C   0  0  0  0  0  0  0  0  0  0  0  0
  -27.5425  -14.9154   18.3399 C   0  0  0  0  0  0  0  0  0  0  0  0
  -31.5669  -21.7117   19.0095 C   0  0  0  0  0  0  0  0  0  0  0  0
  -29.6398  -18.2242   20.3880 C   0  0  0  0  0  0  0  0  0  0  0  0
  -28.4036  -17.9397   18.6804 C   0  0  0  0  0  0  0  0  0  0  0  0
  -26.5526  -14.3059   20.5101 C   0  0  0  0  0  0  0  0  0  0  0  0
  -29.5758  -22.1442   20.1550 C   0  0  0  0  0  0  0  0  0  0  0  0
  -23.8700  -32.4354   24.3168 C   0  0  1  0  0  0  0  0  0  0  0  0
  -24.1352  -30.5084   21.0534 C   0  0  1  0  0  0  0  0  0  0  0  0
  -28.8650  -19.1817   19.4664 C   0  0  0  0  0  0  0  0  0  0  0  0
  -25.1352  -14.3808   19.9130 C   0  0  2  0  0  0  0  0  0  0  0  0
  -30.6327  -23.0070   20.8151 C   0  0  2  0  0  0  0  0  0  0  0  0
  -21.3352  -25.1586   16.2013 C   0  0  0  0  0  0  0  0  0  0  0  0
  -20.7320  -27.6451   22.3107 C   0  0  0  0  0  0  0  0  0  0  0  0
  -20.1705  -25.8473   20.6613 C   0  0  0  0  0  0  0  0  0  0  0  0
  -19.4881  -28.2047   20.2145 C   0  0  0  0  0  0  0  0  0  0  0  0
  -24.6584  -26.9858   15.8955 C   0  0  0  0  0  0  0  0  0  0  0  0
  -29.6889  -20.1994   18.7036 C   0  0  0  0  0  0  0  0  0  0  0  0
  -30.9196  -25.1797   22.0133 C   0  0  0  0  0  0  0  0  0  0  0  0
  -30.3469  -26.5813   22.0884 C   0  0  0  0  0  0  0  0  0  1  0  0
  -21.9259  -27.5625   20.0229 C   0  0  1  0  0  0  0  0  0  0  0  0
  -22.3421  -26.2620   16.4867 C   0  0  2  0  0  0  0  0  0  0  0  0
  -20.6062  -27.3207   20.8087 C   0  0  0  0  0  0  0  0  0  0  0  0
  -24.6327  -12.2957   21.1305 N   0  0  0  0  0  0  0  0  0  0  0  0
  -24.1705  -13.4536   20.6287 N   0  0  0  0  0  0  0  0  0  0  0  0
  -23.6874  -29.1547   20.7200 N   0  0  0  0  0  0  0  0  0  0  0  0
  -27.4672  -15.1889   19.7785 N   0  0  0  0  0  0  0  0  0  0  0  0
  -28.7903  -17.1651   19.8500 N   0  0  0  0  0  0  0  0  0  0  0  0
  -30.4089  -21.0597   19.6299 N   0  0  1  0  0  0  0  0  0  0  0  0
  -22.2107  -14.7641   20.3995 N   0  0  0  0  0  0  0  0  0  0  0  0
  -20.7728  -11.1255   22.6553 N   0  0  0  0  0  0  0  0  0  0  0  0
  -24.1084  -32.0041   22.9560 N   0  0  0  0  0  0  0  0  0  0  0  0
  -21.8286  -27.2893   18.5931 N   0  0  0  0  0  0  0  0  0  0  0  0
  -30.1543  -24.3882   21.0060 N   0  3  0  0  0  0  0  0  0  0  0  0
  -23.5893  -25.9684   15.7256 N   0  3  0  0  0  0  0  0  0  0  0  0
  -20.1231  -13.1233   21.7359 O   0  0  0  0  0  0  0  0  0  0  0  0
  -23.3086  -29.8264   23.1574 O   0  0  0  0  0  0  0  0  0  0  0  0
  -21.7065  -29.9083   19.7484 O   0  0  0  0  0  0  0  0  0  0  0  0
  -23.5083  -25.6922   18.5244 O   0  0  0  0  0  0  0  0  0  0  0  0
  -28.5668  -15.8629   21.6880 O   0  0  0  0  0  0  0  0  0  0  0  0
  -23.8847   -6.7771   24.2182 O   0  0  0  0  0  0  0  0  0  0  0  0
  -28.9856  -26.5181   22.4923 O   0  0  0  0  0  0  0  0  0  1  0  0
  -19.9604   -3.0619   23.1225 F   0  0  0  0  0  0  0  0  0  0  0  0
  -24.5216   -4.3269   23.1076 F   0  0  0  0  0  0  0  0  0  0  0  0
  1  2  1  0  0  0  0
  1  5  2  0  0  0  0
  2  6  2  0  0  0  0
  3  8  2  0  0  0  0
  3 15  1  0  0  0  0
  4  9  1  0  0  0  0
  4 15  2  0  0  0  0
  5 17  1  0  0  0  0
  6 19  1  0  0  0  0
  7 10  2  0  0  0  0
  7 18  1  0  0  0  0
  8 21  1  0  0  0  0
  9 21  2  0  0  0  0
 10 22  1  0  0  0  0
 11 12  2  0  0  0  0
 11 23  1  0  0  0  0
 12 24  1  0  0  0  0
 13 20  1  0  0  0  0
 13 22  2  0  0  0  0
 14 24  2  0  0  0  0
 14 25  1  0  0  0  0
 15 26  1  0  0  0  0
 16 26  1  0  0  0  0
 16 27  2  0  0  0  0
 16 28  1  0  0  0  0
 17 19  2  0  0  0  0
 17 33  1  0  0  0  0
 18 20  2  0  0  0  0
 18 34  1  0  0  0  0
 19 47  1  0  0  0  0
 20 35  1  0  0  0  0
 21 80  1  0  0  0  0
 22 81  1  0  0  0  0
 23 25  2  0  0  0  0
 23 80  1  0  0  0  0
 24 82  1  0  0  0  0
 25 83  1  0  0  0  0
 26 63  2  0  0  0  0
 27 64  1  0  0  0  0
 27 69  1  0  0  0  0
 28 70  1  0  0  0  0
 28 75  2  0  0  0  0
 29 48  1  0  0  0  0
 29 71  1  0  0  0  0
 29 76  2  0  0  0  0
 30 60  1  0  0  0  0
 30 65  1  0  0  0  0
 30 77  2  0  0  0  0
 31 61  1  0  0  0  0
 31 72  1  0  0  0  0
 31 78  2  0  0  0  0
 32 66  1  0  0  0  0
 32 67  1  0  0  0  0
 32 79  2  0  0  0  0
 33 36  1  0  0  0  0
 34 48  1  0  0  0  0
 35 65  1  0  0  0  0
 36 38  1  0  0  0  0
 37 39  1  0  0  0  0
 37 41  1  0  0  0  0
 38 47  1  0  0  0  0
 39 50  1  0  0  0  0
 40 42  1  0  0  0  0
 40 51  1  0  0  0  0
 41 66  1  0  0  0  0
 42 68  1  0  0  0  0
 43 49  1  0  0  0  0
 43 67  1  0  0  0  0
 44 49  1  0  0  0  0
 44 67  1  0  0  0  0
 45 50  1  0  0  0  0
 45 66  1  0  0  0  0
 46 51  1  0  0  0  0
 46 68  1  0  0  0  0
 47 71  1  0  0  0  0
 48 65  1  0  0  0  0
 49 57  1  0  0  0  0
 50 64  1  0  0  0  0
 51 73  1  0  0  0  0
 52 61  1  0  0  0  0
 53 62  1  0  0  0  0
 54 62  1  0  0  0  0
 55 62  1  0  0  0  0
 56 74  1  0  0  0  0
 57 68  1  0  0  0  0
 58 59  1  0  0  0  0
 58 73  1  0  0  0  0
 59 81  1  0  0  0  0
 60 62  1  0  0  0  0
 60 72  1  0  0  0  0
 61 74  1  0  0  0  0
 63 64  1  0  0  0  0
M  CHG  2  73   1  74   1
M  ISO  4  32 100  59 101  67 100  81 101
M  END
> <Batch ID>
0199

> <Smiles>
CNC(C)C(=O)NC(C(=O)N1Cc2cc([101O:1][101CH2:1]CNC3CCN(CC4C[100N:0]([100C:0](=O)N5CCCC(n6nc(-c7ccc(Oc8ccc(F)cc8F)cc7)c(C(N)=O)c6N)C5)C4)C3)ccc2CC1C(=O)NC1CCCc2ccccc21)C(C)(C)C

> <Shape>
0.291

> <Color>
0.052

> <Negative vol penalty>
0.000

$$$$

  -OEChem-04052323503D

 85 94  0     1  0  0  0  0  0999 V2000
  -27.9083  -36.3795   21.0717 C   0  0  0  0  0  0  0  0  0  0  0  0
  -28.6743  -35.3019   20.6387 C   0  0  0  0  0  0  0  0  0  0  0  0
  -23.4306   -9.1890   20.4935 C   0  0  0  0  0  0  0  0  0  0  0  0
  -23.1253  -10.8673   22.2043 C   0  0  0  0  0  0  0  0  0  0  0  0
  -26.8561  -36.1720   21.9626 C   0  0  0  0  0  0  0  0  0  0  0  0
  -28.3890  -34.0163   21.0971 C   0  0  0  0  0  0  0  0  0  0  0  0
  -28.5564  -27.1721   18.9885 C   0  0  0  0  0  0  0  0  0  0  0  0
  -22.5675   -8.3337   21.1785 C   0  0  0  0  0  0  0  0  0  0  0  0
  -22.2621  -10.0121   22.8893 C   0  0  0  0  0  0  0  0  0  0  0  0
  -29.0429  -25.9309   19.3966 C   0  0  0  0  0  0  0  0  0  0  0  0
  -20.7251   -5.5719   22.6622 C   0  0  0  0  0  0  0  0  0  0  0  0
  -21.1091   -4.2387   22.8053 C   0  0  0  0  0  0  0  0  0  0  0  0
  -31.3383  -20.3636   21.5647 C   0  0  0  0  0  0  0  0  0  0  0  0
  -31.4974  -21.7513   21.3280 C   0  0  0  0  0  0  0  0  0  0  0  0
  -27.1511  -25.6815   20.8724 C   0  0  0  0  0  0  0  0  0  0  0  0
  -23.0906   -4.9375   23.9981 C   0  0  0  0  0  0  0  0  0  0  0  0
  -23.7096  -10.4558   21.0065 C   0  0  0  0  0  0  0  0  0  0  0  0
  -24.2582  -12.2830   19.3130 C   0  0  0  0  0  0  0  0  0  0  0  0
  -26.5517  -34.8818   22.4247 C   0  0  0  0  0  0  0  0  0  0  0  0
  -27.3673  -27.6830   19.5283 C   0  0  0  0  0  0  0  0  0  0  0  0
  -27.3326  -33.7915   21.9960 C   0  0  0  0  0  0  0  0  0  0  0  0
  -26.6503  -26.9282   20.4676 C   0  0  0  0  0  0  0  0  0  0  0  0
  -21.9832   -8.7453   22.3763 C   0  0  0  0  0  0  0  0  0  0  0  0
  -28.3417  -25.1867   20.3409 C   0  0  0  0  0  0  0  0  0  0  0  0
  -21.5238   -6.5880   23.1870 C   0  0  0  0  0  0  0  0  0  0  0  0
  -22.2919   -3.9214   23.4733 C   0  0  0  0  0  0  0  0  0  0  0  0
  -22.7065   -6.2708   23.8550 C   0  0  0  0  0  0  0  0  0  0  0  0
  -24.6016  -11.3394   20.2997 C   0  0  0  0  0  0  0  0  0  0  0  0
  -30.1318  -19.9884   21.0161 C   0  0  0  0  0  0  0  0  0  0  0  0
  -30.3832  -22.1819   20.6421 C   0  0  0  0  0  0  0  0  0  0  0  0
  -25.4531  -12.8612   18.9602 C   0  0  0  0  0  0  0  0  0  0  0  0
  -22.9740  -12.6079   18.7645 C   0  0  0  0  0  0  0  0  0  0  0  0
  -26.6020  -30.2490   21.2411 C   0  0  0  0  0  0  0  0  0  0  0  0
  -23.5755  -29.1833   20.7648 C   0  0  0  0  0  0  0  0  0  0  0  0
  -21.5010  -26.5606   20.0831 C   0  0  0  0  0  0  0  0  0  0  0  0
  -30.3683  -15.0721   20.3922 C   0  0  0  0  0  0  0  0  0  0  0  0
  -25.4345  -34.7134   23.4238 C   0  0  0  0  0  0  0  0  0  0  0  0
  -26.8419  -29.0116   19.0577 C   0  0  0  0  0  0  0  0  0  0  0  0
  -25.3580  -27.4229   21.0625 C   0  0  0  0  0  0  0  0  0  0  0  0
  -24.9612  -33.2695   23.5705 C   0  0  0  0  0  0  0  0  0  0  0  0
  -30.2025  -11.5611   20.0350 C   0  0  0  0  0  0  0  0  0  0  0  0
  -26.1538  -32.3276   23.7029 C   0  0  0  0  0  0  0  0  0  0  0  0
  -28.7076  -11.2541   20.0240 C   0  0  0  0  0  0  0  0  0  0  0  0
  -29.1910  -17.9548   22.3309 C   0  0  0  0  0  0  0  0  0  0  0  0
  -30.5166  -12.6859   21.0121 C   0  0  0  0  0  0  0  0  0  0  0  0
  -28.9186  -16.5079   21.9419 C   0  0  0  0  0  0  0  0  0  0  0  0
  -30.2736  -17.5429   20.2582 C   0  0  0  0  0  0  0  0  0  0  0  0
  -28.2654  -13.6742   20.6873 C   0  0  0  0  0  0  0  0  0  0  0  0
  -27.0386  -32.3786   22.4515 C   0  0  1  0  0  0  0  0  0  0  0  0
  -29.4647  -18.6313   20.9779 C   0  0  2  0  0  0  0  0  0  0  0  0
  -25.8892  -29.6644   20.0546 C   0  0  1  0  0  0  0  0  0  0  0  0
  -27.8959  -12.5246   19.7273 C   0  0  2  0  0  0  0  0  0  0  0  0
  -19.0739  -25.9920   19.7950 C   0  0  0  0  0  0  0  0  0  0  0  0
  -23.1907  -29.3037   23.7893 C   0  0  0  0  0  0  0  0  0  0  0  0
  -21.1611  -27.8631   23.5185 C   0  0  0  0  0  0  0  0  0  0  0  0
  -21.2382  -30.1188   22.4561 C   0  0  0  0  0  0  0  0  0  0  0  0
  -24.5903  -21.0276   20.7835 C   0  0  0  0  0  0  0  0  0  0  0  0
  -21.9196  -25.6794   17.2890 C   0  0  0  0  0  0  0  0  0  0  0  0
  -30.0384  -23.5313   20.1489 C   0  0  0  0  0  0  0  0  0  1  0  0
  -28.2818  -21.1326   19.7789 C   0  0  0  0  0  0  0  0  0  0  0  0
  -27.0866  -21.0901   20.7218 C   0  0  0  0  0  0  0  0  0  0  0  0
  -22.6435  -28.2485   21.4974 C   0  0  1  0  0  0  0  0  0  0  0  0
  -20.3578  -26.4108   19.0957 C   0  0  2  0  0  0  0  0  0  0  0  0
  -22.0837  -28.8748   22.8057 C   0  0  0  0  0  0  0  0  0  0  0  0
  -25.9120  -11.3162   20.5571 N   0  0  0  0  0  0  0  0  0  0  0  0
  -29.5598  -21.1019   20.4583 N   0  0  0  0  0  0  0  0  0  0  0  0
  -26.4026  -12.2523   19.7269 N   0  0  0  0  0  0  0  0  0  0  0  0
  -24.8887  -28.7304   20.5750 N   0  0  0  0  0  0  0  0  0  0  0  0
  -29.7183  -13.8825   20.7389 N   0  0  0  0  0  0  0  0  0  0  0  0
  -29.7819  -16.2743   20.7861 N   0  0  0  0  0  0  0  0  0  0  0  0
  -25.7737  -13.8259   18.0720 N   0  0  0  0  0  0  0  0  0  0  0  0
  -21.8505  -11.9179   19.2399 N   0  0  0  0  0  0  0  0  0  0  0  0
  -26.4402  -31.6145   21.3780 N   0  0  0  0  0  0  0  0  0  0  0  0
  -21.6184  -27.8578   20.5357 N   0  0  0  0  0  0  0  0  0  0  0  0
  -25.8213  -21.0646   19.9477 N   0  3  0  0  0  0  0  0  0  0  0  0
  -20.6909  -25.3827   18.0696 N   0  3  0  0  0  0  0  0  0  0  0  0
  -22.8292  -13.4725   17.8673 O   0  0  0  0  0  0  0  0  0  0  0  0
  -27.2495  -29.5153   21.9787 O   0  0  0  0  0  0  0  0  0  0  0  0
  -23.1518  -30.2722   20.3692 O   0  0  0  0  0  0  0  0  0  0  0  0
  -22.2159  -25.6201   20.4221 O   0  0  0  0  0  0  0  0  0  0  0  0
  -31.4508  -15.0615   19.7907 O   0  0  0  0  0  0  0  0  0  0  0  0
  -21.1407   -7.9111   23.0448 O   0  0  0  0  0  0  0  0  0  0  0  0
  -28.8172  -23.9687   20.7436 O   0  0  0  0  0  0  0  0  0  1  0  0
  -22.6598   -2.6410   23.6119 F   0  0  0  0  0  0  0  0  0  0  0  0
  -23.4773   -7.2425   24.3623 F   0  0  0  0  0  0  0  0  0  0  0  0
  1  2  1  0  0  0  0
  1  5  2  0  0  0  0
  2  6  2  0  0  0  0
  3  8  2  0  0  0  0
  3 17  1  0  0  0  0
  4  9  1  0  0  0  0
  4 17  2  0  0  0  0
  5 19  1  0  0  0  0
  6 21  1  0  0  0  0
  7 10  2  0  0  0  0
  7 20  1  0  0  0  0
  8 23  1  0  0  0  0
  9 23  2  0  0  0  0
 10 24  1  0  0  0  0
 11 12  2  0  0  0  0
 11 25  1  0  0  0  0
 12 26  1  0  0  0  0
 13 14  1  0  0  0  0
 13 29  2  0  0  0  0
 14 30  2  0  0  0  0
 15 22  1  0  0  0  0
 15 24  2  0  0  0  0
 16 26  2  0  0  0  0
 16 27  1  0  0  0  0
 17 28  1  0  0  0  0
 18 28  1  0  0  0  0
 18 31  2  0  0  0  0
 18 32  1  0  0  0  0
 19 21  2  0  0  0  0
 19 37  1  0  0  0  0
 20 22  2  0  0  0  0
 20 38  1  0  0  0  0
 21 49  1  0  0  0  0
 22 39  1  0  0  0  0
 23 82  1  0  0  0  0
 24 83  1  0  0  0  0
 25 27  2  0  0  0  0
 25 82  1  0  0  0  0
 26 84  1  0  0  0  0
 27 85  1  0  0  0  0
 28 65  2  0  0  0  0
 29 50  1  0  0  0  0
 29 66  1  0  0  0  0
 30 59  1  0  0  0  0
 30 66  1  0  0  0  0
 31 67  1  0  0  0  0
 31 71  1  0  0  0  0
 32 72  1  0  0  0  0
 32 77  2  0  0  0  0
 33 51  1  0  0  0  0
 33 73  1  0  0  0  0
 33 78  2  0  0  0  0
 34 62  1  0  0  0  0
 34 68  1  0  0  0  0
 34 79  2  0  0  0  0
 35 63  1  0  0  0  0
 35 74  1  0  0  0  0
 35 80  2  0  0  0  0
 36 69  1  0  0  0  0
 36 70  1  0  0  0  0
 36 81  2  0  0  0  0
 37 40  1  0  0  0  0
 38 51  1  0  0  0  0
 39 68  1  0  0  0  0
 40 42  1  0  0  0  0
 41 43  1  0  0  0  0
 41 45  1  0  0  0  0
 42 49  1  0  0  0  0
 43 52  1  0  0  0  0
 44 46  1  0  0  0  0
 44 50  1  0  0  0  0
 45 69  1  0  0  0  0
 46 70  1  0  0  0  0
 47 50  1  0  0  0  0
 47 70  1  0  0  0  0
 48 52  1  0  0  0  0
 48 69  1  0  0  0  0
 49 73  1  0  0  0  0
 51 68  1  0  0  0  0
 52 67  1  0  0  0  0
 53 63  1  0  0  0  0
 54 64  1  0  0  0  0
 55 64  1  0  0  0  0
 56 64  1  0  0  0  0
 57 75  1  0  0  0  0
 58 76  1  0  0  0  0
 59 83  1  0  0  0  0
 60 61  1  0  0  0  0
 60 66  1  0  0  0  0
 61 75  1  0  0  0  0
 62 64  1  0  0  0  0
 62 74  1  0  0  0  0
 63 76  1  0  0  0  0
 65 67  1  0  0  0  0
M  CHG  2  75   1  76   1
M  ISO  4  36 100  59 101  70 100  83 101
M  END
> <Batch ID>
0199

> <Smiles>
CNCCn1c(C2CC[100N:0]([100C:0](=O)N3CCCC(n4nc(-c5ccc(Oc6ccc(F)cc6F)cc5)c(C(N)=O)c4N)C3)C2)ccc1[101CH2:1][101O:1]c1ccc2c(c1)CN(C(=O)C(NC(=O)C(C)NC)C(C)(C)C)C(C(=O)NC1CCCc3ccccc31)C2

> <Shape>
0.331

> <Color>
0.096

> <Negative vol penalty>
0.000

$$$$

  -OEChem-04052323503D

 86 95  0     1  0  0  0  0  0999 V2000
  -21.5152  -23.4427   18.7515 C   0  0  0  0  0  0  0  0  0  0  0  0
  -22.7030  -22.7594   18.5118 C   0  0  0  0  0  0  0  0  0  0  0  0
  -27.3631  -29.9220   20.1171 C   0  0  0  0  0  0  0  0  0  0  0  0
  -27.6134  -28.9545   22.3168 C   0  0  0  0  0  0  0  0  0  0  0  0
  -20.7058  -23.0758   19.8258 C   0  0  0  0  0  0  0  0  0  0  0  0
  -23.0827  -21.7093   19.3470 C   0  0  0  0  0  0  0  0  0  0  0  0
  -26.0704  -16.6140   17.7291 C   0  0  0  0  0  0  0  0  0  0  0  0
  -26.4755  -30.8661   20.6334 C   0  0  0  0  0  0  0  0  0  0  0  0
  -26.7259  -29.8986   22.8330 C   0  0  0  0  0  0  0  0  0  0  0  0
  -27.4138  -16.2495   17.8072 C   0  0  0  0  0  0  0  0  0  0  0  0
  -23.3808  -30.3794   22.9340 C   0  0  0  0  0  0  0  0  0  0  0  0
  -22.3902  -29.9286   23.8064 C   0  0  0  0  0  0  0  0  0  0  0  0
  -26.9787  -15.1150   19.8911 C   0  0  0  0  0  0  0  0  0  0  0  0
  -23.2552  -31.3760   25.5366 C   0  0  0  0  0  0  0  0  0  0  0  0
  -27.9320  -28.9661   20.9588 C   0  0  0  0  0  0  0  0  0  0  0  0
  -30.2473  -28.1074   20.3186 C   0  0  0  0  0  0  0  0  0  0  0  0
  -21.0709  -22.0144   20.6688 C   0  0  0  0  0  0  0  0  0  0  0  0
  -25.1717  -16.2403   18.7386 C   0  0  0  0  0  0  0  0  0  0  0  0
  -22.2781  -21.3286   20.4344 C   0  0  0  0  0  0  0  0  0  0  0  0
  -25.6239  -15.4738   19.8222 C   0  0  0  0  0  0  0  0  0  0  0  0
  -26.1569  -30.8544   21.9913 C   0  0  0  0  0  0  0  0  0  0  0  0
  -27.8688  -15.5024   18.8897 C   0  0  0  0  0  0  0  0  0  0  0  0
  -24.3087  -31.3285   23.3630 C   0  0  0  0  0  0  0  0  0  0  0  0
  -22.3273  -30.4269   25.1077 C   0  0  0  0  0  0  0  0  0  0  0  0
  -24.2458  -31.8268   24.6643 C   0  0  0  0  0  0  0  0  0  0  0  0
  -28.8485  -27.9903   20.4261 C   0  0  0  0  0  0  0  0  0  0  0  0
  -30.6486  -26.9221   19.7525 C   0  0  0  0  0  0  0  0  0  0  0  0
  -31.5634  -17.6445   23.3200 C   0  0  0  0  0  0  0  0  0  0  0  0
  -32.3964  -15.8320   22.2715 C   0  0  0  0  0  0  0  0  0  0  0  0
  -30.8959  -18.1034   22.2509 C   0  0  0  0  0  0  0  0  0  0  0  0
  -30.9824  -17.3135   20.9870 C   0  0  0  0  0  0  0  0  0  0  0  0
  -31.1069  -29.1907   20.6968 C   0  0  0  0  0  0  0  0  0  0  0  0
  -23.3503  -17.8132   20.8152 C   0  0  0  0  0  0  0  0  0  0  0  0
  -22.2480  -14.8415   21.5050 C   0  0  0  0  0  0  0  0  0  0  0  0
  -22.7993  -11.4736   21.5009 C   0  0  0  0  0  0  0  0  0  0  0  0
  -27.7009  -21.5466   19.7115 C   0  0  0  0  0  0  0  0  0  0  0  0
  -20.1870  -21.6848   21.8456 C   0  0  0  0  0  0  0  0  0  0  0  0
  -23.7202  -16.6186   18.6262 C   0  0  0  0  0  0  0  0  0  0  0  0
  -24.6954  -15.0301   20.9220 C   0  0  0  0  0  0  0  0  0  0  0  0
  -20.4756  -20.3176   22.4602 C   0  0  0  0  0  0  0  0  0  0  0  0
  -29.1331  -23.4344   16.8616 C   0  0  0  0  0  0  0  0  0  0  0  0
  -21.9768  -20.1230   22.6483 C   0  0  0  0  0  0  0  0  0  0  0  0
  -29.2646  -24.8453   17.4325 C   0  0  0  0  0  0  0  0  0  0  0  0
  -30.6384  -20.3747   21.2544 C   0  0  0  0  0  0  0  0  0  0  0  0
  -28.6014  -19.0509   21.9385 C   0  0  0  0  0  0  0  0  0  0  0  0
  -28.0025  -22.6568   17.5278 C   0  0  0  0  0  0  0  0  0  0  0  0
  -29.7701  -21.6329   21.1725 C   0  0  0  0  0  0  0  0  0  0  0  0
  -27.7844  -20.3377   21.8707 C   0  0  0  0  0  0  0  0  0  0  0  0
  -28.2379  -24.0114   19.5850 C   0  0  0  0  0  0  0  0  0  0  0  0
  -22.7118  -20.1680   21.3033 C   0  0  1  0  0  0  0  0  0  0  0  0
  -30.0735  -19.3543   22.2513 C   0  0  0  0  0  0  0  0  0  0  0  0
  -22.9979  -16.6221   19.9699 C   0  0  1  0  0  0  0  0  0  0  0  0
  -29.3974  -24.8055   18.9646 C   0  0  2  0  0  0  0  0  0  0  0  0
  -21.7306   -9.3017   22.1628 C   0  0  0  0  0  0  0  0  0  0  0  0
  -22.9016  -15.4139   24.4299 C   0  0  0  0  0  0  0  0  0  0  0  0
  -22.7228  -12.9573   24.8783 C   0  0  0  0  0  0  0  0  0  0  0  0
  -20.7346  -14.2218   24.0592 C   0  0  0  0  0  0  0  0  0  0  0  0
  -22.8100  -10.4847   18.7115 C   0  0  0  0  0  0  0  0  0  0  0  0
  -31.0647  -14.0620   19.9941 C   0  0  0  0  0  0  0  0  0  0  0  0
  -31.9346  -15.3097   19.9223 C   0  0  0  0  0  0  0  0  0  0  0  0
  -29.5786  -14.3808   20.1040 C   0  0  0  0  0  0  0  0  0  1  0  0
  -22.6449  -13.7515   22.4712 C   0  0  1  0  0  0  0  0  0  0  0  0
  -21.9351  -10.3119   21.0446 C   0  0  2  0  0  0  0  0  0  0  0  0
  -22.2691  -14.0960   23.9401 C   0  0  0  0  0  0  0  0  0  0  0  0
  -28.3919  -26.8228   19.9651 N   0  0  0  0  0  0  0  0  0  0  0  0
  -32.3275  -16.5091   23.3707 N   0  0  0  0  0  0  0  0  0  0  0  0
  -29.5101  -26.1955   19.5624 N   0  0  0  0  0  0  0  0  0  0  0  0
  -31.7698  -16.1670   21.0857 N   0  0  0  0  0  0  0  0  0  0  0  0
  -23.2867  -15.4302   20.7700 N   0  0  0  0  0  0  0  0  0  0  0  0
  -28.1238  -22.6728   18.9858 N   0  0  0  0  0  0  0  0  0  0  0  0
  -28.3669  -21.2817   20.9176 N   0  0  0  0  0  0  0  0  0  0  0  0
  -31.8607  -26.4409   19.4037 N   0  0  0  0  0  0  0  0  0  0  0  0
  -30.5298  -30.3347   21.2648 N   0  0  0  0  0  0  0  0  0  0  0  0
  -22.5476  -18.9163   20.5955 N   0  0  0  0  0  0  0  0  0  0  0  0
  -22.0381  -12.5224   21.9717 N   0  0  0  0  0  0  0  0  0  0  0  0
  -22.5716   -9.6144   19.8917 N   0  3  0  0  0  0  0  0  0  0  0  0
  -30.3927  -17.6825   19.9741 O   0  0  0  0  0  0  0  0  0  0  0  0
  -32.3483  -29.1523   20.5207 O   0  0  0  0  0  0  0  0  0  0  0  0
  -24.2806  -17.7366   21.6092 O   0  0  0  0  0  0  0  0  0  0  0  0
  -21.0592  -15.1539   21.4009 O   0  0  0  0  0  0  0  0  0  0  0  0
  -24.0271  -11.4512   21.4487 O   0  0  0  0  0  0  0  0  0  0  0  0
  -26.7851  -20.8212   19.3040 O   0  0  0  0  0  0  0  0  0  0  0  0
  -25.2911  -31.7757   22.4954 O   0  0  0  0  0  0  0  0  0  0  0  0
  -29.1891  -15.1434   18.9692 O   0  0  0  0  0  0  0  0  0  1  0  0
  -21.3751  -29.9950   25.9448 F   0  0  0  0  0  0  0  0  0  0  0  0
  -25.1337  -32.7396   25.0817 F   0  0  0  0  0  0  0  0  0  0  0  0
  1  2  1  0  0  0  0
  1  5  2  0  0  0  0
  2  6  2  0  0  0  0
  3  8  2  0  0  0  0
  3 15  1  0  0  0  0
  4  9  1  0  0  0  0
  4 15  2  0  0  0  0
  5 17  1  0  0  0  0
  6 19  1  0  0  0  0
  7 10  2  0  0  0  0
  7 18  1  0  0  0  0
  8 21  1  0  0  0  0
  9 21  2  0  0  0  0
 10 22  1  0  0  0  0
 11 12  2  0  0  0  0
 11 23  1  0  0  0  0
 12 24  1  0  0  0  0
 13 20  1  0  0  0  0
 13 22  2  0  0  0  0
 14 24  2  0  0  0  0
 14 25  1  0  0  0  0
 15 26  1  0  0  0  0
 16 26  1  0  0  0  0
 16 27  2  0  0  0  0
 16 32  1  0  0  0  0
 17 19  2  0  0  0  0
 17 37  1  0  0  0  0
 18 20  2  0  0  0  0
 18 38  1  0  0  0  0
 19 50  1  0  0  0  0
 20 39  1  0  0  0  0
 21 83  1  0  0  0  0
 22 84  1  0  0  0  0
 23 25  2  0  0  0  0
 23 83  1  0  0  0  0
 24 85  1  0  0  0  0
 25 86  1  0  0  0  0
 26 65  2  0  0  0  0
 27 67  1  0  0  0  0
 27 72  1  0  0  0  0
 28 30  2  0  0  0  0
 28 66  1  0  0  0  0
 29 66  2  0  0  0  0
 29 68  1  0  0  0  0
 30 31  1  0  0  0  0
 30 51  1  0  0  0  0
 31 68  1  0  0  0  0
 31 77  2  0  0  0  0
 32 73  1  0  0  0  0
 32 78  2  0  0  0  0
 33 52  1  0  0  0  0
 33 74  1  0  0  0  0
 33 79  2  0  0  0  0
 34 62  1  0  0  0  0
 34 69  1  0  0  0  0
 34 80  2  0  0  0  0
 35 63  1  0  0  0  0
 35 75  1  0  0  0  0
 35 81  2  0  0  0  0
 36 70  1  0  0  0  0
 36 71  1  0  0  0  0
 36 82  2  0  0  0  0
 37 40  1  0  0  0  0
 38 52  1  0  0  0  0
 39 69  1  0  0  0  0
 40 42  1  0  0  0  0
 41 43  1  0  0  0  0
 41 46  1  0  0  0  0
 42 50  1  0  0  0  0
 43 53  1  0  0  0  0
 44 47  1  0  0  0  0
 44 51  1  0  0  0  0
 45 48  1  0  0  0  0
 45 51  1  0  0  0  0
 46 70  1  0  0  0  0
 47 71  1  0  0  0  0
 48 71  1  0  0  0  0
 49 53  1  0  0  0  0
 49 70  1  0  0  0  0
 50 74  1  0  0  0  0
 52 69  1  0  0  0  0
 53 67  1  0  0  0  0
 54 63  1  0  0  0  0
 55 64  1  0  0  0  0
 56 64  1  0  0  0  0
 57 64  1  0  0  0  0
 58 76  1  0  0  0  0
 59 60  1  0  0  0  0
 59 61  1  0  0  0  0
 60 68  1  0  0  0  0
 61 84  1  0  0  0  0
 62 64  1  0  0  0  0
 62 75  1  0  0  0  0
 63 76  1  0  0  0  0
 65 67  1  0  0  0  0
M  CHG  1  76   1
M  ISO  4  36 100  61 101  71 100  84 101
M  END
> <Batch ID>
0199

> <Smiles>
CNC(C)C(=O)NC(C(=O)N1Cc2cc([101O:1][101CH2:1]CCn3cncc(C4CC[100N:0]([100C:0](=O)N5CCCC(n6nc(-c7ccc(Oc8ccc(F)cc8F)cc7)c(C(N)=O)c6N)C5)CC4)c3=O)ccc2CC1C(=O)NC1CCCc2ccccc21)C(C)(C)C

> <Shape>
0.244

> <Color>
0.059

> <Negative vol penalty>
0.000

$$$$

  -OEChem-04052323503D

 88 97  0     1  0  0  0  0  0999 V2000
  -26.4025  -38.4125   21.7255 C   0  0  0  0  0  0  0  0  0  0  0  0
  -27.0326  -37.4323   20.9656 C   0  0  0  0  0  0  0  0  0  0  0  0
  -22.1514  -14.7658   20.9069 C   0  0  0  0  0  0  0  0  0  0  0  0
  -23.6269  -15.6217   22.6178 C   0  0  0  0  0  0  0  0  0  0  0  0
  -25.7556  -38.0656   22.9108 C   0  0  0  0  0  0  0  0  0  0  0  0
  -27.0172  -36.1045   21.3913 C   0  0  0  0  0  0  0  0  0  0  0  0
  -26.8750  -29.4192   18.8217 C   0  0  0  0  0  0  0  0  0  0  0  0
  -21.1638  -14.5479   21.8675 C   0  0  0  0  0  0  0  0  0  0  0  0
  -22.6393  -15.4039   23.5784 C   0  0  0  0  0  0  0  0  0  0  0  0
  -27.5572  -28.2083   18.9317 C   0  0  0  0  0  0  0  0  0  0  0  0
  -20.4681  -12.2508   24.2473 C   0  0  0  0  0  0  0  0  0  0  0  0
  -19.7867  -11.0342   24.2108 C   0  0  0  0  0  0  0  0  0  0  0  0
  -26.3409  -27.7138   20.9553 C   0  0  0  0  0  0  0  0  0  0  0  0
  -17.7016  -12.2117   23.8902 C   0  0  0  0  0  0  0  0  0  0  0  0
  -29.6054  -23.8205   21.9945 C   0  0  0  0  0  0  0  0  0  0  0  0
  -23.3830  -15.3027   21.2820 C   0  0  0  0  0  0  0  0  0  0  0  0
  -24.3191  -16.3572   19.1561 C   0  0  0  0  0  0  0  0  0  0  0  0
  -25.7239  -36.7314   23.3463 C   0  0  0  0  0  0  0  0  0  0  0  0
  -25.9269  -29.7921   19.7852 C   0  0  0  0  0  0  0  0  0  0  0  0
  -26.3704  -35.7396   22.5843 C   0  0  0  0  0  0  0  0  0  0  0  0
  -25.6461  -28.9288   20.8538 C   0  0  0  0  0  0  0  0  0  0  0  0
  -21.4078  -14.8670   23.2033 C   0  0  0  0  0  0  0  0  0  0  0  0
  -27.2923  -27.3567   20.0001 C   0  0  0  0  0  0  0  0  0  0  0  0
  -19.7662  -13.4478   24.1053 C   0  0  0  0  0  0  0  0  0  0  0  0
  -18.4035  -11.0147   24.0323 C   0  0  0  0  0  0  0  0  0  0  0  0
  -18.3830  -13.4283   23.9267 C   0  0  0  0  0  0  0  0  0  0  0  0
  -24.4037  -15.5274   20.2902 C   0  0  0  0  0  0  0  0  0  0  0  0
  -30.0296  -22.5886   21.5545 C   0  0  0  0  0  0  0  0  0  0  0  0
  -28.4882  -24.1162   21.1901 C   0  0  0  0  0  0  0  0  0  0  0  0
  -25.5410  -16.2261   18.5428 C   0  0  0  0  0  0  0  0  0  0  0  0
  -23.2330  -17.1735   18.6981 C   0  0  0  0  0  0  0  0  0  0  0  0
  -25.6563  -32.1881   21.8564 C   0  0  0  0  0  0  0  0  0  0  0  0
  -22.7385  -30.8774   22.3956 C   0  0  0  0  0  0  0  0  0  0  0  0
  -20.7378  -28.1149   22.2834 C   0  0  0  0  0  0  0  0  0  0  0  0
  -30.8620  -14.4397   20.9993 C   0  0  0  0  0  0  0  0  0  0  0  0
  -25.0527  -36.4119   24.6586 C   0  0  0  0  0  0  0  0  0  0  0  0
  -25.1803  -31.0895   19.6377 C   0  0  0  0  0  0  0  0  0  0  0  0
  -24.6228  -29.2733   21.9039 C   0  0  0  0  0  0  0  0  0  0  0  0
  -31.1618  -21.7138   21.9369 C   0  0  0  0  0  0  0  0  0  0  0  0
  -24.7610  -34.9255   24.8475 C   0  0  0  0  0  0  0  0  0  0  0  0
  -29.1514  -13.1462   17.9823 C   0  0  0  0  0  0  0  0  0  0  0  0
  -25.9819  -34.0903   24.4750 C   0  0  0  0  0  0  0  0  0  0  0  0
  -27.7149  -13.6265   18.1821 C   0  0  0  0  0  0  0  0  0  0  0  0
  -29.8695  -12.9365   19.3120 C   0  0  0  0  0  0  0  0  0  0  0  0
  -28.4107  -14.6085   20.4029 C   0  0  0  0  0  0  0  0  0  0  0  0
  -31.5771  -20.8384   20.7613 C   0  0  0  0  0  0  0  0  0  0  0  0
  -26.3542  -34.2846   23.0002 C   0  0  1  0  0  0  0  0  0  0  0  0
  -24.6066  -31.6018   20.9552 C   0  0  1  0  0  0  0  0  0  0  0  0
  -27.6738  -14.8741   19.0816 C   0  0  2  0  0  0  0  0  0  0  0  0
  -29.2241  -20.9920   19.7870 C   0  0  1  0  0  0  0  0  0  0  0  0
  -27.5837  -19.8044   21.2527 C   0  0  0  0  0  0  0  0  0  0  0  0
  -18.4123  -27.3435   22.8261 C   0  0  0  0  0  0  0  0  0  0  0  0
  -32.2572  -17.0875   18.8229 C   0  0  0  0  0  0  0  0  0  0  0  0
  -23.4557  -30.8093   25.3606 C   0  0  0  0  0  0  0  0  0  0  0  0
  -21.5648  -29.2058   25.7097 C   0  0  0  0  0  0  0  0  0  0  0  0
  -21.1053  -31.5100   24.8716 C   0  0  0  0  0  0  0  0  0  0  0  0
  -32.1946  -16.1775   22.1322 C   0  0  0  0  0  0  0  0  0  0  0  0
  -20.1856  -27.4177   19.4606 C   0  0  0  0  0  0  0  0  0  0  0  0
  -27.6360  -25.3505   21.2302 C   0  0  0  0  0  0  0  0  0  1  0  0
  -27.9078  -20.2156   19.8549 C   0  0  0  0  0  0  0  0  0  0  0  0
  -30.4324  -16.8946   20.5618 C   0  0  0  0  0  0  0  0  0  0  0  0
  -30.7743  -19.0657   19.2159 C   0  0  0  0  0  0  0  0  0  0  0  0
  -22.1955  -29.8259   23.3330 C   0  0  1  0  0  0  0  0  0  0  0  0
  -19.3294  -27.9120   21.7544 C   0  0  2  0  0  0  0  0  0  0  0  0
  -31.4262  -17.8401   19.8678 C   0  0  2  0  0  0  0  0  0  0  0  0
  -22.1011  -30.3319   24.8002 C   0  0  0  0  0  0  0  0  0  0  0  0
  -25.5859  -14.9144   20.3935 N   0  0  0  0  0  0  0  0  0  0  0  0
  -28.2165  -23.1518   20.3065 N   0  0  0  0  0  0  0  0  0  0  0  0
  -29.1525  -22.2201   20.5723 N   0  0  0  0  0  0  0  0  0  0  0  0
  -26.2553  -15.3592   19.3165 N   0  0  0  0  0  0  0  0  0  0  0  0
  -23.9238  -30.5558   21.7192 N   0  0  0  0  0  0  0  0  0  0  0  0
  -29.7779  -14.1222   20.1645 N   0  0  0  0  0  0  0  0  0  0  0  0
  -26.0634  -16.7688   17.4225 N   0  0  0  0  0  0  0  0  0  0  0  0
  -23.1598  -18.5000   19.1446 N   0  0  0  0  0  0  0  0  0  0  0  0
  -25.4634  -33.5245   22.1497 N   0  0  0  0  0  0  0  0  0  0  0  0
  -20.9225  -29.3928   22.7671 N   0  0  0  0  0  0  0  0  0  0  0  0
  -31.0763  -15.7974   21.2808 N   0  0  0  0  0  0  0  0  0  0  0  0
  -30.3633  -20.0724   20.2614 N   0  3  1  0  0  0  0  0  0  0  0  0
  -19.3408  -26.9716   20.5984 N   0  3  0  0  0  0  0  0  0  0  0  0
  -22.3445  -16.7347   17.9290 O   0  0  0  0  0  0  0  0  0  0  0  0
  -26.5726  -31.4799   22.2571 O   0  0  0  0  0  0  0  0  0  0  0  0
  -22.1295  -31.9419   22.2629 O   0  0  0  0  0  0  0  0  0  0  0  0
  -21.5878  -27.2273   22.2722 O   0  0  0  0  0  0  0  0  0  0  0  0
  -31.6021  -13.5603   21.4586 O   0  0  0  0  0  0  0  0  0  0  0  0
  -20.4442  -14.6548   24.1409 O   0  0  0  0  0  0  0  0  0  0  0  0
  -27.9572  -26.1745   20.1103 O   0  0  0  0  0  0  0  0  0  1  0  0
  -17.7495   -9.8463   23.9958 F   0  0  0  0  0  0  0  0  0  0  0  0
  -17.7034  -14.5750   23.7886 F   0  0  0  0  0  0  0  0  0  0  0  0
  1  2  1  0  0  0  0
  1  5  2  0  0  0  0
  2  6  2  0  0  0  0
  3  8  2  0  0  0  0
  3 16  1  0  0  0  0
  4  9  1  0  0  0  0
  4 16  2  0  0  0  0
  5 18  1  0  0  0  0
  6 20  1  0  0  0  0
  7 10  2  0  0  0  0
  7 19  1  0  0  0  0
  8 22  1  0  0  0  0
  9 22  2  0  0  0  0
 10 23  1  0  0  0  0
 11 12  2  0  0  0  0
 11 24  1  0  0  0  0
 12 25  1  0  0  0  0
 13 21  1  0  0  0  0
 13 23  2  0  0  0  0
 14 25  2  0  0  0  0
 14 26  1  0  0  0  0
 15 28  2  0  0  0  0
 15 29  1  0  0  0  0
 16 27  1  0  0  0  0
 17 27  1  0  0  0  0
 17 30  2  0  0  0  0
 17 31  1  0  0  0  0
 18 20  2  0  0  0  0
 18 36  1  0  0  0  0
 19 21  2  0  0  0  0
 19 37  1  0  0  0  0
 20 47  1  0  0  0  0
 21 38  1  0  0  0  0
 22 85  1  0  0  0  0
 23 86  1  0  0  0  0
 24 26  2  0  0  0  0
 24 85  1  0  0  0  0
 25 87  1  0  0  0  0
 26 88  1  0  0  0  0
 27 67  2  0  0  0  0
 28 39  1  0  0  0  0
 28 69  1  0  0  0  0
 29 59  1  0  0  0  0
 29 68  2  0  0  0  0
 30 70  1  0  0  0  0
 30 73  1  0  0  0  0
 31 74  1  0  0  0  0
 31 80  2  0  0  0  0
 32 48  1  0  0  0  0
 32 75  1  0  0  0  0
 32 81  2  0  0  0  0
 33 63  1  0  0  0  0
 33 71  1  0  0  0  0
 33 82  2  0  0  0  0
 34 64  1  0  0  0  0
 34 76  1  0  0  0  0
 34 83  2  0  0  0  0
 35 72  1  0  0  0  0
 35 77  1  0  0  0  0
 35 84  2  0  0  0  0
 36 40  1  0  0  0  0
 37 48  1  0  0  0  0
 38 71  1  0  0  0  0
 39 46  1  0  0  0  0
 40 42  1  0  0  0  0
 41 43  1  0  0  0  0
 41 44  1  0  0  0  0
 42 47  1  0  0  0  0
 43 49  1  0  0  0  0
 44 72  1  0  0  0  0
 45 49  1  0  0  0  0
 45 72  1  0  0  0  0
 46 78  1  0  0  0  0
 47 75  1  0  0  0  0
 48 71  1  0  0  0  0
 49 70  1  0  0  0  0
 50 60  1  0  0  0  0
 50 69  1  0  0  0  0
 50 78  1  0  0  0  0
 51 60  1  0  0  0  0
 52 64  1  0  0  0  0
 53 65  1  0  0  0  0
 54 66  1  0  0  0  0
 55 66  1  0  0  0  0
 56 66  1  0  0  0  0
 57 77  1  0  0  0  0
 58 79  1  0  0  0  0
 59 86  1  0  0  0  0
 61 65  1  0  0  0  0
 61 77  1  0  0  0  0
 62 65  1  0  0  0  0
 62 78  1  0  0  0  0
 63 66  1  0  0  0  0
 63 76  1  0  0  0  0
 64 79  1  0  0  0  0
 67 70  1  0  0  0  0
 68 69  1  0  0  0  0
M  CHG  2  78   1  79   1
M  ISO  4  35 100  59 101  77 100  86 101
M  END
> <Batch ID>
0199

> <Smiles>
CCC1N(CC(C)C[100N:0](C)[100C:0](=O)N2CCCC(n3nc(-c4ccc(Oc5ccc(F)cc5F)cc4)c(C(N)=O)c3N)C2)CCc2cc([101CH2:1][101O:1]c3ccc4c(c3)CN(C(=O)C(NC(=O)C(C)NC)C(C)(C)C)C(C(=O)NC3CCCc5ccccc53)C4)nn21

> <Shape>
0.283

> <Color>
0.072

> <Negative vol penalty>
0.000

$$$$

  -OEChem-04052323503D

 88 98  0     1  0  0  0  0  0999 V2000
  -26.5295  -31.1563   28.5589 C   0  0  0  0  0  0  0  0  0  0  0  0
  -26.8147  -30.2800   27.5166 C   0  0  0  0  0  0  0  0  0  0  0  0
  -24.5059   -5.8357   21.6160 C   0  0  0  0  0  0  0  0  0  0  0  0
  -24.0924   -6.6398   23.8564 C   0  0  0  0  0  0  0  0  0  0  0  0
  -25.2583  -31.7186   28.6672 C   0  0  0  0  0  0  0  0  0  0  0  0
  -25.8284  -29.9647   26.5827 C   0  0  0  0  0  0  0  0  0  0  0  0
  -27.5535  -30.0759   21.8228 C   0  0  0  0  0  0  0  0  0  0  0  0
  -25.0016   -4.6404   22.1365 C   0  0  0  0  0  0  0  0  0  0  0  0
  -24.5881   -5.4444   24.3770 C   0  0  0  0  0  0  0  0  0  0  0  0
  -28.3019  -28.9817   21.3911 C   0  0  0  0  0  0  0  0  0  0  0  0
  -26.0410   -1.2338   22.8648 C   0  0  0  0  0  0  0  0  0  0  0  0
  -25.6197   -0.0440   22.2712 C   0  0  0  0  0  0  0  0  0  0  0  0
  -26.3552  -28.0989   20.2730 C   0  0  0  0  0  0  0  0  0  0  0  0
  -23.3292   -0.5803   22.8218 C   0  0  0  0  0  0  0  0  0  0  0  0
  -24.0513   -6.8355   22.4760 C   0  0  0  0  0  0  0  0  0  0  0  0
  -22.2065   -8.3584   21.5899 C   0  0  0  0  0  0  0  0  0  0  0  0
  -24.2587  -31.4175   27.7286 C   0  0  0  0  0  0  0  0  0  0  0  0
  -26.1952  -30.1844   21.4914 C   0  0  0  0  0  0  0  0  0  0  0  0
  -24.5422  -30.5224   26.6794 C   0  0  0  0  0  0  0  0  0  0  0  0
  -25.5924  -29.1967   20.6996 C   0  0  0  0  0  0  0  0  0  0  0  0
  -25.0427   -4.4447   23.5169 C   0  0  0  0  0  0  0  0  0  0  0  0
  -27.7021  -27.9915   20.6185 C   0  0  0  0  0  0  0  0  0  0  0  0
  -25.1064   -2.0969   23.4369 C   0  0  0  0  0  0  0  0  0  0  0  0
  -24.2638    0.2828   22.2497 C   0  0  0  0  0  0  0  0  0  0  0  0
  -23.7505   -1.7702   23.4154 C   0  0  0  0  0  0  0  0  0  0  0  0
  -23.5397   -8.0708   21.9390 C   0  0  0  0  0  0  0  0  0  0  0  0
  -22.2430   -9.6531   21.1329 C   0  0  0  0  0  0  0  0  0  0  0  0
  -29.2800  -20.8032   20.6174 C   0  0  0  0  0  0  0  0  0  0  0  0
  -28.5562  -18.7579   20.6601 C   0  0  0  0  0  0  0  0  0  0  0  0
  -21.0396   -7.5294   21.6715 C   0  0  0  0  0  0  0  0  0  0  0  0
  -23.4838  -30.2886   23.1470 C   0  0  0  0  0  0  0  0  0  0  0  0
  -22.1812  -30.8621   20.2321 C   0  0  0  0  0  0  0  0  0  0  0  0
  -22.4265  -30.5695   16.8408 C   0  0  0  0  0  0  0  0  0  0  0  0
  -25.6586  -14.1923   22.2084 C   0  0  0  0  0  0  0  0  0  0  0  0
  -22.8856  -32.0130   27.9142 C   0  0  0  0  0  0  0  0  0  0  0  0
  -25.4084  -31.3844   21.9425 C   0  0  0  0  0  0  0  0  0  0  0  0
  -24.1425  -29.2766   20.2995 C   0  0  0  0  0  0  0  0  0  0  0  0
  -22.0075  -31.9189   26.6690 C   0  0  0  0  0  0  0  0  0  0  0  0
  -25.1465  -12.8068   19.0213 C   0  0  0  0  0  0  0  0  0  0  0  0
  -22.0773  -30.5172   26.0713 C   0  0  0  0  0  0  0  0  0  0  0  0
  -24.5411  -11.4486   19.3742 C   0  0  0  0  0  0  0  0  0  0  0  0
  -26.2857  -13.1897   19.9674 C   0  0  0  0  0  0  0  0  0  0  0  0
  -26.4065  -17.7081   21.2964 C   0  0  0  0  0  0  0  0  0  0  0  0
  -28.4343  -16.3131   20.8631 C   0  0  0  0  0  0  0  0  0  0  0  0
  -25.9063  -16.6456   22.2713 C   0  0  0  0  0  0  0  0  0  0  0  0
  -27.9050  -15.2825   21.8542 C   0  0  0  0  0  0  0  0  0  0  0  0
  -25.3130  -11.7818   21.7534 C   0  0  0  0  0  0  0  0  0  0  0  0
  -28.3414  -23.2242   20.7552 C   0  0  0  0  0  0  0  0  0  0  0  0
  -30.2008  -23.1035   19.8283 C   0  0  0  0  0  0  0  0  0  0  0  0
  -23.5062  -30.1751   25.6324 C   0  0  1  0  0  0  0  0  0  0  0  0
  -29.5484  -22.2691   20.9646 C   0  0  0  0  0  0  0  0  0  0  0  0
  -23.9040  -31.1336   21.9778 C   0  0  1  0  0  0  0  0  0  0  0  0
  -24.1270  -11.3966   20.8556 C   0  0  2  0  0  0  0  0  0  0  0  0
  -21.1889  -31.1001   14.7231 C   0  0  0  0  0  0  0  0  0  0  0  0
  -20.2818  -28.5335   20.7614 C   0  0  0  0  0  0  0  0  0  0  0  0
  -19.7488  -28.5033   18.3153 C   0  0  0  0  0  0  0  0  0  0  0  0
  -19.2182  -30.5224   19.6808 C   0  0  0  0  0  0  0  0  0  0  0  0
  -27.8073  -20.2308   22.5624 C   0  0  0  0  0  0  0  0  0  0  0  0
  -24.6126  -32.3076   15.8618 C   0  0  0  0  0  0  0  0  0  0  0  0
  -28.7272  -24.8646   18.9793 C   0  0  0  0  0  0  0  0  0  0  0  0
  -27.7541  -25.9448   19.4085 C   0  0  0  0  0  0  0  0  0  1  0  0
  -21.6283  -30.0033   19.1204 C   0  0  1  0  0  0  0  0  0  0  0  0
  -22.2271  -31.5799   15.7255 C   0  0  2  0  0  0  0  0  0  0  0  0
  -20.2462  -29.3878   19.4785 C   0  0  0  0  0  0  0  0  0  0  0  0
  -24.3630   -9.0999   21.7221 N   0  0  0  0  0  0  0  0  0  0  0  0
  -29.7651  -20.1907   19.5611 N   0  0  0  0  0  0  0  0  0  0  0  0
  -29.3046  -18.8894   19.5882 N   0  0  0  0  0  0  0  0  0  0  0  0
  -23.5451  -10.0468   21.2318 N   0  0  0  0  0  0  0  0  0  0  0  0
  -28.5130  -19.9385   21.3377 N   0  0  0  0  0  0  0  0  0  0  0  0
  -27.8632  -17.6386   21.1387 N   0  0  0  0  0  0  0  0  0  0  0  0
  -23.4138  -30.4660   20.7703 N   0  0  0  0  0  0  0  0  0  0  0  0
  -25.8560  -13.0862   21.3684 N   0  0  0  0  0  0  0  0  0  0  0  0
  -26.4450  -15.3277   21.9574 N   0  0  0  0  0  0  0  0  0  0  0  0
  -21.2880  -10.4818   20.6599 N   0  0  0  0  0  0  0  0  0  0  0  0
  -21.1798   -6.2250   22.1647 N   0  0  0  0  0  0  0  0  0  0  0  0
  -23.8181  -30.8232   24.3766 N   0  0  0  0  0  0  0  0  0  0  0  0
  -21.6185  -30.8395   17.9250 N   0  0  0  0  0  0  0  0  0  0  0  0
  -29.2827  -24.2029   20.1798 N   0  3  0  0  0  0  0  0  0  0  0  0
  -23.5086  -31.8109   15.0007 N   0  3  0  0  0  0  0  0  0  0  0  0
  -19.9089   -7.9279   21.3022 O   0  0  0  0  0  0  0  0  0  0  0  0
  -22.8982  -29.2306   22.9483 O   0  0  0  0  0  0  0  0  0  0  0  0
  -21.5463  -31.8521   20.6041 O   0  0  0  0  0  0  0  0  0  0  0  0
  -23.2169  -29.6321   16.7569 O   0  0  0  0  0  0  0  0  0  0  0  0
  -24.8286  -14.1703   23.1256 O   0  0  0  0  0  0  0  0  0  0  0  0
  -25.5261   -3.2782   24.0252 O   0  0  0  0  0  0  0  0  0  0  0  0
  -28.4354  -26.9145   20.1933 O   0  0  0  0  0  0  0  0  0  1  0  0
  -23.8593    1.4247   21.6783 F   0  0  0  0  0  0  0  0  0  0  0  0
  -22.8478   -2.5959   23.9623 F   0  0  0  0  0  0  0  0  0  0  0  0
  1  2  1  0  0  0  0
  1  5  2  0  0  0  0
  2  6  2  0  0  0  0
  3  8  2  0  0  0  0
  3 15  1  0  0  0  0
  4  9  1  0  0  0  0
  4 15  2  0  0  0  0
  5 17  1  0  0  0  0
  6 19  1  0  0  0  0
  7 10  2  0  0  0  0
  7 18  1  0  0  0  0
  8 21  1  0  0  0  0
  9 21  2  0  0  0  0
 10 22  1  0  0  0  0
 11 12  2  0  0  0  0
 11 23  1  0  0  0  0
 12 24  1  0  0  0  0
 13 20  1  0  0  0  0
 13 22  2  0  0  0  0
 14 24  2  0  0  0  0
 14 25  1  0  0  0  0
 15 26  1  0  0  0  0
 16 26  1  0  0  0  0
 16 27  2  0  0  0  0
 16 30  1  0  0  0  0
 17 19  2  0  0  0  0
 17 35  1  0  0  0  0
 18 20  2  0  0  0  0
 18 36  1  0  0  0  0
 19 50  1  0  0  0  0
 20 37  1  0  0  0  0
 21 85  1  0  0  0  0
 22 86  1  0  0  0  0
 23 25  2  0  0  0  0
 23 85  1  0  0  0  0
 24 87  1  0  0  0  0
 25 88  1  0  0  0  0
 26 65  2  0  0  0  0
 27 68  1  0  0  0  0
 27 74  1  0  0  0  0
 28 51  1  0  0  0  0
 28 66  2  0  0  0  0
 28 69  1  0  0  0  0
 29 67  2  0  0  0  0
 29 69  1  0  0  0  0
 29 70  1  0  0  0  0
 30 75  1  0  0  0  0
 30 80  2  0  0  0  0
 31 52  1  0  0  0  0
 31 76  1  0  0  0  0
 31 81  2  0  0  0  0
 32 62  1  0  0  0  0
 32 71  1  0  0  0  0
 32 82  2  0  0  0  0
 33 63  1  0  0  0  0
 33 77  1  0  0  0  0
 33 83  2  0  0  0  0
 34 72  1  0  0  0  0
 34 73  1  0  0  0  0
 34 84  2  0  0  0  0
 35 38  1  0  0  0  0
 36 52  1  0  0  0  0
 37 71  1  0  0  0  0
 38 40  1  0  0  0  0
 39 41  1  0  0  0  0
 39 42  1  0  0  0  0
 40 50  1  0  0  0  0
 41 53  1  0  0  0  0
 42 72  1  0  0  0  0
 43 45  1  0  0  0  0
 43 70  1  0  0  0  0
 44 46  1  0  0  0  0
 44 70  1  0  0  0  0
 45 73  1  0  0  0  0
 46 73  1  0  0  0  0
 47 53  1  0  0  0  0
 47 72  1  0  0  0  0
 48 51  1  0  0  0  0
 48 78  1  0  0  0  0
 49 51  1  0  0  0  0
 49 78  1  0  0  0  0
 50 76  1  0  0  0  0
 52 71  1  0  0  0  0
 53 68  1  0  0  0  0
 54 63  1  0  0  0  0
 55 64  1  0  0  0  0
 56 64  1  0  0  0  0
 57 64  1  0  0  0  0
 58 69  1  0  0  0  0
 59 79  1  0  0  0  0
 60 61  1  0  0  0  0
 60 78  1  0  0  0  0
 61 86  1  0  0  0  0
 62 64  1  0  0  0  0
 62 77  1  0  0  0  0
 63 79  1  0  0  0  0
 65 68  1  0  0  0  0
 66 67  1  0  0  0  0
M  CHG  2  78   1  79   1
M  ISO  4  34 100  61 101  73 100  86 101
M  END
> <Batch ID>
0199

> <Smiles>
CNC(C)C(=O)NC(C(=O)N1Cc2cc([101O:1][101CH2:1]CN3CC(c4nnc(N5CC[100N:0]([100C:0](=O)N6CCCC(n7nc(-c8ccc(Oc9ccc(F)cc9F)cc8)c(C(N)=O)c7N)C6)CC5)n4C)C3)ccc2CC1C(=O)NC1CCCc2ccccc21)C(C)(C)C

> <Shape>
0.245

> <Color>
0.094

> <Negative vol penalty>
0.000

$$$$

  -OEChem-04052323503D

 87 97  0     1  0  0  0  0  0999 V2000
  -26.3782  -38.4084   21.0674 C   0  0  0  0  0  0  0  0  0  0  0  0
  -26.9746  -37.3672   20.3633 C   0  0  0  0  0  0  0  0  0  0  0  0
  -25.7632  -16.1066   23.7182 C   0  0  0  0  0  0  0  0  0  0  0  0
  -25.5536  -17.0980   21.5250 C   0  0  0  0  0  0  0  0  0  0  0  0
  -25.7689  -38.1583   22.2963 C   0  0  0  0  0  0  0  0  0  0  0  0
  -26.9629  -36.0754   20.8882 C   0  0  0  0  0  0  0  0  0  0  0  0
  -26.6808  -29.2179   18.8362 C   0  0  0  0  0  0  0  0  0  0  0  0
  -25.5106  -17.3474   24.3032 C   0  0  0  0  0  0  0  0  0  0  0  0
  -25.3009  -18.3388   22.1100 C   0  0  0  0  0  0  0  0  0  0  0  0
  -27.3566  -28.0116   19.0146 C   0  0  0  0  0  0  0  0  0  0  0  0
  -22.8240  -19.2967   24.9476 C   0  0  0  0  0  0  0  0  0  0  0  0
  -21.9252  -19.3399   26.0134 C   0  0  0  0  0  0  0  0  0  0  0  0
  -26.2053  -27.6832   21.1088 C   0  0  0  0  0  0  0  0  0  0  0  0
  -23.6616  -20.2239   27.4419 C   0  0  0  0  0  0  0  0  0  0  0  0
  -29.0040  -20.5425   19.9199 C   0  0  0  0  0  0  0  0  0  0  0  0
  -25.7848  -15.9819   22.3290 C   0  0  0  0  0  0  0  0  0  0  0  0
  -25.1015  -13.7188   21.3704 C   0  0  0  0  0  0  0  0  0  0  0  0
  -25.7413  -36.8610   22.8319 C   0  0  0  0  0  0  0  0  0  0  0  0
  -25.7687  -29.6720   19.7996 C   0  0  0  0  0  0  0  0  0  0  0  0
  -26.3538  -35.8080   22.1260 C   0  0  0  0  0  0  0  0  0  0  0  0
  -25.5173  -28.8944   20.9390 C   0  0  0  0  0  0  0  0  0  0  0  0
  -30.0368  -21.4393   19.9868 C   0  0  0  0  0  0  0  0  0  0  0  0
  -25.2793  -18.4635   23.4991 C   0  0  0  0  0  0  0  0  0  0  0  0
  -27.1211  -27.2454   20.1524 C   0  0  0  0  0  0  0  0  0  0  0  0
  -24.1416  -19.7171   25.1290 C   0  0  0  0  0  0  0  0  0  0  0  0
  -22.3440  -19.8035   27.2605 C   0  0  0  0  0  0  0  0  0  0  0  0
  -24.5604  -20.1807   26.3761 C   0  0  0  0  0  0  0  0  0  0  0  0
  -26.0463  -14.7006   21.7241 C   0  0  0  0  0  0  0  0  0  0  0  0
  -31.1546  -21.1602   19.2173 C   0  0  0  0  0  0  0  0  0  0  0  0
  -25.8500  -12.6984   20.8367 C   0  0  0  0  0  0  0  0  0  0  0  0
  -30.2032  -19.2867   18.4233 C   0  0  0  0  0  0  0  0  0  0  0  0
  -23.6747  -13.7284   21.5116 C   0  0  0  0  0  0  0  0  0  0  0  0
  -25.5873  -32.2195   21.6920 C   0  0  0  0  0  0  0  0  0  0  0  0
  -22.6790  -30.9837   22.4247 C   0  0  0  0  0  0  0  0  0  0  0  0
  -20.6536  -28.2418   22.5873 C   0  0  0  0  0  0  0  0  0  0  0  0
  -29.1570  -14.4696   17.4611 C   0  0  0  0  0  0  0  0  0  0  0  0
  -25.1123  -36.6480   24.1860 C   0  0  0  0  0  0  0  0  0  0  0  0
  -25.0279  -30.9624   19.5794 C   0  0  0  0  0  0  0  0  0  0  0  0
  -24.5327  -29.3275   21.9933 C   0  0  0  0  0  0  0  0  0  0  0  0
  -32.2199  -22.1989   19.4327 C   0  0  0  0  0  0  0  0  0  0  0  0
  -24.8153  -35.1831   24.4961 C   0  0  0  0  0  0  0  0  0  0  0  0
  -31.3859  -23.3464   20.0295 C   0  0  0  0  0  0  0  0  0  0  0  0
  -30.8655  -12.8774   20.5157 C   0  0  0  0  0  0  0  0  0  0  0  0
  -26.0162  -34.3096   24.1475 C   0  0  0  0  0  0  0  0  0  0  0  0
  -29.6041  -12.6327   21.3333 C   0  0  0  0  0  0  0  0  0  0  0  0
  -29.1850  -17.9855   16.4720 C   0  0  0  0  0  0  0  0  0  0  0  0
  -30.6304  -13.9880   19.4959 C   0  0  0  0  0  0  0  0  0  0  0  0
  -29.2067  -16.5157   16.0873 C   0  0  0  0  0  0  0  0  0  0  0  0
  -30.1329  -16.7305   18.2849 C   0  0  0  0  0  0  0  0  0  0  0  0
  -28.6637  -12.5692   18.9389 C   0  0  0  0  0  0  0  0  0  0  0  0
  -26.3400  -34.3886   22.6507 C   0  0  1  0  0  0  0  0  0  0  0  0
  -30.2281  -22.6748   20.7925 C   0  0  1  0  0  0  0  0  0  0  0  0
  -30.2750  -18.0659   17.5409 C   0  0  2  0  0  0  0  0  0  0  0  0
  -24.5031  -31.5783   20.8728 C   0  0  1  0  0  0  0  0  0  0  0  0
  -28.3813  -12.3551   20.4389 C   0  0  2  0  0  0  0  0  0  0  0  0
  -18.3417  -27.5378   23.2631 C   0  0  0  0  0  0  0  0  0  0  0  0
  -23.4952  -31.1310   25.3610 C   0  0  0  0  0  0  0  0  0  0  0  0
  -21.6044  -29.5782   25.8923 C   0  0  0  0  0  0  0  0  0  0  0  0
  -21.1353  -31.8176   24.8985 C   0  0  0  0  0  0  0  0  0  0  0  0
  -20.0009  -27.3404   19.8449 C   0  0  0  0  0  0  0  0  0  0  0  0
  -29.2788  -24.7920   21.7170 C   0  0  0  0  0  0  0  0  0  0  0  0
  -28.0384  -25.6623   21.6716 C   0  0  0  0  0  0  0  0  0  1  0  0
  -22.1595  -30.0114   23.4561 C   0  0  1  0  0  0  0  0  0  0  0  0
  -19.2266  -28.0145   22.1219 C   0  0  2  0  0  0  0  0  0  0  0  0
  -22.1187  -30.6271   24.8832 C   0  0  0  0  0  0  0  0  0  0  0  0
  -29.0578  -19.4467   19.1314 N   0  0  0  0  0  0  0  0  0  0  0  0
  -27.2995  -14.3366   21.4392 N   0  0  0  0  0  0  0  0  0  0  0  0
  -31.2865  -20.0915   18.4197 N   0  0  0  0  0  0  0  0  0  0  0  0
  -27.1472  -13.1147   20.9010 N   0  0  0  0  0  0  0  0  0  0  0  0
  -23.8381  -30.5998   21.7356 N   0  0  0  0  0  0  0  0  0  0  0  0
  -29.4557  -13.7717   18.6430 N   0  0  0  0  0  0  0  0  0  0  0  0
  -29.5504  -15.7989   17.3153 N   0  0  0  0  0  0  0  0  0  0  0  0
  -25.5186  -11.4946   20.3235 N   0  0  0  0  0  0  0  0  0  0  0  0
  -23.0671  -14.8561   22.0803 N   0  0  0  0  0  0  0  0  0  0  0  0
  -25.4151  -33.5762   21.8899 N   0  0  0  0  0  0  0  0  0  0  0  0
  -20.8647  -29.5504   22.9669 N   0  0  0  0  0  0  0  0  0  0  0  0
  -29.0708  -23.5939   20.8557 N   0  3  0  0  0  0  0  0  0  0  0  0
  -19.1915  -26.9899   21.0403 N   0  3  0  0  0  0  0  0  0  0  0  0
  -22.9612  -12.7586   21.1595 O   0  0  0  0  0  0  0  0  0  0  0  0
  -26.5109  -31.5338   22.1145 O   0  0  0  0  0  0  0  0  0  0  0  0
  -22.0744  -32.0416   22.2322 O   0  0  0  0  0  0  0  0  0  0  0  0
  -21.4957  -27.3470   22.6150 O   0  0  0  0  0  0  0  0  0  0  0  0
  -28.5225  -13.9137   16.5502 O   0  0  0  0  0  0  0  0  0  0  0  0
  -25.0325  -19.6743   24.0697 O   0  0  0  0  0  0  0  0  0  0  0  0
  -27.7846  -26.0595   20.3306 O   0  0  0  0  0  0  0  0  0  1  0  0
  -21.4803  -19.8464   28.2835 F   0  0  0  0  0  0  0  0  0  0  0  0
  -25.8247  -20.5869   26.5561 F   0  0  0  0  0  0  0  0  0  0  0  0
  1  2  1  0  0  0  0
  1  5  2  0  0  0  0
  2  6  2  0  0  0  0
  3  8  2  0  0  0  0
  3 16  1  0  0  0  0
  4  9  1  0  0  0  0
  4 16  2  0  0  0  0
  5 18  1  0  0  0  0
  6 20  1  0  0  0  0
  7 10  2  0  0  0  0
  7 19  1  0  0  0  0
  8 23  1  0  0  0  0
  9 23  2  0  0  0  0
 10 24  1  0  0  0  0
 11 12  2  0  0  0  0
 11 25  1  0  0  0  0
 12 26  1  0  0  0  0
 13 21  1  0  0  0  0
 13 24  2  0  0  0  0
 14 26  2  0  0  0  0
 14 27  1  0  0  0  0
 15 22  1  0  0  0  0
 15 66  2  0  0  0  0
 16 28  1  0  0  0  0
 17 28  1  0  0  0  0
 17 30  2  0  0  0  0
 17 32  1  0  0  0  0
 18 20  2  0  0  0  0
 18 37  1  0  0  0  0
 19 21  2  0  0  0  0
 19 38  1  0  0  0  0
 20 51  1  0  0  0  0
 21 39  1  0  0  0  0
 22 29  2  0  0  0  0
 22 52  1  0  0  0  0
 23 84  1  0  0  0  0
 24 85  1  0  0  0  0
 25 27  2  0  0  0  0
 25 84  1  0  0  0  0
 26 86  1  0  0  0  0
 27 87  1  0  0  0  0
 28 67  2  0  0  0  0
 29 40  1  0  0  0  0
 29 68  1  0  0  0  0
 30 69  1  0  0  0  0
 30 73  1  0  0  0  0
 31 53  1  0  0  0  0
 31 66  1  0  0  0  0
 31 68  2  0  0  0  0
 32 74  1  0  0  0  0
 32 79  2  0  0  0  0
 33 54  1  0  0  0  0
 33 75  1  0  0  0  0
 33 80  2  0  0  0  0
 34 63  1  0  0  0  0
 34 70  1  0  0  0  0
 34 81  2  0  0  0  0
 35 64  1  0  0  0  0
 35 76  1  0  0  0  0
 35 82  2  0  0  0  0
 36 71  1  0  0  0  0
 36 72  1  0  0  0  0
 36 83  2  0  0  0  0
 37 41  1  0  0  0  0
 38 54  1  0  0  0  0
 39 70  1  0  0  0  0
 40 42  1  0  0  0  0
 41 44  1  0  0  0  0
 42 52  1  0  0  0  0
 43 45  1  0  0  0  0
 43 47  1  0  0  0  0
 44 51  1  0  0  0  0
 45 55  1  0  0  0  0
 46 48  1  0  0  0  0
 46 53  1  0  0  0  0
 47 71  1  0  0  0  0
 48 72  1  0  0  0  0
 49 53  1  0  0  0  0
 49 72  1  0  0  0  0
 50 55  1  0  0  0  0
 50 71  1  0  0  0  0
 51 75  1  0  0  0  0
 52 77  1  0  0  0  0
 54 70  1  0  0  0  0
 55 69  1  0  0  0  0
 56 64  1  0  0  0  0
 57 65  1  0  0  0  0
 58 65  1  0  0  0  0
 59 65  1  0  0  0  0
 60 78  1  0  0  0  0
 61 62  1  0  0  0  0
 61 77  1  0  0  0  0
 62 85  1  0  0  0  0
 63 65  1  0  0  0  0
 63 76  1  0  0  0  0
 64 78  1  0  0  0  0
 67 69  1  0  0  0  0
M  CHG  2  77   1  78   1
M  ISO  4  36 100  62 101  72 100  85 101
M  END
> <Batch ID>
0199

> <Smiles>
CNC(C)C(=O)NC(C(=O)N1Cc2cc([101O:1][101CH2:1]CNC3CCc4nc(C5CC[100N:0]([100C:0](=O)N6CCCC(n7nc(-c8ccc(Oc9ccc(F)cc9F)cc8)c(C(N)=O)c7N)C6)C5)ncc43)ccc2CC1C(=O)NC1CCCc2ccccc21)C(C)(C)C

> <Shape>
0.279

> <Color>
0.079

> <Negative vol penalty>
0.000

$$$$

  -OEChem-04052323503D

 88 97  0     1  0  0  0  0  0999 V2000
  -29.1224  -12.4622   20.4997 C   0  0  0  0  0  0  0  0  0  0  0  0
  -28.8936  -13.8155   20.2725 C   0  0  0  0  0  0  0  0  0  0  0  0
  -29.4304  -23.8506   18.2437 C   0  0  0  0  0  0  0  0  0  0  0  0
  -29.8148  -24.0898   20.6169 C   0  0  0  0  0  0  0  0  0  0  0  0
  -28.0452  -11.5875   20.6356 C   0  0  0  0  0  0  0  0  0  0  0  0
  -27.5874  -14.2948   20.1800 C   0  0  0  0  0  0  0  0  0  0  0  0
  -25.5230  -19.7438   22.0646 C   0  0  0  0  0  0  0  0  0  0  0  0
  -29.6779  -22.4814   18.3416 C   0  0  0  0  0  0  0  0  0  0  0  0
  -30.0623  -22.7206   20.7148 C   0  0  0  0  0  0  0  0  0  0  0  0
  -25.2755  -20.9380   21.3889 C   0  0  0  0  0  0  0  0  0  0  0  0
  -28.0135  -19.7149   19.3461 C   0  0  0  0  0  0  0  0  0  0  0  0
  -27.1402  -18.8496   18.6873 C   0  0  0  0  0  0  0  0  0  0  0  0
  -22.9498  -20.3320   21.1819 C   0  0  0  0  0  0  0  0  0  0  0  0
  -28.9781  -17.9966   17.3713 C   0  0  0  0  0  0  0  0  0  0  0  0
  -29.4990  -24.6548   19.3813 C   0  0  0  0  0  0  0  0  0  0  0  0
  -29.9482  -27.0068   18.5016 C   0  0  0  0  0  0  0  0  0  0  0  0
  -26.7250  -12.0578   20.5543 C   0  0  0  0  0  0  0  0  0  0  0  0
  -24.4860  -18.8283   22.2948 C   0  0  0  0  0  0  0  0  0  0  0  0
  -26.4915  -13.4253   20.3136 C   0  0  0  0  0  0  0  0  0  0  0  0
  -23.1861  -19.1281   21.8630 C   0  0  0  0  0  0  0  0  0  0  0  0
  -29.9938  -21.9163   19.5771 C   0  0  0  0  0  0  0  0  0  0  0  0
  -23.9894  -21.2309   20.9449 C   0  0  0  0  0  0  0  0  0  0  0  0
  -29.3692  -19.7211   19.0175 C   0  0  0  0  0  0  0  0  0  0  0  0
  -27.6225  -17.9904   17.6999 C   0  0  0  0  0  0  0  0  0  0  0  0
  -29.8514  -18.8620   18.0302 C   0  0  0  0  0  0  0  0  0  0  0  0
  -29.2440  -26.0694   19.2807 C   0  0  0  0  0  0  0  0  0  0  0  0
  -29.3207  -28.2025   18.7526 C   0  0  0  0  0  0  0  0  0  0  0  0
  -19.0302  -28.1937   23.5037 C   0  0  0  0  0  0  0  0  0  0  0  0
  -18.7585  -28.7339   24.6938 C   0  0  0  0  0  0  0  0  0  0  0  0
  -31.0694  -26.8140   17.6289 C   0  0  0  0  0  0  0  0  0  0  0  0
  -23.9117  -15.8248   21.4270 C   0  0  0  0  0  0  0  0  0  0  0  0
  -21.3771  -16.1428   23.4262 C   0  0  0  0  0  0  0  0  0  0  0  0
  -18.9153  -18.6717   24.1756 C   0  0  0  0  0  0  0  0  0  0  0  0
  -23.8069  -29.4731   20.4375 C   0  0  0  0  0  0  0  0  0  0  0  0
  -25.5934  -11.0665   20.6604 C   0  0  0  0  0  0  0  0  0  0  0  0
  -24.7640  -17.5567   23.0487 C   0  0  0  0  0  0  0  0  0  0  0  0
  -22.0342  -18.1880   22.1030 C   0  0  0  0  0  0  0  0  0  0  0  0
  -18.3402  -27.1244   22.6895 C   0  0  0  0  0  0  0  0  0  0  0  0
  -24.2371  -11.7161   20.9229 C   0  0  0  0  0  0  0  0  0  0  0  0
  -26.8331  -30.4867   22.1440 C   0  0  0  0  0  0  0  0  0  0  0  0
  -24.0268  -12.9071   19.9933 C   0  0  0  0  0  0  0  0  0  0  0  0
  -27.8646  -29.5460   21.5184 C   0  0  0  0  0  0  0  0  0  0  0  0
  -20.9724  -31.7571   21.4403 C   0  0  0  0  0  0  0  0  0  0  0  0
  -25.4947  -29.7827   22.3475 C   0  0  0  0  0  0  0  0  0  0  0  0
  -25.9532  -28.2349   20.4853 C   0  0  0  0  0  0  0  0  0  0  0  0
  -20.3313  -30.8640   22.4846 C   0  0  0  0  0  0  0  0  0  0  0  0
  -20.7482  -29.5933   20.4286 C   0  0  0  0  0  0  0  0  0  0  0  0
  -25.0888  -13.9873   20.2317 C   0  0  1  0  0  0  0  0  0  0  0  0
  -20.1356  -28.4280   22.5008 C   0  0  1  0  0  0  0  0  0  0  0  0
  -23.7358  -16.4633   22.7757 C   0  0  1  0  0  0  0  0  0  0  0  0
  -19.6140  -27.1419   21.8070 C   0  0  1  0  0  0  0  0  0  0  0  0
  -27.3215  -28.8939   20.2332 C   0  0  2  0  0  0  0  0  0  0  0  0
  -21.6995  -30.7802   20.5263 C   0  0  2  0  0  0  0  0  0  0  0  0
  -19.0174  -30.2113   26.6906 C   0  0  0  0  0  0  0  0  0  0  0  0
  -17.6128  -19.1091   26.2754 C   0  0  0  0  0  0  0  0  0  0  0  0
  -19.2359  -14.4096   22.1142 C   0  0  0  0  0  0  0  0  0  0  0  0
  -17.5059  -15.9512   23.0624 C   0  0  0  0  0  0  0  0  0  0  0  0
  -18.9991  -14.6639   24.5908 C   0  0  0  0  0  0  0  0  0  0  0  0
  -19.8469  -21.4777   24.3070 C   0  0  0  0  0  0  0  0  0  0  0  0
  -19.5864  -29.8063   25.3397 C   0  0  0  0  0  0  0  0  0  0  0  0
  -20.5191  -25.9222   21.9498 C   0  0  0  0  0  0  0  0  0  0  0  0
  -21.7576  -26.0512   21.0774 C   0  0  0  0  0  0  0  0  0  0  0  0
  -23.7973  -24.7983   20.3641 C   0  0  0  0  0  0  0  0  0  0  0  0
  -24.5639  -23.5155   20.6187 C   0  0  0  0  0  0  0  0  0  1  0  0
  -19.9474  -16.6033   23.2750 C   0  0  1  0  0  0  0  0  0  0  0  0
  -18.8228  -19.5027   25.4425 C   0  0  2  0  0  0  0  0  0  0  0  0
  -18.9428  -15.4170   23.2439 C   0  0  0  0  0  0  0  0  0  0  0  0
  -28.2456  -26.6220   19.9748 N   0  0  0  0  0  0  0  0  0  0  0  0
  -28.3180  -27.9197   19.6328 N   0  0  0  0  0  0  0  0  0  0  0  0
  -22.3578  -16.9547   22.8391 N   0  0  0  0  0  0  0  0  0  0  0  0
  -25.0244  -29.2001   21.0828 N   0  0  0  0  0  0  0  0  0  0  0  0
  -29.5343  -29.4577   18.3041 N   0  0  0  0  0  0  0  0  0  0  0  0
  -32.3598  -26.9296   18.1635 N   0  0  0  0  0  0  0  0  0  0  0  0
  -24.7775  -14.7479   21.4229 N   0  0  0  0  0  0  0  0  0  0  0  0
  -19.7103  -17.5589   24.3515 N   0  0  0  0  0  0  0  0  0  0  0  0
  -22.9814  -30.3932   21.0722 N   0  0  0  0  0  0  0  0  0  0  0  0
  -19.9178  -29.6501   21.6916 N   0  3  1  0  0  0  0  0  0  0  0  0
  -18.7107  -20.9501   25.1056 N   0  3  0  0  0  0  0  0  0  0  0  0
  -22.5824  -24.8207   21.2172 N   0  3  0  0  0  0  0  0  0  0  0  0
  -30.9310  -26.5634   16.4076 O   0  0  0  0  0  0  0  0  0  0  0  0
  -23.3056  -16.2750   20.4617 O   0  0  0  0  0  0  0  0  0  0  0  0
  -21.6154  -15.1048   24.0486 O   0  0  0  0  0  0  0  0  0  0  0  0
  -18.3368  -18.9769   23.1350 O   0  0  0  0  0  0  0  0  0  0  0  0
  -23.4815  -28.9403   19.3710 O   0  0  0  0  0  0  0  0  0  0  0  0
  -30.2351  -20.5803   19.6731 O   0  0  0  0  0  0  0  0  0  0  0  0
  -23.7453  -22.3955   20.2845 O   0  0  0  0  0  0  0  0  0  1  0  0
  -26.7840  -17.1584   17.0684 F   0  0  0  0  0  0  0  0  0  0  0  0
  -31.1530  -18.8626   17.7110 F   0  0  0  0  0  0  0  0  0  0  0  0
  1  2  1  0  0  0  0
  1  5  2  0  0  0  0
  2  6  2  0  0  0  0
  3  8  2  0  0  0  0
  3 15  1  0  0  0  0
  4  9  1  0  0  0  0
  4 15  2  0  0  0  0
  5 17  1  0  0  0  0
  6 19  1  0  0  0  0
  7 10  2  0  0  0  0
  7 18  1  0  0  0  0
  8 21  1  0  0  0  0
  9 21  2  0  0  0  0
 10 22  1  0  0  0  0
 11 12  2  0  0  0  0
 11 23  1  0  0  0  0
 12 24  1  0  0  0  0
 13 20  1  0  0  0  0
 13 22  2  0  0  0  0
 14 24  2  0  0  0  0
 14 25  1  0  0  0  0
 15 26  1  0  0  0  0
 16 26  1  0  0  0  0
 16 27  2  0  0  0  0
 16 30  1  0  0  0  0
 17 19  2  0  0  0  0
 17 35  1  0  0  0  0
 18 20  2  0  0  0  0
 18 36  1  0  0  0  0
 19 48  1  0  0  0  0
 20 37  1  0  0  0  0
 21 85  1  0  0  0  0
 22 86  1  0  0  0  0
 23 25  2  0  0  0  0
 23 85  1  0  0  0  0
 24 87  1  0  0  0  0
 25 88  1  0  0  0  0
 26 68  2  0  0  0  0
 27 69  1  0  0  0  0
 27 72  1  0  0  0  0
 28 29  2  0  0  0  0
 28 38  1  0  0  0  0
 28 49  1  0  0  0  0
 29 60  1  0  0  0  0
 30 73  1  0  0  0  0
 30 80  2  0  0  0  0
 31 50  1  0  0  0  0
 31 74  1  0  0  0  0
 31 81  2  0  0  0  0
 32 65  1  0  0  0  0
 32 70  1  0  0  0  0
 32 82  2  0  0  0  0
 33 66  1  0  0  0  0
 33 75  1  0  0  0  0
 33 83  2  0  0  0  0
 34 71  1  0  0  0  0
 34 76  1  0  0  0  0
 34 84  2  0  0  0  0
 35 39  1  0  0  0  0
 36 50  1  0  0  0  0
 37 70  1  0  0  0  0
 38 51  1  0  0  0  0
 39 41  1  0  0  0  0
 40 42  1  0  0  0  0
 40 44  1  0  0  0  0
 41 48  1  0  0  0  0
 42 52  1  0  0  0  0
 43 46  1  0  0  0  0
 43 53  1  0  0  0  0
 44 71  1  0  0  0  0
 45 52  1  0  0  0  0
 45 71  1  0  0  0  0
 46 77  1  0  0  0  0
 47 53  1  0  0  0  0
 47 77  1  0  0  0  0
 48 74  1  0  0  0  0
 49 51  1  0  0  0  0
 49 77  1  0  0  0  0
 50 70  1  0  0  0  0
 51 61  1  0  0  0  0
 52 69  1  0  0  0  0
 53 76  1  0  0  0  0
 54 60  1  0  0  0  0
 55 66  1  0  0  0  0
 56 67  1  0  0  0  0
 57 67  1  0  0  0  0
 58 67  1  0  0  0  0
 59 78  1  0  0  0  0
 61 62  1  0  0  0  0
 62 79  1  0  0  0  0
 63 64  1  0  0  0  0
 63 79  1  0  0  0  0
 64 86  1  0  0  0  0
 65 67  1  0  0  0  0
 65 75  1  0  0  0  0
 66 78  1  0  0  0  0
 68 69  1  0  0  0  0
M  CHG  3  77   1  78   1  79   1
M  ISO  4  34 100  64 101  76 100  86 101
M  END
> <Batch ID>
0199

> <Smiles>
CCC=C1CC(CCNC[101CH2:1][101O:1]c2ccc3c(c2)CN(C(=O)C(NC(=O)C(C)NC)C(C)(C)C)C(C(=O)NC2CCCc4ccccc42)C3)C1N1CCC([100NH:0][100C:0](=O)N2CCCC(n3nc(-c4ccc(Oc5ccc(F)cc5F)cc4)c(C(N)=O)c3N)C2)C1

> <Shape>
0.244

> <Color>
0.068

> <Negative vol penalty>
0.000

$$$$

  -OEChem-04052323503D

 88 98  0     1  0  0  0  0  0999 V2000
  -34.0888   -9.8585   18.6016 C   0  0  0  0  0  0  0  0  0  0  0  0
  -33.9265  -11.2375   18.6871 C   0  0  0  0  0  0  0  0  0  0  0  0
  -25.8156  -30.6694   26.2691 C   0  0  0  0  0  0  0  0  0  0  0  0
  -27.8486  -30.1584   25.0680 C   0  0  0  0  0  0  0  0  0  0  0  0
  -33.0136   -9.0529   18.2288 C   0  0  0  0  0  0  0  0  0  0  0  0
  -32.6890  -11.8119   18.3986 C   0  0  0  0  0  0  0  0  0  0  0  0
  -30.2038  -16.7337   21.0644 C   0  0  0  0  0  0  0  0  0  0  0  0
  -26.1245  -29.6871   27.2099 C   0  0  0  0  0  0  0  0  0  0  0  0
  -28.1575  -29.1760   26.0089 C   0  0  0  0  0  0  0  0  0  0  0  0
  -30.1401  -18.0739   20.6855 C   0  0  0  0  0  0  0  0  0  0  0  0
  -29.3035  -26.2880   27.8946 C   0  0  0  0  0  0  0  0  0  0  0  0
  -29.7534  -25.0555   27.4213 C   0  0  0  0  0  0  0  0  0  0  0  0
  -27.9483  -17.6990   19.7503 C   0  0  0  0  0  0  0  0  0  0  0  0
  -27.6812  -24.7626   26.2141 C   0  0  0  0  0  0  0  0  0  0  0  0
  -26.6776  -30.9050   25.1980 C   0  0  0  0  0  0  0  0  0  0  0  0
  -26.7234  -33.2784   24.2639 C   0  0  0  0  0  0  0  0  0  0  0  0
  -31.7598   -9.6168   17.9450 C   0  0  0  0  0  0  0  0  0  0  0  0
  -29.1430  -15.8621   20.7789 C   0  0  0  0  0  0  0  0  0  0  0  0
  -31.5964  -11.0133   18.0204 C   0  0  0  0  0  0  0  0  0  0  0  0
  -27.9999  -16.3488   20.1290 C   0  0  0  0  0  0  0  0  0  0  0  0
  -27.2955  -28.9404   27.0799 C   0  0  0  0  0  0  0  0  0  0  0  0
  -29.0135  -18.5561   20.0258 C   0  0  0  0  0  0  0  0  0  0  0  0
  -28.0423  -26.7578   27.5278 C   0  0  0  0  0  0  0  0  0  0  0  0
  -28.9423  -24.2928   26.5810 C   0  0  0  0  0  0  0  0  0  0  0  0
  -27.2312  -25.9951   26.6875 C   0  0  0  0  0  0  0  0  0  0  0  0
  -26.3588  -31.9192   24.2255 C   0  0  0  0  0  0  0  0  0  0  0  0
  -29.8342  -22.0753   19.5728 C   0  0  0  0  0  0  0  0  0  0  0  0
  -29.5308  -23.1552   20.3681 C   0  0  0  0  0  0  0  0  0  0  0  0
  -26.1823  -33.8115   23.1195 C   0  0  0  0  0  0  0  0  0  0  0  0
  -29.6331  -23.7238   18.2414 C   0  0  0  0  0  0  0  0  0  0  0  0
  -27.4832  -33.9950   25.2461 C   0  0  0  0  0  0  0  0  0  0  0  0
  -28.8150  -13.2221   19.0393 C   0  0  0  0  0  0  0  0  0  0  0  0
  -25.8478  -13.1947   20.3496 C   0  0  0  0  0  0  0  0  0  0  0  0
  -23.3018  -14.9501   21.7930 C   0  0  0  0  0  0  0  0  0  0  0  0
  -24.1561  -29.1772   20.9144 C   0  0  0  0  0  0  0  0  0  0  0  0
  -30.6398   -8.7099   17.5003 C   0  0  0  0  0  0  0  0  0  0  0  0
  -29.2160  -14.4253   21.2181 C   0  0  0  0  0  0  0  0  0  0  0  0
  -26.8255  -15.4588   19.8172 C   0  0  0  0  0  0  0  0  0  0  0  0
  -29.2617   -9.3624   17.5748 C   0  0  0  0  0  0  0  0  0  0  0  0
  -22.4145  -32.1642   21.8135 C   0  0  0  0  0  0  0  0  0  0  0  0
  -29.2998  -10.7612   16.9677 C   0  0  0  0  0  0  0  0  0  0  0  0
  -28.2592  -24.7836   16.2764 C   0  0  0  0  0  0  0  0  0  0  0  0
  -29.2756  -23.8817   15.6488 C   0  0  0  0  0  0  0  0  0  0  0  0
  -23.3372  -33.2991   21.3830 C   0  0  0  0  0  0  0  0  0  0  0  0
  -27.2056  -28.1177   19.2667 C   0  0  0  0  0  0  0  0  0  0  0  0
  -22.4978  -31.0044   20.8333 C   0  0  0  0  0  0  0  0  0  0  0  0
  -26.4328  -29.3197   19.7889 C   0  0  0  0  0  0  0  0  0  0  0  0
  -24.8683  -31.5490   20.3138 C   0  0  0  0  0  0  0  0  0  0  0  0
  -30.2630  -11.6714   17.7393 C   0  0  1  0  0  0  0  0  0  0  0  0
  -29.5910  -24.5669   16.9601 C   0  0  0  0  0  0  0  0  0  0  0  0
  -28.2944  -13.5088   20.4192 C   0  0  1  0  0  0  0  0  0  0  0  0
  -27.2810  -27.2147   20.4979 C   0  0  1  0  0  0  0  0  0  0  0  0
  -24.7865  -32.8324   21.1722 C   0  0  2  0  0  0  0  0  0  0  0  0
  -25.8950  -27.3997   21.1411 C   0  0  1  0  0  0  0  0  0  0  0  0
  -29.3541  -23.2832   21.8257 C   0  0  0  0  0  0  0  0  0  0  0  0
  -25.9417  -27.2416   22.6575 C   0  0  0  0  0  0  0  0  0  0  0  0
  -20.9889  -14.6608   22.7228 C   0  0  0  0  0  0  0  0  0  0  0  0
  -24.7339  -13.0103   17.5150 C   0  0  0  0  0  0  0  0  0  0  0  0
  -22.4985  -13.6761   18.4247 C   0  0  0  0  0  0  0  0  0  0  0  0
  -23.5734  -11.5585   19.1883 C   0  0  0  0  0  0  0  0  0  0  0  0
  -24.1415  -15.8665   24.4789 C   0  0  0  0  0  0  0  0  0  0  0  0
  -30.0791  -20.6816   19.9766 C   0  0  0  0  0  0  0  0  0  1  0  0
  -27.5983  -25.7699   20.1464 C   0  0  0  0  0  0  0  0  0  0  0  0
  -29.0846  -25.5836   19.8512 C   0  0  0  0  0  0  0  0  0  0  0  0
  -24.5064  -13.7743   19.9706 C   0  0  1  0  0  0  0  0  0  0  0  0
  -22.4762  -14.6862   23.0393 C   0  0  2  0  0  0  0  0  0  0  0  0
  -23.8508  -13.0214   18.7787 C   0  0  0  0  0  0  0  0  0  0  0  0
  -25.6414  -31.6082   23.1426 N   0  0  0  0  0  0  0  0  0  0  0  0
  -29.8967  -22.4360   18.2501 N   0  0  0  0  0  0  0  0  0  0  0  0
  -29.4054  -24.2039   19.5011 N   0  0  0  0  0  0  0  0  0  0  0  0
  -25.5508  -32.7795   22.4900 N   0  0  0  0  0  0  0  0  0  0  0  0
  -26.9472  -14.0604   20.2613 N   0  0  0  0  0  0  0  0  0  0  0  0
  -23.8708  -30.5279   20.6651 N   0  0  0  0  0  0  0  0  0  0  0  0
  -25.4738  -28.7485   20.7361 N   0  0  0  0  0  0  0  0  0  0  0  0
  -26.1898  -35.0577   22.6005 N   0  0  0  0  0  0  0  0  0  0  0  0
  -27.9645  -33.2941   26.3604 N   0  0  0  0  0  0  0  0  0  0  0  0
  -29.6525  -12.1251   18.9706 N   0  0  0  0  0  0  0  0  0  0  0  0
  -23.7041  -13.7776   21.1892 N   0  0  0  0  0  0  0  0  0  0  0  0
  -22.7220  -15.7463   24.0575 N   0  3  0  0  0  0  0  0  0  0  0  0
  -27.7143  -35.2239   25.1471 O   0  0  0  0  0  0  0  0  0  0  0  0
  -28.4805  -13.9419   18.1056 O   0  0  0  0  0  0  0  0  0  0  0  0
  -25.9166  -12.0193   20.7175 O   0  0  0  0  0  0  0  0  0  0  0  0
  -23.5605  -16.0830   21.3929 O   0  0  0  0  0  0  0  0  0  0  0  0
  -23.2720  -28.3874   21.2717 O   0  0  0  0  0  0  0  0  0  0  0  0
  -27.5973  -27.9820   27.9979 O   0  0  0  0  0  0  0  0  0  0  0  0
  -28.9487  -19.8697   19.6525 O   0  0  0  0  0  0  0  0  0  1  0  0
  -29.3752  -23.1100   26.1252 F   0  0  0  0  0  0  0  0  0  0  0  0
  -26.0192  -26.4417   26.3306 F   0  0  0  0  0  0  0  0  0  0  0  0
  1  2  1  0  0  0  0
  1  5  2  0  0  0  0
  2  6  2  0  0  0  0
  3  8  2  0  0  0  0
  3 15  1  0  0  0  0
  4  9  1  0  0  0  0
  4 15  2  0  0  0  0
  5 17  1  0  0  0  0
  6 19  1  0  0  0  0
  7 10  2  0  0  0  0
  7 18  1  0  0  0  0
  8 21  1  0  0  0  0
  9 21  2  0  0  0  0
 10 22  1  0  0  0  0
 11 12  2  0  0  0  0
 11 23  1  0  0  0  0
 12 24  1  0  0  0  0
 13 20  1  0  0  0  0
 13 22  2  0  0  0  0
 14 24  2  0  0  0  0
 14 25  1  0  0  0  0
 15 26  1  0  0  0  0
 16 26  1  0  0  0  0
 16 29  2  0  0  0  0
 16 31  1  0  0  0  0
 17 19  2  0  0  0  0
 17 36  1  0  0  0  0
 18 20  2  0  0  0  0
 18 37  1  0  0  0  0
 19 49  1  0  0  0  0
 20 38  1  0  0  0  0
 21 85  1  0  0  0  0
 22 86  1  0  0  0  0
 23 25  2  0  0  0  0
 23 85  1  0  0  0  0
 24 87  1  0  0  0  0
 25 88  1  0  0  0  0
 26 68  2  0  0  0  0
 27 28  2  0  0  0  0
 27 62  1  0  0  0  0
 27 69  1  0  0  0  0
 28 55  1  0  0  0  0
 28 70  1  0  0  0  0
 29 71  1  0  0  0  0
 29 75  1  0  0  0  0
 30 50  1  0  0  0  0
 30 69  2  0  0  0  0
 30 70  1  0  0  0  0
 31 76  1  0  0  0  0
 31 80  2  0  0  0  0
 32 51  1  0  0  0  0
 32 77  1  0  0  0  0
 32 81  2  0  0  0  0
 33 65  1  0  0  0  0
 33 72  1  0  0  0  0
 33 82  2  0  0  0  0
 34 66  1  0  0  0  0
 34 78  1  0  0  0  0
 34 83  2  0  0  0  0
 35 73  1  0  0  0  0
 35 74  1  0  0  0  0
 35 84  2  0  0  0  0
 36 39  1  0  0  0  0
 37 51  1  0  0  0  0
 38 72  1  0  0  0  0
 39 41  1  0  0  0  0
 40 44  1  0  0  0  0
 40 46  1  0  0  0  0
 41 49  1  0  0  0  0
 42 43  1  0  0  0  0
 42 50  1  0  0  0  0
 43 50  1  0  0  0  0
 44 53  1  0  0  0  0
 45 47  1  0  0  0  0
 45 52  1  0  0  0  0
 46 73  1  0  0  0  0
 47 74  1  0  0  0  0
 48 53  1  0  0  0  0
 48 73  1  0  0  0  0
 49 77  1  0  0  0  0
 51 72  1  0  0  0  0
 52 54  1  0  0  0  0
 52 63  1  0  0  0  0
 53 71  1  0  0  0  0
 54 56  1  0  0  0  0
 54 74  1  0  0  0  0
 57 66  1  0  0  0  0
 58 67  1  0  0  0  0
 59 67  1  0  0  0  0
 60 67  1  0  0  0  0
 61 79  1  0  0  0  0
 62 86  1  0  0  0  0
 63 64  1  0  0  0  0
 64 70  1  0  0  0  0
 65 67  1  0  0  0  0
 65 78  1  0  0  0  0
 66 79  1  0  0  0  0
 68 71  1  0  0  0  0
M  CHG  1  79   1
M  ISO  4  35 100  62 101  74 100  86 101
M  END
> <Batch ID>
0199

> <Smiles>
CNC(C)C(=O)NC(C(=O)N1Cc2cc([101O:1][101CH2:1]c3nc(C4CC4)n(CCC4CC[100N:0]([100C:0](=O)N5CCCC(n6nc(-c7ccc(Oc8ccc(F)cc8F)cc7)c(C(N)=O)c6N)C5)C4C)c3C)ccc2CC1C(=O)NC1CCCc2ccccc21)C(C)(C)C

> <Shape>
0.293

> <Color>
0.064

> <Negative vol penalty>
0.000

$$$$

  -OEChem-04052323503D

 81 90  0     1  0  0  0  0  0999 V2000
  -32.1571  -13.6701   21.2080 C   0  0  0  0  0  0  0  0  0  0  0  0
  -31.4703  -14.8683   21.3756 C   0  0  0  0  0  0  0  0  0  0  0  0
  -29.7965  -23.6818   21.0144 C   0  0  0  0  0  0  0  0  0  0  0  0
  -29.2411  -23.6312   18.6637 C   0  0  0  0  0  0  0  0  0  0  0  0
  -31.5216  -12.5809   20.6133 C   0  0  0  0  0  0  0  0  0  0  0  0
  -30.1477  -14.9782   20.9476 C   0  0  0  0  0  0  0  0  0  0  0  0
  -27.1876  -17.2744   24.3551 C   0  0  0  0  0  0  0  0  0  0  0  0
  -29.9575  -22.2963   21.0063 C   0  0  0  0  0  0  0  0  0  0  0  0
  -29.4021  -22.2457   18.6555 C   0  0  0  0  0  0  0  0  0  0  0  0
  -27.2693  -18.6638   24.4360 C   0  0  0  0  0  0  0  0  0  0  0  0
  -29.3152  -18.6552   18.0980 C   0  0  0  0  0  0  0  0  0  0  0  0
  -28.3465  -17.8937   17.4444 C   0  0  0  0  0  0  0  0  0  0  0  0
  -25.2617  -18.8530   23.1120 C   0  0  0  0  0  0  0  0  0  0  0  0
  -26.6566  -18.7627   18.9365 C   0  0  0  0  0  0  0  0  0  0  0  0
  -29.4383  -24.3493   19.8431 C   0  0  0  0  0  0  0  0  0  0  0  0
  -30.2571  -26.7527   19.5970 C   0  0  0  0  0  0  0  0  0  0  0  0
  -30.1875  -12.6746   20.1865 C   0  0  0  0  0  0  0  0  0  0  0  0
  -26.1467  -16.6630   23.6416 C   0  0  0  0  0  0  0  0  0  0  0  0
  -29.4942  -13.8897   20.3454 C   0  0  0  0  0  0  0  0  0  0  0  0
  -25.1676  -17.4556   23.0257 C   0  0  0  0  0  0  0  0  0  0  0  0
  -29.7603  -21.5782   19.8268 C   0  0  0  0  0  0  0  0  0  0  0  0
  -26.3079  -19.4534   23.8121 C   0  0  0  0  0  0  0  0  0  0  0  0
  -28.9548  -19.4704   19.1710 C   0  0  0  0  0  0  0  0  0  0  0  0
  -27.0172  -17.9475   17.8636 C   0  0  0  0  0  0  0  0  0  0  0  0
  -27.6255  -19.5242   19.5902 C   0  0  0  0  0  0  0  0  0  0  0  0
  -29.2712  -25.7804   19.8511 C   0  0  0  0  0  0  0  0  0  0  0  0
  -29.5986  -27.9512   19.7259 C   0  0  0  0  0  0  0  0  0  0  0  0
  -31.6440  -26.5874   19.2733 C   0  0  0  0  0  0  0  0  0  0  0  0
  -25.9838  -14.7638   21.0979 C   0  0  0  0  0  0  0  0  0  0  0  0
  -22.8338  -14.6568   21.8646 C   0  0  0  0  0  0  0  0  0  0  0  0
  -20.1757  -16.1394   23.4085 C   0  0  0  0  0  0  0  0  0  0  0  0
  -24.6814  -29.5688   22.7255 C   0  0  0  0  0  0  0  0  0  0  0  0
  -29.5578  -11.4850   19.5061 C   0  0  0  0  0  0  0  0  0  0  0  0
  -26.0577  -15.1625   23.5862 C   0  0  0  0  0  0  0  0  0  0  0  0
  -24.0187  -16.8480   22.2646 C   0  0  0  0  0  0  0  0  0  0  0  0
  -28.0359  -11.5675   19.4203 C   0  0  0  0  0  0  0  0  0  0  0  0
  -25.2915  -29.9414   19.2662 C   0  0  0  0  0  0  0  0  0  0  0  0
  -27.6025  -12.9482   18.9379 C   0  0  0  0  0  0  0  0  0  0  0  0
  -26.4480  -28.9868   18.9827 C   0  0  0  0  0  0  0  0  0  0  0  0
  -24.5041  -28.2540   26.1806 C   0  0  0  0  0  0  0  0  0  0  0  0
  -26.2136  -22.9033   25.3286 C   0  0  0  0  0  0  0  0  0  0  0  0
  -24.3441  -22.1089   24.6723 C   0  0  0  0  0  0  0  0  0  0  0  0
  -24.3360  -29.3440   20.2904 C   0  0  0  0  0  0  0  0  0  0  0  0
  -24.3817  -29.3897   25.1766 C   0  0  0  0  0  0  0  0  0  0  0  0
  -24.9295  -27.3630   24.0137 C   0  0  0  0  0  0  0  0  0  0  0  0
  -26.1748  -28.0504   21.3368 C   0  0  0  0  0  0  0  0  0  0  0  0
  -28.0507  -14.0403   19.9166 C   0  0  1  0  0  0  0  0  0  0  0  0
  -25.2426  -14.6557   22.4004 C   0  0  1  0  0  0  0  0  0  0  0  0
  -24.2242  -27.0178   25.3252 C   0  0  1  0  0  0  0  0  0  0  0  0
  -27.1626  -28.5996   20.2868 C   0  0  1  0  0  0  0  0  0  0  0  0
  -24.7415  -23.2765   25.5982 C   0  0  0  0  0  0  0  0  0  0  0  0
  -25.7213  -21.4767   24.9873 C   0  0  0  0  0  0  0  0  0  1  0  0
  -17.7214  -15.8326   23.8321 C   0  0  0  0  0  0  0  0  0  0  0  0
  -22.2349  -15.5054   18.9956 C   0  0  0  0  0  0  0  0  0  0  0  0
  -19.9149  -16.0958   19.7283 C   0  0  0  0  0  0  0  0  0  0  0  0
  -20.7133  -13.7388   19.9001 C   0  0  0  0  0  0  0  0  0  0  0  0
  -20.5737  -16.0581   26.3400 C   0  0  0  0  0  0  0  0  0  0  0  0
  -24.7199  -25.7284   25.9551 C   0  0  0  0  0  0  0  0  0  0  0  0
  -21.6169  -15.4734   21.5022 C   0  0  1  0  0  0  0  0  0  0  0  0
  -19.1273  -15.5892   24.3584 C   0  0  2  0  0  0  0  0  0  0  0  0
  -21.1426  -15.2151   20.0442 C   0  0  0  0  0  0  0  0  0  0  0  0
  -28.0773  -26.3149   20.1211 N   0  0  0  0  0  0  0  0  0  0  0  0
  -28.3087  -27.6361   20.0375 N   0  0  0  0  0  0  0  0  0  0  0  0
  -23.9790  -15.3766   22.2337 N   0  0  0  0  0  0  0  0  0  0  0  0
  -25.0303  -28.9527   21.5186 N   0  0  0  0  0  0  0  0  0  0  0  0
  -24.7783  -28.8154   23.8947 N   0  0  0  0  0  0  0  0  0  0  0  0
  -30.0029  -29.2332   19.6020 N   0  0  0  0  0  0  0  0  0  0  0  0
  -32.1580  -25.2868   19.1807 N   0  0  0  0  0  0  0  0  0  0  0  0
  -27.1797  -14.0720   21.0720 N   0  0  0  0  0  0  0  0  0  0  0  0
  -20.6116  -15.1809   22.5182 N   0  0  0  0  0  0  0  0  0  0  0  0
  -24.3659  -24.5933   25.0740 N   0  3  0  0  0  0  0  0  0  0  0  0
  -19.2477  -16.2378   25.6948 N   0  3  0  0  0  0  0  0  0  0  0  0
  -32.4087  -27.5644   19.0884 O   0  0  0  0  0  0  0  0  0  0  0  0
  -25.5054  -15.4247   20.1835 O   0  0  0  0  0  0  0  0  0  0  0  0
  -22.7684  -13.4255   21.8287 O   0  0  0  0  0  0  0  0  0  0  0  0
  -20.5661  -17.3041   23.4495 O   0  0  0  0  0  0  0  0  0  0  0  0
  -24.2591  -30.7327   22.7545 O   0  0  0  0  0  0  0  0  0  0  0  0
  -29.9176  -20.2263   19.8184 O   0  0  0  0  0  0  0  0  0  0  0  0
  -26.3868  -20.8293   23.8901 O   0  0  0  0  0  0  0  0  0  1  0  0
  -26.0867  -17.2175   17.2348 F   0  0  0  0  0  0  0  0  0  0  0  0
  -27.2729  -20.3063   20.6196 F   0  0  0  0  0  0  0  0  0  0  0  0
  1  2  1  0  0  0  0
  1  5  2  0  0  0  0
  2  6  2  0  0  0  0
  3  8  2  0  0  0  0
  3 15  1  0  0  0  0
  4  9  1  0  0  0  0
  4 15  2  0  0  0  0
  5 17  1  0  0  0  0
  6 19  1  0  0  0  0
  7 10  2  0  0  0  0
  7 18  1  0  0  0  0
  8 21  1  0  0  0  0
  9 21  2  0  0  0  0
 10 22  1  0  0  0  0
 11 12  2  0  0  0  0
 11 23  1  0  0  0  0
 12 24  1  0  0  0  0
 13 20  1  0  0  0  0
 13 22  2  0  0  0  0
 14 24  2  0  0  0  0
 14 25  1  0  0  0  0
 15 26  1  0  0  0  0
 16 26  1  0  0  0  0
 16 27  2  0  0  0  0
 16 28  1  0  0  0  0
 17 19  2  0  0  0  0
 17 33  1  0  0  0  0
 18 20  2  0  0  0  0
 18 34  1  0  0  0  0
 19 47  1  0  0  0  0
 20 35  1  0  0  0  0
 21 78  1  0  0  0  0
 22 79  1  0  0  0  0
 23 25  2  0  0  0  0
 23 78  1  0  0  0  0
 24 80  1  0  0  0  0
 25 81  1  0  0  0  0
 26 62  2  0  0  0  0
 27 63  1  0  0  0  0
 27 67  1  0  0  0  0
 28 68  1  0  0  0  0
 28 73  2  0  0  0  0
 29 48  1  0  0  0  0
 29 69  1  0  0  0  0
 29 74  2  0  0  0  0
 30 59  1  0  0  0  0
 30 64  1  0  0  0  0
 30 75  2  0  0  0  0
 31 60  1  0  0  0  0
 31 70  1  0  0  0  0
 31 76  2  0  0  0  0
 32 65  1  0  0  0  0
 32 66  1  0  0  0  0
 32 77  2  0  0  0  0
 33 36  1  0  0  0  0
 34 48  1  0  0  0  0
 35 64  1  0  0  0  0
 36 38  1  0  0  0  0
 37 39  1  0  0  0  0
 37 43  1  0  0  0  0
 38 47  1  0  0  0  0
 39 50  1  0  0  0  0
 40 44  1  0  0  0  0
 40 49  1  0  0  0  0
 41 51  1  0  0  0  0
 41 52  1  0  0  0  0
 42 51  1  0  0  0  0
 42 52  1  0  0  0  0
 43 65  1  0  0  0  0
 44 66  1  0  0  0  0
 45 49  1  0  0  0  0
 45 66  1  0  0  0  0
 46 50  1  0  0  0  0
 46 65  1  0  0  0  0
 47 69  1  0  0  0  0
 48 64  1  0  0  0  0
 49 58  1  0  0  0  0
 50 63  1  0  0  0  0
 51 71  1  0  0  0  0
 52 79  1  0  0  0  0
 53 60  1  0  0  0  0
 54 61  1  0  0  0  0
 55 61  1  0  0  0  0
 56 61  1  0  0  0  0
 57 72  1  0  0  0  0
 58 71  1  0  0  0  0
 59 61  1  0  0  0  0
 59 70  1  0  0  0  0
 60 72  1  0  0  0  0
 62 63  1  0  0  0  0
M  CHG  2  71   1  72   1
M  ISO  4  32 100  52 101  66 100  79 101
M  END
> <Batch ID>
0199

> <Smiles>
CNC(C)C(=O)NC(C(=O)N1Cc2cc([101O:1][101CH:1]3CC(NCC4CC[100N:0]([100C:0](=O)N5CCCC(n6nc(-c7ccc(Oc8ccc(F)cc8F)cc7)c(C(N)=O)c6N)C5)C4)C3)ccc2CC1C(=O)NC1CCCc2ccccc21)C(C)(C)C

> <Shape>
0.215

> <Color>
0.076

> <Negative vol penalty>
0.000

$$$$

  -OEChem-04052323503D

 95106  0     1  0  0  0  0  0999 V2000
  -33.1384  -24.9346   25.7497 C   0  0  0  0  0  0  0  0  0  0  0  0
  -31.8372  -24.9349   25.2576 C   0  0  0  0  0  0  0  0  0  0  0  0
  -27.0904  -28.4453   19.3272 C   0  0  0  0  0  0  0  0  0  0  0  0
  -25.5750  -27.5501   20.9822 C   0  0  0  0  0  0  0  0  0  0  0  0
  -34.1482  -24.2786   25.0469 C   0  0  0  0  0  0  0  0  0  0  0  0
  -31.5451  -24.2799   24.0616 C   0  0  0  0  0  0  0  0  0  0  0  0
  -27.3202  -21.5028   24.3490 C   0  0  0  0  0  0  0  0  0  0  0  0
  -26.9169  -29.7229   19.8593 C   0  0  0  0  0  0  0  0  0  0  0  0
  -25.4015  -28.8277   21.5144 C   0  0  0  0  0  0  0  0  0  0  0  0
  -26.1053  -22.1815   24.2656 C   0  0  0  0  0  0  0  0  0  0  0  0
  -27.0950  -30.9274   23.5501 C   0  0  0  0  0  0  0  0  0  0  0  0
  -27.1393  -31.0613   24.9377 C   0  0  0  0  0  0  0  0  0  0  0  0
  -25.9197  -21.5518   21.9443 C   0  0  0  0  0  0  0  0  0  0  0  0
  -24.8849  -31.9300   24.9258 C   0  0  0  0  0  0  0  0  0  0  0  0
  -18.4709  -19.6397   18.2888 C   0  0  0  0  0  0  0  0  0  0  0  0
  -17.1307  -20.2242   20.0471 C   0  0  0  0  0  0  0  0  0  0  0  0
  -22.2111  -25.5059   23.6411 C   0  0  0  0  0  0  0  0  0  0  0  0
  -26.4194  -27.3589   19.8886 C   0  0  0  0  0  0  0  0  0  0  0  0
  -27.8023  -25.3179   19.2330 C   0  0  0  0  0  0  0  0  0  0  0  0
  -33.8665  -23.6071   23.8467 C   0  0  0  0  0  0  0  0  0  0  0  0
  -27.8503  -20.8516   23.2259 C   0  0  0  0  0  0  0  0  0  0  0  0
  -32.5523  -23.6155   23.3414 C   0  0  0  0  0  0  0  0  0  0  0  0
  -27.1403  -20.8634   22.0168 C   0  0  0  0  0  0  0  0  0  0  0  0
  -20.8698  -25.6336   23.3746 C   0  0  0  0  0  0  0  0  0  0  0  0
  -26.0725  -29.9142   20.9529 C   0  0  0  0  0  0  0  0  0  0  0  0
  -25.4062  -22.2085   23.0624 C   0  0  0  0  0  0  0  0  0  0  0  0
  -25.9457  -31.2949   22.8502 C   0  0  0  0  0  0  0  0  0  0  0  0
  -26.0342  -31.5626   25.6256 C   0  0  0  0  0  0  0  0  0  0  0  0
  -24.8407  -31.7962   23.5381 C   0  0  0  0  0  0  0  0  0  0  0  0
  -26.5978  -26.0390   19.3390 C   0  0  0  0  0  0  0  0  0  0  0  0
  -20.3721  -24.3181   23.4354 C   0  0  0  0  0  0  0  0  0  0  0  0
  -19.5421  -19.5168   19.1461 C   0  0  0  0  0  0  0  0  0  0  0  0
  -18.2016  -20.1006   20.9046 C   0  0  0  0  0  0  0  0  0  0  0  0
  -27.4406  -24.1296   18.6468 C   0  0  0  0  0  0  0  0  0  0  0  0
  -29.1293  -25.6890   19.6292 C   0  0  0  0  0  0  0  0  0  0  0  0
  -30.4963  -21.1644   21.4926 C   0  0  0  0  0  0  0  0  0  0  0  0
  -29.3867  -18.4912   20.0281 C   0  0  0  0  0  0  0  0  0  0  0  0
  -26.7180  -16.5161   19.2381 C   0  0  0  0  0  0  0  0  0  0  0  0
  -22.3463  -21.1610   18.5949 C   0  0  0  0  0  0  0  0  0  0  0  0
  -35.0001  -22.9522   23.0980 C   0  0  0  0  0  0  0  0  0  0  0  0
  -29.1490  -20.1013   23.3393 C   0  0  0  0  0  0  0  0  0  0  0  0
  -27.6563  -20.1629   20.7873 C   0  0  0  0  0  0  0  0  0  0  0  0
  -34.5352  -21.9642   22.0313 C   0  0  0  0  0  0  0  0  0  0  0  0
  -24.1873  -22.2558   15.6790 C   0  0  0  0  0  0  0  0  0  0  0  0
  -33.4141  -22.5713   21.1937 C   0  0  0  0  0  0  0  0  0  0  0  0
  -25.1354  -23.2887   16.2905 C   0  0  0  0  0  0  0  0  0  0  0  0
  -18.3591  -23.1826   24.4671 C   0  0  0  0  0  0  0  0  0  0  0  0
  -22.8131  -22.3051   16.3409 C   0  0  0  0  0  0  0  0  0  0  0  0
  -23.7825  -23.1715   18.4332 C   0  0  0  0  0  0  0  0  0  0  0  0
  -18.7908  -21.7300   24.3606 C   0  0  0  0  0  0  0  0  0  0  0  0
  -19.6571  -27.0990   21.6017 C   0  0  0  0  0  0  0  0  0  0  0  0
  -20.9900  -28.1651   22.7924 C   0  0  0  0  0  0  0  0  0  0  0  0
  -18.6872  -22.7884   22.1561 C   0  0  0  0  0  0  0  0  0  0  0  0
  -20.1083  -26.9123   23.0823 C   0  0  0  0  0  0  0  0  0  0  0  0
  -32.1913  -22.8952   22.0604 C   0  0  1  0  0  0  0  0  0  0  0  0
  -18.9415  -23.8539   23.2217 C   0  0  2  0  0  0  0  0  0  0  0  0
  -29.8461  -19.9070   21.9963 C   0  0  1  0  0  0  0  0  0  0  0  0
  -25.1959  -23.1547   17.8235 C   0  0  2  0  0  0  0  0  0  0  0  0
  -26.1186  -14.4177   17.9992 C   0  0  0  0  0  0  0  0  0  0  0  0
  -29.6611  -19.9798   17.3788 C   0  0  0  0  0  0  0  0  0  0  0  0
  -28.1946  -18.2424   16.3306 C   0  0  0  0  0  0  0  0  0  0  0  0
  -30.3926  -17.5892   17.3128 C   0  0  0  0  0  0  0  0  0  0  0  0
  -20.7717  -28.9755   20.4926 C   0  0  0  0  0  0  0  0  0  0  0  0
  -25.6960  -15.2196   21.6944 C   0  0  0  0  0  0  0  0  0  0  0  0
  -20.8816  -19.1214   18.6307 C   0  0  0  0  0  0  0  0  0  0  0  0
  -18.0364  -20.3619   22.3728 C   0  0  0  0  0  0  0  0  0  0  0  0
  -23.7442  -23.5199   24.1605 C   0  0  0  0  0  0  0  0  0  1  0  0
  -28.4848  -18.2138   18.8497 C   0  0  1  0  0  0  0  0  0  0  0  0
  -26.5094  -15.0160   19.3416 C   0  0  2  0  0  0  0  0  0  0  0  0
  -29.1742  -18.5212   17.4905 C   0  0  0  0  0  0  0  0  0  0  0  0
  -17.2460  -19.9956   18.7239 N   0  0  0  0  0  0  0  0  0  0  0  0
  -25.5495  -25.3652   18.8584 N   0  0  0  0  0  0  0  0  0  0  0  0
  -21.3201  -23.4207   23.7181 N   0  0  0  0  0  0  0  0  0  0  0  0
  -19.4267  -19.7450   20.4695 N   0  0  0  0  0  0  0  0  0  0  0  0
  -22.4270  -24.1736   23.8373 N   0  0  0  0  0  0  0  0  0  0  0  0
  -26.0941  -24.2083   18.4447 N   0  0  0  0  0  0  0  0  0  0  0  0
  -28.9336  -19.4483   20.9470 N   0  0  0  0  0  0  0  0  0  0  0  0
  -22.9397  -22.1526   17.7975 N   0  0  0  0  0  0  0  0  0  0  0  0
  -28.1462  -23.0357   18.2894 N   0  0  0  0  0  0  0  0  0  0  0  0
  -29.3241  -26.9464   20.2168 N   0  0  0  0  0  0  0  0  0  0  0  0
  -31.4437  -21.6904   22.3501 N   0  0  0  0  0  0  0  0  0  0  0  0
  -28.0377  -16.8326   18.9941 N   0  0  0  0  0  0  0  0  0  0  0  0
  -21.5634  -20.2264   17.9256 N   0  0  0  0  0  0  0  0  0  0  0  0
  -20.0586  -28.5144   21.7035 N   0  3  0  0  0  0  0  0  0  0  0  0
  -18.9091  -21.4695   22.8729 N   0  3  2  0  0  0  0  0  0  0  0  0
  -25.4318  -14.7095   20.3244 N   0  3  0  0  0  0  0  0  0  0  0  0
  -30.1158  -24.9347   19.4520 O   0  0  0  0  0  0  0  0  0  0  0  0
  -30.1643  -21.6227   20.4056 O   0  0  0  0  0  0  0  0  0  0  0  0
  -30.4507  -17.8759   20.1333 O   0  0  0  0  0  0  0  0  0  0  0  0
  -25.8013  -17.3259   19.3578 O   0  0  0  0  0  0  0  0  0  0  0  0
  -22.5035  -21.1025   19.8194 O   0  0  0  0  0  0  0  0  0  0  0  0
  -25.9031  -31.1607   21.4726 O   0  0  0  0  0  0  0  0  0  0  0  0
  -24.2204  -22.8708   22.9781 O   0  0  0  0  0  0  0  0  0  1  0  0
  -26.0763  -31.6896   26.9584 F   0  0  0  0  0  0  0  0  0  0  0  0
  -23.7333  -32.1498   22.8713 F   0  0  0  0  0  0  0  0  0  0  0  0
  1  2  1  0  0  0  0
  1  5  2  0  0  0  0
  2  6  2  0  0  0  0
  3  8  2  0  0  0  0
  3 18  1  0  0  0  0
  4  9  1  0  0  0  0
  4 18  2  0  0  0  0
  5 20  1  0  0  0  0
  6 22  1  0  0  0  0
  7 10  2  0  0  0  0
  7 21  1  0  0  0  0
  8 25  1  0  0  0  0
  9 25  2  0  0  0  0
 10 26  1  0  0  0  0
 11 12  2  0  0  0  0
 11 27  1  0  0  0  0
 12 28  1  0  0  0  0
 13 23  1  0  0  0  0
 13 26  2  0  0  0  0
 14 28  2  0  0  0  0
 14 29  1  0  0  0  0
 15 32  2  0  0  0  0
 15 71  1  0  0  0  0
 16 33  1  0  0  0  0
 16 71  2  0  0  0  0
 17 24  2  0  0  0  0
 17 75  1  0  0  0  0
 18 30  1  0  0  0  0
 19 30  1  0  0  0  0
 19 34  2  0  0  0  0
 19 35  1  0  0  0  0
 20 22  2  0  0  0  0
 20 40  1  0  0  0  0
 21 23  2  0  0  0  0
 21 41  1  0  0  0  0
 22 55  1  0  0  0  0
 23 42  1  0  0  0  0
 24 31  1  0  0  0  0
 24 54  1  0  0  0  0
 25 92  1  0  0  0  0
 26 93  1  0  0  0  0
 27 29  2  0  0  0  0
 27 92  1  0  0  0  0
 28 94  1  0  0  0  0
 29 95  1  0  0  0  0
 30 72  2  0  0  0  0
 31 56  1  0  0  0  0
 31 73  2  0  0  0  0
 32 65  1  0  0  0  0
 32 74  1  0  0  0  0
 33 66  1  0  0  0  0
 33 74  2  0  0  0  0
 34 76  1  0  0  0  0
 34 79  1  0  0  0  0
 35 80  1  0  0  0  0
 35 87  2  0  0  0  0
 36 57  1  0  0  0  0
 36 81  1  0  0  0  0
 36 88  2  0  0  0  0
 37 68  1  0  0  0  0
 37 77  1  0  0  0  0
 37 89  2  0  0  0  0
 38 69  1  0  0  0  0
 38 82  1  0  0  0  0
 38 90  2  0  0  0  0
 39 78  1  0  0  0  0
 39 83  1  0  0  0  0
 39 91  2  0  0  0  0
 40 43  1  0  0  0  0
 41 57  1  0  0  0  0
 42 77  1  0  0  0  0
 43 45  1  0  0  0  0
 44 46  1  0  0  0  0
 44 48  1  0  0  0  0
 45 55  1  0  0  0  0
 46 58  1  0  0  0  0
 47 50  1  0  0  0  0
 47 56  1  0  0  0  0
 48 78  1  0  0  0  0
 49 58  1  0  0  0  0
 49 78  1  0  0  0  0
 50 85  1  0  0  0  0
 51 54  1  0  0  0  0
 51 84  1  0  0  0  0
 52 54  1  0  0  0  0
 52 84  1  0  0  0  0
 53 56  1  0  0  0  0
 53 85  1  0  0  0  0
 55 81  1  0  0  0  0
 57 77  1  0  0  0  0
 58 76  1  0  0  0  0
 59 69  1  0  0  0  0
 60 70  1  0  0  0  0
 61 70  1  0  0  0  0
 62 70  1  0  0  0  0
 63 84  1  0  0  0  0
 64 86  1  0  0  0  0
 65 83  1  0  0  0  0
 66 85  1  0  0  0  0
 67 75  1  0  0  0  0
 67 93  1  0  0  0  0
 68 70  1  0  0  0  0
 68 82  1  0  0  0  0
 69 86  1  0  0  0  0
 72 76  1  0  0  0  0
 73 75  1  0  0  0  0
M  CHG  3  84   1  85   1  86   1
M  ISO  4  39 100  67 101  83 100  93 101
M  END
> <Batch ID>
0199

> <Smiles>
CNC(C)C(=O)NC(C(=O)N1Cc2cc([101O:1][101CH2:1]n3cc(C4CN(C)C4)c(C4CCN(Cc5cncc(C[100NH:0][100C:0](=O)N6CCCC(n7nc(-c8ccc(Oc9ccc(F)cc9F)cc8)c(C(N)=O)c7N)C6)n5)C4)n3)ccc2CC1C(=O)NC1CCCc2ccccc21)C(C)(C)C

> <Shape>
0.195

> <Color>
0.067

> <Negative vol penalty>
0.000

$$$$

  -OEChem-04052323503D

 85 94  0     1  0  0  0  0  0999 V2000
  -28.9008  -35.8434   18.2527 C   0  0  0  0  0  0  0  0  0  0  0  0
  -29.0829  -34.5291   18.6708 C   0  0  0  0  0  0  0  0  0  0  0  0
  -22.3128   -9.3884   20.7574 C   0  0  0  0  0  0  0  0  0  0  0  0
  -24.5195   -9.9182   21.5862 C   0  0  0  0  0  0  0  0  0  0  0  0
  -27.9615  -36.6528   18.8904 C   0  0  0  0  0  0  0  0  0  0  0  0
  -28.3266  -34.0237   19.7277 C   0  0  0  0  0  0  0  0  0  0  0  0
  -26.5084  -29.3941   18.7757 C   0  0  0  0  0  0  0  0  0  0  0  0
  -22.4743   -8.0666   21.1723 C   0  0  0  0  0  0  0  0  0  0  0  0
  -24.6810   -8.5963   22.0012 C   0  0  0  0  0  0  0  0  0  0  0  0
  -27.3923  -28.3238   18.9058 C   0  0  0  0  0  0  0  0  0  0  0  0
  -22.2967   -6.3245   24.0648 C   0  0  0  0  0  0  0  0  0  0  0  0
  -21.2340   -5.7220   24.7381 C   0  0  0  0  0  0  0  0  0  0  0  0
  -26.4709  -27.8353   21.0811 C   0  0  0  0  0  0  0  0  0  0  0  0
  -21.0989   -4.0343   23.0145 C   0  0  0  0  0  0  0  0  0  0  0  0
  -23.3355  -10.3143   20.9642 C   0  0  0  0  0  0  0  0  0  0  0  0
  -22.1796  -12.5884   20.9552 C   0  0  0  0  0  0  0  0  0  0  0  0
  -27.1865  -36.1541   19.9493 C   0  0  0  0  0  0  0  0  0  0  0  0
  -25.6051  -29.7003   19.8036 C   0  0  0  0  0  0  0  0  0  0  0  0
  -27.3770  -34.8275   20.3810 C   0  0  0  0  0  0  0  0  0  0  0  0
  -25.5749  -28.9085   20.9604 C   0  0  0  0  0  0  0  0  0  0  0  0
  -23.6583   -7.6705   21.7943 C   0  0  0  0  0  0  0  0  0  0  0  0
  -27.3756  -27.5459   20.0599 C   0  0  0  0  0  0  0  0  0  0  0  0
  -22.7605   -5.7819   22.8664 C   0  0  0  0  0  0  0  0  0  0  0  0
  -20.6351   -4.5769   24.2129 C   0  0  0  0  0  0  0  0  0  0  0  0
  -22.1616   -4.6369   22.3412 C   0  0  0  0  0  0  0  0  0  0  0  0
  -23.1695  -11.6797   20.5352 C   0  0  0  0  0  0  0  0  0  0  0  0
  -22.4545  -13.7409   20.2604 C   0  0  0  0  0  0  0  0  0  0  0  0
  -21.1075  -12.4069   21.8897 C   0  0  0  0  0  0  0  0  0  0  0  0
  -29.9004  -21.1808   17.7599 C   0  0  0  0  0  0  0  0  0  0  0  0
  -25.1289  -32.2077   21.6983 C   0  0  0  0  0  0  0  0  0  0  0  0
  -22.5371  -30.5046   22.6493 C   0  0  0  0  0  0  0  0  0  0  0  0
  -20.2005  -28.1381   23.4154 C   0  0  0  0  0  0  0  0  0  0  0  0
  -27.4713  -15.8546   17.9758 C   0  0  0  0  0  0  0  0  0  0  0  0
  -26.2170  -37.0812   20.6387 C   0  0  0  0  0  0  0  0  0  0  0  0
  -24.6400  -30.8418   19.6365 C   0  0  0  0  0  0  0  0  0  0  0  0
  -24.6106  -29.1830   22.0844 C   0  0  0  0  0  0  0  0  0  0  0  0
  -25.1912  -36.3551   21.5051 C   0  0  0  0  0  0  0  0  0  0  0  0
  -24.3952  -15.2698   16.1612 C   0  0  0  0  0  0  0  0  0  0  0  0
  -25.8742  -35.3018   22.3716 C   0  0  0  0  0  0  0  0  0  0  0  0
  -23.6377  -14.3616   17.1315 C   0  0  0  0  0  0  0  0  0  0  0  0
  -30.0304  -17.8785   16.1315 C   0  0  0  0  0  0  0  0  0  0  0  0
  -29.1526  -21.5543   20.1076 C   0  0  0  0  0  0  0  0  0  0  0  0
  -25.8888  -14.9578   16.1637 C   0  0  0  0  0  0  0  0  0  0  0  0
  -30.7167  -19.1741   16.5416 C   0  0  0  0  0  0  0  0  0  0  0  0
  -25.7748  -14.1192   18.4783 C   0  0  0  0  0  0  0  0  0  0  0  0
  -28.6357  -18.9760   17.7342 C   0  0  0  0  0  0  0  0  0  0  0  0
  -29.9455  -22.7968   20.4558 C   0  0  0  0  0  0  0  0  0  0  0  0
  -28.6784  -23.2396   18.4237 C   0  0  0  0  0  0  0  0  0  0  0  0
  -26.5581  -34.2354   21.5075 C   0  0  1  0  0  0  0  0  0  0  0  0
  -28.8164  -21.7358   18.6356 C   0  0  1  0  0  0  0  0  0  0  0  0
  -24.1136  -31.3785   20.9640 C   0  0  1  0  0  0  0  0  0  0  0  0
  -24.2623  -14.4002   18.5388 C   0  0  2  0  0  0  0  0  0  0  0  0
  -29.1195  -17.5908   17.3231 C   0  0  1  0  0  0  0  0  0  0  0  0
  -18.2479  -27.7169   24.9344 C   0  0  0  0  0  0  0  0  0  0  0  0
  -24.4527  -30.0343   24.9773 C   0  0  0  0  0  0  0  0  0  0  0  0
  -22.6372  -28.7427   26.1192 C   0  0  0  0  0  0  0  0  0  0  0  0
  -22.3089  -31.1607   25.6016 C   0  0  0  0  0  0  0  0  0  0  0  0
  -18.3452  -27.8163   21.1322 C   0  0  0  0  0  0  0  0  0  0  0  0
  -30.0498  -25.1028   19.4525 C   0  0  0  0  0  0  0  0  0  0  0  0
  -29.1322  -26.2583   19.1048 C   0  0  0  0  0  0  0  0  0  1  0  0
  -22.2690  -29.4736   23.7190 C   0  0  1  0  0  0  0  0  0  0  0  0
  -18.6930  -28.2245   23.5717 C   0  0  2  0  0  0  0  0  0  0  0  0
  -22.9259  -29.8453   25.0783 C   0  0  0  0  0  0  0  0  0  0  0  0
  -24.0104  -12.2093   19.6428 N   0  0  0  0  0  0  0  0  0  0  0  0
  -23.5495  -13.4632   19.4962 N   0  0  0  0  0  0  0  0  0  0  0  0
  -29.7456  -19.8587   17.3836 N   0  0  0  0  0  0  0  0  0  0  0  0
  -23.6912  -30.3139   21.8764 N   0  0  0  0  0  0  0  0  0  0  0  0
  -26.4253  -15.0297   17.5301 N   0  0  0  0  0  0  0  0  0  0  0  0
  -21.8640  -14.9546   20.2348 N   0  0  0  0  0  0  0  0  0  0  0  0
  -21.3419  -12.6989   23.2403 N   0  0  0  0  0  0  0  0  0  0  0  0
  -25.5809  -33.3032   20.9876 N   0  0  0  0  0  0  0  0  0  0  0  0
  -20.8200  -29.3150   23.7791 N   0  0  0  0  0  0  0  0  0  0  0  0
  -28.0382  -16.6818   17.0141 N   0  0  0  0  0  0  0  0  0  0  0  0
  -29.2304  -23.8755   19.6860 N   0  3  2  0  0  0  0  0  0  0  0  0
  -18.0160  -27.4105   22.5229 N   0  3  0  0  0  0  0  0  0  0  0  0
  -19.9802  -11.9822   21.5400 O   0  0  0  0  0  0  0  0  0  0  0  0
  -30.8537  -21.8857   17.4246 O   0  0  0  0  0  0  0  0  0  0  0  0
  -25.4754  -31.8789   22.8268 O   0  0  0  0  0  0  0  0  0  0  0  0
  -21.7476  -31.4407   22.5002 O   0  0  0  0  0  0  0  0  0  0  0  0
  -20.7718  -27.1264   23.0146 O   0  0  0  0  0  0  0  0  0  0  0  0
  -27.8675  -15.8578   19.1464 O   0  0  0  0  0  0  0  0  0  0  0  0
  -23.8161   -6.3808   22.1996 O   0  0  0  0  0  0  0  0  0  0  0  0
  -28.2376  -26.5010   20.1898 O   0  0  0  0  0  0  0  0  0  1  0  0
  -19.6156   -3.9976   24.8603 F   0  0  0  0  0  0  0  0  0  0  0  0
  -22.6036   -4.1104   21.1909 F   0  0  0  0  0  0  0  0  0  0  0  0
  1  2  1  0  0  0  0
  1  5  2  0  0  0  0
  2  6  2  0  0  0  0
  3  8  2  0  0  0  0
  3 15  1  0  0  0  0
  4  9  1  0  0  0  0
  4 15  2  0  0  0  0
  5 17  1  0  0  0  0
  6 19  1  0  0  0  0
  7 10  2  0  0  0  0
  7 18  1  0  0  0  0
  8 21  1  0  0  0  0
  9 21  2  0  0  0  0
 10 22  1  0  0  0  0
 11 12  2  0  0  0  0
 11 23  1  0  0  0  0
 12 24  1  0  0  0  0
 13 20  1  0  0  0  0
 13 22  2  0  0  0  0
 14 24  2  0  0  0  0
 14 25  1  0  0  0  0
 15 26  1  0  0  0  0
 16 26  1  0  0  0  0
 16 27  2  0  0  0  0
 16 28  1  0  0  0  0
 17 19  2  0  0  0  0
 17 34  1  0  0  0  0
 18 20  2  0  0  0  0
 18 35  1  0  0  0  0
 19 49  1  0  0  0  0
 20 36  1  0  0  0  0
 21 82  1  0  0  0  0
 22 83  1  0  0  0  0
 23 25  2  0  0  0  0
 23 82  1  0  0  0  0
 24 84  1  0  0  0  0
 25 85  1  0  0  0  0
 26 64  2  0  0  0  0
 27 65  1  0  0  0  0
 27 69  1  0  0  0  0
 28 70  1  0  0  0  0
 28 76  2  0  0  0  0
 29 50  1  0  0  0  0
 29 66  1  0  0  0  0
 29 77  2  0  0  0  0
 30 51  1  0  0  0  0
 30 71  1  0  0  0  0
 30 78  2  0  0  0  0
 31 61  1  0  0  0  0
 31 67  1  0  0  0  0
 31 79  2  0  0  0  0
 32 62  1  0  0  0  0
 32 72  1  0  0  0  0
 32 80  2  0  0  0  0
 33 68  1  0  0  0  0
 33 73  1  0  0  0  0
 33 81  2  0  0  0  0
 34 37  1  0  0  0  0
 35 51  1  0  0  0  0
 36 67  1  0  0  0  0
 37 39  1  0  0  0  0
 38 40  1  0  0  0  0
 38 43  1  0  0  0  0
 39 49  1  0  0  0  0
 40 52  1  0  0  0  0
 41 44  1  0  0  0  0
 41 53  1  0  0  0  0
 42 47  1  0  0  0  0
 42 50  1  0  0  0  0
 43 68  1  0  0  0  0
 44 66  1  0  0  0  0
 45 52  1  0  0  0  0
 45 68  1  0  0  0  0
 46 53  1  0  0  0  0
 46 66  1  0  0  0  0
 47 74  1  0  0  0  0
 48 50  1  0  0  0  0
 48 74  1  0  0  0  0
 49 71  1  0  0  0  0
 51 67  1  0  0  0  0
 52 65  1  0  0  0  0
 53 73  1  0  0  0  0
 54 62  1  0  0  0  0
 55 63  1  0  0  0  0
 56 63  1  0  0  0  0
 57 63  1  0  0  0  0
 58 75  1  0  0  0  0
 59 60  1  0  0  0  0
 59 74  1  0  0  0  0
 60 83  1  0  0  0  0
 61 63  1  0  0  0  0
 61 72  1  0  0  0  0
 62 75  1  0  0  0  0
 64 65  1  0  0  0  0
M  CHG  2  74   1  75   1
M  ISO  4  33 100  60 101  73 100  83 101
M  END
> <Batch ID>
0199

> <Smiles>
CNC(C)C(=O)NC(C(=O)N1Cc2cc([101O:1][101CH2:1]CN3CCC(C(=O)N4CCC([100NH:0][100C:0](=O)N5CCCC(n6nc(-c7ccc(Oc8ccc(F)cc8F)cc7)c(C(N)=O)c6N)C5)C4)C3)ccc2CC1C(=O)NC1CCCc2ccccc21)C(C)(C)C

> <Shape>
0.279

> <Color>
0.098

> <Negative vol penalty>
0.000

$$$$

  -OEChem-04052323503D

 88 98  0     1  0  0  0  0  0999 V2000
  -24.5209  -20.3198   21.8723 C   0  0  0  0  0  0  0  0  0  0  0  0
  -25.2741  -19.2011   21.5308 C   0  0  0  0  0  0  0  0  0  0  0  0
  -24.5041  -29.0594   21.8464 C   0  0  0  0  0  0  0  0  0  0  0  0
  -25.1577  -30.1813   19.8090 C   0  0  0  0  0  0  0  0  0  0  0  0
  -23.8241  -20.3476   23.0796 C   0  0  0  0  0  0  0  0  0  0  0  0
  -25.3318  -18.1099   22.3971 C   0  0  0  0  0  0  0  0  0  0  0  0
  -24.7836  -13.6880   19.9906 C   0  0  0  0  0  0  0  0  0  0  0  0
  -24.2781  -30.2945   22.4540 C   0  0  0  0  0  0  0  0  0  0  0  0
  -24.9317  -31.4164   20.4165 C   0  0  0  0  0  0  0  0  0  0  0  0
  -25.8930  -13.1939   19.3059 C   0  0  0  0  0  0  0  0  0  0  0  0
  -26.1223  -32.7491   23.8677 C   0  0  0  0  0  0  0  0  0  0  0  0
  -26.6110  -32.9333   25.1610 C   0  0  0  0  0  0  0  0  0  0  0  0
  -26.3626  -11.7105   21.1493 C   0  0  0  0  0  0  0  0  0  0  0  0
  -24.3651  -33.3438   25.9512 C   0  0  0  0  0  0  0  0  0  0  0  0
  -29.3470  -15.1207   21.6054 C   0  0  0  0  0  0  0  0  0  0  0  0
  -31.4328  -15.6908   20.7218 C   0  0  0  0  0  0  0  0  0  0  0  0
  -24.9439  -29.0028   20.5239 C   0  0  0  0  0  0  0  0  0  0  0  0
  -24.2514  -26.9533   19.1721 C   0  0  0  0  0  0  0  0  0  0  0  0
  -23.8655  -19.2523   23.9566 C   0  0  0  0  0  0  0  0  0  0  0  0
  -24.4611  -13.2040   21.2666 C   0  0  0  0  0  0  0  0  0  0  0  0
  -24.6360  -18.1236   23.6178 C   0  0  0  0  0  0  0  0  0  0  0  0
  -25.2471  -12.1983   21.8470 C   0  0  0  0  0  0  0  0  0  0  0  0
  -30.3511  -16.0609   21.4946 C   0  0  0  0  0  0  0  0  0  0  0  0
  -24.4919  -31.4730   21.7391 C   0  0  0  0  0  0  0  0  0  0  0  0
  -26.6844  -12.2071   19.8864 C   0  0  0  0  0  0  0  0  0  0  0  0
  -24.7550  -32.8623   23.6160 C   0  0  0  0  0  0  0  0  0  0  0  0
  -25.7324  -33.2306   26.2028 C   0  0  0  0  0  0  0  0  0  0  0  0
  -23.8764  -33.1596   24.6578 C   0  0  0  0  0  0  0  0  0  0  0  0
  -25.1781  -27.7274   19.8959 C   0  0  0  0  0  0  0  0  0  0  0  0
  -24.9598  -25.8416   18.7862 C   0  0  0  0  0  0  0  0  0  0  0  0
  -30.4928  -13.6678   20.2851 C   0  0  0  0  0  0  0  0  0  0  0  0
  -22.8735  -27.2157   18.8751 C   0  0  0  0  0  0  0  0  0  0  0  0
  -24.2469  -14.4902   24.1655 C   0  0  0  0  0  0  0  0  0  0  0  0
  -23.1190  -11.5542   24.9591 C   0  0  0  0  0  0  0  0  0  0  0  0
  -22.9705   -8.2190   24.2512 C   0  0  0  0  0  0  0  0  0  0  0  0
  -28.3573  -21.7860   19.6970 C   0  0  0  0  0  0  0  0  0  0  0  0
  -23.1339  -19.3476   25.2720 C   0  0  0  0  0  0  0  0  0  0  0  0
  -23.2456  -13.7283   21.9808 C   0  0  0  0  0  0  0  0  0  0  0  0
  -24.9319  -11.6307   23.2061 C   0  0  0  0  0  0  0  0  0  0  0  0
  -22.9449  -17.9996   25.9630 C   0  0  0  0  0  0  0  0  0  0  0  0
  -29.9100  -24.8516   18.9656 C   0  0  0  0  0  0  0  0  0  0  0  0
  -24.2485  -17.2076   25.9538 C   0  0  0  0  0  0  0  0  0  0  0  0
  -28.7356  -25.8224   19.0853 C   0  0  0  0  0  0  0  0  0  0  0  0
  -30.5292  -11.0986   20.4858 C   0  0  0  0  0  0  0  0  0  0  0  0
  -31.8172  -11.5025   19.8392 C   0  0  0  0  0  0  0  0  0  0  0  0
  -29.8811  -23.7795   20.0564 C   0  0  0  0  0  0  0  0  0  0  0  0
  -30.4470  -21.0104   20.9037 C   0  0  0  0  0  0  0  0  0  0  0  0
  -29.3936  -19.5988   19.1758 C   0  0  0  0  0  0  0  0  0  0  0  0
  -27.4267  -24.0118   20.2578 C   0  0  0  0  0  0  0  0  0  0  0  0
  -30.3179  -19.8798   21.9195 C   0  0  0  0  0  0  0  0  0  0  0  0
  -29.2259  -18.4596   20.1680 C   0  0  0  0  0  0  0  0  0  0  0  0
  -24.7034  -16.9103   24.5198 C   0  0  1  0  0  0  0  0  0  0  0  0
  -23.3084  -13.5294   23.4920 C   0  0  1  0  0  0  0  0  0  0  0  0
  -27.3967  -25.0654   19.1398 C   0  0  1  0  0  0  0  0  0  0  0  0
  -30.5716  -12.3381   19.6121 C   0  0  0  0  0  0  0  0  0  0  0  0
  -22.0026   -6.0658   25.1022 C   0  0  0  0  0  0  0  0  0  0  0  0
  -25.2418  -11.4684   27.1492 C   0  0  0  0  0  0  0  0  0  0  0  0
  -24.8681   -8.9986   27.3180 C   0  0  0  0  0  0  0  0  0  0  0  0
  -23.0057  -10.5778   27.8283 C   0  0  0  0  0  0  0  0  0  0  0  0
  -21.4019   -7.8107   21.7750 C   0  0  0  0  0  0  0  0  0  0  0  0
  -30.2703  -17.3980   22.1703 C   0  0  0  0  0  0  0  0  0  0  0  0
  -29.9148  -12.2708   18.2624 C   0  0  0  0  0  0  0  0  0  0  0  0
  -28.4337  -12.6140   18.3274 C   0  0  0  0  0  0  0  0  0  1  0  0
  -23.7406  -10.2615   25.4299 C   0  0  1  0  0  0  0  0  0  0  0  0
  -21.7993   -7.2560   24.1777 C   0  0  2  0  0  0  0  0  0  0  0  0
  -24.2214  -10.3384   26.9065 C   0  0  0  0  0  0  0  0  0  0  0  0
  -29.3852  -13.9097   21.0118 N   0  0  0  0  0  0  0  0  0  0  0  0
  -31.5371  -14.4978   20.1004 N   0  0  0  0  0  0  0  0  0  0  0  0
  -26.3832  -27.1558   19.9672 N   0  0  0  0  0  0  0  0  0  0  0  0
  -26.2186  -26.0107   19.2833 N   0  0  0  0  0  0  0  0  0  0  0  0
  -23.7367  -12.1803   23.8672 N   0  0  0  0  0  0  0  0  0  0  0  0
  -28.5719  -23.1133   20.0973 N   0  0  0  0  0  0  0  0  0  0  0  0
  -29.4271  -20.8924   19.8546 N   0  0  0  0  0  0  0  0  0  0  0  0
  -24.6225  -24.7457   18.0738 N   0  0  0  0  0  0  0  0  0  0  0  0
  -22.3029  -28.4052   19.3480 N   0  0  0  0  0  0  0  0  0  0  0  0
  -23.9328  -15.8202   23.9609 N   0  0  0  0  0  0  0  0  0  0  0  0
  -22.7532   -9.2178   25.1766 N   0  0  0  0  0  0  0  0  0  0  0  0
  -30.3206  -18.5495   21.2055 N   0  3  0  0  0  0  0  0  0  0  0  0
  -21.6331   -6.7477   22.7867 N   0  3  0  0  0  0  0  0  0  0  0  0
  -22.1647  -26.4111   18.2241 O   0  0  0  0  0  0  0  0  0  0  0  0
  -25.1857  -14.0570   24.8233 O   0  0  0  0  0  0  0  0  0  0  0  0
  -22.1180  -11.9886   25.5342 O   0  0  0  0  0  0  0  0  0  0  0  0
  -23.9790   -8.0952   23.5597 O   0  0  0  0  0  0  0  0  0  0  0  0
  -27.2726  -21.4204   19.2267 O   0  0  0  0  0  0  0  0  0  0  0  0
  -24.2712  -32.6783   22.3316 O   0  0  0  0  0  0  0  0  0  0  0  0
  -27.7759  -11.7201   19.2158 O   0  0  0  0  0  0  0  0  0  1  0  0
  -26.2017  -33.4060   27.4450 F   0  0  0  0  0  0  0  0  0  0  0  0
  -22.5616  -33.2685   24.4224 F   0  0  0  0  0  0  0  0  0  0  0  0
  1  2  1  0  0  0  0
  1  5  2  0  0  0  0
  2  6  2  0  0  0  0
  3  8  2  0  0  0  0
  3 17  1  0  0  0  0
  4  9  1  0  0  0  0
  4 17  2  0  0  0  0
  5 19  1  0  0  0  0
  6 21  1  0  0  0  0
  7 10  2  0  0  0  0
  7 20  1  0  0  0  0
  8 24  1  0  0  0  0
  9 24  2  0  0  0  0
 10 25  1  0  0  0  0
 11 12  2  0  0  0  0
 11 26  1  0  0  0  0
 12 27  1  0  0  0  0
 13 22  1  0  0  0  0
 13 25  2  0  0  0  0
 14 27  2  0  0  0  0
 14 28  1  0  0  0  0
 15 23  1  0  0  0  0
 15 67  2  0  0  0  0
 16 23  2  0  0  0  0
 16 68  1  0  0  0  0
 17 29  1  0  0  0  0
 18 29  1  0  0  0  0
 18 30  2  0  0  0  0
 18 32  1  0  0  0  0
 19 21  2  0  0  0  0
 19 37  1  0  0  0  0
 20 22  2  0  0  0  0
 20 38  1  0  0  0  0
 21 52  1  0  0  0  0
 22 39  1  0  0  0  0
 23 61  1  0  0  0  0
 24 85  1  0  0  0  0
 25 86  1  0  0  0  0
 26 28  2  0  0  0  0
 26 85  1  0  0  0  0
 27 87  1  0  0  0  0
 28 88  1  0  0  0  0
 29 69  2  0  0  0  0
 30 70  1  0  0  0  0
 30 74  1  0  0  0  0
 31 55  1  0  0  0  0
 31 67  1  0  0  0  0
 31 68  2  0  0  0  0
 32 75  1  0  0  0  0
 32 80  2  0  0  0  0
 33 53  1  0  0  0  0
 33 76  1  0  0  0  0
 33 81  2  0  0  0  0
 34 64  1  0  0  0  0
 34 71  1  0  0  0  0
 34 82  2  0  0  0  0
 35 65  1  0  0  0  0
 35 77  1  0  0  0  0
 35 83  2  0  0  0  0
 36 72  1  0  0  0  0
 36 73  1  0  0  0  0
 36 84  2  0  0  0  0
 37 40  1  0  0  0  0
 38 53  1  0  0  0  0
 39 71  1  0  0  0  0
 40 42  1  0  0  0  0
 41 43  1  0  0  0  0
 41 46  1  0  0  0  0
 42 52  1  0  0  0  0
 43 54  1  0  0  0  0
 44 45  1  0  0  0  0
 44 55  1  0  0  0  0
 45 55  1  0  0  0  0
 46 72  1  0  0  0  0
 47 50  1  0  0  0  0
 47 73  1  0  0  0  0
 48 51  1  0  0  0  0
 48 73  1  0  0  0  0
 49 54  1  0  0  0  0
 49 72  1  0  0  0  0
 50 78  1  0  0  0  0
 51 78  1  0  0  0  0
 52 76  1  0  0  0  0
 53 71  1  0  0  0  0
 54 70  1  0  0  0  0
 55 62  1  0  0  0  0
 56 65  1  0  0  0  0
 57 66  1  0  0  0  0
 58 66  1  0  0  0  0
 59 66  1  0  0  0  0
 60 79  1  0  0  0  0
 61 78  1  0  0  0  0
 62 63  1  0  0  0  0
 63 86  1  0  0  0  0
 64 66  1  0  0  0  0
 64 77  1  0  0  0  0
 65 79  1  0  0  0  0
 69 70  1  0  0  0  0
M  CHG  2  78   1  79   1
M  ISO  4  36 100  63 101  73 100  86 101
M  END
> <Batch ID>
0199

> <Smiles>
CNC(C)C(=O)NC(C(=O)N1Cc2cc([101O:1][101CH2:1]CC3(c4ncc(CN5CC[100N:0]([100C:0](=O)N6CCCC(n7nc(-c8ccc(Oc9ccc(F)cc9F)cc8)c(C(N)=O)c7N)C6)CC5)cn4)CC3)ccc2CC1C(=O)NC1CCCc2ccccc21)C(C)(C)C

> <Shape>
0.287

> <Color>
0.053

> <Negative vol penalty>
0.000

$$$$

  -OEChem-04052323503D

 89 98  0     1  0  0  0  0  0999 V2000
  -15.2893  -28.2275   26.0860 C   0  0  0  0  0  0  0  0  0  0  0  0
  -15.7983  -27.0240   25.6086 C   0  0  0  0  0  0  0  0  0  0  0  0
  -29.8297  -22.6582   19.5124 C   0  0  0  0  0  0  0  0  0  0  0  0
  -27.8461  -21.9574   18.3243 C   0  0  0  0  0  0  0  0  0  0  0  0
  -15.7436  -29.4344   25.5560 C   0  0  0  0  0  0  0  0  0  0  0  0
  -16.7613  -27.0267   24.6001 C   0  0  0  0  0  0  0  0  0  0  0  0
  -21.4063  -23.0913   23.9348 C   0  0  0  0  0  0  0  0  0  0  0  0
  -30.0632  -23.6361   18.5456 C   0  0  0  0  0  0  0  0  0  0  0  0
  -28.0797  -22.9353   17.3575 C   0  0  0  0  0  0  0  0  0  0  0  0
  -21.5695  -21.9591   23.1377 C   0  0  0  0  0  0  0  0  0  0  0  0
  -28.8887  -26.7131   17.7805 C   0  0  0  0  0  0  0  0  0  0  0  0
  -29.2354  -27.9903   18.2210 C   0  0  0  0  0  0  0  0  0  0  0  0
  -22.7040  -23.2962   21.4812 C   0  0  0  0  0  0  0  0  0  0  0  0
  -31.3284  -27.8348   17.0242 C   0  0  0  0  0  0  0  0  0  0  0  0
  -28.7211  -21.8187   19.4017 C   0  0  0  0  0  0  0  0  0  0  0  0
  -27.7248  -20.9423   21.5804 C   0  0  0  0  0  0  0  0  0  0  0  0
  -16.7197  -29.4522   24.5472 C   0  0  0  0  0  0  0  0  0  0  0  0
  -21.8818  -24.3386   23.5053 C   0  0  0  0  0  0  0  0  0  0  0  0
  -17.2282  -28.2350   24.0552 C   0  0  0  0  0  0  0  0  0  0  0  0
  -22.5477  -24.4422   22.2757 C   0  0  0  0  0  0  0  0  0  0  0  0
  -29.1883  -23.7747   17.4682 C   0  0  0  0  0  0  0  0  0  0  0  0
  -22.2159  -22.0620   21.9094 C   0  0  0  0  0  0  0  0  0  0  0  0
  -29.7618  -25.9967   16.9619 C   0  0  0  0  0  0  0  0  0  0  0  0
  -30.4553  -28.5512   17.8428 C   0  0  0  0  0  0  0  0  0  0  0  0
  -30.9817  -26.5575   16.5837 C   0  0  0  0  0  0  0  0  0  0  0  0
  -28.4796  -20.8080   20.3998 C   0  0  0  0  0  0  0  0  0  0  0  0
  -27.8011  -19.7085   22.1790 C   0  0  0  0  0  0  0  0  0  0  0  0
  -25.7940  -12.8813   19.8939 C   0  0  0  0  0  0  0  0  0  0  0  0
  -24.1260  -12.8129   21.1469 C   0  0  0  0  0  0  0  0  0  0  0  0
  -27.0177  -22.0806   22.0904 C   0  0  0  0  0  0  0  0  0  0  0  0
  -20.5400  -27.1412   22.8352 C   0  0  0  0  0  0  0  0  0  0  0  0
  -23.6227  -28.1039   22.5309 C   0  0  0  0  0  0  0  0  0  0  0  0
  -26.8738  -27.2633   21.9220 C   0  0  0  0  0  0  0  0  0  0  0  0
  -28.7701  -14.1967   20.0502 C   0  0  0  0  0  0  0  0  0  0  0  0
  -17.1454  -30.7800   23.9723 C   0  0  0  0  0  0  0  0  0  0  0  0
  -21.7214  -25.5453   24.3888 C   0  0  0  0  0  0  0  0  0  0  0  0
  -23.0946  -25.7544   21.7782 C   0  0  0  0  0  0  0  0  0  0  0  0
  -18.4407  -30.7082   23.1677 C   0  0  0  0  0  0  0  0  0  0  0  0
  -30.6654  -15.8933   22.5414 C   0  0  0  0  0  0  0  0  0  0  0  0
  -18.4103  -29.5198   22.2120 C   0  0  0  0  0  0  0  0  0  0  0  0
  -30.2520  -17.3574   22.3816 C   0  0  0  0  0  0  0  0  0  0  0  0
  -21.1700  -14.5763   22.8312 C   0  0  0  0  0  0  0  0  0  0  0  0
  -30.7363  -15.1766   21.1948 C   0  0  0  0  0  0  0  0  0  0  0  0
  -29.1001  -16.7383   20.2162 C   0  0  0  0  0  0  0  0  0  0  0  0
  -18.2919  -28.1975   22.9794 C   0  0  1  0  0  0  0  0  0  0  0  0
  -21.7901  -26.8616   23.6207 C   0  0  1  0  0  0  0  0  0  0  0  0
  -28.9603  -17.4880   21.5522 C   0  0  2  0  0  0  0  0  0  0  0  0
  -22.0992  -14.1463   21.7297 C   0  0  1  0  0  0  0  0  0  0  0  0
  -22.3659  -15.4210   22.4890 C   0  0  1  0  0  0  0  0  0  0  0  0
  -25.0346  -10.9418   23.6663 C   0  0  0  0  0  0  0  0  0  0  0  0
  -29.1611  -28.2717   21.7016 C   0  0  0  0  0  0  0  0  0  0  0  0
  -22.8900  -29.1547   19.7616 C   0  0  0  0  0  0  0  0  0  0  0  0
  -25.3348  -29.2688   19.2345 C   0  0  0  0  0  0  0  0  0  0  0  0
  -24.3931  -30.6548   21.0825 C   0  0  0  0  0  0  0  0  0  0  0  0
  -27.9185  -25.6773   24.1919 C   0  0  0  0  0  0  0  0  0  0  0  0
  -25.5806  -18.4857   19.9327 C   0  0  0  0  0  0  0  0  0  0  0  0
  -26.7425  -13.3665   18.8845 C   0  0  0  0  0  0  0  0  0  0  0  0
  -24.6790  -10.5971   22.2302 C   0  0  0  0  0  0  0  0  0  0  0  0
  -23.4833  -17.3507   21.6007 C   0  0  0  0  0  0  0  0  0  0  0  0
  -22.4932  -19.7027   21.7966 C   0  0  0  0  0  0  0  0  0  1  0  0
  -24.6194  -28.1565   21.3983 C   0  0  1  0  0  0  0  0  0  0  0  0
  -28.1595  -27.6231   22.6444 C   0  0  2  0  0  0  0  0  0  0  0  0
  -23.3141  -18.7269   20.9543 C   0  0  1  0  0  0  0  0  0  0  0  0
  -24.2974  -29.2842   20.3774 C   0  0  0  0  0  0  0  0  0  0  0  0
  -28.9976  -19.5853   20.2552 N   0  0  0  0  0  0  0  0  0  0  0  0
  -24.6730  -13.5825   20.2348 N   0  0  0  0  0  0  0  0  0  0  0  0
  -25.9750  -11.7262   20.5376 N   0  0  0  0  0  0  0  0  0  0  0  0
  -28.5675  -18.9402   21.3529 N   0  0  0  0  0  0  0  0  0  0  0  0
  -24.8946  -11.7063   21.3329 N   0  0  0  0  0  0  0  0  0  0  0  0
  -22.9074  -26.9067   22.6753 N   0  0  0  0  0  0  0  0  0  0  0  0
  -29.4799  -15.3378   20.4590 N   0  0  0  0  0  0  0  0  0  0  0  0
  -27.2869  -19.2167   23.3262 N   0  0  0  0  0  0  0  0  0  0  0  0
  -27.0425  -23.2697   21.3490 N   0  0  0  0  0  0  0  0  0  0  0  0
  -22.9657  -12.9871   21.8731 N   0  0  0  0  0  0  0  0  0  0  0  0
  -19.5710  -27.8248   23.5445 N   0  0  0  0  0  0  0  0  0  0  0  0
  -25.9355  -28.2691   22.0176 N   0  0  0  0  0  0  0  0  0  0  0  0
  -27.5863  -14.4384   19.3640 N   0  0  0  0  0  0  0  0  0  0  0  0
  -22.1930  -16.7140   21.8430 N   0  0  0  0  0  0  0  0  0  0  0  0
  -28.7851  -26.4026   23.2275 N   0  3  0  0  0  0  0  0  0  0  0  0
  -24.6786  -19.3125   20.7711 N   0  3  0  0  0  0  0  0  0  0  0  0
  -26.3963  -22.0490   23.1796 O   0  0  0  0  0  0  0  0  0  0  0  0
  -20.4611  -26.7658   21.6714 O   0  0  0  0  0  0  0  0  0  0  0  0
  -23.4891  -29.0862   23.2649 O   0  0  0  0  0  0  0  0  0  0  0  0
  -26.7187  -26.1981   21.3288 O   0  0  0  0  0  0  0  0  0  0  0  0
  -29.1597  -13.0476   20.2843 O   0  0  0  0  0  0  0  0  0  0  0  0
  -29.4157  -24.7291   16.5248 O   0  0  0  0  0  0  0  0  0  0  0  0
  -22.3760  -20.9586   21.1292 O   0  0  0  0  0  0  0  0  0  1  0  0
  -30.7875  -29.7783   18.2646 F   0  0  0  0  0  0  0  0  0  0  0  0
  -31.8241  -25.8746   15.7965 F   0  0  0  0  0  0  0  0  0  0  0  0
  1  2  1  0  0  0  0
  1  5  2  0  0  0  0
  2  6  2  0  0  0  0
  3  8  2  0  0  0  0
  3 15  1  0  0  0  0
  4  9  1  0  0  0  0
  4 15  2  0  0  0  0
  5 17  1  0  0  0  0
  6 19  1  0  0  0  0
  7 10  2  0  0  0  0
  7 18  1  0  0  0  0
  8 21  1  0  0  0  0
  9 21  2  0  0  0  0
 10 22  1  0  0  0  0
 11 12  2  0  0  0  0
 11 23  1  0  0  0  0
 12 24  1  0  0  0  0
 13 20  1  0  0  0  0
 13 22  2  0  0  0  0
 14 24  2  0  0  0  0
 14 25  1  0  0  0  0
 15 26  1  0  0  0  0
 16 26  1  0  0  0  0
 16 27  2  0  0  0  0
 16 30  1  0  0  0  0
 17 19  2  0  0  0  0
 17 35  1  0  0  0  0
 18 20  2  0  0  0  0
 18 36  1  0  0  0  0
 19 45  1  0  0  0  0
 20 37  1  0  0  0  0
 21 86  1  0  0  0  0
 22 87  1  0  0  0  0
 23 25  2  0  0  0  0
 23 86  1  0  0  0  0
 24 88  1  0  0  0  0
 25 89  1  0  0  0  0
 26 65  2  0  0  0  0
 27 68  1  0  0  0  0
 27 72  1  0  0  0  0
 28 57  1  0  0  0  0
 28 66  1  0  0  0  0
 28 67  2  0  0  0  0
 29 66  2  0  0  0  0
 29 69  1  0  0  0  0
 29 74  1  0  0  0  0
 30 73  1  0  0  0  0
 30 81  2  0  0  0  0
 31 46  1  0  0  0  0
 31 75  1  0  0  0  0
 31 82  2  0  0  0  0
 32 61  1  0  0  0  0
 32 70  1  0  0  0  0
 32 83  2  0  0  0  0
 33 62  1  0  0  0  0
 33 76  1  0  0  0  0
 33 84  2  0  0  0  0
 34 71  1  0  0  0  0
 34 77  1  0  0  0  0
 34 85  2  0  0  0  0
 35 38  1  0  0  0  0
 36 46  1  0  0  0  0
 37 70  1  0  0  0  0
 38 40  1  0  0  0  0
 39 41  1  0  0  0  0
 39 43  1  0  0  0  0
 40 45  1  0  0  0  0
 41 47  1  0  0  0  0
 42 48  1  0  0  0  0
 42 49  1  0  0  0  0
 43 71  1  0  0  0  0
 44 47  1  0  0  0  0
 44 71  1  0  0  0  0
 45 75  1  0  0  0  0
 46 70  1  0  0  0  0
 47 68  1  0  0  0  0
 48 49  1  0  0  0  0
 48 74  1  0  0  0  0
 49 78  1  0  0  0  0
 50 58  1  0  0  0  0
 51 62  1  0  0  0  0
 52 64  1  0  0  0  0
 53 64  1  0  0  0  0
 54 64  1  0  0  0  0
 55 79  1  0  0  0  0
 56 80  1  0  0  0  0
 57 77  1  0  0  0  0
 58 69  1  0  0  0  0
 59 63  1  0  0  0  0
 59 78  1  0  0  0  0
 60 63  1  0  0  0  0
 60 87  1  0  0  0  0
 61 64  1  0  0  0  0
 61 76  1  0  0  0  0
 62 79  1  0  0  0  0
 63 80  1  0  0  0  0
 65 68  1  0  0  0  0
 67 69  1  0  0  0  0
M  CHG  2  79   1  80   1
M  ISO  4  34 100  60 101  77 100  87 101
M  END
> <Batch ID>
0199

> <Smiles>
CCn1nc(C[100NH:0][100C:0](=O)N2CCCC(n3nc(-c4ccc(Oc5ccc(F)cc5F)cc4)c(C(N)=O)c3N)C2)nc1NC1CC1NCC(NC)[101CH2:1][101O:1]c1ccc2c(c1)CN(C(=O)C(NC(=O)C(C)NC)C(C)(C)C)C(C(=O)NC1CCCc3ccccc31)C2

> <Shape>
0.258

> <Color>
0.084

> <Negative vol penalty>
0.000

$$$$

  -OEChem-04052323503D

 82 91  0     1  0  0  0  0  0999 V2000
  -24.6473  -19.6703   17.1131 C   0  0  0  0  0  0  0  0  0  0  0  0
  -25.3459  -18.7026   17.8279 C   0  0  0  0  0  0  0  0  0  0  0  0
  -26.1832  -28.3779   18.9545 C   0  0  0  0  0  0  0  0  0  0  0  0
  -26.2170  -27.7439   21.2856 C   0  0  0  0  0  0  0  0  0  0  0  0
  -23.4152  -20.1262   17.5799 C   0  0  0  0  0  0  0  0  0  0  0  0
  -24.8132  -18.1911   19.0107 C   0  0  0  0  0  0  0  0  0  0  0  0
  -25.2041  -13.1503   19.2971 C   0  0  0  0  0  0  0  0  0  0  0  0
  -25.1103  -29.2339   19.2029 C   0  0  0  0  0  0  0  0  0  0  0  0
  -25.1440  -28.5999   21.5340 C   0  0  0  0  0  0  0  0  0  0  0  0
  -26.4499  -12.6267   19.6403 C   0  0  0  0  0  0  0  0  0  0  0  0
  -24.6554  -31.9139   21.9805 C   0  0  0  0  0  0  0  0  0  0  0  0
  -24.7290  -32.7327   23.1072 C   0  0  0  0  0  0  0  0  0  0  0  0
  -25.6918  -12.3268   21.9106 C   0  0  0  0  0  0  0  0  0  0  0  0
  -22.7223  -31.7101   23.9816 C   0  0  0  0  0  0  0  0  0  0  0  0
  -30.5443  -14.3454   22.1381 C   0  0  0  0  0  0  0  0  0  0  0  0
  -26.7365  -27.6328   19.9959 C   0  0  0  0  0  0  0  0  0  0  0  0
  -29.2154  -27.0613   19.8054 C   0  0  0  0  0  0  0  0  0  0  0  0
  -22.8627  -19.6131   18.7639 C   0  0  0  0  0  0  0  0  0  0  0  0
  -24.1947  -13.2764   20.2623 C   0  0  0  0  0  0  0  0  0  0  0  0
  -23.5732  -18.6416   19.4946 C   0  0  0  0  0  0  0  0  0  0  0  0
  -24.4332  -12.8499   21.5766 C   0  0  0  0  0  0  0  0  0  0  0  0
  -24.5907  -29.3449   20.4926 C   0  0  0  0  0  0  0  0  0  0  0  0
  -26.6948  -12.2176   20.9478 C   0  0  0  0  0  0  0  0  0  0  0  0
  -23.6152  -30.9931   21.8542 C   0  0  0  0  0  0  0  0  0  0  0  0
  -23.7625  -32.6309   24.1078 C   0  0  0  0  0  0  0  0  0  0  0  0
  -22.6487  -30.8912   22.8548 C   0  0  0  0  0  0  0  0  0  0  0  0
  -27.8445  -26.7480   19.7399 C   0  0  0  0  0  0  0  0  0  0  0  0
  -31.1761  -14.8890   21.0480 C   0  0  0  0  0  0  0  0  0  0  0  0
  -29.8516  -25.8888   19.4782 C   0  0  0  0  0  0  0  0  0  0  0  0
  -29.8564  -28.3013   20.1329 C   0  0  0  0  0  0  0  0  0  0  0  0
  -22.5791  -15.7111   21.5136 C   0  0  0  0  0  0  0  0  0  0  0  0
  -20.9068  -13.3450   22.9721 C   0  0  0  0  0  0  0  0  0  0  0  0
  -20.8235  -10.1223   24.0922 C   0  0  0  0  0  0  0  0  0  0  0  0
  -30.3604  -20.4494   20.2384 C   0  0  0  0  0  0  0  0  0  0  0  0
  -21.5499  -20.1711   19.2538 C   0  0  0  0  0  0  0  0  0  0  0  0
  -22.8475  -13.8183   19.8701 C   0  0  0  0  0  0  0  0  0  0  0  0
  -23.3764  -12.9453   22.6455 C   0  0  0  0  0  0  0  0  0  0  0  0
  -20.8799  -19.3064   20.3185 C   0  0  0  0  0  0  0  0  0  0  0  0
  -28.0687  -21.5819   17.5656 C   0  0  0  0  0  0  0  0  0  0  0  0
  -21.8916  -18.8878   21.3807 C   0  0  0  0  0  0  0  0  0  0  0  0
  -27.8781  -23.0465   17.9465 C   0  0  0  0  0  0  0  0  0  0  0  0
  -28.2562  -20.6881   18.7910 C   0  0  0  0  0  0  0  0  0  0  0  0
  -29.1650  -22.6081   20.0727 C   0  0  0  0  0  0  0  0  0  0  0  0
  -31.5755  -16.8753   19.6230 C   0  0  0  0  0  0  0  0  0  0  0  0
  -30.9762  -17.2968   21.5935 C   0  0  0  0  0  0  0  0  0  0  0  0
  -23.0167  -18.0445   20.7689 C   0  0  1  0  0  0  0  0  0  0  0  0
  -22.0616  -14.3783   21.0516 C   0  0  1  0  0  0  0  0  0  0  0  0
  -29.0264  -23.5245   18.8477 C   0  0  2  0  0  0  0  0  0  0  0  0
  -31.4207  -18.1792   20.4185 C   0  0  0  0  0  0  0  0  0  0  0  0
  -19.3341   -8.4863   25.2764 C   0  0  0  0  0  0  0  0  0  0  0  0
  -21.4844  -14.7415   25.6228 C   0  0  0  0  0  0  0  0  0  0  0  0
  -20.8275  -12.6307   26.7981 C   0  0  0  0  0  0  0  0  0  0  0  0
  -19.1591  -13.8482   25.3992 C   0  0  0  0  0  0  0  0  0  0  0  0
  -20.8126   -8.2790   21.7768 C   0  0  0  0  0  0  0  0  0  0  0  0
  -29.8748  -11.9152   22.6741 C   0  0  0  0  0  0  0  0  0  0  0  0
  -28.3507  -11.9119   22.6272 C   0  0  0  0  0  0  0  0  0  1  0  0
  -21.0380  -12.5874   24.2713 C   0  0  1  0  0  0  0  0  0  0  0  0
  -19.7869   -9.0255   23.9285 C   0  0  2  0  0  0  0  0  0  0  0  0
  -20.6480  -13.4518   25.5034 C   0  0  0  0  0  0  0  0  0  0  0  0
  -27.6220  -25.4762   19.3977 N   0  0  0  0  0  0  0  0  0  0  0  0
  -31.4618  -13.9039   20.1439 N   0  0  0  0  0  0  0  0  0  0  0  0
  -31.0224  -12.7531   20.6416 N   0  0  0  0  0  0  0  0  0  0  0  0
  -30.4725  -13.0200   21.8373 N   0  0  0  0  0  0  0  0  0  0  0  0
  -28.8616  -24.9800   19.2452 N   0  0  0  0  0  0  0  0  0  0  0  0
  -31.4870  -16.1880   20.8647 N   0  0  0  0  0  0  0  0  0  0  0  0
  -22.0775  -13.4878   22.2140 N   0  0  0  0  0  0  0  0  0  0  0  0
  -29.3088  -21.2001   19.6829 N   0  0  0  0  0  0  0  0  0  0  0  0
  -31.1556  -25.5570   19.3698 N   0  0  0  0  0  0  0  0  0  0  0  0
  -29.0532  -29.4068   20.4445 N   0  0  0  0  0  0  0  0  0  0  0  0
  -22.5642  -16.6894   20.5378 N   0  0  0  0  0  0  0  0  0  0  0  0
  -20.2439  -11.3732   24.1178 N   0  0  0  0  0  0  0  0  0  0  0  0
  -30.3837  -19.0983   19.9065 N   0  0  0  0  0  0  0  0  0  0  0  0
  -20.3489   -7.8959   23.1352 N   0  3  0  0  0  0  0  0  0  0  0  0
  -31.1042  -28.4296   20.1328 O   0  0  0  0  0  0  0  0  0  0  0  0
  -22.9621  -15.8426   22.6702 O   0  0  0  0  0  0  0  0  0  0  0  0
  -19.8046  -13.7873   22.6387 O   0  0  0  0  0  0  0  0  0  0  0  0
  -22.0267   -9.8923   24.1915 O   0  0  0  0  0  0  0  0  0  0  0  0
  -31.2160  -20.9398   20.9832 O   0  0  0  0  0  0  0  0  0  0  0  0
  -23.5439  -30.1803   20.7353 O   0  0  0  0  0  0  0  0  0  0  0  0
  -27.9101  -11.7068   21.2855 O   0  0  0  0  0  0  0  0  0  1  0  0
  -23.8342  -33.4162   25.1905 F   0  0  0  0  0  0  0  0  0  0  0  0
  -21.6477  -30.0077   22.7396 F   0  0  0  0  0  0  0  0  0  0  0  0
  1  2  1  0  0  0  0
  1  5  2  0  0  0  0
  2  6  2  0  0  0  0
  3  8  2  0  0  0  0
  3 16  1  0  0  0  0
  4  9  1  0  0  0  0
  4 16  2  0  0  0  0
  5 18  1  0  0  0  0
  6 20  1  0  0  0  0
  7 10  2  0  0  0  0
  7 19  1  0  0  0  0
  8 22  1  0  0  0  0
  9 22  2  0  0  0  0
 10 23  1  0  0  0  0
 11 12  2  0  0  0  0
 11 24  1  0  0  0  0
 12 25  1  0  0  0  0
 13 21  1  0  0  0  0
 13 23  2  0  0  0  0
 14 25  2  0  0  0  0
 14 26  1  0  0  0  0
 15 28  2  0  0  0  0
 15 63  1  0  0  0  0
 16 27  1  0  0  0  0
 17 27  1  0  0  0  0
 17 29  2  0  0  0  0
 17 30  1  0  0  0  0
 18 20  2  0  0  0  0
 18 35  1  0  0  0  0
 19 21  2  0  0  0  0
 19 36  1  0  0  0  0
 20 46  1  0  0  0  0
 21 37  1  0  0  0  0
 22 79  1  0  0  0  0
 23 80  1  0  0  0  0
 24 26  2  0  0  0  0
 24 79  1  0  0  0  0
 25 81  1  0  0  0  0
 26 82  1  0  0  0  0
 27 60  2  0  0  0  0
 28 61  1  0  0  0  0
 28 65  1  0  0  0  0
 29 64  1  0  0  0  0
 29 68  1  0  0  0  0
 30 69  1  0  0  0  0
 30 74  2  0  0  0  0
 31 47  1  0  0  0  0
 31 70  1  0  0  0  0
 31 75  2  0  0  0  0
 32 57  1  0  0  0  0
 32 66  1  0  0  0  0
 32 76  2  0  0  0  0
 33 58  1  0  0  0  0
 33 71  1  0  0  0  0
 33 77  2  0  0  0  0
 34 67  1  0  0  0  0
 34 72  1  0  0  0  0
 34 78  2  0  0  0  0
 35 38  1  0  0  0  0
 36 47  1  0  0  0  0
 37 66  1  0  0  0  0
 38 40  1  0  0  0  0
 39 41  1  0  0  0  0
 39 42  1  0  0  0  0
 40 46  1  0  0  0  0
 41 48  1  0  0  0  0
 42 67  1  0  0  0  0
 43 48  1  0  0  0  0
 43 67  1  0  0  0  0
 44 49  1  0  0  0  0
 44 65  1  0  0  0  0
 45 49  1  0  0  0  0
 45 65  1  0  0  0  0
 46 70  1  0  0  0  0
 47 66  1  0  0  0  0
 48 64  1  0  0  0  0
 49 72  1  0  0  0  0
 50 58  1  0  0  0  0
 51 59  1  0  0  0  0
 52 59  1  0  0  0  0
 53 59  1  0  0  0  0
 54 73  1  0  0  0  0
 55 56  1  0  0  0  0
 55 63  1  0  0  0  0
 56 80  1  0  0  0  0
 57 59  1  0  0  0  0
 57 71  1  0  0  0  0
 58 73  1  0  0  0  0
 60 64  1  0  0  0  0
 61 62  2  0  0  0  0
 62 63  1  0  0  0  0
M  CHG  1  73   1
M  ISO  4  34 100  56 101  72 100  80 101
M  END
> <Batch ID>
0199

> <Smiles>
CNC(C)C(=O)NC(C(=O)N1Cc2cc([101O:1][101CH2:1]Cn3cc(N4CC([100NH:0][100C:0](=O)N5CCCC(n6nc(-c7ccc(Oc8ccc(F)cc8F)cc7)c(C(N)=O)c6N)C5)C4)nn3)ccc2CC1C(=O)NC1CCCc2ccccc21)C(C)(C)C

> <Shape>
0.238

> <Color>
0.059

> <Negative vol penalty>
0.000

$$$$

  -OEChem-04052323503D

 86 95  0     1  0  0  0  0  0999 V2000
  -21.3361  -25.4222   25.7488 C   0  0  0  0  0  0  0  0  0  0  0  0
  -22.3979  -25.3629   24.8519 C   0  0  0  0  0  0  0  0  0  0  0  0
  -23.5347   -9.8492   22.2858 C   0  0  0  0  0  0  0  0  0  0  0  0
  -24.5818   -8.6785   20.4500 C   0  0  0  0  0  0  0  0  0  0  0  0
  -20.0738  -25.8174   25.3079 C   0  0  0  0  0  0  0  0  0  0  0  0
  -22.1977  -25.6978   23.5131 C   0  0  0  0  0  0  0  0  0  0  0  0
  -25.8643  -28.6749   21.6861 C   0  0  0  0  0  0  0  0  0  0  0  0
  -22.4741   -8.9437   22.2583 C   0  0  0  0  0  0  0  0  0  0  0  0
  -23.5212   -7.7729   20.4226 C   0  0  0  0  0  0  0  0  0  0  0  0
  -27.0702  -28.0637   21.3454 C   0  0  0  0  0  0  0  0  0  0  0  0
  -21.2657   -4.9391   20.1056 C   0  0  0  0  0  0  0  0  0  0  0  0
  -21.5726   -3.5829   19.9955 C   0  0  0  0  0  0  0  0  0  0  0  0
  -26.4133  -28.0750   19.0243 C   0  0  0  0  0  0  0  0  0  0  0  0
  -22.8258   -3.6992   22.0579 C   0  0  0  0  0  0  0  0  0  0  0  0
  -24.5885   -9.7166   21.3815 C   0  0  0  0  0  0  0  0  0  0  0  0
  -26.8736  -10.5465   22.1545 C   0  0  0  0  0  0  0  0  0  0  0  0
  -19.8603  -26.1665   23.9651 C   0  0  0  0  0  0  0  0  0  0  0  0
  -24.9176  -28.9813   20.6980 C   0  0  0  0  0  0  0  0  0  0  0  0
  -20.9311  -26.0967   23.0535 C   0  0  0  0  0  0  0  0  0  0  0  0
  -25.1972  -28.6924   19.3547 C   0  0  0  0  0  0  0  0  0  0  0  0
  -22.4673   -7.9055   21.3268 C   0  0  0  0  0  0  0  0  0  0  0  0
  -27.3436  -27.7610   20.0147 C   0  0  0  0  0  0  0  0  0  0  0  0
  -21.7389   -5.6754   21.1917 C   0  0  0  0  0  0  0  0  0  0  0  0
  -22.3526   -2.9629   20.9717 C   0  0  0  0  0  0  0  0  0  0  0  0
  -22.5189   -5.0554   22.1678 C   0  0  0  0  0  0  0  0  0  0  0  0
  -25.6841  -10.6521   21.4090 C   0  0  0  0  0  0  0  0  0  0  0  0
  -27.5811  -11.6794   21.8345 C   0  0  0  0  0  0  0  0  0  0  0  0
  -30.1799  -21.4381   17.2665 C   0  0  0  0  0  0  0  0  0  0  0  0
  -29.0108  -20.7391   17.7252 C   0  0  0  0  0  0  0  0  0  0  0  0
  -30.8846  -22.1839   18.1221 C   0  0  0  0  0  0  0  0  0  0  0  0
  -28.6021  -20.8144   19.0012 C   0  0  0  0  0  0  0  0  0  0  0  0
  -29.3902  -21.6537   19.9735 C   0  0  0  0  0  0  0  0  0  0  0  0
  -27.3008   -9.5164   23.0557 C   0  0  0  0  0  0  0  0  0  0  0  0
  -21.9260  -28.0866   20.1034 C   0  0  0  0  0  0  0  0  0  0  0  0
  -22.1265  -30.3405   17.7792 C   0  0  0  0  0  0  0  0  0  0  0  0
  -24.1007  -32.1804   15.6902 C   0  0  0  0  0  0  0  0  0  0  0  0
  -25.5145  -16.9604   19.7483 C   0  0  0  0  0  0  0  0  0  0  0  0
  -18.4673  -26.5421   23.5253 C   0  0  0  0  0  0  0  0  0  0  0  0
  -23.6330  -29.6649   21.0787 C   0  0  0  0  0  0  0  0  0  0  0  0
  -24.2228  -29.0194   18.2538 C   0  0  0  0  0  0  0  0  0  0  0  0
  -18.4245  -27.2410   22.1688 C   0  0  0  0  0  0  0  0  0  0  0  0
  -28.1972  -14.8448   18.3038 C   0  0  0  0  0  0  0  0  0  0  0  0
  -19.2908  -26.4970   21.1575 C   0  0  0  0  0  0  0  0  0  0  0  0
  -27.9201  -13.5034   18.9842 C   0  0  0  0  0  0  0  0  0  0  0  0
  -26.1090  -20.4816   18.7790 C   0  0  0  0  0  0  0  0  0  0  0  0
  -26.9087  -15.6330   18.1075 C   0  0  0  0  0  0  0  0  0  0  0  0
  -25.1745  -19.3328   19.1253 C   0  0  0  0  0  0  0  0  0  0  0  0
  -27.4478  -18.5887   19.3205 C   0  0  0  0  0  0  0  0  0  0  0  0
  -25.8544  -14.5339   20.0458 C   0  0  0  0  0  0  0  0  0  0  0  0
  -20.7593  -26.4761   21.5986 C   0  0  1  0  0  0  0  0  0  0  0  0
  -27.3965  -20.1055   19.5165 C   0  0  1  0  0  0  0  0  0  0  0  0
  -22.5226  -29.4647   20.0519 C   0  0  1  0  0  0  0  0  0  0  0  0
  -27.1216  -13.6942   20.2866 C   0  0  1  0  0  0  0  0  0  0  0  0
  -23.9749  -33.9118   13.8780 C   0  0  0  0  0  0  0  0  0  0  0  0
  -21.2268  -28.1999   15.7997 C   0  0  0  0  0  0  0  0  0  0  0  0
  -22.0247  -29.6793   13.9442 C   0  0  0  0  0  0  0  0  0  0  0  0
  -20.1891  -30.4480   15.4482 C   0  0  0  0  0  0  0  0  0  0  0  0
  -25.6657  -34.1254   17.2797 C   0  0  0  0  0  0  0  0  0  0  0  0
  -30.5608  -24.2632   20.9742 C   0  0  0  0  0  0  0  0  0  0  0  0
  -29.9287  -25.2185   19.9614 C   0  0  0  0  0  0  0  0  0  0  0  0
  -31.3496  -23.1415   20.3060 C   0  0  0  0  0  0  0  0  0  0  0  0
  -29.1136  -26.3055   20.6507 C   0  0  0  0  0  0  0  0  0  1  0  0
  -22.5558  -30.3485   16.3319 C   0  0  1  0  0  0  0  0  0  0  0  0
  -24.1216  -33.6645   15.3714 C   0  0  2  0  0  0  0  0  0  0  0  0
  -21.5168  -29.6609   15.4017 C   0  0  0  0  0  0  0  0  0  0  0  0
  -25.6351  -11.7643   20.6711 N   0  0  0  0  0  0  0  0  0  0  0  0
  -26.8026  -12.3680   20.9514 N   0  0  0  0  0  0  0  0  0  0  0  0
  -30.5167  -22.3041   19.4500 N   0  0  0  0  0  0  0  0  0  0  0  0
  -22.9780  -29.6818   18.6773 N   0  0  0  0  0  0  0  0  0  0  0  0
  -26.1860  -15.7915   19.3725 N   0  0  0  0  0  0  0  0  0  0  0  0
  -26.0425  -18.1759   19.3154 N   0  0  0  0  0  0  0  0  0  0  0  0
  -28.7870  -12.1437   22.2252 N   0  0  0  0  0  0  0  0  0  0  0  0
  -26.4518   -8.4221   23.2703 N   0  0  0  0  0  0  0  0  0  0  0  0
  -21.3858  -27.7528   21.3307 N   0  0  0  0  0  0  0  0  0  0  0  0
  -22.8297  -31.7414   15.9951 N   0  0  0  0  0  0  0  0  0  0  0  0
  -25.4037  -34.2737   15.8250 N   0  3  0  0  0  0  0  0  0  0  0  0
  -29.0221  -21.7285   21.1458 O   0  0  0  0  0  0  0  0  0  0  0  0
  -28.3955   -9.5729   23.6655 O   0  0  0  0  0  0  0  0  0  0  0  0
  -21.9525  -27.3790   19.1032 O   0  0  0  0  0  0  0  0  0  0  0  0
  -21.0779  -30.9043   18.1020 O   0  0  0  0  0  0  0  0  0  0  0  0
  -25.1103  -31.4799   15.6671 O   0  0  0  0  0  0  0  0  0  0  0  0
  -24.5158  -16.9230   20.4793 O   0  0  0  0  0  0  0  0  0  0  0  0
  -21.4327   -7.0216   21.2999 O   0  0  0  0  0  0  0  0  0  0  0  0
  -28.5281  -27.1596   19.6771 O   0  0  0  0  0  0  0  0  0  1  0  0
  -22.6460   -1.6602   20.8667 F   0  0  0  0  0  0  0  0  0  0  0  0
  -22.9754   -5.7573   23.2142 F   0  0  0  0  0  0  0  0  0  0  0  0
  1  2  1  0  0  0  0
  1  5  2  0  0  0  0
  2  6  2  0  0  0  0
  3  8  2  0  0  0  0
  3 15  1  0  0  0  0
  4  9  1  0  0  0  0
  4 15  2  0  0  0  0
  5 17  1  0  0  0  0
  6 19  1  0  0  0  0
  7 10  2  0  0  0  0
  7 18  1  0  0  0  0
  8 21  1  0  0  0  0
  9 21  2  0  0  0  0
 10 22  1  0  0  0  0
 11 12  2  0  0  0  0
 11 23  1  0  0  0  0
 12 24  1  0  0  0  0
 13 20  1  0  0  0  0
 13 22  2  0  0  0  0
 14 24  2  0  0  0  0
 14 25  1  0  0  0  0
 15 26  1  0  0  0  0
 16 26  1  0  0  0  0
 16 27  2  0  0  0  0
 16 33  1  0  0  0  0
 17 19  2  0  0  0  0
 17 38  1  0  0  0  0
 18 20  2  0  0  0  0
 18 39  1  0  0  0  0
 19 50  1  0  0  0  0
 20 40  1  0  0  0  0
 21 83  1  0  0  0  0
 22 84  1  0  0  0  0
 23 25  2  0  0  0  0
 23 83  1  0  0  0  0
 24 85  1  0  0  0  0
 25 86  1  0  0  0  0
 26 66  2  0  0  0  0
 27 67  1  0  0  0  0
 27 72  1  0  0  0  0
 28 29  1  0  0  0  0
 28 30  2  0  0  0  0
 29 31  2  0  0  0  0
 30 68  1  0  0  0  0
 31 32  1  0  0  0  0
 31 51  1  0  0  0  0
 32 68  1  0  0  0  0
 32 77  2  0  0  0  0
 33 73  1  0  0  0  0
 33 78  2  0  0  0  0
 34 52  1  0  0  0  0
 34 74  1  0  0  0  0
 34 79  2  0  0  0  0
 35 63  1  0  0  0  0
 35 69  1  0  0  0  0
 35 80  2  0  0  0  0
 36 64  1  0  0  0  0
 36 75  1  0  0  0  0
 36 81  2  0  0  0  0
 37 70  1  0  0  0  0
 37 71  1  0  0  0  0
 37 82  2  0  0  0  0
 38 41  1  0  0  0  0
 39 52  1  0  0  0  0
 40 69  1  0  0  0  0
 41 43  1  0  0  0  0
 42 44  1  0  0  0  0
 42 46  1  0  0  0  0
 43 50  1  0  0  0  0
 44 53  1  0  0  0  0
 45 47  1  0  0  0  0
 45 51  1  0  0  0  0
 46 70  1  0  0  0  0
 47 71  1  0  0  0  0
 48 51  1  0  0  0  0
 48 71  1  0  0  0  0
 49 53  1  0  0  0  0
 49 70  1  0  0  0  0
 50 74  1  0  0  0  0
 52 69  1  0  0  0  0
 53 67  1  0  0  0  0
 54 64  1  0  0  0  0
 55 65  1  0  0  0  0
 56 65  1  0  0  0  0
 57 65  1  0  0  0  0
 58 76  1  0  0  0  0
 59 60  1  0  0  0  0
 59 61  1  0  0  0  0
 60 62  1  0  0  0  0
 61 68  1  0  0  0  0
 62 84  1  0  0  0  0
 63 65  1  0  0  0  0
 63 75  1  0  0  0  0
 64 76  1  0  0  0  0
 66 67  1  0  0  0  0
M  CHG  1  76   1
M  ISO  4  37 100  62 101  71 100  84 101
M  END
> <Batch ID>
0199

> <Smiles>
CNC(C)C(=O)NC(C(=O)N1Cc2cc([101O:1][101CH2:1]CCCn3cccc(C4CC[100N:0]([100C:0](=O)N5CCCC(n6nc(-c7ccc(Oc8ccc(F)cc8F)cc7)c(C(N)=O)c6N)C5)C4)c3=O)ccc2CC1C(=O)NC1CCCc2ccccc21)C(C)(C)C

> <Shape>
0.237

> <Color>
0.092

> <Negative vol penalty>
0.000

$$$$

  -OEChem-04052323503D

 85 94  0     1  0  0  0  0  0999 V2000
  -17.1376  -28.2502   24.3085 C   0  0  0  0  0  0  0  0  0  0  0  0
  -17.6639  -27.2701   23.4732 C   0  0  0  0  0  0  0  0  0  0  0  0
  -25.0040  -14.3864   20.4277 C   0  0  0  0  0  0  0  0  0  0  0  0
  -26.2088  -12.7766   21.7670 C   0  0  0  0  0  0  0  0  0  0  0  0
  -17.6499  -29.5463   24.2696 C   0  0  0  0  0  0  0  0  0  0  0  0
  -18.7022  -27.5858   22.5976 C   0  0  0  0  0  0  0  0  0  0  0  0
  -23.3246  -23.9436   20.9026 C   0  0  0  0  0  0  0  0  0  0  0  0
  -24.3000  -13.3499   19.8149 C   0  0  0  0  0  0  0  0  0  0  0  0
  -25.5048  -11.7400   21.1543 C   0  0  0  0  0  0  0  0  0  0  0  0
  -23.5321  -23.1565   19.7707 C   0  0  0  0  0  0  0  0  0  0  0  0
  -22.4464  -10.3232   21.3986 C   0  0  0  0  0  0  0  0  0  0  0  0
  -21.9393   -9.3140   22.2170 C   0  0  0  0  0  0  0  0  0  0  0  0
  -24.8118  -24.9408   18.7719 C   0  0  0  0  0  0  0  0  0  0  0  0
  -23.2599   -7.6814   21.0220 C   0  0  0  0  0  0  0  0  0  0  0  0
  -29.3214  -22.2202   16.7785 C   0  0  0  0  0  0  0  0  0  0  0  0
  -25.9585  -14.0998   21.4036 C   0  0  0  0  0  0  0  0  0  0  0  0
  -26.3253  -15.8702   23.2033 C   0  0  0  0  0  0  0  0  0  0  0  0
  -18.7015  -29.8757   23.4000 C   0  0  0  0  0  0  0  0  0  0  0  0
  -23.8509  -25.2415   20.9733 C   0  0  0  0  0  0  0  0  0  0  0  0
  -19.2282  -28.8879   22.5461 C   0  0  0  0  0  0  0  0  0  0  0  0
  -24.6118  -25.7414   19.9069 C   0  0  0  0  0  0  0  0  0  0  0  0
  -24.5504  -12.0266   20.1782 C   0  0  0  0  0  0  0  0  0  0  0  0
  -24.2734  -23.6561   18.7039 C   0  0  0  0  0  0  0  0  0  0  0  0
  -23.3602  -10.0116   20.3919 C   0  0  0  0  0  0  0  0  0  0  0  0
  -22.3460   -7.9931   22.0287 C   0  0  0  0  0  0  0  0  0  0  0  0
  -23.7670   -8.6907   20.2036 C   0  0  0  0  0  0  0  0  0  0  0  0
  -26.6864  -15.1701   22.0365 C   0  0  0  0  0  0  0  0  0  0  0  0
  -27.6725  -21.0734   15.6852 C   0  0  0  0  0  0  0  0  0  0  0  0
  -26.8049  -21.3306   16.7237 C   0  0  0  0  0  0  0  0  0  0  0  0
  -28.4537  -22.4781   17.8168 C   0  0  0  0  0  0  0  0  0  0  0  0
  -27.3387  -16.7792   23.3858 C   0  0  0  0  0  0  0  0  0  0  0  0
  -25.1766  -15.7129   24.0467 C   0  0  0  0  0  0  0  0  0  0  0  0
  -22.6078  -28.1543   21.2449 C   0  0  0  0  0  0  0  0  0  0  0  0
  -25.7190  -29.0339   21.5076 C   0  0  0  0  0  0  0  0  0  0  0  0
  -28.9944  -28.3256   20.8619 C   0  0  0  0  0  0  0  0  0  0  0  0
  -30.8565  -20.5828   21.3216 C   0  0  0  0  0  0  0  0  0  0  0  0
  -19.1906  -31.3019   23.3598 C   0  0  0  0  0  0  0  0  0  0  0  0
  -23.6407  -26.0679   22.2123 C   0  0  0  0  0  0  0  0  0  0  0  0
  -25.2155  -27.1209   19.9416 C   0  0  0  0  0  0  0  0  0  0  0  0
  -20.5432  -31.4628   22.6708 C   0  0  0  0  0  0  0  0  0  0  0  0
  -31.8469  -17.1969   21.1691 C   0  0  0  0  0  0  0  0  0  0  0  0
  -20.5691  -30.6867   21.3578 C   0  0  0  0  0  0  0  0  0  0  0  0
  -30.5648  -16.4160   21.4439 C   0  0  0  0  0  0  0  0  0  0  0  0
  -28.8879  -23.7182   21.2694 C   0  0  0  0  0  0  0  0  0  0  0  0
  -31.5569  -18.4329   20.3284 C   0  0  0  0  0  0  0  0  0  0  0  0
  -30.1591  -22.9421   21.5825 C   0  0  0  0  0  0  0  0  0  0  0  0
  -29.2654  -18.6010   21.2611 C   0  0  0  0  0  0  0  0  0  0  0  0
  -28.5760  -21.4654   20.5387 C   0  0  0  0  0  0  0  0  0  0  0  0
  -20.3715  -29.1855   21.6003 C   0  0  1  0  0  0  0  0  0  0  0  0
  -23.7887  -27.5658   21.9638 C   0  0  1  0  0  0  0  0  0  0  0  0
  -29.5059  -17.3226   22.0905 C   0  0  1  0  0  0  0  0  0  0  0  0
  -28.2532  -22.9027   20.1481 C   0  0  2  0  0  0  0  0  0  0  0  0
  -27.2450  -20.2905   14.4911 C   0  0  0  0  0  0  0  0  0  0  0  0
  -31.4899  -28.5800   20.9348 C   0  0  0  0  0  0  0  0  0  0  0  0
  -25.2194  -31.0174   19.2435 C   0  0  0  0  0  0  0  0  0  0  0  0
  -27.6993  -31.2074   18.9563 C   0  0  0  0  0  0  0  0  0  0  0  0
  -26.6381  -31.8961   21.1062 C   0  0  0  0  0  0  0  0  0  0  0  0
  -29.2003  -26.7338   23.3484 C   0  0  0  0  0  0  0  0  0  0  0  0
  -25.3985  -20.8376   16.7020 C   0  0  0  0  0  0  0  0  0  0  0  0
  -24.5231  -21.4771   17.7846 C   0  0  0  0  0  0  0  0  0  1  0  0
  -26.8013  -29.4384   20.5360 C   0  0  1  0  0  0  0  0  0  0  0  0
  -30.2255  -28.3560   21.7496 C   0  0  2  0  0  0  0  0  0  0  0  0
  -26.5766  -30.8645   19.9587 C   0  0  0  0  0  0  0  0  0  0  0  0
  -28.9464  -21.5132   15.6940 N   0  0  0  0  0  0  0  0  0  0  0  0
  -27.8391  -15.5978   21.5145 N   0  0  0  0  0  0  0  0  0  0  0  0
  -27.1798  -22.0378   17.8080 N   0  0  0  0  0  0  0  0  0  0  0  0
  -28.2110  -16.5765   22.3571 N   0  0  0  0  0  0  0  0  0  0  0  0
  -24.9766  -27.8927   21.1724 N   0  0  0  0  0  0  0  0  0  0  0  0
  -30.5289  -19.2771   20.9399 N   0  0  0  0  0  0  0  0  0  0  0  0
  -29.8596  -21.5550   21.2439 N   0  0  0  0  0  0  0  0  0  0  0  0
  -27.5597  -17.7242   24.3241 N   0  0  0  0  0  0  0  0  0  0  0  0
  -24.2331  -14.7313   23.7143 N   0  0  0  0  0  0  0  0  0  0  0  0
  -21.5971  -28.5858   22.0826 N   0  0  0  0  0  0  0  0  0  0  0  0
  -28.0669  -29.2723   21.2424 N   0  0  0  0  0  0  0  0  0  0  0  0
  -30.3639  -27.0687   22.4876 N   0  3  0  0  0  0  0  0  0  0  0  0
  -24.9841  -16.4328   25.0558 O   0  0  0  0  0  0  0  0  0  0  0  0
  -22.6138  -28.2139   20.0210 O   0  0  0  0  0  0  0  0  0  0  0  0
  -25.5437  -29.7015   22.5299 O   0  0  0  0  0  0  0  0  0  0  0  0
  -28.8698  -27.5430   19.9225 O   0  0  0  0  0  0  0  0  0  0  0  0
  -32.0053  -20.8792   21.6770 O   0  0  0  0  0  0  0  0  0  0  0  0
  -23.8634  -11.0149   19.5807 O   0  0  0  0  0  0  0  0  0  0  0  0
  -24.4783  -22.8849   17.5899 O   0  0  0  0  0  0  0  0  0  1  0  0
  -28.8721  -23.2009   18.9031 O   0  0  0  0  0  0  0  0  0  0  0  0
  -21.8601   -7.0242   22.8157 F   0  0  0  0  0  0  0  0  0  0  0  0
  -24.6455   -8.3854   19.2388 F   0  0  0  0  0  0  0  0  0  0  0  0
  1  2  1  0  0  0  0
  1  5  2  0  0  0  0
  2  6  2  0  0  0  0
  3  8  2  0  0  0  0
  3 16  1  0  0  0  0
  4  9  1  0  0  0  0
  4 16  2  0  0  0  0
  5 18  1  0  0  0  0
  6 20  1  0  0  0  0
  7 10  2  0  0  0  0
  7 19  1  0  0  0  0
  8 22  1  0  0  0  0
  9 22  2  0  0  0  0
 10 23  1  0  0  0  0
 11 12  2  0  0  0  0
 11 24  1  0  0  0  0
 12 25  1  0  0  0  0
 13 21  1  0  0  0  0
 13 23  2  0  0  0  0
 14 25  2  0  0  0  0
 14 26  1  0  0  0  0
 15 30  1  0  0  0  0
 15 64  2  0  0  0  0
 16 27  1  0  0  0  0
 17 27  1  0  0  0  0
 17 31  2  0  0  0  0
 17 32  1  0  0  0  0
 18 20  2  0  0  0  0
 18 37  1  0  0  0  0
 19 21  2  0  0  0  0
 19 38  1  0  0  0  0
 20 49  1  0  0  0  0
 21 39  1  0  0  0  0
 22 81  1  0  0  0  0
 23 82  1  0  0  0  0
 24 26  2  0  0  0  0
 24 81  1  0  0  0  0
 25 84  1  0  0  0  0
 26 85  1  0  0  0  0
 27 65  2  0  0  0  0
 28 29  2  0  0  0  0
 28 53  1  0  0  0  0
 28 64  1  0  0  0  0
 29 59  1  0  0  0  0
 29 66  1  0  0  0  0
 30 66  2  0  0  0  0
 30 83  1  0  0  0  0
 31 67  1  0  0  0  0
 31 71  1  0  0  0  0
 32 72  1  0  0  0  0
 32 76  2  0  0  0  0
 33 50  1  0  0  0  0
 33 73  1  0  0  0  0
 33 77  2  0  0  0  0
 34 61  1  0  0  0  0
 34 68  1  0  0  0  0
 34 78  2  0  0  0  0
 35 62  1  0  0  0  0
 35 74  1  0  0  0  0
 35 79  2  0  0  0  0
 36 69  1  0  0  0  0
 36 70  1  0  0  0  0
 36 80  2  0  0  0  0
 37 40  1  0  0  0  0
 38 50  1  0  0  0  0
 39 68  1  0  0  0  0
 40 42  1  0  0  0  0
 41 43  1  0  0  0  0
 41 45  1  0  0  0  0
 42 49  1  0  0  0  0
 43 51  1  0  0  0  0
 44 46  1  0  0  0  0
 44 52  1  0  0  0  0
 45 69  1  0  0  0  0
 46 70  1  0  0  0  0
 47 51  1  0  0  0  0
 47 69  1  0  0  0  0
 48 52  1  0  0  0  0
 48 70  1  0  0  0  0
 49 73  1  0  0  0  0
 50 68  1  0  0  0  0
 51 67  1  0  0  0  0
 52 83  1  0  0  0  0
 54 62  1  0  0  0  0
 55 63  1  0  0  0  0
 56 63  1  0  0  0  0
 57 63  1  0  0  0  0
 58 75  1  0  0  0  0
 59 60  1  0  0  0  0
 60 82  1  0  0  0  0
 61 63  1  0  0  0  0
 61 74  1  0  0  0  0
 62 75  1  0  0  0  0
 65 67  1  0  0  0  0
M  CHG  1  75   1
M  ISO  4  36 100  60 101  70 100  82 101
M  END
> <Batch ID>
0199

> <Smiles>
CNC(C)C(=O)NC(C(=O)N1Cc2cc([101O:1][101CH2:1]Cc3nc(OC4CC[100N:0]([100C:0](=O)N5CCCC(n6nc(-c7ccc(Oc8ccc(F)cc8F)cc7)c(C(N)=O)c6N)C5)C4)cnc3C)ccc2CC1C(=O)NC1CCCc2ccccc21)C(C)(C)C

> <Shape>
0.242

> <Color>
0.077

> <Negative vol penalty>
0.000

$$$$

  -OEChem-04052323503D

 83 91  0     1  0  0  0  0  0999 V2000
  -30.1678  -24.0282   18.8916 C   0  0  0  0  0  0  0  0  0  0  0  0
  -28.7806  -24.1323   18.9065 C   0  0  0  0  0  0  0  0  0  0  0  0
  -28.1432  -16.2329   20.4735 C   0  0  0  0  0  0  0  0  0  0  0  0
  -27.5083  -15.8633   22.7751 C   0  0  0  0  0  0  0  0  0  0  0  0
  -30.9230  -24.6488   19.8858 C   0  0  0  0  0  0  0  0  0  0  0  0
  -28.1477  -24.8562   19.9164 C   0  0  0  0  0  0  0  0  0  0  0  0
  -23.0456  -28.2042   19.4022 C   0  0  0  0  0  0  0  0  0  0  0  0
  -29.3759  -16.7323   20.8937 C   0  0  0  0  0  0  0  0  0  0  0  0
  -28.7411  -16.3627   23.1953 C   0  0  0  0  0  0  0  0  0  0  0  0
  -21.7122  -27.9351   19.7081 C   0  0  0  0  0  0  0  0  0  0  0  0
  -30.5917  -19.6200   22.1614 C   0  0  0  0  0  0  0  0  0  0  0  0
  -31.0546  -20.7907   21.5608 C   0  0  0  0  0  0  0  0  0  0  0  0
  -21.9902  -29.0183   21.8455 C   0  0  0  0  0  0  0  0  0  0  0  0
  -33.0122  -19.6132   20.7745 C   0  0  0  0  0  0  0  0  0  0  0  0
  -27.2094  -15.7984   21.4142 C   0  0  0  0  0  0  0  0  0  0  0  0
  -25.6182  -13.9451   20.6787 C   0  0  0  0  0  0  0  0  0  0  0  0
  -30.2996  -25.3887   20.9029 C   0  0  0  0  0  0  0  0  0  0  0  0
  -23.8656  -28.8740   20.3217 C   0  0  0  0  0  0  0  0  0  0  0  0
  -28.8952  -25.4861   20.9259 C   0  0  0  0  0  0  0  0  0  0  0  0
  -23.3329  -29.2970   21.5479 C   0  0  0  0  0  0  0  0  0  0  0  0
  -29.6749  -16.7972   22.2546 C   0  0  0  0  0  0  0  0  0  0  0  0
  -21.1851  -28.3396   20.9311 C   0  0  0  0  0  0  0  0  0  0  0  0
  -31.3391  -18.4459   22.0687 C   0  0  0  0  0  0  0  0  0  0  0  0
  -32.2648  -20.7873   20.8673 C   0  0  0  0  0  0  0  0  0  0  0  0
  -32.5493  -18.4425   21.3752 C   0  0  0  0  0  0  0  0  0  0  0  0
  -25.9356  -15.2829   20.9808 C   0  0  0  0  0  0  0  0  0  0  0  0
  -24.2929  -13.9793   20.3195 C   0  0  0  0  0  0  0  0  0  0  0  0
  -26.4471  -12.7760   20.7191 C   0  0  0  0  0  0  0  0  0  0  0  0
  -26.5209  -28.1415   21.9081 C   0  0  0  0  0  0  0  0  0  0  0  0
  -26.3631  -31.2480   22.8286 C   0  0  0  0  0  0  0  0  0  0  0  0
  -24.4449  -34.0234   23.3430 C   0  0  0  0  0  0  0  0  0  0  0  0
  -19.9261  -17.6747   21.7488 C   0  0  0  0  0  0  0  0  0  0  0  0
  -31.1551  -26.0024   21.9828 C   0  0  0  0  0  0  0  0  0  0  0  0
  -25.2945  -29.1803   19.9657 C   0  0  0  0  0  0  0  0  0  0  0  0
  -24.1658  -30.0371   22.5612 C   0  0  0  0  0  0  0  0  0  0  0  0
  -30.4292  -27.0637   22.8056 C   0  0  0  0  0  0  0  0  0  0  0  0
  -21.0098  -16.8778   18.3901 C   0  0  0  0  0  0  0  0  0  0  0  0
  -29.0475  -26.5663   23.2185 C   0  0  0  0  0  0  0  0  0  0  0  0
  -22.3769  -16.2451   18.6558 C   0  0  0  0  0  0  0  0  0  0  0  0
  -18.8641  -22.6628   23.2832 C   0  0  0  0  0  0  0  0  0  0  0  0
  -20.7444  -18.0424   19.3400 C   0  0  0  0  0  0  0  0  0  0  0  0
  -22.2224  -17.0652   21.0514 C   0  0  0  0  0  0  0  0  0  0  0  0
  -28.1734  -26.2832   21.9907 C   0  0  1  0  0  0  0  0  0  0  0  0
  -26.1776  -29.4145   21.1874 C   0  0  1  0  0  0  0  0  0  0  0  0
  -18.1395  -23.2736   22.1134 C   0  0  1  0  0  0  0  0  0  0  0  0
  -22.5395  -15.8662   20.1395 C   0  0  2  0  0  0  0  0  0  0  0  0
  -17.5243  -22.1219   22.8629 C   0  0  1  0  0  0  0  0  0  0  0  0
  -24.5914  -36.4000   24.1353 C   0  0  0  0  0  0  0  0  0  0  0  0
  -16.5351  -24.9544   21.1260 C   0  0  0  0  0  0  0  0  0  0  0  0
  -16.2369  -18.1136   21.6254 C   0  0  0  0  0  0  0  0  0  0  0  0
  -26.5485  -30.2723   25.7137 C   0  0  0  0  0  0  0  0  0  0  0  0
  -25.7460  -32.5253   26.4538 C   0  0  0  0  0  0  0  0  0  0  0  0
  -27.9008  -32.3160   25.2146 C   0  0  0  0  0  0  0  0  0  0  0  0
  -23.5173  -35.0718   20.7355 C   0  0  0  0  0  0  0  0  0  0  0  0
  -18.3259  -26.9816   22.7395 C   0  0  0  0  0  0  0  0  0  0  0  0
  -17.6484  -19.6393   23.1071 C   0  0  0  0  0  0  0  0  0  0  0  0
  -19.5401  -27.8832   22.6352 C   0  0  0  0  0  0  0  0  0  1  0  0
  -25.7214  -31.9921   23.9747 C   0  0  1  0  0  0  0  0  0  0  0  0
  -24.6381  -35.4717   22.9315 C   0  0  2  0  0  0  0  0  0  0  0  0
  -17.5406  -24.6661   22.2292 C   0  0  2  0  0  0  0  0  0  0  0  0
  -17.5717  -18.3232   22.3340 C   0  0  2  0  0  0  0  0  0  0  0  0
  -26.4637  -31.7608   25.3211 C   0  0  0  0  0  0  0  0  0  0  0  0
  -24.8957  -16.1070   20.8269 N   0  0  0  0  0  0  0  0  0  0  0  0
  -23.9120  -15.2848   20.4240 N   0  0  0  0  0  0  0  0  0  0  0  0
  -25.5590  -30.3075   22.1692 N   0  0  0  0  0  0  0  0  0  0  0  0
  -20.8970  -17.6100   20.7367 N   0  0  0  0  0  0  0  0  0  0  0  0
  -23.4279  -13.0198   19.9276 N   0  0  0  0  0  0  0  0  0  0  0  0
  -27.7853  -12.9190   21.1104 N   0  0  0  0  0  0  0  0  0  0  0  0
  -27.6620  -27.5194   21.4386 N   0  0  0  0  0  0  0  0  0  0  0  0
  -25.6497  -33.3903   23.5644 N   0  0  0  0  0  0  0  0  0  0  0  0
  -18.6921  -18.1990   21.3790 N   0  0  0  0  0  0  0  0  0  0  0  0
  -17.4973  -20.8148   22.1959 N   0  3  0  0  0  0  0  0  0  0  0  0
  -23.5711  -35.8858   21.9771 N   0  3  0  0  0  0  0  0  0  0  0  0
  -18.6418  -25.6624   22.1361 N   0  3  0  0  0  0  0  0  0  0  0  0
  -26.0184  -11.6407   20.4014 O   0  0  0  0  0  0  0  0  0  0  0  0
  -25.8044  -27.7533   22.8233 O   0  0  0  0  0  0  0  0  0  0  0  0
  -27.5324  -31.4972   22.5249 O   0  0  0  0  0  0  0  0  0  0  0  0
  -23.3361  -33.5064   23.4603 O   0  0  0  0  0  0  0  0  0  0  0  0
  -20.1352  -17.2881   22.9040 O   0  0  0  0  0  0  0  0  0  0  0  0
  -30.8778  -17.2843   22.6649 O   0  0  0  0  0  0  0  0  0  0  0  0
  -19.8842  -28.0775   21.2325 O   0  0  0  0  0  0  0  0  0  1  0  0
  -32.7084  -21.9112   20.2892 F   0  0  0  0  0  0  0  0  0  0  0  0
  -33.2711  -17.3173   21.2816 F   0  0  0  0  0  0  0  0  0  0  0  0
  1  2  1  0  0  0  0
  1  5  2  0  0  0  0
  2  6  2  0  0  0  0
  3  8  2  0  0  0  0
  3 15  1  0  0  0  0
  4  9  1  0  0  0  0
  4 15  2  0  0  0  0
  5 17  1  0  0  0  0
  6 19  1  0  0  0  0
  7 10  2  0  0  0  0
  7 18  1  0  0  0  0
  8 21  1  0  0  0  0
  9 21  2  0  0  0  0
 10 22  1  0  0  0  0
 11 12  2  0  0  0  0
 11 23  1  0  0  0  0
 12 24  1  0  0  0  0
 13 20  1  0  0  0  0
 13 22  2  0  0  0  0
 14 24  2  0  0  0  0
 14 25  1  0  0  0  0
 15 26  1  0  0  0  0
 16 26  1  0  0  0  0
 16 27  2  0  0  0  0
 16 28  1  0  0  0  0
 17 19  2  0  0  0  0
 17 33  1  0  0  0  0
 18 20  2  0  0  0  0
 18 34  1  0  0  0  0
 19 43  1  0  0  0  0
 20 35  1  0  0  0  0
 21 80  1  0  0  0  0
 22 81  1  0  0  0  0
 23 25  2  0  0  0  0
 23 80  1  0  0  0  0
 24 82  1  0  0  0  0
 25 83  1  0  0  0  0
 26 63  2  0  0  0  0
 27 64  1  0  0  0  0
 27 67  1  0  0  0  0
 28 68  1  0  0  0  0
 28 75  2  0  0  0  0
 29 44  1  0  0  0  0
 29 69  1  0  0  0  0
 29 76  2  0  0  0  0
 30 58  1  0  0  0  0
 30 65  1  0  0  0  0
 30 77  2  0  0  0  0
 31 59  1  0  0  0  0
 31 70  1  0  0  0  0
 31 78  2  0  0  0  0
 32 66  1  0  0  0  0
 32 71  1  0  0  0  0
 32 79  2  0  0  0  0
 33 36  1  0  0  0  0
 34 44  1  0  0  0  0
 35 65  1  0  0  0  0
 36 38  1  0  0  0  0
 37 39  1  0  0  0  0
 37 41  1  0  0  0  0
 38 43  1  0  0  0  0
 39 46  1  0  0  0  0
 40 45  1  0  0  0  0
 40 47  1  0  0  0  0
 41 66  1  0  0  0  0
 42 46  1  0  0  0  0
 42 66  1  0  0  0  0
 43 69  1  0  0  0  0
 44 65  1  0  0  0  0
 45 47  1  0  0  0  0
 45 60  1  0  0  0  0
 46 64  1  0  0  0  0
 47 72  1  0  0  0  0
 48 59  1  0  0  0  0
 49 60  1  0  0  0  0
 50 61  1  0  0  0  0
 51 62  1  0  0  0  0
 52 62  1  0  0  0  0
 53 62  1  0  0  0  0
 54 73  1  0  0  0  0
 55 57  1  0  0  0  0
 55 74  1  0  0  0  0
 56 61  1  0  0  0  0
 56 72  1  0  0  0  0
 57 81  1  0  0  0  0
 58 62  1  0  0  0  0
 58 70  1  0  0  0  0
 59 73  1  0  0  0  0
 60 74  1  0  0  0  0
 61 71  1  0  0  0  0
 63 64  1  0  0  0  0
M  CHG  3  72   1  73   1  74   1
M  ISO  4  32 100  57 101  71 100  81 101
M  END
> <Batch ID>
0199

> <Smiles>
CNC(C)C(=O)NC(C(=O)N1Cc2cc([101O:1][101CH2:1]CNC(C)C3CC3NCC(C)[100NH:0][100C:0](=O)N3CCCC(n4nc(-c5ccc(Oc6ccc(F)cc6F)cc5)c(C(N)=O)c4N)C3)ccc2CC1C(=O)NC1CCCc2ccccc21)C(C)(C)C

> <Shape>
0.258

> <Color>
0.063

> <Negative vol penalty>
0.000

$$$$

  -OEChem-04052323503D

 82 91  0     1  0  0  0  0  0999 V2000
  -27.7259  -34.0782   23.7624 C   0  0  0  0  0  0  0  0  0  0  0  0
  -27.9769  -32.7127   23.8503 C   0  0  0  0  0  0  0  0  0  0  0  0
  -22.7512  -10.5790   21.3402 C   0  0  0  0  0  0  0  0  0  0  0  0
  -24.6129   -9.0695   21.6445 C   0  0  0  0  0  0  0  0  0  0  0  0
  -26.4171  -34.5376   23.6210 C   0  0  0  0  0  0  0  0  0  0  0  0
  -26.9190  -31.8057   23.7980 C   0  0  0  0  0  0  0  0  0  0  0  0
  -27.8856  -27.8662   20.7663 C   0  0  0  0  0  0  0  0  0  0  0  0
  -21.8765   -9.4931   21.3047 C   0  0  0  0  0  0  0  0  0  0  0  0
  -23.7382   -7.9835   21.6090 C   0  0  0  0  0  0  0  0  0  0  0  0
  -28.7117  -26.8626   21.2703 C   0  0  0  0  0  0  0  0  0  0  0  0
  -21.5783   -6.4573   23.7129 C   0  0  0  0  0  0  0  0  0  0  0  0
  -21.7461   -5.4603   24.6738 C   0  0  0  0  0  0  0  0  0  0  0  0
  -26.7687  -25.5246   21.7739 C   0  0  0  0  0  0  0  0  0  0  0  0
  -22.1229   -3.8374   22.9241 C   0  0  0  0  0  0  0  0  0  0  0  0
  -24.1195  -10.3672   21.5100 C   0  0  0  0  0  0  0  0  0  0  0  0
  -25.4293  -12.2171   22.6803 C   0  0  0  0  0  0  0  0  0  0  0  0
  -25.3436  -33.6354   23.5572 C   0  0  0  0  0  0  0  0  0  0  0  0
  -26.4920  -27.7109   20.7723 C   0  0  0  0  0  0  0  0  0  0  0  0
  -25.5945  -32.2535   23.6569 C   0  0  0  0  0  0  0  0  0  0  0  0
  -25.9272  -26.5267   21.2671 C   0  0  0  0  0  0  0  0  0  0  0  0
  -22.3699   -8.1954   21.4391 C   0  0  0  0  0  0  0  0  0  0  0  0
  -28.1531  -25.6928   21.7769 C   0  0  0  0  0  0  0  0  0  0  0  0
  -21.6827   -6.1444   22.3575 C   0  0  0  0  0  0  0  0  0  0  0  0
  -22.0185   -4.1503   24.2794 C   0  0  0  0  0  0  0  0  0  0  0  0
  -21.9551   -4.8344   21.9632 C   0  0  0  0  0  0  0  0  0  0  0  0
  -25.0236  -11.4885   21.5462 C   0  0  0  0  0  0  0  0  0  0  0  0
  -26.2850  -13.1716   22.1872 C   0  0  0  0  0  0  0  0  0  0  0  0
  -25.0653  -12.0464   24.0566 C   0  0  0  0  0  0  0  0  0  0  0  0
  -24.0693  -29.2503   22.1379 C   0  0  0  0  0  0  0  0  0  0  0  0
  -22.2804  -27.2216   20.3473 C   0  0  0  0  0  0  0  0  0  0  0  0
  -22.0602  -24.2469   18.6891 C   0  0  0  0  0  0  0  0  0  0  0  0
  -27.5553  -17.0278   18.3792 C   0  0  0  0  0  0  0  0  0  0  0  0
  -23.9417  -34.1815   23.4514 C   0  0  0  0  0  0  0  0  0  0  0  0
  -25.6160  -28.7917   20.2005 C   0  0  0  0  0  0  0  0  0  0  0  0
  -24.4379  -26.3024   21.2776 C   0  0  0  0  0  0  0  0  0  0  0  0
  -22.9117  -33.1375   23.0276 C   0  0  0  0  0  0  0  0  0  0  0  0
  -28.4079  -13.6832   17.6436 C   0  0  0  0  0  0  0  0  0  0  0  0
  -23.0935  -31.8523   23.8289 C   0  0  0  0  0  0  0  0  0  0  0  0
  -27.6170  -12.8635   18.6598 C   0  0  0  0  0  0  0  0  0  0  0  0
  -23.9246  -19.7872   17.7256 C   0  0  0  0  0  0  0  0  0  0  0  0
  -23.3004  -19.6258   19.0815 C   0  0  0  0  0  0  0  0  0  0  0  0
  -25.8320  -20.1411   19.4720 C   0  0  0  0  0  0  0  0  0  0  0  0
  -27.5950  -14.8768   17.1606 C   0  0  0  0  0  0  0  0  0  0  0  0
  -26.3691  -14.9857   19.3144 C   0  0  0  0  0  0  0  0  0  0  0  0
  -25.2085  -17.8531   18.9113 C   0  0  0  0  0  0  0  0  0  0  0  0
  -24.4758  -31.2373   23.5792 C   0  0  1  0  0  0  0  0  0  0  0  0
  -24.1855  -28.7431   20.7283 C   0  0  1  0  0  0  0  0  0  0  0  0
  -27.1424  -13.7511   19.8211 C   0  0  1  0  0  0  0  0  0  0  0  0
  -27.1109  -19.3213   19.2541 C   0  0  1  0  0  0  0  0  0  0  0  0
  -24.7540  -19.2804   18.8812 C   0  0  0  0  0  0  0  0  0  0  0  0
  -20.4592  -22.8495   17.3544 C   0  0  0  0  0  0  0  0  0  0  0  0
  -20.8362  -26.4280   22.9153 C   0  0  0  0  0  0  0  0  0  0  0  0
  -19.9566  -24.4141   21.7157 C   0  0  0  0  0  0  0  0  0  0  0  0
  -19.3487  -26.6999   20.9233 C   0  0  0  0  0  0  0  0  0  0  0  0
  -23.8035  -24.3250   16.2988 C   0  0  0  0  0  0  0  0  0  0  0  0
  -28.0286  -19.3667   20.4703 C   0  0  0  0  0  0  0  0  0  0  0  0
  -29.6830  -22.4320   22.0524 C   0  0  0  0  0  0  0  0  0  0  0  0
  -29.3008  -20.9668   21.9055 C   0  0  0  0  0  0  0  0  0  0  0  0
  -28.4869  -23.3697   22.1613 C   0  0  0  0  0  0  0  0  0  1  0  0
  -21.6986  -25.8438   20.5529 C   0  0  1  0  0  0  0  0  0  0  0  0
  -21.5543  -23.9033   17.2997 C   0  0  2  0  0  0  0  0  0  0  0  0
  -20.4880  -25.8512   21.5285 C   0  0  0  0  0  0  0  0  0  0  0  0
  -25.5760  -11.9414   20.4176 N   0  0  0  0  0  0  0  0  0  0  0  0
  -26.3375  -12.9650   20.8401 N   0  0  0  0  0  0  0  0  0  0  0  0
  -23.6232  -27.3911   20.7134 N   0  0  0  0  0  0  0  0  0  0  0  0
  -27.1239  -15.6993   18.2759 N   0  0  0  0  0  0  0  0  0  0  0  0
  -26.6693  -17.9518   18.9461 N   0  0  0  0  0  0  0  0  0  0  0  0
  -26.9900  -14.1592   22.7788 N   0  0  0  0  0  0  0  0  0  0  0  0
  -24.1749  -11.0165   24.3893 N   0  0  0  0  0  0  0  0  0  0  0  0
  -24.5015  -30.5522   22.3047 N   0  0  0  0  0  0  0  0  0  0  0  0
  -21.3913  -25.3279   19.2233 N   0  0  0  0  0  0  0  0  0  0  0  0
  -22.6674  -23.3810   16.4576 N   0  3  0  0  0  0  0  0  0  0  0  0
  -28.4407  -20.7665   20.7045 N   0  3  0  0  0  0  0  0  0  0  0  0
  -25.5036  -12.7955   24.9622 O   0  0  0  0  0  0  0  0  0  0  0  0
  -23.6195  -28.5155   23.0093 O   0  0  0  0  0  0  0  0  0  0  0  0
  -21.5716  -28.1126   19.8726 O   0  0  0  0  0  0  0  0  0  0  0  0
  -22.9563  -23.6169   19.2464 O   0  0  0  0  0  0  0  0  0  0  0  0
  -28.6635  -17.3793   17.9542 O   0  0  0  0  0  0  0  0  0  0  0  0
  -21.5167   -7.1355   21.4048 O   0  0  0  0  0  0  0  0  0  0  0  0
  -28.9627  -24.7049   22.2735 O   0  0  0  0  0  0  0  0  0  1  0  0
  -22.1811   -3.1933   25.2023 F   0  0  0  0  0  0  0  0  0  0  0  0
  -22.0577   -4.5280   20.6626 F   0  0  0  0  0  0  0  0  0  0  0  0
  1  2  1  0  0  0  0
  1  5  2  0  0  0  0
  2  6  2  0  0  0  0
  3  8  2  0  0  0  0
  3 15  1  0  0  0  0
  4  9  1  0  0  0  0
  4 15  2  0  0  0  0
  5 17  1  0  0  0  0
  6 19  1  0  0  0  0
  7 10  2  0  0  0  0
  7 18  1  0  0  0  0
  8 21  1  0  0  0  0
  9 21  2  0  0  0  0
 10 22  1  0  0  0  0
 11 12  2  0  0  0  0
 11 23  1  0  0  0  0
 12 24  1  0  0  0  0
 13 20  1  0  0  0  0
 13 22  2  0  0  0  0
 14 24  2  0  0  0  0
 14 25  1  0  0  0  0
 15 26  1  0  0  0  0
 16 26  1  0  0  0  0
 16 27  2  0  0  0  0
 16 28  1  0  0  0  0
 17 19  2  0  0  0  0
 17 33  1  0  0  0  0
 18 20  2  0  0  0  0
 18 34  1  0  0  0  0
 19 46  1  0  0  0  0
 20 35  1  0  0  0  0
 21 79  1  0  0  0  0
 22 80  1  0  0  0  0
 23 25  2  0  0  0  0
 23 79  1  0  0  0  0
 24 81  1  0  0  0  0
 25 82  1  0  0  0  0
 26 63  2  0  0  0  0
 27 64  1  0  0  0  0
 27 68  1  0  0  0  0
 28 69  1  0  0  0  0
 28 74  2  0  0  0  0
 29 47  1  0  0  0  0
 29 70  1  0  0  0  0
 29 75  2  0  0  0  0
 30 60  1  0  0  0  0
 30 65  1  0  0  0  0
 30 76  2  0  0  0  0
 31 61  1  0  0  0  0
 31 71  1  0  0  0  0
 31 77  2  0  0  0  0
 32 66  1  0  0  0  0
 32 67  1  0  0  0  0
 32 78  2  0  0  0  0
 33 36  1  0  0  0  0
 34 47  1  0  0  0  0
 35 65  1  0  0  0  0
 36 38  1  0  0  0  0
 37 39  1  0  0  0  0
 37 43  1  0  0  0  0
 38 46  1  0  0  0  0
 39 48  1  0  0  0  0
 40 41  1  0  0  0  0
 40 50  1  0  0  0  0
 41 50  1  0  0  0  0
 42 49  1  0  0  0  0
 42 50  1  0  0  0  0
 43 66  1  0  0  0  0
 44 48  1  0  0  0  0
 44 66  1  0  0  0  0
 45 50  1  0  0  0  0
 45 67  1  0  0  0  0
 46 70  1  0  0  0  0
 47 65  1  0  0  0  0
 48 64  1  0  0  0  0
 49 56  1  0  0  0  0
 49 67  1  0  0  0  0
 51 61  1  0  0  0  0
 52 62  1  0  0  0  0
 53 62  1  0  0  0  0
 54 62  1  0  0  0  0
 55 72  1  0  0  0  0
 56 73  1  0  0  0  0
 57 58  1  0  0  0  0
 57 59  1  0  0  0  0
 58 73  1  0  0  0  0
 59 80  1  0  0  0  0
 60 62  1  0  0  0  0
 60 71  1  0  0  0  0
 61 72  1  0  0  0  0
 63 64  1  0  0  0  0
M  CHG  2  72   1  73   1
M  ISO  4  32 100  59 101  67 100  80 101
M  END
> <Batch ID>
0199

> <Smiles>
CNC(C)C(=O)NC(C(=O)N1Cc2cc([101O:1][101CH2:1]CCNCC3CC4(CC4)C[100N:0]3[100C:0](=O)N3CCCC(n4nc(-c5ccc(Oc6ccc(F)cc6F)cc5)c(C(N)=O)c4N)C3)ccc2CC1C(=O)NC1CCCc2ccccc21)C(C)(C)C

> <Shape>
0.269

> <Color>
0.096

> <Negative vol penalty>
0.000

$$$$

  -OEChem-04052323503D

 93102  0     1  0  0  0  0  0999 V2000
  -32.5926  -35.3434   23.5418 C   0  0  0  0  0  0  0  0  0  0  0  0
  -32.3398  -34.2386   24.3487 C   0  0  0  0  0  0  0  0  0  0  0  0
  -23.0804   -9.8573   19.8899 C   0  0  0  0  0  0  0  0  0  0  0  0
  -23.8037   -9.8028   22.1945 C   0  0  0  0  0  0  0  0  0  0  0  0
  -31.8417  -35.5465   22.3848 C   0  0  0  0  0  0  0  0  0  0  0  0
  -31.3351  -33.3369   23.9996 C   0  0  0  0  0  0  0  0  0  0  0  0
  -32.7970  -28.5134   24.4909 C   0  0  0  0  0  0  0  0  0  0  0  0
  -22.3244   -8.7041   20.0999 C   0  0  0  0  0  0  0  0  0  0  0  0
  -23.0476   -8.6496   22.4045 C   0  0  0  0  0  0  0  0  0  0  0  0
  -32.8160  -27.9820   25.7797 C   0  0  0  0  0  0  0  0  0  0  0  0
  -20.4888   -5.5692   19.9360 C   0  0  0  0  0  0  0  0  0  0  0  0
  -20.5596   -4.5615   18.9743 C   0  0  0  0  0  0  0  0  0  0  0  0
  -30.6956  -26.9100   25.3625 C   0  0  0  0  0  0  0  0  0  0  0  0
  -28.3987  -21.5008   26.8288 C   0  0  0  0  0  0  0  0  0  0  0  0
  -22.9373   -4.3649   19.3553 C   0  0  0  0  0  0  0  0  0  0  0  0
  -29.3642  -19.0063   26.2895 C   0  0  0  0  0  0  0  0  0  0  0  0
  -23.8202  -10.4066   20.9372 C   0  0  0  0  0  0  0  0  0  0  0  0
  -24.1820  -12.9313   20.8843 C   0  0  0  0  0  0  0  0  0  0  0  0
  -30.8337  -34.6417   22.0162 C   0  0  0  0  0  0  0  0  0  0  0  0
  -31.7200  -28.2556   23.6305 C   0  0  0  0  0  0  0  0  0  0  0  0
  -30.5691  -33.5289   22.8372 C   0  0  0  0  0  0  0  0  0  0  0  0
  -30.6665  -27.4373   24.0624 C   0  0  0  0  0  0  0  0  0  0  0  0
  -27.6136  -20.6062   26.1099 C   0  0  0  0  0  0  0  0  0  0  0  0
  -28.0982  -19.3332   25.8310 C   0  0  0  0  0  0  0  0  0  0  0  0
  -22.3080   -8.1002   21.3572 C   0  0  0  0  0  0  0  0  0  0  0  0
  -31.7639  -27.1825   26.2167 C   0  0  0  0  0  0  0  0  0  0  0  0
  -21.6422   -5.9749   20.6074 C   0  0  0  0  0  0  0  0  0  0  0  0
  -21.7838   -3.9593   18.6840 C   0  0  0  0  0  0  0  0  0  0  0  0
  -22.8664   -5.3727   20.3171 C   0  0  0  0  0  0  0  0  0  0  0  0
  -24.6018  -11.5976   20.7208 C   0  0  0  0  0  0  0  0  0  0  0  0
  -29.6511  -21.0768   27.2428 C   0  0  0  0  0  0  0  0  0  0  0  0
  -25.2852  -13.6811   20.5567 C   0  0  0  0  0  0  0  0  0  0  0  0
  -22.9088  -13.4464   21.2956 C   0  0  0  0  0  0  0  0  0  0  0  0
  -29.5274  -30.0447   22.1830 C   0  0  0  0  0  0  0  0  0  0  0  0
  -28.7314  -27.2356   20.7696 C   0  0  0  0  0  0  0  0  0  0  0  0
  -28.7469  -23.8250   20.8899 C   0  0  0  0  0  0  0  0  0  0  0  0
  -30.6549  -14.7387   20.6923 C   0  0  0  0  0  0  0  0  0  0  0  0
  -30.0166  -34.9287   20.7814 C   0  0  0  0  0  0  0  0  0  0  0  0
  -31.7273  -28.8144   22.2341 C   0  0  0  0  0  0  0  0  0  0  0  0
  -29.4968  -27.1137   23.1705 C   0  0  0  0  0  0  0  0  0  0  0  0
  -29.2215  -33.7244   20.2837 C   0  0  0  0  0  0  0  0  0  0  0  0
  -29.6536  -12.3617   18.3899 C   0  0  0  0  0  0  0  0  0  0  0  0
  -28.5032  -33.0425   21.4438 C   0  0  0  0  0  0  0  0  0  0  0  0
  -28.2120  -12.0512   18.7926 C   0  0  0  0  0  0  0  0  0  0  0  0
  -29.0242  -17.8753   21.8009 C   0  0  0  0  0  0  0  0  0  0  0  0
  -28.5183  -16.0567   23.4699 C   0  0  0  0  0  0  0  0  0  0  0  0
  -30.5437  -12.5098   19.6185 C   0  0  0  0  0  0  0  0  0  0  0  0
  -30.2446  -17.0848   21.3374 C   0  0  0  0  0  0  0  0  0  0  0  0
  -29.7505  -15.3037   22.9792 C   0  0  0  0  0  0  0  0  0  0  0  0
  -28.6284  -13.2469   20.9983 C   0  0  0  0  0  0  0  0  0  0  0  0
  -29.5043  -32.5151   22.4789 C   0  0  1  0  0  0  0  0  0  0  0  0
  -30.3336  -28.9082   21.6208 C   0  0  1  0  0  0  0  0  0  0  0  0
  -28.6715  -17.5695   23.2623 C   0  0  0  0  0  0  0  0  0  0  0  0
  -27.6806  -13.0942   19.7917 C   0  0  2  0  0  0  0  0  0  0  0  0
  -26.3168  -22.2774   24.7639 C   0  0  0  0  0  0  0  0  0  0  0  0
  -27.9883  -21.8052   19.6084 C   0  0  0  0  0  0  0  0  0  0  0  0
  -25.8684  -27.7188   21.7077 C   0  0  0  0  0  0  0  0  0  0  0  0
  -25.3864  -25.3041   21.2546 C   0  0  0  0  0  0  0  0  0  0  0  0
  -26.0662  -26.8104   19.3860 C   0  0  0  0  0  0  0  0  0  0  0  0
  -26.4472  -17.4800   25.8385 C   0  0  0  0  0  0  0  0  0  0  0  0
  -31.5206  -22.8447   20.5665 C   0  0  0  0  0  0  0  0  0  0  0  0
  -26.2594  -21.0366   25.6499 C   0  0  0  0  0  0  0  0  0  0  0  0
  -27.4017  -18.3067   23.6812 C   0  0  0  0  0  0  0  0  0  0  0  0
  -31.7452  -21.6845   28.4557 C   0  0  0  0  0  0  0  0  0  0  0  0
  -32.3083  -22.8496   29.2474 C   0  0  0  0  0  0  0  0  0  0  0  0
  -32.9339  -25.2601   29.0554 C   0  0  0  0  0  0  0  0  0  0  0  0
  -33.0554  -26.3866   28.0482 C   0  0  0  0  0  0  0  0  0  1  0  0
  -27.7879  -26.1036   21.0972 C   0  0  1  0  0  0  0  0  0  0  0  0
  -29.1274  -22.7823   19.8543 C   0  0  2  0  0  0  0  0  0  0  0  0
  -26.2982  -26.4917   20.8791 C   0  0  0  0  0  0  0  0  0  0  0  0
  -30.1560  -19.8483   26.9907 N   0  0  0  0  0  0  0  0  0  0  0  0
  -25.8724  -11.5023   20.3203 N   0  0  0  0  0  0  0  0  0  0  0  0
  -26.2606  -12.7857   20.2293 N   0  0  0  0  0  0  0  0  0  0  0  0
  -29.5469  -27.6888   21.8162 N   0  0  0  0  0  0  0  0  0  0  0  0
  -30.0030  -13.5051   20.5441 N   0  0  0  0  0  0  0  0  0  0  0  0
  -30.0838  -15.6539   21.5920 N   0  0  0  0  0  0  0  0  0  0  0  0
  -25.5063  -15.0123   20.5196 N   0  0  0  0  0  0  0  0  0  0  0  0
  -21.8851  -12.5370   21.5946 N   0  0  0  0  0  0  0  0  0  0  0  0
  -30.4398  -21.9994   27.9740 N   0  0  0  0  0  0  0  0  0  0  0  0
  -30.1109  -31.2859   22.0146 N   0  0  0  0  0  0  0  0  0  0  0  0
  -28.2300  -24.9614   20.3045 N   0  0  0  0  0  0  0  0  0  0  0  0
  -27.3396  -18.3916   25.1016 N   0  0  3  0  0  0  0  0  0  0  0  0
  -30.3184  -22.0108   20.3094 N   0  3  0  0  0  0  0  0  0  0  0  0
  -32.4415  -24.0362   28.3666 N   0  3  0  0  0  0  0  0  0  0  0  0
  -22.6805  -14.6770   21.3793 O   0  0  0  0  0  0  0  0  0  0  0  0
  -28.4546  -29.8128   22.7280 O   0  0  0  0  0  0  0  0  0  0  0  0
  -28.7494  -27.6959   19.6252 O   0  0  0  0  0  0  0  0  0  0  0  0
  -28.8903  -23.6477   22.0976 O   0  0  0  0  0  0  0  0  0  0  0  0
  -31.6818  -15.0103   20.0576 O   0  0  0  0  0  0  0  0  0  0  0  0
  -21.5702   -6.9750   21.5625 O   0  0  0  0  0  0  0  0  0  0  0  0
  -31.7798  -26.6594   27.4834 O   0  0  0  0  0  0  0  0  0  1  0  0
  -21.8514   -2.9904   17.7615 F   0  0  0  0  0  0  0  0  0  0  0  0
  -23.9778   -5.7574   20.9596 F   0  0  0  0  0  0  0  0  0  0  0  0
  1  2  1  0  0  0  0
  1  5  2  0  0  0  0
  2  6  2  0  0  0  0
  3  8  2  0  0  0  0
  3 17  1  0  0  0  0
  4  9  1  0  0  0  0
  4 17  2  0  0  0  0
  5 19  1  0  0  0  0
  6 21  1  0  0  0  0
  7 10  2  0  0  0  0
  7 20  1  0  0  0  0
  8 25  1  0  0  0  0
  9 25  2  0  0  0  0
 10 26  1  0  0  0  0
 11 12  2  0  0  0  0
 11 27  1  0  0  0  0
 12 28  1  0  0  0  0
 13 22  1  0  0  0  0
 13 26  2  0  0  0  0
 14 23  1  0  0  0  0
 14 31  2  0  0  0  0
 15 28  2  0  0  0  0
 15 29  1  0  0  0  0
 16 24  1  0  0  0  0
 16 71  2  0  0  0  0
 17 30  1  0  0  0  0
 18 30  1  0  0  0  0
 18 32  2  0  0  0  0
 18 33  1  0  0  0  0
 19 21  2  0  0  0  0
 19 38  1  0  0  0  0
 20 22  2  0  0  0  0
 20 39  1  0  0  0  0
 21 51  1  0  0  0  0
 22 40  1  0  0  0  0
 23 24  2  0  0  0  0
 23 62  1  0  0  0  0
 24 82  1  0  0  0  0
 25 90  1  0  0  0  0
 26 91  1  0  0  0  0
 27 29  2  0  0  0  0
 27 90  1  0  0  0  0
 28 92  1  0  0  0  0
 29 93  1  0  0  0  0
 30 72  2  0  0  0  0
 31 71  1  0  0  0  0
 31 79  1  0  0  0  0
 32 73  1  0  0  0  0
 32 77  1  0  0  0  0
 33 78  1  0  0  0  0
 33 85  2  0  0  0  0
 34 52  1  0  0  0  0
 34 80  1  0  0  0  0
 34 86  2  0  0  0  0
 35 68  1  0  0  0  0
 35 74  1  0  0  0  0
 35 87  2  0  0  0  0
 36 69  1  0  0  0  0
 36 81  1  0  0  0  0
 36 88  2  0  0  0  0
 37 75  1  0  0  0  0
 37 76  1  0  0  0  0
 37 89  2  0  0  0  0
 38 41  1  0  0  0  0
 39 52  1  0  0  0  0
 40 74  1  0  0  0  0
 41 43  1  0  0  0  0
 42 44  1  0  0  0  0
 42 47  1  0  0  0  0
 43 51  1  0  0  0  0
 44 54  1  0  0  0  0
 45 48  1  0  0  0  0
 45 53  1  0  0  0  0
 46 49  1  0  0  0  0
 46 53  1  0  0  0  0
 47 75  1  0  0  0  0
 48 76  1  0  0  0  0
 49 76  1  0  0  0  0
 50 54  1  0  0  0  0
 50 75  1  0  0  0  0
 51 80  1  0  0  0  0
 52 74  1  0  0  0  0
 53 63  1  0  0  0  0
 54 73  1  0  0  0  0
 55 62  1  0  0  0  0
 56 69  1  0  0  0  0
 57 70  1  0  0  0  0
 58 70  1  0  0  0  0
 59 70  1  0  0  0  0
 60 82  1  0  0  0  0
 61 83  1  0  0  0  0
 63 82  1  0  0  0  0
 64 65  1  0  0  0  0
 64 79  1  0  0  0  0
 65 84  1  0  0  0  0
 66 67  1  0  0  0  0
 66 84  1  0  0  0  0
 67 91  1  0  0  0  0
 68 70  1  0  0  0  0
 68 81  1  0  0  0  0
 69 83  1  0  0  0  0
 72 73  1  0  0  0  0
M  CHG  2  83   1  84   1
M  ISO  4  37 100  67 101  76 100  91 101
M  END
> <Batch ID>
0199

> <Smiles>
CCc1cc(NCCNC[101CH2:1][101O:1]c2ccc3c(c2)CN(C(=O)C(NC(=O)C(C)NC)C(C)(C)C)C(C(=O)NC2CCCc4ccccc42)C3)ncc1N(C)CC1CC[100N:0]([100C:0](=O)N2CCCC(n3nc(-c4ccc(Oc5ccc(F)cc5F)cc4)c(C(N)=O)c3N)C2)CC1

> <Shape>
0.213

> <Color>
0.185

> <Negative vol penalty>
0.000

$$$$
