0
     RDKit          3D

156164  0  0  0  0  0  0  0  0999 V2000
  -30.7652  -14.3608   20.6636 C   0  0  0  0  0  0  0  0  0100  0  0
  -30.4392  -12.2669   19.3775 C   0  0  0  0  0  0  0  0  0101  0  0
  -29.4791  -12.5281   18.1977 C   0  0  0  0  0  0  0  0  0102  0  0
  -27.9985  -12.3963   18.6038 C   0  0  0  0  0  0  0  0  0103  0  0
  -27.6639  -13.2170   19.8820 C   0  0  2  0  0  0  0  0  0104  0  0
  -28.6795  -12.9602   21.0279 C   0  0  0  0  0  0  0  0  0105  0  0
  -25.2633  -13.8245   20.5754 C   0  0  0  0  0  0  0  0  0106  0  0
  -24.1645  -13.0409   20.9408 C   0  0  0  0  0  0  0  0  0107  0  0
  -24.6400  -11.7009   20.8697 C   0  0  0  0  0  0  0  0  0108  0  0
  -23.9005  -10.4085   21.0420 C   0  0  0  0  0  0  0  0  0109  0  0
  -24.3588   -9.4123   21.9123 C   0  0  0  0  0  0  0  0  0110  0  0
  -23.6296   -8.2350   22.0803 C   0  0  0  0  0  0  0  0  0111  0  0
  -22.4385   -8.0419   21.3657 C   0  0  0  0  0  0  0  0  0112  0  0
  -22.0103   -9.0167   20.4678 C   0  0  0  0  0  0  0  0  0113  0  0
  -22.7317  -10.1925   20.3102 C   0  0  0  0  0  0  0  0  0114  0  0
  -21.6857   -6.0709   22.5391 C   0  0  0  0  0  0  0  0  0115  0  0
  -21.4064   -6.5490   23.8264 C   0  0  0  0  0  0  0  0  0116  0  0
  -21.3635   -5.6677   24.9085 C   0  0  0  0  0  0  0  0  0117  0  0
  -21.5973   -4.3067   24.7088 C   0  0  0  0  0  0  0  0  0118  0  0
  -21.8700   -3.8284   23.4282 C   0  0  0  0  0  0  0  0  0119  0  0
  -21.9144   -4.7056   22.3460 C   0  0  0  0  0  0  0  0  0120  0  0
  -22.8194  -13.5263   21.1763 C   0  0  0  0  0  0  0  0  0121  0  0
  -22.1559   -4.2206   21.1063 F   0  0  0  0  0  0  0  0  0122  0  0
  -21.5628   -3.4510   25.7555 F   0  0  0  0  0  0  0  0  0123  0  0
  -30.0261  -13.1803   20.4553 N   0  0  0  0  0  0  0  0  0124  0  0
  -26.2911  -12.9356   20.3443 N   0  0  0  0  0  0  0  0  0125  0  0
  -25.9236  -11.6675   20.5847 N   0  0  0  0  0  0  0  0  0126  0  0
  -22.0708  -12.7905   22.0005 N   0  0  0  0  0  0  0  0  0127  0  0
  -25.4117  -15.1773   20.4097 N   0  0  0  0  0  0  0  0  0128  0  0
  -31.7916  -14.6724   20.0536 O   0  0  0  0  0  0  0  0  0129  0  0
  -21.6670   -6.9022   21.4423 O   0  0  0  0  0  0  0  0  0130  0  0
  -22.3946  -14.5564   20.6568 O   0  0  0  0  0  0  0  0  0131  0  0
  -24.6048  -31.8614   23.2223 C   0  0  0  0  0  0  0  0  0100  0  0
  -25.8822  -32.4841   23.8616 C   0  0  1  0  0  0  0  0  0101  0  0
  -27.2536  -27.5042   20.1156 C   0  0  0  0  0  0  0  0  0102  0  0
  -25.5726  -33.8762   24.2210 N   0  0  0  0  0  0  0  0  0103  0  0
  -23.4066  -30.4859   21.5461 C   0  0  2  0  0  0  0  0  0104  0  0
  -24.8467  -28.9636   20.1247 C   0  0  0  0  0  0  0  0  0105  0  0
  -22.7412  -29.4652   22.5052 C   0  0  0  0  0  0  0  0  0106  0  0
  -18.0167  -28.1302   22.8626 C   0  0  0  0  0  0  0  0  0107  0  0
  -24.1342  -36.7390   23.2568 C   0  0  0  0  0  0  0  0  0108  0  0
  -25.9141  -30.8882   21.3456 C   0  0  0  0  0  0  0  0  0109  0  0
  -25.9930  -29.5029   20.7208 C   0  0  0  0  0  0  0  0  0110  0  0
  -27.1758  -28.7612   20.7331 C   0  0  0  0  0  0  0  0  0111  0  0
  -26.1032  -26.9836   19.5230 C   0  0  0  0  0  0  0  0  0112  0  0
  -24.9097  -27.7011   19.5331 C   0  0  0  0  0  0  0  0  0113  0  0
  -23.5715  -29.7899   20.1582 C   0  0  0  0  0  0  0  0  0114  0  0
  -25.3990  -36.3212   24.0232 C   0  0  1  0  0  0  0  0  0115  0  0
  -20.5793  -28.3813   23.1004 C   0  0  2  0  0  0  0  0  0116  0  0
  -20.6548  -26.9392   22.5411 C   0  0  0  0  0  0  0  0  0117  0  0
  -19.5615  -26.6407   21.5143 C   0  0  0  0  0  0  0  0  0118  0  0
  -18.1797  -26.7818   22.1673 C   0  0  0  0  0  0  0  0  0119  0  0
  -19.1385  -28.8769   23.2988 C   0  0  0  0  0  0  0  0  0120  0  0
  -18.9183  -30.1286   23.8878 C   0  0  0  0  0  0  0  0  0121  0  0
  -17.6396  -30.6493   24.0352 C   0  0  0  0  0  0  0  0  0122  0  0
  -25.9153  -34.9582   23.4993 C   0  0  0  0  0  0  0  0  0123  0  0
  -16.5415  -29.9068   23.6254 C   0  0  0  0  0  0  0  0  0124  0  0
  -16.7331  -28.6521   23.0586 C   0  0  0  0  0  0  0  0  0125  0  0
  -26.4583  -31.6439   25.0683 C   0  0  0  0  0  0  0  0  0126  0  0
  -25.3807  -31.3179   26.1374 C   0  0  0  0  0  0  0  0  0127  0  0
  -27.0530  -30.3024   24.5680 C   0  0  0  0  0  0  0  0  0128  0  0
  -27.6014  -32.4281   25.7651 C   0  0  0  0  0  0  0  0  0129  0  0
  -27.5629  -37.2220   24.8621 C   0  0  0  0  0  0  0  0  0130  0  0
  -21.4133  -29.3375   22.3735 N   0  0  0  0  0  0  0  0  0131  0  0
  -26.4706  -37.3372   23.9061 N   0  0  0  0  0  0  0  0  0132  0  0
  -24.6674  -31.0544   22.1178 N   0  0  0  0  0  0  0  0  0133  0  0
  -23.4259  -28.8150   23.2971 O   0  0  0  0  0  0  0  0  0134  0  0
  -28.3948  -26.7345   20.0089 O   0  0  0  0  0  0  0  0  0135  0  0
  -26.5870  -34.9065   22.4671 O   0  0  0  0  0  0  0  0  0136  0  0
  -23.5365  -32.1254   23.7833 O   0  0  0  0  0  0  0  0  0137  0  0
  -20.6403  -27.2976   22.2430 C   0  0  0  0  0  0  0  0  0  0  0  0
  -19.4367  -27.0626   21.5518 C   0  0  0  0  0  0  0  0  0  0  0  0
  -20.9071  -26.1110   22.8813 C   0  0  0  0  0  0  0  0  0  0  0  0
  -18.6874  -28.0003   20.6971 C   0  0  0  0  0  0  0  0  0  0  0  0
  -22.0184  -25.7081   23.7637 C   0  0  0  0  0  0  0  0  0  0  0  0
  -21.5408  -29.1418   23.6989 C   0  0  0  0  0  0  0  0  0  0  0  0
  -22.8686  -28.3712   21.6979 C   0  0  0  0  0  0  0  0  0  1  0  0
  -19.7080  -23.8437   22.9900 C   0  0  0  0  0  0  0  0  0  0  0  0
  -21.4626  -28.5762   22.2781 C   0  0  1  0  0  0  0  0  0  0  0  0
  -18.9710  -25.8240   21.7336 N   0  0  0  0  0  0  0  0  0  0  0  0
  -19.8869  -25.2700   22.5463 N   0  0  0  0  0  0  0  0  0  0  0  0
  -20.5890  -22.9414   22.2653 N   0  0  0  0  0  0  0  0  0  0  0  0
  -31.4485  -12.4701   19.0860 H   0  0  0  0  0  0  0  0  0  0  0  0
  -30.3970  -11.2460   19.6950 H   0  0  0  0  0  0  0  0  0  0  0  0
  -29.6870  -11.8204   17.4226 H   0  0  0  0  0  0  0  0  0  0  0  0
  -29.6375  -13.5326   17.8649 H   0  0  0  0  0  0  0  0  0  0  0  0
  -27.7830  -11.3650   18.7904 H   0  0  0  0  0  0  0  0  0  0  0  0
  -27.4028  -12.7801   17.8021 H   0  0  0  0  0  0  0  0  0  0  0  0
  -27.7353  -14.2503   19.6136 H   0  0  0  0  0  0  0  0  0  0  0  0
  -28.5890  -11.9550   21.3832 H   0  0  0  0  0  0  0  0  0  0  0  0
  -28.5005  -13.6134   21.8562 H   0  0  0  0  0  0  0  0  0  0  0  0
  -25.2399   -9.5495   22.4318 H   0  0  0  0  0  0  0  0  0  0  0  0
  -23.9663   -7.5070   22.7297 H   0  0  0  0  0  0  0  0  0  0  0  0
  -21.1515   -8.8641   19.9162 H   0  0  0  0  0  0  0  0  0  0  0  0
  -22.4016  -10.9115   19.6476 H   0  0  0  0  0  0  0  0  0  0  0  0
  -21.2319   -7.5552   23.9750 H   0  0  0  0  0  0  0  0  0  0  0  0
  -21.1589   -6.0228   25.8556 H   0  0  0  0  0  0  0  0  0  0  0  0
  -22.0396   -2.8212   23.2809 H   0  0  0  0  0  0  0  0  0  0  0  0
  -22.4401  -11.9703   22.4008 H   0  0  0  0  0  0  0  0  0  0  0  0
  -21.1493  -13.0679   22.2082 H   0  0  0  0  0  0  0  0  0  0  0  0
  -24.6538  -15.7807   20.5848 H   0  0  0  0  0  0  0  0  0  0  0  0
  -26.2762  -15.5453   20.1156 H   0  0  0  0  0  0  0  0  0  0  0  0
  -26.6778  -32.4663   23.1464 H   0  0  0  0  0  0  0  0  0  0  0  0
  -25.0747  -34.0282   25.0566 H   0  0  0  0  0  0  0  0  0  0  0  0
  -22.7881  -31.3489   21.4131 H   0  0  0  0  0  0  0  0  0  0  0  0
  -23.3854  -35.9823   23.3648 H   0  0  0  0  0  0  0  0  0  0  0  0
  -24.3696  -36.8624   22.2204 H   0  0  0  0  0  0  0  0  0  0  0  0
  -23.7669  -37.6632   23.6516 H   0  0  0  0  0  0  0  0  0  0  0  0
  -25.9445  -31.6237   20.5691 H   0  0  0  0  0  0  0  0  0  0  0  0
  -26.7436  -31.0079   22.0108 H   0  0  0  0  0  0  0  0  0  0  0  0
  -28.0090  -29.1452   21.2057 H   0  0  0  0  0  0  0  0  0  0  0  0
  -26.1369  -26.0560   19.0719 H   0  0  0  0  0  0  0  0  0  0  0  0
  -24.0652  -27.2961   19.0997 H   0  0  0  0  0  0  0  0  0  0  0  0
  -23.6156  -30.5365   19.3930 H   0  0  0  0  0  0  0  0  0  0  0  0
  -22.7355  -29.1425   19.9945 H   0  0  0  0  0  0  0  0  0  0  0  0
  -25.1353  -36.2335   25.0565 H   0  0  0  0  0  0  0  0  0  0  0  0
  -21.0070  -28.3206   24.0793 H   0  0  0  0  0  0  0  0  0  0  0  0
  -20.5555  -26.2518   23.3550 H   0  0  0  0  0  0  0  0  0  0  0  0
  -21.5974  -26.8362   22.0454 H   0  0  0  0  0  0  0  0  0  0  0  0
  -19.6810  -25.6422   21.1488 H   0  0  0  0  0  0  0  0  0  0  0  0
  -19.6406  -27.3343   20.7034 H   0  0  0  0  0  0  0  0  0  0  0  0
  -17.4282  -26.6888   21.4113 H   0  0  0  0  0  0  0  0  0  0  0  0
  -18.0803  -26.0130   22.9049 H   0  0  0  0  0  0  0  0  0  0  0  0
  -19.7265  -30.6774   24.2204 H   0  0  0  0  0  0  0  0  0  0  0  0
  -17.5064  -31.5856   24.4483 H   0  0  0  0  0  0  0  0  0  0  0  0
  -15.5878  -30.2839   23.7407 H   0  0  0  0  0  0  0  0  0  0  0  0
  -15.9120  -28.0941   22.7766 H   0  0  0  0  0  0  0  0  0  0  0  0
  -24.5787  -30.7757   25.6817 H   0  0  0  0  0  0  0  0  0  0  0  0
  -25.0041  -32.2289   26.5536 H   0  0  0  0  0  0  0  0  0  0  0  0
  -25.8166  -30.7245   26.9138 H   0  0  0  0  0  0  0  0  0  0  0  0
  -26.2892  -29.7335   24.0803 H   0  0  0  0  0  0  0  0  0  0  0  0
  -27.4336  -29.7484   25.4006 H   0  0  0  0  0  0  0  0  0  0  0  0
  -27.8466  -30.4994   23.8779 H   0  0  0  0  0  0  0  0  0  0  0  0
  -27.2251  -33.3632   26.1242 H   0  0  0  0  0  0  0  0  0  0  0  0
  -28.3902  -32.6065   25.0645 H   0  0  0  0  0  0  0  0  0  0  0  0
  -27.9772  -31.8555   26.5872 H   0  0  0  0  0  0  0  0  0  0  0  0
  -28.2744  -38.0016   24.6863 H   0  0  0  0  0  0  0  0  0  0  0  0
  -28.0396  -36.2711   24.7461 H   0  0  0  0  0  0  0  0  0  0  0  0
  -27.1773  -37.3087   25.8564 H   0  0  0  0  0  0  0  0  0  0  0  0
  -20.9627  -29.9365   21.7352 H   0  0  0  0  0  0  0  0  0  0  0  0
  -26.0447  -38.2561   24.0273 H   0  0  0  0  0  0  0  0  0  0  0  0
  -19.1997  -28.9391   20.6630 H   0  0  0  0  0  0  0  0  0  0  0  0
  -17.7064  -28.1437   21.0996 H   0  0  0  0  0  0  0  0  0  0  0  0
  -18.6120  -27.5990   19.7081 H   0  0  0  0  0  0  0  0  0  0  0  0
  -22.6948  -26.5286   23.8827 H   0  0  0  0  0  0  0  0  0  0  0  0
  -22.5364  -24.8789   23.3289 H   0  0  0  0  0  0  0  0  0  0  0  0
  -21.6300  -25.4245   24.7196 H   0  0  0  0  0  0  0  0  0  0  0  0
  -20.5517  -29.2768   24.0840 H   0  0  0  0  0  0  0  0  0  0  0  0
  -22.0480  -30.0838   23.6804 H   0  0  0  0  0  0  0  0  0  0  0  0
  -22.0774  -28.4600   24.3252 H   0  0  0  0  0  0  0  0  0  0  0  0
  -23.1927  -29.3449   22.0009 H   0  0  0  0  0  0  0  0  0  0  0  0
  -22.5088  -27.4673   21.2524 H   0  0  0  0  0  0  0  0  0  0  0  0
  -18.6934  -23.5512   22.8170 H   0  0  0  0  0  0  0  0  0  0  0  0
  -19.9516  -23.7845   24.0302 H   0  0  0  0  0  0  0  0  0  0  0  0
  -20.9604  -29.2888   21.6577 H   0  0  0  0  0  0  0  0  0  0  0  0
  -20.2201  -22.9887   21.3538 H   0  0  0  0  0  0  0  0  0  0  0  0
  1 25  1  0
  1 30  2  0
  1 82  1  0
  2  3  1  0
  2 25  1  0
  2 83  1  0
  2 84  1  0
  3  4  1  0
  3 85  1  0
  3 86  1  0
  4  5  1  0
  4 87  1  0
  4 88  1  0
  5  6  1  0
  5 26  1  0
  5 89  1  6
  6 25  1  0
  6 90  1  0
  6 91  1  0
  7  8  2  0
  7 26  1  0
  7 29  1  0
  8  9  1  0
  8 22  1  0
  9 10  1  0
  9 27  2  0
 10 11  2  0
 10 15  1  0
 11 12  1  0
 11 92  1  0
 12 13  2  0
 12 93  1  0
 13 14  1  0
 13 31  1  0
 14 15  2  0
 14 94  1  0
 15 95  1  0
 16 17  2  0
 16 21  1  0
 16 31  1  0
 17 18  1  0
 17 96  1  0
 18 19  2  0
 18 97  1  0
 19 20  1  0
 19 24  1  0
 20 21  2  0
 20 98  1  0
 21 23  1  0
 22 28  1  0
 22 32  2  0
 26 27  1  0
 28 99  1  0
 28100  1  0
 29101  1  0
 29102  1  0
 33 34  1  0
 33 66  1  0
 33 70  2  0
 34 36  1  0
 34 59  1  0
 34103  1  6
 35 44  2  0
 35 45  1  0
 35 68  1  0
 36 56  1  0
 36104  1  0
 37 39  1  0
 37 47  1  0
 37 66  1  0
 37105  1  6
 38 43  2  0
 38 46  1  0
 38 47  1  0
 39 64  1  0
 39 67  2  0
 40 52  1  0
 40 53  2  0
 40 58  1  0
 41106  1  0
 41107  1  0
 41108  1  0
 42 43  1  0
 42 66  1  0
 42109  1  0
 42110  1  0
 43 44  1  0
 44111  1  0
 45 46  2  0
 45112  1  0
 46113  1  0
 47114  1  0
 47115  1  0
 48 41  1  0
 48 56  1  0
 48 65  1  0
 48116  1  1
 49 50  1  0
 49 53  1  0
 49 64  1  0
 49117  1  1
 50 51  1  0
 50118  1  0
 50119  1  0
 51 52  1  0
 51120  1  0
 51121  1  0
 52122  1  0
 52123  1  0
 53 54  1  0
 54 55  2  0
 54124  1  0
 55 57  1  0
 55125  1  0
 56 69  2  0
 57 58  2  0
 57126  1  0
 58127  1  0
 59 60  1  0
 59 61  1  0
 59 62  1  0
 60128  1  0
 60129  1  0
 60130  1  0
 61131  1  0
 61132  1  0
 61133  1  0
 62134  1  0
 62135  1  0
 62136  1  0
 63 65  1  0
 63137  1  0
 63138  1  0
 63139  1  0
 64140  1  0
 65141  1  0
 68 77  1  0
 71 72  1  0
 71 73  2  0
 71 79  1  0
 72 74  1  0
 72 80  2  0
 73 75  1  0
 73 81  1  0
 74142  1  0
 74143  1  0
 74144  1  0
 75145  1  0
 75146  1  0
 75147  1  0
 76148  1  0
 76149  1  0
 76150  1  0
 77 79  1  0
 77151  1  0
 77152  1  0
 78 81  1  0
 78 82  1  0
 78153  1  0
 78154  1  0
 79 76  1  0
 79155  1  6
 80 81  1  0
 82156  1  0
M  ISO  4   1 100  68 101  77 101  82 100
M  END
$$$$
1
     RDKit          3D

168176  0  0  0  0  0  0  0  0999 V2000
  -30.7652  -14.3608   20.6636 C   0  0  0  0  0  0  0  0  0100  0  0
  -30.4392  -12.2669   19.3775 C   0  0  0  0  0  0  0  0  0101  0  0
  -29.4791  -12.5281   18.1977 C   0  0  0  0  0  0  0  0  0102  0  0
  -27.9985  -12.3963   18.6038 C   0  0  0  0  0  0  0  0  0103  0  0
  -27.6639  -13.2170   19.8820 C   0  0  2  0  0  0  0  0  0104  0  0
  -28.6795  -12.9602   21.0279 C   0  0  0  0  0  0  0  0  0105  0  0
  -25.2633  -13.8245   20.5754 C   0  0  0  0  0  0  0  0  0106  0  0
  -24.1645  -13.0409   20.9408 C   0  0  0  0  0  0  0  0  0107  0  0
  -24.6400  -11.7009   20.8697 C   0  0  0  0  0  0  0  0  0108  0  0
  -23.9005  -10.4085   21.0420 C   0  0  0  0  0  0  0  0  0109  0  0
  -24.3588   -9.4123   21.9123 C   0  0  0  0  0  0  0  0  0110  0  0
  -23.6296   -8.2350   22.0803 C   0  0  0  0  0  0  0  0  0111  0  0
  -22.4385   -8.0419   21.3657 C   0  0  0  0  0  0  0  0  0112  0  0
  -22.0103   -9.0167   20.4678 C   0  0  0  0  0  0  0  0  0113  0  0
  -22.7317  -10.1925   20.3102 C   0  0  0  0  0  0  0  0  0114  0  0
  -21.6857   -6.0709   22.5391 C   0  0  0  0  0  0  0  0  0115  0  0
  -21.4064   -6.5490   23.8264 C   0  0  0  0  0  0  0  0  0116  0  0
  -21.3635   -5.6677   24.9085 C   0  0  0  0  0  0  0  0  0117  0  0
  -21.5973   -4.3067   24.7088 C   0  0  0  0  0  0  0  0  0118  0  0
  -21.8700   -3.8284   23.4282 C   0  0  0  0  0  0  0  0  0119  0  0
  -21.9144   -4.7056   22.3460 C   0  0  0  0  0  0  0  0  0120  0  0
  -22.8194  -13.5263   21.1763 C   0  0  0  0  0  0  0  0  0121  0  0
  -22.1559   -4.2206   21.1063 F   0  0  0  0  0  0  0  0  0122  0  0
  -21.5628   -3.4510   25.7555 F   0  0  0  0  0  0  0  0  0123  0  0
  -30.0261  -13.1803   20.4553 N   0  0  0  0  0  0  0  0  0124  0  0
  -26.2911  -12.9356   20.3443 N   0  0  0  0  0  0  0  0  0125  0  0
  -25.9236  -11.6675   20.5847 N   0  0  0  0  0  0  0  0  0126  0  0
  -22.0708  -12.7905   22.0005 N   0  0  0  0  0  0  0  0  0127  0  0
  -25.4117  -15.1773   20.4097 N   0  0  0  0  0  0  0  0  0128  0  0
  -31.7916  -14.6724   20.0536 O   0  0  0  0  0  0  0  0  0129  0  0
  -21.6670   -6.9022   21.4423 O   0  0  0  0  0  0  0  0  0130  0  0
  -22.3946  -14.5564   20.6568 O   0  0  0  0  0  0  0  0  0131  0  0
  -24.6048  -31.8614   23.2223 C   0  0  0  0  0  0  0  0  0100  0  0
  -25.8822  -32.4841   23.8616 C   0  0  1  0  0  0  0  0  0101  0  0
  -27.2536  -27.5042   20.1156 C   0  0  0  0  0  0  0  0  0102  0  0
  -25.5726  -33.8762   24.2210 N   0  0  0  0  0  0  0  0  0103  0  0
  -23.4066  -30.4859   21.5461 C   0  0  2  0  0  0  0  0  0104  0  0
  -24.8467  -28.9636   20.1247 C   0  0  0  0  0  0  0  0  0105  0  0
  -22.7412  -29.4652   22.5052 C   0  0  0  0  0  0  0  0  0106  0  0
  -18.0167  -28.1302   22.8626 C   0  0  0  0  0  0  0  0  0107  0  0
  -24.1342  -36.7390   23.2568 C   0  0  0  0  0  0  0  0  0108  0  0
  -25.9141  -30.8882   21.3456 C   0  0  0  0  0  0  0  0  0109  0  0
  -25.9930  -29.5029   20.7208 C   0  0  0  0  0  0  0  0  0110  0  0
  -27.1758  -28.7612   20.7331 C   0  0  0  0  0  0  0  0  0111  0  0
  -26.1032  -26.9836   19.5230 C   0  0  0  0  0  0  0  0  0112  0  0
  -24.9097  -27.7011   19.5331 C   0  0  0  0  0  0  0  0  0113  0  0
  -23.5715  -29.7899   20.1582 C   0  0  0  0  0  0  0  0  0114  0  0
  -25.3990  -36.3212   24.0232 C   0  0  1  0  0  0  0  0  0115  0  0
  -20.5793  -28.3813   23.1004 C   0  0  2  0  0  0  0  0  0116  0  0
  -20.6548  -26.9392   22.5411 C   0  0  0  0  0  0  0  0  0117  0  0
  -19.5615  -26.6407   21.5143 C   0  0  0  0  0  0  0  0  0118  0  0
  -18.1797  -26.7818   22.1673 C   0  0  0  0  0  0  0  0  0119  0  0
  -19.1385  -28.8769   23.2988 C   0  0  0  0  0  0  0  0  0120  0  0
  -18.9183  -30.1286   23.8878 C   0  0  0  0  0  0  0  0  0121  0  0
  -17.6396  -30.6493   24.0352 C   0  0  0  0  0  0  0  0  0122  0  0
  -25.9153  -34.9582   23.4993 C   0  0  0  0  0  0  0  0  0123  0  0
  -16.5415  -29.9068   23.6254 C   0  0  0  0  0  0  0  0  0124  0  0
  -16.7331  -28.6521   23.0586 C   0  0  0  0  0  0  0  0  0125  0  0
  -26.4583  -31.6439   25.0683 C   0  0  0  0  0  0  0  0  0126  0  0
  -25.3807  -31.3179   26.1374 C   0  0  0  0  0  0  0  0  0127  0  0
  -27.0530  -30.3024   24.5680 C   0  0  0  0  0  0  0  0  0128  0  0
  -27.6014  -32.4281   25.7651 C   0  0  0  0  0  0  0  0  0129  0  0
  -27.5629  -37.2220   24.8621 C   0  0  0  0  0  0  0  0  0130  0  0
  -21.4133  -29.3375   22.3735 N   0  0  0  0  0  0  0  0  0131  0  0
  -26.4706  -37.3372   23.9061 N   0  0  0  0  0  0  0  0  0132  0  0
  -24.6674  -31.0544   22.1178 N   0  0  0  0  0  0  0  0  0133  0  0
  -23.4259  -28.8150   23.2971 O   0  0  0  0  0  0  0  0  0134  0  0
  -28.3948  -26.7345   20.0089 O   0  0  0  0  0  0  0  0  0135  0  0
  -26.5870  -34.9065   22.4671 O   0  0  0  0  0  0  0  0  0136  0  0
  -23.5365  -32.1254   23.7833 O   0  0  0  0  0  0  0  0  0137  0  0
  -28.6118  -22.9384   21.4058 C   0  0  0  0  0  0  0  0  0  0  0  0
  -28.0691  -22.5504   18.9681 C   0  0  0  0  0  0  0  0  0  0  0  0
  -29.5901  -21.7637   21.3773 C   0  0  0  0  0  0  0  0  0  0  0  0
  -29.0458  -21.3745   18.9355 C   0  0  0  0  0  0  0  0  0  0  0  0
  -28.4227  -23.5988   20.0326 C   0  0  2  0  0  0  0  0  0  0  0  0
  -29.1967  -20.7336   20.3163 C   0  0  1  0  0  0  0  0  0  0  0  0
  -28.0711  -26.8128   16.9543 C   0  0  0  0  0  0  0  0  0  0  0  0
  -31.4359  -19.9606   19.6276 C   0  0  0  0  0  0  0  0  0  0  0  0
  -31.1136  -26.2549   20.4873 C   0  0  0  0  0  0  0  0  0  0  0  0
  -29.4178  -25.1599   18.3004 C   0  0  0  0  0  0  0  0  0  0  0  0
  -29.6473  -24.4244   19.6285 C   0  0  1  0  0  0  0  0  0  0  0  0
  -28.2295  -26.1305   18.3076 C   0  0  1  0  0  0  0  0  0  1  0  0
  -30.1685  -19.6428   20.2702 N   0  0  0  0  0  0  0  0  0  0  0  0
  -29.9121  -25.4105   20.7132 N   0  0  0  0  0  0  0  0  0  0  0  0
  -31.4485  -12.4701   19.0860 H   0  0  0  0  0  0  0  0  0  0  0  0
  -30.3970  -11.2460   19.6950 H   0  0  0  0  0  0  0  0  0  0  0  0
  -29.6870  -11.8204   17.4226 H   0  0  0  0  0  0  0  0  0  0  0  0
  -29.6375  -13.5326   17.8649 H   0  0  0  0  0  0  0  0  0  0  0  0
  -27.7830  -11.3650   18.7904 H   0  0  0  0  0  0  0  0  0  0  0  0
  -27.4028  -12.7801   17.8021 H   0  0  0  0  0  0  0  0  0  0  0  0
  -27.7353  -14.2503   19.6136 H   0  0  0  0  0  0  0  0  0  0  0  0
  -28.5890  -11.9550   21.3832 H   0  0  0  0  0  0  0  0  0  0  0  0
  -28.5005  -13.6134   21.8562 H   0  0  0  0  0  0  0  0  0  0  0  0
  -25.2399   -9.5495   22.4318 H   0  0  0  0  0  0  0  0  0  0  0  0
  -23.9663   -7.5070   22.7297 H   0  0  0  0  0  0  0  0  0  0  0  0
  -21.1515   -8.8641   19.9162 H   0  0  0  0  0  0  0  0  0  0  0  0
  -22.4016  -10.9115   19.6476 H   0  0  0  0  0  0  0  0  0  0  0  0
  -21.2319   -7.5552   23.9750 H   0  0  0  0  0  0  0  0  0  0  0  0
  -21.1589   -6.0228   25.8556 H   0  0  0  0  0  0  0  0  0  0  0  0
  -22.0396   -2.8212   23.2809 H   0  0  0  0  0  0  0  0  0  0  0  0
  -22.4401  -11.9703   22.4008 H   0  0  0  0  0  0  0  0  0  0  0  0
  -21.1493  -13.0679   22.2082 H   0  0  0  0  0  0  0  0  0  0  0  0
  -24.6538  -15.7807   20.5848 H   0  0  0  0  0  0  0  0  0  0  0  0
  -26.2762  -15.5453   20.1156 H   0  0  0  0  0  0  0  0  0  0  0  0
  -26.6778  -32.4663   23.1464 H   0  0  0  0  0  0  0  0  0  0  0  0
  -25.0747  -34.0282   25.0566 H   0  0  0  0  0  0  0  0  0  0  0  0
  -22.7881  -31.3489   21.4131 H   0  0  0  0  0  0  0  0  0  0  0  0
  -23.3854  -35.9823   23.3648 H   0  0  0  0  0  0  0  0  0  0  0  0
  -24.3696  -36.8624   22.2204 H   0  0  0  0  0  0  0  0  0  0  0  0
  -23.7669  -37.6632   23.6516 H   0  0  0  0  0  0  0  0  0  0  0  0
  -25.9445  -31.6237   20.5691 H   0  0  0  0  0  0  0  0  0  0  0  0
  -26.7436  -31.0079   22.0108 H   0  0  0  0  0  0  0  0  0  0  0  0
  -28.0090  -29.1452   21.2057 H   0  0  0  0  0  0  0  0  0  0  0  0
  -26.1369  -26.0560   19.0719 H   0  0  0  0  0  0  0  0  0  0  0  0
  -24.0652  -27.2961   19.0997 H   0  0  0  0  0  0  0  0  0  0  0  0
  -23.6156  -30.5365   19.3930 H   0  0  0  0  0  0  0  0  0  0  0  0
  -22.7355  -29.1425   19.9945 H   0  0  0  0  0  0  0  0  0  0  0  0
  -25.1353  -36.2335   25.0565 H   0  0  0  0  0  0  0  0  0  0  0  0
  -21.0070  -28.3206   24.0793 H   0  0  0  0  0  0  0  0  0  0  0  0
  -20.5555  -26.2518   23.3550 H   0  0  0  0  0  0  0  0  0  0  0  0
  -21.5974  -26.8362   22.0454 H   0  0  0  0  0  0  0  0  0  0  0  0
  -19.6810  -25.6422   21.1488 H   0  0  0  0  0  0  0  0  0  0  0  0
  -19.6406  -27.3343   20.7034 H   0  0  0  0  0  0  0  0  0  0  0  0
  -17.4282  -26.6888   21.4113 H   0  0  0  0  0  0  0  0  0  0  0  0
  -18.0803  -26.0130   22.9049 H   0  0  0  0  0  0  0  0  0  0  0  0
  -19.7265  -30.6774   24.2204 H   0  0  0  0  0  0  0  0  0  0  0  0
  -17.5064  -31.5856   24.4483 H   0  0  0  0  0  0  0  0  0  0  0  0
  -15.5878  -30.2839   23.7407 H   0  0  0  0  0  0  0  0  0  0  0  0
  -15.9120  -28.0941   22.7766 H   0  0  0  0  0  0  0  0  0  0  0  0
  -24.5787  -30.7757   25.6817 H   0  0  0  0  0  0  0  0  0  0  0  0
  -25.0041  -32.2289   26.5536 H   0  0  0  0  0  0  0  0  0  0  0  0
  -25.8166  -30.7245   26.9138 H   0  0  0  0  0  0  0  0  0  0  0  0
  -26.2892  -29.7335   24.0803 H   0  0  0  0  0  0  0  0  0  0  0  0
  -27.4336  -29.7484   25.4006 H   0  0  0  0  0  0  0  0  0  0  0  0
  -27.8466  -30.4994   23.8779 H   0  0  0  0  0  0  0  0  0  0  0  0
  -27.2251  -33.3632   26.1242 H   0  0  0  0  0  0  0  0  0  0  0  0
  -28.3902  -32.6065   25.0645 H   0  0  0  0  0  0  0  0  0  0  0  0
  -27.9772  -31.8555   26.5872 H   0  0  0  0  0  0  0  0  0  0  0  0
  -28.2744  -38.0016   24.6863 H   0  0  0  0  0  0  0  0  0  0  0  0
  -28.0396  -36.2711   24.7461 H   0  0  0  0  0  0  0  0  0  0  0  0
  -27.1773  -37.3087   25.8564 H   0  0  0  0  0  0  0  0  0  0  0  0
  -20.9627  -29.9365   21.7352 H   0  0  0  0  0  0  0  0  0  0  0  0
  -26.0447  -38.2561   24.0273 H   0  0  0  0  0  0  0  0  0  0  0  0
  -28.9825  -23.6737   22.0890 H   0  0  0  0  0  0  0  0  0  0  0  0
  -27.6603  -22.5537   21.7083 H   0  0  0  0  0  0  0  0  0  0  0  0
  -27.0891  -22.1733   19.1740 H   0  0  0  0  0  0  0  0  0  0  0  0
  -28.1206  -23.0340   18.0150 H   0  0  0  0  0  0  0  0  0  0  0  0
  -29.5938  -21.2906   22.3370 H   0  0  0  0  0  0  0  0  0  0  0  0
  -30.5617  -22.1411   21.1356 H   0  0  0  0  0  0  0  0  0  0  0  0
  -30.0022  -21.7257   18.6086 H   0  0  0  0  0  0  0  0  0  0  0  0
  -28.6611  -20.6367   18.2628 H   0  0  0  0  0  0  0  0  0  0  0  0
  -27.6007  -24.2797   20.1072 H   0  0  0  0  0  0  0  0  0  0  0  0
  -28.2442  -20.3335   20.5949 H   0  0  0  0  0  0  0  0  0  0  0  0
  -28.0073  -26.0708   16.1860 H   0  0  0  0  0  0  0  0  0  0  0  0
  -28.9160  -27.4435   16.7718 H   0  0  0  0  0  0  0  0  0  0  0  0
  -27.1788  -27.4033   16.9548 H   0  0  0  0  0  0  0  0  0  0  0  0
  -31.4976  -21.0161   19.4631 H   0  0  0  0  0  0  0  0  0  0  0  0
  -31.4984  -19.4492   18.6898 H   0  0  0  0  0  0  0  0  0  0  0  0
  -32.2430  -19.6501   20.2577 H   0  0  0  0  0  0  0  0  0  0  0  0
  -31.2327  -26.9323   21.3069 H   0  0  0  0  0  0  0  0  0  0  0  0
  -30.9941  -26.8099   19.5803 H   0  0  0  0  0  0  0  0  0  0  0  0
  -31.9793  -25.6306   20.4120 H   0  0  0  0  0  0  0  0  0  0  0  0
  -29.2472  -24.4284   17.5384 H   0  0  0  0  0  0  0  0  0  0  0  0
  -30.2923  -25.7509   18.1248 H   0  0  0  0  0  0  0  0  0  0  0  0
  -30.4839  -23.7718   19.4907 H   0  0  0  0  0  0  0  0  0  0  0  0
  -27.1810  -25.9263   18.2447 H   0  0  0  0  0  0  0  0  0  0  0  0
  -29.1007  -26.0234   20.7937 H   0  0  0  0  0  0  0  0  0  0  0  0
  -30.0865  -24.8730   21.5624 H   0  0  0  0  0  0  0  0  0  0  0  0
  1 25  1  0
  1 30  2  0
  1 83  1  0
  2  3  1  0
  2 25  1  0
  2 85  1  0
  2 86  1  0
  3  4  1  0
  3 87  1  0
  3 88  1  0
  4  5  1  0
  4 89  1  0
  4 90  1  0
  5  6  1  0
  5 26  1  0
  5 91  1  6
  6 25  1  0
  6 92  1  0
  6 93  1  0
  7  8  2  0
  7 26  1  0
  7 29  1  0
  8  9  1  0
  8 22  1  0
  9 10  1  0
  9 27  2  0
 10 11  2  0
 10 15  1  0
 11 12  1  0
 11 94  1  0
 12 13  2  0
 12 95  1  0
 13 14  1  0
 13 31  1  0
 14 15  2  0
 14 96  1  0
 15 97  1  0
 16 17  2  0
 16 21  1  0
 16 31  1  0
 17 18  1  0
 17 98  1  0
 18 19  2  0
 18 99  1  0
 19 20  1  0
 19 24  1  0
 20 21  2  0
 20100  1  0
 21 23  1  0
 22 28  1  0
 22 32  2  0
 26 27  1  0
 28101  1  0
 28102  1  0
 29103  1  0
 29104  1  0
 33 34  1  0
 33 66  1  0
 33 70  2  0
 34 36  1  0
 34 59  1  0
 34105  1  6
 35 44  2  0
 35 45  1  0
 35 68  1  0
 36 56  1  0
 36106  1  0
 37 39  1  0
 37 47  1  0
 37 66  1  0
 37107  1  6
 38 43  2  0
 38 46  1  0
 38 47  1  0
 39 64  1  0
 39 67  2  0
 40 52  1  0
 40 53  2  0
 40 58  1  0
 41108  1  0
 41109  1  0
 41110  1  0
 42 43  1  0
 42 66  1  0
 42111  1  0
 42112  1  0
 43 44  1  0
 44113  1  0
 45 46  2  0
 45114  1  0
 46115  1  0
 47116  1  0
 47117  1  0
 48 41  1  0
 48 56  1  0
 48 65  1  0
 48118  1  1
 49 50  1  0
 49 53  1  0
 49 64  1  0
 49119  1  1
 50 51  1  0
 50120  1  0
 50121  1  0
 51 52  1  0
 51122  1  0
 51123  1  0
 52124  1  0
 52125  1  0
 53 54  1  0
 54 55  2  0
 54126  1  0
 55 57  1  0
 55127  1  0
 56 69  2  0
 57 58  2  0
 57128  1  0
 58129  1  0
 59 60  1  0
 59 61  1  0
 59 62  1  0
 60130  1  0
 60131  1  0
 60132  1  0
 61133  1  0
 61134  1  0
 61135  1  0
 62136  1  0
 62137  1  0
 62138  1  0
 63 65  1  0
 63139  1  0
 63140  1  0
 63141  1  0
 64142  1  0
 65143  1  0
 68 82  1  0
 71 73  1  0
 71144  1  0
 71145  1  0
 72 74  1  0
 72 75  1  0
 72146  1  0
 72147  1  0
 73 76  1  0
 73148  1  0
 73149  1  0
 74 76  1  0
 74150  1  0
 74151  1  0
 75 71  1  0
 75 81  1  0
 75152  1  1
 76 83  1  0
 76153  1  1
 77154  1  0
 77155  1  0
 77156  1  0
 78 83  1  0
 78157  1  0
 78158  1  0
 78159  1  0
 79 84  1  0
 79160  1  0
 79161  1  0
 79162  1  0
 80 82  1  0
 80163  1  0
 80164  1  0
 81 80  1  0
 81 84  1  0
 81165  1  6
 82 77  1  0
 82166  1  1
 84167  1  0
 84168  1  0
M  CHG  1  84   1
M  ISO  4   1 100  68 101  82 101  83 100
M  END
$$$$
2
     RDKit          3D

162170  0  0  0  0  0  0  0  0999 V2000
  -30.7652  -14.3608   20.6636 C   0  0  0  0  0  0  0  0  0100  0  0
  -30.4392  -12.2669   19.3775 C   0  0  0  0  0  0  0  0  0101  0  0
  -29.4791  -12.5281   18.1977 C   0  0  0  0  0  0  0  0  0102  0  0
  -27.9985  -12.3963   18.6038 C   0  0  0  0  0  0  0  0  0103  0  0
  -27.6639  -13.2170   19.8820 C   0  0  2  0  0  0  0  0  0104  0  0
  -28.6795  -12.9602   21.0279 C   0  0  0  0  0  0  0  0  0105  0  0
  -25.2633  -13.8245   20.5754 C   0  0  0  0  0  0  0  0  0106  0  0
  -24.1645  -13.0409   20.9408 C   0  0  0  0  0  0  0  0  0107  0  0
  -24.6400  -11.7009   20.8697 C   0  0  0  0  0  0  0  0  0108  0  0
  -23.9005  -10.4085   21.0420 C   0  0  0  0  0  0  0  0  0109  0  0
  -24.3588   -9.4123   21.9123 C   0  0  0  0  0  0  0  0  0110  0  0
  -23.6296   -8.2350   22.0803 C   0  0  0  0  0  0  0  0  0111  0  0
  -22.4385   -8.0419   21.3657 C   0  0  0  0  0  0  0  0  0112  0  0
  -22.0103   -9.0167   20.4678 C   0  0  0  0  0  0  0  0  0113  0  0
  -22.7317  -10.1925   20.3102 C   0  0  0  0  0  0  0  0  0114  0  0
  -21.6857   -6.0709   22.5391 C   0  0  0  0  0  0  0  0  0115  0  0
  -21.4064   -6.5490   23.8264 C   0  0  0  0  0  0  0  0  0116  0  0
  -21.3635   -5.6677   24.9085 C   0  0  0  0  0  0  0  0  0117  0  0
  -21.5973   -4.3067   24.7088 C   0  0  0  0  0  0  0  0  0118  0  0
  -21.8700   -3.8284   23.4282 C   0  0  0  0  0  0  0  0  0119  0  0
  -21.9144   -4.7056   22.3460 C   0  0  0  0  0  0  0  0  0120  0  0
  -22.8194  -13.5263   21.1763 C   0  0  0  0  0  0  0  0  0121  0  0
  -22.1559   -4.2206   21.1063 F   0  0  0  0  0  0  0  0  0122  0  0
  -21.5628   -3.4510   25.7555 F   0  0  0  0  0  0  0  0  0123  0  0
  -30.0261  -13.1803   20.4553 N   0  0  0  0  0  0  0  0  0124  0  0
  -26.2911  -12.9356   20.3443 N   0  0  0  0  0  0  0  0  0125  0  0
  -25.9236  -11.6675   20.5847 N   0  0  0  0  0  0  0  0  0126  0  0
  -22.0708  -12.7905   22.0005 N   0  0  0  0  0  0  0  0  0127  0  0
  -25.4117  -15.1773   20.4097 N   0  0  0  0  0  0  0  0  0128  0  0
  -31.7916  -14.6724   20.0536 O   0  0  0  0  0  0  0  0  0129  0  0
  -21.6670   -6.9022   21.4423 O   0  0  0  0  0  0  0  0  0130  0  0
  -22.3946  -14.5564   20.6568 O   0  0  0  0  0  0  0  0  0131  0  0
  -24.6048  -31.8614   23.2223 C   0  0  0  0  0  0  0  0  0100  0  0
  -25.8822  -32.4841   23.8616 C   0  0  1  0  0  0  0  0  0101  0  0
  -27.2536  -27.5042   20.1156 C   0  0  0  0  0  0  0  0  0102  0  0
  -25.5726  -33.8762   24.2210 N   0  0  0  0  0  0  0  0  0103  0  0
  -23.4066  -30.4859   21.5461 C   0  0  2  0  0  0  0  0  0104  0  0
  -24.8467  -28.9636   20.1247 C   0  0  0  0  0  0  0  0  0105  0  0
  -22.7412  -29.4652   22.5052 C   0  0  0  0  0  0  0  0  0106  0  0
  -18.0167  -28.1302   22.8626 C   0  0  0  0  0  0  0  0  0107  0  0
  -24.1342  -36.7390   23.2568 C   0  0  0  0  0  0  0  0  0108  0  0
  -25.9141  -30.8882   21.3456 C   0  0  0  0  0  0  0  0  0109  0  0
  -25.9930  -29.5029   20.7208 C   0  0  0  0  0  0  0  0  0110  0  0
  -27.1758  -28.7612   20.7331 C   0  0  0  0  0  0  0  0  0111  0  0
  -26.1032  -26.9836   19.5230 C   0  0  0  0  0  0  0  0  0112  0  0
  -24.9097  -27.7011   19.5331 C   0  0  0  0  0  0  0  0  0113  0  0
  -23.5715  -29.7899   20.1582 C   0  0  0  0  0  0  0  0  0114  0  0
  -25.3990  -36.3212   24.0232 C   0  0  1  0  0  0  0  0  0115  0  0
  -20.5793  -28.3813   23.1004 C   0  0  2  0  0  0  0  0  0116  0  0
  -20.6548  -26.9392   22.5411 C   0  0  0  0  0  0  0  0  0117  0  0
  -19.5615  -26.6407   21.5143 C   0  0  0  0  0  0  0  0  0118  0  0
  -18.1797  -26.7818   22.1673 C   0  0  0  0  0  0  0  0  0119  0  0
  -19.1385  -28.8769   23.2988 C   0  0  0  0  0  0  0  0  0120  0  0
  -18.9183  -30.1286   23.8878 C   0  0  0  0  0  0  0  0  0121  0  0
  -17.6396  -30.6493   24.0352 C   0  0  0  0  0  0  0  0  0122  0  0
  -25.9153  -34.9582   23.4993 C   0  0  0  0  0  0  0  0  0123  0  0
  -16.5415  -29.9068   23.6254 C   0  0  0  0  0  0  0  0  0124  0  0
  -16.7331  -28.6521   23.0586 C   0  0  0  0  0  0  0  0  0125  0  0
  -26.4583  -31.6439   25.0683 C   0  0  0  0  0  0  0  0  0126  0  0
  -25.3807  -31.3179   26.1374 C   0  0  0  0  0  0  0  0  0127  0  0
  -27.0530  -30.3024   24.5680 C   0  0  0  0  0  0  0  0  0128  0  0
  -27.6014  -32.4281   25.7651 C   0  0  0  0  0  0  0  0  0129  0  0
  -27.5629  -37.2220   24.8621 C   0  0  0  0  0  0  0  0  0130  0  0
  -21.4133  -29.3375   22.3735 N   0  0  0  0  0  0  0  0  0131  0  0
  -26.4706  -37.3372   23.9061 N   0  0  0  0  0  0  0  0  0132  0  0
  -24.6674  -31.0544   22.1178 N   0  0  0  0  0  0  0  0  0133  0  0
  -23.4259  -28.8150   23.2971 O   0  0  0  0  0  0  0  0  0134  0  0
  -28.3948  -26.7345   20.0089 O   0  0  0  0  0  0  0  0  0135  0  0
  -26.5870  -34.9065   22.4671 O   0  0  0  0  0  0  0  0  0136  0  0
  -23.5365  -32.1254   23.7833 O   0  0  0  0  0  0  0  0  0137  0  0
  -29.1959  -19.3747   19.2906 C   0  0  0  0  0  0  0  0  0  0  0  0
  -30.0175  -20.6765   21.2978 C   0  0  0  0  0  0  0  0  0  0  0  0
  -29.8546  -18.1066   19.8373 C   0  0  0  0  0  0  0  0  0  0  0  0
  -30.6787  -19.4130   21.8523 C   0  0  0  0  0  0  0  0  0  0  0  0
  -29.9175  -20.6409   19.7678 C   0  0  2  0  0  0  0  0  0  0  0  0
  -30.0179  -18.1134   21.3656 C   0  0  2  0  0  0  0  0  0  0  0  0
  -31.0560  -23.1877   18.1172 C   0  0  0  0  0  0  0  0  0  0  0  0
  -29.2131  -21.8916   19.2447 C   0  0  0  0  0  0  0  0  0  0  0  0
  -30.8116  -16.8906   21.8337 C   0  0  0  0  0  0  0  0  0  0  0  0
  -30.1086  -23.1308   19.3080 C   0  0  2  0  0  0  0  0  0  1  0  0
  -30.1460  -15.6629   21.4587 N   0  0  0  0  0  0  0  0  0  0  0  0
  -28.6567  -18.0089   21.9904 N   0  0  0  0  0  0  0  0  0  0  0  0
  -31.4485  -12.4701   19.0860 H   0  0  0  0  0  0  0  0  0  0  0  0
  -30.3970  -11.2460   19.6950 H   0  0  0  0  0  0  0  0  0  0  0  0
  -29.6870  -11.8204   17.4226 H   0  0  0  0  0  0  0  0  0  0  0  0
  -29.6375  -13.5326   17.8649 H   0  0  0  0  0  0  0  0  0  0  0  0
  -27.7830  -11.3650   18.7904 H   0  0  0  0  0  0  0  0  0  0  0  0
  -27.4028  -12.7801   17.8021 H   0  0  0  0  0  0  0  0  0  0  0  0
  -27.7353  -14.2503   19.6136 H   0  0  0  0  0  0  0  0  0  0  0  0
  -28.5890  -11.9550   21.3832 H   0  0  0  0  0  0  0  0  0  0  0  0
  -28.5005  -13.6134   21.8562 H   0  0  0  0  0  0  0  0  0  0  0  0
  -25.2399   -9.5495   22.4318 H   0  0  0  0  0  0  0  0  0  0  0  0
  -23.9663   -7.5070   22.7297 H   0  0  0  0  0  0  0  0  0  0  0  0
  -21.1515   -8.8641   19.9162 H   0  0  0  0  0  0  0  0  0  0  0  0
  -22.4016  -10.9115   19.6476 H   0  0  0  0  0  0  0  0  0  0  0  0
  -21.2319   -7.5552   23.9750 H   0  0  0  0  0  0  0  0  0  0  0  0
  -21.1589   -6.0228   25.8556 H   0  0  0  0  0  0  0  0  0  0  0  0
  -22.0396   -2.8212   23.2809 H   0  0  0  0  0  0  0  0  0  0  0  0
  -22.4401  -11.9703   22.4008 H   0  0  0  0  0  0  0  0  0  0  0  0
  -21.1493  -13.0679   22.2082 H   0  0  0  0  0  0  0  0  0  0  0  0
  -24.6538  -15.7807   20.5848 H   0  0  0  0  0  0  0  0  0  0  0  0
  -26.2762  -15.5453   20.1156 H   0  0  0  0  0  0  0  0  0  0  0  0
  -26.6778  -32.4663   23.1464 H   0  0  0  0  0  0  0  0  0  0  0  0
  -25.0747  -34.0282   25.0566 H   0  0  0  0  0  0  0  0  0  0  0  0
  -22.7881  -31.3489   21.4131 H   0  0  0  0  0  0  0  0  0  0  0  0
  -23.3854  -35.9823   23.3648 H   0  0  0  0  0  0  0  0  0  0  0  0
  -24.3696  -36.8624   22.2204 H   0  0  0  0  0  0  0  0  0  0  0  0
  -23.7669  -37.6632   23.6516 H   0  0  0  0  0  0  0  0  0  0  0  0
  -25.9445  -31.6237   20.5691 H   0  0  0  0  0  0  0  0  0  0  0  0
  -26.7436  -31.0079   22.0108 H   0  0  0  0  0  0  0  0  0  0  0  0
  -28.0090  -29.1452   21.2057 H   0  0  0  0  0  0  0  0  0  0  0  0
  -26.1369  -26.0560   19.0719 H   0  0  0  0  0  0  0  0  0  0  0  0
  -24.0652  -27.2961   19.0997 H   0  0  0  0  0  0  0  0  0  0  0  0
  -23.6156  -30.5365   19.3930 H   0  0  0  0  0  0  0  0  0  0  0  0
  -22.7355  -29.1425   19.9945 H   0  0  0  0  0  0  0  0  0  0  0  0
  -25.1353  -36.2335   25.0565 H   0  0  0  0  0  0  0  0  0  0  0  0
  -21.0070  -28.3206   24.0793 H   0  0  0  0  0  0  0  0  0  0  0  0
  -20.5555  -26.2518   23.3550 H   0  0  0  0  0  0  0  0  0  0  0  0
  -21.5974  -26.8362   22.0454 H   0  0  0  0  0  0  0  0  0  0  0  0
  -19.6810  -25.6422   21.1488 H   0  0  0  0  0  0  0  0  0  0  0  0
  -19.6406  -27.3343   20.7034 H   0  0  0  0  0  0  0  0  0  0  0  0
  -17.4282  -26.6888   21.4113 H   0  0  0  0  0  0  0  0  0  0  0  0
  -18.0803  -26.0130   22.9049 H   0  0  0  0  0  0  0  0  0  0  0  0
  -19.7265  -30.6774   24.2204 H   0  0  0  0  0  0  0  0  0  0  0  0
  -17.5064  -31.5856   24.4483 H   0  0  0  0  0  0  0  0  0  0  0  0
  -15.5878  -30.2839   23.7407 H   0  0  0  0  0  0  0  0  0  0  0  0
  -15.9120  -28.0941   22.7766 H   0  0  0  0  0  0  0  0  0  0  0  0
  -24.5787  -30.7757   25.6817 H   0  0  0  0  0  0  0  0  0  0  0  0
  -25.0041  -32.2289   26.5536 H   0  0  0  0  0  0  0  0  0  0  0  0
  -25.8166  -30.7245   26.9138 H   0  0  0  0  0  0  0  0  0  0  0  0
  -26.2892  -29.7335   24.0803 H   0  0  0  0  0  0  0  0  0  0  0  0
  -27.4336  -29.7484   25.4006 H   0  0  0  0  0  0  0  0  0  0  0  0
  -27.8466  -30.4994   23.8779 H   0  0  0  0  0  0  0  0  0  0  0  0
  -27.2251  -33.3632   26.1242 H   0  0  0  0  0  0  0  0  0  0  0  0
  -28.3902  -32.6065   25.0645 H   0  0  0  0  0  0  0  0  0  0  0  0
  -27.9772  -31.8555   26.5872 H   0  0  0  0  0  0  0  0  0  0  0  0
  -28.2744  -38.0016   24.6863 H   0  0  0  0  0  0  0  0  0  0  0  0
  -28.0396  -36.2711   24.7461 H   0  0  0  0  0  0  0  0  0  0  0  0
  -27.1773  -37.3087   25.8564 H   0  0  0  0  0  0  0  0  0  0  0  0
  -20.9627  -29.9365   21.7352 H   0  0  0  0  0  0  0  0  0  0  0  0
  -26.0447  -38.2561   24.0273 H   0  0  0  0  0  0  0  0  0  0  0  0
  -28.1796  -19.4086   19.6237 H   0  0  0  0  0  0  0  0  0  0  0  0
  -29.2490  -19.3436   18.2224 H   0  0  0  0  0  0  0  0  0  0  0  0
  -30.5983  -21.5272   21.5875 H   0  0  0  0  0  0  0  0  0  0  0  0
  -29.0258  -20.7353   21.6952 H   0  0  0  0  0  0  0  0  0  0  0  0
  -30.8232  -18.0091   19.3932 H   0  0  0  0  0  0  0  0  0  0  0  0
  -29.2126  -17.2865   19.5920 H   0  0  0  0  0  0  0  0  0  0  0  0
  -30.6232  -19.4422   22.9205 H   0  0  0  0  0  0  0  0  0  0  0  0
  -31.6888  -19.4047   21.4995 H   0  0  0  0  0  0  0  0  0  0  0  0
  -30.9118  -20.6223   19.3730 H   0  0  0  0  0  0  0  0  0  0  0  0
  -31.4901  -22.2224   17.9603 H   0  0  0  0  0  0  0  0  0  0  0  0
  -31.8307  -23.8998   18.3114 H   0  0  0  0  0  0  0  0  0  0  0  0
  -30.5130  -23.4809   17.2431 H   0  0  0  0  0  0  0  0  0  0  0  0
  -28.3394  -22.0677   19.8368 H   0  0  0  0  0  0  0  0  0  0  0  0
  -28.9616  -21.7211   18.2187 H   0  0  0  0  0  0  0  0  0  0  0  0
  -30.9090  -16.9240   22.8987 H   0  0  0  0  0  0  0  0  0  0  0  0
  -31.7743  -16.9114   21.3670 H   0  0  0  0  0  0  0  0  0  0  0  0
  -30.6483  -22.9672   20.2173 H   0  0  0  0  0  0  0  0  0  0  0  0
  -29.1970  -15.5968   21.7124 H   0  0  0  0  0  0  0  0  0  0  0  0
  -28.0894  -18.8071   21.7050 H   0  0  0  0  0  0  0  0  0  0  0  0
  -28.7484  -18.0029   23.0062 H   0  0  0  0  0  0  0  0  0  0  0  0
  -28.2075  -17.1458   21.6844 H   0  0  0  0  0  0  0  0  0  0  0  0
  1 25  1  0
  1 30  2  0
  1 81  1  0
  2  3  1  0
  2 25  1  0
  2 83  1  0
  2 84  1  0
  3  4  1  0
  3 85  1  0
  3 86  1  0
  4  5  1  0
  4 87  1  0
  4 88  1  0
  5  6  1  0
  5 26  1  0
  5 89  1  6
  6 25  1  0
  6 90  1  0
  6 91  1  0
  7  8  2  0
  7 26  1  0
  7 29  1  0
  8  9  1  0
  8 22  1  0
  9 10  1  0
  9 27  2  0
 10 11  2  0
 10 15  1  0
 11 12  1  0
 11 92  1  0
 12 13  2  0
 12 93  1  0
 13 14  1  0
 13 31  1  0
 14 15  2  0
 14 94  1  0
 15 95  1  0
 16 17  2  0
 16 21  1  0
 16 31  1  0
 17 18  1  0
 17 96  1  0
 18 19  2  0
 18 97  1  0
 19 20  1  0
 19 24  1  0
 20 21  2  0
 20 98  1  0
 21 23  1  0
 22 28  1  0
 22 32  2  0
 26 27  1  0
 28 99  1  0
 28100  1  0
 29101  1  0
 29102  1  0
 33 34  1  0
 33 66  1  0
 33 70  2  0
 34 36  1  0
 34 59  1  0
 34103  1  6
 35 44  2  0
 35 45  1  0
 35 68  1  0
 36 56  1  0
 36104  1  0
 37 39  1  0
 37 47  1  0
 37 66  1  0
 37105  1  6
 38 43  2  0
 38 46  1  0
 38 47  1  0
 39 64  1  0
 39 67  2  0
 40 52  1  0
 40 53  2  0
 40 58  1  0
 41106  1  0
 41107  1  0
 41108  1  0
 42 43  1  0
 42 66  1  0
 42109  1  0
 42110  1  0
 43 44  1  0
 44111  1  0
 45 46  2  0
 45112  1  0
 46113  1  0
 47114  1  0
 47115  1  0
 48 41  1  0
 48 56  1  0
 48 65  1  0
 48116  1  1
 49 50  1  0
 49 53  1  0
 49 64  1  0
 49117  1  1
 50 51  1  0
 50118  1  0
 50119  1  0
 51 52  1  0
 51120  1  0
 51121  1  0
 52122  1  0
 52123  1  0
 53 54  1  0
 54 55  2  0
 54124  1  0
 55 57  1  0
 55125  1  0
 56 69  2  0
 57 58  2  0
 57126  1  0
 58127  1  0
 59 60  1  0
 59 61  1  0
 59 62  1  0
 60128  1  0
 60129  1  0
 60130  1  0
 61131  1  0
 61132  1  0
 61133  1  0
 62134  1  0
 62135  1  0
 62136  1  0
 63 65  1  0
 63137  1  0
 63138  1  0
 63139  1  0
 64140  1  0
 65141  1  0
 68 80  1  0
 71 73  1  0
 71 75  1  0
 71142  1  0
 71143  1  0
 72 74  1  0
 72 75  1  0
 72144  1  0
 72145  1  0
 73 76  1  0
 73146  1  0
 73147  1  0
 74 76  1  0
 74148  1  0
 74149  1  0
 75 78  1  0
 75150  1  6
 76 79  1  6
 76 82  1  0
 77151  1  0
 77152  1  0
 77153  1  0
 78 80  1  0
 78154  1  0
 78155  1  0
 79 81  1  0
 79156  1  0
 79157  1  0
 80 77  1  0
 80158  1  1
 81159  1  0
 82160  1  0
 82161  1  0
 82162  1  0
M  CHG  1  82   1
M  ISO  4   1 100  68 101  80 101  81 100
M  END
$$$$
3
     RDKit          3D

166174  0  0  0  0  0  0  0  0999 V2000
  -30.7652  -14.3608   20.6636 C   0  0  0  0  0  0  0  0  0100  0  0
  -30.4392  -12.2669   19.3775 C   0  0  0  0  0  0  0  0  0101  0  0
  -29.4791  -12.5281   18.1977 C   0  0  0  0  0  0  0  0  0102  0  0
  -27.9985  -12.3963   18.6038 C   0  0  0  0  0  0  0  0  0103  0  0
  -27.6639  -13.2170   19.8820 C   0  0  2  0  0  0  0  0  0104  0  0
  -28.6795  -12.9602   21.0279 C   0  0  0  0  0  0  0  0  0105  0  0
  -25.2633  -13.8245   20.5754 C   0  0  0  0  0  0  0  0  0106  0  0
  -24.1645  -13.0409   20.9408 C   0  0  0  0  0  0  0  0  0107  0  0
  -24.6400  -11.7009   20.8697 C   0  0  0  0  0  0  0  0  0108  0  0
  -23.9005  -10.4085   21.0420 C   0  0  0  0  0  0  0  0  0109  0  0
  -24.3588   -9.4123   21.9123 C   0  0  0  0  0  0  0  0  0110  0  0
  -23.6296   -8.2350   22.0803 C   0  0  0  0  0  0  0  0  0111  0  0
  -22.4385   -8.0419   21.3657 C   0  0  0  0  0  0  0  0  0112  0  0
  -22.0103   -9.0167   20.4678 C   0  0  0  0  0  0  0  0  0113  0  0
  -22.7317  -10.1925   20.3102 C   0  0  0  0  0  0  0  0  0114  0  0
  -21.6857   -6.0709   22.5391 C   0  0  0  0  0  0  0  0  0115  0  0
  -21.4064   -6.5490   23.8264 C   0  0  0  0  0  0  0  0  0116  0  0
  -21.3635   -5.6677   24.9085 C   0  0  0  0  0  0  0  0  0117  0  0
  -21.5973   -4.3067   24.7088 C   0  0  0  0  0  0  0  0  0118  0  0
  -21.8700   -3.8284   23.4282 C   0  0  0  0  0  0  0  0  0119  0  0
  -21.9144   -4.7056   22.3460 C   0  0  0  0  0  0  0  0  0120  0  0
  -22.8194  -13.5263   21.1763 C   0  0  0  0  0  0  0  0  0121  0  0
  -22.1559   -4.2206   21.1063 F   0  0  0  0  0  0  0  0  0122  0  0
  -21.5628   -3.4510   25.7555 F   0  0  0  0  0  0  0  0  0123  0  0
  -30.0261  -13.1803   20.4553 N   0  0  0  0  0  0  0  0  0124  0  0
  -26.2911  -12.9356   20.3443 N   0  0  0  0  0  0  0  0  0125  0  0
  -25.9236  -11.6675   20.5847 N   0  0  0  0  0  0  0  0  0126  0  0
  -22.0708  -12.7905   22.0005 N   0  0  0  0  0  0  0  0  0127  0  0
  -25.4117  -15.1773   20.4097 N   0  0  0  0  0  0  0  0  0128  0  0
  -31.7916  -14.6724   20.0536 O   0  0  0  0  0  0  0  0  0129  0  0
  -21.6670   -6.9022   21.4423 O   0  0  0  0  0  0  0  0  0130  0  0
  -22.3946  -14.5564   20.6568 O   0  0  0  0  0  0  0  0  0131  0  0
  -24.6048  -31.8614   23.2223 C   0  0  0  0  0  0  0  0  0100  0  0
  -25.8822  -32.4841   23.8616 C   0  0  1  0  0  0  0  0  0101  0  0
  -27.2536  -27.5042   20.1156 C   0  0  0  0  0  0  0  0  0102  0  0
  -25.5726  -33.8762   24.2210 N   0  0  0  0  0  0  0  0  0103  0  0
  -23.4066  -30.4859   21.5461 C   0  0  2  0  0  0  0  0  0104  0  0
  -24.8467  -28.9636   20.1247 C   0  0  0  0  0  0  0  0  0105  0  0
  -22.7412  -29.4652   22.5052 C   0  0  0  0  0  0  0  0  0106  0  0
  -18.0167  -28.1302   22.8626 C   0  0  0  0  0  0  0  0  0107  0  0
  -24.1342  -36.7390   23.2568 C   0  0  0  0  0  0  0  0  0108  0  0
  -25.9141  -30.8882   21.3456 C   0  0  0  0  0  0  0  0  0109  0  0
  -25.9930  -29.5029   20.7208 C   0  0  0  0  0  0  0  0  0110  0  0
  -27.1758  -28.7612   20.7331 C   0  0  0  0  0  0  0  0  0111  0  0
  -26.1032  -26.9836   19.5230 C   0  0  0  0  0  0  0  0  0112  0  0
  -24.9097  -27.7011   19.5331 C   0  0  0  0  0  0  0  0  0113  0  0
  -23.5715  -29.7899   20.1582 C   0  0  0  0  0  0  0  0  0114  0  0
  -25.3990  -36.3212   24.0232 C   0  0  1  0  0  0  0  0  0115  0  0
  -20.5793  -28.3813   23.1004 C   0  0  2  0  0  0  0  0  0116  0  0
  -20.6548  -26.9392   22.5411 C   0  0  0  0  0  0  0  0  0117  0  0
  -19.5615  -26.6407   21.5143 C   0  0  0  0  0  0  0  0  0118  0  0
  -18.1797  -26.7818   22.1673 C   0  0  0  0  0  0  0  0  0119  0  0
  -19.1385  -28.8769   23.2988 C   0  0  0  0  0  0  0  0  0120  0  0
  -18.9183  -30.1286   23.8878 C   0  0  0  0  0  0  0  0  0121  0  0
  -17.6396  -30.6493   24.0352 C   0  0  0  0  0  0  0  0  0122  0  0
  -25.9153  -34.9582   23.4993 C   0  0  0  0  0  0  0  0  0123  0  0
  -16.5415  -29.9068   23.6254 C   0  0  0  0  0  0  0  0  0124  0  0
  -16.7331  -28.6521   23.0586 C   0  0  0  0  0  0  0  0  0125  0  0
  -26.4583  -31.6439   25.0683 C   0  0  0  0  0  0  0  0  0126  0  0
  -25.3807  -31.3179   26.1374 C   0  0  0  0  0  0  0  0  0127  0  0
  -27.0530  -30.3024   24.5680 C   0  0  0  0  0  0  0  0  0128  0  0
  -27.6014  -32.4281   25.7651 C   0  0  0  0  0  0  0  0  0129  0  0
  -27.5629  -37.2220   24.8621 C   0  0  0  0  0  0  0  0  0130  0  0
  -21.4133  -29.3375   22.3735 N   0  0  0  0  0  0  0  0  0131  0  0
  -26.4706  -37.3372   23.9061 N   0  0  0  0  0  0  0  0  0132  0  0
  -24.6674  -31.0544   22.1178 N   0  0  0  0  0  0  0  0  0133  0  0
  -23.4259  -28.8150   23.2971 O   0  0  0  0  0  0  0  0  0134  0  0
  -28.3948  -26.7345   20.0089 O   0  0  0  0  0  0  0  0  0135  0  0
  -26.5870  -34.9065   22.4671 O   0  0  0  0  0  0  0  0  0136  0  0
  -23.5365  -32.1254   23.7833 O   0  0  0  0  0  0  0  0  0137  0  0
  -20.8729  -21.0274   17.4469 C   0  0  0  0  0  0  0  0  0  0  0  0
  -21.3741  -21.3812   16.1699 C   0  0  0  0  0  0  0  0  0  0  0  0
  -20.7694  -22.1865   18.1838 C   0  0  0  0  0  0  0  0  0  0  0  0
  -21.5619  -22.7458   16.1655 C   0  0  0  0  0  0  0  0  0  0  0  0
  -21.6425  -20.4521   15.0542 C   0  0  0  0  0  0  0  0  0  0  0  0
  -22.0628  -23.6350   15.0956 C   0  0  0  0  0  0  0  0  0  0  0  0
  -18.6065  -27.5036   17.3847 C   0  0  0  0  0  0  0  0  0  0  0  0
  -21.0247  -27.6745   16.7798 C   0  0  0  0  0  0  0  0  0  0  0  0
  -20.2937  -22.3918   19.6015 C   0  0  0  0  0  0  0  0  0  0  0  0
  -20.0577  -25.4067   17.2179 C   0  0  0  0  0  0  0  0  0  0  0  0
  -21.2379  -24.6142   17.7991 C   0  0  0  0  0  0  0  0  0  0  0  0
  -21.4290  -22.2909   20.6144 C   0  0  0  0  0  0  0  0  0  1  0  0
  -19.9966  -26.9011   17.6240 C   0  0  0  0  0  0  0  0  0  0  0  0
  -21.1913  -23.2247   17.3949 N   0  0  0  0  0  0  0  0  0  0  0  0
  -20.3444  -27.0572   19.0188 N   0  0  0  0  0  0  0  0  0  0  0  0
  -31.4485  -12.4701   19.0860 H   0  0  0  0  0  0  0  0  0  0  0  0
  -30.3970  -11.2460   19.6950 H   0  0  0  0  0  0  0  0  0  0  0  0
  -29.6870  -11.8204   17.4226 H   0  0  0  0  0  0  0  0  0  0  0  0
  -29.6375  -13.5326   17.8649 H   0  0  0  0  0  0  0  0  0  0  0  0
  -27.7830  -11.3650   18.7904 H   0  0  0  0  0  0  0  0  0  0  0  0
  -27.4028  -12.7801   17.8021 H   0  0  0  0  0  0  0  0  0  0  0  0
  -27.7353  -14.2503   19.6136 H   0  0  0  0  0  0  0  0  0  0  0  0
  -28.5890  -11.9550   21.3832 H   0  0  0  0  0  0  0  0  0  0  0  0
  -28.5005  -13.6134   21.8562 H   0  0  0  0  0  0  0  0  0  0  0  0
  -25.2399   -9.5495   22.4318 H   0  0  0  0  0  0  0  0  0  0  0  0
  -23.9663   -7.5070   22.7297 H   0  0  0  0  0  0  0  0  0  0  0  0
  -21.1515   -8.8641   19.9162 H   0  0  0  0  0  0  0  0  0  0  0  0
  -22.4016  -10.9115   19.6476 H   0  0  0  0  0  0  0  0  0  0  0  0
  -21.2319   -7.5552   23.9750 H   0  0  0  0  0  0  0  0  0  0  0  0
  -21.1589   -6.0228   25.8556 H   0  0  0  0  0  0  0  0  0  0  0  0
  -22.0396   -2.8212   23.2809 H   0  0  0  0  0  0  0  0  0  0  0  0
  -22.4401  -11.9703   22.4008 H   0  0  0  0  0  0  0  0  0  0  0  0
  -21.1493  -13.0679   22.2082 H   0  0  0  0  0  0  0  0  0  0  0  0
  -24.6538  -15.7807   20.5848 H   0  0  0  0  0  0  0  0  0  0  0  0
  -26.2762  -15.5453   20.1156 H   0  0  0  0  0  0  0  0  0  0  0  0
  -26.6778  -32.4663   23.1464 H   0  0  0  0  0  0  0  0  0  0  0  0
  -25.0747  -34.0282   25.0566 H   0  0  0  0  0  0  0  0  0  0  0  0
  -22.7881  -31.3489   21.4131 H   0  0  0  0  0  0  0  0  0  0  0  0
  -23.3854  -35.9823   23.3648 H   0  0  0  0  0  0  0  0  0  0  0  0
  -24.3696  -36.8624   22.2204 H   0  0  0  0  0  0  0  0  0  0  0  0
  -23.7669  -37.6632   23.6516 H   0  0  0  0  0  0  0  0  0  0  0  0
  -25.9445  -31.6237   20.5691 H   0  0  0  0  0  0  0  0  0  0  0  0
  -26.7436  -31.0079   22.0108 H   0  0  0  0  0  0  0  0  0  0  0  0
  -28.0090  -29.1452   21.2057 H   0  0  0  0  0  0  0  0  0  0  0  0
  -26.1369  -26.0560   19.0719 H   0  0  0  0  0  0  0  0  0  0  0  0
  -24.0652  -27.2961   19.0997 H   0  0  0  0  0  0  0  0  0  0  0  0
  -23.6156  -30.5365   19.3930 H   0  0  0  0  0  0  0  0  0  0  0  0
  -22.7355  -29.1425   19.9945 H   0  0  0  0  0  0  0  0  0  0  0  0
  -25.1353  -36.2335   25.0565 H   0  0  0  0  0  0  0  0  0  0  0  0
  -21.0070  -28.3206   24.0793 H   0  0  0  0  0  0  0  0  0  0  0  0
  -20.5555  -26.2518   23.3550 H   0  0  0  0  0  0  0  0  0  0  0  0
  -21.5974  -26.8362   22.0454 H   0  0  0  0  0  0  0  0  0  0  0  0
  -19.6810  -25.6422   21.1488 H   0  0  0  0  0  0  0  0  0  0  0  0
  -19.6406  -27.3343   20.7034 H   0  0  0  0  0  0  0  0  0  0  0  0
  -17.4282  -26.6888   21.4113 H   0  0  0  0  0  0  0  0  0  0  0  0
  -18.0803  -26.0130   22.9049 H   0  0  0  0  0  0  0  0  0  0  0  0
  -19.7265  -30.6774   24.2204 H   0  0  0  0  0  0  0  0  0  0  0  0
  -17.5064  -31.5856   24.4483 H   0  0  0  0  0  0  0  0  0  0  0  0
  -15.5878  -30.2839   23.7407 H   0  0  0  0  0  0  0  0  0  0  0  0
  -15.9120  -28.0941   22.7766 H   0  0  0  0  0  0  0  0  0  0  0  0
  -24.5787  -30.7757   25.6817 H   0  0  0  0  0  0  0  0  0  0  0  0
  -25.0041  -32.2289   26.5536 H   0  0  0  0  0  0  0  0  0  0  0  0
  -25.8166  -30.7245   26.9138 H   0  0  0  0  0  0  0  0  0  0  0  0
  -26.2892  -29.7335   24.0803 H   0  0  0  0  0  0  0  0  0  0  0  0
  -27.4336  -29.7484   25.4006 H   0  0  0  0  0  0  0  0  0  0  0  0
  -27.8466  -30.4994   23.8779 H   0  0  0  0  0  0  0  0  0  0  0  0
  -27.2251  -33.3632   26.1242 H   0  0  0  0  0  0  0  0  0  0  0  0
  -28.3902  -32.6065   25.0645 H   0  0  0  0  0  0  0  0  0  0  0  0
  -27.9772  -31.8555   26.5872 H   0  0  0  0  0  0  0  0  0  0  0  0
  -28.2744  -38.0016   24.6863 H   0  0  0  0  0  0  0  0  0  0  0  0
  -28.0396  -36.2711   24.7461 H   0  0  0  0  0  0  0  0  0  0  0  0
  -27.1773  -37.3087   25.8564 H   0  0  0  0  0  0  0  0  0  0  0  0
  -20.9627  -29.9365   21.7352 H   0  0  0  0  0  0  0  0  0  0  0  0
  -26.0447  -38.2561   24.0273 H   0  0  0  0  0  0  0  0  0  0  0  0
  -20.6301  -20.0765   17.7662 H   0  0  0  0  0  0  0  0  0  0  0  0
  -21.3998  -19.4543   15.3548 H   0  0  0  0  0  0  0  0  0  0  0  0
  -22.6779  -20.5029   14.7890 H   0  0  0  0  0  0  0  0  0  0  0  0
  -21.0443  -20.7258   14.2103 H   0  0  0  0  0  0  0  0  0  0  0  0
  -22.2915  -23.0538   14.2268 H   0  0  0  0  0  0  0  0  0  0  0  0
  -22.9463  -24.1358   15.4325 H   0  0  0  0  0  0  0  0  0  0  0  0
  -21.3130  -24.3589   14.8533 H   0  0  0  0  0  0  0  0  0  0  0  0
  -18.3419  -27.3918   16.3540 H   0  0  0  0  0  0  0  0  0  0  0  0
  -18.6197  -28.5429   17.6389 H   0  0  0  0  0  0  0  0  0  0  0  0
  -17.8882  -26.9964   17.9943 H   0  0  0  0  0  0  0  0  0  0  0  0
  -20.7843  -27.5712   15.7423 H   0  0  0  0  0  0  0  0  0  0  0  0
  -22.0030  -27.2805   16.9602 H   0  0  0  0  0  0  0  0  0  0  0  0
  -21.0017  -28.7096   17.0499 H   0  0  0  0  0  0  0  0  0  0  0  0
  -19.5616  -21.6457   19.8300 H   0  0  0  0  0  0  0  0  0  0  0  0
  -19.8823  -23.3773   19.6687 H   0  0  0  0  0  0  0  0  0  0  0  0
  -19.1527  -24.9385   17.5446 H   0  0  0  0  0  0  0  0  0  0  0  0
  -20.1887  -25.3947   16.1560 H   0  0  0  0  0  0  0  0  0  0  0  0
  -21.2008  -24.6675   18.8671 H   0  0  0  0  0  0  0  0  0  0  0  0
  -22.1459  -25.0423   17.4289 H   0  0  0  0  0  0  0  0  0  0  0  0
  -21.7322  -21.2648   20.6173 H   0  0  0  0  0  0  0  0  0  0  0  0
  -20.9779  -22.7145   21.4873 H   0  0  0  0  0  0  0  0  0  0  0  0
  -20.0467  -27.7254   19.6777 H   0  0  0  0  0  0  0  0  0  0  0  0
  1 25  1  0
  1 30  2  0
  1 85  1  0
  2  3  1  0
  2 25  1  0
  2 86  1  0
  2 87  1  0
  3  4  1  0
  3 88  1  0
  3 89  1  0
  4  5  1  0
  4 90  1  0
  4 91  1  0
  5  6  1  0
  5 26  1  0
  5 92  1  6
  6 25  1  0
  6 93  1  0
  6 94  1  0
  7  8  2  0
  7 26  1  0
  7 29  1  0
  8  9  1  0
  8 22  1  0
  9 10  1  0
  9 27  2  0
 10 11  2  0
 10 15  1  0
 11 12  1  0
 11 95  1  0
 12 13  2  0
 12 96  1  0
 13 14  1  0
 13 31  1  0
 14 15  2  0
 14 97  1  0
 15 98  1  0
 16 17  2  0
 16 21  1  0
 16 31  1  0
 17 18  1  0
 17 99  1  0
 18 19  2  0
 18100  1  0
 19 20  1  0
 19 24  1  0
 20 21  2  0
 20101  1  0
 21 23  1  0
 22 28  1  0
 22 32  2  0
 26 27  1  0
 28102  1  0
 28103  1  0
 29104  1  0
 29105  1  0
 33 34  1  0
 33 66  1  0
 33 70  2  0
 34 36  1  0
 34 59  1  0
 34106  1  6
 35 44  2  0
 35 45  1  0
 35 68  1  0
 36 56  1  0
 36107  1  0
 37 39  1  0
 37 47  1  0
 37 66  1  0
 37108  1  6
 38 43  2  0
 38 46  1  0
 38 47  1  0
 39 64  1  0
 39 67  2  0
 40 52  1  0
 40 53  2  0
 40 58  1  0
 41109  1  0
 41110  1  0
 41111  1  0
 42 43  1  0
 42 66  1  0
 42112  1  0
 42113  1  0
 43 44  1  0
 44114  1  0
 45 46  2  0
 45115  1  0
 46116  1  0
 47117  1  0
 47118  1  0
 48 41  1  0
 48 56  1  0
 48 65  1  0
 48119  1  1
 49 50  1  0
 49 53  1  0
 49 64  1  0
 49120  1  1
 50 51  1  0
 50121  1  0
 50122  1  0
 51 52  1  0
 51123  1  0
 51124  1  0
 52125  1  0
 52126  1  0
 53 54  1  0
 54 55  2  0
 54127  1  0
 55 57  1  0
 55128  1  0
 56 69  2  0
 57 58  2  0
 57129  1  0
 58130  1  0
 59 60  1  0
 59 61  1  0
 59 62  1  0
 60131  1  0
 60132  1  0
 60133  1  0
 61134  1  0
 61135  1  0
 61136  1  0
 62137  1  0
 62138  1  0
 62139  1  0
 63 65  1  0
 63140  1  0
 63141  1  0
 63142  1  0
 64143  1  0
 65144  1  0
 68 82  1  0
 71 72  1  0
 71 73  2  0
 71145  1  0
 72 74  2  0
 72 75  1  0
 73 79  1  0
 73 84  1  0
 74 76  1  0
 74 84  1  0
 75146  1  0
 75147  1  0
 75148  1  0
 76149  1  0
 76150  1  0
 76151  1  0
 77152  1  0
 77153  1  0
 77154  1  0
 78 83  1  0
 78155  1  0
 78156  1  0
 78157  1  0
 79 82  1  0
 79158  1  0
 79159  1  0
 80 81  1  0
 80 83  1  0
 80160  1  0
 80161  1  0
 81 84  1  0
 81162  1  0
 81163  1  0
 82164  1  0
 82165  1  0
 83 77  1  0
 83 85  1  0
 85166  1  0
M  ISO  4   1 100  68 101  82 101  85 100
M  END
$$$$
4
     RDKit          3D

171179  0  0  0  0  0  0  0  0999 V2000
  -30.7652  -14.3608   20.6636 C   0  0  0  0  0  0  0  0  0100  0  0
  -30.4392  -12.2669   19.3775 C   0  0  0  0  0  0  0  0  0101  0  0
  -29.4791  -12.5281   18.1977 C   0  0  0  0  0  0  0  0  0102  0  0
  -27.9985  -12.3963   18.6038 C   0  0  0  0  0  0  0  0  0103  0  0
  -27.6639  -13.2170   19.8820 C   0  0  2  0  0  0  0  0  0104  0  0
  -28.6795  -12.9602   21.0279 C   0  0  0  0  0  0  0  0  0105  0  0
  -25.2633  -13.8245   20.5754 C   0  0  0  0  0  0  0  0  0106  0  0
  -24.1645  -13.0409   20.9408 C   0  0  0  0  0  0  0  0  0107  0  0
  -24.6400  -11.7009   20.8697 C   0  0  0  0  0  0  0  0  0108  0  0
  -23.9005  -10.4085   21.0420 C   0  0  0  0  0  0  0  0  0109  0  0
  -24.3588   -9.4123   21.9123 C   0  0  0  0  0  0  0  0  0110  0  0
  -23.6296   -8.2350   22.0803 C   0  0  0  0  0  0  0  0  0111  0  0
  -22.4385   -8.0419   21.3657 C   0  0  0  0  0  0  0  0  0112  0  0
  -22.0103   -9.0167   20.4678 C   0  0  0  0  0  0  0  0  0113  0  0
  -22.7317  -10.1925   20.3102 C   0  0  0  0  0  0  0  0  0114  0  0
  -21.6857   -6.0709   22.5391 C   0  0  0  0  0  0  0  0  0115  0  0
  -21.4064   -6.5490   23.8264 C   0  0  0  0  0  0  0  0  0116  0  0
  -21.3635   -5.6677   24.9085 C   0  0  0  0  0  0  0  0  0117  0  0
  -21.5973   -4.3067   24.7088 C   0  0  0  0  0  0  0  0  0118  0  0
  -21.8700   -3.8284   23.4282 C   0  0  0  0  0  0  0  0  0119  0  0
  -21.9144   -4.7056   22.3460 C   0  0  0  0  0  0  0  0  0120  0  0
  -22.8194  -13.5263   21.1763 C   0  0  0  0  0  0  0  0  0121  0  0
  -22.1559   -4.2206   21.1063 F   0  0  0  0  0  0  0  0  0122  0  0
  -21.5628   -3.4510   25.7555 F   0  0  0  0  0  0  0  0  0123  0  0
  -30.0261  -13.1803   20.4553 N   0  0  0  0  0  0  0  0  0124  0  0
  -26.2911  -12.9356   20.3443 N   0  0  0  0  0  0  0  0  0125  0  0
  -25.9236  -11.6675   20.5847 N   0  0  0  0  0  0  0  0  0126  0  0
  -22.0708  -12.7905   22.0005 N   0  0  0  0  0  0  0  0  0127  0  0
  -25.4117  -15.1773   20.4097 N   0  0  0  0  0  0  0  0  0128  0  0
  -31.7916  -14.6724   20.0536 O   0  0  0  0  0  0  0  0  0129  0  0
  -21.6670   -6.9022   21.4423 O   0  0  0  0  0  0  0  0  0130  0  0
  -22.3946  -14.5564   20.6568 O   0  0  0  0  0  0  0  0  0131  0  0
  -24.6048  -31.8614   23.2223 C   0  0  0  0  0  0  0  0  0100  0  0
  -25.8822  -32.4841   23.8616 C   0  0  1  0  0  0  0  0  0101  0  0
  -27.2536  -27.5042   20.1156 C   0  0  0  0  0  0  0  0  0102  0  0
  -25.5726  -33.8762   24.2210 N   0  0  0  0  0  0  0  0  0103  0  0
  -23.4066  -30.4859   21.5461 C   0  0  2  0  0  0  0  0  0104  0  0
  -24.8467  -28.9636   20.1247 C   0  0  0  0  0  0  0  0  0105  0  0
  -22.7412  -29.4652   22.5052 C   0  0  0  0  0  0  0  0  0106  0  0
  -18.0167  -28.1302   22.8626 C   0  0  0  0  0  0  0  0  0107  0  0
  -24.1342  -36.7390   23.2568 C   0  0  0  0  0  0  0  0  0108  0  0
  -25.9141  -30.8882   21.3456 C   0  0  0  0  0  0  0  0  0109  0  0
  -25.9930  -29.5029   20.7208 C   0  0  0  0  0  0  0  0  0110  0  0
  -27.1758  -28.7612   20.7331 C   0  0  0  0  0  0  0  0  0111  0  0
  -26.1032  -26.9836   19.5230 C   0  0  0  0  0  0  0  0  0112  0  0
  -24.9097  -27.7011   19.5331 C   0  0  0  0  0  0  0  0  0113  0  0
  -23.5715  -29.7899   20.1582 C   0  0  0  0  0  0  0  0  0114  0  0
  -25.3990  -36.3212   24.0232 C   0  0  1  0  0  0  0  0  0115  0  0
  -20.5793  -28.3813   23.1004 C   0  0  2  0  0  0  0  0  0116  0  0
  -20.6548  -26.9392   22.5411 C   0  0  0  0  0  0  0  0  0117  0  0
  -19.5615  -26.6407   21.5143 C   0  0  0  0  0  0  0  0  0118  0  0
  -18.1797  -26.7818   22.1673 C   0  0  0  0  0  0  0  0  0119  0  0
  -19.1385  -28.8769   23.2988 C   0  0  0  0  0  0  0  0  0120  0  0
  -18.9183  -30.1286   23.8878 C   0  0  0  0  0  0  0  0  0121  0  0
  -17.6396  -30.6493   24.0352 C   0  0  0  0  0  0  0  0  0122  0  0
  -25.9153  -34.9582   23.4993 C   0  0  0  0  0  0  0  0  0123  0  0
  -16.5415  -29.9068   23.6254 C   0  0  0  0  0  0  0  0  0124  0  0
  -16.7331  -28.6521   23.0586 C   0  0  0  0  0  0  0  0  0125  0  0
  -26.4583  -31.6439   25.0683 C   0  0  0  0  0  0  0  0  0126  0  0
  -25.3807  -31.3179   26.1374 C   0  0  0  0  0  0  0  0  0127  0  0
  -27.0530  -30.3024   24.5680 C   0  0  0  0  0  0  0  0  0128  0  0
  -27.6014  -32.4281   25.7651 C   0  0  0  0  0  0  0  0  0129  0  0
  -27.5629  -37.2220   24.8621 C   0  0  0  0  0  0  0  0  0130  0  0
  -21.4133  -29.3375   22.3735 N   0  0  0  0  0  0  0  0  0131  0  0
  -26.4706  -37.3372   23.9061 N   0  0  0  0  0  0  0  0  0132  0  0
  -24.6674  -31.0544   22.1178 N   0  0  0  0  0  0  0  0  0133  0  0
  -23.4259  -28.8150   23.2971 O   0  0  0  0  0  0  0  0  0134  0  0
  -28.3948  -26.7345   20.0089 O   0  0  0  0  0  0  0  0  0135  0  0
  -26.5870  -34.9065   22.4671 O   0  0  0  0  0  0  0  0  0136  0  0
  -23.5365  -32.1254   23.7833 O   0  0  0  0  0  0  0  0  0137  0  0
  -30.5327  -14.0984   26.0740 C   0  0  0  0  0  0  0  0  0  0  0  0
  -29.9421  -12.2062   27.0371 C   0  0  0  0  0  0  0  0  0  0  0  0
  -30.8704  -13.0133   25.3000 C   0  0  0  0  0  0  0  0  0  0  0  0
  -25.7050  -11.8712   26.8922 C   0  0  0  0  0  0  0  0  0  0  0  0
  -24.5985  -13.8586   25.8271 C   0  0  0  0  0  0  0  0  0  0  0  0
  -30.5289  -15.0673   29.0882 C   0  0  0  0  0  0  0  0  0  0  0  0
  -27.4272  -15.7492   30.3806 C   0  0  0  0  0  0  0  0  0  0  0  0
  -31.5371  -13.0025   23.9890 C   0  0  0  0  0  0  0  0  0  0  0  0
  -27.1110  -13.8906   26.2376 C   0  0  0  0  0  0  0  0  0  0  0  0
  -25.8830  -13.0326   25.9130 C   0  0  0  0  0  0  0  0  0  0  0  0
  -29.3804  -14.3434   28.3707 C   0  0  1  0  0  0  0  0  0  0  0  0
  -28.2369  -15.3082   27.9586 C   0  0  2  0  0  0  0  0  0  0  0  0
  -27.8170  -16.3364   29.0294 C   0  0  1  0  0  0  0  0  0  1  0  0
  -30.4998  -11.8384   25.9050 N   0  0  0  0  0  0  0  0  0  0  0  0
  -29.9386  -13.5656   27.1832 N   0  0  0  0  0  0  0  0  0  0  0  0
  -30.6329  -12.7260   22.8950 N   0  0  0  0  0  0  0  0  0  0  0  0
  -27.0326  -14.4900   27.5895 N   0  0  0  0  0  0  0  0  0  0  0  0
  -31.4485  -12.4701   19.0860 H   0  0  0  0  0  0  0  0  0  0  0  0
  -30.3970  -11.2460   19.6950 H   0  0  0  0  0  0  0  0  0  0  0  0
  -29.6870  -11.8204   17.4226 H   0  0  0  0  0  0  0  0  0  0  0  0
  -29.6375  -13.5326   17.8649 H   0  0  0  0  0  0  0  0  0  0  0  0
  -27.7830  -11.3650   18.7904 H   0  0  0  0  0  0  0  0  0  0  0  0
  -27.4028  -12.7801   17.8021 H   0  0  0  0  0  0  0  0  0  0  0  0
  -27.7353  -14.2503   19.6136 H   0  0  0  0  0  0  0  0  0  0  0  0
  -28.5890  -11.9550   21.3832 H   0  0  0  0  0  0  0  0  0  0  0  0
  -28.5005  -13.6134   21.8562 H   0  0  0  0  0  0  0  0  0  0  0  0
  -25.2399   -9.5495   22.4318 H   0  0  0  0  0  0  0  0  0  0  0  0
  -23.9663   -7.5070   22.7297 H   0  0  0  0  0  0  0  0  0  0  0  0
  -21.1515   -8.8641   19.9162 H   0  0  0  0  0  0  0  0  0  0  0  0
  -22.4016  -10.9115   19.6476 H   0  0  0  0  0  0  0  0  0  0  0  0
  -21.2319   -7.5552   23.9750 H   0  0  0  0  0  0  0  0  0  0  0  0
  -21.1589   -6.0228   25.8556 H   0  0  0  0  0  0  0  0  0  0  0  0
  -22.0396   -2.8212   23.2809 H   0  0  0  0  0  0  0  0  0  0  0  0
  -22.4401  -11.9703   22.4008 H   0  0  0  0  0  0  0  0  0  0  0  0
  -21.1493  -13.0679   22.2082 H   0  0  0  0  0  0  0  0  0  0  0  0
  -24.6538  -15.7807   20.5848 H   0  0  0  0  0  0  0  0  0  0  0  0
  -26.2762  -15.5453   20.1156 H   0  0  0  0  0  0  0  0  0  0  0  0
  -26.6778  -32.4663   23.1464 H   0  0  0  0  0  0  0  0  0  0  0  0
  -25.0747  -34.0282   25.0566 H   0  0  0  0  0  0  0  0  0  0  0  0
  -22.7881  -31.3489   21.4131 H   0  0  0  0  0  0  0  0  0  0  0  0
  -23.3854  -35.9823   23.3648 H   0  0  0  0  0  0  0  0  0  0  0  0
  -24.3696  -36.8624   22.2204 H   0  0  0  0  0  0  0  0  0  0  0  0
  -23.7669  -37.6632   23.6516 H   0  0  0  0  0  0  0  0  0  0  0  0
  -25.9445  -31.6237   20.5691 H   0  0  0  0  0  0  0  0  0  0  0  0
  -26.7436  -31.0079   22.0108 H   0  0  0  0  0  0  0  0  0  0  0  0
  -28.0090  -29.1452   21.2057 H   0  0  0  0  0  0  0  0  0  0  0  0
  -26.1369  -26.0560   19.0719 H   0  0  0  0  0  0  0  0  0  0  0  0
  -24.0652  -27.2961   19.0997 H   0  0  0  0  0  0  0  0  0  0  0  0
  -23.6156  -30.5365   19.3930 H   0  0  0  0  0  0  0  0  0  0  0  0
  -22.7355  -29.1425   19.9945 H   0  0  0  0  0  0  0  0  0  0  0  0
  -25.1353  -36.2335   25.0565 H   0  0  0  0  0  0  0  0  0  0  0  0
  -21.0070  -28.3206   24.0793 H   0  0  0  0  0  0  0  0  0  0  0  0
  -20.5555  -26.2518   23.3550 H   0  0  0  0  0  0  0  0  0  0  0  0
  -21.5974  -26.8362   22.0454 H   0  0  0  0  0  0  0  0  0  0  0  0
  -19.6810  -25.6422   21.1488 H   0  0  0  0  0  0  0  0  0  0  0  0
  -19.6406  -27.3343   20.7034 H   0  0  0  0  0  0  0  0  0  0  0  0
  -17.4282  -26.6888   21.4113 H   0  0  0  0  0  0  0  0  0  0  0  0
  -18.0803  -26.0130   22.9049 H   0  0  0  0  0  0  0  0  0  0  0  0
  -19.7265  -30.6774   24.2204 H   0  0  0  0  0  0  0  0  0  0  0  0
  -17.5064  -31.5856   24.4483 H   0  0  0  0  0  0  0  0  0  0  0  0
  -15.5878  -30.2839   23.7407 H   0  0  0  0  0  0  0  0  0  0  0  0
  -15.9120  -28.0941   22.7766 H   0  0  0  0  0  0  0  0  0  0  0  0
  -24.5787  -30.7757   25.6817 H   0  0  0  0  0  0  0  0  0  0  0  0
  -25.0041  -32.2289   26.5536 H   0  0  0  0  0  0  0  0  0  0  0  0
  -25.8166  -30.7245   26.9138 H   0  0  0  0  0  0  0  0  0  0  0  0
  -26.2892  -29.7335   24.0803 H   0  0  0  0  0  0  0  0  0  0  0  0
  -27.4336  -29.7484   25.4006 H   0  0  0  0  0  0  0  0  0  0  0  0
  -27.8466  -30.4994   23.8779 H   0  0  0  0  0  0  0  0  0  0  0  0
  -27.2251  -33.3632   26.1242 H   0  0  0  0  0  0  0  0  0  0  0  0
  -28.3902  -32.6065   25.0645 H   0  0  0  0  0  0  0  0  0  0  0  0
  -27.9772  -31.8555   26.5872 H   0  0  0  0  0  0  0  0  0  0  0  0
  -28.2744  -38.0016   24.6863 H   0  0  0  0  0  0  0  0  0  0  0  0
  -28.0396  -36.2711   24.7461 H   0  0  0  0  0  0  0  0  0  0  0  0
  -27.1773  -37.3087   25.8564 H   0  0  0  0  0  0  0  0  0  0  0  0
  -20.9627  -29.9365   21.7352 H   0  0  0  0  0  0  0  0  0  0  0  0
  -26.0447  -38.2561   24.0273 H   0  0  0  0  0  0  0  0  0  0  0  0
  -30.6927  -15.0959   25.8635 H   0  0  0  0  0  0  0  0  0  0  0  0
  -29.5540  -11.5486   27.7314 H   0  0  0  0  0  0  0  0  0  0  0  0
  -24.8373  -11.3065   26.6218 H   0  0  0  0  0  0  0  0  0  0  0  0
  -25.5856  -12.2556   27.8836 H   0  0  0  0  0  0  0  0  0  0  0  0
  -26.5675  -11.2390   26.8563 H   0  0  0  0  0  0  0  0  0  0  0  0
  -23.7749  -13.2146   25.5993 H   0  0  0  0  0  0  0  0  0  0  0  0
  -24.6989  -14.5951   25.0574 H   0  0  0  0  0  0  0  0  0  0  0  0
  -24.4232  -14.3439   26.7645 H   0  0  0  0  0  0  0  0  0  0  0  0
  -30.1403  -15.6140   29.9219 H   0  0  0  0  0  0  0  0  0  0  0  0
  -31.0041  -15.7435   28.4086 H   0  0  0  0  0  0  0  0  0  0  0  0
  -31.2425  -14.3489   29.4340 H   0  0  0  0  0  0  0  0  0  0  0  0
  -27.7292  -14.7236   30.4243 H   0  0  0  0  0  0  0  0  0  0  0  0
  -26.3665  -15.8143   30.5052 H   0  0  0  0  0  0  0  0  0  0  0  0
  -27.9123  -16.2974   31.1610 H   0  0  0  0  0  0  0  0  0  0  0  0
  -32.2981  -12.2504   24.0002 H   0  0  0  0  0  0  0  0  0  0  0  0
  -31.9420  -13.9799   23.8290 H   0  0  0  0  0  0  0  0  0  0  0  0
  -27.1826  -14.6770   25.5155 H   0  0  0  0  0  0  0  0  0  0  0  0
  -27.9721  -13.2561   26.2088 H   0  0  0  0  0  0  0  0  0  0  0  0
  -26.0716  -12.6183   24.9446 H   0  0  0  0  0  0  0  0  0  0  0  0
  -28.9335  -13.6521   29.0543 H   0  0  0  0  0  0  0  0  0  0  0  0
  -28.6229  -15.8807   27.1412 H   0  0  0  0  0  0  0  0  0  0  0  0
  -27.7040  -16.9117   29.9245 H   0  0  0  0  0  0  0  0  0  0  0  0
  -29.9912  -11.9809   22.9419 H   0  0  0  0  0  0  0  0  0  0  0  0
  -26.9341  -13.7369   28.2703 H   0  0  0  0  0  0  0  0  0  0  0  0
  -26.2319  -15.1219   27.5892 H   0  0  0  0  0  0  0  0  0  0  0  0
  1 25  1  0
  1 30  2  0
  1 86  1  0
  2  3  1  0
  2 25  1  0
  2 88  1  0
  2 89  1  0
  3  4  1  0
  3 90  1  0
  3 91  1  0
  4  5  1  0
  4 92  1  0
  4 93  1  0
  5  6  1  0
  5 26  1  0
  5 94  1  6
  6 25  1  0
  6 95  1  0
  6 96  1  0
  7  8  2  0
  7 26  1  0
  7 29  1  0
  8  9  1  0
  8 22  1  0
  9 10  1  0
  9 27  2  0
 10 11  2  0
 10 15  1  0
 11 12  1  0
 11 97  1  0
 12 13  2  0
 12 98  1  0
 13 14  1  0
 13 31  1  0
 14 15  2  0
 14 99  1  0
 15100  1  0
 16 17  2  0
 16 21  1  0
 16 31  1  0
 17 18  1  0
 17101  1  0
 18 19  2  0
 18102  1  0
 19 20  1  0
 19 24  1  0
 20 21  2  0
 20103  1  0
 21 23  1  0
 22 28  1  0
 22 32  2  0
 26 27  1  0
 28104  1  0
 28105  1  0
 29106  1  0
 29107  1  0
 33 34  1  0
 33 66  1  0
 33 70  2  0
 34 36  1  0
 34 59  1  0
 34108  1  6
 35 44  2  0
 35 45  1  0
 35 68  1  0
 36 56  1  0
 36109  1  0
 37 39  1  0
 37 47  1  0
 37 66  1  0
 37110  1  6
 38 43  2  0
 38 46  1  0
 38 47  1  0
 39 64  1  0
 39 67  2  0
 40 52  1  0
 40 53  2  0
 40 58  1  0
 41111  1  0
 41112  1  0
 41113  1  0
 42 43  1  0
 42 66  1  0
 42114  1  0
 42115  1  0
 43 44  1  0
 44116  1  0
 45 46  2  0
 45117  1  0
 46118  1  0
 47119  1  0
 47120  1  0
 48 41  1  0
 48 56  1  0
 48 65  1  0
 48121  1  1
 49 50  1  0
 49 53  1  0
 49 64  1  0
 49122  1  1
 50 51  1  0
 50123  1  0
 50124  1  0
 51 52  1  0
 51125  1  0
 51126  1  0
 52127  1  0
 52128  1  0
 53 54  1  0
 54 55  2  0
 54129  1  0
 55 57  1  0
 55130  1  0
 56 69  2  0
 57 58  2  0
 57131  1  0
 58132  1  0
 59 60  1  0
 59 61  1  0
 59 62  1  0
 60133  1  0
 60134  1  0
 60135  1  0
 61136  1  0
 61137  1  0
 61138  1  0
 62139  1  0
 62140  1  0
 62141  1  0
 63 65  1  0
 63142  1  0
 63143  1  0
 63144  1  0
 64145  1  0
 65146  1  0
 68 83  1  0
 71 73  2  0
 71 85  1  0
 71147  1  0
 72 84  2  0
 72 85  1  0
 72148  1  0
 73 78  1  0
 73 84  1  0
 74149  1  0
 74150  1  0
 74151  1  0
 75 80  1  0
 75152  1  0
 75153  1  0
 75154  1  0
 76155  1  0
 76156  1  0
 76157  1  0
 77158  1  0
 77159  1  0
 77160  1  0
 78 86  1  0
 78161  1  0
 78162  1  0
 79 80  1  0
 79 87  1  0
 79163  1  0
 79164  1  0
 80 74  1  0
 80165  1  0
 81 76  1  0
 81 82  1  0
 81 85  1  0
 81166  1  1
 82 83  1  0
 82 87  1  0
 82167  1  6
 83 77  1  0
 83168  1  1
 86169  1  0
 87170  1  0
 87171  1  0
M  CHG  1  87   1
M  ISO  4   1 100  68 101  83 101  86 100
M  END
$$$$
5
     RDKit          3D

166174  0  0  0  0  0  0  0  0999 V2000
  -30.7652  -14.3608   20.6636 C   0  0  0  0  0  0  0  0  0100  0  0
  -30.4392  -12.2669   19.3775 C   0  0  0  0  0  0  0  0  0101  0  0
  -29.4791  -12.5281   18.1977 C   0  0  0  0  0  0  0  0  0102  0  0
  -27.9985  -12.3963   18.6038 C   0  0  0  0  0  0  0  0  0103  0  0
  -27.6639  -13.2170   19.8820 C   0  0  2  0  0  0  0  0  0104  0  0
  -28.6795  -12.9602   21.0279 C   0  0  0  0  0  0  0  0  0105  0  0
  -25.2633  -13.8245   20.5754 C   0  0  0  0  0  0  0  0  0106  0  0
  -24.1645  -13.0409   20.9408 C   0  0  0  0  0  0  0  0  0107  0  0
  -24.6400  -11.7009   20.8697 C   0  0  0  0  0  0  0  0  0108  0  0
  -23.9005  -10.4085   21.0420 C   0  0  0  0  0  0  0  0  0109  0  0
  -24.3588   -9.4123   21.9123 C   0  0  0  0  0  0  0  0  0110  0  0
  -23.6296   -8.2350   22.0803 C   0  0  0  0  0  0  0  0  0111  0  0
  -22.4385   -8.0419   21.3657 C   0  0  0  0  0  0  0  0  0112  0  0
  -22.0103   -9.0167   20.4678 C   0  0  0  0  0  0  0  0  0113  0  0
  -22.7317  -10.1925   20.3102 C   0  0  0  0  0  0  0  0  0114  0  0
  -21.6857   -6.0709   22.5391 C   0  0  0  0  0  0  0  0  0115  0  0
  -21.4064   -6.5490   23.8264 C   0  0  0  0  0  0  0  0  0116  0  0
  -21.3635   -5.6677   24.9085 C   0  0  0  0  0  0  0  0  0117  0  0
  -21.5973   -4.3067   24.7088 C   0  0  0  0  0  0  0  0  0118  0  0
  -21.8700   -3.8284   23.4282 C   0  0  0  0  0  0  0  0  0119  0  0
  -21.9144   -4.7056   22.3460 C   0  0  0  0  0  0  0  0  0120  0  0
  -22.8194  -13.5263   21.1763 C   0  0  0  0  0  0  0  0  0121  0  0
  -22.1559   -4.2206   21.1063 F   0  0  0  0  0  0  0  0  0122  0  0
  -21.5628   -3.4510   25.7555 F   0  0  0  0  0  0  0  0  0123  0  0
  -30.0261  -13.1803   20.4553 N   0  0  0  0  0  0  0  0  0124  0  0
  -26.2911  -12.9356   20.3443 N   0  0  0  0  0  0  0  0  0125  0  0
  -25.9236  -11.6675   20.5847 N   0  0  0  0  0  0  0  0  0126  0  0
  -22.0708  -12.7905   22.0005 N   0  0  0  0  0  0  0  0  0127  0  0
  -25.4117  -15.1773   20.4097 N   0  0  0  0  0  0  0  0  0128  0  0
  -31.7916  -14.6724   20.0536 O   0  0  0  0  0  0  0  0  0129  0  0
  -21.6670   -6.9022   21.4423 O   0  0  0  0  0  0  0  0  0130  0  0
  -22.3946  -14.5564   20.6568 O   0  0  0  0  0  0  0  0  0131  0  0
  -24.6048  -31.8614   23.2223 C   0  0  0  0  0  0  0  0  0100  0  0
  -25.8822  -32.4841   23.8616 C   0  0  1  0  0  0  0  0  0101  0  0
  -27.2536  -27.5042   20.1156 C   0  0  0  0  0  0  0  0  0102  0  0
  -25.5726  -33.8762   24.2210 N   0  0  0  0  0  0  0  0  0103  0  0
  -23.4066  -30.4859   21.5461 C   0  0  2  0  0  0  0  0  0104  0  0
  -24.8467  -28.9636   20.1247 C   0  0  0  0  0  0  0  0  0105  0  0
  -22.7412  -29.4652   22.5052 C   0  0  0  0  0  0  0  0  0106  0  0
  -18.0167  -28.1302   22.8626 C   0  0  0  0  0  0  0  0  0107  0  0
  -24.1342  -36.7390   23.2568 C   0  0  0  0  0  0  0  0  0108  0  0
  -25.9141  -30.8882   21.3456 C   0  0  0  0  0  0  0  0  0109  0  0
  -25.9930  -29.5029   20.7208 C   0  0  0  0  0  0  0  0  0110  0  0
  -27.1758  -28.7612   20.7331 C   0  0  0  0  0  0  0  0  0111  0  0
  -26.1032  -26.9836   19.5230 C   0  0  0  0  0  0  0  0  0112  0  0
  -24.9097  -27.7011   19.5331 C   0  0  0  0  0  0  0  0  0113  0  0
  -23.5715  -29.7899   20.1582 C   0  0  0  0  0  0  0  0  0114  0  0
  -25.3990  -36.3212   24.0232 C   0  0  1  0  0  0  0  0  0115  0  0
  -20.5793  -28.3813   23.1004 C   0  0  2  0  0  0  0  0  0116  0  0
  -20.6548  -26.9392   22.5411 C   0  0  0  0  0  0  0  0  0117  0  0
  -19.5615  -26.6407   21.5143 C   0  0  0  0  0  0  0  0  0118  0  0
  -18.1797  -26.7818   22.1673 C   0  0  0  0  0  0  0  0  0119  0  0
  -19.1385  -28.8769   23.2988 C   0  0  0  0  0  0  0  0  0120  0  0
  -18.9183  -30.1286   23.8878 C   0  0  0  0  0  0  0  0  0121  0  0
  -17.6396  -30.6493   24.0352 C   0  0  0  0  0  0  0  0  0122  0  0
  -25.9153  -34.9582   23.4993 C   0  0  0  0  0  0  0  0  0123  0  0
  -16.5415  -29.9068   23.6254 C   0  0  0  0  0  0  0  0  0124  0  0
  -16.7331  -28.6521   23.0586 C   0  0  0  0  0  0  0  0  0125  0  0
  -26.4583  -31.6439   25.0683 C   0  0  0  0  0  0  0  0  0126  0  0
  -25.3807  -31.3179   26.1374 C   0  0  0  0  0  0  0  0  0127  0  0
  -27.0530  -30.3024   24.5680 C   0  0  0  0  0  0  0  0  0128  0  0
  -27.6014  -32.4281   25.7651 C   0  0  0  0  0  0  0  0  0129  0  0
  -27.5629  -37.2220   24.8621 C   0  0  0  0  0  0  0  0  0130  0  0
  -21.4133  -29.3375   22.3735 N   0  0  0  0  0  0  0  0  0131  0  0
  -26.4706  -37.3372   23.9061 N   0  0  0  0  0  0  0  0  0132  0  0
  -24.6674  -31.0544   22.1178 N   0  0  0  0  0  0  0  0  0133  0  0
  -23.4259  -28.8150   23.2971 O   0  0  0  0  0  0  0  0  0134  0  0
  -28.3948  -26.7345   20.0089 O   0  0  0  0  0  0  0  0  0135  0  0
  -26.5870  -34.9065   22.4671 O   0  0  0  0  0  0  0  0  0136  0  0
  -23.5365  -32.1254   23.7833 O   0  0  0  0  0  0  0  0  0137  0  0
  -26.5640  -27.5128   17.7530 C   0  0  0  0  0  0  0  0  0  0  0  0
  -27.9759  -27.6009   17.6772 C   0  0  0  0  0  0  0  0  0  0  0  0
  -26.2151  -26.2182   17.4377 C   0  0  0  0  0  0  0  0  0  0  0  0
  -28.4469  -26.3574   17.3176 C   0  0  0  0  0  0  0  0  0  0  0  0
  -29.8324  -25.8905   17.0979 C   0  0  0  0  0  0  0  0  0  0  0  0
  -29.1391  -31.7574   18.7025 C   0  0  0  0  0  0  0  0  0  0  0  0
  -23.9699  -26.2248   16.2920 C   0  0  0  0  0  0  0  0  0  0  0  0
  -24.1419  -25.5856   18.7245 C   0  0  0  0  0  0  0  0  0  0  0  0
  -28.8047  -28.8352   17.9438 C   0  0  0  0  0  0  0  0  0  0  0  0
  -29.4944  -30.5963   19.6218 C   0  0  0  0  0  0  0  0  0  0  0  0
  -27.4366  -24.0750   16.7885 C   0  0  0  0  0  0  0  0  0  0  0  0
  -24.8807  -25.5881   17.3666 C   0  0  0  0  0  0  0  0  0  0  0  0
  -28.6139  -29.3655   19.3719 C   0  0  2  0  0  0  0  0  0  1  0  0
  -27.3677  -25.5250   17.1745 N   0  0  0  0  0  0  0  0  0  0  0  0
  -27.2446  -23.2000   17.9330 N   0  0  0  0  0  0  0  0  0  0  0  0
  -31.4485  -12.4701   19.0860 H   0  0  0  0  0  0  0  0  0  0  0  0
  -30.3970  -11.2460   19.6950 H   0  0  0  0  0  0  0  0  0  0  0  0
  -29.6870  -11.8204   17.4226 H   0  0  0  0  0  0  0  0  0  0  0  0
  -29.6375  -13.5326   17.8649 H   0  0  0  0  0  0  0  0  0  0  0  0
  -27.7830  -11.3650   18.7904 H   0  0  0  0  0  0  0  0  0  0  0  0
  -27.4028  -12.7801   17.8021 H   0  0  0  0  0  0  0  0  0  0  0  0
  -27.7353  -14.2503   19.6136 H   0  0  0  0  0  0  0  0  0  0  0  0
  -28.5890  -11.9550   21.3832 H   0  0  0  0  0  0  0  0  0  0  0  0
  -28.5005  -13.6134   21.8562 H   0  0  0  0  0  0  0  0  0  0  0  0
  -25.2399   -9.5495   22.4318 H   0  0  0  0  0  0  0  0  0  0  0  0
  -23.9663   -7.5070   22.7297 H   0  0  0  0  0  0  0  0  0  0  0  0
  -21.1515   -8.8641   19.9162 H   0  0  0  0  0  0  0  0  0  0  0  0
  -22.4016  -10.9115   19.6476 H   0  0  0  0  0  0  0  0  0  0  0  0
  -21.2319   -7.5552   23.9750 H   0  0  0  0  0  0  0  0  0  0  0  0
  -21.1589   -6.0228   25.8556 H   0  0  0  0  0  0  0  0  0  0  0  0
  -22.0396   -2.8212   23.2809 H   0  0  0  0  0  0  0  0  0  0  0  0
  -22.4401  -11.9703   22.4008 H   0  0  0  0  0  0  0  0  0  0  0  0
  -21.1493  -13.0679   22.2082 H   0  0  0  0  0  0  0  0  0  0  0  0
  -24.6538  -15.7807   20.5848 H   0  0  0  0  0  0  0  0  0  0  0  0
  -26.2762  -15.5453   20.1156 H   0  0  0  0  0  0  0  0  0  0  0  0
  -26.6778  -32.4663   23.1464 H   0  0  0  0  0  0  0  0  0  0  0  0
  -25.0747  -34.0282   25.0566 H   0  0  0  0  0  0  0  0  0  0  0  0
  -22.7881  -31.3489   21.4131 H   0  0  0  0  0  0  0  0  0  0  0  0
  -23.3854  -35.9823   23.3648 H   0  0  0  0  0  0  0  0  0  0  0  0
  -24.3696  -36.8624   22.2204 H   0  0  0  0  0  0  0  0  0  0  0  0
  -23.7669  -37.6632   23.6516 H   0  0  0  0  0  0  0  0  0  0  0  0
  -25.9445  -31.6237   20.5691 H   0  0  0  0  0  0  0  0  0  0  0  0
  -26.7436  -31.0079   22.0108 H   0  0  0  0  0  0  0  0  0  0  0  0
  -28.0090  -29.1452   21.2057 H   0  0  0  0  0  0  0  0  0  0  0  0
  -26.1369  -26.0560   19.0719 H   0  0  0  0  0  0  0  0  0  0  0  0
  -24.0652  -27.2961   19.0997 H   0  0  0  0  0  0  0  0  0  0  0  0
  -23.6156  -30.5365   19.3930 H   0  0  0  0  0  0  0  0  0  0  0  0
  -22.7355  -29.1425   19.9945 H   0  0  0  0  0  0  0  0  0  0  0  0
  -25.1353  -36.2335   25.0565 H   0  0  0  0  0  0  0  0  0  0  0  0
  -21.0070  -28.3206   24.0793 H   0  0  0  0  0  0  0  0  0  0  0  0
  -20.5555  -26.2518   23.3550 H   0  0  0  0  0  0  0  0  0  0  0  0
  -21.5974  -26.8362   22.0454 H   0  0  0  0  0  0  0  0  0  0  0  0
  -19.6810  -25.6422   21.1488 H   0  0  0  0  0  0  0  0  0  0  0  0
  -19.6406  -27.3343   20.7034 H   0  0  0  0  0  0  0  0  0  0  0  0
  -17.4282  -26.6888   21.4113 H   0  0  0  0  0  0  0  0  0  0  0  0
  -18.0803  -26.0130   22.9049 H   0  0  0  0  0  0  0  0  0  0  0  0
  -19.7265  -30.6774   24.2204 H   0  0  0  0  0  0  0  0  0  0  0  0
  -17.5064  -31.5856   24.4483 H   0  0  0  0  0  0  0  0  0  0  0  0
  -15.5878  -30.2839   23.7407 H   0  0  0  0  0  0  0  0  0  0  0  0
  -15.9120  -28.0941   22.7766 H   0  0  0  0  0  0  0  0  0  0  0  0
  -24.5787  -30.7757   25.6817 H   0  0  0  0  0  0  0  0  0  0  0  0
  -25.0041  -32.2289   26.5536 H   0  0  0  0  0  0  0  0  0  0  0  0
  -25.8166  -30.7245   26.9138 H   0  0  0  0  0  0  0  0  0  0  0  0
  -26.2892  -29.7335   24.0803 H   0  0  0  0  0  0  0  0  0  0  0  0
  -27.4336  -29.7484   25.4006 H   0  0  0  0  0  0  0  0  0  0  0  0
  -27.8466  -30.4994   23.8779 H   0  0  0  0  0  0  0  0  0  0  0  0
  -27.2251  -33.3632   26.1242 H   0  0  0  0  0  0  0  0  0  0  0  0
  -28.3902  -32.6065   25.0645 H   0  0  0  0  0  0  0  0  0  0  0  0
  -27.9772  -31.8555   26.5872 H   0  0  0  0  0  0  0  0  0  0  0  0
  -28.2744  -38.0016   24.6863 H   0  0  0  0  0  0  0  0  0  0  0  0
  -28.0396  -36.2711   24.7461 H   0  0  0  0  0  0  0  0  0  0  0  0
  -27.1773  -37.3087   25.8564 H   0  0  0  0  0  0  0  0  0  0  0  0
  -20.9627  -29.9365   21.7352 H   0  0  0  0  0  0  0  0  0  0  0  0
  -26.0447  -38.2561   24.0273 H   0  0  0  0  0  0  0  0  0  0  0  0
  -25.9163  -28.2776   17.9991 H   0  0  0  0  0  0  0  0  0  0  0  0
  -30.5121  -26.7003   17.2630 H   0  0  0  0  0  0  0  0  0  0  0  0
  -29.9349  -25.5382   16.0928 H   0  0  0  0  0  0  0  0  0  0  0  0
  -30.0530  -25.0952   17.7789 H   0  0  0  0  0  0  0  0  0  0  0  0
  -29.7784  -32.5888   18.9146 H   0  0  0  0  0  0  0  0  0  0  0  0
  -28.1200  -32.0409   18.8635 H   0  0  0  0  0  0  0  0  0  0  0  0
  -29.2693  -31.4583   17.6835 H   0  0  0  0  0  0  0  0  0  0  0  0
  -24.4780  -26.2283   15.3503 H   0  0  0  0  0  0  0  0  0  0  0  0
  -23.7344  -27.2298   16.5740 H   0  0  0  0  0  0  0  0  0  0  0  0
  -23.0669  -25.6570   16.2079 H   0  0  0  0  0  0  0  0  0  0  0  0
  -24.7694  -25.1455   19.4711 H   0  0  0  0  0  0  0  0  0  0  0  0
  -23.2387  -25.0184   18.6381 H   0  0  0  0  0  0  0  0  0  0  0  0
  -23.9062  -26.5912   19.0042 H   0  0  0  0  0  0  0  0  0  0  0  0
  -28.5177  -29.5990   17.2516 H   0  0  0  0  0  0  0  0  0  0  0  0
  -29.8348  -28.5703   17.8270 H   0  0  0  0  0  0  0  0  0  0  0  0
  -29.3674  -30.9098   20.6369 H   0  0  0  0  0  0  0  0  0  0  0  0
  -30.5085  -30.3193   19.4223 H   0  0  0  0  0  0  0  0  0  0  0  0
  -28.3961  -23.8767   16.3585 H   0  0  0  0  0  0  0  0  0  0  0  0
  -26.6521  -23.8808   16.0872 H   0  0  0  0  0  0  0  0  0  0  0  0
  -25.0792  -24.5747   17.0864 H   0  0  0  0  0  0  0  0  0  0  0  0
  -27.9275  -29.9341   19.9639 H   0  0  0  0  0  0  0  0  0  0  0  0
  -26.6164  -23.5747   18.5919 H   0  0  0  0  0  0  0  0  0  0  0  0
  1 25  1  0
  1 30  2  0
  1 85  1  0
  2  3  1  0
  2 25  1  0
  2 86  1  0
  2 87  1  0
  3  4  1  0
  3 88  1  0
  3 89  1  0
  4  5  1  0
  4 90  1  0
  4 91  1  0
  5  6  1  0
  5 26  1  0
  5 92  1  6
  6 25  1  0
  6 93  1  0
  6 94  1  0
  7  8  2  0
  7 26  1  0
  7 29  1  0
  8  9  1  0
  8 22  1  0
  9 10  1  0
  9 27  2  0
 10 11  2  0
 10 15  1  0
 11 12  1  0
 11 95  1  0
 12 13  2  0
 12 96  1  0
 13 14  1  0
 13 31  1  0
 14 15  2  0
 14 97  1  0
 15 98  1  0
 16 17  2  0
 16 21  1  0
 16 31  1  0
 17 18  1  0
 17 99  1  0
 18 19  2  0
 18100  1  0
 19 20  1  0
 19 24  1  0
 20 21  2  0
 20101  1  0
 21 23  1  0
 22 28  1  0
 22 32  2  0
 26 27  1  0
 28102  1  0
 28103  1  0
 29104  1  0
 29105  1  0
 33 34  1  0
 33 66  1  0
 33 70  2  0
 34 36  1  0
 34 59  1  0
 34106  1  6
 35 44  2  0
 35 45  1  0
 35 68  1  0
 36 56  1  0
 36107  1  0
 37 39  1  0
 37 47  1  0
 37 66  1  0
 37108  1  6
 38 43  2  0
 38 46  1  0
 38 47  1  0
 39 64  1  0
 39 67  2  0
 40 52  1  0
 40 53  2  0
 40 58  1  0
 41109  1  0
 41110  1  0
 41111  1  0
 42 43  1  0
 42 66  1  0
 42112  1  0
 42113  1  0
 43 44  1  0
 44114  1  0
 45 46  2  0
 45115  1  0
 46116  1  0
 47117  1  0
 47118  1  0
 48 41  1  0
 48 56  1  0
 48 65  1  0
 48119  1  1
 49 50  1  0
 49 53  1  0
 49 64  1  0
 49120  1  1
 50 51  1  0
 50121  1  0
 50122  1  0
 51 52  1  0
 51123  1  0
 51124  1  0
 52125  1  0
 52126  1  0
 53 54  1  0
 54 55  2  0
 54127  1  0
 55 57  1  0
 55128  1  0
 56 69  2  0
 57 58  2  0
 57129  1  0
 58130  1  0
 59 60  1  0
 59 61  1  0
 59 62  1  0
 60131  1  0
 60132  1  0
 60133  1  0
 61134  1  0
 61135  1  0
 61136  1  0
 62137  1  0
 62138  1  0
 62139  1  0
 63 65  1  0
 63140  1  0
 63141  1  0
 63142  1  0
 64143  1  0
 65144  1  0
 68 83  1  0
 71 72  1  0
 71 73  2  0
 71145  1  0
 72 74  2  0
 72 79  1  0
 73 82  1  0
 73 84  1  0
 74 75  1  0
 74 84  1  0
 75146  1  0
 75147  1  0
 75148  1  0
 76 80  1  0
 76149  1  0
 76150  1  0
 76151  1  0
 77152  1  0
 77153  1  0
 77154  1  0
 78 82  1  0
 78155  1  0
 78156  1  0
 78157  1  0
 79158  1  0
 79159  1  0
 80 83  1  0
 80160  1  0
 80161  1  0
 81 84  1  0
 81 85  1  0
 81162  1  0
 81163  1  0
 82 77  1  0
 82164  1  0
 83 79  1  0
 83165  1  6
 85166  1  0
M  ISO  4   1 100  68 101  83 101  85 100
M  END
$$$$
6
     RDKit          3D

165173  0  0  0  0  0  0  0  0999 V2000
  -30.7652  -14.3608   20.6636 C   0  0  0  0  0  0  0  0  0100  0  0
  -30.4392  -12.2669   19.3775 C   0  0  0  0  0  0  0  0  0101  0  0
  -29.4791  -12.5281   18.1977 C   0  0  0  0  0  0  0  0  0102  0  0
  -27.9985  -12.3963   18.6038 C   0  0  0  0  0  0  0  0  0103  0  0
  -27.6639  -13.2170   19.8820 C   0  0  2  0  0  0  0  0  0104  0  0
  -28.6795  -12.9602   21.0279 C   0  0  0  0  0  0  0  0  0105  0  0
  -25.2633  -13.8245   20.5754 C   0  0  0  0  0  0  0  0  0106  0  0
  -24.1645  -13.0409   20.9408 C   0  0  0  0  0  0  0  0  0107  0  0
  -24.6400  -11.7009   20.8697 C   0  0  0  0  0  0  0  0  0108  0  0
  -23.9005  -10.4085   21.0420 C   0  0  0  0  0  0  0  0  0109  0  0
  -24.3588   -9.4123   21.9123 C   0  0  0  0  0  0  0  0  0110  0  0
  -23.6296   -8.2350   22.0803 C   0  0  0  0  0  0  0  0  0111  0  0
  -22.4385   -8.0419   21.3657 C   0  0  0  0  0  0  0  0  0112  0  0
  -22.0103   -9.0167   20.4678 C   0  0  0  0  0  0  0  0  0113  0  0
  -22.7317  -10.1925   20.3102 C   0  0  0  0  0  0  0  0  0114  0  0
  -21.6857   -6.0709   22.5391 C   0  0  0  0  0  0  0  0  0115  0  0
  -21.4064   -6.5490   23.8264 C   0  0  0  0  0  0  0  0  0116  0  0
  -21.3635   -5.6677   24.9085 C   0  0  0  0  0  0  0  0  0117  0  0
  -21.5973   -4.3067   24.7088 C   0  0  0  0  0  0  0  0  0118  0  0
  -21.8700   -3.8284   23.4282 C   0  0  0  0  0  0  0  0  0119  0  0
  -21.9144   -4.7056   22.3460 C   0  0  0  0  0  0  0  0  0120  0  0
  -22.8194  -13.5263   21.1763 C   0  0  0  0  0  0  0  0  0121  0  0
  -22.1559   -4.2206   21.1063 F   0  0  0  0  0  0  0  0  0122  0  0
  -21.5628   -3.4510   25.7555 F   0  0  0  0  0  0  0  0  0123  0  0
  -30.0261  -13.1803   20.4553 N   0  0  0  0  0  0  0  0  0124  0  0
  -26.2911  -12.9356   20.3443 N   0  0  0  0  0  0  0  0  0125  0  0
  -25.9236  -11.6675   20.5847 N   0  0  0  0  0  0  0  0  0126  0  0
  -22.0708  -12.7905   22.0005 N   0  0  0  0  0  0  0  0  0127  0  0
  -25.4117  -15.1773   20.4097 N   0  0  0  0  0  0  0  0  0128  0  0
  -31.7916  -14.6724   20.0536 O   0  0  0  0  0  0  0  0  0129  0  0
  -21.6670   -6.9022   21.4423 O   0  0  0  0  0  0  0  0  0130  0  0
  -22.3946  -14.5564   20.6568 O   0  0  0  0  0  0  0  0  0131  0  0
  -24.6048  -31.8614   23.2223 C   0  0  0  0  0  0  0  0  0100  0  0
  -25.8822  -32.4841   23.8616 C   0  0  1  0  0  0  0  0  0101  0  0
  -27.2536  -27.5042   20.1156 C   0  0  0  0  0  0  0  0  0102  0  0
  -25.5726  -33.8762   24.2210 N   0  0  0  0  0  0  0  0  0103  0  0
  -23.4066  -30.4859   21.5461 C   0  0  2  0  0  0  0  0  0104  0  0
  -24.8467  -28.9636   20.1247 C   0  0  0  0  0  0  0  0  0105  0  0
  -22.7412  -29.4652   22.5052 C   0  0  0  0  0  0  0  0  0106  0  0
  -18.0167  -28.1302   22.8626 C   0  0  0  0  0  0  0  0  0107  0  0
  -24.1342  -36.7390   23.2568 C   0  0  0  0  0  0  0  0  0108  0  0
  -25.9141  -30.8882   21.3456 C   0  0  0  0  0  0  0  0  0109  0  0
  -25.9930  -29.5029   20.7208 C   0  0  0  0  0  0  0  0  0110  0  0
  -27.1758  -28.7612   20.7331 C   0  0  0  0  0  0  0  0  0111  0  0
  -26.1032  -26.9836   19.5230 C   0  0  0  0  0  0  0  0  0112  0  0
  -24.9097  -27.7011   19.5331 C   0  0  0  0  0  0  0  0  0113  0  0
  -23.5715  -29.7899   20.1582 C   0  0  0  0  0  0  0  0  0114  0  0
  -25.3990  -36.3212   24.0232 C   0  0  1  0  0  0  0  0  0115  0  0
  -20.5793  -28.3813   23.1004 C   0  0  2  0  0  0  0  0  0116  0  0
  -20.6548  -26.9392   22.5411 C   0  0  0  0  0  0  0  0  0117  0  0
  -19.5615  -26.6407   21.5143 C   0  0  0  0  0  0  0  0  0118  0  0
  -18.1797  -26.7818   22.1673 C   0  0  0  0  0  0  0  0  0119  0  0
  -19.1385  -28.8769   23.2988 C   0  0  0  0  0  0  0  0  0120  0  0
  -18.9183  -30.1286   23.8878 C   0  0  0  0  0  0  0  0  0121  0  0
  -17.6396  -30.6493   24.0352 C   0  0  0  0  0  0  0  0  0122  0  0
  -25.9153  -34.9582   23.4993 C   0  0  0  0  0  0  0  0  0123  0  0
  -16.5415  -29.9068   23.6254 C   0  0  0  0  0  0  0  0  0124  0  0
  -16.7331  -28.6521   23.0586 C   0  0  0  0  0  0  0  0  0125  0  0
  -26.4583  -31.6439   25.0683 C   0  0  0  0  0  0  0  0  0126  0  0
  -25.3807  -31.3179   26.1374 C   0  0  0  0  0  0  0  0  0127  0  0
  -27.0530  -30.3024   24.5680 C   0  0  0  0  0  0  0  0  0128  0  0
  -27.6014  -32.4281   25.7651 C   0  0  0  0  0  0  0  0  0129  0  0
  -27.5629  -37.2220   24.8621 C   0  0  0  0  0  0  0  0  0130  0  0
  -21.4133  -29.3375   22.3735 N   0  0  0  0  0  0  0  0  0131  0  0
  -26.4706  -37.3372   23.9061 N   0  0  0  0  0  0  0  0  0132  0  0
  -24.6674  -31.0544   22.1178 N   0  0  0  0  0  0  0  0  0133  0  0
  -23.4259  -28.8150   23.2971 O   0  0  0  0  0  0  0  0  0134  0  0
  -28.3948  -26.7345   20.0089 O   0  0  0  0  0  0  0  0  0135  0  0
  -26.5870  -34.9065   22.4671 O   0  0  0  0  0  0  0  0  0136  0  0
  -23.5365  -32.1254   23.7833 O   0  0  0  0  0  0  0  0  0137  0  0
  -30.3779  -16.6795   23.5977 C   0  0  0  0  0  0  0  0  0  0  0  0
  -32.1665  -14.8967   23.7956 C   0  0  0  0  0  0  0  0  0  0  0  0
  -31.2178  -17.6172   24.4661 C   0  0  0  0  0  0  0  0  0  0  0  0
  -33.0057  -15.8360   24.6629 C   0  0  0  0  0  0  0  0  0  0  0  0
  -31.2570  -15.6785   22.8426 C   0  0  1  0  0  0  0  0  0  0  0  0
  -32.1160  -16.8246   25.4124 C   0  0  1  0  0  0  0  0  0  0  0  0
  -34.3973  -18.5937   28.6970 C   0  0  0  0  0  0  0  0  0  0  0  0
  -32.4254  -20.0414   29.2051 C   0  0  0  0  0  0  0  0  0  0  0  0
  -32.2917  -18.4777   27.2749 C   0  0  0  0  0  0  0  0  0  0  0  0
  -33.8494  -20.5172   27.1862 C   0  0  0  0  0  0  0  0  0  1  0  0
  -33.2467  -19.4000   28.0666 C   0  0  0  0  0  0  0  0  0  0  0  0
  -30.4410  -14.7780   22.0643 N   0  0  0  0  0  0  0  0  0  0  0  0
  -32.9787  -17.7738   26.1647 N   0  0  0  0  0  0  0  0  0  0  0  0
  -31.4485  -12.4701   19.0860 H   0  0  0  0  0  0  0  0  0  0  0  0
  -30.3970  -11.2460   19.6950 H   0  0  0  0  0  0  0  0  0  0  0  0
  -29.6870  -11.8204   17.4226 H   0  0  0  0  0  0  0  0  0  0  0  0
  -29.6375  -13.5326   17.8649 H   0  0  0  0  0  0  0  0  0  0  0  0
  -27.7830  -11.3650   18.7904 H   0  0  0  0  0  0  0  0  0  0  0  0
  -27.4028  -12.7801   17.8021 H   0  0  0  0  0  0  0  0  0  0  0  0
  -27.7353  -14.2503   19.6136 H   0  0  0  0  0  0  0  0  0  0  0  0
  -28.5890  -11.9550   21.3832 H   0  0  0  0  0  0  0  0  0  0  0  0
  -28.5005  -13.6134   21.8562 H   0  0  0  0  0  0  0  0  0  0  0  0
  -25.2399   -9.5495   22.4318 H   0  0  0  0  0  0  0  0  0  0  0  0
  -23.9663   -7.5070   22.7297 H   0  0  0  0  0  0  0  0  0  0  0  0
  -21.1515   -8.8641   19.9162 H   0  0  0  0  0  0  0  0  0  0  0  0
  -22.4016  -10.9115   19.6476 H   0  0  0  0  0  0  0  0  0  0  0  0
  -21.2319   -7.5552   23.9750 H   0  0  0  0  0  0  0  0  0  0  0  0
  -21.1589   -6.0228   25.8556 H   0  0  0  0  0  0  0  0  0  0  0  0
  -22.0396   -2.8212   23.2809 H   0  0  0  0  0  0  0  0  0  0  0  0
  -22.4401  -11.9703   22.4008 H   0  0  0  0  0  0  0  0  0  0  0  0
  -21.1493  -13.0679   22.2082 H   0  0  0  0  0  0  0  0  0  0  0  0
  -24.6538  -15.7807   20.5848 H   0  0  0  0  0  0  0  0  0  0  0  0
  -26.2762  -15.5453   20.1156 H   0  0  0  0  0  0  0  0  0  0  0  0
  -26.6778  -32.4663   23.1464 H   0  0  0  0  0  0  0  0  0  0  0  0
  -25.0747  -34.0282   25.0566 H   0  0  0  0  0  0  0  0  0  0  0  0
  -22.7881  -31.3489   21.4131 H   0  0  0  0  0  0  0  0  0  0  0  0
  -23.3854  -35.9823   23.3648 H   0  0  0  0  0  0  0  0  0  0  0  0
  -24.3696  -36.8624   22.2204 H   0  0  0  0  0  0  0  0  0  0  0  0
  -23.7669  -37.6632   23.6516 H   0  0  0  0  0  0  0  0  0  0  0  0
  -25.9445  -31.6237   20.5691 H   0  0  0  0  0  0  0  0  0  0  0  0
  -26.7436  -31.0079   22.0108 H   0  0  0  0  0  0  0  0  0  0  0  0
  -28.0090  -29.1452   21.2057 H   0  0  0  0  0  0  0  0  0  0  0  0
  -26.1369  -26.0560   19.0719 H   0  0  0  0  0  0  0  0  0  0  0  0
  -24.0652  -27.2961   19.0997 H   0  0  0  0  0  0  0  0  0  0  0  0
  -23.6156  -30.5365   19.3930 H   0  0  0  0  0  0  0  0  0  0  0  0
  -22.7355  -29.1425   19.9945 H   0  0  0  0  0  0  0  0  0  0  0  0
  -25.1353  -36.2335   25.0565 H   0  0  0  0  0  0  0  0  0  0  0  0
  -21.0070  -28.3206   24.0793 H   0  0  0  0  0  0  0  0  0  0  0  0
  -20.5555  -26.2518   23.3550 H   0  0  0  0  0  0  0  0  0  0  0  0
  -21.5974  -26.8362   22.0454 H   0  0  0  0  0  0  0  0  0  0  0  0
  -19.6810  -25.6422   21.1488 H   0  0  0  0  0  0  0  0  0  0  0  0
  -19.6406  -27.3343   20.7034 H   0  0  0  0  0  0  0  0  0  0  0  0
  -17.4282  -26.6888   21.4113 H   0  0  0  0  0  0  0  0  0  0  0  0
  -18.0803  -26.0130   22.9049 H   0  0  0  0  0  0  0  0  0  0  0  0
  -19.7265  -30.6774   24.2204 H   0  0  0  0  0  0  0  0  0  0  0  0
  -17.5064  -31.5856   24.4483 H   0  0  0  0  0  0  0  0  0  0  0  0
  -15.5878  -30.2839   23.7407 H   0  0  0  0  0  0  0  0  0  0  0  0
  -15.9120  -28.0941   22.7766 H   0  0  0  0  0  0  0  0  0  0  0  0
  -24.5787  -30.7757   25.6817 H   0  0  0  0  0  0  0  0  0  0  0  0
  -25.0041  -32.2289   26.5536 H   0  0  0  0  0  0  0  0  0  0  0  0
  -25.8166  -30.7245   26.9138 H   0  0  0  0  0  0  0  0  0  0  0  0
  -26.2892  -29.7335   24.0803 H   0  0  0  0  0  0  0  0  0  0  0  0
  -27.4336  -29.7484   25.4006 H   0  0  0  0  0  0  0  0  0  0  0  0
  -27.8466  -30.4994   23.8779 H   0  0  0  0  0  0  0  0  0  0  0  0
  -27.2251  -33.3632   26.1242 H   0  0  0  0  0  0  0  0  0  0  0  0
  -28.3902  -32.6065   25.0645 H   0  0  0  0  0  0  0  0  0  0  0  0
  -27.9772  -31.8555   26.5872 H   0  0  0  0  0  0  0  0  0  0  0  0
  -28.2744  -38.0016   24.6863 H   0  0  0  0  0  0  0  0  0  0  0  0
  -28.0396  -36.2711   24.7461 H   0  0  0  0  0  0  0  0  0  0  0  0
  -27.1773  -37.3087   25.8564 H   0  0  0  0  0  0  0  0  0  0  0  0
  -20.9627  -29.9365   21.7352 H   0  0  0  0  0  0  0  0  0  0  0  0
  -26.0447  -38.2561   24.0273 H   0  0  0  0  0  0  0  0  0  0  0  0
  -29.8265  -17.2619   22.8894 H   0  0  0  0  0  0  0  0  0  0  0  0
  -29.7168  -16.1317   24.2363 H   0  0  0  0  0  0  0  0  0  0  0  0
  -31.5609  -14.2845   24.4308 H   0  0  0  0  0  0  0  0  0  0  0  0
  -32.8307  -14.2961   23.2100 H   0  0  0  0  0  0  0  0  0  0  0  0
  -30.5653  -18.2399   25.0418 H   0  0  0  0  0  0  0  0  0  0  0  0
  -31.8356  -18.2131   23.8272 H   0  0  0  0  0  0  0  0  0  0  0  0
  -33.6832  -16.3788   24.0374 H   0  0  0  0  0  0  0  0  0  0  0  0
  -33.5451  -15.2508   25.3781 H   0  0  0  0  0  0  0  0  0  0  0  0
  -31.8865  -16.2329   22.1784 H   0  0  0  0  0  0  0  0  0  0  0  0
  -31.4873  -16.2666   26.0743 H   0  0  0  0  0  0  0  0  0  0  0  0
  -33.9933  -17.8155   29.3102 H   0  0  0  0  0  0  0  0  0  0  0  0
  -35.0012  -19.2427   29.2962 H   0  0  0  0  0  0  0  0  0  0  0  0
  -34.9969  -18.1627   27.9226 H   0  0  0  0  0  0  0  0  0  0  0  0
  -32.0051  -19.2722   29.8188 H   0  0  0  0  0  0  0  0  0  0  0  0
  -31.6386  -20.6340   28.7872 H   0  0  0  0  0  0  0  0  0  0  0  0
  -33.0631  -20.6626   29.7987 H   0  0  0  0  0  0  0  0  0  0  0  0
  -31.4996  -19.0709   26.8680 H   0  0  0  0  0  0  0  0  0  0  0  0
  -31.9185  -17.7366   27.9504 H   0  0  0  0  0  0  0  0  0  0  0  0
  -34.6179  -20.0395   26.6152 H   0  0  0  0  0  0  0  0  0  0  0  0
  -34.0561  -21.2490   27.9390 H   0  0  0  0  0  0  0  0  0  0  0  0
  -29.6239  -14.4172   22.4784 H   0  0  0  0  0  0  0  0  0  0  0  0
  -33.3284  -18.4742   25.5108 H   0  0  0  0  0  0  0  0  0  0  0  0
  -33.7225  -17.2187   26.5878 H   0  0  0  0  0  0  0  0  0  0  0  0
  1 25  1  0
  1 30  2  0
  1 82  1  0
  2  3  1  0
  2 25  1  0
  2 84  1  0
  2 85  1  0
  3  4  1  0
  3 86  1  0
  3 87  1  0
  4  5  1  0
  4 88  1  0
  4 89  1  0
  5  6  1  0
  5 26  1  0
  5 90  1  6
  6 25  1  0
  6 91  1  0
  6 92  1  0
  7  8  2  0
  7 26  1  0
  7 29  1  0
  8  9  1  0
  8 22  1  0
  9 10  1  0
  9 27  2  0
 10 11  2  0
 10 15  1  0
 11 12  1  0
 11 93  1  0
 12 13  2  0
 12 94  1  0
 13 14  1  0
 13 31  1  0
 14 15  2  0
 14 95  1  0
 15 96  1  0
 16 17  2  0
 16 21  1  0
 16 31  1  0
 17 18  1  0
 17 97  1  0
 18 19  2  0
 18 98  1  0
 19 20  1  0
 19 24  1  0
 20 21  2  0
 20 99  1  0
 21 23  1  0
 22 28  1  0
 22 32  2  0
 26 27  1  0
 28100  1  0
 28101  1  0
 29102  1  0
 29103  1  0
 33 34  1  0
 33 66  1  0
 33 70  2  0
 34 36  1  0
 34 59  1  0
 34104  1  6
 35 44  2  0
 35 45  1  0
 35 68  1  0
 36 56  1  0
 36105  1  0
 37 39  1  0
 37 47  1  0
 37 66  1  0
 37106  1  6
 38 43  2  0
 38 46  1  0
 38 47  1  0
 39 64  1  0
 39 67  2  0
 40 52  1  0
 40 53  2  0
 40 58  1  0
 41107  1  0
 41108  1  0
 41109  1  0
 42 43  1  0
 42 66  1  0
 42110  1  0
 42111  1  0
 43 44  1  0
 44112  1  0
 45 46  2  0
 45113  1  0
 46114  1  0
 47115  1  0
 47116  1  0
 48 41  1  0
 48 56  1  0
 48 65  1  0
 48117  1  1
 49 50  1  0
 49 53  1  0
 49 64  1  0
 49118  1  1
 50 51  1  0
 50119  1  0
 50120  1  0
 51 52  1  0
 51121  1  0
 51122  1  0
 52123  1  0
 52124  1  0
 53 54  1  0
 54 55  2  0
 54125  1  0
 55 57  1  0
 55126  1  0
 56 69  2  0
 57 58  2  0
 57127  1  0
 58128  1  0
 59 60  1  0
 59 61  1  0
 59 62  1  0
 60129  1  0
 60130  1  0
 60131  1  0
 61132  1  0
 61133  1  0
 61134  1  0
 62135  1  0
 62136  1  0
 62137  1  0
 63 65  1  0
 63138  1  0
 63139  1  0
 63140  1  0
 64141  1  0
 65142  1  0
 68 80  1  0
 71 73  1  0
 71 75  1  0
 71143  1  0
 71144  1  0
 72 74  1  0
 72 75  1  0
 72145  1  0
 72146  1  0
 73 76  1  0
 73147  1  0
 73148  1  0
 74 76  1  0
 74149  1  0
 74150  1  0
 75 82  1  0
 75151  1  6
 76 83  1  0
 76152  1  1
 77153  1  0
 77154  1  0
 77155  1  0
 78 81  1  0
 78156  1  0
 78157  1  0
 78158  1  0
 79 81  1  0
 79 83  1  0
 79159  1  0
 79160  1  0
 80 81  1  0
 80161  1  0
 80162  1  0
 81 77  1  0
 82163  1  0
 83164  1  0
 83165  1  0
M  CHG  1  83   1
M  ISO  4   1 100  68 101  80 101  82 100
M  END
$$$$
7
     RDKit          3D

152160  0  0  0  0  0  0  0  0999 V2000
  -30.7652  -14.3608   20.6636 C   0  0  0  0  0  0  0  0  0100  0  0
  -30.4392  -12.2669   19.3775 C   0  0  0  0  0  0  0  0  0101  0  0
  -29.4791  -12.5281   18.1977 C   0  0  0  0  0  0  0  0  0102  0  0
  -27.9985  -12.3963   18.6038 C   0  0  0  0  0  0  0  0  0103  0  0
  -27.6639  -13.2170   19.8820 C   0  0  2  0  0  0  0  0  0104  0  0
  -28.6795  -12.9602   21.0279 C   0  0  0  0  0  0  0  0  0105  0  0
  -25.2633  -13.8245   20.5754 C   0  0  0  0  0  0  0  0  0106  0  0
  -24.1645  -13.0409   20.9408 C   0  0  0  0  0  0  0  0  0107  0  0
  -24.6400  -11.7009   20.8697 C   0  0  0  0  0  0  0  0  0108  0  0
  -23.9005  -10.4085   21.0420 C   0  0  0  0  0  0  0  0  0109  0  0
  -24.3588   -9.4123   21.9123 C   0  0  0  0  0  0  0  0  0110  0  0
  -23.6296   -8.2350   22.0803 C   0  0  0  0  0  0  0  0  0111  0  0
  -22.4385   -8.0419   21.3657 C   0  0  0  0  0  0  0  0  0112  0  0
  -22.0103   -9.0167   20.4678 C   0  0  0  0  0  0  0  0  0113  0  0
  -22.7317  -10.1925   20.3102 C   0  0  0  0  0  0  0  0  0114  0  0
  -21.6857   -6.0709   22.5391 C   0  0  0  0  0  0  0  0  0115  0  0
  -21.4064   -6.5490   23.8264 C   0  0  0  0  0  0  0  0  0116  0  0
  -21.3635   -5.6677   24.9085 C   0  0  0  0  0  0  0  0  0117  0  0
  -21.5973   -4.3067   24.7088 C   0  0  0  0  0  0  0  0  0118  0  0
  -21.8700   -3.8284   23.4282 C   0  0  0  0  0  0  0  0  0119  0  0
  -21.9144   -4.7056   22.3460 C   0  0  0  0  0  0  0  0  0120  0  0
  -22.8194  -13.5263   21.1763 C   0  0  0  0  0  0  0  0  0121  0  0
  -22.1559   -4.2206   21.1063 F   0  0  0  0  0  0  0  0  0122  0  0
  -21.5628   -3.4510   25.7555 F   0  0  0  0  0  0  0  0  0123  0  0
  -30.0261  -13.1803   20.4553 N   0  0  0  0  0  0  0  0  0124  0  0
  -26.2911  -12.9356   20.3443 N   0  0  0  0  0  0  0  0  0125  0  0
  -25.9236  -11.6675   20.5847 N   0  0  0  0  0  0  0  0  0126  0  0
  -22.0708  -12.7905   22.0005 N   0  0  0  0  0  0  0  0  0127  0  0
  -25.4117  -15.1773   20.4097 N   0  0  0  0  0  0  0  0  0128  0  0
  -31.7916  -14.6724   20.0536 O   0  0  0  0  0  0  0  0  0129  0  0
  -21.6670   -6.9022   21.4423 O   0  0  0  0  0  0  0  0  0130  0  0
  -22.3946  -14.5564   20.6568 O   0  0  0  0  0  0  0  0  0131  0  0
  -24.6048  -31.8614   23.2223 C   0  0  0  0  0  0  0  0  0100  0  0
  -25.8822  -32.4841   23.8616 C   0  0  1  0  0  0  0  0  0101  0  0
  -27.2536  -27.5042   20.1156 C   0  0  0  0  0  0  0  0  0102  0  0
  -25.5726  -33.8762   24.2210 N   0  0  0  0  0  0  0  0  0103  0  0
  -23.4066  -30.4859   21.5461 C   0  0  2  0  0  0  0  0  0104  0  0
  -24.8467  -28.9636   20.1247 C   0  0  0  0  0  0  0  0  0105  0  0
  -22.7412  -29.4652   22.5052 C   0  0  0  0  0  0  0  0  0106  0  0
  -18.0167  -28.1302   22.8626 C   0  0  0  0  0  0  0  0  0107  0  0
  -24.1342  -36.7390   23.2568 C   0  0  0  0  0  0  0  0  0108  0  0
  -25.9141  -30.8882   21.3456 C   0  0  0  0  0  0  0  0  0109  0  0
  -25.9930  -29.5029   20.7208 C   0  0  0  0  0  0  0  0  0110  0  0
  -27.1758  -28.7612   20.7331 C   0  0  0  0  0  0  0  0  0111  0  0
  -26.1032  -26.9836   19.5230 C   0  0  0  0  0  0  0  0  0112  0  0
  -24.9097  -27.7011   19.5331 C   0  0  0  0  0  0  0  0  0113  0  0
  -23.5715  -29.7899   20.1582 C   0  0  0  0  0  0  0  0  0114  0  0
  -25.3990  -36.3212   24.0232 C   0  0  1  0  0  0  0  0  0115  0  0
  -20.5793  -28.3813   23.1004 C   0  0  2  0  0  0  0  0  0116  0  0
  -20.6548  -26.9392   22.5411 C   0  0  0  0  0  0  0  0  0117  0  0
  -19.5615  -26.6407   21.5143 C   0  0  0  0  0  0  0  0  0118  0  0
  -18.1797  -26.7818   22.1673 C   0  0  0  0  0  0  0  0  0119  0  0
  -19.1385  -28.8769   23.2988 C   0  0  0  0  0  0  0  0  0120  0  0
  -18.9183  -30.1286   23.8878 C   0  0  0  0  0  0  0  0  0121  0  0
  -17.6396  -30.6493   24.0352 C   0  0  0  0  0  0  0  0  0122  0  0
  -25.9153  -34.9582   23.4993 C   0  0  0  0  0  0  0  0  0123  0  0
  -16.5415  -29.9068   23.6254 C   0  0  0  0  0  0  0  0  0124  0  0
  -16.7331  -28.6521   23.0586 C   0  0  0  0  0  0  0  0  0125  0  0
  -26.4583  -31.6439   25.0683 C   0  0  0  0  0  0  0  0  0126  0  0
  -25.3807  -31.3179   26.1374 C   0  0  0  0  0  0  0  0  0127  0  0
  -27.0530  -30.3024   24.5680 C   0  0  0  0  0  0  0  0  0128  0  0
  -27.6014  -32.4281   25.7651 C   0  0  0  0  0  0  0  0  0129  0  0
  -27.5629  -37.2220   24.8621 C   0  0  0  0  0  0  0  0  0130  0  0
  -21.4133  -29.3375   22.3735 N   0  0  0  0  0  0  0  0  0131  0  0
  -26.4706  -37.3372   23.9061 N   0  0  0  0  0  0  0  0  0132  0  0
  -24.6674  -31.0544   22.1178 N   0  0  0  0  0  0  0  0  0133  0  0
  -23.4259  -28.8150   23.2971 O   0  0  0  0  0  0  0  0  0134  0  0
  -28.3948  -26.7345   20.0089 O   0  0  0  0  0  0  0  0  0135  0  0
  -26.5870  -34.9065   22.4671 O   0  0  0  0  0  0  0  0  0136  0  0
  -23.5365  -32.1254   23.7833 O   0  0  0  0  0  0  0  0  0137  0  0
  -30.3654  -24.8212   18.4161 C   0  0  0  0  0  0  0  0  0  0  0  0
  -29.5601  -22.2329   18.7287 C   0  0  0  0  0  0  0  0  0  0  0  0
  -31.3206  -23.8130   18.4832 C   0  0  0  0  0  0  0  0  0  0  0  0
  -30.9185  -22.4915   18.6424 C   0  0  0  0  0  0  0  0  0  0  0  0
  -29.0317  -24.4582   18.5123 C   0  0  0  0  0  0  0  0  0  0  0  0
  -32.7664  -24.1710   18.3823 C   0  0  0  0  0  0  0  0  0  0  0  0
  -32.2414  -20.7798   17.3456 C   0  0  0  0  0  0  0  0  0  0  0  0
  -27.9735  -25.5197   18.4443 C   0  0  0  0  0  0  0  0  0  1  0  0
  -31.8992  -21.3734   18.7208 C   0  0  2  0  0  0  0  0  0  0  0  0
  -28.6029  -23.1856   18.6676 N   0  0  0  0  0  0  0  0  0  0  0  0
  -31.4553  -20.3249   19.6121 N   0  0  0  0  0  0  0  0  0  0  0  0
  -31.4485  -12.4701   19.0860 H   0  0  0  0  0  0  0  0  0  0  0  0
  -30.3970  -11.2460   19.6950 H   0  0  0  0  0  0  0  0  0  0  0  0
  -29.6870  -11.8204   17.4226 H   0  0  0  0  0  0  0  0  0  0  0  0
  -29.6375  -13.5326   17.8649 H   0  0  0  0  0  0  0  0  0  0  0  0
  -27.7830  -11.3650   18.7904 H   0  0  0  0  0  0  0  0  0  0  0  0
  -27.4028  -12.7801   17.8021 H   0  0  0  0  0  0  0  0  0  0  0  0
  -27.7353  -14.2503   19.6136 H   0  0  0  0  0  0  0  0  0  0  0  0
  -28.5890  -11.9550   21.3832 H   0  0  0  0  0  0  0  0  0  0  0  0
  -28.5005  -13.6134   21.8562 H   0  0  0  0  0  0  0  0  0  0  0  0
  -25.2399   -9.5495   22.4318 H   0  0  0  0  0  0  0  0  0  0  0  0
  -23.9663   -7.5070   22.7297 H   0  0  0  0  0  0  0  0  0  0  0  0
  -21.1515   -8.8641   19.9162 H   0  0  0  0  0  0  0  0  0  0  0  0
  -22.4016  -10.9115   19.6476 H   0  0  0  0  0  0  0  0  0  0  0  0
  -21.2319   -7.5552   23.9750 H   0  0  0  0  0  0  0  0  0  0  0  0
  -21.1589   -6.0228   25.8556 H   0  0  0  0  0  0  0  0  0  0  0  0
  -22.0396   -2.8212   23.2809 H   0  0  0  0  0  0  0  0  0  0  0  0
  -22.4401  -11.9703   22.4008 H   0  0  0  0  0  0  0  0  0  0  0  0
  -21.1493  -13.0679   22.2082 H   0  0  0  0  0  0  0  0  0  0  0  0
  -24.6538  -15.7807   20.5848 H   0  0  0  0  0  0  0  0  0  0  0  0
  -26.2762  -15.5453   20.1156 H   0  0  0  0  0  0  0  0  0  0  0  0
  -26.6778  -32.4663   23.1464 H   0  0  0  0  0  0  0  0  0  0  0  0
  -25.0747  -34.0282   25.0566 H   0  0  0  0  0  0  0  0  0  0  0  0
  -22.7881  -31.3489   21.4131 H   0  0  0  0  0  0  0  0  0  0  0  0
  -23.3854  -35.9823   23.3648 H   0  0  0  0  0  0  0  0  0  0  0  0
  -24.3696  -36.8624   22.2204 H   0  0  0  0  0  0  0  0  0  0  0  0
  -23.7669  -37.6632   23.6516 H   0  0  0  0  0  0  0  0  0  0  0  0
  -25.9445  -31.6237   20.5691 H   0  0  0  0  0  0  0  0  0  0  0  0
  -26.7436  -31.0079   22.0108 H   0  0  0  0  0  0  0  0  0  0  0  0
  -28.0090  -29.1452   21.2057 H   0  0  0  0  0  0  0  0  0  0  0  0
  -26.1369  -26.0560   19.0719 H   0  0  0  0  0  0  0  0  0  0  0  0
  -24.0652  -27.2961   19.0997 H   0  0  0  0  0  0  0  0  0  0  0  0
  -23.6156  -30.5365   19.3930 H   0  0  0  0  0  0  0  0  0  0  0  0
  -22.7355  -29.1425   19.9945 H   0  0  0  0  0  0  0  0  0  0  0  0
  -25.1353  -36.2335   25.0565 H   0  0  0  0  0  0  0  0  0  0  0  0
  -21.0070  -28.3206   24.0793 H   0  0  0  0  0  0  0  0  0  0  0  0
  -20.5555  -26.2518   23.3550 H   0  0  0  0  0  0  0  0  0  0  0  0
  -21.5974  -26.8362   22.0454 H   0  0  0  0  0  0  0  0  0  0  0  0
  -19.6810  -25.6422   21.1488 H   0  0  0  0  0  0  0  0  0  0  0  0
  -19.6406  -27.3343   20.7034 H   0  0  0  0  0  0  0  0  0  0  0  0
  -17.4282  -26.6888   21.4113 H   0  0  0  0  0  0  0  0  0  0  0  0
  -18.0803  -26.0130   22.9049 H   0  0  0  0  0  0  0  0  0  0  0  0
  -19.7265  -30.6774   24.2204 H   0  0  0  0  0  0  0  0  0  0  0  0
  -17.5064  -31.5856   24.4483 H   0  0  0  0  0  0  0  0  0  0  0  0
  -15.5878  -30.2839   23.7407 H   0  0  0  0  0  0  0  0  0  0  0  0
  -15.9120  -28.0941   22.7766 H   0  0  0  0  0  0  0  0  0  0  0  0
  -24.5787  -30.7757   25.6817 H   0  0  0  0  0  0  0  0  0  0  0  0
  -25.0041  -32.2289   26.5536 H   0  0  0  0  0  0  0  0  0  0  0  0
  -25.8166  -30.7245   26.9138 H   0  0  0  0  0  0  0  0  0  0  0  0
  -26.2892  -29.7335   24.0803 H   0  0  0  0  0  0  0  0  0  0  0  0
  -27.4336  -29.7484   25.4006 H   0  0  0  0  0  0  0  0  0  0  0  0
  -27.8466  -30.4994   23.8779 H   0  0  0  0  0  0  0  0  0  0  0  0
  -27.2251  -33.3632   26.1242 H   0  0  0  0  0  0  0  0  0  0  0  0
  -28.3902  -32.6065   25.0645 H   0  0  0  0  0  0  0  0  0  0  0  0
  -27.9772  -31.8555   26.5872 H   0  0  0  0  0  0  0  0  0  0  0  0
  -28.2744  -38.0016   24.6863 H   0  0  0  0  0  0  0  0  0  0  0  0
  -28.0396  -36.2711   24.7461 H   0  0  0  0  0  0  0  0  0  0  0  0
  -27.1773  -37.3087   25.8564 H   0  0  0  0  0  0  0  0  0  0  0  0
  -20.9627  -29.9365   21.7352 H   0  0  0  0  0  0  0  0  0  0  0  0
  -26.0447  -38.2561   24.0273 H   0  0  0  0  0  0  0  0  0  0  0  0
  -30.6411  -25.8087   18.2984 H   0  0  0  0  0  0  0  0  0  0  0  0
  -29.2605  -21.2525   18.8469 H   0  0  0  0  0  0  0  0  0  0  0  0
  -32.8642  -25.2300   18.2644 H   0  0  0  0  0  0  0  0  0  0  0  0
  -33.1981  -23.6767   17.5372 H   0  0  0  0  0  0  0  0  0  0  0  0
  -33.2731  -23.8629   19.2729 H   0  0  0  0  0  0  0  0  0  0  0  0
  -32.5689  -21.5607   16.6915 H   0  0  0  0  0  0  0  0  0  0  0  0
  -31.3726  -20.3104   16.9336 H   0  0  0  0  0  0  0  0  0  0  0  0
  -33.0210  -20.0549   17.4540 H   0  0  0  0  0  0  0  0  0  0  0  0
  -26.9983  -25.0915   18.5473 H   0  0  0  0  0  0  0  0  0  0  0  0
  -27.9715  -26.0393   17.5089 H   0  0  0  0  0  0  0  0  0  0  0  0
  -32.7925  -21.8072   19.1192 H   0  0  0  0  0  0  0  0  0  0  0  0
  -31.1063  -20.7812   20.4116 H   0  0  0  0  0  0  0  0  0  0  0  0
  1 25  1  0
  1 30  2  0
  1 81  1  0
  2  3  1  0
  2 25  1  0
  2 82  1  0
  2 83  1  0
  3  4  1  0
  3 84  1  0
  3 85  1  0
  4  5  1  0
  4 86  1  0
  4 87  1  0
  5  6  1  0
  5 26  1  0
  5 88  1  6
  6 25  1  0
  6 89  1  0
  6 90  1  0
  7  8  2  0
  7 26  1  0
  7 29  1  0
  8  9  1  0
  8 22  1  0
  9 10  1  0
  9 27  2  0
 10 11  2  0
 10 15  1  0
 11 12  1  0
 11 91  1  0
 12 13  2  0
 12 92  1  0
 13 14  1  0
 13 31  1  0
 14 15  2  0
 14 93  1  0
 15 94  1  0
 16 17  2  0
 16 21  1  0
 16 31  1  0
 17 18  1  0
 17 95  1  0
 18 19  2  0
 18 96  1  0
 19 20  1  0
 19 24  1  0
 20 21  2  0
 20 97  1  0
 21 23  1  0
 22 28  1  0
 22 32  2  0
 26 27  1  0
 28 98  1  0
 28 99  1  0
 29100  1  0
 29101  1  0
 33 34  1  0
 33 66  1  0
 33 70  2  0
 34 36  1  0
 34 59  1  0
 34102  1  6
 35 44  2  0
 35 45  1  0
 35 68  1  0
 36 56  1  0
 36103  1  0
 37 39  1  0
 37 47  1  0
 37 66  1  0
 37104  1  6
 38 43  2  0
 38 46  1  0
 38 47  1  0
 39 64  1  0
 39 67  2  0
 40 52  1  0
 40 53  2  0
 40 58  1  0
 41105  1  0
 41106  1  0
 41107  1  0
 42 43  1  0
 42 66  1  0
 42108  1  0
 42109  1  0
 43 44  1  0
 44110  1  0
 45 46  2  0
 45111  1  0
 46112  1  0
 47113  1  0
 47114  1  0
 48 41  1  0
 48 56  1  0
 48 65  1  0
 48115  1  1
 49 50  1  0
 49 53  1  0
 49 64  1  0
 49116  1  1
 50 51  1  0
 50117  1  0
 50118  1  0
 51 52  1  0
 51119  1  0
 51120  1  0
 52121  1  0
 52122  1  0
 53 54  1  0
 54 55  2  0
 54123  1  0
 55 57  1  0
 55124  1  0
 56 69  2  0
 57 58  2  0
 57125  1  0
 58126  1  0
 59 60  1  0
 59 61  1  0
 59 62  1  0
 60127  1  0
 60128  1  0
 60129  1  0
 61130  1  0
 61131  1  0
 61132  1  0
 62133  1  0
 62134  1  0
 62135  1  0
 63 65  1  0
 63136  1  0
 63137  1  0
 63138  1  0
 64139  1  0
 65140  1  0
 68 78  1  0
 71 73  2  0
 71 75  1  0
 71141  1  0
 72 74  2  0
 72 80  1  0
 72142  1  0
 73 74  1  0
 73 76  1  0
 74 79  1  0
 75 78  1  0
 75 80  2  0
 76143  1  0
 76144  1  0
 76145  1  0
 77146  1  0
 77147  1  0
 77148  1  0
 78149  1  0
 78150  1  0
 79 77  1  0
 79 81  1  0
 79151  1  1
 81152  1  0
M  ISO  4   1 100  68 101  78 101  81 100
M  END
$$$$
8
     RDKit          3D

153161  0  0  0  0  0  0  0  0999 V2000
  -30.7652  -14.3608   20.6636 C   0  0  0  0  0  0  0  0  0100  0  0
  -30.4392  -12.2669   19.3775 C   0  0  0  0  0  0  0  0  0101  0  0
  -29.4791  -12.5281   18.1977 C   0  0  0  0  0  0  0  0  0102  0  0
  -27.9985  -12.3963   18.6038 C   0  0  0  0  0  0  0  0  0103  0  0
  -27.6639  -13.2170   19.8820 C   0  0  2  0  0  0  0  0  0104  0  0
  -28.6795  -12.9602   21.0279 C   0  0  0  0  0  0  0  0  0105  0  0
  -25.2633  -13.8245   20.5754 C   0  0  0  0  0  0  0  0  0106  0  0
  -24.1645  -13.0409   20.9408 C   0  0  0  0  0  0  0  0  0107  0  0
  -24.6400  -11.7009   20.8697 C   0  0  0  0  0  0  0  0  0108  0  0
  -23.9005  -10.4085   21.0420 C   0  0  0  0  0  0  0  0  0109  0  0
  -24.3588   -9.4123   21.9123 C   0  0  0  0  0  0  0  0  0110  0  0
  -23.6296   -8.2350   22.0803 C   0  0  0  0  0  0  0  0  0111  0  0
  -22.4385   -8.0419   21.3657 C   0  0  0  0  0  0  0  0  0112  0  0
  -22.0103   -9.0167   20.4678 C   0  0  0  0  0  0  0  0  0113  0  0
  -22.7317  -10.1925   20.3102 C   0  0  0  0  0  0  0  0  0114  0  0
  -21.6857   -6.0709   22.5391 C   0  0  0  0  0  0  0  0  0115  0  0
  -21.4064   -6.5490   23.8264 C   0  0  0  0  0  0  0  0  0116  0  0
  -21.3635   -5.6677   24.9085 C   0  0  0  0  0  0  0  0  0117  0  0
  -21.5973   -4.3067   24.7088 C   0  0  0  0  0  0  0  0  0118  0  0
  -21.8700   -3.8284   23.4282 C   0  0  0  0  0  0  0  0  0119  0  0
  -21.9144   -4.7056   22.3460 C   0  0  0  0  0  0  0  0  0120  0  0
  -22.8194  -13.5263   21.1763 C   0  0  0  0  0  0  0  0  0121  0  0
  -22.1559   -4.2206   21.1063 F   0  0  0  0  0  0  0  0  0122  0  0
  -21.5628   -3.4510   25.7555 F   0  0  0  0  0  0  0  0  0123  0  0
  -30.0261  -13.1803   20.4553 N   0  0  0  0  0  0  0  0  0124  0  0
  -26.2911  -12.9356   20.3443 N   0  0  0  0  0  0  0  0  0125  0  0
  -25.9236  -11.6675   20.5847 N   0  0  0  0  0  0  0  0  0126  0  0
  -22.0708  -12.7905   22.0005 N   0  0  0  0  0  0  0  0  0127  0  0
  -25.4117  -15.1773   20.4097 N   0  0  0  0  0  0  0  0  0128  0  0
  -31.7916  -14.6724   20.0536 O   0  0  0  0  0  0  0  0  0129  0  0
  -21.6670   -6.9022   21.4423 O   0  0  0  0  0  0  0  0  0130  0  0
  -22.3946  -14.5564   20.6568 O   0  0  0  0  0  0  0  0  0131  0  0
  -24.6048  -31.8614   23.2223 C   0  0  0  0  0  0  0  0  0100  0  0
  -25.8822  -32.4841   23.8616 C   0  0  1  0  0  0  0  0  0101  0  0
  -27.2536  -27.5042   20.1156 C   0  0  0  0  0  0  0  0  0102  0  0
  -25.5726  -33.8762   24.2210 N   0  0  0  0  0  0  0  0  0103  0  0
  -23.4066  -30.4859   21.5461 C   0  0  2  0  0  0  0  0  0104  0  0
  -24.8467  -28.9636   20.1247 C   0  0  0  0  0  0  0  0  0105  0  0
  -22.7412  -29.4652   22.5052 C   0  0  0  0  0  0  0  0  0106  0  0
  -18.0167  -28.1302   22.8626 C   0  0  0  0  0  0  0  0  0107  0  0
  -24.1342  -36.7390   23.2568 C   0  0  0  0  0  0  0  0  0108  0  0
  -25.9141  -30.8882   21.3456 C   0  0  0  0  0  0  0  0  0109  0  0
  -25.9930  -29.5029   20.7208 C   0  0  0  0  0  0  0  0  0110  0  0
  -27.1758  -28.7612   20.7331 C   0  0  0  0  0  0  0  0  0111  0  0
  -26.1032  -26.9836   19.5230 C   0  0  0  0  0  0  0  0  0112  0  0
  -24.9097  -27.7011   19.5331 C   0  0  0  0  0  0  0  0  0113  0  0
  -23.5715  -29.7899   20.1582 C   0  0  0  0  0  0  0  0  0114  0  0
  -25.3990  -36.3212   24.0232 C   0  0  1  0  0  0  0  0  0115  0  0
  -20.5793  -28.3813   23.1004 C   0  0  2  0  0  0  0  0  0116  0  0
  -20.6548  -26.9392   22.5411 C   0  0  0  0  0  0  0  0  0117  0  0
  -19.5615  -26.6407   21.5143 C   0  0  0  0  0  0  0  0  0118  0  0
  -18.1797  -26.7818   22.1673 C   0  0  0  0  0  0  0  0  0119  0  0
  -19.1385  -28.8769   23.2988 C   0  0  0  0  0  0  0  0  0120  0  0
  -18.9183  -30.1286   23.8878 C   0  0  0  0  0  0  0  0  0121  0  0
  -17.6396  -30.6493   24.0352 C   0  0  0  0  0  0  0  0  0122  0  0
  -25.9153  -34.9582   23.4993 C   0  0  0  0  0  0  0  0  0123  0  0
  -16.5415  -29.9068   23.6254 C   0  0  0  0  0  0  0  0  0124  0  0
  -16.7331  -28.6521   23.0586 C   0  0  0  0  0  0  0  0  0125  0  0
  -26.4583  -31.6439   25.0683 C   0  0  0  0  0  0  0  0  0126  0  0
  -25.3807  -31.3179   26.1374 C   0  0  0  0  0  0  0  0  0127  0  0
  -27.0530  -30.3024   24.5680 C   0  0  0  0  0  0  0  0  0128  0  0
  -27.6014  -32.4281   25.7651 C   0  0  0  0  0  0  0  0  0129  0  0
  -27.5629  -37.2220   24.8621 C   0  0  0  0  0  0  0  0  0130  0  0
  -21.4133  -29.3375   22.3735 N   0  0  0  0  0  0  0  0  0131  0  0
  -26.4706  -37.3372   23.9061 N   0  0  0  0  0  0  0  0  0132  0  0
  -24.6674  -31.0544   22.1178 N   0  0  0  0  0  0  0  0  0133  0  0
  -23.4259  -28.8150   23.2971 O   0  0  0  0  0  0  0  0  0134  0  0
  -28.3948  -26.7345   20.0089 O   0  0  0  0  0  0  0  0  0135  0  0
  -26.5870  -34.9065   22.4671 O   0  0  0  0  0  0  0  0  0136  0  0
  -23.5365  -32.1254   23.7833 O   0  0  0  0  0  0  0  0  0137  0  0
  -32.1284  -18.3107   22.2283 C   0  0  0  0  0  0  0  0  0  0  0  0
  -32.4696  -16.6958   23.6886 C   0  0  0  0  0  0  0  0  0  0  0  0
  -32.6932  -17.2067   21.6344 C   0  0  0  0  0  0  0  0  0  0  0  0
  -31.4470  -18.7988   24.5906 C   0  0  0  0  0  0  0  0  0  0  0  0
  -29.9217  -18.8562   24.5747 C   0  0  0  0  0  0  0  0  0  0  0  0
  -31.8645  -17.0939   19.2448 C   0  0  0  0  0  0  0  0  0  1  0  0
  -33.0704  -17.0154   20.1837 C   0  0  2  0  0  0  0  0  0  0  0  0
  -32.9028  -16.2048   22.5487 N   0  0  0  0  0  0  0  0  0  0  0  0
  -31.9908  -17.9683   23.5440 N   0  0  0  0  0  0  0  0  0  0  0  0
  -29.4050  -19.4129   23.3442 N   0  0  0  0  0  0  0  0  0  0  0  0
  -33.7638  -15.7087   19.9454 N   0  0  0  0  0  0  0  0  0  0  0  0
  -31.4485  -12.4701   19.0860 H   0  0  0  0  0  0  0  0  0  0  0  0
  -30.3970  -11.2460   19.6950 H   0  0  0  0  0  0  0  0  0  0  0  0
  -29.6870  -11.8204   17.4226 H   0  0  0  0  0  0  0  0  0  0  0  0
  -29.6375  -13.5326   17.8649 H   0  0  0  0  0  0  0  0  0  0  0  0
  -27.7830  -11.3650   18.7904 H   0  0  0  0  0  0  0  0  0  0  0  0
  -27.4028  -12.7801   17.8021 H   0  0  0  0  0  0  0  0  0  0  0  0
  -27.7353  -14.2503   19.6136 H   0  0  0  0  0  0  0  0  0  0  0  0
  -28.5890  -11.9550   21.3832 H   0  0  0  0  0  0  0  0  0  0  0  0
  -28.5005  -13.6134   21.8562 H   0  0  0  0  0  0  0  0  0  0  0  0
  -25.2399   -9.5495   22.4318 H   0  0  0  0  0  0  0  0  0  0  0  0
  -23.9663   -7.5070   22.7297 H   0  0  0  0  0  0  0  0  0  0  0  0
  -21.1515   -8.8641   19.9162 H   0  0  0  0  0  0  0  0  0  0  0  0
  -22.4016  -10.9115   19.6476 H   0  0  0  0  0  0  0  0  0  0  0  0
  -21.2319   -7.5552   23.9750 H   0  0  0  0  0  0  0  0  0  0  0  0
  -21.1589   -6.0228   25.8556 H   0  0  0  0  0  0  0  0  0  0  0  0
  -22.0396   -2.8212   23.2809 H   0  0  0  0  0  0  0  0  0  0  0  0
  -22.4401  -11.9703   22.4008 H   0  0  0  0  0  0  0  0  0  0  0  0
  -21.1493  -13.0679   22.2082 H   0  0  0  0  0  0  0  0  0  0  0  0
  -24.6538  -15.7807   20.5848 H   0  0  0  0  0  0  0  0  0  0  0  0
  -26.2762  -15.5453   20.1156 H   0  0  0  0  0  0  0  0  0  0  0  0
  -26.6778  -32.4663   23.1464 H   0  0  0  0  0  0  0  0  0  0  0  0
  -25.0747  -34.0282   25.0566 H   0  0  0  0  0  0  0  0  0  0  0  0
  -22.7881  -31.3489   21.4131 H   0  0  0  0  0  0  0  0  0  0  0  0
  -23.3854  -35.9823   23.3648 H   0  0  0  0  0  0  0  0  0  0  0  0
  -24.3696  -36.8624   22.2204 H   0  0  0  0  0  0  0  0  0  0  0  0
  -23.7669  -37.6632   23.6516 H   0  0  0  0  0  0  0  0  0  0  0  0
  -25.9445  -31.6237   20.5691 H   0  0  0  0  0  0  0  0  0  0  0  0
  -26.7436  -31.0079   22.0108 H   0  0  0  0  0  0  0  0  0  0  0  0
  -28.0090  -29.1452   21.2057 H   0  0  0  0  0  0  0  0  0  0  0  0
  -26.1369  -26.0560   19.0719 H   0  0  0  0  0  0  0  0  0  0  0  0
  -24.0652  -27.2961   19.0997 H   0  0  0  0  0  0  0  0  0  0  0  0
  -23.6156  -30.5365   19.3930 H   0  0  0  0  0  0  0  0  0  0  0  0
  -22.7355  -29.1425   19.9945 H   0  0  0  0  0  0  0  0  0  0  0  0
  -25.1353  -36.2335   25.0565 H   0  0  0  0  0  0  0  0  0  0  0  0
  -21.0070  -28.3206   24.0793 H   0  0  0  0  0  0  0  0  0  0  0  0
  -20.5555  -26.2518   23.3550 H   0  0  0  0  0  0  0  0  0  0  0  0
  -21.5974  -26.8362   22.0454 H   0  0  0  0  0  0  0  0  0  0  0  0
  -19.6810  -25.6422   21.1488 H   0  0  0  0  0  0  0  0  0  0  0  0
  -19.6406  -27.3343   20.7034 H   0  0  0  0  0  0  0  0  0  0  0  0
  -17.4282  -26.6888   21.4113 H   0  0  0  0  0  0  0  0  0  0  0  0
  -18.0803  -26.0130   22.9049 H   0  0  0  0  0  0  0  0  0  0  0  0
  -19.7265  -30.6774   24.2204 H   0  0  0  0  0  0  0  0  0  0  0  0
  -17.5064  -31.5856   24.4483 H   0  0  0  0  0  0  0  0  0  0  0  0
  -15.5878  -30.2839   23.7407 H   0  0  0  0  0  0  0  0  0  0  0  0
  -15.9120  -28.0941   22.7766 H   0  0  0  0  0  0  0  0  0  0  0  0
  -24.5787  -30.7757   25.6817 H   0  0  0  0  0  0  0  0  0  0  0  0
  -25.0041  -32.2289   26.5536 H   0  0  0  0  0  0  0  0  0  0  0  0
  -25.8166  -30.7245   26.9138 H   0  0  0  0  0  0  0  0  0  0  0  0
  -26.2892  -29.7335   24.0803 H   0  0  0  0  0  0  0  0  0  0  0  0
  -27.4336  -29.7484   25.4006 H   0  0  0  0  0  0  0  0  0  0  0  0
  -27.8466  -30.4994   23.8779 H   0  0  0  0  0  0  0  0  0  0  0  0
  -27.2251  -33.3632   26.1242 H   0  0  0  0  0  0  0  0  0  0  0  0
  -28.3902  -32.6065   25.0645 H   0  0  0  0  0  0  0  0  0  0  0  0
  -27.9772  -31.8555   26.5872 H   0  0  0  0  0  0  0  0  0  0  0  0
  -28.2744  -38.0016   24.6863 H   0  0  0  0  0  0  0  0  0  0  0  0
  -28.0396  -36.2711   24.7461 H   0  0  0  0  0  0  0  0  0  0  0  0
  -27.1773  -37.3087   25.8564 H   0  0  0  0  0  0  0  0  0  0  0  0
  -20.9627  -29.9365   21.7352 H   0  0  0  0  0  0  0  0  0  0  0  0
  -26.0447  -38.2561   24.0273 H   0  0  0  0  0  0  0  0  0  0  0  0
  -31.8661  -19.2020   21.7791 H   0  0  0  0  0  0  0  0  0  0  0  0
  -32.4886  -16.1830   24.5840 H   0  0  0  0  0  0  0  0  0  0  0  0
  -31.7637  -18.4081   25.5351 H   0  0  0  0  0  0  0  0  0  0  0  0
  -31.8064  -19.7936   24.4290 H   0  0  0  0  0  0  0  0  0  0  0  0
  -29.5919  -19.4632   25.3919 H   0  0  0  0  0  0  0  0  0  0  0  0
  -29.5561  -17.8541   24.6589 H   0  0  0  0  0  0  0  0  0  0  0  0
  -31.1089  -16.3998   19.5483 H   0  0  0  0  0  0  0  0  0  0  0  0
  -32.1296  -16.8470   18.2380 H   0  0  0  0  0  0  0  0  0  0  0  0
  -33.7385  -17.8223   19.9658 H   0  0  0  0  0  0  0  0  0  0  0  0
  -29.0003  -20.2683   23.0727 H   0  0  0  0  0  0  0  0  0  0  0  0
  -33.1246  -14.9416   20.1539 H   0  0  0  0  0  0  0  0  0  0  0  0
  -34.5825  -15.6430   20.5502 H   0  0  0  0  0  0  0  0  0  0  0  0
  -34.0563  -15.6520   18.9699 H   0  0  0  0  0  0  0  0  0  0  0  0
  1 25  1  0
  1 30  2  0
  1 80  1  0
  2  3  1  0
  2 25  1  0
  2 82  1  0
  2 83  1  0
  3  4  1  0
  3 84  1  0
  3 85  1  0
  4  5  1  0
  4 86  1  0
  4 87  1  0
  5  6  1  0
  5 26  1  0
  5 88  1  6
  6 25  1  0
  6 89  1  0
  6 90  1  0
  7  8  2  0
  7 26  1  0
  7 29  1  0
  8  9  1  0
  8 22  1  0
  9 10  1  0
  9 27  2  0
 10 11  2  0
 10 15  1  0
 11 12  1  0
 11 91  1  0
 12 13  2  0
 12 92  1  0
 13 14  1  0
 13 31  1  0
 14 15  2  0
 14 93  1  0
 15 94  1  0
 16 17  2  0
 16 21  1  0
 16 31  1  0
 17 18  1  0
 17 95  1  0
 18 19  2  0
 18 96  1  0
 19 20  1  0
 19 24  1  0
 20 21  2  0
 20 97  1  0
 21 23  1  0
 22 28  1  0
 22 32  2  0
 26 27  1  0
 28 98  1  0
 28 99  1  0
 29100  1  0
 29101  1  0
 33 34  1  0
 33 66  1  0
 33 70  2  0
 34 36  1  0
 34 59  1  0
 34102  1  6
 35 44  2  0
 35 45  1  0
 35 68  1  0
 36 56  1  0
 36103  1  0
 37 39  1  0
 37 47  1  0
 37 66  1  0
 37104  1  6
 38 43  2  0
 38 46  1  0
 38 47  1  0
 39 64  1  0
 39 67  2  0
 40 52  1  0
 40 53  2  0
 40 58  1  0
 41105  1  0
 41106  1  0
 41107  1  0
 42 43  1  0
 42 66  1  0
 42108  1  0
 42109  1  0
 43 44  1  0
 44110  1  0
 45 46  2  0
 45111  1  0
 46112  1  0
 47113  1  0
 47114  1  0
 48 41  1  0
 48 56  1  0
 48 65  1  0
 48115  1  1
 49 50  1  0
 49 53  1  0
 49 64  1  0
 49116  1  1
 50 51  1  0
 50117  1  0
 50118  1  0
 51 52  1  0
 51119  1  0
 51120  1  0
 52121  1  0
 52122  1  0
 53 54  1  0
 54 55  2  0
 54123  1  0
 55 57  1  0
 55124  1  0
 56 69  2  0
 57 58  2  0
 57125  1  0
 58126  1  0
 59 60  1  0
 59 61  1  0
 59 62  1  0
 60127  1  0
 60128  1  0
 60129  1  0
 61130  1  0
 61131  1  0
 61132  1  0
 62133  1  0
 62134  1  0
 62135  1  0
 63 65  1  0
 63136  1  0
 63137  1  0
 63138  1  0
 64139  1  0
 65140  1  0
 68 76  1  0
 71 73  2  0
 71 79  1  0
 71141  1  0
 72 78  2  0
 72 79  1  0
 72142  1  0
 73 77  1  0
 73 78  1  0
 74 75  1  0
 74 79  1  0
 74143  1  0
 74144  1  0
 75 80  1  0
 75145  1  0
 75146  1  0
 76 77  1  0
 76147  1  0
 76148  1  0
 77 81  1  0
 77149  1  6
 80150  1  0
 81151  1  0
 81152  1  0
 81153  1  0
M  CHG  1  81   1
M  ISO  4   1 100  68 101  76 101  80 100
M  END
$$$$
9
     RDKit          3D

179187  0  0  0  0  0  0  0  0999 V2000
  -30.7652  -14.3608   20.6636 C   0  0  0  0  0  0  0  0  0100  0  0
  -30.4392  -12.2669   19.3775 C   0  0  0  0  0  0  0  0  0101  0  0
  -29.4791  -12.5281   18.1977 C   0  0  0  0  0  0  0  0  0102  0  0
  -27.9985  -12.3963   18.6038 C   0  0  0  0  0  0  0  0  0103  0  0
  -27.6639  -13.2170   19.8820 C   0  0  2  0  0  0  0  0  0104  0  0
  -28.6795  -12.9602   21.0279 C   0  0  0  0  0  0  0  0  0105  0  0
  -25.2633  -13.8245   20.5754 C   0  0  0  0  0  0  0  0  0106  0  0
  -24.1645  -13.0409   20.9408 C   0  0  0  0  0  0  0  0  0107  0  0
  -24.6400  -11.7009   20.8697 C   0  0  0  0  0  0  0  0  0108  0  0
  -23.9005  -10.4085   21.0420 C   0  0  0  0  0  0  0  0  0109  0  0
  -24.3588   -9.4123   21.9123 C   0  0  0  0  0  0  0  0  0110  0  0
  -23.6296   -8.2350   22.0803 C   0  0  0  0  0  0  0  0  0111  0  0
  -22.4385   -8.0419   21.3657 C   0  0  0  0  0  0  0  0  0112  0  0
  -22.0103   -9.0167   20.4678 C   0  0  0  0  0  0  0  0  0113  0  0
  -22.7317  -10.1925   20.3102 C   0  0  0  0  0  0  0  0  0114  0  0
  -21.6857   -6.0709   22.5391 C   0  0  0  0  0  0  0  0  0115  0  0
  -21.4064   -6.5490   23.8264 C   0  0  0  0  0  0  0  0  0116  0  0
  -21.3635   -5.6677   24.9085 C   0  0  0  0  0  0  0  0  0117  0  0
  -21.5973   -4.3067   24.7088 C   0  0  0  0  0  0  0  0  0118  0  0
  -21.8700   -3.8284   23.4282 C   0  0  0  0  0  0  0  0  0119  0  0
  -21.9144   -4.7056   22.3460 C   0  0  0  0  0  0  0  0  0120  0  0
  -22.8194  -13.5263   21.1763 C   0  0  0  0  0  0  0  0  0121  0  0
  -22.1559   -4.2206   21.1063 F   0  0  0  0  0  0  0  0  0122  0  0
  -21.5628   -3.4510   25.7555 F   0  0  0  0  0  0  0  0  0123  0  0
  -30.0261  -13.1803   20.4553 N   0  0  0  0  0  0  0  0  0124  0  0
  -26.2911  -12.9356   20.3443 N   0  0  0  0  0  0  0  0  0125  0  0
  -25.9236  -11.6675   20.5847 N   0  0  0  0  0  0  0  0  0126  0  0
  -22.0708  -12.7905   22.0005 N   0  0  0  0  0  0  0  0  0127  0  0
  -25.4117  -15.1773   20.4097 N   0  0  0  0  0  0  0  0  0128  0  0
  -31.7916  -14.6724   20.0536 O   0  0  0  0  0  0  0  0  0129  0  0
  -21.6670   -6.9022   21.4423 O   0  0  0  0  0  0  0  0  0130  0  0
  -22.3946  -14.5564   20.6568 O   0  0  0  0  0  0  0  0  0131  0  0
  -24.6048  -31.8614   23.2223 C   0  0  0  0  0  0  0  0  0100  0  0
  -25.8822  -32.4841   23.8616 C   0  0  1  0  0  0  0  0  0101  0  0
  -27.2536  -27.5042   20.1156 C   0  0  0  0  0  0  0  0  0102  0  0
  -25.5726  -33.8762   24.2210 N   0  0  0  0  0  0  0  0  0103  0  0
  -23.4066  -30.4859   21.5461 C   0  0  2  0  0  0  0  0  0104  0  0
  -24.8467  -28.9636   20.1247 C   0  0  0  0  0  0  0  0  0105  0  0
  -22.7412  -29.4652   22.5052 C   0  0  0  0  0  0  0  0  0106  0  0
  -18.0167  -28.1302   22.8626 C   0  0  0  0  0  0  0  0  0107  0  0
  -24.1342  -36.7390   23.2568 C   0  0  0  0  0  0  0  0  0108  0  0
  -25.9141  -30.8882   21.3456 C   0  0  0  0  0  0  0  0  0109  0  0
  -25.9930  -29.5029   20.7208 C   0  0  0  0  0  0  0  0  0110  0  0
  -27.1758  -28.7612   20.7331 C   0  0  0  0  0  0  0  0  0111  0  0
  -26.1032  -26.9836   19.5230 C   0  0  0  0  0  0  0  0  0112  0  0
  -24.9097  -27.7011   19.5331 C   0  0  0  0  0  0  0  0  0113  0  0
  -23.5715  -29.7899   20.1582 C   0  0  0  0  0  0  0  0  0114  0  0
  -25.3990  -36.3212   24.0232 C   0  0  1  0  0  0  0  0  0115  0  0
  -20.5793  -28.3813   23.1004 C   0  0  2  0  0  0  0  0  0116  0  0
  -20.6548  -26.9392   22.5411 C   0  0  0  0  0  0  0  0  0117  0  0
  -19.5615  -26.6407   21.5143 C   0  0  0  0  0  0  0  0  0118  0  0
  -18.1797  -26.7818   22.1673 C   0  0  0  0  0  0  0  0  0119  0  0
  -19.1385  -28.8769   23.2988 C   0  0  0  0  0  0  0  0  0120  0  0
  -18.9183  -30.1286   23.8878 C   0  0  0  0  0  0  0  0  0121  0  0
  -17.6396  -30.6493   24.0352 C   0  0  0  0  0  0  0  0  0122  0  0
  -25.9153  -34.9582   23.4993 C   0  0  0  0  0  0  0  0  0123  0  0
  -16.5415  -29.9068   23.6254 C   0  0  0  0  0  0  0  0  0124  0  0
  -16.7331  -28.6521   23.0586 C   0  0  0  0  0  0  0  0  0125  0  0
  -26.4583  -31.6439   25.0683 C   0  0  0  0  0  0  0  0  0126  0  0
  -25.3807  -31.3179   26.1374 C   0  0  0  0  0  0  0  0  0127  0  0
  -27.0530  -30.3024   24.5680 C   0  0  0  0  0  0  0  0  0128  0  0
  -27.6014  -32.4281   25.7651 C   0  0  0  0  0  0  0  0  0129  0  0
  -27.5629  -37.2220   24.8621 C   0  0  0  0  0  0  0  0  0130  0  0
  -21.4133  -29.3375   22.3735 N   0  0  0  0  0  0  0  0  0131  0  0
  -26.4706  -37.3372   23.9061 N   0  0  0  0  0  0  0  0  0132  0  0
  -24.6674  -31.0544   22.1178 N   0  0  0  0  0  0  0  0  0133  0  0
  -23.4259  -28.8150   23.2971 O   0  0  0  0  0  0  0  0  0134  0  0
  -28.3948  -26.7345   20.0089 O   0  0  0  0  0  0  0  0  0135  0  0
  -26.5870  -34.9065   22.4671 O   0  0  0  0  0  0  0  0  0136  0  0
  -23.5365  -32.1254   23.7833 O   0  0  0  0  0  0  0  0  0137  0  0
  -32.8195  -27.1378   18.8419 C   0  0  0  0  0  0  0  0  0  0  0  0
  -30.5765  -27.8479   19.3411 C   0  0  0  0  0  0  0  0  0  0  0  0
  -31.8416  -28.1262   18.8357 C   0  0  0  0  0  0  0  0  0  0  0  0
  -32.4845  -25.8973   19.3604 C   0  0  0  0  0  0  0  0  0  0  0  0
  -30.3418  -26.5755   19.8370 C   0  0  0  0  0  0  0  0  0  0  0  0
  -32.1487  -29.4796   18.2903 C   0  0  0  0  0  0  0  0  0  0  0  0
  -27.0954  -24.3130   15.4474 C   0  0  0  0  0  0  0  0  0  0  0  0
  -25.6187  -22.7478   16.7077 C   0  0  0  0  0  0  0  0  0  0  0  0
  -27.9695  -21.3438   15.2862 C   0  0  0  0  0  0  0  0  0  0  0  0
  -33.5155  -24.8062   19.3849 C   0  0  0  0  0  0  0  0  0  0  0  0
  -28.9948  -26.2415   20.3854 C   0  0  0  0  0  0  0  0  0  1  0  0
  -30.7328  -21.7685   16.6505 C   0  0  0  0  0  0  0  0  0  0  0  0
  -29.5969  -22.7969   16.5515 C   0  0  0  0  0  0  0  0  0  0  0  0
  -33.5259  -23.9393   18.1299 C   0  0  0  0  0  0  0  0  0  0  0  0
  -32.1144  -22.4081   16.7508 C   0  0  0  0  0  0  0  0  0  0  0  0
  -27.0422  -23.3185   16.6193 C   0  0  0  0  0  0  0  0  0  0  0  0
  -28.1520  -22.2116   16.5490 C   0  0  1  0  0  0  0  0  0  0  0  0
  -31.2665  -25.5896   19.8599 N   0  0  0  0  0  0  0  0  0  0  0  0
  -28.0452  -21.3403   17.6979 N   0  0  0  0  0  0  0  0  0  0  0  0
  -32.2256  -23.2295   17.9790 N   0  0  0  0  0  0  0  0  0  0  0  0
  -31.4485  -12.4701   19.0860 H   0  0  0  0  0  0  0  0  0  0  0  0
  -30.3970  -11.2460   19.6950 H   0  0  0  0  0  0  0  0  0  0  0  0
  -29.6870  -11.8204   17.4226 H   0  0  0  0  0  0  0  0  0  0  0  0
  -29.6375  -13.5326   17.8649 H   0  0  0  0  0  0  0  0  0  0  0  0
  -27.7830  -11.3650   18.7904 H   0  0  0  0  0  0  0  0  0  0  0  0
  -27.4028  -12.7801   17.8021 H   0  0  0  0  0  0  0  0  0  0  0  0
  -27.7353  -14.2503   19.6136 H   0  0  0  0  0  0  0  0  0  0  0  0
  -28.5890  -11.9550   21.3832 H   0  0  0  0  0  0  0  0  0  0  0  0
  -28.5005  -13.6134   21.8562 H   0  0  0  0  0  0  0  0  0  0  0  0
  -25.2399   -9.5495   22.4318 H   0  0  0  0  0  0  0  0  0  0  0  0
  -23.9663   -7.5070   22.7297 H   0  0  0  0  0  0  0  0  0  0  0  0
  -21.1515   -8.8641   19.9162 H   0  0  0  0  0  0  0  0  0  0  0  0
  -22.4016  -10.9115   19.6476 H   0  0  0  0  0  0  0  0  0  0  0  0
  -21.2319   -7.5552   23.9750 H   0  0  0  0  0  0  0  0  0  0  0  0
  -21.1589   -6.0228   25.8556 H   0  0  0  0  0  0  0  0  0  0  0  0
  -22.0396   -2.8212   23.2809 H   0  0  0  0  0  0  0  0  0  0  0  0
  -22.4401  -11.9703   22.4008 H   0  0  0  0  0  0  0  0  0  0  0  0
  -21.1493  -13.0679   22.2082 H   0  0  0  0  0  0  0  0  0  0  0  0
  -24.6538  -15.7807   20.5848 H   0  0  0  0  0  0  0  0  0  0  0  0
  -26.2762  -15.5453   20.1156 H   0  0  0  0  0  0  0  0  0  0  0  0
  -26.6778  -32.4663   23.1464 H   0  0  0  0  0  0  0  0  0  0  0  0
  -25.0747  -34.0282   25.0566 H   0  0  0  0  0  0  0  0  0  0  0  0
  -22.7881  -31.3489   21.4131 H   0  0  0  0  0  0  0  0  0  0  0  0
  -23.3854  -35.9823   23.3648 H   0  0  0  0  0  0  0  0  0  0  0  0
  -24.3696  -36.8624   22.2204 H   0  0  0  0  0  0  0  0  0  0  0  0
  -23.7669  -37.6632   23.6516 H   0  0  0  0  0  0  0  0  0  0  0  0
  -25.9445  -31.6237   20.5691 H   0  0  0  0  0  0  0  0  0  0  0  0
  -26.7436  -31.0079   22.0108 H   0  0  0  0  0  0  0  0  0  0  0  0
  -28.0090  -29.1452   21.2057 H   0  0  0  0  0  0  0  0  0  0  0  0
  -26.1369  -26.0560   19.0719 H   0  0  0  0  0  0  0  0  0  0  0  0
  -24.0652  -27.2961   19.0997 H   0  0  0  0  0  0  0  0  0  0  0  0
  -23.6156  -30.5365   19.3930 H   0  0  0  0  0  0  0  0  0  0  0  0
  -22.7355  -29.1425   19.9945 H   0  0  0  0  0  0  0  0  0  0  0  0
  -25.1353  -36.2335   25.0565 H   0  0  0  0  0  0  0  0  0  0  0  0
  -21.0070  -28.3206   24.0793 H   0  0  0  0  0  0  0  0  0  0  0  0
  -20.5555  -26.2518   23.3550 H   0  0  0  0  0  0  0  0  0  0  0  0
  -21.5974  -26.8362   22.0454 H   0  0  0  0  0  0  0  0  0  0  0  0
  -19.6810  -25.6422   21.1488 H   0  0  0  0  0  0  0  0  0  0  0  0
  -19.6406  -27.3343   20.7034 H   0  0  0  0  0  0  0  0  0  0  0  0
  -17.4282  -26.6888   21.4113 H   0  0  0  0  0  0  0  0  0  0  0  0
  -18.0803  -26.0130   22.9049 H   0  0  0  0  0  0  0  0  0  0  0  0
  -19.7265  -30.6774   24.2204 H   0  0  0  0  0  0  0  0  0  0  0  0
  -17.5064  -31.5856   24.4483 H   0  0  0  0  0  0  0  0  0  0  0  0
  -15.5878  -30.2839   23.7407 H   0  0  0  0  0  0  0  0  0  0  0  0
  -15.9120  -28.0941   22.7766 H   0  0  0  0  0  0  0  0  0  0  0  0
  -24.5787  -30.7757   25.6817 H   0  0  0  0  0  0  0  0  0  0  0  0
  -25.0041  -32.2289   26.5536 H   0  0  0  0  0  0  0  0  0  0  0  0
  -25.8166  -30.7245   26.9138 H   0  0  0  0  0  0  0  0  0  0  0  0
  -26.2892  -29.7335   24.0803 H   0  0  0  0  0  0  0  0  0  0  0  0
  -27.4336  -29.7484   25.4006 H   0  0  0  0  0  0  0  0  0  0  0  0
  -27.8466  -30.4994   23.8779 H   0  0  0  0  0  0  0  0  0  0  0  0
  -27.2251  -33.3632   26.1242 H   0  0  0  0  0  0  0  0  0  0  0  0
  -28.3902  -32.6065   25.0645 H   0  0  0  0  0  0  0  0  0  0  0  0
  -27.9772  -31.8555   26.5872 H   0  0  0  0  0  0  0  0  0  0  0  0
  -28.2744  -38.0016   24.6863 H   0  0  0  0  0  0  0  0  0  0  0  0
  -28.0396  -36.2711   24.7461 H   0  0  0  0  0  0  0  0  0  0  0  0
  -27.1773  -37.3087   25.8564 H   0  0  0  0  0  0  0  0  0  0  0  0
  -20.9627  -29.9365   21.7352 H   0  0  0  0  0  0  0  0  0  0  0  0
  -26.0447  -38.2561   24.0273 H   0  0  0  0  0  0  0  0  0  0  0  0
  -33.7651  -27.3223   18.4720 H   0  0  0  0  0  0  0  0  0  0  0  0
  -29.8357  -28.5664   19.3467 H   0  0  0  0  0  0  0  0  0  0  0  0
  -33.1628  -29.5053   17.9500 H   0  0  0  0  0  0  0  0  0  0  0  0
  -32.0111  -30.2129   19.0573 H   0  0  0  0  0  0  0  0  0  0  0  0
  -31.4925  -29.6918   17.4722 H   0  0  0  0  0  0  0  0  0  0  0  0
  -26.3150  -25.0366   15.5580 H   0  0  0  0  0  0  0  0  0  0  0  0
  -26.9647  -23.7855   14.5257 H   0  0  0  0  0  0  0  0  0  0  0  0
  -28.0436  -24.8089   15.4432 H   0  0  0  0  0  0  0  0  0  0  0  0
  -24.9142  -23.5519   16.7524 H   0  0  0  0  0  0  0  0  0  0  0  0
  -25.5297  -22.1462   17.5881 H   0  0  0  0  0  0  0  0  0  0  0  0
  -25.4207  -22.1478   15.8442 H   0  0  0  0  0  0  0  0  0  0  0  0
  -28.0434  -21.9612   14.4154 H   0  0  0  0  0  0  0  0  0  0  0  0
  -27.0076  -20.8758   15.3110 H   0  0  0  0  0  0  0  0  0  0  0  0
  -28.7310  -20.5927   15.2565 H   0  0  0  0  0  0  0  0  0  0  0  0
  -33.3203  -24.1767   20.2279 H   0  0  0  0  0  0  0  0  0  0  0  0
  -34.4718  -25.2829   19.4418 H   0  0  0  0  0  0  0  0  0  0  0  0
  -28.9876  -26.4173   21.4408 H   0  0  0  0  0  0  0  0  0  0  0  0
  -28.7794  -25.2119   20.1894 H   0  0  0  0  0  0  0  0  0  0  0  0
  -30.7074  -21.1485   15.7788 H   0  0  0  0  0  0  0  0  0  0  0  0
  -30.5762  -21.2066   17.5475 H   0  0  0  0  0  0  0  0  0  0  0  0
  -29.7301  -23.3471   15.6435 H   0  0  0  0  0  0  0  0  0  0  0  0
  -29.6674  -23.3947   17.4361 H   0  0  0  0  0  0  0  0  0  0  0  0
  -34.3140  -23.2194   18.2051 H   0  0  0  0  0  0  0  0  0  0  0  0
  -33.6806  -24.5658   17.2764 H   0  0  0  0  0  0  0  0  0  0  0  0
  -32.2754  -23.0314   15.8961 H   0  0  0  0  0  0  0  0  0  0  0  0
  -32.8499  -21.6319   16.7893 H   0  0  0  0  0  0  0  0  0  0  0  0
  -27.2659  -23.8396   17.5267 H   0  0  0  0  0  0  0  0  0  0  0  0
  -27.4207  -21.7405   18.3452 H   0  0  0  0  0  0  0  0  0  0  0  0
  -31.4814  -23.9269   17.9646 H   0  0  0  0  0  0  0  0  0  0  0  0
  -32.1527  -22.5857   18.7668 H   0  0  0  0  0  0  0  0  0  0  0  0
  1 25  1  0
  1 30  2  0
  1 89  1  0
  2  3  1  0
  2 25  1  0
  2 91  1  0
  2 92  1  0
  3  4  1  0
  3 93  1  0
  3 94  1  0
  4  5  1  0
  4 95  1  0
  4 96  1  0
  5  6  1  0
  5 26  1  0
  5 97  1  6
  6 25  1  0
  6 98  1  0
  6 99  1  0
  7  8  2  0
  7 26  1  0
  7 29  1  0
  8  9  1  0
  8 22  1  0
  9 10  1  0
  9 27  2  0
 10 11  2  0
 10 15  1  0
 11 12  1  0
 11100  1  0
 12 13  2  0
 12101  1  0
 13 14  1  0
 13 31  1  0
 14 15  2  0
 14102  1  0
 15103  1  0
 16 17  2  0
 16 21  1  0
 16 31  1  0
 17 18  1  0
 17104  1  0
 18 19  2  0
 18105  1  0
 19 20  1  0
 19 24  1  0
 20 21  2  0
 20106  1  0
 21 23  1  0
 22 28  1  0
 22 32  2  0
 26 27  1  0
 28107  1  0
 28108  1  0
 29109  1  0
 29110  1  0
 33 34  1  0
 33 66  1  0
 33 70  2  0
 34 36  1  0
 34 59  1  0
 34111  1  6
 35 44  2  0
 35 45  1  0
 35 68  1  0
 36 56  1  0
 36112  1  0
 37 39  1  0
 37 47  1  0
 37 66  1  0
 37113  1  6
 38 43  2  0
 38 46  1  0
 38 47  1  0
 39 64  1  0
 39 67  2  0
 40 52  1  0
 40 53  2  0
 40 58  1  0
 41114  1  0
 41115  1  0
 41116  1  0
 42 43  1  0
 42 66  1  0
 42117  1  0
 42118  1  0
 43 44  1  0
 44119  1  0
 45 46  2  0
 45120  1  0
 46121  1  0
 47122  1  0
 47123  1  0
 48 41  1  0
 48 56  1  0
 48 65  1  0
 48124  1  1
 49 50  1  0
 49 53  1  0
 49 64  1  0
 49125  1  1
 50 51  1  0
 50126  1  0
 50127  1  0
 51 52  1  0
 51128  1  0
 51129  1  0
 52130  1  0
 52131  1  0
 53 54  1  0
 54 55  2  0
 54132  1  0
 55 57  1  0
 55133  1  0
 56 69  2  0
 57 58  2  0
 57134  1  0
 58135  1  0
 59 60  1  0
 59 61  1  0
 59 62  1  0
 60136  1  0
 60137  1  0
 60138  1  0
 61139  1  0
 61140  1  0
 61141  1  0
 62142  1  0
 62143  1  0
 62144  1  0
 63 65  1  0
 63145  1  0
 63146  1  0
 63147  1  0
 64148  1  0
 65149  1  0
 68 81  1  0
 71 73  2  0
 71 74  1  0
 71150  1  0
 72 73  1  0
 72 75  2  0
 72151  1  0
 73 76  1  0
 74 80  1  0
 74 88  2  0
 75 81  1  0
 75 88  1  0
 76152  1  0
 76153  1  0
 76154  1  0
 77155  1  0
 77156  1  0
 77157  1  0
 78 86  1  0
 78158  1  0
 78159  1  0
 78160  1  0
 79161  1  0
 79162  1  0
 79163  1  0
 80 84  1  0
 80164  1  0
 80165  1  0
 81166  1  0
 81167  1  0
 82 83  1  0
 82 85  1  0
 82168  1  0
 82169  1  0
 83 87  1  0
 83170  1  0
 83171  1  0
 84 90  1  0
 84172  1  0
 84173  1  0
 85 90  1  0
 85174  1  0
 85175  1  0
 86 77  1  0
 86 87  1  0
 86176  1  0
 87 79  1  0
 87 89  1  1
 89177  1  0
 90178  1  0
 90179  1  0
M  CHG  1  90   1
M  ISO  4   1 100  68 101  81 101  89 100
M  END
$$$$
10
     RDKit          3D

168176  0  0  0  0  0  0  0  0999 V2000
  -30.7652  -14.3608   20.6636 C   0  0  0  0  0  0  0  0  0100  0  0
  -30.4392  -12.2669   19.3775 C   0  0  0  0  0  0  0  0  0101  0  0
  -29.4791  -12.5281   18.1977 C   0  0  0  0  0  0  0  0  0102  0  0
  -27.9985  -12.3963   18.6038 C   0  0  0  0  0  0  0  0  0103  0  0
  -27.6639  -13.2170   19.8820 C   0  0  2  0  0  0  0  0  0104  0  0
  -28.6795  -12.9602   21.0279 C   0  0  0  0  0  0  0  0  0105  0  0
  -25.2633  -13.8245   20.5754 C   0  0  0  0  0  0  0  0  0106  0  0
  -24.1645  -13.0409   20.9408 C   0  0  0  0  0  0  0  0  0107  0  0
  -24.6400  -11.7009   20.8697 C   0  0  0  0  0  0  0  0  0108  0  0
  -23.9005  -10.4085   21.0420 C   0  0  0  0  0  0  0  0  0109  0  0
  -24.3588   -9.4123   21.9123 C   0  0  0  0  0  0  0  0  0110  0  0
  -23.6296   -8.2350   22.0803 C   0  0  0  0  0  0  0  0  0111  0  0
  -22.4385   -8.0419   21.3657 C   0  0  0  0  0  0  0  0  0112  0  0
  -22.0103   -9.0167   20.4678 C   0  0  0  0  0  0  0  0  0113  0  0
  -22.7317  -10.1925   20.3102 C   0  0  0  0  0  0  0  0  0114  0  0
  -21.6857   -6.0709   22.5391 C   0  0  0  0  0  0  0  0  0115  0  0
  -21.4064   -6.5490   23.8264 C   0  0  0  0  0  0  0  0  0116  0  0
  -21.3635   -5.6677   24.9085 C   0  0  0  0  0  0  0  0  0117  0  0
  -21.5973   -4.3067   24.7088 C   0  0  0  0  0  0  0  0  0118  0  0
  -21.8700   -3.8284   23.4282 C   0  0  0  0  0  0  0  0  0119  0  0
  -21.9144   -4.7056   22.3460 C   0  0  0  0  0  0  0  0  0120  0  0
  -22.8194  -13.5263   21.1763 C   0  0  0  0  0  0  0  0  0121  0  0
  -22.1559   -4.2206   21.1063 F   0  0  0  0  0  0  0  0  0122  0  0
  -21.5628   -3.4510   25.7555 F   0  0  0  0  0  0  0  0  0123  0  0
  -30.0261  -13.1803   20.4553 N   0  0  0  0  0  0  0  0  0124  0  0
  -26.2911  -12.9356   20.3443 N   0  0  0  0  0  0  0  0  0125  0  0
  -25.9236  -11.6675   20.5847 N   0  0  0  0  0  0  0  0  0126  0  0
  -22.0708  -12.7905   22.0005 N   0  0  0  0  0  0  0  0  0127  0  0
  -25.4117  -15.1773   20.4097 N   0  0  0  0  0  0  0  0  0128  0  0
  -31.7916  -14.6724   20.0536 O   0  0  0  0  0  0  0  0  0129  0  0
  -21.6670   -6.9022   21.4423 O   0  0  0  0  0  0  0  0  0130  0  0
  -22.3946  -14.5564   20.6568 O   0  0  0  0  0  0  0  0  0131  0  0
  -24.6048  -31.8614   23.2223 C   0  0  0  0  0  0  0  0  0100  0  0
  -25.8822  -32.4841   23.8616 C   0  0  1  0  0  0  0  0  0101  0  0
  -27.2536  -27.5042   20.1156 C   0  0  0  0  0  0  0  0  0102  0  0
  -25.5726  -33.8762   24.2210 N   0  0  0  0  0  0  0  0  0103  0  0
  -23.4066  -30.4859   21.5461 C   0  0  2  0  0  0  0  0  0104  0  0
  -24.8467  -28.9636   20.1247 C   0  0  0  0  0  0  0  0  0105  0  0
  -22.7412  -29.4652   22.5052 C   0  0  0  0  0  0  0  0  0106  0  0
  -18.0167  -28.1302   22.8626 C   0  0  0  0  0  0  0  0  0107  0  0
  -24.1342  -36.7390   23.2568 C   0  0  0  0  0  0  0  0  0108  0  0
  -25.9141  -30.8882   21.3456 C   0  0  0  0  0  0  0  0  0109  0  0
  -25.9930  -29.5029   20.7208 C   0  0  0  0  0  0  0  0  0110  0  0
  -27.1758  -28.7612   20.7331 C   0  0  0  0  0  0  0  0  0111  0  0
  -26.1032  -26.9836   19.5230 C   0  0  0  0  0  0  0  0  0112  0  0
  -24.9097  -27.7011   19.5331 C   0  0  0  0  0  0  0  0  0113  0  0
  -23.5715  -29.7899   20.1582 C   0  0  0  0  0  0  0  0  0114  0  0
  -25.3990  -36.3212   24.0232 C   0  0  1  0  0  0  0  0  0115  0  0
  -20.5793  -28.3813   23.1004 C   0  0  2  0  0  0  0  0  0116  0  0
  -20.6548  -26.9392   22.5411 C   0  0  0  0  0  0  0  0  0117  0  0
  -19.5615  -26.6407   21.5143 C   0  0  0  0  0  0  0  0  0118  0  0
  -18.1797  -26.7818   22.1673 C   0  0  0  0  0  0  0  0  0119  0  0
  -19.1385  -28.8769   23.2988 C   0  0  0  0  0  0  0  0  0120  0  0
  -18.9183  -30.1286   23.8878 C   0  0  0  0  0  0  0  0  0121  0  0
  -17.6396  -30.6493   24.0352 C   0  0  0  0  0  0  0  0  0122  0  0
  -25.9153  -34.9582   23.4993 C   0  0  0  0  0  0  0  0  0123  0  0
  -16.5415  -29.9068   23.6254 C   0  0  0  0  0  0  0  0  0124  0  0
  -16.7331  -28.6521   23.0586 C   0  0  0  0  0  0  0  0  0125  0  0
  -26.4583  -31.6439   25.0683 C   0  0  0  0  0  0  0  0  0126  0  0
  -25.3807  -31.3179   26.1374 C   0  0  0  0  0  0  0  0  0127  0  0
  -27.0530  -30.3024   24.5680 C   0  0  0  0  0  0  0  0  0128  0  0
  -27.6014  -32.4281   25.7651 C   0  0  0  0  0  0  0  0  0129  0  0
  -27.5629  -37.2220   24.8621 C   0  0  0  0  0  0  0  0  0130  0  0
  -21.4133  -29.3375   22.3735 N   0  0  0  0  0  0  0  0  0131  0  0
  -26.4706  -37.3372   23.9061 N   0  0  0  0  0  0  0  0  0132  0  0
  -24.6674  -31.0544   22.1178 N   0  0  0  0  0  0  0  0  0133  0  0
  -23.4259  -28.8150   23.2971 O   0  0  0  0  0  0  0  0  0134  0  0
  -28.3948  -26.7345   20.0089 O   0  0  0  0  0  0  0  0  0135  0  0
  -26.5870  -34.9065   22.4671 O   0  0  0  0  0  0  0  0  0136  0  0
  -23.5365  -32.1254   23.7833 O   0  0  0  0  0  0  0  0  0137  0  0
  -24.8878  -19.2740   20.5734 C   0  0  0  0  0  0  0  0  0  0  0  0
  -25.2610  -17.8327   20.2508 C   0  0  0  0  0  0  0  0  0  0  0  0
  -27.2640  -19.1312   20.5015 C   0  0  0  0  0  0  0  0  0  0  0  0
  -26.1359  -19.7867   21.2928 C   0  0  1  0  0  0  0  0  0  0  0  0
  -23.4043  -22.0575   24.0007 C   0  0  0  0  0  0  0  0  0  0  0  0
  -25.8588  -21.7069   24.3382 C   0  0  0  0  0  0  0  0  0  0  0  0
  -26.6831  -23.7516   18.4196 C   0  0  0  0  0  0  0  0  0  0  0  0
  -24.9745  -21.8961   21.9939 C   0  0  0  0  0  0  0  0  0  0  0  0
  -26.5071  -23.3050   19.8632 C   0  0  0  0  0  0  0  0  0  0  0  0
  -26.7985  -25.2620   18.2549 C   0  0  0  0  0  0  0  0  0  1  0  0
  -26.2265  -21.3016   21.3283 C   0  0  2  0  0  0  0  0  0  0  0  0
  -24.6649  -21.4118   23.4252 C   0  0  0  0  0  0  0  0  0  0  0  0
  -26.7058  -17.8723   20.0154 N   0  0  0  0  0  0  0  0  0  0  0  0
  -26.3535  -21.8298   19.9392 N   0  0  0  0  0  0  0  0  0  0  0  0
  -31.4485  -12.4701   19.0860 H   0  0  0  0  0  0  0  0  0  0  0  0
  -30.3970  -11.2460   19.6950 H   0  0  0  0  0  0  0  0  0  0  0  0
  -29.6870  -11.8204   17.4226 H   0  0  0  0  0  0  0  0  0  0  0  0
  -29.6375  -13.5326   17.8649 H   0  0  0  0  0  0  0  0  0  0  0  0
  -27.7830  -11.3650   18.7904 H   0  0  0  0  0  0  0  0  0  0  0  0
  -27.4028  -12.7801   17.8021 H   0  0  0  0  0  0  0  0  0  0  0  0
  -27.7353  -14.2503   19.6136 H   0  0  0  0  0  0  0  0  0  0  0  0
  -28.5890  -11.9550   21.3832 H   0  0  0  0  0  0  0  0  0  0  0  0
  -28.5005  -13.6134   21.8562 H   0  0  0  0  0  0  0  0  0  0  0  0
  -25.2399   -9.5495   22.4318 H   0  0  0  0  0  0  0  0  0  0  0  0
  -23.9663   -7.5070   22.7297 H   0  0  0  0  0  0  0  0  0  0  0  0
  -21.1515   -8.8641   19.9162 H   0  0  0  0  0  0  0  0  0  0  0  0
  -22.4016  -10.9115   19.6476 H   0  0  0  0  0  0  0  0  0  0  0  0
  -21.2319   -7.5552   23.9750 H   0  0  0  0  0  0  0  0  0  0  0  0
  -21.1589   -6.0228   25.8556 H   0  0  0  0  0  0  0  0  0  0  0  0
  -22.0396   -2.8212   23.2809 H   0  0  0  0  0  0  0  0  0  0  0  0
  -22.4401  -11.9703   22.4008 H   0  0  0  0  0  0  0  0  0  0  0  0
  -21.1493  -13.0679   22.2082 H   0  0  0  0  0  0  0  0  0  0  0  0
  -24.6538  -15.7807   20.5848 H   0  0  0  0  0  0  0  0  0  0  0  0
  -26.2762  -15.5453   20.1156 H   0  0  0  0  0  0  0  0  0  0  0  0
  -26.6778  -32.4663   23.1464 H   0  0  0  0  0  0  0  0  0  0  0  0
  -25.0747  -34.0282   25.0566 H   0  0  0  0  0  0  0  0  0  0  0  0
  -22.7881  -31.3489   21.4131 H   0  0  0  0  0  0  0  0  0  0  0  0
  -23.3854  -35.9823   23.3648 H   0  0  0  0  0  0  0  0  0  0  0  0
  -24.3696  -36.8624   22.2204 H   0  0  0  0  0  0  0  0  0  0  0  0
  -23.7669  -37.6632   23.6516 H   0  0  0  0  0  0  0  0  0  0  0  0
  -25.9445  -31.6237   20.5691 H   0  0  0  0  0  0  0  0  0  0  0  0
  -26.7436  -31.0079   22.0108 H   0  0  0  0  0  0  0  0  0  0  0  0
  -28.0090  -29.1452   21.2057 H   0  0  0  0  0  0  0  0  0  0  0  0
  -26.1369  -26.0560   19.0719 H   0  0  0  0  0  0  0  0  0  0  0  0
  -24.0652  -27.2961   19.0997 H   0  0  0  0  0  0  0  0  0  0  0  0
  -23.6156  -30.5365   19.3930 H   0  0  0  0  0  0  0  0  0  0  0  0
  -22.7355  -29.1425   19.9945 H   0  0  0  0  0  0  0  0  0  0  0  0
  -25.1353  -36.2335   25.0565 H   0  0  0  0  0  0  0  0  0  0  0  0
  -21.0070  -28.3206   24.0793 H   0  0  0  0  0  0  0  0  0  0  0  0
  -20.5555  -26.2518   23.3550 H   0  0  0  0  0  0  0  0  0  0  0  0
  -21.5974  -26.8362   22.0454 H   0  0  0  0  0  0  0  0  0  0  0  0
  -19.6810  -25.6422   21.1488 H   0  0  0  0  0  0  0  0  0  0  0  0
  -19.6406  -27.3343   20.7034 H   0  0  0  0  0  0  0  0  0  0  0  0
  -17.4282  -26.6888   21.4113 H   0  0  0  0  0  0  0  0  0  0  0  0
  -18.0803  -26.0130   22.9049 H   0  0  0  0  0  0  0  0  0  0  0  0
  -19.7265  -30.6774   24.2204 H   0  0  0  0  0  0  0  0  0  0  0  0
  -17.5064  -31.5856   24.4483 H   0  0  0  0  0  0  0  0  0  0  0  0
  -15.5878  -30.2839   23.7407 H   0  0  0  0  0  0  0  0  0  0  0  0
  -15.9120  -28.0941   22.7766 H   0  0  0  0  0  0  0  0  0  0  0  0
  -24.5787  -30.7757   25.6817 H   0  0  0  0  0  0  0  0  0  0  0  0
  -25.0041  -32.2289   26.5536 H   0  0  0  0  0  0  0  0  0  0  0  0
  -25.8166  -30.7245   26.9138 H   0  0  0  0  0  0  0  0  0  0  0  0
  -26.2892  -29.7335   24.0803 H   0  0  0  0  0  0  0  0  0  0  0  0
  -27.4336  -29.7484   25.4006 H   0  0  0  0  0  0  0  0  0  0  0  0
  -27.8466  -30.4994   23.8779 H   0  0  0  0  0  0  0  0  0  0  0  0
  -27.2251  -33.3632   26.1242 H   0  0  0  0  0  0  0  0  0  0  0  0
  -28.3902  -32.6065   25.0645 H   0  0  0  0  0  0  0  0  0  0  0  0
  -27.9772  -31.8555   26.5872 H   0  0  0  0  0  0  0  0  0  0  0  0
  -28.2744  -38.0016   24.6863 H   0  0  0  0  0  0  0  0  0  0  0  0
  -28.0396  -36.2711   24.7461 H   0  0  0  0  0  0  0  0  0  0  0  0
  -27.1773  -37.3087   25.8564 H   0  0  0  0  0  0  0  0  0  0  0  0
  -20.9627  -29.9365   21.7352 H   0  0  0  0  0  0  0  0  0  0  0  0
  -26.0447  -38.2561   24.0273 H   0  0  0  0  0  0  0  0  0  0  0  0
  -24.0291  -19.3177   21.2103 H   0  0  0  0  0  0  0  0  0  0  0  0
  -24.6263  -19.8500   19.7104 H   0  0  0  0  0  0  0  0  0  0  0  0
  -24.7445  -17.4948   19.3768 H   0  0  0  0  0  0  0  0  0  0  0  0
  -24.9951  -17.1576   21.0373 H   0  0  0  0  0  0  0  0  0  0  0  0
  -28.1087  -18.9488   21.1324 H   0  0  0  0  0  0  0  0  0  0  0  0
  -27.6067  -19.7534   19.7013 H   0  0  0  0  0  0  0  0  0  0  0  0
  -26.1545  -19.5357   22.3328 H   0  0  0  0  0  0  0  0  0  0  0  0
  -23.2351  -21.6891   24.9909 H   0  0  0  0  0  0  0  0  0  0  0  0
  -22.5654  -21.8157   23.3820 H   0  0  0  0  0  0  0  0  0  0  0  0
  -23.5300  -23.1196   24.0319 H   0  0  0  0  0  0  0  0  0  0  0  0
  -25.6411  -21.3699   25.3301 H   0  0  0  0  0  0  0  0  0  0  0  0
  -26.0452  -22.7604   24.3523 H   0  0  0  0  0  0  0  0  0  0  0  0
  -26.7241  -21.1965   23.9700 H   0  0  0  0  0  0  0  0  0  0  0  0
  -25.8383  -23.4140   17.8563 H   0  0  0  0  0  0  0  0  0  0  0  0
  -27.6020  -23.3282   18.0713 H   0  0  0  0  0  0  0  0  0  0  0  0
  -24.1328  -21.6545   21.3790 H   0  0  0  0  0  0  0  0  0  0  0  0
  -25.1703  -22.9442   22.0840 H   0  0  0  0  0  0  0  0  0  0  0  0
  -25.6346  -23.7708   20.2715 H   0  0  0  0  0  0  0  0  0  0  0  0
  -27.3746  -23.5906   20.4207 H   0  0  0  0  0  0  0  0  0  0  0  0
  -25.8075  -25.6582   18.3317 H   0  0  0  0  0  0  0  0  0  0  0  0
  -27.2985  -25.3707   17.3152 H   0  0  0  0  0  0  0  0  0  0  0  0
  -27.0877  -21.5823   21.8979 H   0  0  0  0  0  0  0  0  0  0  0  0
  -24.4883  -20.3577   23.3747 H   0  0  0  0  0  0  0  0  0  0  0  0
  -27.1710  -21.3999   19.5065 H   0  0  0  0  0  0  0  0  0  0  0  0
  -25.4852  -21.5992   19.4563 H   0  0  0  0  0  0  0  0  0  0  0  0
  1 25  1  0
  1 30  2  0
  1 83  1  0
  2  3  1  0
  2 25  1  0
  2 85  1  0
  2 86  1  0
  3  4  1  0
  3 87  1  0
  3 88  1  0
  4  5  1  0
  4 89  1  0
  4 90  1  0
  5  6  1  0
  5 26  1  0
  5 91  1  6
  6 25  1  0
  6 92  1  0
  6 93  1  0
  7  8  2  0
  7 26  1  0
  7 29  1  0
  8  9  1  0
  8 22  1  0
  9 10  1  0
  9 27  2  0
 10 11  2  0
 10 15  1  0
 11 12  1  0
 11 94  1  0
 12 13  2  0
 12 95  1  0
 13 14  1  0
 13 31  1  0
 14 15  2  0
 14 96  1  0
 15 97  1  0
 16 17  2  0
 16 21  1  0
 16 31  1  0
 17 18  1  0
 17 98  1  0
 18 19  2  0
 18 99  1  0
 19 20  1  0
 19 24  1  0
 20 21  2  0
 20100  1  0
 21 23  1  0
 22 28  1  0
 22 32  2  0
 26 27  1  0
 28101  1  0
 28102  1  0
 29103  1  0
 29104  1  0
 33 34  1  0
 33 66  1  0
 33 70  2  0
 34 36  1  0
 34 59  1  0
 34105  1  6
 35 44  2  0
 35 45  1  0
 35 68  1  0
 36 56  1  0
 36106  1  0
 37 39  1  0
 37 47  1  0
 37 66  1  0
 37107  1  6
 38 43  2  0
 38 46  1  0
 38 47  1  0
 39 64  1  0
 39 67  2  0
 40 52  1  0
 40 53  2  0
 40 58  1  0
 41108  1  0
 41109  1  0
 41110  1  0
 42 43  1  0
 42 66  1  0
 42111  1  0
 42112  1  0
 43 44  1  0
 44113  1  0
 45 46  2  0
 45114  1  0
 46115  1  0
 47116  1  0
 47117  1  0
 48 41  1  0
 48 56  1  0
 48 65  1  0
 48118  1  1
 49 50  1  0
 49 53  1  0
 49 64  1  0
 49119  1  1
 50 51  1  0
 50120  1  0
 50121  1  0
 51 52  1  0
 51122  1  0
 51123  1  0
 52124  1  0
 52125  1  0
 53 54  1  0
 54 55  2  0
 54126  1  0
 55 57  1  0
 55127  1  0
 56 69  2  0
 57 58  2  0
 57128  1  0
 58129  1  0
 59 60  1  0
 59 61  1  0
 59 62  1  0
 60130  1  0
 60131  1  0
 60132  1  0
 61133  1  0
 61134  1  0
 61135  1  0
 62136  1  0
 62137  1  0
 62138  1  0
 63 65  1  0
 63139  1  0
 63140  1  0
 63141  1  0
 64142  1  0
 65143  1  0
 68 80  1  0
 71 72  1  0
 71144  1  0
 71145  1  0
 72 83  1  0
 72146  1  0
 72147  1  0
 73 74  1  0
 73 83  1  0
 73148  1  0
 73149  1  0
 74 71  1  0
 74 81  1  0
 74150  1  1
 75151  1  0
 75152  1  0
 75153  1  0
 76 82  1  0
 76154  1  0
 76155  1  0
 76156  1  0
 77 79  1  0
 77 80  1  0
 77157  1  0
 77158  1  0
 78 82  1  0
 78159  1  0
 78160  1  0
 79 84  1  0
 79161  1  0
 79162  1  0
 80163  1  0
 80164  1  0
 81 78  1  0
 81 84  1  0
 81165  1  1
 82 75  1  0
 82166  1  0
 84167  1  0
 84168  1  0
M  CHG  1  84   1
M  ISO  4   1 100  68 101  80 101  83 100
M  END
$$$$
11
     RDKit          3D

163171  0  0  0  0  0  0  0  0999 V2000
  -30.7652  -14.3608   20.6636 C   0  0  0  0  0  0  0  0  0100  0  0
  -30.4392  -12.2669   19.3775 C   0  0  0  0  0  0  0  0  0101  0  0
  -29.4791  -12.5281   18.1977 C   0  0  0  0  0  0  0  0  0102  0  0
  -27.9985  -12.3963   18.6038 C   0  0  0  0  0  0  0  0  0103  0  0
  -27.6639  -13.2170   19.8820 C   0  0  2  0  0  0  0  0  0104  0  0
  -28.6795  -12.9602   21.0279 C   0  0  0  0  0  0  0  0  0105  0  0
  -25.2633  -13.8245   20.5754 C   0  0  0  0  0  0  0  0  0106  0  0
  -24.1645  -13.0409   20.9408 C   0  0  0  0  0  0  0  0  0107  0  0
  -24.6400  -11.7009   20.8697 C   0  0  0  0  0  0  0  0  0108  0  0
  -23.9005  -10.4085   21.0420 C   0  0  0  0  0  0  0  0  0109  0  0
  -24.3588   -9.4123   21.9123 C   0  0  0  0  0  0  0  0  0110  0  0
  -23.6296   -8.2350   22.0803 C   0  0  0  0  0  0  0  0  0111  0  0
  -22.4385   -8.0419   21.3657 C   0  0  0  0  0  0  0  0  0112  0  0
  -22.0103   -9.0167   20.4678 C   0  0  0  0  0  0  0  0  0113  0  0
  -22.7317  -10.1925   20.3102 C   0  0  0  0  0  0  0  0  0114  0  0
  -21.6857   -6.0709   22.5391 C   0  0  0  0  0  0  0  0  0115  0  0
  -21.4064   -6.5490   23.8264 C   0  0  0  0  0  0  0  0  0116  0  0
  -21.3635   -5.6677   24.9085 C   0  0  0  0  0  0  0  0  0117  0  0
  -21.5973   -4.3067   24.7088 C   0  0  0  0  0  0  0  0  0118  0  0
  -21.8700   -3.8284   23.4282 C   0  0  0  0  0  0  0  0  0119  0  0
  -21.9144   -4.7056   22.3460 C   0  0  0  0  0  0  0  0  0120  0  0
  -22.8194  -13.5263   21.1763 C   0  0  0  0  0  0  0  0  0121  0  0
  -22.1559   -4.2206   21.1063 F   0  0  0  0  0  0  0  0  0122  0  0
  -21.5628   -3.4510   25.7555 F   0  0  0  0  0  0  0  0  0123  0  0
  -30.0261  -13.1803   20.4553 N   0  0  0  0  0  0  0  0  0124  0  0
  -26.2911  -12.9356   20.3443 N   0  0  0  0  0  0  0  0  0125  0  0
  -25.9236  -11.6675   20.5847 N   0  0  0  0  0  0  0  0  0126  0  0
  -22.0708  -12.7905   22.0005 N   0  0  0  0  0  0  0  0  0127  0  0
  -25.4117  -15.1773   20.4097 N   0  0  0  0  0  0  0  0  0128  0  0
  -31.7916  -14.6724   20.0536 O   0  0  0  0  0  0  0  0  0129  0  0
  -21.6670   -6.9022   21.4423 O   0  0  0  0  0  0  0  0  0130  0  0
  -22.3946  -14.5564   20.6568 O   0  0  0  0  0  0  0  0  0131  0  0
  -24.6048  -31.8614   23.2223 C   0  0  0  0  0  0  0  0  0100  0  0
  -25.8822  -32.4841   23.8616 C   0  0  1  0  0  0  0  0  0101  0  0
  -27.2536  -27.5042   20.1156 C   0  0  0  0  0  0  0  0  0102  0  0
  -25.5726  -33.8762   24.2210 N   0  0  0  0  0  0  0  0  0103  0  0
  -23.4066  -30.4859   21.5461 C   0  0  2  0  0  0  0  0  0104  0  0
  -24.8467  -28.9636   20.1247 C   0  0  0  0  0  0  0  0  0105  0  0
  -22.7412  -29.4652   22.5052 C   0  0  0  0  0  0  0  0  0106  0  0
  -18.0167  -28.1302   22.8626 C   0  0  0  0  0  0  0  0  0107  0  0
  -24.1342  -36.7390   23.2568 C   0  0  0  0  0  0  0  0  0108  0  0
  -25.9141  -30.8882   21.3456 C   0  0  0  0  0  0  0  0  0109  0  0
  -25.9930  -29.5029   20.7208 C   0  0  0  0  0  0  0  0  0110  0  0
  -27.1758  -28.7612   20.7331 C   0  0  0  0  0  0  0  0  0111  0  0
  -26.1032  -26.9836   19.5230 C   0  0  0  0  0  0  0  0  0112  0  0
  -24.9097  -27.7011   19.5331 C   0  0  0  0  0  0  0  0  0113  0  0
  -23.5715  -29.7899   20.1582 C   0  0  0  0  0  0  0  0  0114  0  0
  -25.3990  -36.3212   24.0232 C   0  0  1  0  0  0  0  0  0115  0  0
  -20.5793  -28.3813   23.1004 C   0  0  2  0  0  0  0  0  0116  0  0
  -20.6548  -26.9392   22.5411 C   0  0  0  0  0  0  0  0  0117  0  0
  -19.5615  -26.6407   21.5143 C   0  0  0  0  0  0  0  0  0118  0  0
  -18.1797  -26.7818   22.1673 C   0  0  0  0  0  0  0  0  0119  0  0
  -19.1385  -28.8769   23.2988 C   0  0  0  0  0  0  0  0  0120  0  0
  -18.9183  -30.1286   23.8878 C   0  0  0  0  0  0  0  0  0121  0  0
  -17.6396  -30.6493   24.0352 C   0  0  0  0  0  0  0  0  0122  0  0
  -25.9153  -34.9582   23.4993 C   0  0  0  0  0  0  0  0  0123  0  0
  -16.5415  -29.9068   23.6254 C   0  0  0  0  0  0  0  0  0124  0  0
  -16.7331  -28.6521   23.0586 C   0  0  0  0  0  0  0  0  0125  0  0
  -26.4583  -31.6439   25.0683 C   0  0  0  0  0  0  0  0  0126  0  0
  -25.3807  -31.3179   26.1374 C   0  0  0  0  0  0  0  0  0127  0  0
  -27.0530  -30.3024   24.5680 C   0  0  0  0  0  0  0  0  0128  0  0
  -27.6014  -32.4281   25.7651 C   0  0  0  0  0  0  0  0  0129  0  0
  -27.5629  -37.2220   24.8621 C   0  0  0  0  0  0  0  0  0130  0  0
  -21.4133  -29.3375   22.3735 N   0  0  0  0  0  0  0  0  0131  0  0
  -26.4706  -37.3372   23.9061 N   0  0  0  0  0  0  0  0  0132  0  0
  -24.6674  -31.0544   22.1178 N   0  0  0  0  0  0  0  0  0133  0  0
  -23.4259  -28.8150   23.2971 O   0  0  0  0  0  0  0  0  0134  0  0
  -28.3948  -26.7345   20.0089 O   0  0  0  0  0  0  0  0  0135  0  0
  -26.5870  -34.9065   22.4671 O   0  0  0  0  0  0  0  0  0136  0  0
  -23.5365  -32.1254   23.7833 O   0  0  0  0  0  0  0  0  0137  0  0
  -30.1449  -20.5116   22.6158 C   0  0  0  0  0  0  0  0  0  0  0  0
  -30.5631  -21.0134   20.4739 C   0  0  0  0  0  0  0  0  0  0  0  0
  -29.5448  -21.7231   22.3525 C   0  0  0  0  0  0  0  0  0  0  0  0
  -29.8094  -22.0406   20.9974 C   0  0  0  0  0  0  0  0  0  0  0  0
  -32.6098  -16.0924   20.6179 C   0  0  0  0  0  0  0  0  0  0  0  0
  -27.5534  -21.7997   23.9086 C   0  0  0  0  0  0  0  0  0  0  0  0
  -30.7042  -23.9152   24.0859 C   0  0  0  0  0  0  0  0  0  0  0  0
  -31.3893  -16.2926   21.5068 C   0  0  0  0  0  0  0  0  0  0  0  0
  -31.5386  -18.8030   21.3174 C   0  0  0  0  0  0  0  0  0  0  0  0
  -28.7718  -22.5323   23.3161 C   0  0  1  0  0  0  0  0  0  0  0  0
  -30.6206  -17.5800   21.1827 C   0  0  2  0  0  0  0  0  0  1  0  0
  -30.7607  -20.0895   21.4665 N   0  0  0  0  0  0  0  0  0  0  0  0
  -29.3945  -23.1892   20.2789 N   0  0  0  0  0  0  0  0  0  0  0  0
  -29.5852  -23.0352   24.4835 N   0  0  0  0  0  0  0  0  0  0  0  0
  -31.4485  -12.4701   19.0860 H   0  0  0  0  0  0  0  0  0  0  0  0
  -30.3970  -11.2460   19.6950 H   0  0  0  0  0  0  0  0  0  0  0  0
  -29.6870  -11.8204   17.4226 H   0  0  0  0  0  0  0  0  0  0  0  0
  -29.6375  -13.5326   17.8649 H   0  0  0  0  0  0  0  0  0  0  0  0
  -27.7830  -11.3650   18.7904 H   0  0  0  0  0  0  0  0  0  0  0  0
  -27.4028  -12.7801   17.8021 H   0  0  0  0  0  0  0  0  0  0  0  0
  -27.7353  -14.2503   19.6136 H   0  0  0  0  0  0  0  0  0  0  0  0
  -28.5890  -11.9550   21.3832 H   0  0  0  0  0  0  0  0  0  0  0  0
  -28.5005  -13.6134   21.8562 H   0  0  0  0  0  0  0  0  0  0  0  0
  -25.2399   -9.5495   22.4318 H   0  0  0  0  0  0  0  0  0  0  0  0
  -23.9663   -7.5070   22.7297 H   0  0  0  0  0  0  0  0  0  0  0  0
  -21.1515   -8.8641   19.9162 H   0  0  0  0  0  0  0  0  0  0  0  0
  -22.4016  -10.9115   19.6476 H   0  0  0  0  0  0  0  0  0  0  0  0
  -21.2319   -7.5552   23.9750 H   0  0  0  0  0  0  0  0  0  0  0  0
  -21.1589   -6.0228   25.8556 H   0  0  0  0  0  0  0  0  0  0  0  0
  -22.0396   -2.8212   23.2809 H   0  0  0  0  0  0  0  0  0  0  0  0
  -22.4401  -11.9703   22.4008 H   0  0  0  0  0  0  0  0  0  0  0  0
  -21.1493  -13.0679   22.2082 H   0  0  0  0  0  0  0  0  0  0  0  0
  -24.6538  -15.7807   20.5848 H   0  0  0  0  0  0  0  0  0  0  0  0
  -26.2762  -15.5453   20.1156 H   0  0  0  0  0  0  0  0  0  0  0  0
  -26.6778  -32.4663   23.1464 H   0  0  0  0  0  0  0  0  0  0  0  0
  -25.0747  -34.0282   25.0566 H   0  0  0  0  0  0  0  0  0  0  0  0
  -22.7881  -31.3489   21.4131 H   0  0  0  0  0  0  0  0  0  0  0  0
  -23.3854  -35.9823   23.3648 H   0  0  0  0  0  0  0  0  0  0  0  0
  -24.3696  -36.8624   22.2204 H   0  0  0  0  0  0  0  0  0  0  0  0
  -23.7669  -37.6632   23.6516 H   0  0  0  0  0  0  0  0  0  0  0  0
  -25.9445  -31.6237   20.5691 H   0  0  0  0  0  0  0  0  0  0  0  0
  -26.7436  -31.0079   22.0108 H   0  0  0  0  0  0  0  0  0  0  0  0
  -28.0090  -29.1452   21.2057 H   0  0  0  0  0  0  0  0  0  0  0  0
  -26.1369  -26.0560   19.0719 H   0  0  0  0  0  0  0  0  0  0  0  0
  -24.0652  -27.2961   19.0997 H   0  0  0  0  0  0  0  0  0  0  0  0
  -23.6156  -30.5365   19.3930 H   0  0  0  0  0  0  0  0  0  0  0  0
  -22.7355  -29.1425   19.9945 H   0  0  0  0  0  0  0  0  0  0  0  0
  -25.1353  -36.2335   25.0565 H   0  0  0  0  0  0  0  0  0  0  0  0
  -21.0070  -28.3206   24.0793 H   0  0  0  0  0  0  0  0  0  0  0  0
  -20.5555  -26.2518   23.3550 H   0  0  0  0  0  0  0  0  0  0  0  0
  -21.5974  -26.8362   22.0454 H   0  0  0  0  0  0  0  0  0  0  0  0
  -19.6810  -25.6422   21.1488 H   0  0  0  0  0  0  0  0  0  0  0  0
  -19.6406  -27.3343   20.7034 H   0  0  0  0  0  0  0  0  0  0  0  0
  -17.4282  -26.6888   21.4113 H   0  0  0  0  0  0  0  0  0  0  0  0
  -18.0803  -26.0130   22.9049 H   0  0  0  0  0  0  0  0  0  0  0  0
  -19.7265  -30.6774   24.2204 H   0  0  0  0  0  0  0  0  0  0  0  0
  -17.5064  -31.5856   24.4483 H   0  0  0  0  0  0  0  0  0  0  0  0
  -15.5878  -30.2839   23.7407 H   0  0  0  0  0  0  0  0  0  0  0  0
  -15.9120  -28.0941   22.7766 H   0  0  0  0  0  0  0  0  0  0  0  0
  -24.5787  -30.7757   25.6817 H   0  0  0  0  0  0  0  0  0  0  0  0
  -25.0041  -32.2289   26.5536 H   0  0  0  0  0  0  0  0  0  0  0  0
  -25.8166  -30.7245   26.9138 H   0  0  0  0  0  0  0  0  0  0  0  0
  -26.2892  -29.7335   24.0803 H   0  0  0  0  0  0  0  0  0  0  0  0
  -27.4336  -29.7484   25.4006 H   0  0  0  0  0  0  0  0  0  0  0  0
  -27.8466  -30.4994   23.8779 H   0  0  0  0  0  0  0  0  0  0  0  0
  -27.2251  -33.3632   26.1242 H   0  0  0  0  0  0  0  0  0  0  0  0
  -28.3902  -32.6065   25.0645 H   0  0  0  0  0  0  0  0  0  0  0  0
  -27.9772  -31.8555   26.5872 H   0  0  0  0  0  0  0  0  0  0  0  0
  -28.2744  -38.0016   24.6863 H   0  0  0  0  0  0  0  0  0  0  0  0
  -28.0396  -36.2711   24.7461 H   0  0  0  0  0  0  0  0  0  0  0  0
  -27.1773  -37.3087   25.8564 H   0  0  0  0  0  0  0  0  0  0  0  0
  -20.9627  -29.9365   21.7352 H   0  0  0  0  0  0  0  0  0  0  0  0
  -26.0447  -38.2561   24.0273 H   0  0  0  0  0  0  0  0  0  0  0  0
  -30.1329  -20.0108   23.5181 H   0  0  0  0  0  0  0  0  0  0  0  0
  -30.9162  -20.9507   19.5062 H   0  0  0  0  0  0  0  0  0  0  0  0
  -33.1033  -15.1826   20.8893 H   0  0  0  0  0  0  0  0  0  0  0  0
  -33.2824  -16.9148   20.7451 H   0  0  0  0  0  0  0  0  0  0  0  0
  -32.3010  -16.0392   19.5948 H   0  0  0  0  0  0  0  0  0  0  0  0
  -26.9429  -21.4230   23.1147 H   0  0  0  0  0  0  0  0  0  0  0  0
  -26.9829  -22.4809   24.5048 H   0  0  0  0  0  0  0  0  0  0  0  0
  -27.8879  -20.9863   24.5180 H   0  0  0  0  0  0  0  0  0  0  0  0
  -31.2353  -24.2332   24.9586 H   0  0  0  0  0  0  0  0  0  0  0  0
  -30.3196  -24.7707   23.5710 H   0  0  0  0  0  0  0  0  0  0  0  0
  -31.3678  -23.3788   23.4403 H   0  0  0  0  0  0  0  0  0  0  0  0
  -31.7123  -16.3350   22.5260 H   0  0  0  0  0  0  0  0  0  0  0  0
  -30.7269  -15.4704   21.3334 H   0  0  0  0  0  0  0  0  0  0  0  0
  -32.1519  -18.8710   20.4432 H   0  0  0  0  0  0  0  0  0  0  0  0
  -32.1296  -18.6734   22.1999 H   0  0  0  0  0  0  0  0  0  0  0  0
  -28.4484  -23.3551   22.7133 H   0  0  0  0  0  0  0  0  0  0  0  0
  -29.8955  -16.8070   21.0356 H   0  0  0  0  0  0  0  0  0  0  0  0
  -29.1672  -24.1052   19.9986 H   0  0  0  0  0  0  0  0  0  0  0  0
  -28.9685  -23.5579   25.1055 H   0  0  0  0  0  0  0  0  0  0  0  0
  -29.9925  -22.2188   24.9396 H   0  0  0  0  0  0  0  0  0  0  0  0
  1 25  1  0
  1 30  2  0
  1 83  1  0
  2  3  1  0
  2 25  1  0
  2 85  1  0
  2 86  1  0
  3  4  1  0
  3 87  1  0
  3 88  1  0
  4  5  1  0
  4 89  1  0
  4 90  1  0
  5  6  1  0
  5 26  1  0
  5 91  1  6
  6 25  1  0
  6 92  1  0
  6 93  1  0
  7  8  2  0
  7 26  1  0
  7 29  1  0
  8  9  1  0
  8 22  1  0
  9 10  1  0
  9 27  2  0
 10 11  2  0
 10 15  1  0
 11 12  1  0
 11 94  1  0
 12 13  2  0
 12 95  1  0
 13 14  1  0
 13 31  1  0
 14 15  2  0
 14 96  1  0
 15 97  1  0
 16 17  2  0
 16 21  1  0
 16 31  1  0
 17 18  1  0
 17 98  1  0
 18 19  2  0
 18 99  1  0
 19 20  1  0
 19 24  1  0
 20 21  2  0
 20100  1  0
 21 23  1  0
 22 28  1  0
 22 32  2  0
 26 27  1  0
 28101  1  0
 28102  1  0
 29103  1  0
 29104  1  0
 33 34  1  0
 33 66  1  0
 33 70  2  0
 34 36  1  0
 34 59  1  0
 34105  1  6
 35 44  2  0
 35 45  1  0
 35 68  1  0
 36 56  1  0
 36106  1  0
 37 39  1  0
 37 47  1  0
 37 66  1  0
 37107  1  6
 38 43  2  0
 38 46  1  0
 38 47  1  0
 39 64  1  0
 39 67  2  0
 40 52  1  0
 40 53  2  0
 40 58  1  0
 41108  1  0
 41109  1  0
 41110  1  0
 42 43  1  0
 42 66  1  0
 42111  1  0
 42112  1  0
 43 44  1  0
 44113  1  0
 45 46  2  0
 45114  1  0
 46115  1  0
 47116  1  0
 47117  1  0
 48 41  1  0
 48 56  1  0
 48 65  1  0
 48118  1  1
 49 50  1  0
 49 53  1  0
 49 64  1  0
 49119  1  1
 50 51  1  0
 50120  1  0
 50121  1  0
 51 52  1  0
 51122  1  0
 51123  1  0
 52124  1  0
 52125  1  0
 53 54  1  0
 54 55  2  0
 54126  1  0
 55 57  1  0
 55127  1  0
 56 69  2  0
 57 58  2  0
 57128  1  0
 58129  1  0
 59 60  1  0
 59 61  1  0
 59 62  1  0
 60130  1  0
 60131  1  0
 60132  1  0
 61133  1  0
 61134  1  0
 61135  1  0
 62136  1  0
 62137  1  0
 62138  1  0
 63 65  1  0
 63139  1  0
 63140  1  0
 63141  1  0
 64142  1  0
 65143  1  0
 68 81  1  0
 71 73  2  0
 71 82  1  0
 71144  1  0
 72 74  2  0
 72 82  1  0
 72145  1  0
 73 74  1  0
 73 80  1  0
 74 83  1  0
 75 78  1  0
 75146  1  0
 75147  1  0
 75148  1  0
 76149  1  0
 76150  1  0
 76151  1  0
 77 84  1  0
 77152  1  0
 77153  1  0
 77154  1  0
 78155  1  0
 78156  1  0
 79 81  1  0
 79 82  1  0
 79157  1  0
 79158  1  0
 80 76  1  0
 80 84  1  0
 80159  1  6
 81 78  1  0
 81160  1  6
 83161  1  0
 84162  1  0
 84163  1  0
M  CHG  1  84   1
M  ISO  4   1 100  68 101  81 101  83 100
M  END
$$$$
12
     RDKit          3D

160168  0  0  0  0  0  0  0  0999 V2000
  -30.7652  -14.3608   20.6636 C   0  0  0  0  0  0  0  0  0100  0  0
  -30.4392  -12.2669   19.3775 C   0  0  0  0  0  0  0  0  0101  0  0
  -29.4791  -12.5281   18.1977 C   0  0  0  0  0  0  0  0  0102  0  0
  -27.9985  -12.3963   18.6038 C   0  0  0  0  0  0  0  0  0103  0  0
  -27.6639  -13.2170   19.8820 C   0  0  2  0  0  0  0  0  0104  0  0
  -28.6795  -12.9602   21.0279 C   0  0  0  0  0  0  0  0  0105  0  0
  -25.2633  -13.8245   20.5754 C   0  0  0  0  0  0  0  0  0106  0  0
  -24.1645  -13.0409   20.9408 C   0  0  0  0  0  0  0  0  0107  0  0
  -24.6400  -11.7009   20.8697 C   0  0  0  0  0  0  0  0  0108  0  0
  -23.9005  -10.4085   21.0420 C   0  0  0  0  0  0  0  0  0109  0  0
  -24.3588   -9.4123   21.9123 C   0  0  0  0  0  0  0  0  0110  0  0
  -23.6296   -8.2350   22.0803 C   0  0  0  0  0  0  0  0  0111  0  0
  -22.4385   -8.0419   21.3657 C   0  0  0  0  0  0  0  0  0112  0  0
  -22.0103   -9.0167   20.4678 C   0  0  0  0  0  0  0  0  0113  0  0
  -22.7317  -10.1925   20.3102 C   0  0  0  0  0  0  0  0  0114  0  0
  -21.6857   -6.0709   22.5391 C   0  0  0  0  0  0  0  0  0115  0  0
  -21.4064   -6.5490   23.8264 C   0  0  0  0  0  0  0  0  0116  0  0
  -21.3635   -5.6677   24.9085 C   0  0  0  0  0  0  0  0  0117  0  0
  -21.5973   -4.3067   24.7088 C   0  0  0  0  0  0  0  0  0118  0  0
  -21.8700   -3.8284   23.4282 C   0  0  0  0  0  0  0  0  0119  0  0
  -21.9144   -4.7056   22.3460 C   0  0  0  0  0  0  0  0  0120  0  0
  -22.8194  -13.5263   21.1763 C   0  0  0  0  0  0  0  0  0121  0  0
  -22.1559   -4.2206   21.1063 F   0  0  0  0  0  0  0  0  0122  0  0
  -21.5628   -3.4510   25.7555 F   0  0  0  0  0  0  0  0  0123  0  0
  -30.0261  -13.1803   20.4553 N   0  0  0  0  0  0  0  0  0124  0  0
  -26.2911  -12.9356   20.3443 N   0  0  0  0  0  0  0  0  0125  0  0
  -25.9236  -11.6675   20.5847 N   0  0  0  0  0  0  0  0  0126  0  0
  -22.0708  -12.7905   22.0005 N   0  0  0  0  0  0  0  0  0127  0  0
  -25.4117  -15.1773   20.4097 N   0  0  0  0  0  0  0  0  0128  0  0
  -31.7916  -14.6724   20.0536 O   0  0  0  0  0  0  0  0  0129  0  0
  -21.6670   -6.9022   21.4423 O   0  0  0  0  0  0  0  0  0130  0  0
  -22.3946  -14.5564   20.6568 O   0  0  0  0  0  0  0  0  0131  0  0
  -24.6048  -31.8614   23.2223 C   0  0  0  0  0  0  0  0  0100  0  0
  -25.8822  -32.4841   23.8616 C   0  0  1  0  0  0  0  0  0101  0  0
  -27.2536  -27.5042   20.1156 C   0  0  0  0  0  0  0  0  0102  0  0
  -25.5726  -33.8762   24.2210 N   0  0  0  0  0  0  0  0  0103  0  0
  -23.4066  -30.4859   21.5461 C   0  0  2  0  0  0  0  0  0104  0  0
  -24.8467  -28.9636   20.1247 C   0  0  0  0  0  0  0  0  0105  0  0
  -22.7412  -29.4652   22.5052 C   0  0  0  0  0  0  0  0  0106  0  0
  -18.0167  -28.1302   22.8626 C   0  0  0  0  0  0  0  0  0107  0  0
  -24.1342  -36.7390   23.2568 C   0  0  0  0  0  0  0  0  0108  0  0
  -25.9141  -30.8882   21.3456 C   0  0  0  0  0  0  0  0  0109  0  0
  -25.9930  -29.5029   20.7208 C   0  0  0  0  0  0  0  0  0110  0  0
  -27.1758  -28.7612   20.7331 C   0  0  0  0  0  0  0  0  0111  0  0
  -26.1032  -26.9836   19.5230 C   0  0  0  0  0  0  0  0  0112  0  0
  -24.9097  -27.7011   19.5331 C   0  0  0  0  0  0  0  0  0113  0  0
  -23.5715  -29.7899   20.1582 C   0  0  0  0  0  0  0  0  0114  0  0
  -25.3990  -36.3212   24.0232 C   0  0  1  0  0  0  0  0  0115  0  0
  -20.5793  -28.3813   23.1004 C   0  0  2  0  0  0  0  0  0116  0  0
  -20.6548  -26.9392   22.5411 C   0  0  0  0  0  0  0  0  0117  0  0
  -19.5615  -26.6407   21.5143 C   0  0  0  0  0  0  0  0  0118  0  0
  -18.1797  -26.7818   22.1673 C   0  0  0  0  0  0  0  0  0119  0  0
  -19.1385  -28.8769   23.2988 C   0  0  0  0  0  0  0  0  0120  0  0
  -18.9183  -30.1286   23.8878 C   0  0  0  0  0  0  0  0  0121  0  0
  -17.6396  -30.6493   24.0352 C   0  0  0  0  0  0  0  0  0122  0  0
  -25.9153  -34.9582   23.4993 C   0  0  0  0  0  0  0  0  0123  0  0
  -16.5415  -29.9068   23.6254 C   0  0  0  0  0  0  0  0  0124  0  0
  -16.7331  -28.6521   23.0586 C   0  0  0  0  0  0  0  0  0125  0  0
  -26.4583  -31.6439   25.0683 C   0  0  0  0  0  0  0  0  0126  0  0
  -25.3807  -31.3179   26.1374 C   0  0  0  0  0  0  0  0  0127  0  0
  -27.0530  -30.3024   24.5680 C   0  0  0  0  0  0  0  0  0128  0  0
  -27.6014  -32.4281   25.7651 C   0  0  0  0  0  0  0  0  0129  0  0
  -27.5629  -37.2220   24.8621 C   0  0  0  0  0  0  0  0  0130  0  0
  -21.4133  -29.3375   22.3735 N   0  0  0  0  0  0  0  0  0131  0  0
  -26.4706  -37.3372   23.9061 N   0  0  0  0  0  0  0  0  0132  0  0
  -24.6674  -31.0544   22.1178 N   0  0  0  0  0  0  0  0  0133  0  0
  -23.4259  -28.8150   23.2971 O   0  0  0  0  0  0  0  0  0134  0  0
  -28.3948  -26.7345   20.0089 O   0  0  0  0  0  0  0  0  0135  0  0
  -26.5870  -34.9065   22.4671 O   0  0  0  0  0  0  0  0  0136  0  0
  -23.5365  -32.1254   23.7833 O   0  0  0  0  0  0  0  0  0137  0  0
  -30.4985  -25.9728   19.2557 C   0  0  0  0  0  0  0  0  0  0  0  0
  -31.0705  -24.7538   19.1973 C   0  0  0  0  0  0  0  0  0  0  0  0
  -30.7423  -22.7312   17.8045 C   0  0  0  0  0  0  0  0  0  0  0  0
  -29.2609  -23.1492   19.7405 C   0  0  0  0  0  0  0  0  0  0  0  0
  -30.9650  -21.2994   18.2674 C   0  0  0  0  0  0  0  0  0  0  0  0
  -29.4691  -21.7142   20.2289 C   0  0  1  0  0  0  0  0  0  0  0  0
  -29.0520  -26.2958   19.0489 C   0  0  0  0  0  0  0  0  0  1  0  0
  -32.5548  -24.6214   19.4399 C   0  0  0  0  0  0  0  0  0  0  0  0
  -28.2375  -21.1613   20.9299 C   0  0  0  0  0  0  0  0  0  0  0  0
  -30.4161  -23.5823   18.9501 N   0  0  0  0  0  0  0  0  0  0  0  0
  -28.4527  -19.8071   21.3888 N   0  0  0  0  0  0  0  0  0  0  0  0
  -29.7666  -20.8455   19.0386 N   0  0  0  0  0  0  0  0  0  0  0  0
  -32.7761  -23.7795   20.5650 O   0  0  0  0  0  0  0  0  0  0  0  0
  -31.4485  -12.4701   19.0860 H   0  0  0  0  0  0  0  0  0  0  0  0
  -30.3970  -11.2460   19.6950 H   0  0  0  0  0  0  0  0  0  0  0  0
  -29.6870  -11.8204   17.4226 H   0  0  0  0  0  0  0  0  0  0  0  0
  -29.6375  -13.5326   17.8649 H   0  0  0  0  0  0  0  0  0  0  0  0
  -27.7830  -11.3650   18.7904 H   0  0  0  0  0  0  0  0  0  0  0  0
  -27.4028  -12.7801   17.8021 H   0  0  0  0  0  0  0  0  0  0  0  0
  -27.7353  -14.2503   19.6136 H   0  0  0  0  0  0  0  0  0  0  0  0
  -28.5890  -11.9550   21.3832 H   0  0  0  0  0  0  0  0  0  0  0  0
  -28.5005  -13.6134   21.8562 H   0  0  0  0  0  0  0  0  0  0  0  0
  -25.2399   -9.5495   22.4318 H   0  0  0  0  0  0  0  0  0  0  0  0
  -23.9663   -7.5070   22.7297 H   0  0  0  0  0  0  0  0  0  0  0  0
  -21.1515   -8.8641   19.9162 H   0  0  0  0  0  0  0  0  0  0  0  0
  -22.4016  -10.9115   19.6476 H   0  0  0  0  0  0  0  0  0  0  0  0
  -21.2319   -7.5552   23.9750 H   0  0  0  0  0  0  0  0  0  0  0  0
  -21.1589   -6.0228   25.8556 H   0  0  0  0  0  0  0  0  0  0  0  0
  -22.0396   -2.8212   23.2809 H   0  0  0  0  0  0  0  0  0  0  0  0
  -22.4401  -11.9703   22.4008 H   0  0  0  0  0  0  0  0  0  0  0  0
  -21.1493  -13.0679   22.2082 H   0  0  0  0  0  0  0  0  0  0  0  0
  -24.6538  -15.7807   20.5848 H   0  0  0  0  0  0  0  0  0  0  0  0
  -26.2762  -15.5453   20.1156 H   0  0  0  0  0  0  0  0  0  0  0  0
  -26.6778  -32.4663   23.1464 H   0  0  0  0  0  0  0  0  0  0  0  0
  -25.0747  -34.0282   25.0566 H   0  0  0  0  0  0  0  0  0  0  0  0
  -22.7881  -31.3489   21.4131 H   0  0  0  0  0  0  0  0  0  0  0  0
  -23.3854  -35.9823   23.3648 H   0  0  0  0  0  0  0  0  0  0  0  0
  -24.3696  -36.8624   22.2204 H   0  0  0  0  0  0  0  0  0  0  0  0
  -23.7669  -37.6632   23.6516 H   0  0  0  0  0  0  0  0  0  0  0  0
  -25.9445  -31.6237   20.5691 H   0  0  0  0  0  0  0  0  0  0  0  0
  -26.7436  -31.0079   22.0108 H   0  0  0  0  0  0  0  0  0  0  0  0
  -28.0090  -29.1452   21.2057 H   0  0  0  0  0  0  0  0  0  0  0  0
  -26.1369  -26.0560   19.0719 H   0  0  0  0  0  0  0  0  0  0  0  0
  -24.0652  -27.2961   19.0997 H   0  0  0  0  0  0  0  0  0  0  0  0
  -23.6156  -30.5365   19.3930 H   0  0  0  0  0  0  0  0  0  0  0  0
  -22.7355  -29.1425   19.9945 H   0  0  0  0  0  0  0  0  0  0  0  0
  -25.1353  -36.2335   25.0565 H   0  0  0  0  0  0  0  0  0  0  0  0
  -21.0070  -28.3206   24.0793 H   0  0  0  0  0  0  0  0  0  0  0  0
  -20.5555  -26.2518   23.3550 H   0  0  0  0  0  0  0  0  0  0  0  0
  -21.5974  -26.8362   22.0454 H   0  0  0  0  0  0  0  0  0  0  0  0
  -19.6810  -25.6422   21.1488 H   0  0  0  0  0  0  0  0  0  0  0  0
  -19.6406  -27.3343   20.7034 H   0  0  0  0  0  0  0  0  0  0  0  0
  -17.4282  -26.6888   21.4113 H   0  0  0  0  0  0  0  0  0  0  0  0
  -18.0803  -26.0130   22.9049 H   0  0  0  0  0  0  0  0  0  0  0  0
  -19.7265  -30.6774   24.2204 H   0  0  0  0  0  0  0  0  0  0  0  0
  -17.5064  -31.5856   24.4483 H   0  0  0  0  0  0  0  0  0  0  0  0
  -15.5878  -30.2839   23.7407 H   0  0  0  0  0  0  0  0  0  0  0  0
  -15.9120  -28.0941   22.7766 H   0  0  0  0  0  0  0  0  0  0  0  0
  -24.5787  -30.7757   25.6817 H   0  0  0  0  0  0  0  0  0  0  0  0
  -25.0041  -32.2289   26.5536 H   0  0  0  0  0  0  0  0  0  0  0  0
  -25.8166  -30.7245   26.9138 H   0  0  0  0  0  0  0  0  0  0  0  0
  -26.2892  -29.7335   24.0803 H   0  0  0  0  0  0  0  0  0  0  0  0
  -27.4336  -29.7484   25.4006 H   0  0  0  0  0  0  0  0  0  0  0  0
  -27.8466  -30.4994   23.8779 H   0  0  0  0  0  0  0  0  0  0  0  0
  -27.2251  -33.3632   26.1242 H   0  0  0  0  0  0  0  0  0  0  0  0
  -28.3902  -32.6065   25.0645 H   0  0  0  0  0  0  0  0  0  0  0  0
  -27.9772  -31.8555   26.5872 H   0  0  0  0  0  0  0  0  0  0  0  0
  -28.2744  -38.0016   24.6863 H   0  0  0  0  0  0  0  0  0  0  0  0
  -28.0396  -36.2711   24.7461 H   0  0  0  0  0  0  0  0  0  0  0  0
  -27.1773  -37.3087   25.8564 H   0  0  0  0  0  0  0  0  0  0  0  0
  -20.9627  -29.9365   21.7352 H   0  0  0  0  0  0  0  0  0  0  0  0
  -26.0447  -38.2561   24.0273 H   0  0  0  0  0  0  0  0  0  0  0  0
  -31.1237  -26.7668   19.4650 H   0  0  0  0  0  0  0  0  0  0  0  0
  -29.9343  -22.7554   17.1035 H   0  0  0  0  0  0  0  0  0  0  0  0
  -31.6358  -23.0936   17.3406 H   0  0  0  0  0  0  0  0  0  0  0  0
  -29.1457  -23.7973   20.5840 H   0  0  0  0  0  0  0  0  0  0  0  0
  -28.3831  -23.1885   19.1300 H   0  0  0  0  0  0  0  0  0  0  0  0
  -31.8320  -21.2553   18.8929 H   0  0  0  0  0  0  0  0  0  0  0  0
  -31.1114  -20.6637   17.4193 H   0  0  0  0  0  0  0  0  0  0  0  0
  -30.2766  -21.7179   20.9309 H   0  0  0  0  0  0  0  0  0  0  0  0
  -28.5720  -25.3966   18.7234 H   0  0  0  0  0  0  0  0  0  0  0  0
  -29.0642  -27.1063   18.3505 H   0  0  0  0  0  0  0  0  0  0  0  0
  -32.9732  -25.5878   19.6293 H   0  0  0  0  0  0  0  0  0  0  0  0
  -33.0215  -24.1947   18.5768 H   0  0  0  0  0  0  0  0  0  0  0  0
  -27.4147  -21.1701   20.2459 H   0  0  0  0  0  0  0  0  0  0  0  0
  -28.0314  -21.7757   21.7813 H   0  0  0  0  0  0  0  0  0  0  0  0
  -27.9823  -19.7620   22.2525 H   0  0  0  0  0  0  0  0  0  0  0  0
  -29.9317  -19.8932   19.3646 H   0  0  0  0  0  0  0  0  0  0  0  0
  -28.9629  -20.9004   18.4129 H   0  0  0  0  0  0  0  0  0  0  0  0
  -32.3527  -24.1670   21.3470 H   0  0  0  0  0  0  0  0  0  0  0  0
  1 25  1  0
  1 30  2  0
  1 81  1  0
  2  3  1  0
  2 25  1  0
  2 84  1  0
  2 85  1  0
  3  4  1  0
  3 86  1  0
  3 87  1  0
  4  5  1  0
  4 88  1  0
  4 89  1  0
  5  6  1  0
  5 26  1  0
  5 90  1  6
  6 25  1  0
  6 91  1  0
  6 92  1  0
  7  8  2  0
  7 26  1  0
  7 29  1  0
  8  9  1  0
  8 22  1  0
  9 10  1  0
  9 27  2  0
 10 11  2  0
 10 15  1  0
 11 12  1  0
 11 93  1  0
 12 13  2  0
 12 94  1  0
 13 14  1  0
 13 31  1  0
 14 15  2  0
 14 95  1  0
 15 96  1  0
 16 17  2  0
 16 21  1  0
 16 31  1  0
 17 18  1  0
 17 97  1  0
 18 19  2  0
 18 98  1  0
 19 20  1  0
 19 24  1  0
 20 21  2  0
 20 99  1  0
 21 23  1  0
 22 28  1  0
 22 32  2  0
 26 27  1  0
 28100  1  0
 28101  1  0
 29102  1  0
 29103  1  0
 33 34  1  0
 33 66  1  0
 33 70  2  0
 34 36  1  0
 34 59  1  0
 34104  1  6
 35 44  2  0
 35 45  1  0
 35 68  1  0
 36 56  1  0
 36105  1  0
 37 39  1  0
 37 47  1  0
 37 66  1  0
 37106  1  6
 38 43  2  0
 38 46  1  0
 38 47  1  0
 39 64  1  0
 39 67  2  0
 40 52  1  0
 40 53  2  0
 40 58  1  0
 41107  1  0
 41108  1  0
 41109  1  0
 42 43  1  0
 42 66  1  0
 42110  1  0
 42111  1  0
 43 44  1  0
 44112  1  0
 45 46  2  0
 45113  1  0
 46114  1  0
 47115  1  0
 47116  1  0
 48 41  1  0
 48 56  1  0
 48 65  1  0
 48117  1  1
 49 50  1  0
 49 53  1  0
 49 64  1  0
 49118  1  1
 50 51  1  0
 50119  1  0
 50120  1  0
 51 52  1  0
 51121  1  0
 51122  1  0
 52123  1  0
 52124  1  0
 53 54  1  0
 54 55  2  0
 54125  1  0
 55 57  1  0
 55126  1  0
 56 69  2  0
 57 58  2  0
 57127  1  0
 58128  1  0
 59 60  1  0
 59 61  1  0
 59 62  1  0
 60129  1  0
 60130  1  0
 60131  1  0
 61132  1  0
 61133  1  0
 61134  1  0
 62135  1  0
 62136  1  0
 62137  1  0
 63 65  1  0
 63138  1  0
 63139  1  0
 63140  1  0
 64141  1  0
 65142  1  0
 68 77  1  0
 71 72  2  0
 71 77  1  0
 71143  1  0
 72 78  1  0
 72 80  1  0
 73 75  1  0
 73 80  1  0
 73144  1  0
 73145  1  0
 74 76  1  0
 74 80  1  0
 74146  1  0
 74147  1  0
 75 82  1  0
 75148  1  0
 75149  1  0
 76 79  1  0
 76 82  1  0
 76150  1  1
 77151  1  0
 77152  1  0
 78 83  1  0
 78153  1  0
 78154  1  0
 79 81  1  0
 79155  1  0
 79156  1  0
 81157  1  0
 82158  1  0
 82159  1  0
 83160  1  0
M  CHG  1  82   1
M  ISO  4   1 100  68 101  77 101  81 100
M  END
$$$$
14
     RDKit          3D

156164  0  0  0  0  0  0  0  0999 V2000
  -30.7652  -14.3608   20.6636 C   0  0  0  0  0  0  0  0  0100  0  0
  -30.4392  -12.2669   19.3775 C   0  0  0  0  0  0  0  0  0101  0  0
  -29.4791  -12.5281   18.1977 C   0  0  0  0  0  0  0  0  0102  0  0
  -27.9985  -12.3963   18.6038 C   0  0  0  0  0  0  0  0  0103  0  0
  -27.6639  -13.2170   19.8820 C   0  0  2  0  0  0  0  0  0104  0  0
  -28.6795  -12.9602   21.0279 C   0  0  0  0  0  0  0  0  0105  0  0
  -25.2633  -13.8245   20.5754 C   0  0  0  0  0  0  0  0  0106  0  0
  -24.1645  -13.0409   20.9408 C   0  0  0  0  0  0  0  0  0107  0  0
  -24.6400  -11.7009   20.8697 C   0  0  0  0  0  0  0  0  0108  0  0
  -23.9005  -10.4085   21.0420 C   0  0  0  0  0  0  0  0  0109  0  0
  -24.3588   -9.4123   21.9123 C   0  0  0  0  0  0  0  0  0110  0  0
  -23.6296   -8.2350   22.0803 C   0  0  0  0  0  0  0  0  0111  0  0
  -22.4385   -8.0419   21.3657 C   0  0  0  0  0  0  0  0  0112  0  0
  -22.0103   -9.0167   20.4678 C   0  0  0  0  0  0  0  0  0113  0  0
  -22.7317  -10.1925   20.3102 C   0  0  0  0  0  0  0  0  0114  0  0
  -21.6857   -6.0709   22.5391 C   0  0  0  0  0  0  0  0  0115  0  0
  -21.4064   -6.5490   23.8264 C   0  0  0  0  0  0  0  0  0116  0  0
  -21.3635   -5.6677   24.9085 C   0  0  0  0  0  0  0  0  0117  0  0
  -21.5973   -4.3067   24.7088 C   0  0  0  0  0  0  0  0  0118  0  0
  -21.8700   -3.8284   23.4282 C   0  0  0  0  0  0  0  0  0119  0  0
  -21.9144   -4.7056   22.3460 C   0  0  0  0  0  0  0  0  0120  0  0
  -22.8194  -13.5263   21.1763 C   0  0  0  0  0  0  0  0  0121  0  0
  -22.1559   -4.2206   21.1063 F   0  0  0  0  0  0  0  0  0122  0  0
  -21.5628   -3.4510   25.7555 F   0  0  0  0  0  0  0  0  0123  0  0
  -30.0261  -13.1803   20.4553 N   0  0  0  0  0  0  0  0  0124  0  0
  -26.2911  -12.9356   20.3443 N   0  0  0  0  0  0  0  0  0125  0  0
  -25.9236  -11.6675   20.5847 N   0  0  0  0  0  0  0  0  0126  0  0
  -22.0708  -12.7905   22.0005 N   0  0  0  0  0  0  0  0  0127  0  0
  -25.4117  -15.1773   20.4097 N   0  0  0  0  0  0  0  0  0128  0  0
  -31.7916  -14.6724   20.0536 O   0  0  0  0  0  0  0  0  0129  0  0
  -21.6670   -6.9022   21.4423 O   0  0  0  0  0  0  0  0  0130  0  0
  -22.3946  -14.5564   20.6568 O   0  0  0  0  0  0  0  0  0131  0  0
  -24.6048  -31.8614   23.2223 C   0  0  0  0  0  0  0  0  0100  0  0
  -25.8822  -32.4841   23.8616 C   0  0  1  0  0  0  0  0  0101  0  0
  -27.2536  -27.5042   20.1156 C   0  0  0  0  0  0  0  0  0102  0  0
  -25.5726  -33.8762   24.2210 N   0  0  0  0  0  0  0  0  0103  0  0
  -23.4066  -30.4859   21.5461 C   0  0  2  0  0  0  0  0  0104  0  0
  -24.8467  -28.9636   20.1247 C   0  0  0  0  0  0  0  0  0105  0  0
  -22.7412  -29.4652   22.5052 C   0  0  0  0  0  0  0  0  0106  0  0
  -18.0167  -28.1302   22.8626 C   0  0  0  0  0  0  0  0  0107  0  0
  -24.1342  -36.7390   23.2568 C   0  0  0  0  0  0  0  0  0108  0  0
  -25.9141  -30.8882   21.3456 C   0  0  0  0  0  0  0  0  0109  0  0
  -25.9930  -29.5029   20.7208 C   0  0  0  0  0  0  0  0  0110  0  0
  -27.1758  -28.7612   20.7331 C   0  0  0  0  0  0  0  0  0111  0  0
  -26.1032  -26.9836   19.5230 C   0  0  0  0  0  0  0  0  0112  0  0
  -24.9097  -27.7011   19.5331 C   0  0  0  0  0  0  0  0  0113  0  0
  -23.5715  -29.7899   20.1582 C   0  0  0  0  0  0  0  0  0114  0  0
  -25.3990  -36.3212   24.0232 C   0  0  1  0  0  0  0  0  0115  0  0
  -20.5793  -28.3813   23.1004 C   0  0  2  0  0  0  0  0  0116  0  0
  -20.6548  -26.9392   22.5411 C   0  0  0  0  0  0  0  0  0117  0  0
  -19.5615  -26.6407   21.5143 C   0  0  0  0  0  0  0  0  0118  0  0
  -18.1797  -26.7818   22.1673 C   0  0  0  0  0  0  0  0  0119  0  0
  -19.1385  -28.8769   23.2988 C   0  0  0  0  0  0  0  0  0120  0  0
  -18.9183  -30.1286   23.8878 C   0  0  0  0  0  0  0  0  0121  0  0
  -17.6396  -30.6493   24.0352 C   0  0  0  0  0  0  0  0  0122  0  0
  -25.9153  -34.9582   23.4993 C   0  0  0  0  0  0  0  0  0123  0  0
  -16.5415  -29.9068   23.6254 C   0  0  0  0  0  0  0  0  0124  0  0
  -16.7331  -28.6521   23.0586 C   0  0  0  0  0  0  0  0  0125  0  0
  -26.4583  -31.6439   25.0683 C   0  0  0  0  0  0  0  0  0126  0  0
  -25.3807  -31.3179   26.1374 C   0  0  0  0  0  0  0  0  0127  0  0
  -27.0530  -30.3024   24.5680 C   0  0  0  0  0  0  0  0  0128  0  0
  -27.6014  -32.4281   25.7651 C   0  0  0  0  0  0  0  0  0129  0  0
  -27.5629  -37.2220   24.8621 C   0  0  0  0  0  0  0  0  0130  0  0
  -21.4133  -29.3375   22.3735 N   0  0  0  0  0  0  0  0  0131  0  0
  -26.4706  -37.3372   23.9061 N   0  0  0  0  0  0  0  0  0132  0  0
  -24.6674  -31.0544   22.1178 N   0  0  0  0  0  0  0  0  0133  0  0
  -23.4259  -28.8150   23.2971 O   0  0  0  0  0  0  0  0  0134  0  0
  -28.3948  -26.7345   20.0089 O   0  0  0  0  0  0  0  0  0135  0  0
  -26.5870  -34.9065   22.4671 O   0  0  0  0  0  0  0  0  0136  0  0
  -23.5365  -32.1254   23.7833 O   0  0  0  0  0  0  0  0  0137  0  0
  -26.3946  -19.9473   19.5459 C   0  0  0  0  0  0  0  0  0  0  0  0
  -25.2040  -19.6178   21.7420 C   0  0  0  0  0  0  0  0  0  0  0  0
  -27.7162  -20.0612   20.3008 C   0  0  0  0  0  0  0  0  0  0  0  0
  -26.5461  -19.7433   22.4553 C   0  0  0  0  0  0  0  0  0  0  0  0
  -25.2065  -20.3844   20.4125 C   0  0  0  0  0  0  0  0  0  0  0  0
  -23.8882  -20.1859   19.6684 C   0  0  0  0  0  0  0  0  0  0  0  0
  -23.7479  -22.5365   18.7550 C   0  0  0  0  0  0  0  0  0  1  0  0
  -23.7623  -21.0485   18.4116 C   0  0  2  0  0  0  0  0  0  0  0  0
  -27.6630  -19.3586   21.5821 N   0  0  0  0  0  0  0  0  0  0  0  0
  -22.4857  -20.7259   17.7082 N   0  0  0  0  0  0  0  0  0  0  0  0
  -31.4485  -12.4701   19.0860 H   0  0  0  0  0  0  0  0  0  0  0  0
  -30.3970  -11.2460   19.6950 H   0  0  0  0  0  0  0  0  0  0  0  0
  -29.6870  -11.8204   17.4226 H   0  0  0  0  0  0  0  0  0  0  0  0
  -29.6375  -13.5326   17.8649 H   0  0  0  0  0  0  0  0  0  0  0  0
  -27.7830  -11.3650   18.7904 H   0  0  0  0  0  0  0  0  0  0  0  0
  -27.4028  -12.7801   17.8021 H   0  0  0  0  0  0  0  0  0  0  0  0
  -27.7353  -14.2503   19.6136 H   0  0  0  0  0  0  0  0  0  0  0  0
  -28.5890  -11.9550   21.3832 H   0  0  0  0  0  0  0  0  0  0  0  0
  -28.5005  -13.6134   21.8562 H   0  0  0  0  0  0  0  0  0  0  0  0
  -25.2399   -9.5495   22.4318 H   0  0  0  0  0  0  0  0  0  0  0  0
  -23.9663   -7.5070   22.7297 H   0  0  0  0  0  0  0  0  0  0  0  0
  -21.1515   -8.8641   19.9162 H   0  0  0  0  0  0  0  0  0  0  0  0
  -22.4016  -10.9115   19.6476 H   0  0  0  0  0  0  0  0  0  0  0  0
  -21.2319   -7.5552   23.9750 H   0  0  0  0  0  0  0  0  0  0  0  0
  -21.1589   -6.0228   25.8556 H   0  0  0  0  0  0  0  0  0  0  0  0
  -22.0396   -2.8212   23.2809 H   0  0  0  0  0  0  0  0  0  0  0  0
  -22.4401  -11.9703   22.4008 H   0  0  0  0  0  0  0  0  0  0  0  0
  -21.1493  -13.0679   22.2082 H   0  0  0  0  0  0  0  0  0  0  0  0
  -24.6538  -15.7807   20.5848 H   0  0  0  0  0  0  0  0  0  0  0  0
  -26.2762  -15.5453   20.1156 H   0  0  0  0  0  0  0  0  0  0  0  0
  -26.6778  -32.4663   23.1464 H   0  0  0  0  0  0  0  0  0  0  0  0
  -25.0747  -34.0282   25.0566 H   0  0  0  0  0  0  0  0  0  0  0  0
  -22.7881  -31.3489   21.4131 H   0  0  0  0  0  0  0  0  0  0  0  0
  -23.3854  -35.9823   23.3648 H   0  0  0  0  0  0  0  0  0  0  0  0
  -24.3696  -36.8624   22.2204 H   0  0  0  0  0  0  0  0  0  0  0  0
  -23.7669  -37.6632   23.6516 H   0  0  0  0  0  0  0  0  0  0  0  0
  -25.9445  -31.6237   20.5691 H   0  0  0  0  0  0  0  0  0  0  0  0
  -26.7436  -31.0079   22.0108 H   0  0  0  0  0  0  0  0  0  0  0  0
  -28.0090  -29.1452   21.2057 H   0  0  0  0  0  0  0  0  0  0  0  0
  -26.1369  -26.0560   19.0719 H   0  0  0  0  0  0  0  0  0  0  0  0
  -24.0652  -27.2961   19.0997 H   0  0  0  0  0  0  0  0  0  0  0  0
  -23.6156  -30.5365   19.3930 H   0  0  0  0  0  0  0  0  0  0  0  0
  -22.7355  -29.1425   19.9945 H   0  0  0  0  0  0  0  0  0  0  0  0
  -25.1353  -36.2335   25.0565 H   0  0  0  0  0  0  0  0  0  0  0  0
  -21.0070  -28.3206   24.0793 H   0  0  0  0  0  0  0  0  0  0  0  0
  -20.5555  -26.2518   23.3550 H   0  0  0  0  0  0  0  0  0  0  0  0
  -21.5974  -26.8362   22.0454 H   0  0  0  0  0  0  0  0  0  0  0  0
  -19.6810  -25.6422   21.1488 H   0  0  0  0  0  0  0  0  0  0  0  0
  -19.6406  -27.3343   20.7034 H   0  0  0  0  0  0  0  0  0  0  0  0
  -17.4282  -26.6888   21.4113 H   0  0  0  0  0  0  0  0  0  0  0  0
  -18.0803  -26.0130   22.9049 H   0  0  0  0  0  0  0  0  0  0  0  0
  -19.7265  -30.6774   24.2204 H   0  0  0  0  0  0  0  0  0  0  0  0
  -17.5064  -31.5856   24.4483 H   0  0  0  0  0  0  0  0  0  0  0  0
  -15.5878  -30.2839   23.7407 H   0  0  0  0  0  0  0  0  0  0  0  0
  -15.9120  -28.0941   22.7766 H   0  0  0  0  0  0  0  0  0  0  0  0
  -24.5787  -30.7757   25.6817 H   0  0  0  0  0  0  0  0  0  0  0  0
  -25.0041  -32.2289   26.5536 H   0  0  0  0  0  0  0  0  0  0  0  0
  -25.8166  -30.7245   26.9138 H   0  0  0  0  0  0  0  0  0  0  0  0
  -26.2892  -29.7335   24.0803 H   0  0  0  0  0  0  0  0  0  0  0  0
  -27.4336  -29.7484   25.4006 H   0  0  0  0  0  0  0  0  0  0  0  0
  -27.8466  -30.4994   23.8779 H   0  0  0  0  0  0  0  0  0  0  0  0
  -27.2251  -33.3632   26.1242 H   0  0  0  0  0  0  0  0  0  0  0  0
  -28.3902  -32.6065   25.0645 H   0  0  0  0  0  0  0  0  0  0  0  0
  -27.9772  -31.8555   26.5872 H   0  0  0  0  0  0  0  0  0  0  0  0
  -28.2744  -38.0016   24.6863 H   0  0  0  0  0  0  0  0  0  0  0  0
  -28.0396  -36.2711   24.7461 H   0  0  0  0  0  0  0  0  0  0  0  0
  -27.1773  -37.3087   25.8564 H   0  0  0  0  0  0  0  0  0  0  0  0
  -20.9627  -29.9365   21.7352 H   0  0  0  0  0  0  0  0  0  0  0  0
  -26.0447  -38.2561   24.0273 H   0  0  0  0  0  0  0  0  0  0  0  0
  -26.2514  -18.9293   19.2492 H   0  0  0  0  0  0  0  0  0  0  0  0
  -26.4408  -20.5924   18.6934 H   0  0  0  0  0  0  0  0  0  0  0  0
  -24.4357  -20.0149   22.3721 H   0  0  0  0  0  0  0  0  0  0  0  0
  -25.0263  -18.5831   21.5354 H   0  0  0  0  0  0  0  0  0  0  0  0
  -27.9267  -21.0950   20.4795 H   0  0  0  0  0  0  0  0  0  0  0  0
  -28.4836  -19.6141   19.7041 H   0  0  0  0  0  0  0  0  0  0  0  0
  -26.5428  -19.1065   23.3151 H   0  0  0  0  0  0  0  0  0  0  0  0
  -26.6799  -20.7668   22.7370 H   0  0  0  0  0  0  0  0  0  0  0  0
  -25.3100  -21.4280   20.6247 H   0  0  0  0  0  0  0  0  0  0  0  0
  -23.0848  -20.4327   20.3306 H   0  0  0  0  0  0  0  0  0  0  0  0
  -23.8547  -19.1638   19.3538 H   0  0  0  0  0  0  0  0  0  0  0  0
  -23.1291  -22.5839   19.6266 H   0  0  0  0  0  0  0  0  0  0  0  0
  -23.5474  -22.8811   17.7620 H   0  0  0  0  0  0  0  0  0  0  0  0
  -24.6075  -20.8386   17.7899 H   0  0  0  0  0  0  0  0  0  0  0  0
  -21.6976  -20.9346   18.3212 H   0  0  0  0  0  0  0  0  0  0  0  0
  -22.4732  -19.7358   17.4635 H   0  0  0  0  0  0  0  0  0  0  0  0
  -22.4141  -21.2869   16.8593 H   0  0  0  0  0  0  0  0  0  0  0  0
  1 25  1  0
  1 30  2  0
  1 79  1  0
  2  3  1  0
  2 25  1  0
  2 81  1  0
  2 82  1  0
  3  4  1  0
  3 83  1  0
  3 84  1  0
  4  5  1  0
  4 85  1  0
  4 86  1  0
  5  6  1  0
  5 26  1  0
  5 87  1  6
  6 25  1  0
  6 88  1  0
  6 89  1  0
  7  8  2  0
  7 26  1  0
  7 29  1  0
  8  9  1  0
  8 22  1  0
  9 10  1  0
  9 27  2  0
 10 11  2  0
 10 15  1  0
 11 12  1  0
 11 90  1  0
 12 13  2  0
 12 91  1  0
 13 14  1  0
 13 31  1  0
 14 15  2  0
 14 92  1  0
 15 93  1  0
 16 17  2  0
 16 21  1  0
 16 31  1  0
 17 18  1  0
 17 94  1  0
 18 19  2  0
 18 95  1  0
 19 20  1  0
 19 24  1  0
 20 21  2  0
 20 96  1  0
 21 23  1  0
 22 28  1  0
 22 32  2  0
 26 27  1  0
 28 97  1  0
 28 98  1  0
 29 99  1  0
 29100  1  0
 33 34  1  0
 33 66  1  0
 33 70  2  0
 34 36  1  0
 34 59  1  0
 34101  1  6
 35 44  2  0
 35 45  1  0
 35 68  1  0
 36 56  1  0
 36102  1  0
 37 39  1  0
 37 47  1  0
 37 66  1  0
 37103  1  6
 38 43  2  0
 38 46  1  0
 38 47  1  0
 39 64  1  0
 39 67  2  0
 40 52  1  0
 40 53  2  0
 40 58  1  0
 41104  1  0
 41105  1  0
 41106  1  0
 42 43  1  0
 42 66  1  0
 42107  1  0
 42108  1  0
 43 44  1  0
 44109  1  0
 45 46  2  0
 45110  1  0
 46111  1  0
 47112  1  0
 47113  1  0
 48 41  1  0
 48 56  1  0
 48 65  1  0
 48114  1  1
 49 50  1  0
 49 53  1  0
 49 64  1  0
 49115  1  1
 50 51  1  0
 50116  1  0
 50117  1  0
 51 52  1  0
 51118  1  0
 51119  1  0
 52120  1  0
 52121  1  0
 53 54  1  0
 54 55  2  0
 54122  1  0
 55 57  1  0
 55123  1  0
 56 69  2  0
 57 58  2  0
 57124  1  0
 58125  1  0
 59 60  1  0
 59 61  1  0
 59 62  1  0
 60126  1  0
 60127  1  0
 60128  1  0
 61129  1  0
 61130  1  0
 61131  1  0
 62132  1  0
 62133  1  0
 62134  1  0
 63 65  1  0
 63135  1  0
 63136  1  0
 63137  1  0
 64138  1  0
 65139  1  0
 68 77  1  0
 71 73  1  0
 71 75  1  0
 71140  1  0
 71141  1  0
 72 74  1  0
 72 75  1  0
 72142  1  0
 72143  1  0
 73 79  1  0
 73144  1  0
 73145  1  0
 74 79  1  0
 74146  1  0
 74147  1  0
 75 76  1  0
 75148  1  0
 76 78  1  0
 76149  1  0
 76150  1  0
 77 78  1  0
 77151  1  0
 77152  1  0
 78 80  1  0
 78153  1  6
 80154  1  0
 80155  1  0
 80156  1  0
M  CHG  1  80   1
M  ISO  4   1 100  68 101  77 101  79 100
M  END
$$$$
15
     RDKit          3D

159167  0  0  0  0  0  0  0  0999 V2000
  -30.7652  -14.3608   20.6636 C   0  0  0  0  0  0  0  0  0100  0  0
  -30.4392  -12.2669   19.3775 C   0  0  0  0  0  0  0  0  0101  0  0
  -29.4791  -12.5281   18.1977 C   0  0  0  0  0  0  0  0  0102  0  0
  -27.9985  -12.3963   18.6038 C   0  0  0  0  0  0  0  0  0103  0  0
  -27.6639  -13.2170   19.8820 C   0  0  2  0  0  0  0  0  0104  0  0
  -28.6795  -12.9602   21.0279 C   0  0  0  0  0  0  0  0  0105  0  0
  -25.2633  -13.8245   20.5754 C   0  0  0  0  0  0  0  0  0106  0  0
  -24.1645  -13.0409   20.9408 C   0  0  0  0  0  0  0  0  0107  0  0
  -24.6400  -11.7009   20.8697 C   0  0  0  0  0  0  0  0  0108  0  0
  -23.9005  -10.4085   21.0420 C   0  0  0  0  0  0  0  0  0109  0  0
  -24.3588   -9.4123   21.9123 C   0  0  0  0  0  0  0  0  0110  0  0
  -23.6296   -8.2350   22.0803 C   0  0  0  0  0  0  0  0  0111  0  0
  -22.4385   -8.0419   21.3657 C   0  0  0  0  0  0  0  0  0112  0  0
  -22.0103   -9.0167   20.4678 C   0  0  0  0  0  0  0  0  0113  0  0
  -22.7317  -10.1925   20.3102 C   0  0  0  0  0  0  0  0  0114  0  0
  -21.6857   -6.0709   22.5391 C   0  0  0  0  0  0  0  0  0115  0  0
  -21.4064   -6.5490   23.8264 C   0  0  0  0  0  0  0  0  0116  0  0
  -21.3635   -5.6677   24.9085 C   0  0  0  0  0  0  0  0  0117  0  0
  -21.5973   -4.3067   24.7088 C   0  0  0  0  0  0  0  0  0118  0  0
  -21.8700   -3.8284   23.4282 C   0  0  0  0  0  0  0  0  0119  0  0
  -21.9144   -4.7056   22.3460 C   0  0  0  0  0  0  0  0  0120  0  0
  -22.8194  -13.5263   21.1763 C   0  0  0  0  0  0  0  0  0121  0  0
  -22.1559   -4.2206   21.1063 F   0  0  0  0  0  0  0  0  0122  0  0
  -21.5628   -3.4510   25.7555 F   0  0  0  0  0  0  0  0  0123  0  0
  -30.0261  -13.1803   20.4553 N   0  0  0  0  0  0  0  0  0124  0  0
  -26.2911  -12.9356   20.3443 N   0  0  0  0  0  0  0  0  0125  0  0
  -25.9236  -11.6675   20.5847 N   0  0  0  0  0  0  0  0  0126  0  0
  -22.0708  -12.7905   22.0005 N   0  0  0  0  0  0  0  0  0127  0  0
  -25.4117  -15.1773   20.4097 N   0  0  0  0  0  0  0  0  0128  0  0
  -31.7916  -14.6724   20.0536 O   0  0  0  0  0  0  0  0  0129  0  0
  -21.6670   -6.9022   21.4423 O   0  0  0  0  0  0  0  0  0130  0  0
  -22.3946  -14.5564   20.6568 O   0  0  0  0  0  0  0  0  0131  0  0
  -24.6048  -31.8614   23.2223 C   0  0  0  0  0  0  0  0  0100  0  0
  -25.8822  -32.4841   23.8616 C   0  0  1  0  0  0  0  0  0101  0  0
  -27.2536  -27.5042   20.1156 C   0  0  0  0  0  0  0  0  0102  0  0
  -25.5726  -33.8762   24.2210 N   0  0  0  0  0  0  0  0  0103  0  0
  -23.4066  -30.4859   21.5461 C   0  0  2  0  0  0  0  0  0104  0  0
  -24.8467  -28.9636   20.1247 C   0  0  0  0  0  0  0  0  0105  0  0
  -22.7412  -29.4652   22.5052 C   0  0  0  0  0  0  0  0  0106  0  0
  -18.0167  -28.1302   22.8626 C   0  0  0  0  0  0  0  0  0107  0  0
  -24.1342  -36.7390   23.2568 C   0  0  0  0  0  0  0  0  0108  0  0
  -25.9141  -30.8882   21.3456 C   0  0  0  0  0  0  0  0  0109  0  0
  -25.9930  -29.5029   20.7208 C   0  0  0  0  0  0  0  0  0110  0  0
  -27.1758  -28.7612   20.7331 C   0  0  0  0  0  0  0  0  0111  0  0
  -26.1032  -26.9836   19.5230 C   0  0  0  0  0  0  0  0  0112  0  0
  -24.9097  -27.7011   19.5331 C   0  0  0  0  0  0  0  0  0113  0  0
  -23.5715  -29.7899   20.1582 C   0  0  0  0  0  0  0  0  0114  0  0
  -25.3990  -36.3212   24.0232 C   0  0  1  0  0  0  0  0  0115  0  0
  -20.5793  -28.3813   23.1004 C   0  0  2  0  0  0  0  0  0116  0  0
  -20.6548  -26.9392   22.5411 C   0  0  0  0  0  0  0  0  0117  0  0
  -19.5615  -26.6407   21.5143 C   0  0  0  0  0  0  0  0  0118  0  0
  -18.1797  -26.7818   22.1673 C   0  0  0  0  0  0  0  0  0119  0  0
  -19.1385  -28.8769   23.2988 C   0  0  0  0  0  0  0  0  0120  0  0
  -18.9183  -30.1286   23.8878 C   0  0  0  0  0  0  0  0  0121  0  0
  -17.6396  -30.6493   24.0352 C   0  0  0  0  0  0  0  0  0122  0  0
  -25.9153  -34.9582   23.4993 C   0  0  0  0  0  0  0  0  0123  0  0
  -16.5415  -29.9068   23.6254 C   0  0  0  0  0  0  0  0  0124  0  0
  -16.7331  -28.6521   23.0586 C   0  0  0  0  0  0  0  0  0125  0  0
  -26.4583  -31.6439   25.0683 C   0  0  0  0  0  0  0  0  0126  0  0
  -25.3807  -31.3179   26.1374 C   0  0  0  0  0  0  0  0  0127  0  0
  -27.0530  -30.3024   24.5680 C   0  0  0  0  0  0  0  0  0128  0  0
  -27.6014  -32.4281   25.7651 C   0  0  0  0  0  0  0  0  0129  0  0
  -27.5629  -37.2220   24.8621 C   0  0  0  0  0  0  0  0  0130  0  0
  -21.4133  -29.3375   22.3735 N   0  0  0  0  0  0  0  0  0131  0  0
  -26.4706  -37.3372   23.9061 N   0  0  0  0  0  0  0  0  0132  0  0
  -24.6674  -31.0544   22.1178 N   0  0  0  0  0  0  0  0  0133  0  0
  -23.4259  -28.8150   23.2971 O   0  0  0  0  0  0  0  0  0134  0  0
  -28.3948  -26.7345   20.0089 O   0  0  0  0  0  0  0  0  0135  0  0
  -26.5870  -34.9065   22.4671 O   0  0  0  0  0  0  0  0  0136  0  0
  -23.5365  -32.1254   23.7833 O   0  0  0  0  0  0  0  0  0137  0  0
  -33.2854  -17.1945   26.7144 C   0  0  0  0  0  0  0  0  0  0  0  0
  -32.4182  -17.6413   27.8967 C   0  0  0  0  0  0  0  0  0  0  0  0
  -31.4044  -15.7178   26.8280 C   0  0  0  0  0  0  0  0  0  0  0  0
  -32.3742  -16.3459   25.8282 C   0  0  2  0  0  0  0  0  0  0  0  0
  -31.1036  -16.8701   27.7786 C   0  0  2  0  0  0  0  0  0  1  0  0
  -33.9210  -14.3756   25.9331 C   0  0  0  0  0  0  0  0  0  0  0  0
  -34.1445  -16.0479   24.0901 C   0  0  0  0  0  0  0  0  0  0  0  0
  -32.1744  -14.5011   24.0824 C   0  0  0  0  0  0  0  0  0  0  0  0
  -31.3434  -15.3280   23.1025 C   0  0  0  0  0  0  0  0  0  0  0  0
  -33.1294  -15.3188   25.0021 C   0  0  0  0  0  0  0  0  0  0  0  0
  -30.5068  -14.4820   22.2809 N   0  0  0  0  0  0  0  0  0  0  0  0
  -31.4485  -12.4701   19.0860 H   0  0  0  0  0  0  0  0  0  0  0  0
  -30.3970  -11.2460   19.6950 H   0  0  0  0  0  0  0  0  0  0  0  0
  -29.6870  -11.8204   17.4226 H   0  0  0  0  0  0  0  0  0  0  0  0
  -29.6375  -13.5326   17.8649 H   0  0  0  0  0  0  0  0  0  0  0  0
  -27.7830  -11.3650   18.7904 H   0  0  0  0  0  0  0  0  0  0  0  0
  -27.4028  -12.7801   17.8021 H   0  0  0  0  0  0  0  0  0  0  0  0
  -27.7353  -14.2503   19.6136 H   0  0  0  0  0  0  0  0  0  0  0  0
  -28.5890  -11.9550   21.3832 H   0  0  0  0  0  0  0  0  0  0  0  0
  -28.5005  -13.6134   21.8562 H   0  0  0  0  0  0  0  0  0  0  0  0
  -25.2399   -9.5495   22.4318 H   0  0  0  0  0  0  0  0  0  0  0  0
  -23.9663   -7.5070   22.7297 H   0  0  0  0  0  0  0  0  0  0  0  0
  -21.1515   -8.8641   19.9162 H   0  0  0  0  0  0  0  0  0  0  0  0
  -22.4016  -10.9115   19.6476 H   0  0  0  0  0  0  0  0  0  0  0  0
  -21.2319   -7.5552   23.9750 H   0  0  0  0  0  0  0  0  0  0  0  0
  -21.1589   -6.0228   25.8556 H   0  0  0  0  0  0  0  0  0  0  0  0
  -22.0396   -2.8212   23.2809 H   0  0  0  0  0  0  0  0  0  0  0  0
  -22.4401  -11.9703   22.4008 H   0  0  0  0  0  0  0  0  0  0  0  0
  -21.1493  -13.0679   22.2082 H   0  0  0  0  0  0  0  0  0  0  0  0
  -24.6538  -15.7807   20.5848 H   0  0  0  0  0  0  0  0  0  0  0  0
  -26.2762  -15.5453   20.1156 H   0  0  0  0  0  0  0  0  0  0  0  0
  -26.6778  -32.4663   23.1464 H   0  0  0  0  0  0  0  0  0  0  0  0
  -25.0747  -34.0282   25.0566 H   0  0  0  0  0  0  0  0  0  0  0  0
  -22.7881  -31.3489   21.4131 H   0  0  0  0  0  0  0  0  0  0  0  0
  -23.3854  -35.9823   23.3648 H   0  0  0  0  0  0  0  0  0  0  0  0
  -24.3696  -36.8624   22.2204 H   0  0  0  0  0  0  0  0  0  0  0  0
  -23.7669  -37.6632   23.6516 H   0  0  0  0  0  0  0  0  0  0  0  0
  -25.9445  -31.6237   20.5691 H   0  0  0  0  0  0  0  0  0  0  0  0
  -26.7436  -31.0079   22.0108 H   0  0  0  0  0  0  0  0  0  0  0  0
  -28.0090  -29.1452   21.2057 H   0  0  0  0  0  0  0  0  0  0  0  0
  -26.1369  -26.0560   19.0719 H   0  0  0  0  0  0  0  0  0  0  0  0
  -24.0652  -27.2961   19.0997 H   0  0  0  0  0  0  0  0  0  0  0  0
  -23.6156  -30.5365   19.3930 H   0  0  0  0  0  0  0  0  0  0  0  0
  -22.7355  -29.1425   19.9945 H   0  0  0  0  0  0  0  0  0  0  0  0
  -25.1353  -36.2335   25.0565 H   0  0  0  0  0  0  0  0  0  0  0  0
  -21.0070  -28.3206   24.0793 H   0  0  0  0  0  0  0  0  0  0  0  0
  -20.5555  -26.2518   23.3550 H   0  0  0  0  0  0  0  0  0  0  0  0
  -21.5974  -26.8362   22.0454 H   0  0  0  0  0  0  0  0  0  0  0  0
  -19.6810  -25.6422   21.1488 H   0  0  0  0  0  0  0  0  0  0  0  0
  -19.6406  -27.3343   20.7034 H   0  0  0  0  0  0  0  0  0  0  0  0
  -17.4282  -26.6888   21.4113 H   0  0  0  0  0  0  0  0  0  0  0  0
  -18.0803  -26.0130   22.9049 H   0  0  0  0  0  0  0  0  0  0  0  0
  -19.7265  -30.6774   24.2204 H   0  0  0  0  0  0  0  0  0  0  0  0
  -17.5064  -31.5856   24.4483 H   0  0  0  0  0  0  0  0  0  0  0  0
  -15.5878  -30.2839   23.7407 H   0  0  0  0  0  0  0  0  0  0  0  0
  -15.9120  -28.0941   22.7766 H   0  0  0  0  0  0  0  0  0  0  0  0
  -24.5787  -30.7757   25.6817 H   0  0  0  0  0  0  0  0  0  0  0  0
  -25.0041  -32.2289   26.5536 H   0  0  0  0  0  0  0  0  0  0  0  0
  -25.8166  -30.7245   26.9138 H   0  0  0  0  0  0  0  0  0  0  0  0
  -26.2892  -29.7335   24.0803 H   0  0  0  0  0  0  0  0  0  0  0  0
  -27.4336  -29.7484   25.4006 H   0  0  0  0  0  0  0  0  0  0  0  0
  -27.8466  -30.4994   23.8779 H   0  0  0  0  0  0  0  0  0  0  0  0
  -27.2251  -33.3632   26.1242 H   0  0  0  0  0  0  0  0  0  0  0  0
  -28.3902  -32.6065   25.0645 H   0  0  0  0  0  0  0  0  0  0  0  0
  -27.9772  -31.8555   26.5872 H   0  0  0  0  0  0  0  0  0  0  0  0
  -28.2744  -38.0016   24.6863 H   0  0  0  0  0  0  0  0  0  0  0  0
  -28.0396  -36.2711   24.7461 H   0  0  0  0  0  0  0  0  0  0  0  0
  -27.1773  -37.3087   25.8564 H   0  0  0  0  0  0  0  0  0  0  0  0
  -20.9627  -29.9365   21.7352 H   0  0  0  0  0  0  0  0  0  0  0  0
  -26.0447  -38.2561   24.0273 H   0  0  0  0  0  0  0  0  0  0  0  0
  -34.1156  -16.6142   27.0593 H   0  0  0  0  0  0  0  0  0  0  0  0
  -33.6861  -18.0311   26.1811 H   0  0  0  0  0  0  0  0  0  0  0  0
  -32.2360  -18.6944   27.8457 H   0  0  0  0  0  0  0  0  0  0  0  0
  -32.9022  -17.4451   28.8306 H   0  0  0  0  0  0  0  0  0  0  0  0
  -31.8610  -14.9004   27.3460 H   0  0  0  0  0  0  0  0  0  0  0  0
  -30.5289  -15.3091   26.3684 H   0  0  0  0  0  0  0  0  0  0  0  0
  -31.8759  -16.9238   25.0781 H   0  0  0  0  0  0  0  0  0  0  0  0
  -30.5075  -16.5066   28.5894 H   0  0  0  0  0  0  0  0  0  0  0  0
  -34.5709  -14.9530   26.5568 H   0  0  0  0  0  0  0  0  0  0  0  0
  -34.5020  -13.6975   25.3435 H   0  0  0  0  0  0  0  0  0  0  0  0
  -33.2387  -13.8225   26.5442 H   0  0  0  0  0  0  0  0  0  0  0  0
  -34.8178  -16.6210   24.6927 H   0  0  0  0  0  0  0  0  0  0  0  0
  -33.6204  -16.6995   23.4226 H   0  0  0  0  0  0  0  0  0  0  0  0
  -34.6973  -15.3274   23.5243 H   0  0  0  0  0  0  0  0  0  0  0  0
  -32.7687  -13.8157   23.5151 H   0  0  0  0  0  0  0  0  0  0  0  0
  -31.4733  -14.0235   24.7346 H   0  0  0  0  0  0  0  0  0  0  0  0
  -32.0024  -15.8860   22.4707 H   0  0  0  0  0  0  0  0  0  0  0  0
  -30.7124  -15.9846   23.6642 H   0  0  0  0  0  0  0  0  0  0  0  0
  -29.7736  -13.9726   22.6959 H   0  0  0  0  0  0  0  0  0  0  0  0
  1 25  1  0
  1 30  2  0
  1 81  1  0
  2  3  1  0
  2 25  1  0
  2 82  1  0
  2 83  1  0
  3  4  1  0
  3 84  1  0
  3 85  1  0
  4  5  1  0
  4 86  1  0
  4 87  1  0
  5  6  1  0
  5 26  1  0
  5 88  1  6
  6 25  1  0
  6 89  1  0
  6 90  1  0
  7  8  2  0
  7 26  1  0
  7 29  1  0
  8  9  1  0
  8 22  1  0
  9 10  1  0
  9 27  2  0
 10 11  2  0
 10 15  1  0
 11 12  1  0
 11 91  1  0
 12 13  2  0
 12 92  1  0
 13 14  1  0
 13 31  1  0
 14 15  2  0
 14 93  1  0
 15 94  1  0
 16 17  2  0
 16 21  1  0
 16 31  1  0
 17 18  1  0
 17 95  1  0
 18 19  2  0
 18 96  1  0
 19 20  1  0
 19 24  1  0
 20 21  2  0
 20 97  1  0
 21 23  1  0
 22 28  1  0
 22 32  2  0
 26 27  1  0
 28 98  1  0
 28 99  1  0
 29100  1  0
 29101  1  0
 33 34  1  0
 33 66  1  0
 33 70  2  0
 34 36  1  0
 34 59  1  0
 34102  1  6
 35 44  2  0
 35 45  1  0
 35 68  1  0
 36 56  1  0
 36103  1  0
 37 39  1  0
 37 47  1  0
 37 66  1  0
 37104  1  6
 38 43  2  0
 38 46  1  0
 38 47  1  0
 39 64  1  0
 39 67  2  0
 40 52  1  0
 40 53  2  0
 40 58  1  0
 41105  1  0
 41106  1  0
 41107  1  0
 42 43  1  0
 42 66  1  0
 42108  1  0
 42109  1  0
 43 44  1  0
 44110  1  0
 45 46  2  0
 45111  1  0
 46112  1  0
 47113  1  0
 47114  1  0
 48 41  1  0
 48 56  1  0
 48 65  1  0
 48115  1  1
 49 50  1  0
 49 53  1  0
 49 64  1  0
 49116  1  1
 50 51  1  0
 50117  1  0
 50118  1  0
 51 52  1  0
 51119  1  0
 51120  1  0
 52121  1  0
 52122  1  0
 53 54  1  0
 54 55  2  0
 54123  1  0
 55 57  1  0
 55124  1  0
 56 69  2  0
 57 58  2  0
 57125  1  0
 58126  1  0
 59 60  1  0
 59 61  1  0
 59 62  1  0
 60127  1  0
 60128  1  0
 60129  1  0
 61130  1  0
 61131  1  0
 61132  1  0
 62133  1  0
 62134  1  0
 62135  1  0
 63 65  1  0
 63136  1  0
 63137  1  0
 63138  1  0
 64139  1  0
 65140  1  0
 71 72  1  0
 71141  1  0
 71142  1  0
 72 75  1  0
 72143  1  0
 72144  1  0
 73 74  1  0
 73 75  1  0
 73145  1  0
 73146  1  0
 74 71  1  0
 74 80  1  0
 74147  1  6
 75 68  1  0
 75148  1  1
 76149  1  0
 76150  1  0
 76151  1  0
 77 80  1  0
 77152  1  0
 77153  1  0
 77154  1  0
 78 79  1  0
 78 80  1  0
 78155  1  0
 78156  1  0
 79 81  1  0
 79157  1  0
 79158  1  0
 80 76  1  0
 81159  1  0
M  ISO  4   1 100  68 101  75 101  81 100
M  END
$$$$
16
     RDKit          3D

175184  0  0  0  0  0  0  0  0999 V2000
  -30.7652  -14.3608   20.6636 C   0  0  0  0  0  0  0  0  0100  0  0
  -30.4392  -12.2669   19.3775 C   0  0  0  0  0  0  0  0  0101  0  0
  -29.4791  -12.5281   18.1977 C   0  0  0  0  0  0  0  0  0102  0  0
  -27.9985  -12.3963   18.6038 C   0  0  0  0  0  0  0  0  0103  0  0
  -27.6639  -13.2170   19.8820 C   0  0  2  0  0  0  0  0  0104  0  0
  -28.6795  -12.9602   21.0279 C   0  0  0  0  0  0  0  0  0105  0  0
  -25.2633  -13.8245   20.5754 C   0  0  0  0  0  0  0  0  0106  0  0
  -24.1645  -13.0409   20.9408 C   0  0  0  0  0  0  0  0  0107  0  0
  -24.6400  -11.7009   20.8697 C   0  0  0  0  0  0  0  0  0108  0  0
  -23.9005  -10.4085   21.0420 C   0  0  0  0  0  0  0  0  0109  0  0
  -24.3588   -9.4123   21.9123 C   0  0  0  0  0  0  0  0  0110  0  0
  -23.6296   -8.2350   22.0803 C   0  0  0  0  0  0  0  0  0111  0  0
  -22.4385   -8.0419   21.3657 C   0  0  0  0  0  0  0  0  0112  0  0
  -22.0103   -9.0167   20.4678 C   0  0  0  0  0  0  0  0  0113  0  0
  -22.7317  -10.1925   20.3102 C   0  0  0  0  0  0  0  0  0114  0  0
  -21.6857   -6.0709   22.5391 C   0  0  0  0  0  0  0  0  0115  0  0
  -21.4064   -6.5490   23.8264 C   0  0  0  0  0  0  0  0  0116  0  0
  -21.3635   -5.6677   24.9085 C   0  0  0  0  0  0  0  0  0117  0  0
  -21.5973   -4.3067   24.7088 C   0  0  0  0  0  0  0  0  0118  0  0
  -21.8700   -3.8284   23.4282 C   0  0  0  0  0  0  0  0  0119  0  0
  -21.9144   -4.7056   22.3460 C   0  0  0  0  0  0  0  0  0120  0  0
  -22.8194  -13.5263   21.1763 C   0  0  0  0  0  0  0  0  0121  0  0
  -22.1559   -4.2206   21.1063 F   0  0  0  0  0  0  0  0  0122  0  0
  -21.5628   -3.4510   25.7555 F   0  0  0  0  0  0  0  0  0123  0  0
  -30.0261  -13.1803   20.4553 N   0  0  0  0  0  0  0  0  0124  0  0
  -26.2911  -12.9356   20.3443 N   0  0  0  0  0  0  0  0  0125  0  0
  -25.9236  -11.6675   20.5847 N   0  0  0  0  0  0  0  0  0126  0  0
  -22.0708  -12.7905   22.0005 N   0  0  0  0  0  0  0  0  0127  0  0
  -25.4117  -15.1773   20.4097 N   0  0  0  0  0  0  0  0  0128  0  0
  -31.7916  -14.6724   20.0536 O   0  0  0  0  0  0  0  0  0129  0  0
  -21.6670   -6.9022   21.4423 O   0  0  0  0  0  0  0  0  0130  0  0
  -22.3946  -14.5564   20.6568 O   0  0  0  0  0  0  0  0  0131  0  0
  -24.6048  -31.8614   23.2223 C   0  0  0  0  0  0  0  0  0100  0  0
  -25.8822  -32.4841   23.8616 C   0  0  1  0  0  0  0  0  0101  0  0
  -27.2536  -27.5042   20.1156 C   0  0  0  0  0  0  0  0  0102  0  0
  -25.5726  -33.8762   24.2210 N   0  0  0  0  0  0  0  0  0103  0  0
  -23.4066  -30.4859   21.5461 C   0  0  2  0  0  0  0  0  0104  0  0
  -24.8467  -28.9636   20.1247 C   0  0  0  0  0  0  0  0  0105  0  0
  -22.7412  -29.4652   22.5052 C   0  0  0  0  0  0  0  0  0106  0  0
  -18.0167  -28.1302   22.8626 C   0  0  0  0  0  0  0  0  0107  0  0
  -24.1342  -36.7390   23.2568 C   0  0  0  0  0  0  0  0  0108  0  0
  -25.9141  -30.8882   21.3456 C   0  0  0  0  0  0  0  0  0109  0  0
  -25.9930  -29.5029   20.7208 C   0  0  0  0  0  0  0  0  0110  0  0
  -27.1758  -28.7612   20.7331 C   0  0  0  0  0  0  0  0  0111  0  0
  -26.1032  -26.9836   19.5230 C   0  0  0  0  0  0  0  0  0112  0  0
  -24.9097  -27.7011   19.5331 C   0  0  0  0  0  0  0  0  0113  0  0
  -23.5715  -29.7899   20.1582 C   0  0  0  0  0  0  0  0  0114  0  0
  -25.3990  -36.3212   24.0232 C   0  0  1  0  0  0  0  0  0115  0  0
  -20.5793  -28.3813   23.1004 C   0  0  2  0  0  0  0  0  0116  0  0
  -20.6548  -26.9392   22.5411 C   0  0  0  0  0  0  0  0  0117  0  0
  -19.5615  -26.6407   21.5143 C   0  0  0  0  0  0  0  0  0118  0  0
  -18.1797  -26.7818   22.1673 C   0  0  0  0  0  0  0  0  0119  0  0
  -19.1385  -28.8769   23.2988 C   0  0  0  0  0  0  0  0  0120  0  0
  -18.9183  -30.1286   23.8878 C   0  0  0  0  0  0  0  0  0121  0  0
  -17.6396  -30.6493   24.0352 C   0  0  0  0  0  0  0  0  0122  0  0
  -25.9153  -34.9582   23.4993 C   0  0  0  0  0  0  0  0  0123  0  0
  -16.5415  -29.9068   23.6254 C   0  0  0  0  0  0  0  0  0124  0  0
  -16.7331  -28.6521   23.0586 C   0  0  0  0  0  0  0  0  0125  0  0
  -26.4583  -31.6439   25.0683 C   0  0  0  0  0  0  0  0  0126  0  0
  -25.3807  -31.3179   26.1374 C   0  0  0  0  0  0  0  0  0127  0  0
  -27.0530  -30.3024   24.5680 C   0  0  0  0  0  0  0  0  0128  0  0
  -27.6014  -32.4281   25.7651 C   0  0  0  0  0  0  0  0  0129  0  0
  -27.5629  -37.2220   24.8621 C   0  0  0  0  0  0  0  0  0130  0  0
  -21.4133  -29.3375   22.3735 N   0  0  0  0  0  0  0  0  0131  0  0
  -26.4706  -37.3372   23.9061 N   0  0  0  0  0  0  0  0  0132  0  0
  -24.6674  -31.0544   22.1178 N   0  0  0  0  0  0  0  0  0133  0  0
  -23.4259  -28.8150   23.2971 O   0  0  0  0  0  0  0  0  0134  0  0
  -28.3948  -26.7345   20.0089 O   0  0  0  0  0  0  0  0  0135  0  0
  -26.5870  -34.9065   22.4671 O   0  0  0  0  0  0  0  0  0136  0  0
  -23.5365  -32.1254   23.7833 O   0  0  0  0  0  0  0  0  0137  0  0
  -32.3837  -27.6407   18.7538 C   0  0  0  0  0  0  0  0  0  0  0  0
  -31.5460  -26.3943   18.7984 C   0  0  0  0  0  0  0  0  0  0  0  0
  -30.5529  -29.6915   22.3480 C   0  0  0  0  0  0  0  0  0  0  0  0
  -28.9690  -27.7890   22.4025 C   0  0  0  0  0  0  0  0  0  0  0  0
  -30.7840  -29.4806   20.8615 C   0  0  0  0  0  0  0  0  0  0  0  0
  -30.9217  -27.7298   19.0861 C   0  0  0  0  0  0  0  0  0  0  0  0
  -29.1654  -27.5329   20.9045 C   0  0  1  0  0  0  0  0  0  0  0  0
  -26.0783  -28.0059   17.7311 C   0  0  0  0  0  0  0  0  0  0  0  0
  -28.0666  -28.1528   20.0447 C   0  0  0  0  0  0  0  0  0  0  0  0
  -26.7947  -27.3035   20.0758 C   0  0  0  0  0  0  0  0  0  0  0  0
  -23.2503  -24.8823   18.9063 C   0  0  0  0  0  0  0  0  0  0  0  0
  -24.3620  -27.0744   19.3508 C   0  0  0  0  0  0  0  0  0  0  0  0
  -23.5102  -23.5091   18.3190 C   0  0  0  0  0  0  0  0  0  1  0  0
  -25.6624  -27.8793   19.2002 C   0  0  2  0  0  0  0  0  0  0  0  0
  -29.2654  -29.1718   22.8069 N   0  0  0  0  0  0  0  0  0  0  0  0
  -30.5434  -28.0351   20.5181 N   0  0  2  0  0  0  0  0  0  0  0  0
  -24.4969  -25.6930   18.8308 N   0  0  0  0  0  0  0  0  0  0  0  0
  -31.4485  -12.4701   19.0860 H   0  0  0  0  0  0  0  0  0  0  0  0
  -30.3970  -11.2460   19.6950 H   0  0  0  0  0  0  0  0  0  0  0  0
  -29.6870  -11.8204   17.4226 H   0  0  0  0  0  0  0  0  0  0  0  0
  -29.6375  -13.5326   17.8649 H   0  0  0  0  0  0  0  0  0  0  0  0
  -27.7830  -11.3650   18.7904 H   0  0  0  0  0  0  0  0  0  0  0  0
  -27.4028  -12.7801   17.8021 H   0  0  0  0  0  0  0  0  0  0  0  0
  -27.7353  -14.2503   19.6136 H   0  0  0  0  0  0  0  0  0  0  0  0
  -28.5890  -11.9550   21.3832 H   0  0  0  0  0  0  0  0  0  0  0  0
  -28.5005  -13.6134   21.8562 H   0  0  0  0  0  0  0  0  0  0  0  0
  -25.2399   -9.5495   22.4318 H   0  0  0  0  0  0  0  0  0  0  0  0
  -23.9663   -7.5070   22.7297 H   0  0  0  0  0  0  0  0  0  0  0  0
  -21.1515   -8.8641   19.9162 H   0  0  0  0  0  0  0  0  0  0  0  0
  -22.4016  -10.9115   19.6476 H   0  0  0  0  0  0  0  0  0  0  0  0
  -21.2319   -7.5552   23.9750 H   0  0  0  0  0  0  0  0  0  0  0  0
  -21.1589   -6.0228   25.8556 H   0  0  0  0  0  0  0  0  0  0  0  0
  -22.0396   -2.8212   23.2809 H   0  0  0  0  0  0  0  0  0  0  0  0
  -22.4401  -11.9703   22.4008 H   0  0  0  0  0  0  0  0  0  0  0  0
  -21.1493  -13.0679   22.2082 H   0  0  0  0  0  0  0  0  0  0  0  0
  -24.6538  -15.7807   20.5848 H   0  0  0  0  0  0  0  0  0  0  0  0
  -26.2762  -15.5453   20.1156 H   0  0  0  0  0  0  0  0  0  0  0  0
  -26.6778  -32.4663   23.1464 H   0  0  0  0  0  0  0  0  0  0  0  0
  -25.0747  -34.0282   25.0566 H   0  0  0  0  0  0  0  0  0  0  0  0
  -22.7881  -31.3489   21.4131 H   0  0  0  0  0  0  0  0  0  0  0  0
  -23.3854  -35.9823   23.3648 H   0  0  0  0  0  0  0  0  0  0  0  0
  -24.3696  -36.8624   22.2204 H   0  0  0  0  0  0  0  0  0  0  0  0
  -23.7669  -37.6632   23.6516 H   0  0  0  0  0  0  0  0  0  0  0  0
  -25.9445  -31.6237   20.5691 H   0  0  0  0  0  0  0  0  0  0  0  0
  -26.7436  -31.0079   22.0108 H   0  0  0  0  0  0  0  0  0  0  0  0
  -28.0090  -29.1452   21.2057 H   0  0  0  0  0  0  0  0  0  0  0  0
  -26.1369  -26.0560   19.0719 H   0  0  0  0  0  0  0  0  0  0  0  0
  -24.0652  -27.2961   19.0997 H   0  0  0  0  0  0  0  0  0  0  0  0
  -23.6156  -30.5365   19.3930 H   0  0  0  0  0  0  0  0  0  0  0  0
  -22.7355  -29.1425   19.9945 H   0  0  0  0  0  0  0  0  0  0  0  0
  -25.1353  -36.2335   25.0565 H   0  0  0  0  0  0  0  0  0  0  0  0
  -21.0070  -28.3206   24.0793 H   0  0  0  0  0  0  0  0  0  0  0  0
  -20.5555  -26.2518   23.3550 H   0  0  0  0  0  0  0  0  0  0  0  0
  -21.5974  -26.8362   22.0454 H   0  0  0  0  0  0  0  0  0  0  0  0
  -19.6810  -25.6422   21.1488 H   0  0  0  0  0  0  0  0  0  0  0  0
  -19.6406  -27.3343   20.7034 H   0  0  0  0  0  0  0  0  0  0  0  0
  -17.4282  -26.6888   21.4113 H   0  0  0  0  0  0  0  0  0  0  0  0
  -18.0803  -26.0130   22.9049 H   0  0  0  0  0  0  0  0  0  0  0  0
  -19.7265  -30.6774   24.2204 H   0  0  0  0  0  0  0  0  0  0  0  0
  -17.5064  -31.5856   24.4483 H   0  0  0  0  0  0  0  0  0  0  0  0
  -15.5878  -30.2839   23.7407 H   0  0  0  0  0  0  0  0  0  0  0  0
  -15.9120  -28.0941   22.7766 H   0  0  0  0  0  0  0  0  0  0  0  0
  -24.5787  -30.7757   25.6817 H   0  0  0  0  0  0  0  0  0  0  0  0
  -25.0041  -32.2289   26.5536 H   0  0  0  0  0  0  0  0  0  0  0  0
  -25.8166  -30.7245   26.9138 H   0  0  0  0  0  0  0  0  0  0  0  0
  -26.2892  -29.7335   24.0803 H   0  0  0  0  0  0  0  0  0  0  0  0
  -27.4336  -29.7484   25.4006 H   0  0  0  0  0  0  0  0  0  0  0  0
  -27.8466  -30.4994   23.8779 H   0  0  0  0  0  0  0  0  0  0  0  0
  -27.2251  -33.3632   26.1242 H   0  0  0  0  0  0  0  0  0  0  0  0
  -28.3902  -32.6065   25.0645 H   0  0  0  0  0  0  0  0  0  0  0  0
  -27.9772  -31.8555   26.5872 H   0  0  0  0  0  0  0  0  0  0  0  0
  -28.2744  -38.0016   24.6863 H   0  0  0  0  0  0  0  0  0  0  0  0
  -28.0396  -36.2711   24.7461 H   0  0  0  0  0  0  0  0  0  0  0  0
  -27.1773  -37.3087   25.8564 H   0  0  0  0  0  0  0  0  0  0  0  0
  -20.9627  -29.9365   21.7352 H   0  0  0  0  0  0  0  0  0  0  0  0
  -26.0447  -38.2561   24.0273 H   0  0  0  0  0  0  0  0  0  0  0  0
  -32.7428  -28.0107   17.8162 H   0  0  0  0  0  0  0  0  0  0  0  0
  -33.2881  -27.9618   19.2269 H   0  0  0  0  0  0  0  0  0  0  0  0
  -31.6823  -25.6860   19.5888 H   0  0  0  0  0  0  0  0  0  0  0  0
  -31.3422  -25.5948   18.1171 H   0  0  0  0  0  0  0  0  0  0  0  0
  -30.5892  -30.7411   22.5529 H   0  0  0  0  0  0  0  0  0  0  0  0
  -31.3180  -29.1552   22.8695 H   0  0  0  0  0  0  0  0  0  0  0  0
  -29.6153  -27.1317   22.9457 H   0  0  0  0  0  0  0  0  0  0  0  0
  -27.9358  -27.6134   22.6182 H   0  0  0  0  0  0  0  0  0  0  0  0
  -31.7920  -29.7427   20.6162 H   0  0  0  0  0  0  0  0  0  0  0  0
  -30.1102  -30.0972   20.3041 H   0  0  0  0  0  0  0  0  0  0  0  0
  -30.0886  -28.2759   18.6954 H   0  0  0  0  0  0  0  0  0  0  0  0
  -29.0949  -26.4815   20.7189 H   0  0  0  0  0  0  0  0  0  0  0  0
  -26.9848  -28.5705   17.6644 H   0  0  0  0  0  0  0  0  0  0  0  0
  -25.3062  -28.5049   17.1836 H   0  0  0  0  0  0  0  0  0  0  0  0
  -26.2344  -27.0307   17.3193 H   0  0  0  0  0  0  0  0  0  0  0  0
  -28.4129  -28.2258   19.0349 H   0  0  0  0  0  0  0  0  0  0  0  0
  -27.8366  -29.1219   20.4356 H   0  0  0  0  0  0  0  0  0  0  0  0
  -26.4481  -27.2458   21.0865 H   0  0  0  0  0  0  0  0  0  0  0  0
  -27.0441  -26.3400   19.6828 H   0  0  0  0  0  0  0  0  0  0  0  0
  -22.9497  -24.7830   19.9284 H   0  0  0  0  0  0  0  0  0  0  0  0
  -22.4729  -25.3674   18.3539 H   0  0  0  0  0  0  0  0  0  0  0  0
  -23.5840  -27.5719   18.8104 H   0  0  0  0  0  0  0  0  0  0  0  0
  -24.1323  -27.0124   20.3940 H   0  0  0  0  0  0  0  0  0  0  0  0
  -23.3267  -23.3387   17.2787 H   0  0  0  0  0  0  0  0  0  0  0  0
  -23.1571  -22.5271   18.5556 H   0  0  0  0  0  0  0  0  0  0  0  0
  -25.4689  -28.8694   19.5569 H   0  0  0  0  0  0  0  0  0  0  0  0
  -31.1758  -27.4929   21.1067 H   0  0  0  0  0  0  0  0  0  0  0  0
  -24.7837  -25.7467   17.8534 H   0  0  0  0  0  0  0  0  0  0  0  0
  -25.1841  -25.2255   19.4220 H   0  0  0  0  0  0  0  0  0  0  0  0
  1 25  1  0
  1 30  2  0
  1 85  1  0
  2  3  1  0
  2 25  1  0
  2 88  1  0
  2 89  1  0
  3  4  1  0
  3 90  1  0
  3 91  1  0
  4  5  1  0
  4 92  1  0
  4 93  1  0
  5  6  1  0
  5 26  1  0
  5 94  1  6
  6 25  1  0
  6 95  1  0
  6 96  1  0
  7  8  2  0
  7 26  1  0
  7 29  1  0
  8  9  1  0
  8 22  1  0
  9 10  1  0
  9 27  2  0
 10 11  2  0
 10 15  1  0
 11 12  1  0
 11 97  1  0
 12 13  2  0
 12 98  1  0
 13 14  1  0
 13 31  1  0
 14 15  2  0
 14 99  1  0
 15100  1  0
 16 17  2  0
 16 21  1  0
 16 31  1  0
 17 18  1  0
 17101  1  0
 18 19  2  0
 18102  1  0
 19 20  1  0
 19 24  1  0
 20 21  2  0
 20103  1  0
 21 23  1  0
 22 28  1  0
 22 32  2  0
 26 27  1  0
 28104  1  0
 28105  1  0
 29106  1  0
 29107  1  0
 33 34  1  0
 33 66  1  0
 33 70  2  0
 34 36  1  0
 34 59  1  0
 34108  1  6
 35 44  2  0
 35 45  1  0
 35 68  1  0
 36 56  1  0
 36109  1  0
 37 39  1  0
 37 47  1  0
 37 66  1  0
 37110  1  6
 38 43  2  0
 38 46  1  0
 38 47  1  0
 39 64  1  0
 39 67  2  0
 40 52  1  0
 40 53  2  0
 40 58  1  0
 41111  1  0
 41112  1  0
 41113  1  0
 42 43  1  0
 42 66  1  0
 42114  1  0
 42115  1  0
 43 44  1  0
 44116  1  0
 45 46  2  0
 45117  1  0
 46118  1  0
 47119  1  0
 47120  1  0
 48 41  1  0
 48 56  1  0
 48 65  1  0
 48121  1  1
 49 50  1  0
 49 53  1  0
 49 64  1  0
 49122  1  1
 50 51  1  0
 50123  1  0
 50124  1  0
 51 52  1  0
 51125  1  0
 51126  1  0
 52127  1  0
 52128  1  0
 53 54  1  0
 54 55  2  0
 54129  1  0
 55 57  1  0
 55130  1  0
 56 69  2  0
 57 58  2  0
 57131  1  0
 58132  1  0
 59 60  1  0
 59 61  1  0
 59 62  1  0
 60133  1  0
 60134  1  0
 60135  1  0
 61136  1  0
 61137  1  0
 61138  1  0
 62139  1  0
 62140  1  0
 62141  1  0
 63 65  1  0
 63142  1  0
 63143  1  0
 63144  1  0
 64145  1  0
 65146  1  0
 68 83  1  0
 71 72  1  0
 71147  1  0
 71148  1  0
 72 76  1  0
 72149  1  0
 72150  1  0
 73 75  1  0
 73 85  1  0
 73151  1  0
 73152  1  0
 74 77  1  0
 74 85  1  0
 74153  1  0
 74154  1  0
 75155  1  0
 75156  1  0
 76 71  1  0
 76 86  1  0
 76157  1  0
 77 79  1  0
 77 86  1  0
 77158  1  1
 78159  1  0
 78160  1  0
 78161  1  0
 79 80  1  0
 79162  1  0
 79163  1  0
 80 84  1  0
 80164  1  0
 80165  1  0
 81 83  1  0
 81 87  1  0
 81166  1  0
 81167  1  0
 82 84  1  0
 82 87  1  0
 82168  1  0
 82169  1  0
 83170  1  0
 83171  1  0
 84 78  1  0
 84172  1  1
 86 75  1  0
 86173  1  1
 87174  1  0
 87175  1  0
M  CHG  2  86   1  87   1
M  ISO  4   1 100  68 101  83 101  85 100
M  END
$$$$
17
     RDKit          3D

167174  0  0  0  0  0  0  0  0999 V2000
  -30.7652  -14.3608   20.6636 C   0  0  0  0  0  0  0  0  0100  0  0
  -30.4392  -12.2669   19.3775 C   0  0  0  0  0  0  0  0  0101  0  0
  -29.4791  -12.5281   18.1977 C   0  0  0  0  0  0  0  0  0102  0  0
  -27.9985  -12.3963   18.6038 C   0  0  0  0  0  0  0  0  0103  0  0
  -27.6639  -13.2170   19.8820 C   0  0  2  0  0  0  0  0  0104  0  0
  -28.6795  -12.9602   21.0279 C   0  0  0  0  0  0  0  0  0105  0  0
  -25.2633  -13.8245   20.5754 C   0  0  0  0  0  0  0  0  0106  0  0
  -24.1645  -13.0409   20.9408 C   0  0  0  0  0  0  0  0  0107  0  0
  -24.6400  -11.7009   20.8697 C   0  0  0  0  0  0  0  0  0108  0  0
  -23.9005  -10.4085   21.0420 C   0  0  0  0  0  0  0  0  0109  0  0
  -24.3588   -9.4123   21.9123 C   0  0  0  0  0  0  0  0  0110  0  0
  -23.6296   -8.2350   22.0803 C   0  0  0  0  0  0  0  0  0111  0  0
  -22.4385   -8.0419   21.3657 C   0  0  0  0  0  0  0  0  0112  0  0
  -22.0103   -9.0167   20.4678 C   0  0  0  0  0  0  0  0  0113  0  0
  -22.7317  -10.1925   20.3102 C   0  0  0  0  0  0  0  0  0114  0  0
  -21.6857   -6.0709   22.5391 C   0  0  0  0  0  0  0  0  0115  0  0
  -21.4064   -6.5490   23.8264 C   0  0  0  0  0  0  0  0  0116  0  0
  -21.3635   -5.6677   24.9085 C   0  0  0  0  0  0  0  0  0117  0  0
  -21.5973   -4.3067   24.7088 C   0  0  0  0  0  0  0  0  0118  0  0
  -21.8700   -3.8284   23.4282 C   0  0  0  0  0  0  0  0  0119  0  0
  -21.9144   -4.7056   22.3460 C   0  0  0  0  0  0  0  0  0120  0  0
  -22.8194  -13.5263   21.1763 C   0  0  0  0  0  0  0  0  0121  0  0
  -22.1559   -4.2206   21.1063 F   0  0  0  0  0  0  0  0  0122  0  0
  -21.5628   -3.4510   25.7555 F   0  0  0  0  0  0  0  0  0123  0  0
  -30.0261  -13.1803   20.4553 N   0  0  0  0  0  0  0  0  0124  0  0
  -26.2911  -12.9356   20.3443 N   0  0  0  0  0  0  0  0  0125  0  0
  -25.9236  -11.6675   20.5847 N   0  0  0  0  0  0  0  0  0126  0  0
  -22.0708  -12.7905   22.0005 N   0  0  0  0  0  0  0  0  0127  0  0
  -25.4117  -15.1773   20.4097 N   0  0  0  0  0  0  0  0  0128  0  0
  -31.7916  -14.6724   20.0536 O   0  0  0  0  0  0  0  0  0129  0  0
  -21.6670   -6.9022   21.4423 O   0  0  0  0  0  0  0  0  0130  0  0
  -22.3946  -14.5564   20.6568 O   0  0  0  0  0  0  0  0  0131  0  0
  -24.6048  -31.8614   23.2223 C   0  0  0  0  0  0  0  0  0100  0  0
  -25.8822  -32.4841   23.8616 C   0  0  1  0  0  0  0  0  0101  0  0
  -27.2536  -27.5042   20.1156 C   0  0  0  0  0  0  0  0  0102  0  0
  -25.5726  -33.8762   24.2210 N   0  0  0  0  0  0  0  0  0103  0  0
  -23.4066  -30.4859   21.5461 C   0  0  2  0  0  0  0  0  0104  0  0
  -24.8467  -28.9636   20.1247 C   0  0  0  0  0  0  0  0  0105  0  0
  -22.7412  -29.4652   22.5052 C   0  0  0  0  0  0  0  0  0106  0  0
  -18.0167  -28.1302   22.8626 C   0  0  0  0  0  0  0  0  0107  0  0
  -24.1342  -36.7390   23.2568 C   0  0  0  0  0  0  0  0  0108  0  0
  -25.9141  -30.8882   21.3456 C   0  0  0  0  0  0  0  0  0109  0  0
  -25.9930  -29.5029   20.7208 C   0  0  0  0  0  0  0  0  0110  0  0
  -27.1758  -28.7612   20.7331 C   0  0  0  0  0  0  0  0  0111  0  0
  -26.1032  -26.9836   19.5230 C   0  0  0  0  0  0  0  0  0112  0  0
  -24.9097  -27.7011   19.5331 C   0  0  0  0  0  0  0  0  0113  0  0
  -23.5715  -29.7899   20.1582 C   0  0  0  0  0  0  0  0  0114  0  0
  -25.3990  -36.3212   24.0232 C   0  0  1  0  0  0  0  0  0115  0  0
  -20.5793  -28.3813   23.1004 C   0  0  2  0  0  0  0  0  0116  0  0
  -20.6548  -26.9392   22.5411 C   0  0  0  0  0  0  0  0  0117  0  0
  -19.5615  -26.6407   21.5143 C   0  0  0  0  0  0  0  0  0118  0  0
  -18.1797  -26.7818   22.1673 C   0  0  0  0  0  0  0  0  0119  0  0
  -19.1385  -28.8769   23.2988 C   0  0  0  0  0  0  0  0  0120  0  0
  -18.9183  -30.1286   23.8878 C   0  0  0  0  0  0  0  0  0121  0  0
  -17.6396  -30.6493   24.0352 C   0  0  0  0  0  0  0  0  0122  0  0
  -25.9153  -34.9582   23.4993 C   0  0  0  0  0  0  0  0  0123  0  0
  -16.5415  -29.9068   23.6254 C   0  0  0  0  0  0  0  0  0124  0  0
  -16.7331  -28.6521   23.0586 C   0  0  0  0  0  0  0  0  0125  0  0
  -26.4583  -31.6439   25.0683 C   0  0  0  0  0  0  0  0  0126  0  0
  -25.3807  -31.3179   26.1374 C   0  0  0  0  0  0  0  0  0127  0  0
  -27.0530  -30.3024   24.5680 C   0  0  0  0  0  0  0  0  0128  0  0
  -27.6014  -32.4281   25.7651 C   0  0  0  0  0  0  0  0  0129  0  0
  -27.5629  -37.2220   24.8621 C   0  0  0  0  0  0  0  0  0130  0  0
  -21.4133  -29.3375   22.3735 N   0  0  0  0  0  0  0  0  0131  0  0
  -26.4706  -37.3372   23.9061 N   0  0  0  0  0  0  0  0  0132  0  0
  -24.6674  -31.0544   22.1178 N   0  0  0  0  0  0  0  0  0133  0  0
  -23.4259  -28.8150   23.2971 O   0  0  0  0  0  0  0  0  0134  0  0
  -28.3948  -26.7345   20.0089 O   0  0  0  0  0  0  0  0  0135  0  0
  -26.5870  -34.9065   22.4671 O   0  0  0  0  0  0  0  0  0136  0  0
  -23.5365  -32.1254   23.7833 O   0  0  0  0  0  0  0  0  0137  0  0
  -24.7161  -21.0720   25.5396 C   0  0  0  0  0  0  0  0  0  0  0  0
  -27.3164  -22.1214   28.2402 C   0  0  0  0  0  0  0  0  0  0  0  0
  -32.1169  -23.1201   23.0953 C   0  0  0  0  0  0  0  0  0  0  0  0
  -32.1004  -20.8290   22.1121 C   0  0  0  0  0  0  0  0  0  0  0  0
  -25.6691  -20.9879   26.7229 C   0  0  0  0  0  0  0  0  0  0  0  0
  -30.2580  -22.4649   21.5543 C   0  0  0  0  0  0  0  0  0  0  0  0
  -28.5296  -21.7380   25.4593 C   0  0  0  0  0  0  0  0  0  0  0  0
  -30.4410  -21.3883   23.8898 C   0  0  0  0  0  0  0  0  0  0  0  0
  -26.4934  -22.2701   26.9522 C   0  0  2  0  0  0  0  0  0  0  0  0
  -27.3674  -22.6864   25.7435 C   0  0  2  0  0  0  0  0  0  1  0  0
  -31.2020  -21.9538   22.6687 C   0  0  0  0  0  0  0  0  0  0  0  0
  -29.3391  -21.4619   21.0641 N   0  0  0  0  0  0  0  0  0  0  0  0
  -29.2542  -22.2088   24.2479 N   0  0  0  0  0  0  0  0  0  0  0  0
  -31.4485  -12.4701   19.0860 H   0  0  0  0  0  0  0  0  0  0  0  0
  -30.3970  -11.2460   19.6950 H   0  0  0  0  0  0  0  0  0  0  0  0
  -29.6870  -11.8204   17.4226 H   0  0  0  0  0  0  0  0  0  0  0  0
  -29.6375  -13.5326   17.8649 H   0  0  0  0  0  0  0  0  0  0  0  0
  -27.7830  -11.3650   18.7904 H   0  0  0  0  0  0  0  0  0  0  0  0
  -27.4028  -12.7801   17.8021 H   0  0  0  0  0  0  0  0  0  0  0  0
  -27.7353  -14.2503   19.6136 H   0  0  0  0  0  0  0  0  0  0  0  0
  -28.5890  -11.9550   21.3832 H   0  0  0  0  0  0  0  0  0  0  0  0
  -28.5005  -13.6134   21.8562 H   0  0  0  0  0  0  0  0  0  0  0  0
  -25.2399   -9.5495   22.4318 H   0  0  0  0  0  0  0  0  0  0  0  0
  -23.9663   -7.5070   22.7297 H   0  0  0  0  0  0  0  0  0  0  0  0
  -21.1515   -8.8641   19.9162 H   0  0  0  0  0  0  0  0  0  0  0  0
  -22.4016  -10.9115   19.6476 H   0  0  0  0  0  0  0  0  0  0  0  0
  -21.2319   -7.5552   23.9750 H   0  0  0  0  0  0  0  0  0  0  0  0
  -21.1589   -6.0228   25.8556 H   0  0  0  0  0  0  0  0  0  0  0  0
  -22.0396   -2.8212   23.2809 H   0  0  0  0  0  0  0  0  0  0  0  0
  -22.4401  -11.9703   22.4008 H   0  0  0  0  0  0  0  0  0  0  0  0
  -21.1493  -13.0679   22.2082 H   0  0  0  0  0  0  0  0  0  0  0  0
  -24.6538  -15.7807   20.5848 H   0  0  0  0  0  0  0  0  0  0  0  0
  -26.2762  -15.5453   20.1156 H   0  0  0  0  0  0  0  0  0  0  0  0
  -26.6778  -32.4663   23.1464 H   0  0  0  0  0  0  0  0  0  0  0  0
  -25.0747  -34.0282   25.0566 H   0  0  0  0  0  0  0  0  0  0  0  0
  -22.7881  -31.3489   21.4131 H   0  0  0  0  0  0  0  0  0  0  0  0
  -23.3854  -35.9823   23.3648 H   0  0  0  0  0  0  0  0  0  0  0  0
  -24.3696  -36.8624   22.2204 H   0  0  0  0  0  0  0  0  0  0  0  0
  -23.7669  -37.6632   23.6516 H   0  0  0  0  0  0  0  0  0  0  0  0
  -25.9445  -31.6237   20.5691 H   0  0  0  0  0  0  0  0  0  0  0  0
  -26.7436  -31.0079   22.0108 H   0  0  0  0  0  0  0  0  0  0  0  0
  -28.0090  -29.1452   21.2057 H   0  0  0  0  0  0  0  0  0  0  0  0
  -26.1369  -26.0560   19.0719 H   0  0  0  0  0  0  0  0  0  0  0  0
  -24.0652  -27.2961   19.0997 H   0  0  0  0  0  0  0  0  0  0  0  0
  -23.6156  -30.5365   19.3930 H   0  0  0  0  0  0  0  0  0  0  0  0
  -22.7355  -29.1425   19.9945 H   0  0  0  0  0  0  0  0  0  0  0  0
  -25.1353  -36.2335   25.0565 H   0  0  0  0  0  0  0  0  0  0  0  0
  -21.0070  -28.3206   24.0793 H   0  0  0  0  0  0  0  0  0  0  0  0
  -20.5555  -26.2518   23.3550 H   0  0  0  0  0  0  0  0  0  0  0  0
  -21.5974  -26.8362   22.0454 H   0  0  0  0  0  0  0  0  0  0  0  0
  -19.6810  -25.6422   21.1488 H   0  0  0  0  0  0  0  0  0  0  0  0
  -19.6406  -27.3343   20.7034 H   0  0  0  0  0  0  0  0  0  0  0  0
  -17.4282  -26.6888   21.4113 H   0  0  0  0  0  0  0  0  0  0  0  0
  -18.0803  -26.0130   22.9049 H   0  0  0  0  0  0  0  0  0  0  0  0
  -19.7265  -30.6774   24.2204 H   0  0  0  0  0  0  0  0  0  0  0  0
  -17.5064  -31.5856   24.4483 H   0  0  0  0  0  0  0  0  0  0  0  0
  -15.5878  -30.2839   23.7407 H   0  0  0  0  0  0  0  0  0  0  0  0
  -15.9120  -28.0941   22.7766 H   0  0  0  0  0  0  0  0  0  0  0  0
  -24.5787  -30.7757   25.6817 H   0  0  0  0  0  0  0  0  0  0  0  0
  -25.0041  -32.2289   26.5536 H   0  0  0  0  0  0  0  0  0  0  0  0
  -25.8166  -30.7245   26.9138 H   0  0  0  0  0  0  0  0  0  0  0  0
  -26.2892  -29.7335   24.0803 H   0  0  0  0  0  0  0  0  0  0  0  0
  -27.4336  -29.7484   25.4006 H   0  0  0  0  0  0  0  0  0  0  0  0
  -27.8466  -30.4994   23.8779 H   0  0  0  0  0  0  0  0  0  0  0  0
  -27.2251  -33.3632   26.1242 H   0  0  0  0  0  0  0  0  0  0  0  0
  -28.3902  -32.6065   25.0645 H   0  0  0  0  0  0  0  0  0  0  0  0
  -27.9772  -31.8555   26.5872 H   0  0  0  0  0  0  0  0  0  0  0  0
  -28.2744  -38.0016   24.6863 H   0  0  0  0  0  0  0  0  0  0  0  0
  -28.0396  -36.2711   24.7461 H   0  0  0  0  0  0  0  0  0  0  0  0
  -27.1773  -37.3087   25.8564 H   0  0  0  0  0  0  0  0  0  0  0  0
  -20.9627  -29.9365   21.7352 H   0  0  0  0  0  0  0  0  0  0  0  0
  -26.0447  -38.2561   24.0273 H   0  0  0  0  0  0  0  0  0  0  0  0
  -24.1824  -20.1494   25.4452 H   0  0  0  0  0  0  0  0  0  0  0  0
  -25.2737  -21.2546   24.6448 H   0  0  0  0  0  0  0  0  0  0  0  0
  -24.0221  -21.8711   25.6967 H   0  0  0  0  0  0  0  0  0  0  0  0
  -26.6716  -21.8338   29.0442 H   0  0  0  0  0  0  0  0  0  0  0  0
  -27.7840  -23.0549   28.4744 H   0  0  0  0  0  0  0  0  0  0  0  0
  -28.0669  -21.3719   28.0994 H   0  0  0  0  0  0  0  0  0  0  0  0
  -32.6349  -23.4986   22.2390 H   0  0  0  0  0  0  0  0  0  0  0  0
  -32.8266  -22.7714   23.8162 H   0  0  0  0  0  0  0  0  0  0  0  0
  -31.5238  -23.8993   23.5266 H   0  0  0  0  0  0  0  0  0  0  0  0
  -32.6415  -21.1918   21.2633 H   0  0  0  0  0  0  0  0  0  0  0  0
  -31.4922  -19.9988   21.8192 H   0  0  0  0  0  0  0  0  0  0  0  0
  -32.7903  -20.5166   22.8680 H   0  0  0  0  0  0  0  0  0  0  0  0
  -26.3467  -20.1774   26.5530 H   0  0  0  0  0  0  0  0  0  0  0  0
  -25.0682  -20.8441   27.5965 H   0  0  0  0  0  0  0  0  0  0  0  0
  -30.8561  -22.8042   20.7345 H   0  0  0  0  0  0  0  0  0  0  0  0
  -29.6668  -23.2481   21.9808 H   0  0  0  0  0  0  0  0  0  0  0  0
  -28.1538  -20.7504   25.2913 H   0  0  0  0  0  0  0  0  0  0  0  0
  -29.1963  -21.7225   26.2960 H   0  0  0  0  0  0  0  0  0  0  0  0
  -31.1063  -21.3625   24.7274 H   0  0  0  0  0  0  0  0  0  0  0  0
  -30.0950  -20.4088   23.6335 H   0  0  0  0  0  0  0  0  0  0  0  0
  -25.8008  -23.0781   27.0631 H   0  0  0  0  0  0  0  0  0  0  0  0
  -26.6566  -23.3509   26.1887 H   0  0  0  0  0  0  0  0  0  0  0  0
  -28.4528  -21.7657   20.7618 H   0  0  0  0  0  0  0  0  0  0  0  0
  -29.5653  -23.1660   24.4132 H   0  0  0  0  0  0  0  0  0  0  0  0
  -28.6007  -22.1344   23.4683 H   0  0  0  0  0  0  0  0  0  0  0  0
  1 25  1  0
  1 30  2  0
  1 82  1  0
  2  3  1  0
  2 25  1  0
  2 84  1  0
  2 85  1  0
  3  4  1  0
  3 86  1  0
  3 87  1  0
  4  5  1  0
  4 88  1  0
  4 89  1  0
  5  6  1  0
  5 26  1  0
  5 90  1  6
  6 25  1  0
  6 91  1  0
  6 92  1  0
  7  8  2  0
  7 26  1  0
  7 29  1  0
  8  9  1  0
  8 22  1  0
  9 10  1  0
  9 27  2  0
 10 11  2  0
 10 15  1  0
 11 12  1  0
 11 93  1  0
 12 13  2  0
 12 94  1  0
 13 14  1  0
 13 31  1  0
 14 15  2  0
 14 95  1  0
 15 96  1  0
 16 17  2  0
 16 21  1  0
 16 31  1  0
 17 18  1  0
 17 97  1  0
 18 19  2  0
 18 98  1  0
 19 20  1  0
 19 24  1  0
 20 21  2  0
 20 99  1  0
 21 23  1  0
 22 28  1  0
 22 32  2  0
 26 27  1  0
 28100  1  0
 28101  1  0
 29102  1  0
 29103  1  0
 33 34  1  0
 33 66  1  0
 33 70  2  0
 34 36  1  0
 34 59  1  0
 34104  1  6
 35 44  2  0
 35 45  1  0
 35 68  1  0
 36 56  1  0
 36105  1  0
 37 39  1  0
 37 47  1  0
 37 66  1  0
 37106  1  6
 38 43  2  0
 38 46  1  0
 38 47  1  0
 39 64  1  0
 39 67  2  0
 40 52  1  0
 40 53  2  0
 40 58  1  0
 41107  1  0
 41108  1  0
 41109  1  0
 42 43  1  0
 42 66  1  0
 42110  1  0
 42111  1  0
 43 44  1  0
 44112  1  0
 45 46  2  0
 45113  1  0
 46114  1  0
 47115  1  0
 47116  1  0
 48 41  1  0
 48 56  1  0
 48 65  1  0
 48117  1  1
 49 50  1  0
 49 53  1  0
 49 64  1  0
 49118  1  1
 50 51  1  0
 50119  1  0
 50120  1  0
 51 52  1  0
 51121  1  0
 51122  1  0
 52123  1  0
 52124  1  0
 53 54  1  0
 54 55  2  0
 54125  1  0
 55 57  1  0
 55126  1  0
 56 69  2  0
 57 58  2  0
 57127  1  0
 58128  1  0
 59 60  1  0
 59 61  1  0
 59 62  1  0
 60129  1  0
 60130  1  0
 60131  1  0
 61132  1  0
 61133  1  0
 61134  1  0
 62135  1  0
 62136  1  0
 62137  1  0
 63 65  1  0
 63138  1  0
 63139  1  0
 63140  1  0
 64141  1  0
 65142  1  0
 68 80  1  0
 71 75  1  0
 71143  1  0
 71144  1  0
 71145  1  0
 72146  1  0
 72147  1  0
 72148  1  0
 73149  1  0
 73150  1  0
 73151  1  0
 74 81  1  0
 74152  1  0
 74153  1  0
 74154  1  0
 75 79  1  0
 75155  1  0
 75156  1  0
 76 81  1  0
 76 82  1  0
 76157  1  0
 76158  1  0
 77 83  1  0
 77159  1  0
 77160  1  0
 78 81  1  0
 78 83  1  0
 78161  1  0
 78162  1  0
 79 72  1  0
 79 80  1  0
 79163  1  1
 80 77  1  0
 80164  1  1
 81 73  1  0
 82165  1  0
 83166  1  0
 83167  1  0
M  CHG  1  83   1
M  ISO  4   1 100  68 101  80 101  82 100
M  END
$$$$
18
     RDKit          3D

164172  0  0  0  0  0  0  0  0999 V2000
  -30.7652  -14.3608   20.6636 C   0  0  0  0  0  0  0  0  0100  0  0
  -30.4392  -12.2669   19.3775 C   0  0  0  0  0  0  0  0  0101  0  0
  -29.4791  -12.5281   18.1977 C   0  0  0  0  0  0  0  0  0102  0  0
  -27.9985  -12.3963   18.6038 C   0  0  0  0  0  0  0  0  0103  0  0
  -27.6639  -13.2170   19.8820 C   0  0  2  0  0  0  0  0  0104  0  0
  -28.6795  -12.9602   21.0279 C   0  0  0  0  0  0  0  0  0105  0  0
  -25.2633  -13.8245   20.5754 C   0  0  0  0  0  0  0  0  0106  0  0
  -24.1645  -13.0409   20.9408 C   0  0  0  0  0  0  0  0  0107  0  0
  -24.6400  -11.7009   20.8697 C   0  0  0  0  0  0  0  0  0108  0  0
  -23.9005  -10.4085   21.0420 C   0  0  0  0  0  0  0  0  0109  0  0
  -24.3588   -9.4123   21.9123 C   0  0  0  0  0  0  0  0  0110  0  0
  -23.6296   -8.2350   22.0803 C   0  0  0  0  0  0  0  0  0111  0  0
  -22.4385   -8.0419   21.3657 C   0  0  0  0  0  0  0  0  0112  0  0
  -22.0103   -9.0167   20.4678 C   0  0  0  0  0  0  0  0  0113  0  0
  -22.7317  -10.1925   20.3102 C   0  0  0  0  0  0  0  0  0114  0  0
  -21.6857   -6.0709   22.5391 C   0  0  0  0  0  0  0  0  0115  0  0
  -21.4064   -6.5490   23.8264 C   0  0  0  0  0  0  0  0  0116  0  0
  -21.3635   -5.6677   24.9085 C   0  0  0  0  0  0  0  0  0117  0  0
  -21.5973   -4.3067   24.7088 C   0  0  0  0  0  0  0  0  0118  0  0
  -21.8700   -3.8284   23.4282 C   0  0  0  0  0  0  0  0  0119  0  0
  -21.9144   -4.7056   22.3460 C   0  0  0  0  0  0  0  0  0120  0  0
  -22.8194  -13.5263   21.1763 C   0  0  0  0  0  0  0  0  0121  0  0
  -22.1559   -4.2206   21.1063 F   0  0  0  0  0  0  0  0  0122  0  0
  -21.5628   -3.4510   25.7555 F   0  0  0  0  0  0  0  0  0123  0  0
  -30.0261  -13.1803   20.4553 N   0  0  0  0  0  0  0  0  0124  0  0
  -26.2911  -12.9356   20.3443 N   0  0  0  0  0  0  0  0  0125  0  0
  -25.9236  -11.6675   20.5847 N   0  0  0  0  0  0  0  0  0126  0  0
  -22.0708  -12.7905   22.0005 N   0  0  0  0  0  0  0  0  0127  0  0
  -25.4117  -15.1773   20.4097 N   0  0  0  0  0  0  0  0  0128  0  0
  -31.7916  -14.6724   20.0536 O   0  0  0  0  0  0  0  0  0129  0  0
  -21.6670   -6.9022   21.4423 O   0  0  0  0  0  0  0  0  0130  0  0
  -22.3946  -14.5564   20.6568 O   0  0  0  0  0  0  0  0  0131  0  0
  -24.6048  -31.8614   23.2223 C   0  0  0  0  0  0  0  0  0100  0  0
  -25.8822  -32.4841   23.8616 C   0  0  1  0  0  0  0  0  0101  0  0
  -27.2536  -27.5042   20.1156 C   0  0  0  0  0  0  0  0  0102  0  0
  -25.5726  -33.8762   24.2210 N   0  0  0  0  0  0  0  0  0103  0  0
  -23.4066  -30.4859   21.5461 C   0  0  2  0  0  0  0  0  0104  0  0
  -24.8467  -28.9636   20.1247 C   0  0  0  0  0  0  0  0  0105  0  0
  -22.7412  -29.4652   22.5052 C   0  0  0  0  0  0  0  0  0106  0  0
  -18.0167  -28.1302   22.8626 C   0  0  0  0  0  0  0  0  0107  0  0
  -24.1342  -36.7390   23.2568 C   0  0  0  0  0  0  0  0  0108  0  0
  -25.9141  -30.8882   21.3456 C   0  0  0  0  0  0  0  0  0109  0  0
  -25.9930  -29.5029   20.7208 C   0  0  0  0  0  0  0  0  0110  0  0
  -27.1758  -28.7612   20.7331 C   0  0  0  0  0  0  0  0  0111  0  0
  -26.1032  -26.9836   19.5230 C   0  0  0  0  0  0  0  0  0112  0  0
  -24.9097  -27.7011   19.5331 C   0  0  0  0  0  0  0  0  0113  0  0
  -23.5715  -29.7899   20.1582 C   0  0  0  0  0  0  0  0  0114  0  0
  -25.3990  -36.3212   24.0232 C   0  0  1  0  0  0  0  0  0115  0  0
  -20.5793  -28.3813   23.1004 C   0  0  2  0  0  0  0  0  0116  0  0
  -20.6548  -26.9392   22.5411 C   0  0  0  0  0  0  0  0  0117  0  0
  -19.5615  -26.6407   21.5143 C   0  0  0  0  0  0  0  0  0118  0  0
  -18.1797  -26.7818   22.1673 C   0  0  0  0  0  0  0  0  0119  0  0
  -19.1385  -28.8769   23.2988 C   0  0  0  0  0  0  0  0  0120  0  0
  -18.9183  -30.1286   23.8878 C   0  0  0  0  0  0  0  0  0121  0  0
  -17.6396  -30.6493   24.0352 C   0  0  0  0  0  0  0  0  0122  0  0
  -25.9153  -34.9582   23.4993 C   0  0  0  0  0  0  0  0  0123  0  0
  -16.5415  -29.9068   23.6254 C   0  0  0  0  0  0  0  0  0124  0  0
  -16.7331  -28.6521   23.0586 C   0  0  0  0  0  0  0  0  0125  0  0
  -26.4583  -31.6439   25.0683 C   0  0  0  0  0  0  0  0  0126  0  0
  -25.3807  -31.3179   26.1374 C   0  0  0  0  0  0  0  0  0127  0  0
  -27.0530  -30.3024   24.5680 C   0  0  0  0  0  0  0  0  0128  0  0
  -27.6014  -32.4281   25.7651 C   0  0  0  0  0  0  0  0  0129  0  0
  -27.5629  -37.2220   24.8621 C   0  0  0  0  0  0  0  0  0130  0  0
  -21.4133  -29.3375   22.3735 N   0  0  0  0  0  0  0  0  0131  0  0
  -26.4706  -37.3372   23.9061 N   0  0  0  0  0  0  0  0  0132  0  0
  -24.6674  -31.0544   22.1178 N   0  0  0  0  0  0  0  0  0133  0  0
  -23.4259  -28.8150   23.2971 O   0  0  0  0  0  0  0  0  0134  0  0
  -28.3948  -26.7345   20.0089 O   0  0  0  0  0  0  0  0  0135  0  0
  -26.5870  -34.9065   22.4671 O   0  0  0  0  0  0  0  0  0136  0  0
  -23.5365  -32.1254   23.7833 O   0  0  0  0  0  0  0  0  0137  0  0
  -26.3659  -23.4379   16.6838 C   0  0  0  0  0  0  0  0  0  0  0  0
  -25.2578  -22.3665   16.7343 C   0  0  0  0  0  0  0  0  0  0  0  0
  -27.5220  -23.1779   18.8862 C   0  0  0  0  0  0  0  0  0  0  0  0
  -25.8734  -21.1824   18.8160 C   0  0  0  0  0  0  0  0  0  0  0  0
  -27.3220  -21.6716   18.6792 C   0  0  2  0  0  0  0  0  0  0  0  0
  -20.9685  -20.7954   20.9298 C   0  0  0  0  0  0  0  0  0  0  0  0
  -22.9325  -21.3258   19.4633 C   0  0  0  0  0  0  0  0  0  0  0  0
  -23.5818  -21.2606   18.0798 C   0  0  0  0  0  0  0  0  0  0  0  0
  -21.6493  -19.1131   19.1864 C   0  0  0  0  0  0  0  0  0  1  0  0
  -21.5693  -20.6059   19.5320 C   0  0  1  0  0  0  0  0  0  0  0  0
  -26.6888  -24.0090   17.9950 N   0  0  0  0  0  0  0  0  0  0  0  0
  -24.8624  -21.9680   18.0900 N   0  0  0  0  0  0  0  0  0  0  0  0
  -28.1525  -20.9527   19.6935 N   0  0  0  0  0  0  0  0  0  0  0  0
  -31.4485  -12.4701   19.0860 H   0  0  0  0  0  0  0  0  0  0  0  0
  -30.3970  -11.2460   19.6950 H   0  0  0  0  0  0  0  0  0  0  0  0
  -29.6870  -11.8204   17.4226 H   0  0  0  0  0  0  0  0  0  0  0  0
  -29.6375  -13.5326   17.8649 H   0  0  0  0  0  0  0  0  0  0  0  0
  -27.7830  -11.3650   18.7904 H   0  0  0  0  0  0  0  0  0  0  0  0
  -27.4028  -12.7801   17.8021 H   0  0  0  0  0  0  0  0  0  0  0  0
  -27.7353  -14.2503   19.6136 H   0  0  0  0  0  0  0  0  0  0  0  0
  -28.5890  -11.9550   21.3832 H   0  0  0  0  0  0  0  0  0  0  0  0
  -28.5005  -13.6134   21.8562 H   0  0  0  0  0  0  0  0  0  0  0  0
  -25.2399   -9.5495   22.4318 H   0  0  0  0  0  0  0  0  0  0  0  0
  -23.9663   -7.5070   22.7297 H   0  0  0  0  0  0  0  0  0  0  0  0
  -21.1515   -8.8641   19.9162 H   0  0  0  0  0  0  0  0  0  0  0  0
  -22.4016  -10.9115   19.6476 H   0  0  0  0  0  0  0  0  0  0  0  0
  -21.2319   -7.5552   23.9750 H   0  0  0  0  0  0  0  0  0  0  0  0
  -21.1589   -6.0228   25.8556 H   0  0  0  0  0  0  0  0  0  0  0  0
  -22.0396   -2.8212   23.2809 H   0  0  0  0  0  0  0  0  0  0  0  0
  -22.4401  -11.9703   22.4008 H   0  0  0  0  0  0  0  0  0  0  0  0
  -21.1493  -13.0679   22.2082 H   0  0  0  0  0  0  0  0  0  0  0  0
  -24.6538  -15.7807   20.5848 H   0  0  0  0  0  0  0  0  0  0  0  0
  -26.2762  -15.5453   20.1156 H   0  0  0  0  0  0  0  0  0  0  0  0
  -26.6778  -32.4663   23.1464 H   0  0  0  0  0  0  0  0  0  0  0  0
  -25.0747  -34.0282   25.0566 H   0  0  0  0  0  0  0  0  0  0  0  0
  -22.7881  -31.3489   21.4131 H   0  0  0  0  0  0  0  0  0  0  0  0
  -23.3854  -35.9823   23.3648 H   0  0  0  0  0  0  0  0  0  0  0  0
  -24.3696  -36.8624   22.2204 H   0  0  0  0  0  0  0  0  0  0  0  0
  -23.7669  -37.6632   23.6516 H   0  0  0  0  0  0  0  0  0  0  0  0
  -25.9445  -31.6237   20.5691 H   0  0  0  0  0  0  0  0  0  0  0  0
  -26.7436  -31.0079   22.0108 H   0  0  0  0  0  0  0  0  0  0  0  0
  -28.0090  -29.1452   21.2057 H   0  0  0  0  0  0  0  0  0  0  0  0
  -26.1369  -26.0560   19.0719 H   0  0  0  0  0  0  0  0  0  0  0  0
  -24.0652  -27.2961   19.0997 H   0  0  0  0  0  0  0  0  0  0  0  0
  -23.6156  -30.5365   19.3930 H   0  0  0  0  0  0  0  0  0  0  0  0
  -22.7355  -29.1425   19.9945 H   0  0  0  0  0  0  0  0  0  0  0  0
  -25.1353  -36.2335   25.0565 H   0  0  0  0  0  0  0  0  0  0  0  0
  -21.0070  -28.3206   24.0793 H   0  0  0  0  0  0  0  0  0  0  0  0
  -20.5555  -26.2518   23.3550 H   0  0  0  0  0  0  0  0  0  0  0  0
  -21.5974  -26.8362   22.0454 H   0  0  0  0  0  0  0  0  0  0  0  0
  -19.6810  -25.6422   21.1488 H   0  0  0  0  0  0  0  0  0  0  0  0
  -19.6406  -27.3343   20.7034 H   0  0  0  0  0  0  0  0  0  0  0  0
  -17.4282  -26.6888   21.4113 H   0  0  0  0  0  0  0  0  0  0  0  0
  -18.0803  -26.0130   22.9049 H   0  0  0  0  0  0  0  0  0  0  0  0
  -19.7265  -30.6774   24.2204 H   0  0  0  0  0  0  0  0  0  0  0  0
  -17.5064  -31.5856   24.4483 H   0  0  0  0  0  0  0  0  0  0  0  0
  -15.5878  -30.2839   23.7407 H   0  0  0  0  0  0  0  0  0  0  0  0
  -15.9120  -28.0941   22.7766 H   0  0  0  0  0  0  0  0  0  0  0  0
  -24.5787  -30.7757   25.6817 H   0  0  0  0  0  0  0  0  0  0  0  0
  -25.0041  -32.2289   26.5536 H   0  0  0  0  0  0  0  0  0  0  0  0
  -25.8166  -30.7245   26.9138 H   0  0  0  0  0  0  0  0  0  0  0  0
  -26.2892  -29.7335   24.0803 H   0  0  0  0  0  0  0  0  0  0  0  0
  -27.4336  -29.7484   25.4006 H   0  0  0  0  0  0  0  0  0  0  0  0
  -27.8466  -30.4994   23.8779 H   0  0  0  0  0  0  0  0  0  0  0  0
  -27.2251  -33.3632   26.1242 H   0  0  0  0  0  0  0  0  0  0  0  0
  -28.3902  -32.6065   25.0645 H   0  0  0  0  0  0  0  0  0  0  0  0
  -27.9772  -31.8555   26.5872 H   0  0  0  0  0  0  0  0  0  0  0  0
  -28.2744  -38.0016   24.6863 H   0  0  0  0  0  0  0  0  0  0  0  0
  -28.0396  -36.2711   24.7461 H   0  0  0  0  0  0  0  0  0  0  0  0
  -27.1773  -37.3087   25.8564 H   0  0  0  0  0  0  0  0  0  0  0  0
  -20.9627  -29.9365   21.7352 H   0  0  0  0  0  0  0  0  0  0  0  0
  -26.0447  -38.2561   24.0273 H   0  0  0  0  0  0  0  0  0  0  0  0
  -26.0425  -24.2292   16.0403 H   0  0  0  0  0  0  0  0  0  0  0  0
  -27.2515  -22.9574   16.3236 H   0  0  0  0  0  0  0  0  0  0  0  0
  -25.6089  -21.4971   16.2188 H   0  0  0  0  0  0  0  0  0  0  0  0
  -24.3923  -22.8001   16.2784 H   0  0  0  0  0  0  0  0  0  0  0  0
  -28.5502  -23.4115   18.7042 H   0  0  0  0  0  0  0  0  0  0  0  0
  -27.2279  -23.4000   19.8907 H   0  0  0  0  0  0  0  0  0  0  0  0
  -25.6180  -21.1982   19.8549 H   0  0  0  0  0  0  0  0  0  0  0  0
  -25.8531  -20.2061   18.3785 H   0  0  0  0  0  0  0  0  0  0  0  0
  -27.6104  -21.4671   17.6693 H   0  0  0  0  0  0  0  0  0  0  0  0
  -20.9185  -21.8396   21.1579 H   0  0  0  0  0  0  0  0  0  0  0  0
  -21.5839  -20.3015   21.6525 H   0  0  0  0  0  0  0  0  0  0  0  0
  -19.9839  -20.3774   20.9545 H   0  0  0  0  0  0  0  0  0  0  0  0
  -22.7872  -22.3538   19.7222 H   0  0  0  0  0  0  0  0  0  0  0  0
  -23.5890  -20.8273   20.1455 H   0  0  0  0  0  0  0  0  0  0  0  0
  -22.9318  -21.7162   17.3623 H   0  0  0  0  0  0  0  0  0  0  0  0
  -23.7503  -20.2362   17.8206 H   0  0  0  0  0  0  0  0  0  0  0  0
  -21.3347  -18.7285   18.2388 H   0  0  0  0  0  0  0  0  0  0  0  0
  -21.4267  -18.1504   19.5969 H   0  0  0  0  0  0  0  0  0  0  0  0
  -20.9399  -21.0491   18.7888 H   0  0  0  0  0  0  0  0  0  0  0  0
  -27.8265  -21.1906   20.6302 H   0  0  0  0  0  0  0  0  0  0  0  0
  -29.1287  -21.2307   19.5924 H   0  0  0  0  0  0  0  0  0  0  0  0
  -28.0690  -19.9463   19.5498 H   0  0  0  0  0  0  0  0  0  0  0  0
  1 25  1  0
  1 30  2  0
  1 81  1  0
  2  3  1  0
  2 25  1  0
  2 84  1  0
  2 85  1  0
  3  4  1  0
  3 86  1  0
  3 87  1  0
  4  5  1  0
  4 88  1  0
  4 89  1  0
  5  6  1  0
  5 26  1  0
  5 90  1  6
  6 25  1  0
  6 91  1  0
  6 92  1  0
  7  8  2  0
  7 26  1  0
  7 29  1  0
  8  9  1  0
  8 22  1  0
  9 10  1  0
  9 27  2  0
 10 11  2  0
 10 15  1  0
 11 12  1  0
 11 93  1  0
 12 13  2  0
 12 94  1  0
 13 14  1  0
 13 31  1  0
 14 15  2  0
 14 95  1  0
 15 96  1  0
 16 17  2  0
 16 21  1  0
 16 31  1  0
 17 18  1  0
 17 97  1  0
 18 19  2  0
 18 98  1  0
 19 20  1  0
 19 24  1  0
 20 21  2  0
 20 99  1  0
 21 23  1  0
 22 28  1  0
 22 32  2  0
 26 27  1  0
 28100  1  0
 28101  1  0
 29102  1  0
 29103  1  0
 33 34  1  0
 33 66  1  0
 33 70  2  0
 34 36  1  0
 34 59  1  0
 34104  1  6
 35 44  2  0
 35 45  1  0
 35 68  1  0
 36 56  1  0
 36105  1  0
 37 39  1  0
 37 47  1  0
 37 66  1  0
 37106  1  6
 38 43  2  0
 38 46  1  0
 38 47  1  0
 39 64  1  0
 39 67  2  0
 40 52  1  0
 40 53  2  0
 40 58  1  0
 41107  1  0
 41108  1  0
 41109  1  0
 42 43  1  0
 42 66  1  0
 42110  1  0
 42111  1  0
 43 44  1  0
 44112  1  0
 45 46  2  0
 45113  1  0
 46114  1  0
 47115  1  0
 47116  1  0
 48 41  1  0
 48 56  1  0
 48 65  1  0
 48117  1  1
 49 50  1  0
 49 53  1  0
 49 64  1  0
 49118  1  1
 50 51  1  0
 50119  1  0
 50120  1  0
 51 52  1  0
 51121  1  0
 51122  1  0
 52123  1  0
 52124  1  0
 53 54  1  0
 54 55  2  0
 54125  1  0
 55 57  1  0
 55126  1  0
 56 69  2  0
 57 58  2  0
 57127  1  0
 58128  1  0
 59 60  1  0
 59 61  1  0
 59 62  1  0
 60129  1  0
 60130  1  0
 60131  1  0
 61132  1  0
 61133  1  0
 61134  1  0
 62135  1  0
 62136  1  0
 62137  1  0
 63 65  1  0
 63138  1  0
 63139  1  0
 63140  1  0
 64141  1  0
 65142  1  0
 68 79  1  0
 71 72  1  0
 71 81  1  0
 71143  1  0
 71144  1  0
 72 82  1  0
 72145  1  0
 72146  1  0
 73 75  1  0
 73 81  1  0
 73147  1  0
 73148  1  0
 74 75  1  0
 74 82  1  0
 74149  1  0
 74150  1  0
 75 83  1  0
 75151  1  6
 76152  1  0
 76153  1  0
 76154  1  0
 77 78  1  0
 77 80  1  0
 77155  1  0
 77156  1  0
 78 82  1  0
 78157  1  0
 78158  1  0
 79 80  1  0
 79159  1  0
 79160  1  0
 80 76  1  0
 80161  1  6
 83162  1  0
 83163  1  0
 83164  1  0
M  CHG  1  83   1
M  ISO  4   1 100  68 101  79 101  81 100
M  END
$$$$
19
     RDKit          3D

159167  0  0  0  0  0  0  0  0999 V2000
  -30.7652  -14.3608   20.6636 C   0  0  0  0  0  0  0  0  0100  0  0
  -30.4392  -12.2669   19.3775 C   0  0  0  0  0  0  0  0  0101  0  0
  -29.4791  -12.5281   18.1977 C   0  0  0  0  0  0  0  0  0102  0  0
  -27.9985  -12.3963   18.6038 C   0  0  0  0  0  0  0  0  0103  0  0
  -27.6639  -13.2170   19.8820 C   0  0  2  0  0  0  0  0  0104  0  0
  -28.6795  -12.9602   21.0279 C   0  0  0  0  0  0  0  0  0105  0  0
  -25.2633  -13.8245   20.5754 C   0  0  0  0  0  0  0  0  0106  0  0
  -24.1645  -13.0409   20.9408 C   0  0  0  0  0  0  0  0  0107  0  0
  -24.6400  -11.7009   20.8697 C   0  0  0  0  0  0  0  0  0108  0  0
  -23.9005  -10.4085   21.0420 C   0  0  0  0  0  0  0  0  0109  0  0
  -24.3588   -9.4123   21.9123 C   0  0  0  0  0  0  0  0  0110  0  0
  -23.6296   -8.2350   22.0803 C   0  0  0  0  0  0  0  0  0111  0  0
  -22.4385   -8.0419   21.3657 C   0  0  0  0  0  0  0  0  0112  0  0
  -22.0103   -9.0167   20.4678 C   0  0  0  0  0  0  0  0  0113  0  0
  -22.7317  -10.1925   20.3102 C   0  0  0  0  0  0  0  0  0114  0  0
  -21.6857   -6.0709   22.5391 C   0  0  0  0  0  0  0  0  0115  0  0
  -21.4064   -6.5490   23.8264 C   0  0  0  0  0  0  0  0  0116  0  0
  -21.3635   -5.6677   24.9085 C   0  0  0  0  0  0  0  0  0117  0  0
  -21.5973   -4.3067   24.7088 C   0  0  0  0  0  0  0  0  0118  0  0
  -21.8700   -3.8284   23.4282 C   0  0  0  0  0  0  0  0  0119  0  0
  -21.9144   -4.7056   22.3460 C   0  0  0  0  0  0  0  0  0120  0  0
  -22.8194  -13.5263   21.1763 C   0  0  0  0  0  0  0  0  0121  0  0
  -22.1559   -4.2206   21.1063 F   0  0  0  0  0  0  0  0  0122  0  0
  -21.5628   -3.4510   25.7555 F   0  0  0  0  0  0  0  0  0123  0  0
  -30.0261  -13.1803   20.4553 N   0  0  0  0  0  0  0  0  0124  0  0
  -26.2911  -12.9356   20.3443 N   0  0  0  0  0  0  0  0  0125  0  0
  -25.9236  -11.6675   20.5847 N   0  0  0  0  0  0  0  0  0126  0  0
  -22.0708  -12.7905   22.0005 N   0  0  0  0  0  0  0  0  0127  0  0
  -25.4117  -15.1773   20.4097 N   0  0  0  0  0  0  0  0  0128  0  0
  -31.7916  -14.6724   20.0536 O   0  0  0  0  0  0  0  0  0129  0  0
  -21.6670   -6.9022   21.4423 O   0  0  0  0  0  0  0  0  0130  0  0
  -22.3946  -14.5564   20.6568 O   0  0  0  0  0  0  0  0  0131  0  0
  -24.6048  -31.8614   23.2223 C   0  0  0  0  0  0  0  0  0100  0  0
  -25.8822  -32.4841   23.8616 C   0  0  1  0  0  0  0  0  0101  0  0
  -27.2536  -27.5042   20.1156 C   0  0  0  0  0  0  0  0  0102  0  0
  -25.5726  -33.8762   24.2210 N   0  0  0  0  0  0  0  0  0103  0  0
  -23.4066  -30.4859   21.5461 C   0  0  2  0  0  0  0  0  0104  0  0
  -24.8467  -28.9636   20.1247 C   0  0  0  0  0  0  0  0  0105  0  0
  -22.7412  -29.4652   22.5052 C   0  0  0  0  0  0  0  0  0106  0  0
  -18.0167  -28.1302   22.8626 C   0  0  0  0  0  0  0  0  0107  0  0
  -24.1342  -36.7390   23.2568 C   0  0  0  0  0  0  0  0  0108  0  0
  -25.9141  -30.8882   21.3456 C   0  0  0  0  0  0  0  0  0109  0  0
  -25.9930  -29.5029   20.7208 C   0  0  0  0  0  0  0  0  0110  0  0
  -27.1758  -28.7612   20.7331 C   0  0  0  0  0  0  0  0  0111  0  0
  -26.1032  -26.9836   19.5230 C   0  0  0  0  0  0  0  0  0112  0  0
  -24.9097  -27.7011   19.5331 C   0  0  0  0  0  0  0  0  0113  0  0
  -23.5715  -29.7899   20.1582 C   0  0  0  0  0  0  0  0  0114  0  0
  -25.3990  -36.3212   24.0232 C   0  0  1  0  0  0  0  0  0115  0  0
  -20.5793  -28.3813   23.1004 C   0  0  2  0  0  0  0  0  0116  0  0
  -20.6548  -26.9392   22.5411 C   0  0  0  0  0  0  0  0  0117  0  0
  -19.5615  -26.6407   21.5143 C   0  0  0  0  0  0  0  0  0118  0  0
  -18.1797  -26.7818   22.1673 C   0  0  0  0  0  0  0  0  0119  0  0
  -19.1385  -28.8769   23.2988 C   0  0  0  0  0  0  0  0  0120  0  0
  -18.9183  -30.1286   23.8878 C   0  0  0  0  0  0  0  0  0121  0  0
  -17.6396  -30.6493   24.0352 C   0  0  0  0  0  0  0  0  0122  0  0
  -25.9153  -34.9582   23.4993 C   0  0  0  0  0  0  0  0  0123  0  0
  -16.5415  -29.9068   23.6254 C   0  0  0  0  0  0  0  0  0124  0  0
  -16.7331  -28.6521   23.0586 C   0  0  0  0  0  0  0  0  0125  0  0
  -26.4583  -31.6439   25.0683 C   0  0  0  0  0  0  0  0  0126  0  0
  -25.3807  -31.3179   26.1374 C   0  0  0  0  0  0  0  0  0127  0  0
  -27.0530  -30.3024   24.5680 C   0  0  0  0  0  0  0  0  0128  0  0
  -27.6014  -32.4281   25.7651 C   0  0  0  0  0  0  0  0  0129  0  0
  -27.5629  -37.2220   24.8621 C   0  0  0  0  0  0  0  0  0130  0  0
  -21.4133  -29.3375   22.3735 N   0  0  0  0  0  0  0  0  0131  0  0
  -26.4706  -37.3372   23.9061 N   0  0  0  0  0  0  0  0  0132  0  0
  -24.6674  -31.0544   22.1178 N   0  0  0  0  0  0  0  0  0133  0  0
  -23.4259  -28.8150   23.2971 O   0  0  0  0  0  0  0  0  0134  0  0
  -28.3948  -26.7345   20.0089 O   0  0  0  0  0  0  0  0  0135  0  0
  -26.5870  -34.9065   22.4671 O   0  0  0  0  0  0  0  0  0136  0  0
  -23.5365  -32.1254   23.7833 O   0  0  0  0  0  0  0  0  0137  0  0
  -30.0212  -24.0054   18.1051 C   0  0  0  0  0  0  0  0  0  0  0  0
  -31.3000  -22.3765   17.2211 C   0  0  0  0  0  0  0  0  0  0  0  0
  -30.1309  -22.6383   17.9772 C   0  0  0  0  0  0  0  0  0  0  0  0
  -31.8693  -23.5916   16.9101 C   0  0  0  0  0  0  0  0  0  0  0  0
  -28.5837  -27.3391   18.0061 C   0  0  0  0  0  0  0  0  0  1  0  0
  -31.8161  -21.0467   16.8339 C   0  0  0  0  0  0  0  0  0  0  0  0
  -33.0936  -23.9027   16.1422 C   0  0  0  0  0  0  0  0  0  0  0  0
  -30.6805  -26.2003   14.9442 C   0  0  0  0  0  0  0  0  0  0  0  0
  -28.9422  -26.7078   16.6765 C   0  0  0  0  0  0  0  0  0  0  0  0
  -31.3330  -26.0590   17.3584 C   0  0  0  0  0  0  0  0  0  0  0  0
  -30.4424  -26.8013   16.3355 C   0  0  1  0  0  0  0  0  0  0  0  0
  -31.0836  -24.5746   17.4528 N   0  0  0  0  0  0  0  0  0  0  0  0
  -29.2183  -21.6980   18.5166 N   0  0  0  0  0  0  0  0  0  0  0  0
  -29.1991  -28.2516   18.5408 O   0  0  0  0  0  0  0  0  0  0  0  0
  -31.4485  -12.4701   19.0860 H   0  0  0  0  0  0  0  0  0  0  0  0
  -30.3970  -11.2460   19.6950 H   0  0  0  0  0  0  0  0  0  0  0  0
  -29.6870  -11.8204   17.4226 H   0  0  0  0  0  0  0  0  0  0  0  0
  -29.6375  -13.5326   17.8649 H   0  0  0  0  0  0  0  0  0  0  0  0
  -27.7830  -11.3650   18.7904 H   0  0  0  0  0  0  0  0  0  0  0  0
  -27.4028  -12.7801   17.8021 H   0  0  0  0  0  0  0  0  0  0  0  0
  -27.7353  -14.2503   19.6136 H   0  0  0  0  0  0  0  0  0  0  0  0
  -28.5890  -11.9550   21.3832 H   0  0  0  0  0  0  0  0  0  0  0  0
  -28.5005  -13.6134   21.8562 H   0  0  0  0  0  0  0  0  0  0  0  0
  -25.2399   -9.5495   22.4318 H   0  0  0  0  0  0  0  0  0  0  0  0
  -23.9663   -7.5070   22.7297 H   0  0  0  0  0  0  0  0  0  0  0  0
  -21.1515   -8.8641   19.9162 H   0  0  0  0  0  0  0  0  0  0  0  0
  -22.4016  -10.9115   19.6476 H   0  0  0  0  0  0  0  0  0  0  0  0
  -21.2319   -7.5552   23.9750 H   0  0  0  0  0  0  0  0  0  0  0  0
  -21.1589   -6.0228   25.8556 H   0  0  0  0  0  0  0  0  0  0  0  0
  -22.0396   -2.8212   23.2809 H   0  0  0  0  0  0  0  0  0  0  0  0
  -22.4401  -11.9703   22.4008 H   0  0  0  0  0  0  0  0  0  0  0  0
  -21.1493  -13.0679   22.2082 H   0  0  0  0  0  0  0  0  0  0  0  0
  -24.6538  -15.7807   20.5848 H   0  0  0  0  0  0  0  0  0  0  0  0
  -26.2762  -15.5453   20.1156 H   0  0  0  0  0  0  0  0  0  0  0  0
  -26.6778  -32.4663   23.1464 H   0  0  0  0  0  0  0  0  0  0  0  0
  -25.0747  -34.0282   25.0566 H   0  0  0  0  0  0  0  0  0  0  0  0
  -22.7881  -31.3489   21.4131 H   0  0  0  0  0  0  0  0  0  0  0  0
  -23.3854  -35.9823   23.3648 H   0  0  0  0  0  0  0  0  0  0  0  0
  -24.3696  -36.8624   22.2204 H   0  0  0  0  0  0  0  0  0  0  0  0
  -23.7669  -37.6632   23.6516 H   0  0  0  0  0  0  0  0  0  0  0  0
  -25.9445  -31.6237   20.5691 H   0  0  0  0  0  0  0  0  0  0  0  0
  -26.7436  -31.0079   22.0108 H   0  0  0  0  0  0  0  0  0  0  0  0
  -28.0090  -29.1452   21.2057 H   0  0  0  0  0  0  0  0  0  0  0  0
  -26.1369  -26.0560   19.0719 H   0  0  0  0  0  0  0  0  0  0  0  0
  -24.0652  -27.2961   19.0997 H   0  0  0  0  0  0  0  0  0  0  0  0
  -23.6156  -30.5365   19.3930 H   0  0  0  0  0  0  0  0  0  0  0  0
  -22.7355  -29.1425   19.9945 H   0  0  0  0  0  0  0  0  0  0  0  0
  -25.1353  -36.2335   25.0565 H   0  0  0  0  0  0  0  0  0  0  0  0
  -21.0070  -28.3206   24.0793 H   0  0  0  0  0  0  0  0  0  0  0  0
  -20.5555  -26.2518   23.3550 H   0  0  0  0  0  0  0  0  0  0  0  0
  -21.5974  -26.8362   22.0454 H   0  0  0  0  0  0  0  0  0  0  0  0
  -19.6810  -25.6422   21.1488 H   0  0  0  0  0  0  0  0  0  0  0  0
  -19.6406  -27.3343   20.7034 H   0  0  0  0  0  0  0  0  0  0  0  0
  -17.4282  -26.6888   21.4113 H   0  0  0  0  0  0  0  0  0  0  0  0
  -18.0803  -26.0130   22.9049 H   0  0  0  0  0  0  0  0  0  0  0  0
  -19.7265  -30.6774   24.2204 H   0  0  0  0  0  0  0  0  0  0  0  0
  -17.5064  -31.5856   24.4483 H   0  0  0  0  0  0  0  0  0  0  0  0
  -15.5878  -30.2839   23.7407 H   0  0  0  0  0  0  0  0  0  0  0  0
  -15.9120  -28.0941   22.7766 H   0  0  0  0  0  0  0  0  0  0  0  0
  -24.5787  -30.7757   25.6817 H   0  0  0  0  0  0  0  0  0  0  0  0
  -25.0041  -32.2289   26.5536 H   0  0  0  0  0  0  0  0  0  0  0  0
  -25.8166  -30.7245   26.9138 H   0  0  0  0  0  0  0  0  0  0  0  0
  -26.2892  -29.7335   24.0803 H   0  0  0  0  0  0  0  0  0  0  0  0
  -27.4336  -29.7484   25.4006 H   0  0  0  0  0  0  0  0  0  0  0  0
  -27.8466  -30.4994   23.8779 H   0  0  0  0  0  0  0  0  0  0  0  0
  -27.2251  -33.3632   26.1242 H   0  0  0  0  0  0  0  0  0  0  0  0
  -28.3902  -32.6065   25.0645 H   0  0  0  0  0  0  0  0  0  0  0  0
  -27.9772  -31.8555   26.5872 H   0  0  0  0  0  0  0  0  0  0  0  0
  -28.2744  -38.0016   24.6863 H   0  0  0  0  0  0  0  0  0  0  0  0
  -28.0396  -36.2711   24.7461 H   0  0  0  0  0  0  0  0  0  0  0  0
  -27.1773  -37.3087   25.8564 H   0  0  0  0  0  0  0  0  0  0  0  0
  -20.9627  -29.9365   21.7352 H   0  0  0  0  0  0  0  0  0  0  0  0
  -26.0447  -38.2561   24.0273 H   0  0  0  0  0  0  0  0  0  0  0  0
  -29.2722  -24.5111   18.6035 H   0  0  0  0  0  0  0  0  0  0  0  0
  -31.1666  -20.2870   17.2158 H   0  0  0  0  0  0  0  0  0  0  0  0
  -32.7976  -20.9134   17.2386 H   0  0  0  0  0  0  0  0  0  0  0  0
  -31.8577  -20.9771   15.7670 H   0  0  0  0  0  0  0  0  0  0  0  0
  -33.5492  -22.9922   15.8131 H   0  0  0  0  0  0  0  0  0  0  0  0
  -33.7784  -24.4395   16.7649 H   0  0  0  0  0  0  0  0  0  0  0  0
  -32.8393  -24.5016   15.2928 H   0  0  0  0  0  0  0  0  0  0  0  0
  -30.0686  -26.7069   14.2274 H   0  0  0  0  0  0  0  0  0  0  0  0
  -30.4284  -25.1605   14.9569 H   0  0  0  0  0  0  0  0  0  0  0  0
  -31.7105  -26.3143   14.6779 H   0  0  0  0  0  0  0  0  0  0  0  0
  -28.3884  -27.2029   15.9064 H   0  0  0  0  0  0  0  0  0  0  0  0
  -28.6998  -25.6680   16.7465 H   0  0  0  0  0  0  0  0  0  0  0  0
  -31.1602  -26.4878   18.3234 H   0  0  0  0  0  0  0  0  0  0  0  0
  -32.3415  -26.1745   17.0201 H   0  0  0  0  0  0  0  0  0  0  0  0
  -30.7112  -27.8366   16.3622 H   0  0  0  0  0  0  0  0  0  0  0  0
  -28.2896  -22.0035   18.6328 H   0  0  0  0  0  0  0  0  0  0  0  0
  1 25  1  0
  1 30  2  0
  1 83  1  0
  2  3  1  0
  2 25  1  0
  2 85  1  0
  2 86  1  0
  3  4  1  0
  3 87  1  0
  3 88  1  0
  4  5  1  0
  4 89  1  0
  4 90  1  0
  5  6  1  0
  5 26  1  0
  5 91  1  6
  6 25  1  0
  6 92  1  0
  6 93  1  0
  7  8  2  0
  7 26  1  0
  7 29  1  0
  8  9  1  0
  8 22  1  0
  9 10  1  0
  9 27  2  0
 10 11  2  0
 10 15  1  0
 11 12  1  0
 11 94  1  0
 12 13  2  0
 12 95  1  0
 13 14  1  0
 13 31  1  0
 14 15  2  0
 14 96  1  0
 15 97  1  0
 16 17  2  0
 16 21  1  0
 16 31  1  0
 17 18  1  0
 17 98  1  0
 18 19  2  0
 18 99  1  0
 19 20  1  0
 19 24  1  0
 20 21  2  0
 20100  1  0
 21 23  1  0
 22 28  1  0
 22 32  2  0
 26 27  1  0
 28101  1  0
 28102  1  0
 29103  1  0
 29104  1  0
 33 34  1  0
 33 66  1  0
 33 70  2  0
 34 36  1  0
 34 59  1  0
 34105  1  6
 35 44  2  0
 35 45  1  0
 35 68  1  0
 36 56  1  0
 36106  1  0
 37 39  1  0
 37 47  1  0
 37 66  1  0
 37107  1  6
 38 43  2  0
 38 46  1  0
 38 47  1  0
 39 64  1  0
 39 67  2  0
 40 52  1  0
 40 53  2  0
 40 58  1  0
 41108  1  0
 41109  1  0
 41110  1  0
 42 43  1  0
 42 66  1  0
 42111  1  0
 42112  1  0
 43 44  1  0
 44113  1  0
 45 46  2  0
 45114  1  0
 46115  1  0
 47116  1  0
 47117  1  0
 48 41  1  0
 48 56  1  0
 48 65  1  0
 48118  1  1
 49 50  1  0
 49 53  1  0
 49 64  1  0
 49119  1  1
 50 51  1  0
 50120  1  0
 50121  1  0
 51 52  1  0
 51122  1  0
 51123  1  0
 52124  1  0
 52125  1  0
 53 54  1  0
 54 55  2  0
 54126  1  0
 55 57  1  0
 55127  1  0
 56 69  2  0
 57 58  2  0
 57128  1  0
 58129  1  0
 59 60  1  0
 59 61  1  0
 59 62  1  0
 60130  1  0
 60131  1  0
 60132  1  0
 61133  1  0
 61134  1  0
 61135  1  0
 62136  1  0
 62137  1  0
 62138  1  0
 63 65  1  0
 63139  1  0
 63140  1  0
 63141  1  0
 64142  1  0
 65143  1  0
 68 75  1  0
 71 73  2  0
 71 82  1  0
 71144  1  0
 72 73  1  0
 72 74  2  0
 72 76  1  0
 73 83  1  0
 74 77  1  0
 74 82  1  0
 75 79  1  0
 75 84  2  0
 76145  1  0
 76146  1  0
 76147  1  0
 77148  1  0
 77149  1  0
 77150  1  0
 78151  1  0
 78152  1  0
 78153  1  0
 79 81  1  0
 79154  1  0
 79155  1  0
 80 81  1  0
 80 82  1  0
 80156  1  0
 80157  1  0
 81 78  1  0
 81158  1  6
 83159  1  0
M  ISO  4   1 100  68 101  75 101  83 100
M  END
$$$$
20
     RDKit          3D

162170  0  0  0  0  0  0  0  0999 V2000
  -30.7652  -14.3608   20.6636 C   0  0  0  0  0  0  0  0  0100  0  0
  -30.4392  -12.2669   19.3775 C   0  0  0  0  0  0  0  0  0101  0  0
  -29.4791  -12.5281   18.1977 C   0  0  0  0  0  0  0  0  0102  0  0
  -27.9985  -12.3963   18.6038 C   0  0  0  0  0  0  0  0  0103  0  0
  -27.6639  -13.2170   19.8820 C   0  0  2  0  0  0  0  0  0104  0  0
  -28.6795  -12.9602   21.0279 C   0  0  0  0  0  0  0  0  0105  0  0
  -25.2633  -13.8245   20.5754 C   0  0  0  0  0  0  0  0  0106  0  0
  -24.1645  -13.0409   20.9408 C   0  0  0  0  0  0  0  0  0107  0  0
  -24.6400  -11.7009   20.8697 C   0  0  0  0  0  0  0  0  0108  0  0
  -23.9005  -10.4085   21.0420 C   0  0  0  0  0  0  0  0  0109  0  0
  -24.3588   -9.4123   21.9123 C   0  0  0  0  0  0  0  0  0110  0  0
  -23.6296   -8.2350   22.0803 C   0  0  0  0  0  0  0  0  0111  0  0
  -22.4385   -8.0419   21.3657 C   0  0  0  0  0  0  0  0  0112  0  0
  -22.0103   -9.0167   20.4678 C   0  0  0  0  0  0  0  0  0113  0  0
  -22.7317  -10.1925   20.3102 C   0  0  0  0  0  0  0  0  0114  0  0
  -21.6857   -6.0709   22.5391 C   0  0  0  0  0  0  0  0  0115  0  0
  -21.4064   -6.5490   23.8264 C   0  0  0  0  0  0  0  0  0116  0  0
  -21.3635   -5.6677   24.9085 C   0  0  0  0  0  0  0  0  0117  0  0
  -21.5973   -4.3067   24.7088 C   0  0  0  0  0  0  0  0  0118  0  0
  -21.8700   -3.8284   23.4282 C   0  0  0  0  0  0  0  0  0119  0  0
  -21.9144   -4.7056   22.3460 C   0  0  0  0  0  0  0  0  0120  0  0
  -22.8194  -13.5263   21.1763 C   0  0  0  0  0  0  0  0  0121  0  0
  -22.1559   -4.2206   21.1063 F   0  0  0  0  0  0  0  0  0122  0  0
  -21.5628   -3.4510   25.7555 F   0  0  0  0  0  0  0  0  0123  0  0
  -30.0261  -13.1803   20.4553 N   0  0  0  0  0  0  0  0  0124  0  0
  -26.2911  -12.9356   20.3443 N   0  0  0  0  0  0  0  0  0125  0  0
  -25.9236  -11.6675   20.5847 N   0  0  0  0  0  0  0  0  0126  0  0
  -22.0708  -12.7905   22.0005 N   0  0  0  0  0  0  0  0  0127  0  0
  -25.4117  -15.1773   20.4097 N   0  0  0  0  0  0  0  0  0128  0  0
  -31.7916  -14.6724   20.0536 O   0  0  0  0  0  0  0  0  0129  0  0
  -21.6670   -6.9022   21.4423 O   0  0  0  0  0  0  0  0  0130  0  0
  -22.3946  -14.5564   20.6568 O   0  0  0  0  0  0  0  0  0131  0  0
  -24.6048  -31.8614   23.2223 C   0  0  0  0  0  0  0  0  0100  0  0
  -25.8822  -32.4841   23.8616 C   0  0  1  0  0  0  0  0  0101  0  0
  -27.2536  -27.5042   20.1156 C   0  0  0  0  0  0  0  0  0102  0  0
  -25.5726  -33.8762   24.2210 N   0  0  0  0  0  0  0  0  0103  0  0
  -23.4066  -30.4859   21.5461 C   0  0  2  0  0  0  0  0  0104  0  0
  -24.8467  -28.9636   20.1247 C   0  0  0  0  0  0  0  0  0105  0  0
  -22.7412  -29.4652   22.5052 C   0  0  0  0  0  0  0  0  0106  0  0
  -18.0167  -28.1302   22.8626 C   0  0  0  0  0  0  0  0  0107  0  0
  -24.1342  -36.7390   23.2568 C   0  0  0  0  0  0  0  0  0108  0  0
  -25.9141  -30.8882   21.3456 C   0  0  0  0  0  0  0  0  0109  0  0
  -25.9930  -29.5029   20.7208 C   0  0  0  0  0  0  0  0  0110  0  0
  -27.1758  -28.7612   20.7331 C   0  0  0  0  0  0  0  0  0111  0  0
  -26.1032  -26.9836   19.5230 C   0  0  0  0  0  0  0  0  0112  0  0
  -24.9097  -27.7011   19.5331 C   0  0  0  0  0  0  0  0  0113  0  0
  -23.5715  -29.7899   20.1582 C   0  0  0  0  0  0  0  0  0114  0  0
  -25.3990  -36.3212   24.0232 C   0  0  1  0  0  0  0  0  0115  0  0
  -20.5793  -28.3813   23.1004 C   0  0  2  0  0  0  0  0  0116  0  0
  -20.6548  -26.9392   22.5411 C   0  0  0  0  0  0  0  0  0117  0  0
  -19.5615  -26.6407   21.5143 C   0  0  0  0  0  0  0  0  0118  0  0
  -18.1797  -26.7818   22.1673 C   0  0  0  0  0  0  0  0  0119  0  0
  -19.1385  -28.8769   23.2988 C   0  0  0  0  0  0  0  0  0120  0  0
  -18.9183  -30.1286   23.8878 C   0  0  0  0  0  0  0  0  0121  0  0
  -17.6396  -30.6493   24.0352 C   0  0  0  0  0  0  0  0  0122  0  0
  -25.9153  -34.9582   23.4993 C   0  0  0  0  0  0  0  0  0123  0  0
  -16.5415  -29.9068   23.6254 C   0  0  0  0  0  0  0  0  0124  0  0
  -16.7331  -28.6521   23.0586 C   0  0  0  0  0  0  0  0  0125  0  0
  -26.4583  -31.6439   25.0683 C   0  0  0  0  0  0  0  0  0126  0  0
  -25.3807  -31.3179   26.1374 C   0  0  0  0  0  0  0  0  0127  0  0
  -27.0530  -30.3024   24.5680 C   0  0  0  0  0  0  0  0  0128  0  0
  -27.6014  -32.4281   25.7651 C   0  0  0  0  0  0  0  0  0129  0  0
  -27.5629  -37.2220   24.8621 C   0  0  0  0  0  0  0  0  0130  0  0
  -21.4133  -29.3375   22.3735 N   0  0  0  0  0  0  0  0  0131  0  0
  -26.4706  -37.3372   23.9061 N   0  0  0  0  0  0  0  0  0132  0  0
  -24.6674  -31.0544   22.1178 N   0  0  0  0  0  0  0  0  0133  0  0
  -23.4259  -28.8150   23.2971 O   0  0  0  0  0  0  0  0  0134  0  0
  -28.3948  -26.7345   20.0089 O   0  0  0  0  0  0  0  0  0135  0  0
  -26.5870  -34.9065   22.4671 O   0  0  0  0  0  0  0  0  0136  0  0
  -23.5365  -32.1254   23.7833 O   0  0  0  0  0  0  0  0  0137  0  0
  -18.6578  -26.9871   23.5050 C   0  0  0  0  0  0  0  0  0  0  0  0
  -17.7233  -28.0167   23.5089 C   0  0  0  0  0  0  0  0  0  0  0  0
  -17.9976  -29.1996   22.8316 C   0  0  0  0  0  0  0  0  0  0  0  0
  -19.2111  -29.3022   22.1708 C   0  0  0  0  0  0  0  0  0  0  0  0
  -19.8417  -27.1887   22.8139 C   0  0  0  0  0  0  0  0  0  0  0  0
  -16.4377  -27.8288   24.2445 C   0  0  0  0  0  0  0  0  0  0  0  0
  -17.0137  -30.3209   22.8198 C   0  0  0  0  0  0  0  0  0  0  0  0
  -19.5622  -30.5487   21.4264 C   0  0  0  0  0  0  0  0  0  0  0  0
  -22.2294  -23.9755   21.6343 C   0  0  0  0  0  0  0  0  0  0  0  0
  -22.8896  -25.2333   22.1883 C   0  0  0  0  0  0  0  0  0  0  0  0
  -23.1602  -22.7725   21.7105 C   0  0  0  0  0  0  0  0  0  1  0  0
  -21.9757  -26.4451   22.0732 C   0  0  0  0  0  0  0  0  0  0  0  0
  -20.1436  -28.3237   22.1445 N   0  0  0  0  0  0  0  0  0  0  0  0
  -20.9676  -30.6095   21.0918 N   0  0  0  0  0  0  0  0  0  0  0  0
  -20.7792  -26.1889   22.7955 O   0  0  0  0  0  0  0  0  0  0  0  0
  -31.4485  -12.4701   19.0860 H   0  0  0  0  0  0  0  0  0  0  0  0
  -30.3970  -11.2460   19.6950 H   0  0  0  0  0  0  0  0  0  0  0  0
  -29.6870  -11.8204   17.4226 H   0  0  0  0  0  0  0  0  0  0  0  0
  -29.6375  -13.5326   17.8649 H   0  0  0  0  0  0  0  0  0  0  0  0
  -27.7830  -11.3650   18.7904 H   0  0  0  0  0  0  0  0  0  0  0  0
  -27.4028  -12.7801   17.8021 H   0  0  0  0  0  0  0  0  0  0  0  0
  -27.7353  -14.2503   19.6136 H   0  0  0  0  0  0  0  0  0  0  0  0
  -28.5890  -11.9550   21.3832 H   0  0  0  0  0  0  0  0  0  0  0  0
  -28.5005  -13.6134   21.8562 H   0  0  0  0  0  0  0  0  0  0  0  0
  -25.2399   -9.5495   22.4318 H   0  0  0  0  0  0  0  0  0  0  0  0
  -23.9663   -7.5070   22.7297 H   0  0  0  0  0  0  0  0  0  0  0  0
  -21.1515   -8.8641   19.9162 H   0  0  0  0  0  0  0  0  0  0  0  0
  -22.4016  -10.9115   19.6476 H   0  0  0  0  0  0  0  0  0  0  0  0
  -21.2319   -7.5552   23.9750 H   0  0  0  0  0  0  0  0  0  0  0  0
  -21.1589   -6.0228   25.8556 H   0  0  0  0  0  0  0  0  0  0  0  0
  -22.0396   -2.8212   23.2809 H   0  0  0  0  0  0  0  0  0  0  0  0
  -22.4401  -11.9703   22.4008 H   0  0  0  0  0  0  0  0  0  0  0  0
  -21.1493  -13.0679   22.2082 H   0  0  0  0  0  0  0  0  0  0  0  0
  -24.6538  -15.7807   20.5848 H   0  0  0  0  0  0  0  0  0  0  0  0
  -26.2762  -15.5453   20.1156 H   0  0  0  0  0  0  0  0  0  0  0  0
  -26.6778  -32.4663   23.1464 H   0  0  0  0  0  0  0  0  0  0  0  0
  -25.0747  -34.0282   25.0566 H   0  0  0  0  0  0  0  0  0  0  0  0
  -22.7881  -31.3489   21.4131 H   0  0  0  0  0  0  0  0  0  0  0  0
  -23.3854  -35.9823   23.3648 H   0  0  0  0  0  0  0  0  0  0  0  0
  -24.3696  -36.8624   22.2204 H   0  0  0  0  0  0  0  0  0  0  0  0
  -23.7669  -37.6632   23.6516 H   0  0  0  0  0  0  0  0  0  0  0  0
  -25.9445  -31.6237   20.5691 H   0  0  0  0  0  0  0  0  0  0  0  0
  -26.7436  -31.0079   22.0108 H   0  0  0  0  0  0  0  0  0  0  0  0
  -28.0090  -29.1452   21.2057 H   0  0  0  0  0  0  0  0  0  0  0  0
  -26.1369  -26.0560   19.0719 H   0  0  0  0  0  0  0  0  0  0  0  0
  -24.0652  -27.2961   19.0997 H   0  0  0  0  0  0  0  0  0  0  0  0
  -23.6156  -30.5365   19.3930 H   0  0  0  0  0  0  0  0  0  0  0  0
  -22.7355  -29.1425   19.9945 H   0  0  0  0  0  0  0  0  0  0  0  0
  -25.1353  -36.2335   25.0565 H   0  0  0  0  0  0  0  0  0  0  0  0
  -21.0070  -28.3206   24.0793 H   0  0  0  0  0  0  0  0  0  0  0  0
  -20.5555  -26.2518   23.3550 H   0  0  0  0  0  0  0  0  0  0  0  0
  -21.5974  -26.8362   22.0454 H   0  0  0  0  0  0  0  0  0  0  0  0
  -19.6810  -25.6422   21.1488 H   0  0  0  0  0  0  0  0  0  0  0  0
  -19.6406  -27.3343   20.7034 H   0  0  0  0  0  0  0  0  0  0  0  0
  -17.4282  -26.6888   21.4113 H   0  0  0  0  0  0  0  0  0  0  0  0
  -18.0803  -26.0130   22.9049 H   0  0  0  0  0  0  0  0  0  0  0  0
  -19.7265  -30.6774   24.2204 H   0  0  0  0  0  0  0  0  0  0  0  0
  -17.5064  -31.5856   24.4483 H   0  0  0  0  0  0  0  0  0  0  0  0
  -15.5878  -30.2839   23.7407 H   0  0  0  0  0  0  0  0  0  0  0  0
  -15.9120  -28.0941   22.7766 H   0  0  0  0  0  0  0  0  0  0  0  0
  -24.5787  -30.7757   25.6817 H   0  0  0  0  0  0  0  0  0  0  0  0
  -25.0041  -32.2289   26.5536 H   0  0  0  0  0  0  0  0  0  0  0  0
  -25.8166  -30.7245   26.9138 H   0  0  0  0  0  0  0  0  0  0  0  0
  -26.2892  -29.7335   24.0803 H   0  0  0  0  0  0  0  0  0  0  0  0
  -27.4336  -29.7484   25.4006 H   0  0  0  0  0  0  0  0  0  0  0  0
  -27.8466  -30.4994   23.8779 H   0  0  0  0  0  0  0  0  0  0  0  0
  -27.2251  -33.3632   26.1242 H   0  0  0  0  0  0  0  0  0  0  0  0
  -28.3902  -32.6065   25.0645 H   0  0  0  0  0  0  0  0  0  0  0  0
  -27.9772  -31.8555   26.5872 H   0  0  0  0  0  0  0  0  0  0  0  0
  -28.2744  -38.0016   24.6863 H   0  0  0  0  0  0  0  0  0  0  0  0
  -28.0396  -36.2711   24.7461 H   0  0  0  0  0  0  0  0  0  0  0  0
  -27.1773  -37.3087   25.8564 H   0  0  0  0  0  0  0  0  0  0  0  0
  -20.9627  -29.9365   21.7352 H   0  0  0  0  0  0  0  0  0  0  0  0
  -26.0447  -38.2561   24.0273 H   0  0  0  0  0  0  0  0  0  0  0  0
  -18.4754  -26.1008   24.0012 H   0  0  0  0  0  0  0  0  0  0  0  0
  -16.4227  -26.8580   24.6941 H   0  0  0  0  0  0  0  0  0  0  0  0
  -15.6193  -27.9180   23.5610 H   0  0  0  0  0  0  0  0  0  0  0  0
  -16.3498  -28.5758   25.0056 H   0  0  0  0  0  0  0  0  0  0  0  0
  -16.1485  -30.0422   23.3844 H   0  0  0  0  0  0  0  0  0  0  0  0
  -16.7279  -30.5340   21.8109 H   0  0  0  0  0  0  0  0  0  0  0  0
  -17.4590  -31.1908   23.2556 H   0  0  0  0  0  0  0  0  0  0  0  0
  -19.3163  -31.3938   22.0348 H   0  0  0  0  0  0  0  0  0  0  0  0
  -19.0071  -30.5515   20.5117 H   0  0  0  0  0  0  0  0  0  0  0  0
  -21.9638  -24.1446   20.6117 H   0  0  0  0  0  0  0  0  0  0  0  0
  -21.3624  -23.7652   22.2250 H   0  0  0  0  0  0  0  0  0  0  0  0
  -23.7886  -25.4235   21.6401 H   0  0  0  0  0  0  0  0  0  0  0  0
  -23.1001  -25.0711   23.2248 H   0  0  0  0  0  0  0  0  0  0  0  0
  -22.9425  -22.0052   20.9972 H   0  0  0  0  0  0  0  0  0  0  0  0
  -23.1993  -22.1718   22.5951 H   0  0  0  0  0  0  0  0  0  0  0  0
  -21.7430  -26.6231   21.0441 H   0  0  0  0  0  0  0  0  0  0  0  0
  -22.4646  -27.3077   22.4755 H   0  0  0  0  0  0  0  0  0  0  0  0
  -21.4038  -31.4692   20.8919 H   0  0  0  0  0  0  0  0  0  0  0  0
  1 25  1  0
  1 30  2  0
  1 84  1  0
  2  3  1  0
  2 25  1  0
  2 86  1  0
  2 87  1  0
  3  4  1  0
  3 88  1  0
  3 89  1  0
  4  5  1  0
  4 90  1  0
  4 91  1  0
  5  6  1  0
  5 26  1  0
  5 92  1  6
  6 25  1  0
  6 93  1  0
  6 94  1  0
  7  8  2  0
  7 26  1  0
  7 29  1  0
  8  9  1  0
  8 22  1  0
  9 10  1  0
  9 27  2  0
 10 11  2  0
 10 15  1  0
 11 12  1  0
 11 95  1  0
 12 13  2  0
 12 96  1  0
 13 14  1  0
 13 31  1  0
 14 15  2  0
 14 97  1  0
 15 98  1  0
 16 17  2  0
 16 21  1  0
 16 31  1  0
 17 18  1  0
 17 99  1  0
 18 19  2  0
 18100  1  0
 19 20  1  0
 19 24  1  0
 20 21  2  0
 20101  1  0
 21 23  1  0
 22 28  1  0
 22 32  2  0
 26 27  1  0
 28102  1  0
 28103  1  0
 29104  1  0
 29105  1  0
 33 34  1  0
 33 66  1  0
 33 70  2  0
 34 36  1  0
 34 59  1  0
 34106  1  6
 35 44  2  0
 35 45  1  0
 35 68  1  0
 36 56  1  0
 36107  1  0
 37 39  1  0
 37 47  1  0
 37 66  1  0
 37108  1  6
 38 43  2  0
 38 46  1  0
 38 47  1  0
 39 64  1  0
 39 67  2  0
 40 52  1  0
 40 53  2  0
 40 58  1  0
 41109  1  0
 41110  1  0
 41111  1  0
 42 43  1  0
 42 66  1  0
 42112  1  0
 42113  1  0
 43 44  1  0
 44114  1  0
 45 46  2  0
 45115  1  0
 46116  1  0
 47117  1  0
 47118  1  0
 48 41  1  0
 48 56  1  0
 48 65  1  0
 48119  1  1
 49 50  1  0
 49 53  1  0
 49 64  1  0
 49120  1  1
 50 51  1  0
 50121  1  0
 50122  1  0
 51 52  1  0
 51123  1  0
 51124  1  0
 52125  1  0
 52126  1  0
 53 54  1  0
 54 55  2  0
 54127  1  0
 55 57  1  0
 55128  1  0
 56 69  2  0
 57 58  2  0
 57129  1  0
 58130  1  0
 59 60  1  0
 59 61  1  0
 59 62  1  0
 60131  1  0
 60132  1  0
 60133  1  0
 61134  1  0
 61135  1  0
 61136  1  0
 62137  1  0
 62138  1  0
 62139  1  0
 63 65  1  0
 63140  1  0
 63141  1  0
 63142  1  0
 64143  1  0
 65144  1  0
 68 81  1  0
 71 72  2  0
 71 75  1  0
 71145  1  0
 72 73  1  0
 72 76  1  0
 73 74  2  0
 73 77  1  0
 74 78  1  0
 74 83  1  0
 75 83  2  0
 75 85  1  0
 76146  1  0
 76147  1  0
 76148  1  0
 77149  1  0
 77150  1  0
 77151  1  0
 78 84  1  0
 78152  1  0
 78153  1  0
 79 80  1  0
 79 81  1  0
 79154  1  0
 79155  1  0
 80 82  1  0
 80156  1  0
 80157  1  0
 81158  1  0
 81159  1  0
 82 85  1  0
 82160  1  0
 82161  1  0
 84162  1  0
M  ISO  4   1 100  68 101  81 101  84 100
M  END
$$$$
21
     RDKit          3D

158166  0  0  0  0  0  0  0  0999 V2000
  -30.7652  -14.3608   20.6636 C   0  0  0  0  0  0  0  0  0100  0  0
  -30.4392  -12.2669   19.3775 C   0  0  0  0  0  0  0  0  0101  0  0
  -29.4791  -12.5281   18.1977 C   0  0  0  0  0  0  0  0  0102  0  0
  -27.9985  -12.3963   18.6038 C   0  0  0  0  0  0  0  0  0103  0  0
  -27.6639  -13.2170   19.8820 C   0  0  2  0  0  0  0  0  0104  0  0
  -28.6795  -12.9602   21.0279 C   0  0  0  0  0  0  0  0  0105  0  0
  -25.2633  -13.8245   20.5754 C   0  0  0  0  0  0  0  0  0106  0  0
  -24.1645  -13.0409   20.9408 C   0  0  0  0  0  0  0  0  0107  0  0
  -24.6400  -11.7009   20.8697 C   0  0  0  0  0  0  0  0  0108  0  0
  -23.9005  -10.4085   21.0420 C   0  0  0  0  0  0  0  0  0109  0  0
  -24.3588   -9.4123   21.9123 C   0  0  0  0  0  0  0  0  0110  0  0
  -23.6296   -8.2350   22.0803 C   0  0  0  0  0  0  0  0  0111  0  0
  -22.4385   -8.0419   21.3657 C   0  0  0  0  0  0  0  0  0112  0  0
  -22.0103   -9.0167   20.4678 C   0  0  0  0  0  0  0  0  0113  0  0
  -22.7317  -10.1925   20.3102 C   0  0  0  0  0  0  0  0  0114  0  0
  -21.6857   -6.0709   22.5391 C   0  0  0  0  0  0  0  0  0115  0  0
  -21.4064   -6.5490   23.8264 C   0  0  0  0  0  0  0  0  0116  0  0
  -21.3635   -5.6677   24.9085 C   0  0  0  0  0  0  0  0  0117  0  0
  -21.5973   -4.3067   24.7088 C   0  0  0  0  0  0  0  0  0118  0  0
  -21.8700   -3.8284   23.4282 C   0  0  0  0  0  0  0  0  0119  0  0
  -21.9144   -4.7056   22.3460 C   0  0  0  0  0  0  0  0  0120  0  0
  -22.8194  -13.5263   21.1763 C   0  0  0  0  0  0  0  0  0121  0  0
  -22.1559   -4.2206   21.1063 F   0  0  0  0  0  0  0  0  0122  0  0
  -21.5628   -3.4510   25.7555 F   0  0  0  0  0  0  0  0  0123  0  0
  -30.0261  -13.1803   20.4553 N   0  0  0  0  0  0  0  0  0124  0  0
  -26.2911  -12.9356   20.3443 N   0  0  0  0  0  0  0  0  0125  0  0
  -25.9236  -11.6675   20.5847 N   0  0  0  0  0  0  0  0  0126  0  0
  -22.0708  -12.7905   22.0005 N   0  0  0  0  0  0  0  0  0127  0  0
  -25.4117  -15.1773   20.4097 N   0  0  0  0  0  0  0  0  0128  0  0
  -31.7916  -14.6724   20.0536 O   0  0  0  0  0  0  0  0  0129  0  0
  -21.6670   -6.9022   21.4423 O   0  0  0  0  0  0  0  0  0130  0  0
  -22.3946  -14.5564   20.6568 O   0  0  0  0  0  0  0  0  0131  0  0
  -24.6048  -31.8614   23.2223 C   0  0  0  0  0  0  0  0  0100  0  0
  -25.8822  -32.4841   23.8616 C   0  0  1  0  0  0  0  0  0101  0  0
  -27.2536  -27.5042   20.1156 C   0  0  0  0  0  0  0  0  0102  0  0
  -25.5726  -33.8762   24.2210 N   0  0  0  0  0  0  0  0  0103  0  0
  -23.4066  -30.4859   21.5461 C   0  0  2  0  0  0  0  0  0104  0  0
  -24.8467  -28.9636   20.1247 C   0  0  0  0  0  0  0  0  0105  0  0
  -22.7412  -29.4652   22.5052 C   0  0  0  0  0  0  0  0  0106  0  0
  -18.0167  -28.1302   22.8626 C   0  0  0  0  0  0  0  0  0107  0  0
  -24.1342  -36.7390   23.2568 C   0  0  0  0  0  0  0  0  0108  0  0
  -25.9141  -30.8882   21.3456 C   0  0  0  0  0  0  0  0  0109  0  0
  -25.9930  -29.5029   20.7208 C   0  0  0  0  0  0  0  0  0110  0  0
  -27.1758  -28.7612   20.7331 C   0  0  0  0  0  0  0  0  0111  0  0
  -26.1032  -26.9836   19.5230 C   0  0  0  0  0  0  0  0  0112  0  0
  -24.9097  -27.7011   19.5331 C   0  0  0  0  0  0  0  0  0113  0  0
  -23.5715  -29.7899   20.1582 C   0  0  0  0  0  0  0  0  0114  0  0
  -25.3990  -36.3212   24.0232 C   0  0  1  0  0  0  0  0  0115  0  0
  -20.5793  -28.3813   23.1004 C   0  0  2  0  0  0  0  0  0116  0  0
  -20.6548  -26.9392   22.5411 C   0  0  0  0  0  0  0  0  0117  0  0
  -19.5615  -26.6407   21.5143 C   0  0  0  0  0  0  0  0  0118  0  0
  -18.1797  -26.7818   22.1673 C   0  0  0  0  0  0  0  0  0119  0  0
  -19.1385  -28.8769   23.2988 C   0  0  0  0  0  0  0  0  0120  0  0
  -18.9183  -30.1286   23.8878 C   0  0  0  0  0  0  0  0  0121  0  0
  -17.6396  -30.6493   24.0352 C   0  0  0  0  0  0  0  0  0122  0  0
  -25.9153  -34.9582   23.4993 C   0  0  0  0  0  0  0  0  0123  0  0
  -16.5415  -29.9068   23.6254 C   0  0  0  0  0  0  0  0  0124  0  0
  -16.7331  -28.6521   23.0586 C   0  0  0  0  0  0  0  0  0125  0  0
  -26.4583  -31.6439   25.0683 C   0  0  0  0  0  0  0  0  0126  0  0
  -25.3807  -31.3179   26.1374 C   0  0  0  0  0  0  0  0  0127  0  0
  -27.0530  -30.3024   24.5680 C   0  0  0  0  0  0  0  0  0128  0  0
  -27.6014  -32.4281   25.7651 C   0  0  0  0  0  0  0  0  0129  0  0
  -27.5629  -37.2220   24.8621 C   0  0  0  0  0  0  0  0  0130  0  0
  -21.4133  -29.3375   22.3735 N   0  0  0  0  0  0  0  0  0131  0  0
  -26.4706  -37.3372   23.9061 N   0  0  0  0  0  0  0  0  0132  0  0
  -24.6674  -31.0544   22.1178 N   0  0  0  0  0  0  0  0  0133  0  0
  -23.4259  -28.8150   23.2971 O   0  0  0  0  0  0  0  0  0134  0  0
  -28.3948  -26.7345   20.0089 O   0  0  0  0  0  0  0  0  0135  0  0
  -26.5870  -34.9065   22.4671 O   0  0  0  0  0  0  0  0  0136  0  0
  -23.5365  -32.1254   23.7833 O   0  0  0  0  0  0  0  0  0137  0  0
  -30.8326  -18.9064   22.8793 C   0  0  0  0  0  0  0  0  0  0  0  0
  -31.8534  -17.3616   21.6197 C   0  0  0  0  0  0  0  0  0  0  0  0
  -29.9488  -17.8634   22.7109 C   0  0  0  0  0  0  0  0  0  0  0  0
  -30.5945  -16.8862   21.9139 C   0  0  0  0  0  0  0  0  0  0  0  0
  -27.6539  -18.9060   22.7271 C   0  0  0  0  0  0  0  0  0  0  0  0
  -28.5538  -17.8067   24.8096 C   0  0  0  0  0  0  0  0  0  0  0  0
  -33.2181  -19.4629   22.1399 C   0  0  0  0  0  0  0  0  0  0  0  0
  -34.0382  -19.3973   24.5227 C   0  0  0  0  0  0  0  0  0  1  0  0
  -28.5814  -17.7915   23.2639 C   0  0  0  0  0  0  0  0  0  0  0  0
  -34.3260  -18.9815   23.0826 C   0  0  2  0  0  0  0  0  0  0  0  0
  -31.9872  -18.5903   22.2120 N   0  0  0  0  0  0  0  0  0  0  0  0
  -30.0765  -15.6409   21.4796 N   0  0  0  0  0  0  0  0  0  0  0  0
  -35.5589  -19.5809   22.6782 O   0  0  0  0  0  0  0  0  0  0  0  0
  -31.4485  -12.4701   19.0860 H   0  0  0  0  0  0  0  0  0  0  0  0
  -30.3970  -11.2460   19.6950 H   0  0  0  0  0  0  0  0  0  0  0  0
  -29.6870  -11.8204   17.4226 H   0  0  0  0  0  0  0  0  0  0  0  0
  -29.6375  -13.5326   17.8649 H   0  0  0  0  0  0  0  0  0  0  0  0
  -27.7830  -11.3650   18.7904 H   0  0  0  0  0  0  0  0  0  0  0  0
  -27.4028  -12.7801   17.8021 H   0  0  0  0  0  0  0  0  0  0  0  0
  -27.7353  -14.2503   19.6136 H   0  0  0  0  0  0  0  0  0  0  0  0
  -28.5890  -11.9550   21.3832 H   0  0  0  0  0  0  0  0  0  0  0  0
  -28.5005  -13.6134   21.8562 H   0  0  0  0  0  0  0  0  0  0  0  0
  -25.2399   -9.5495   22.4318 H   0  0  0  0  0  0  0  0  0  0  0  0
  -23.9663   -7.5070   22.7297 H   0  0  0  0  0  0  0  0  0  0  0  0
  -21.1515   -8.8641   19.9162 H   0  0  0  0  0  0  0  0  0  0  0  0
  -22.4016  -10.9115   19.6476 H   0  0  0  0  0  0  0  0  0  0  0  0
  -21.2319   -7.5552   23.9750 H   0  0  0  0  0  0  0  0  0  0  0  0
  -21.1589   -6.0228   25.8556 H   0  0  0  0  0  0  0  0  0  0  0  0
  -22.0396   -2.8212   23.2809 H   0  0  0  0  0  0  0  0  0  0  0  0
  -22.4401  -11.9703   22.4008 H   0  0  0  0  0  0  0  0  0  0  0  0
  -21.1493  -13.0679   22.2082 H   0  0  0  0  0  0  0  0  0  0  0  0
  -24.6538  -15.7807   20.5848 H   0  0  0  0  0  0  0  0  0  0  0  0
  -26.2762  -15.5453   20.1156 H   0  0  0  0  0  0  0  0  0  0  0  0
  -26.6778  -32.4663   23.1464 H   0  0  0  0  0  0  0  0  0  0  0  0
  -25.0747  -34.0282   25.0566 H   0  0  0  0  0  0  0  0  0  0  0  0
  -22.7881  -31.3489   21.4131 H   0  0  0  0  0  0  0  0  0  0  0  0
  -23.3854  -35.9823   23.3648 H   0  0  0  0  0  0  0  0  0  0  0  0
  -24.3696  -36.8624   22.2204 H   0  0  0  0  0  0  0  0  0  0  0  0
  -23.7669  -37.6632   23.6516 H   0  0  0  0  0  0  0  0  0  0  0  0
  -25.9445  -31.6237   20.5691 H   0  0  0  0  0  0  0  0  0  0  0  0
  -26.7436  -31.0079   22.0108 H   0  0  0  0  0  0  0  0  0  0  0  0
  -28.0090  -29.1452   21.2057 H   0  0  0  0  0  0  0  0  0  0  0  0
  -26.1369  -26.0560   19.0719 H   0  0  0  0  0  0  0  0  0  0  0  0
  -24.0652  -27.2961   19.0997 H   0  0  0  0  0  0  0  0  0  0  0  0
  -23.6156  -30.5365   19.3930 H   0  0  0  0  0  0  0  0  0  0  0  0
  -22.7355  -29.1425   19.9945 H   0  0  0  0  0  0  0  0  0  0  0  0
  -25.1353  -36.2335   25.0565 H   0  0  0  0  0  0  0  0  0  0  0  0
  -21.0070  -28.3206   24.0793 H   0  0  0  0  0  0  0  0  0  0  0  0
  -20.5555  -26.2518   23.3550 H   0  0  0  0  0  0  0  0  0  0  0  0
  -21.5974  -26.8362   22.0454 H   0  0  0  0  0  0  0  0  0  0  0  0
  -19.6810  -25.6422   21.1488 H   0  0  0  0  0  0  0  0  0  0  0  0
  -19.6406  -27.3343   20.7034 H   0  0  0  0  0  0  0  0  0  0  0  0
  -17.4282  -26.6888   21.4113 H   0  0  0  0  0  0  0  0  0  0  0  0
  -18.0803  -26.0130   22.9049 H   0  0  0  0  0  0  0  0  0  0  0  0
  -19.7265  -30.6774   24.2204 H   0  0  0  0  0  0  0  0  0  0  0  0
  -17.5064  -31.5856   24.4483 H   0  0  0  0  0  0  0  0  0  0  0  0
  -15.5878  -30.2839   23.7407 H   0  0  0  0  0  0  0  0  0  0  0  0
  -15.9120  -28.0941   22.7766 H   0  0  0  0  0  0  0  0  0  0  0  0
  -24.5787  -30.7757   25.6817 H   0  0  0  0  0  0  0  0  0  0  0  0
  -25.0041  -32.2289   26.5536 H   0  0  0  0  0  0  0  0  0  0  0  0
  -25.8166  -30.7245   26.9138 H   0  0  0  0  0  0  0  0  0  0  0  0
  -26.2892  -29.7335   24.0803 H   0  0  0  0  0  0  0  0  0  0  0  0
  -27.4336  -29.7484   25.4006 H   0  0  0  0  0  0  0  0  0  0  0  0
  -27.8466  -30.4994   23.8779 H   0  0  0  0  0  0  0  0  0  0  0  0
  -27.2251  -33.3632   26.1242 H   0  0  0  0  0  0  0  0  0  0  0  0
  -28.3902  -32.6065   25.0645 H   0  0  0  0  0  0  0  0  0  0  0  0
  -27.9772  -31.8555   26.5872 H   0  0  0  0  0  0  0  0  0  0  0  0
  -28.2744  -38.0016   24.6863 H   0  0  0  0  0  0  0  0  0  0  0  0
  -28.0396  -36.2711   24.7461 H   0  0  0  0  0  0  0  0  0  0  0  0
  -27.1773  -37.3087   25.8564 H   0  0  0  0  0  0  0  0  0  0  0  0
  -20.9627  -29.9365   21.7352 H   0  0  0  0  0  0  0  0  0  0  0  0
  -26.0447  -38.2561   24.0273 H   0  0  0  0  0  0  0  0  0  0  0  0
  -30.6566  -19.7720   23.4130 H   0  0  0  0  0  0  0  0  0  0  0  0
  -32.5686  -16.8785   21.0539 H   0  0  0  0  0  0  0  0  0  0  0  0
  -27.6701  -18.8990   21.6572 H   0  0  0  0  0  0  0  0  0  0  0  0
  -27.9948  -19.8558   23.0827 H   0  0  0  0  0  0  0  0  0  0  0  0
  -26.6549  -18.7345   23.0698 H   0  0  0  0  0  0  0  0  0  0  0  0
  -29.1946  -17.0366   25.1854 H   0  0  0  0  0  0  0  0  0  0  0  0
  -27.5539  -17.6363   25.1502 H   0  0  0  0  0  0  0  0  0  0  0  0
  -28.8938  -18.7577   25.1631 H   0  0  0  0  0  0  0  0  0  0  0  0
  -33.5903  -19.4513   21.1368 H   0  0  0  0  0  0  0  0  0  0  0  0
  -32.9379  -20.4509   22.4404 H   0  0  0  0  0  0  0  0  0  0  0  0
  -34.8831  -19.7428   25.0809 H   0  0  0  0  0  0  0  0  0  0  0  0
  -33.6632  -18.7323   25.2724 H   0  0  0  0  0  0  0  0  0  0  0  0
  -28.2079  -16.8471   22.9269 H   0  0  0  0  0  0  0  0  0  0  0  0
  -34.3780  -17.9138   23.0345 H   0  0  0  0  0  0  0  0  0  0  0  0
  -29.1272  -15.5056   21.7027 H   0  0  0  0  0  0  0  0  0  0  0  0
  -35.4820  -20.5464   22.7319 H   0  0  0  0  0  0  0  0  0  0  0  0
  1 25  1  0
  1 30  2  0
  1 82  1  0
  2  3  1  0
  2 25  1  0
  2 84  1  0
  2 85  1  0
  3  4  1  0
  3 86  1  0
  3 87  1  0
  4  5  1  0
  4 88  1  0
  4 89  1  0
  5  6  1  0
  5 26  1  0
  5 90  1  6
  6 25  1  0
  6 91  1  0
  6 92  1  0
  7  8  2  0
  7 26  1  0
  7 29  1  0
  8  9  1  0
  8 22  1  0
  9 10  1  0
  9 27  2  0
 10 11  2  0
 10 15  1  0
 11 12  1  0
 11 93  1  0
 12 13  2  0
 12 94  1  0
 13 14  1  0
 13 31  1  0
 14 15  2  0
 14 95  1  0
 15 96  1  0
 16 17  2  0
 16 21  1  0
 16 31  1  0
 17 18  1  0
 17 97  1  0
 18 19  2  0
 18 98  1  0
 19 20  1  0
 19 24  1  0
 20 21  2  0
 20 99  1  0
 21 23  1  0
 22 28  1  0
 22 32  2  0
 26 27  1  0
 28100  1  0
 28101  1  0
 29102  1  0
 29103  1  0
 33 34  1  0
 33 66  1  0
 33 70  2  0
 34 36  1  0
 34 59  1  0
 34104  1  6
 35 44  2  0
 35 45  1  0
 35 68  1  0
 36 56  1  0
 36105  1  0
 37 39  1  0
 37 47  1  0
 37 66  1  0
 37106  1  6
 38 43  2  0
 38 46  1  0
 38 47  1  0
 39 64  1  0
 39 67  2  0
 40 52  1  0
 40 53  2  0
 40 58  1  0
 41107  1  0
 41108  1  0
 41109  1  0
 42 43  1  0
 42 66  1  0
 42110  1  0
 42111  1  0
 43 44  1  0
 44112  1  0
 45 46  2  0
 45113  1  0
 46114  1  0
 47115  1  0
 47116  1  0
 48 41  1  0
 48 56  1  0
 48 65  1  0
 48117  1  1
 49 50  1  0
 49 53  1  0
 49 64  1  0
 49118  1  1
 50 51  1  0
 50119  1  0
 50120  1  0
 51 52  1  0
 51121  1  0
 51122  1  0
 52123  1  0
 52124  1  0
 53 54  1  0
 54 55  2  0
 54125  1  0
 55 57  1  0
 55126  1  0
 56 69  2  0
 57 58  2  0
 57127  1  0
 58128  1  0
 59 60  1  0
 59 61  1  0
 59 62  1  0
 60129  1  0
 60130  1  0
 60131  1  0
 61132  1  0
 61133  1  0
 61134  1  0
 62135  1  0
 62136  1  0
 62137  1  0
 63 65  1  0
 63138  1  0
 63139  1  0
 63140  1  0
 64141  1  0
 65142  1  0
 68 78  1  0
 71 73  2  0
 71 81  1  0
 71143  1  0
 72 74  2  0
 72 81  1  0
 72144  1  0
 73 74  1  0
 73 79  1  0
 74 82  1  0
 75145  1  0
 75146  1  0
 75147  1  0
 76 79  1  0
 76148  1  0
 76149  1  0
 76150  1  0
 77 80  1  0
 77 81  1  0
 77151  1  0
 77152  1  0
 78 80  1  0
 78153  1  0
 78154  1  0
 79 75  1  0
 79155  1  0
 80 83  1  0
 80156  1  1
 82157  1  0
 83158  1  0
M  ISO  4   1 100  68 101  78 101  82 100
M  END
$$$$
22
     RDKit          3D

170178  0  0  0  0  0  0  0  0999 V2000
  -30.7652  -14.3608   20.6636 C   0  0  0  0  0  0  0  0  0100  0  0
  -30.4392  -12.2669   19.3775 C   0  0  0  0  0  0  0  0  0101  0  0
  -29.4791  -12.5281   18.1977 C   0  0  0  0  0  0  0  0  0102  0  0
  -27.9985  -12.3963   18.6038 C   0  0  0  0  0  0  0  0  0103  0  0
  -27.6639  -13.2170   19.8820 C   0  0  2  0  0  0  0  0  0104  0  0
  -28.6795  -12.9602   21.0279 C   0  0  0  0  0  0  0  0  0105  0  0
  -25.2633  -13.8245   20.5754 C   0  0  0  0  0  0  0  0  0106  0  0
  -24.1645  -13.0409   20.9408 C   0  0  0  0  0  0  0  0  0107  0  0
  -24.6400  -11.7009   20.8697 C   0  0  0  0  0  0  0  0  0108  0  0
  -23.9005  -10.4085   21.0420 C   0  0  0  0  0  0  0  0  0109  0  0
  -24.3588   -9.4123   21.9123 C   0  0  0  0  0  0  0  0  0110  0  0
  -23.6296   -8.2350   22.0803 C   0  0  0  0  0  0  0  0  0111  0  0
  -22.4385   -8.0419   21.3657 C   0  0  0  0  0  0  0  0  0112  0  0
  -22.0103   -9.0167   20.4678 C   0  0  0  0  0  0  0  0  0113  0  0
  -22.7317  -10.1925   20.3102 C   0  0  0  0  0  0  0  0  0114  0  0
  -21.6857   -6.0709   22.5391 C   0  0  0  0  0  0  0  0  0115  0  0
  -21.4064   -6.5490   23.8264 C   0  0  0  0  0  0  0  0  0116  0  0
  -21.3635   -5.6677   24.9085 C   0  0  0  0  0  0  0  0  0117  0  0
  -21.5973   -4.3067   24.7088 C   0  0  0  0  0  0  0  0  0118  0  0
  -21.8700   -3.8284   23.4282 C   0  0  0  0  0  0  0  0  0119  0  0
  -21.9144   -4.7056   22.3460 C   0  0  0  0  0  0  0  0  0120  0  0
  -22.8194  -13.5263   21.1763 C   0  0  0  0  0  0  0  0  0121  0  0
  -22.1559   -4.2206   21.1063 F   0  0  0  0  0  0  0  0  0122  0  0
  -21.5628   -3.4510   25.7555 F   0  0  0  0  0  0  0  0  0123  0  0
  -30.0261  -13.1803   20.4553 N   0  0  0  0  0  0  0  0  0124  0  0
  -26.2911  -12.9356   20.3443 N   0  0  0  0  0  0  0  0  0125  0  0
  -25.9236  -11.6675   20.5847 N   0  0  0  0  0  0  0  0  0126  0  0
  -22.0708  -12.7905   22.0005 N   0  0  0  0  0  0  0  0  0127  0  0
  -25.4117  -15.1773   20.4097 N   0  0  0  0  0  0  0  0  0128  0  0
  -31.7916  -14.6724   20.0536 O   0  0  0  0  0  0  0  0  0129  0  0
  -21.6670   -6.9022   21.4423 O   0  0  0  0  0  0  0  0  0130  0  0
  -22.3946  -14.5564   20.6568 O   0  0  0  0  0  0  0  0  0131  0  0
  -24.6048  -31.8614   23.2223 C   0  0  0  0  0  0  0  0  0100  0  0
  -25.8822  -32.4841   23.8616 C   0  0  1  0  0  0  0  0  0101  0  0
  -27.2536  -27.5042   20.1156 C   0  0  0  0  0  0  0  0  0102  0  0
  -25.5726  -33.8762   24.2210 N   0  0  0  0  0  0  0  0  0103  0  0
  -23.4066  -30.4859   21.5461 C   0  0  2  0  0  0  0  0  0104  0  0
  -24.8467  -28.9636   20.1247 C   0  0  0  0  0  0  0  0  0105  0  0
  -22.7412  -29.4652   22.5052 C   0  0  0  0  0  0  0  0  0106  0  0
  -18.0167  -28.1302   22.8626 C   0  0  0  0  0  0  0  0  0107  0  0
  -24.1342  -36.7390   23.2568 C   0  0  0  0  0  0  0  0  0108  0  0
  -25.9141  -30.8882   21.3456 C   0  0  0  0  0  0  0  0  0109  0  0
  -25.9930  -29.5029   20.7208 C   0  0  0  0  0  0  0  0  0110  0  0
  -27.1758  -28.7612   20.7331 C   0  0  0  0  0  0  0  0  0111  0  0
  -26.1032  -26.9836   19.5230 C   0  0  0  0  0  0  0  0  0112  0  0
  -24.9097  -27.7011   19.5331 C   0  0  0  0  0  0  0  0  0113  0  0
  -23.5715  -29.7899   20.1582 C   0  0  0  0  0  0  0  0  0114  0  0
  -25.3990  -36.3212   24.0232 C   0  0  1  0  0  0  0  0  0115  0  0
  -20.5793  -28.3813   23.1004 C   0  0  2  0  0  0  0  0  0116  0  0
  -20.6548  -26.9392   22.5411 C   0  0  0  0  0  0  0  0  0117  0  0
  -19.5615  -26.6407   21.5143 C   0  0  0  0  0  0  0  0  0118  0  0
  -18.1797  -26.7818   22.1673 C   0  0  0  0  0  0  0  0  0119  0  0
  -19.1385  -28.8769   23.2988 C   0  0  0  0  0  0  0  0  0120  0  0
  -18.9183  -30.1286   23.8878 C   0  0  0  0  0  0  0  0  0121  0  0
  -17.6396  -30.6493   24.0352 C   0  0  0  0  0  0  0  0  0122  0  0
  -25.9153  -34.9582   23.4993 C   0  0  0  0  0  0  0  0  0123  0  0
  -16.5415  -29.9068   23.6254 C   0  0  0  0  0  0  0  0  0124  0  0
  -16.7331  -28.6521   23.0586 C   0  0  0  0  0  0  0  0  0125  0  0
  -26.4583  -31.6439   25.0683 C   0  0  0  0  0  0  0  0  0126  0  0
  -25.3807  -31.3179   26.1374 C   0  0  0  0  0  0  0  0  0127  0  0
  -27.0530  -30.3024   24.5680 C   0  0  0  0  0  0  0  0  0128  0  0
  -27.6014  -32.4281   25.7651 C   0  0  0  0  0  0  0  0  0129  0  0
  -27.5629  -37.2220   24.8621 C   0  0  0  0  0  0  0  0  0130  0  0
  -21.4133  -29.3375   22.3735 N   0  0  0  0  0  0  0  0  0131  0  0
  -26.4706  -37.3372   23.9061 N   0  0  0  0  0  0  0  0  0132  0  0
  -24.6674  -31.0544   22.1178 N   0  0  0  0  0  0  0  0  0133  0  0
  -23.4259  -28.8150   23.2971 O   0  0  0  0  0  0  0  0  0134  0  0
  -28.3948  -26.7345   20.0089 O   0  0  0  0  0  0  0  0  0135  0  0
  -26.5870  -34.9065   22.4671 O   0  0  0  0  0  0  0  0  0136  0  0
  -23.5365  -32.1254   23.7833 O   0  0  0  0  0  0  0  0  0137  0  0
  -28.4178  -25.3229   18.4476 C   0  0  0  0  0  0  0  0  0  0  0  0
  -28.4064  -26.4644   20.3883 C   0  0  0  0  0  0  0  0  0  0  0  0
  -29.1199  -26.2764   19.2253 C   0  0  0  0  0  0  0  0  0  0  0  0
  -27.2963  -24.9573   19.1590 C   0  0  0  0  0  0  0  0  0  0  0  0
  -30.2590  -27.8155   17.5860 C   0  0  0  0  0  0  0  0  0  0  0  0
  -31.5619  -25.9590   18.6865 C   0  0  0  0  0  0  0  0  0  0  0  0
  -22.7244  -24.2927   17.0752 C   0  0  0  0  0  0  0  0  0  0  0  0
  -26.2248  -24.0004   18.8137 C   0  0  0  0  0  0  0  0  0  0  0  0
  -25.0272  -24.6146   18.0486 C   0  0  0  0  0  0  0  0  0  0  0  0
  -26.3376  -24.3106   22.3008 C   0  0  0  0  0  0  0  0  0  0  0  0
  -26.2567  -25.5675   21.4206 C   0  0  0  0  0  0  0  0  0  0  0  0
  -30.3828  -26.9451   18.8585 C   0  0  0  0  0  0  0  0  0  0  0  0
  -23.9001  -23.6136   17.7661 C   0  0  1  0  0  0  0  0  0  1  0  0
  -25.2465  -24.1741   23.3712 C   0  0  1  0  0  0  0  0  0  0  0  0
  -27.2996  -25.6577   20.3370 N   0  0  0  0  0  0  0  0  0  0  0  0
  -23.9037  -24.1271   22.8211 N   0  0  0  0  0  0  0  0  0  0  0  0
  -25.4595  -23.0011   24.1428 O   0  0  0  0  0  0  0  0  0  0  0  0
  -31.4485  -12.4701   19.0860 H   0  0  0  0  0  0  0  0  0  0  0  0
  -30.3970  -11.2460   19.6950 H   0  0  0  0  0  0  0  0  0  0  0  0
  -29.6870  -11.8204   17.4226 H   0  0  0  0  0  0  0  0  0  0  0  0
  -29.6375  -13.5326   17.8649 H   0  0  0  0  0  0  0  0  0  0  0  0
  -27.7830  -11.3650   18.7904 H   0  0  0  0  0  0  0  0  0  0  0  0
  -27.4028  -12.7801   17.8021 H   0  0  0  0  0  0  0  0  0  0  0  0
  -27.7353  -14.2503   19.6136 H   0  0  0  0  0  0  0  0  0  0  0  0
  -28.5890  -11.9550   21.3832 H   0  0  0  0  0  0  0  0  0  0  0  0
  -28.5005  -13.6134   21.8562 H   0  0  0  0  0  0  0  0  0  0  0  0
  -25.2399   -9.5495   22.4318 H   0  0  0  0  0  0  0  0  0  0  0  0
  -23.9663   -7.5070   22.7297 H   0  0  0  0  0  0  0  0  0  0  0  0
  -21.1515   -8.8641   19.9162 H   0  0  0  0  0  0  0  0  0  0  0  0
  -22.4016  -10.9115   19.6476 H   0  0  0  0  0  0  0  0  0  0  0  0
  -21.2319   -7.5552   23.9750 H   0  0  0  0  0  0  0  0  0  0  0  0
  -21.1589   -6.0228   25.8556 H   0  0  0  0  0  0  0  0  0  0  0  0
  -22.0396   -2.8212   23.2809 H   0  0  0  0  0  0  0  0  0  0  0  0
  -22.4401  -11.9703   22.4008 H   0  0  0  0  0  0  0  0  0  0  0  0
  -21.1493  -13.0679   22.2082 H   0  0  0  0  0  0  0  0  0  0  0  0
  -24.6538  -15.7807   20.5848 H   0  0  0  0  0  0  0  0  0  0  0  0
  -26.2762  -15.5453   20.1156 H   0  0  0  0  0  0  0  0  0  0  0  0
  -26.6778  -32.4663   23.1464 H   0  0  0  0  0  0  0  0  0  0  0  0
  -25.0747  -34.0282   25.0566 H   0  0  0  0  0  0  0  0  0  0  0  0
  -22.7881  -31.3489   21.4131 H   0  0  0  0  0  0  0  0  0  0  0  0
  -23.3854  -35.9823   23.3648 H   0  0  0  0  0  0  0  0  0  0  0  0
  -24.3696  -36.8624   22.2204 H   0  0  0  0  0  0  0  0  0  0  0  0
  -23.7669  -37.6632   23.6516 H   0  0  0  0  0  0  0  0  0  0  0  0
  -25.9445  -31.6237   20.5691 H   0  0  0  0  0  0  0  0  0  0  0  0
  -26.7436  -31.0079   22.0108 H   0  0  0  0  0  0  0  0  0  0  0  0
  -28.0090  -29.1452   21.2057 H   0  0  0  0  0  0  0  0  0  0  0  0
  -26.1369  -26.0560   19.0719 H   0  0  0  0  0  0  0  0  0  0  0  0
  -24.0652  -27.2961   19.0997 H   0  0  0  0  0  0  0  0  0  0  0  0
  -23.6156  -30.5365   19.3930 H   0  0  0  0  0  0  0  0  0  0  0  0
  -22.7355  -29.1425   19.9945 H   0  0  0  0  0  0  0  0  0  0  0  0
  -25.1353  -36.2335   25.0565 H   0  0  0  0  0  0  0  0  0  0  0  0
  -21.0070  -28.3206   24.0793 H   0  0  0  0  0  0  0  0  0  0  0  0
  -20.5555  -26.2518   23.3550 H   0  0  0  0  0  0  0  0  0  0  0  0
  -21.5974  -26.8362   22.0454 H   0  0  0  0  0  0  0  0  0  0  0  0
  -19.6810  -25.6422   21.1488 H   0  0  0  0  0  0  0  0  0  0  0  0
  -19.6406  -27.3343   20.7034 H   0  0  0  0  0  0  0  0  0  0  0  0
  -17.4282  -26.6888   21.4113 H   0  0  0  0  0  0  0  0  0  0  0  0
  -18.0803  -26.0130   22.9049 H   0  0  0  0  0  0  0  0  0  0  0  0
  -19.7265  -30.6774   24.2204 H   0  0  0  0  0  0  0  0  0  0  0  0
  -17.5064  -31.5856   24.4483 H   0  0  0  0  0  0  0  0  0  0  0  0
  -15.5878  -30.2839   23.7407 H   0  0  0  0  0  0  0  0  0  0  0  0
  -15.9120  -28.0941   22.7766 H   0  0  0  0  0  0  0  0  0  0  0  0
  -24.5787  -30.7757   25.6817 H   0  0  0  0  0  0  0  0  0  0  0  0
  -25.0041  -32.2289   26.5536 H   0  0  0  0  0  0  0  0  0  0  0  0
  -25.8166  -30.7245   26.9138 H   0  0  0  0  0  0  0  0  0  0  0  0
  -26.2892  -29.7335   24.0803 H   0  0  0  0  0  0  0  0  0  0  0  0
  -27.4336  -29.7484   25.4006 H   0  0  0  0  0  0  0  0  0  0  0  0
  -27.8466  -30.4994   23.8779 H   0  0  0  0  0  0  0  0  0  0  0  0
  -27.2251  -33.3632   26.1242 H   0  0  0  0  0  0  0  0  0  0  0  0
  -28.3902  -32.6065   25.0645 H   0  0  0  0  0  0  0  0  0  0  0  0
  -27.9772  -31.8555   26.5872 H   0  0  0  0  0  0  0  0  0  0  0  0
  -28.2744  -38.0016   24.6863 H   0  0  0  0  0  0  0  0  0  0  0  0
  -28.0396  -36.2711   24.7461 H   0  0  0  0  0  0  0  0  0  0  0  0
  -27.1773  -37.3087   25.8564 H   0  0  0  0  0  0  0  0  0  0  0  0
  -20.9627  -29.9365   21.7352 H   0  0  0  0  0  0  0  0  0  0  0  0
  -26.0447  -38.2561   24.0273 H   0  0  0  0  0  0  0  0  0  0  0  0
  -28.6954  -24.9677   17.5193 H   0  0  0  0  0  0  0  0  0  0  0  0
  -28.6601  -27.0997   21.1610 H   0  0  0  0  0  0  0  0  0  0  0  0
  -29.4443  -28.4998   17.6998 H   0  0  0  0  0  0  0  0  0  0  0  0
  -30.0805  -27.1861   16.7393 H   0  0  0  0  0  0  0  0  0  0  0  0
  -31.1665  -28.3628   17.4385 H   0  0  0  0  0  0  0  0  0  0  0  0
  -31.6520  -25.3541   19.5645 H   0  0  0  0  0  0  0  0  0  0  0  0
  -32.4678  -26.5087   18.5376 H   0  0  0  0  0  0  0  0  0  0  0  0
  -31.3817  -25.3320   17.8384 H   0  0  0  0  0  0  0  0  0  0  0  0
  -22.0275  -23.5508   16.7454 H   0  0  0  0  0  0  0  0  0  0  0  0
  -23.0787  -24.8488   16.2325 H   0  0  0  0  0  0  0  0  0  0  0  0
  -22.2413  -24.9555   17.7624 H   0  0  0  0  0  0  0  0  0  0  0  0
  -25.8552  -23.5725   19.7221 H   0  0  0  0  0  0  0  0  0  0  0  0
  -26.6648  -23.2802   18.1560 H   0  0  0  0  0  0  0  0  0  0  0  0
  -25.3826  -24.9963   17.1143 H   0  0  0  0  0  0  0  0  0  0  0  0
  -24.6168  -25.3813   18.6720 H   0  0  0  0  0  0  0  0  0  0  0  0
  -27.2855  -24.3178   22.7972 H   0  0  0  0  0  0  0  0  0  0  0  0
  -26.2000  -23.4820   21.6379 H   0  0  0  0  0  0  0  0  0  0  0  0
  -26.3624  -26.4232   22.0543 H   0  0  0  0  0  0  0  0  0  0  0  0
  -25.3116  -25.5209   20.9211 H   0  0  0  0  0  0  0  0  0  0  0  0
  -30.5934  -27.5854   19.6895 H   0  0  0  0  0  0  0  0  0  0  0  0
  -23.4661  -22.6378   17.7001 H   0  0  0  0  0  0  0  0  0  0  0  0
  -25.3193  -25.0516   23.9791 H   0  0  0  0  0  0  0  0  0  0  0  0
  -23.0359  -24.5770   22.7041 H   0  0  0  0  0  0  0  0  0  0  0  0
  -25.3886  -22.2207   23.5711 H   0  0  0  0  0  0  0  0  0  0  0  0
  1 25  1  0
  1 30  2  0
  1 86  1  0
  2  3  1  0
  2 25  1  0
  2 88  1  0
  2 89  1  0
  3  4  1  0
  3 90  1  0
  3 91  1  0
  4  5  1  0
  4 92  1  0
  4 93  1  0
  5  6  1  0
  5 26  1  0
  5 94  1  6
  6 25  1  0
  6 95  1  0
  6 96  1  0
  7  8  2  0
  7 26  1  0
  7 29  1  0
  8  9  1  0
  8 22  1  0
  9 10  1  0
  9 27  2  0
 10 11  2  0
 10 15  1  0
 11 12  1  0
 11 97  1  0
 12 13  2  0
 12 98  1  0
 13 14  1  0
 13 31  1  0
 14 15  2  0
 14 99  1  0
 15100  1  0
 16 17  2  0
 16 21  1  0
 16 31  1  0
 17 18  1  0
 17101  1  0
 18 19  2  0
 18102  1  0
 19 20  1  0
 19 24  1  0
 20 21  2  0
 20103  1  0
 21 23  1  0
 22 28  1  0
 22 32  2  0
 26 27  1  0
 28104  1  0
 28105  1  0
 29106  1  0
 29107  1  0
 33 34  1  0
 33 66  1  0
 33 70  2  0
 34 36  1  0
 34 59  1  0
 34108  1  6
 35 44  2  0
 35 45  1  0
 35 68  1  0
 36 56  1  0
 36109  1  0
 37 39  1  0
 37 47  1  0
 37 66  1  0
 37110  1  6
 38 43  2  0
 38 46  1  0
 38 47  1  0
 39 64  1  0
 39 67  2  0
 40 52  1  0
 40 53  2  0
 40 58  1  0
 41111  1  0
 41112  1  0
 41113  1  0
 42 43  1  0
 42 66  1  0
 42114  1  0
 42115  1  0
 43 44  1  0
 44116  1  0
 45 46  2  0
 45117  1  0
 46118  1  0
 47119  1  0
 47120  1  0
 48 41  1  0
 48 56  1  0
 48 65  1  0
 48121  1  1
 49 50  1  0
 49 53  1  0
 49 64  1  0
 49122  1  1
 50 51  1  0
 50123  1  0
 50124  1  0
 51 52  1  0
 51125  1  0
 51126  1  0
 52127  1  0
 52128  1  0
 53 54  1  0
 54 55  2  0
 54129  1  0
 55 57  1  0
 55130  1  0
 56 69  2  0
 57 58  2  0
 57131  1  0
 58132  1  0
 59 60  1  0
 59 61  1  0
 59 62  1  0
 60133  1  0
 60134  1  0
 60135  1  0
 61136  1  0
 61137  1  0
 61138  1  0
 62139  1  0
 62140  1  0
 62141  1  0
 63 65  1  0
 63142  1  0
 63143  1  0
 63144  1  0
 64145  1  0
 65146  1  0
 68 83  1  0
 71 73  1  0
 71 74  2  0
 71147  1  0
 72 73  2  0
 72 85  1  0
 72148  1  0
 73 82  1  0
 74 78  1  0
 74 85  1  0
 75149  1  0
 75150  1  0
 75151  1  0
 76 82  1  0
 76152  1  0
 76153  1  0
 76154  1  0
 77155  1  0
 77156  1  0
 77157  1  0
 78 79  1  0
 78158  1  0
 78159  1  0
 79 83  1  0
 79160  1  0
 79161  1  0
 80 81  1  0
 80 84  1  0
 80162  1  0
 80163  1  0
 81 85  1  0
 81164  1  0
 81165  1  0
 82 75  1  0
 82166  1  0
 83 77  1  0
 83167  1  6
 84 86  1  0
 84 87  1  0
 84168  1  1
 86169  1  0
 87170  1  0
M  ISO  4   1 100  68 101  83 101  86 100
M  END
$$$$
23
     RDKit          3D

152160  0  0  0  0  0  0  0  0999 V2000
  -30.7652  -14.3608   20.6636 C   0  0  0  0  0  0  0  0  0100  0  0
  -30.4392  -12.2669   19.3775 C   0  0  0  0  0  0  0  0  0101  0  0
  -29.4791  -12.5281   18.1977 C   0  0  0  0  0  0  0  0  0102  0  0
  -27.9985  -12.3963   18.6038 C   0  0  0  0  0  0  0  0  0103  0  0
  -27.6639  -13.2170   19.8820 C   0  0  2  0  0  0  0  0  0104  0  0
  -28.6795  -12.9602   21.0279 C   0  0  0  0  0  0  0  0  0105  0  0
  -25.2633  -13.8245   20.5754 C   0  0  0  0  0  0  0  0  0106  0  0
  -24.1645  -13.0409   20.9408 C   0  0  0  0  0  0  0  0  0107  0  0
  -24.6400  -11.7009   20.8697 C   0  0  0  0  0  0  0  0  0108  0  0
  -23.9005  -10.4085   21.0420 C   0  0  0  0  0  0  0  0  0109  0  0
  -24.3588   -9.4123   21.9123 C   0  0  0  0  0  0  0  0  0110  0  0
  -23.6296   -8.2350   22.0803 C   0  0  0  0  0  0  0  0  0111  0  0
  -22.4385   -8.0419   21.3657 C   0  0  0  0  0  0  0  0  0112  0  0
  -22.0103   -9.0167   20.4678 C   0  0  0  0  0  0  0  0  0113  0  0
  -22.7317  -10.1925   20.3102 C   0  0  0  0  0  0  0  0  0114  0  0
  -21.6857   -6.0709   22.5391 C   0  0  0  0  0  0  0  0  0115  0  0
  -21.4064   -6.5490   23.8264 C   0  0  0  0  0  0  0  0  0116  0  0
  -21.3635   -5.6677   24.9085 C   0  0  0  0  0  0  0  0  0117  0  0
  -21.5973   -4.3067   24.7088 C   0  0  0  0  0  0  0  0  0118  0  0
  -21.8700   -3.8284   23.4282 C   0  0  0  0  0  0  0  0  0119  0  0
  -21.9144   -4.7056   22.3460 C   0  0  0  0  0  0  0  0  0120  0  0
  -22.8194  -13.5263   21.1763 C   0  0  0  0  0  0  0  0  0121  0  0
  -22.1559   -4.2206   21.1063 F   0  0  0  0  0  0  0  0  0122  0  0
  -21.5628   -3.4510   25.7555 F   0  0  0  0  0  0  0  0  0123  0  0
  -30.0261  -13.1803   20.4553 N   0  0  0  0  0  0  0  0  0124  0  0
  -26.2911  -12.9356   20.3443 N   0  0  0  0  0  0  0  0  0125  0  0
  -25.9236  -11.6675   20.5847 N   0  0  0  0  0  0  0  0  0126  0  0
  -22.0708  -12.7905   22.0005 N   0  0  0  0  0  0  0  0  0127  0  0
  -25.4117  -15.1773   20.4097 N   0  0  0  0  0  0  0  0  0128  0  0
  -31.7916  -14.6724   20.0536 O   0  0  0  0  0  0  0  0  0129  0  0
  -21.6670   -6.9022   21.4423 O   0  0  0  0  0  0  0  0  0130  0  0
  -22.3946  -14.5564   20.6568 O   0  0  0  0  0  0  0  0  0131  0  0
  -24.6048  -31.8614   23.2223 C   0  0  0  0  0  0  0  0  0100  0  0
  -25.8822  -32.4841   23.8616 C   0  0  1  0  0  0  0  0  0101  0  0
  -27.2536  -27.5042   20.1156 C   0  0  0  0  0  0  0  0  0102  0  0
  -25.5726  -33.8762   24.2210 N   0  0  0  0  0  0  0  0  0103  0  0
  -23.4066  -30.4859   21.5461 C   0  0  2  0  0  0  0  0  0104  0  0
  -24.8467  -28.9636   20.1247 C   0  0  0  0  0  0  0  0  0105  0  0
  -22.7412  -29.4652   22.5052 C   0  0  0  0  0  0  0  0  0106  0  0
  -18.0167  -28.1302   22.8626 C   0  0  0  0  0  0  0  0  0107  0  0
  -24.1342  -36.7390   23.2568 C   0  0  0  0  0  0  0  0  0108  0  0
  -25.9141  -30.8882   21.3456 C   0  0  0  0  0  0  0  0  0109  0  0
  -25.9930  -29.5029   20.7208 C   0  0  0  0  0  0  0  0  0110  0  0
  -27.1758  -28.7612   20.7331 C   0  0  0  0  0  0  0  0  0111  0  0
  -26.1032  -26.9836   19.5230 C   0  0  0  0  0  0  0  0  0112  0  0
  -24.9097  -27.7011   19.5331 C   0  0  0  0  0  0  0  0  0113  0  0
  -23.5715  -29.7899   20.1582 C   0  0  0  0  0  0  0  0  0114  0  0
  -25.3990  -36.3212   24.0232 C   0  0  1  0  0  0  0  0  0115  0  0
  -20.5793  -28.3813   23.1004 C   0  0  2  0  0  0  0  0  0116  0  0
  -20.6548  -26.9392   22.5411 C   0  0  0  0  0  0  0  0  0117  0  0
  -19.5615  -26.6407   21.5143 C   0  0  0  0  0  0  0  0  0118  0  0
  -18.1797  -26.7818   22.1673 C   0  0  0  0  0  0  0  0  0119  0  0
  -19.1385  -28.8769   23.2988 C   0  0  0  0  0  0  0  0  0120  0  0
  -18.9183  -30.1286   23.8878 C   0  0  0  0  0  0  0  0  0121  0  0
  -17.6396  -30.6493   24.0352 C   0  0  0  0  0  0  0  0  0122  0  0
  -25.9153  -34.9582   23.4993 C   0  0  0  0  0  0  0  0  0123  0  0
  -16.5415  -29.9068   23.6254 C   0  0  0  0  0  0  0  0  0124  0  0
  -16.7331  -28.6521   23.0586 C   0  0  0  0  0  0  0  0  0125  0  0
  -26.4583  -31.6439   25.0683 C   0  0  0  0  0  0  0  0  0126  0  0
  -25.3807  -31.3179   26.1374 C   0  0  0  0  0  0  0  0  0127  0  0
  -27.0530  -30.3024   24.5680 C   0  0  0  0  0  0  0  0  0128  0  0
  -27.6014  -32.4281   25.7651 C   0  0  0  0  0  0  0  0  0129  0  0
  -27.5629  -37.2220   24.8621 C   0  0  0  0  0  0  0  0  0130  0  0
  -21.4133  -29.3375   22.3735 N   0  0  0  0  0  0  0  0  0131  0  0
  -26.4706  -37.3372   23.9061 N   0  0  0  0  0  0  0  0  0132  0  0
  -24.6674  -31.0544   22.1178 N   0  0  0  0  0  0  0  0  0133  0  0
  -23.4259  -28.8150   23.2971 O   0  0  0  0  0  0  0  0  0134  0  0
  -28.3948  -26.7345   20.0089 O   0  0  0  0  0  0  0  0  0135  0  0
  -26.5870  -34.9065   22.4671 O   0  0  0  0  0  0  0  0  0136  0  0
  -23.5365  -32.1254   23.7833 O   0  0  0  0  0  0  0  0  0137  0  0
  -31.0935  -21.5686   20.3391 C   0  0  0  0  0  0  0  0  0  0  0  0
  -30.1231  -22.4744   19.9253 C   0  0  0  0  0  0  0  0  0  0  0  0
  -31.7521  -21.3162   18.0677 C   0  0  0  0  0  0  0  0  0  0  0  0
  -31.9276  -20.9741   19.3988 C   0  0  0  0  0  0  0  0  0  0  0  0
  -30.0284  -22.7495   18.5706 C   0  0  0  0  0  0  0  0  0  0  0  0
  -31.6965  -18.0872   22.1834 C   0  0  0  0  0  0  0  0  0  0  0  0
  -32.9898  -19.9888   19.8166 C   0  0  0  0  0  0  0  0  0  0  0  0
  -32.5080  -18.5309   19.8385 C   0  0  0  0  0  0  0  0  0  0  0  0
  -31.2841  -18.2908   20.7311 C   0  0  2  0  0  0  0  0  0  1  0  0
  -30.8207  -22.1918   17.6278 N   0  0  0  0  0  0  0  0  0  0  0  0
  -29.0362  -23.6738   18.1596 N   0  0  0  0  0  0  0  0  0  0  0  0
  -31.4485  -12.4701   19.0860 H   0  0  0  0  0  0  0  0  0  0  0  0
  -30.3970  -11.2460   19.6950 H   0  0  0  0  0  0  0  0  0  0  0  0
  -29.6870  -11.8204   17.4226 H   0  0  0  0  0  0  0  0  0  0  0  0
  -29.6375  -13.5326   17.8649 H   0  0  0  0  0  0  0  0  0  0  0  0
  -27.7830  -11.3650   18.7904 H   0  0  0  0  0  0  0  0  0  0  0  0
  -27.4028  -12.7801   17.8021 H   0  0  0  0  0  0  0  0  0  0  0  0
  -27.7353  -14.2503   19.6136 H   0  0  0  0  0  0  0  0  0  0  0  0
  -28.5890  -11.9550   21.3832 H   0  0  0  0  0  0  0  0  0  0  0  0
  -28.5005  -13.6134   21.8562 H   0  0  0  0  0  0  0  0  0  0  0  0
  -25.2399   -9.5495   22.4318 H   0  0  0  0  0  0  0  0  0  0  0  0
  -23.9663   -7.5070   22.7297 H   0  0  0  0  0  0  0  0  0  0  0  0
  -21.1515   -8.8641   19.9162 H   0  0  0  0  0  0  0  0  0  0  0  0
  -22.4016  -10.9115   19.6476 H   0  0  0  0  0  0  0  0  0  0  0  0
  -21.2319   -7.5552   23.9750 H   0  0  0  0  0  0  0  0  0  0  0  0
  -21.1589   -6.0228   25.8556 H   0  0  0  0  0  0  0  0  0  0  0  0
  -22.0396   -2.8212   23.2809 H   0  0  0  0  0  0  0  0  0  0  0  0
  -22.4401  -11.9703   22.4008 H   0  0  0  0  0  0  0  0  0  0  0  0
  -21.1493  -13.0679   22.2082 H   0  0  0  0  0  0  0  0  0  0  0  0
  -24.6538  -15.7807   20.5848 H   0  0  0  0  0  0  0  0  0  0  0  0
  -26.2762  -15.5453   20.1156 H   0  0  0  0  0  0  0  0  0  0  0  0
  -26.6778  -32.4663   23.1464 H   0  0  0  0  0  0  0  0  0  0  0  0
  -25.0747  -34.0282   25.0566 H   0  0  0  0  0  0  0  0  0  0  0  0
  -22.7881  -31.3489   21.4131 H   0  0  0  0  0  0  0  0  0  0  0  0
  -23.3854  -35.9823   23.3648 H   0  0  0  0  0  0  0  0  0  0  0  0
  -24.3696  -36.8624   22.2204 H   0  0  0  0  0  0  0  0  0  0  0  0
  -23.7669  -37.6632   23.6516 H   0  0  0  0  0  0  0  0  0  0  0  0
  -25.9445  -31.6237   20.5691 H   0  0  0  0  0  0  0  0  0  0  0  0
  -26.7436  -31.0079   22.0108 H   0  0  0  0  0  0  0  0  0  0  0  0
  -28.0090  -29.1452   21.2057 H   0  0  0  0  0  0  0  0  0  0  0  0
  -26.1369  -26.0560   19.0719 H   0  0  0  0  0  0  0  0  0  0  0  0
  -24.0652  -27.2961   19.0997 H   0  0  0  0  0  0  0  0  0  0  0  0
  -23.6156  -30.5365   19.3930 H   0  0  0  0  0  0  0  0  0  0  0  0
  -22.7355  -29.1425   19.9945 H   0  0  0  0  0  0  0  0  0  0  0  0
  -25.1353  -36.2335   25.0565 H   0  0  0  0  0  0  0  0  0  0  0  0
  -21.0070  -28.3206   24.0793 H   0  0  0  0  0  0  0  0  0  0  0  0
  -20.5555  -26.2518   23.3550 H   0  0  0  0  0  0  0  0  0  0  0  0
  -21.5974  -26.8362   22.0454 H   0  0  0  0  0  0  0  0  0  0  0  0
  -19.6810  -25.6422   21.1488 H   0  0  0  0  0  0  0  0  0  0  0  0
  -19.6406  -27.3343   20.7034 H   0  0  0  0  0  0  0  0  0  0  0  0
  -17.4282  -26.6888   21.4113 H   0  0  0  0  0  0  0  0  0  0  0  0
  -18.0803  -26.0130   22.9049 H   0  0  0  0  0  0  0  0  0  0  0  0
  -19.7265  -30.6774   24.2204 H   0  0  0  0  0  0  0  0  0  0  0  0
  -17.5064  -31.5856   24.4483 H   0  0  0  0  0  0  0  0  0  0  0  0
  -15.5878  -30.2839   23.7407 H   0  0  0  0  0  0  0  0  0  0  0  0
  -15.9120  -28.0941   22.7766 H   0  0  0  0  0  0  0  0  0  0  0  0
  -24.5787  -30.7757   25.6817 H   0  0  0  0  0  0  0  0  0  0  0  0
  -25.0041  -32.2289   26.5536 H   0  0  0  0  0  0  0  0  0  0  0  0
  -25.8166  -30.7245   26.9138 H   0  0  0  0  0  0  0  0  0  0  0  0
  -26.2892  -29.7335   24.0803 H   0  0  0  0  0  0  0  0  0  0  0  0
  -27.4336  -29.7484   25.4006 H   0  0  0  0  0  0  0  0  0  0  0  0
  -27.8466  -30.4994   23.8779 H   0  0  0  0  0  0  0  0  0  0  0  0
  -27.2251  -33.3632   26.1242 H   0  0  0  0  0  0  0  0  0  0  0  0
  -28.3902  -32.6065   25.0645 H   0  0  0  0  0  0  0  0  0  0  0  0
  -27.9772  -31.8555   26.5872 H   0  0  0  0  0  0  0  0  0  0  0  0
  -28.2744  -38.0016   24.6863 H   0  0  0  0  0  0  0  0  0  0  0  0
  -28.0396  -36.2711   24.7461 H   0  0  0  0  0  0  0  0  0  0  0  0
  -27.1773  -37.3087   25.8564 H   0  0  0  0  0  0  0  0  0  0  0  0
  -20.9627  -29.9365   21.7352 H   0  0  0  0  0  0  0  0  0  0  0  0
  -26.0447  -38.2561   24.0273 H   0  0  0  0  0  0  0  0  0  0  0  0
  -31.1942  -21.3385   21.3401 H   0  0  0  0  0  0  0  0  0  0  0  0
  -29.4932  -22.9275   20.6057 H   0  0  0  0  0  0  0  0  0  0  0  0
  -32.3705  -20.8754   17.3689 H   0  0  0  0  0  0  0  0  0  0  0  0
  -32.0504  -17.0863   22.3167 H   0  0  0  0  0  0  0  0  0  0  0  0
  -30.8534  -18.2552   22.8205 H   0  0  0  0  0  0  0  0  0  0  0  0
  -32.4753  -18.7771   22.4331 H   0  0  0  0  0  0  0  0  0  0  0  0
  -33.3233  -20.2488   20.7995 H   0  0  0  0  0  0  0  0  0  0  0  0
  -33.7728  -20.0476   19.0898 H   0  0  0  0  0  0  0  0  0  0  0  0
  -33.3092  -17.9173   20.1941 H   0  0  0  0  0  0  0  0  0  0  0  0
  -32.2142  -18.2873   18.8389 H   0  0  0  0  0  0  0  0  0  0  0  0
  -30.6479  -17.4670   20.4832 H   0  0  0  0  0  0  0  0  0  0  0  0
  -28.5835  -24.5014   17.8779 H   0  0  0  0  0  0  0  0  0  0  0  0
  1 25  1  0
  1 30  2  0
  1 81  1  0
  2  3  1  0
  2 25  1  0
  2 82  1  0
  2 83  1  0
  3  4  1  0
  3 84  1  0
  3 85  1  0
  4  5  1  0
  4 86  1  0
  4 87  1  0
  5  6  1  0
  5 26  1  0
  5 88  1  6
  6 25  1  0
  6 89  1  0
  6 90  1  0
  7  8  2  0
  7 26  1  0
  7 29  1  0
  8  9  1  0
  8 22  1  0
  9 10  1  0
  9 27  2  0
 10 11  2  0
 10 15  1  0
 11 12  1  0
 11 91  1  0
 12 13  2  0
 12 92  1  0
 13 14  1  0
 13 31  1  0
 14 15  2  0
 14 93  1  0
 15 94  1  0
 16 17  2  0
 16 21  1  0
 16 31  1  0
 17 18  1  0
 17 95  1  0
 18 19  2  0
 18 96  1  0
 19 20  1  0
 19 24  1  0
 20 21  2  0
 20 97  1  0
 21 23  1  0
 22 28  1  0
 22 32  2  0
 26 27  1  0
 28 98  1  0
 28 99  1  0
 29100  1  0
 29101  1  0
 33 34  1  0
 33 66  1  0
 33 70  2  0
 34 36  1  0
 34 59  1  0
 34102  1  6
 35 44  2  0
 35 45  1  0
 35 68  1  0
 36 56  1  0
 36103  1  0
 37 39  1  0
 37 47  1  0
 37 66  1  0
 37104  1  6
 38 43  2  0
 38 46  1  0
 38 47  1  0
 39 64  1  0
 39 67  2  0
 40 52  1  0
 40 53  2  0
 40 58  1  0
 41105  1  0
 41106  1  0
 41107  1  0
 42 43  1  0
 42 66  1  0
 42108  1  0
 42109  1  0
 43 44  1  0
 44110  1  0
 45 46  2  0
 45111  1  0
 46112  1  0
 47113  1  0
 47114  1  0
 48 41  1  0
 48 56  1  0
 48 65  1  0
 48115  1  1
 49 50  1  0
 49 53  1  0
 49 64  1  0
 49116  1  1
 50 51  1  0
 50117  1  0
 50118  1  0
 51 52  1  0
 51119  1  0
 51120  1  0
 52121  1  0
 52122  1  0
 53 54  1  0
 54 55  2  0
 54123  1  0
 55 57  1  0
 55124  1  0
 56 69  2  0
 57 58  2  0
 57125  1  0
 58126  1  0
 59 60  1  0
 59 61  1  0
 59 62  1  0
 60127  1  0
 60128  1  0
 60129  1  0
 61130  1  0
 61131  1  0
 61132  1  0
 62133  1  0
 62134  1  0
 62135  1  0
 63 65  1  0
 63136  1  0
 63137  1  0
 63138  1  0
 64139  1  0
 65140  1  0
 68 79  1  0
 71 72  2  0
 71 74  1  0
 71141  1  0
 72 75  1  0
 72142  1  0
 73 74  2  0
 73 80  1  0
 73143  1  0
 74 77  1  0
 75 80  2  0
 75 81  1  0
 76144  1  0
 76145  1  0
 76146  1  0
 77 78  1  0
 77147  1  0
 77148  1  0
 78 79  1  0
 78149  1  0
 78150  1  0
 79 76  1  0
 79151  1  6
 81152  1  0
M  ISO  4   1 100  68 101  79 101  81 100
M  END
$$$$
24
     RDKit          3D

174182  0  0  0  0  0  0  0  0999 V2000
  -30.7652  -14.3608   20.6636 C   0  0  0  0  0  0  0  0  0100  0  0
  -30.4392  -12.2669   19.3775 C   0  0  0  0  0  0  0  0  0101  0  0
  -29.4791  -12.5281   18.1977 C   0  0  0  0  0  0  0  0  0102  0  0
  -27.9985  -12.3963   18.6038 C   0  0  0  0  0  0  0  0  0103  0  0
  -27.6639  -13.2170   19.8820 C   0  0  2  0  0  0  0  0  0104  0  0
  -28.6795  -12.9602   21.0279 C   0  0  0  0  0  0  0  0  0105  0  0
  -25.2633  -13.8245   20.5754 C   0  0  0  0  0  0  0  0  0106  0  0
  -24.1645  -13.0409   20.9408 C   0  0  0  0  0  0  0  0  0107  0  0
  -24.6400  -11.7009   20.8697 C   0  0  0  0  0  0  0  0  0108  0  0
  -23.9005  -10.4085   21.0420 C   0  0  0  0  0  0  0  0  0109  0  0
  -24.3588   -9.4123   21.9123 C   0  0  0  0  0  0  0  0  0110  0  0
  -23.6296   -8.2350   22.0803 C   0  0  0  0  0  0  0  0  0111  0  0
  -22.4385   -8.0419   21.3657 C   0  0  0  0  0  0  0  0  0112  0  0
  -22.0103   -9.0167   20.4678 C   0  0  0  0  0  0  0  0  0113  0  0
  -22.7317  -10.1925   20.3102 C   0  0  0  0  0  0  0  0  0114  0  0
  -21.6857   -6.0709   22.5391 C   0  0  0  0  0  0  0  0  0115  0  0
  -21.4064   -6.5490   23.8264 C   0  0  0  0  0  0  0  0  0116  0  0
  -21.3635   -5.6677   24.9085 C   0  0  0  0  0  0  0  0  0117  0  0
  -21.5973   -4.3067   24.7088 C   0  0  0  0  0  0  0  0  0118  0  0
  -21.8700   -3.8284   23.4282 C   0  0  0  0  0  0  0  0  0119  0  0
  -21.9144   -4.7056   22.3460 C   0  0  0  0  0  0  0  0  0120  0  0
  -22.8194  -13.5263   21.1763 C   0  0  0  0  0  0  0  0  0121  0  0
  -22.1559   -4.2206   21.1063 F   0  0  0  0  0  0  0  0  0122  0  0
  -21.5628   -3.4510   25.7555 F   0  0  0  0  0  0  0  0  0123  0  0
  -30.0261  -13.1803   20.4553 N   0  0  0  0  0  0  0  0  0124  0  0
  -26.2911  -12.9356   20.3443 N   0  0  0  0  0  0  0  0  0125  0  0
  -25.9236  -11.6675   20.5847 N   0  0  0  0  0  0  0  0  0126  0  0
  -22.0708  -12.7905   22.0005 N   0  0  0  0  0  0  0  0  0127  0  0
  -25.4117  -15.1773   20.4097 N   0  0  0  0  0  0  0  0  0128  0  0
  -31.7916  -14.6724   20.0536 O   0  0  0  0  0  0  0  0  0129  0  0
  -21.6670   -6.9022   21.4423 O   0  0  0  0  0  0  0  0  0130  0  0
  -22.3946  -14.5564   20.6568 O   0  0  0  0  0  0  0  0  0131  0  0
  -24.6048  -31.8614   23.2223 C   0  0  0  0  0  0  0  0  0100  0  0
  -25.8822  -32.4841   23.8616 C   0  0  1  0  0  0  0  0  0101  0  0
  -27.2536  -27.5042   20.1156 C   0  0  0  0  0  0  0  0  0102  0  0
  -25.5726  -33.8762   24.2210 N   0  0  0  0  0  0  0  0  0103  0  0
  -23.4066  -30.4859   21.5461 C   0  0  2  0  0  0  0  0  0104  0  0
  -24.8467  -28.9636   20.1247 C   0  0  0  0  0  0  0  0  0105  0  0
  -22.7412  -29.4652   22.5052 C   0  0  0  0  0  0  0  0  0106  0  0
  -18.0167  -28.1302   22.8626 C   0  0  0  0  0  0  0  0  0107  0  0
  -24.1342  -36.7390   23.2568 C   0  0  0  0  0  0  0  0  0108  0  0
  -25.9141  -30.8882   21.3456 C   0  0  0  0  0  0  0  0  0109  0  0
  -25.9930  -29.5029   20.7208 C   0  0  0  0  0  0  0  0  0110  0  0
  -27.1758  -28.7612   20.7331 C   0  0  0  0  0  0  0  0  0111  0  0
  -26.1032  -26.9836   19.5230 C   0  0  0  0  0  0  0  0  0112  0  0
  -24.9097  -27.7011   19.5331 C   0  0  0  0  0  0  0  0  0113  0  0
  -23.5715  -29.7899   20.1582 C   0  0  0  0  0  0  0  0  0114  0  0
  -25.3990  -36.3212   24.0232 C   0  0  1  0  0  0  0  0  0115  0  0
  -20.5793  -28.3813   23.1004 C   0  0  2  0  0  0  0  0  0116  0  0
  -20.6548  -26.9392   22.5411 C   0  0  0  0  0  0  0  0  0117  0  0
  -19.5615  -26.6407   21.5143 C   0  0  0  0  0  0  0  0  0118  0  0
  -18.1797  -26.7818   22.1673 C   0  0  0  0  0  0  0  0  0119  0  0
  -19.1385  -28.8769   23.2988 C   0  0  0  0  0  0  0  0  0120  0  0
  -18.9183  -30.1286   23.8878 C   0  0  0  0  0  0  0  0  0121  0  0
  -17.6396  -30.6493   24.0352 C   0  0  0  0  0  0  0  0  0122  0  0
  -25.9153  -34.9582   23.4993 C   0  0  0  0  0  0  0  0  0123  0  0
  -16.5415  -29.9068   23.6254 C   0  0  0  0  0  0  0  0  0124  0  0
  -16.7331  -28.6521   23.0586 C   0  0  0  0  0  0  0  0  0125  0  0
  -26.4583  -31.6439   25.0683 C   0  0  0  0  0  0  0  0  0126  0  0
  -25.3807  -31.3179   26.1374 C   0  0  0  0  0  0  0  0  0127  0  0
  -27.0530  -30.3024   24.5680 C   0  0  0  0  0  0  0  0  0128  0  0
  -27.6014  -32.4281   25.7651 C   0  0  0  0  0  0  0  0  0129  0  0
  -27.5629  -37.2220   24.8621 C   0  0  0  0  0  0  0  0  0130  0  0
  -21.4133  -29.3375   22.3735 N   0  0  0  0  0  0  0  0  0131  0  0
  -26.4706  -37.3372   23.9061 N   0  0  0  0  0  0  0  0  0132  0  0
  -24.6674  -31.0544   22.1178 N   0  0  0  0  0  0  0  0  0133  0  0
  -23.4259  -28.8150   23.2971 O   0  0  0  0  0  0  0  0  0134  0  0
  -28.3948  -26.7345   20.0089 O   0  0  0  0  0  0  0  0  0135  0  0
  -26.5870  -34.9065   22.4671 O   0  0  0  0  0  0  0  0  0136  0  0
  -23.5365  -32.1254   23.7833 O   0  0  0  0  0  0  0  0  0137  0  0
  -19.0962  -28.8730   21.8114 C   0  0  0  0  0  0  0  0  0  0  0  0
  -20.3099  -26.9623   22.9230 C   0  0  0  0  0  0  0  0  0  0  0  0
  -17.7642  -28.2397   22.1916 C   0  0  0  0  0  0  0  0  0  0  0  0
  -18.9717  -26.3380   23.2963 C   0  0  0  0  0  0  0  0  0  0  0  0
  -20.2038  -28.4815   22.7901 C   0  0  1  0  0  0  0  0  0  0  0  0
  -14.8917  -25.6073   24.3845 C   0  0  0  0  0  0  0  0  0  0  0  0
  -15.9645  -24.9279   19.7251 C   0  0  0  0  0  0  0  0  0  0  0  0
  -16.2524  -26.1909   24.0266 C   0  0  0  0  0  0  0  0  0  0  0  0
  -18.4407  -22.1354   20.9292 C   0  0  0  0  0  0  0  0  0  0  0  0
  -17.1656  -22.7808   20.3707 C   0  0  0  0  0  0  0  0  0  0  0  0
  -16.7194  -24.5740   22.1373 C   0  0  0  0  0  0  0  0  0  0  0  0
  -18.4822  -20.6332   20.6658 C   0  0  0  0  0  0  0  0  0  1  0  0
  -17.0103  -24.2947   20.6459 C   0  0  2  0  0  0  0  0  0  0  0  0
  -16.6132  -26.0559   22.5396 C   0  0  2  0  0  0  0  0  0  0  0  0
  -21.4683  -29.0451   22.3852 N   0  0  0  0  0  0  0  0  0  0  0  0
  -17.9272  -26.7416   22.2837 N   0  0  1  0  0  0  0  0  0  0  0  0
  -31.4485  -12.4701   19.0860 H   0  0  0  0  0  0  0  0  0  0  0  0
  -30.3970  -11.2460   19.6950 H   0  0  0  0  0  0  0  0  0  0  0  0
  -29.6870  -11.8204   17.4226 H   0  0  0  0  0  0  0  0  0  0  0  0
  -29.6375  -13.5326   17.8649 H   0  0  0  0  0  0  0  0  0  0  0  0
  -27.7830  -11.3650   18.7904 H   0  0  0  0  0  0  0  0  0  0  0  0
  -27.4028  -12.7801   17.8021 H   0  0  0  0  0  0  0  0  0  0  0  0
  -27.7353  -14.2503   19.6136 H   0  0  0  0  0  0  0  0  0  0  0  0
  -28.5890  -11.9550   21.3832 H   0  0  0  0  0  0  0  0  0  0  0  0
  -28.5005  -13.6134   21.8562 H   0  0  0  0  0  0  0  0  0  0  0  0
  -25.2399   -9.5495   22.4318 H   0  0  0  0  0  0  0  0  0  0  0  0
  -23.9663   -7.5070   22.7297 H   0  0  0  0  0  0  0  0  0  0  0  0
  -21.1515   -8.8641   19.9162 H   0  0  0  0  0  0  0  0  0  0  0  0
  -22.4016  -10.9115   19.6476 H   0  0  0  0  0  0  0  0  0  0  0  0
  -21.2319   -7.5552   23.9750 H   0  0  0  0  0  0  0  0  0  0  0  0
  -21.1589   -6.0228   25.8556 H   0  0  0  0  0  0  0  0  0  0  0  0
  -22.0396   -2.8212   23.2809 H   0  0  0  0  0  0  0  0  0  0  0  0
  -22.4401  -11.9703   22.4008 H   0  0  0  0  0  0  0  0  0  0  0  0
  -21.1493  -13.0679   22.2082 H   0  0  0  0  0  0  0  0  0  0  0  0
  -24.6538  -15.7807   20.5848 H   0  0  0  0  0  0  0  0  0  0  0  0
  -26.2762  -15.5453   20.1156 H   0  0  0  0  0  0  0  0  0  0  0  0
  -26.6778  -32.4663   23.1464 H   0  0  0  0  0  0  0  0  0  0  0  0
  -25.0747  -34.0282   25.0566 H   0  0  0  0  0  0  0  0  0  0  0  0
  -22.7881  -31.3489   21.4131 H   0  0  0  0  0  0  0  0  0  0  0  0
  -23.3854  -35.9823   23.3648 H   0  0  0  0  0  0  0  0  0  0  0  0
  -24.3696  -36.8624   22.2204 H   0  0  0  0  0  0  0  0  0  0  0  0
  -23.7669  -37.6632   23.6516 H   0  0  0  0  0  0  0  0  0  0  0  0
  -25.9445  -31.6237   20.5691 H   0  0  0  0  0  0  0  0  0  0  0  0
  -26.7436  -31.0079   22.0108 H   0  0  0  0  0  0  0  0  0  0  0  0
  -28.0090  -29.1452   21.2057 H   0  0  0  0  0  0  0  0  0  0  0  0
  -26.1369  -26.0560   19.0719 H   0  0  0  0  0  0  0  0  0  0  0  0
  -24.0652  -27.2961   19.0997 H   0  0  0  0  0  0  0  0  0  0  0  0
  -23.6156  -30.5365   19.3930 H   0  0  0  0  0  0  0  0  0  0  0  0
  -22.7355  -29.1425   19.9945 H   0  0  0  0  0  0  0  0  0  0  0  0
  -25.1353  -36.2335   25.0565 H   0  0  0  0  0  0  0  0  0  0  0  0
  -21.0070  -28.3206   24.0793 H   0  0  0  0  0  0  0  0  0  0  0  0
  -20.5555  -26.2518   23.3550 H   0  0  0  0  0  0  0  0  0  0  0  0
  -21.5974  -26.8362   22.0454 H   0  0  0  0  0  0  0  0  0  0  0  0
  -19.6810  -25.6422   21.1488 H   0  0  0  0  0  0  0  0  0  0  0  0
  -19.6406  -27.3343   20.7034 H   0  0  0  0  0  0  0  0  0  0  0  0
  -17.4282  -26.6888   21.4113 H   0  0  0  0  0  0  0  0  0  0  0  0
  -18.0803  -26.0130   22.9049 H   0  0  0  0  0  0  0  0  0  0  0  0
  -19.7265  -30.6774   24.2204 H   0  0  0  0  0  0  0  0  0  0  0  0
  -17.5064  -31.5856   24.4483 H   0  0  0  0  0  0  0  0  0  0  0  0
  -15.5878  -30.2839   23.7407 H   0  0  0  0  0  0  0  0  0  0  0  0
  -15.9120  -28.0941   22.7766 H   0  0  0  0  0  0  0  0  0  0  0  0
  -24.5787  -30.7757   25.6817 H   0  0  0  0  0  0  0  0  0  0  0  0
  -25.0041  -32.2289   26.5536 H   0  0  0  0  0  0  0  0  0  0  0  0
  -25.8166  -30.7245   26.9138 H   0  0  0  0  0  0  0  0  0  0  0  0
  -26.2892  -29.7335   24.0803 H   0  0  0  0  0  0  0  0  0  0  0  0
  -27.4336  -29.7484   25.4006 H   0  0  0  0  0  0  0  0  0  0  0  0
  -27.8466  -30.4994   23.8779 H   0  0  0  0  0  0  0  0  0  0  0  0
  -27.2251  -33.3632   26.1242 H   0  0  0  0  0  0  0  0  0  0  0  0
  -28.3902  -32.6065   25.0645 H   0  0  0  0  0  0  0  0  0  0  0  0
  -27.9772  -31.8555   26.5872 H   0  0  0  0  0  0  0  0  0  0  0  0
  -28.2744  -38.0016   24.6863 H   0  0  0  0  0  0  0  0  0  0  0  0
  -28.0396  -36.2711   24.7461 H   0  0  0  0  0  0  0  0  0  0  0  0
  -27.1773  -37.3087   25.8564 H   0  0  0  0  0  0  0  0  0  0  0  0
  -20.9627  -29.9365   21.7352 H   0  0  0  0  0  0  0  0  0  0  0  0
  -26.0447  -38.2561   24.0273 H   0  0  0  0  0  0  0  0  0  0  0  0
  -18.9887  -29.9376   21.8161 H   0  0  0  0  0  0  0  0  0  0  0  0
  -19.3690  -28.5214   20.8383 H   0  0  0  0  0  0  0  0  0  0  0  0
  -20.6353  -26.5538   21.9891 H   0  0  0  0  0  0  0  0  0  0  0  0
  -21.0108  -26.7423   23.7009 H   0  0  0  0  0  0  0  0  0  0  0  0
  -17.0325  -28.4737   21.4468 H   0  0  0  0  0  0  0  0  0  0  0  0
  -17.4446  -28.6225   23.1383 H   0  0  0  0  0  0  0  0  0  0  0  0
  -18.6777  -26.6789   24.2670 H   0  0  0  0  0  0  0  0  0  0  0  0
  -19.0659  -25.2722   23.3055 H   0  0  0  0  0  0  0  0  0  0  0  0
  -19.9487  -28.8808   23.7495 H   0  0  0  0  0  0  0  0  0  0  0  0
  -14.7116  -25.7381   25.4311 H   0  0  0  0  0  0  0  0  0  0  0  0
  -14.8777  -24.5639   24.1478 H   0  0  0  0  0  0  0  0  0  0  0  0
  -14.1299  -26.1100   23.8260 H   0  0  0  0  0  0  0  0  0  0  0  0
  -16.2068  -24.7085   18.7062 H   0  0  0  0  0  0  0  0  0  0  0  0
  -15.9572  -25.9881   19.8696 H   0  0  0  0  0  0  0  0  0  0  0  0
  -14.9984  -24.5298   19.9557 H   0  0  0  0  0  0  0  0  0  0  0  0
  -16.9987  -25.6843   24.6022 H   0  0  0  0  0  0  0  0  0  0  0  0
  -16.2091  -27.2379   24.2430 H   0  0  0  0  0  0  0  0  0  0  0  0
  -18.4785  -22.3023   21.9854 H   0  0  0  0  0  0  0  0  0  0  0  0
  -19.2800  -22.5810   20.4372 H   0  0  0  0  0  0  0  0  0  0  0  0
  -16.3254  -22.2792   20.8035 H   0  0  0  0  0  0  0  0  0  0  0  0
  -17.2270  -22.6803   19.3072 H   0  0  0  0  0  0  0  0  0  0  0  0
  -17.5077  -24.1347   22.7122 H   0  0  0  0  0  0  0  0  0  0  0  0
  -15.7531  -24.1547   22.3255 H   0  0  0  0  0  0  0  0  0  0  0  0
  -18.0415  -20.2371   19.7749 H   0  0  0  0  0  0  0  0  0  0  0  0
  -18.1693  -19.7673   21.2110 H   0  0  0  0  0  0  0  0  0  0  0  0
  -17.9464  -24.7613   20.4204 H   0  0  0  0  0  0  0  0  0  0  0  0
  -15.8420  -26.5124   21.9550 H   0  0  0  0  0  0  0  0  0  0  0  0
  -21.7308  -29.9838   22.2464 H   0  0  0  0  0  0  0  0  0  0  0  0
  -18.2652  -26.4277   21.3739 H   0  0  0  0  0  0  0  0  0  0  0  0
  1 25  1  0
  1 30  2  0
  1 85  1  0
  2  3  1  0
  2 25  1  0
  2 87  1  0
  2 88  1  0
  3  4  1  0
  3 89  1  0
  3 90  1  0
  4  5  1  0
  4 91  1  0
  4 92  1  0
  5  6  1  0
  5 26  1  0
  5 93  1  6
  6 25  1  0
  6 94  1  0
  6 95  1  0
  7  8  2  0
  7 26  1  0
  7 29  1  0
  8  9  1  0
  8 22  1  0
  9 10  1  0
  9 27  2  0
 10 11  2  0
 10 15  1  0
 11 12  1  0
 11 96  1  0
 12 13  2  0
 12 97  1  0
 13 14  1  0
 13 31  1  0
 14 15  2  0
 14 98  1  0
 15 99  1  0
 16 17  2  0
 16 21  1  0
 16 31  1  0
 17 18  1  0
 17100  1  0
 18 19  2  0
 18101  1  0
 19 20  1  0
 19 24  1  0
 20 21  2  0
 20102  1  0
 21 23  1  0
 22 28  1  0
 22 32  2  0
 26 27  1  0
 28103  1  0
 28104  1  0
 29105  1  0
 29106  1  0
 33 34  1  0
 33 66  1  0
 33 70  2  0
 34 36  1  0
 34 59  1  0
 34107  1  6
 35 44  2  0
 35 45  1  0
 35 68  1  0
 36 56  1  0
 36108  1  0
 37 39  1  0
 37 47  1  0
 37 66  1  0
 37109  1  6
 38 43  2  0
 38 46  1  0
 38 47  1  0
 39 64  1  0
 39 67  2  0
 40 52  1  0
 40 53  2  0
 40 58  1  0
 41110  1  0
 41111  1  0
 41112  1  0
 42 43  1  0
 42 66  1  0
 42113  1  0
 42114  1  0
 43 44  1  0
 44115  1  0
 45 46  2  0
 45116  1  0
 46117  1  0
 47118  1  0
 47119  1  0
 48 41  1  0
 48 56  1  0
 48 65  1  0
 48120  1  1
 49 50  1  0
 49 53  1  0
 49 64  1  0
 49121  1  1
 50 51  1  0
 50122  1  0
 50123  1  0
 51 52  1  0
 51124  1  0
 51125  1  0
 52126  1  0
 52127  1  0
 53 54  1  0
 54 55  2  0
 54128  1  0
 55 57  1  0
 55129  1  0
 56 69  2  0
 57 58  2  0
 57130  1  0
 58131  1  0
 59 60  1  0
 59 61  1  0
 59 62  1  0
 60132  1  0
 60133  1  0
 60134  1  0
 61135  1  0
 61136  1  0
 61137  1  0
 62138  1  0
 62139  1  0
 62140  1  0
 63 65  1  0
 63141  1  0
 63142  1  0
 63143  1  0
 64144  1  0
 65145  1  0
 68 82  1  0
 71 73  1  0
 71 75  1  0
 71146  1  0
 71147  1  0
 72 74  1  0
 72 75  1  0
 72148  1  0
 72149  1  0
 73150  1  0
 73151  1  0
 74 86  1  0
 74152  1  0
 74153  1  0
 75 85  1  0
 75154  1  1
 76 78  1  0
 76155  1  0
 76156  1  0
 76157  1  0
 77158  1  0
 77159  1  0
 77160  1  0
 78161  1  0
 78162  1  0
 79 80  1  0
 79 82  1  0
 79163  1  0
 79164  1  0
 80 83  1  0
 80165  1  0
 80166  1  0
 81 83  1  0
 81 84  1  0
 81167  1  0
 81168  1  0
 82169  1  0
 82170  1  0
 83 77  1  0
 83171  1  6
 84 78  1  0
 84 86  1  0
 84172  1  6
 85173  1  0
 86 73  1  0
 86174  1  6
M  CHG  1  86   1
M  ISO  4   1 100  68 101  82 101  85 100
M  END
$$$$
25
     RDKit          3D

172180  0  0  0  0  0  0  0  0999 V2000
  -30.7652  -14.3608   20.6636 C   0  0  0  0  0  0  0  0  0100  0  0
  -30.4392  -12.2669   19.3775 C   0  0  0  0  0  0  0  0  0101  0  0
  -29.4791  -12.5281   18.1977 C   0  0  0  0  0  0  0  0  0102  0  0
  -27.9985  -12.3963   18.6038 C   0  0  0  0  0  0  0  0  0103  0  0
  -27.6639  -13.2170   19.8820 C   0  0  2  0  0  0  0  0  0104  0  0
  -28.6795  -12.9602   21.0279 C   0  0  0  0  0  0  0  0  0105  0  0
  -25.2633  -13.8245   20.5754 C   0  0  0  0  0  0  0  0  0106  0  0
  -24.1645  -13.0409   20.9408 C   0  0  0  0  0  0  0  0  0107  0  0
  -24.6400  -11.7009   20.8697 C   0  0  0  0  0  0  0  0  0108  0  0
  -23.9005  -10.4085   21.0420 C   0  0  0  0  0  0  0  0  0109  0  0
  -24.3588   -9.4123   21.9123 C   0  0  0  0  0  0  0  0  0110  0  0
  -23.6296   -8.2350   22.0803 C   0  0  0  0  0  0  0  0  0111  0  0
  -22.4385   -8.0419   21.3657 C   0  0  0  0  0  0  0  0  0112  0  0
  -22.0103   -9.0167   20.4678 C   0  0  0  0  0  0  0  0  0113  0  0
  -22.7317  -10.1925   20.3102 C   0  0  0  0  0  0  0  0  0114  0  0
  -21.6857   -6.0709   22.5391 C   0  0  0  0  0  0  0  0  0115  0  0
  -21.4064   -6.5490   23.8264 C   0  0  0  0  0  0  0  0  0116  0  0
  -21.3635   -5.6677   24.9085 C   0  0  0  0  0  0  0  0  0117  0  0
  -21.5973   -4.3067   24.7088 C   0  0  0  0  0  0  0  0  0118  0  0
  -21.8700   -3.8284   23.4282 C   0  0  0  0  0  0  0  0  0119  0  0
  -21.9144   -4.7056   22.3460 C   0  0  0  0  0  0  0  0  0120  0  0
  -22.8194  -13.5263   21.1763 C   0  0  0  0  0  0  0  0  0121  0  0
  -22.1559   -4.2206   21.1063 F   0  0  0  0  0  0  0  0  0122  0  0
  -21.5628   -3.4510   25.7555 F   0  0  0  0  0  0  0  0  0123  0  0
  -30.0261  -13.1803   20.4553 N   0  0  0  0  0  0  0  0  0124  0  0
  -26.2911  -12.9356   20.3443 N   0  0  0  0  0  0  0  0  0125  0  0
  -25.9236  -11.6675   20.5847 N   0  0  0  0  0  0  0  0  0126  0  0
  -22.0708  -12.7905   22.0005 N   0  0  0  0  0  0  0  0  0127  0  0
  -25.4117  -15.1773   20.4097 N   0  0  0  0  0  0  0  0  0128  0  0
  -31.7916  -14.6724   20.0536 O   0  0  0  0  0  0  0  0  0129  0  0
  -21.6670   -6.9022   21.4423 O   0  0  0  0  0  0  0  0  0130  0  0
  -22.3946  -14.5564   20.6568 O   0  0  0  0  0  0  0  0  0131  0  0
  -24.6048  -31.8614   23.2223 C   0  0  0  0  0  0  0  0  0100  0  0
  -25.8822  -32.4841   23.8616 C   0  0  1  0  0  0  0  0  0101  0  0
  -27.2536  -27.5042   20.1156 C   0  0  0  0  0  0  0  0  0102  0  0
  -25.5726  -33.8762   24.2210 N   0  0  0  0  0  0  0  0  0103  0  0
  -23.4066  -30.4859   21.5461 C   0  0  2  0  0  0  0  0  0104  0  0
  -24.8467  -28.9636   20.1247 C   0  0  0  0  0  0  0  0  0105  0  0
  -22.7412  -29.4652   22.5052 C   0  0  0  0  0  0  0  0  0106  0  0
  -18.0167  -28.1302   22.8626 C   0  0  0  0  0  0  0  0  0107  0  0
  -24.1342  -36.7390   23.2568 C   0  0  0  0  0  0  0  0  0108  0  0
  -25.9141  -30.8882   21.3456 C   0  0  0  0  0  0  0  0  0109  0  0
  -25.9930  -29.5029   20.7208 C   0  0  0  0  0  0  0  0  0110  0  0
  -27.1758  -28.7612   20.7331 C   0  0  0  0  0  0  0  0  0111  0  0
  -26.1032  -26.9836   19.5230 C   0  0  0  0  0  0  0  0  0112  0  0
  -24.9097  -27.7011   19.5331 C   0  0  0  0  0  0  0  0  0113  0  0
  -23.5715  -29.7899   20.1582 C   0  0  0  0  0  0  0  0  0114  0  0
  -25.3990  -36.3212   24.0232 C   0  0  1  0  0  0  0  0  0115  0  0
  -20.5793  -28.3813   23.1004 C   0  0  2  0  0  0  0  0  0116  0  0
  -20.6548  -26.9392   22.5411 C   0  0  0  0  0  0  0  0  0117  0  0
  -19.5615  -26.6407   21.5143 C   0  0  0  0  0  0  0  0  0118  0  0
  -18.1797  -26.7818   22.1673 C   0  0  0  0  0  0  0  0  0119  0  0
  -19.1385  -28.8769   23.2988 C   0  0  0  0  0  0  0  0  0120  0  0
  -18.9183  -30.1286   23.8878 C   0  0  0  0  0  0  0  0  0121  0  0
  -17.6396  -30.6493   24.0352 C   0  0  0  0  0  0  0  0  0122  0  0
  -25.9153  -34.9582   23.4993 C   0  0  0  0  0  0  0  0  0123  0  0
  -16.5415  -29.9068   23.6254 C   0  0  0  0  0  0  0  0  0124  0  0
  -16.7331  -28.6521   23.0586 C   0  0  0  0  0  0  0  0  0125  0  0
  -26.4583  -31.6439   25.0683 C   0  0  0  0  0  0  0  0  0126  0  0
  -25.3807  -31.3179   26.1374 C   0  0  0  0  0  0  0  0  0127  0  0
  -27.0530  -30.3024   24.5680 C   0  0  0  0  0  0  0  0  0128  0  0
  -27.6014  -32.4281   25.7651 C   0  0  0  0  0  0  0  0  0129  0  0
  -27.5629  -37.2220   24.8621 C   0  0  0  0  0  0  0  0  0130  0  0
  -21.4133  -29.3375   22.3735 N   0  0  0  0  0  0  0  0  0131  0  0
  -26.4706  -37.3372   23.9061 N   0  0  0  0  0  0  0  0  0132  0  0
  -24.6674  -31.0544   22.1178 N   0  0  0  0  0  0  0  0  0133  0  0
  -23.4259  -28.8150   23.2971 O   0  0  0  0  0  0  0  0  0134  0  0
  -28.3948  -26.7345   20.0089 O   0  0  0  0  0  0  0  0  0135  0  0
  -26.5870  -34.9065   22.4671 O   0  0  0  0  0  0  0  0  0136  0  0
  -23.5365  -32.1254   23.7833 O   0  0  0  0  0  0  0  0  0137  0  0
  -30.8935  -23.9796   19.4038 C   0  0  0  0  0  0  0  0  0  0  0  0
  -32.2933  -24.0548   19.1994 C   0  0  0  0  0  0  0  0  0  0  0  0
  -30.4113  -22.9818   18.5857 C   0  0  0  0  0  0  0  0  0  0  0  0
  -32.6240  -23.1007   18.2625 C   0  0  0  0  0  0  0  0  0  0  0  0
  -33.2204  -24.9868   19.8716 C   0  0  0  0  0  0  0  0  0  0  0  0
  -33.9385  -22.7488   17.6842 C   0  0  0  0  0  0  0  0  0  0  0  0
  -23.7460  -22.6174   19.6387 C   0  0  0  0  0  0  0  0  0  0  0  0
  -24.4964  -20.4243   20.5977 C   0  0  0  0  0  0  0  0  0  0  0  0
  -29.0084  -22.4821   18.4037 C   0  0  0  0  0  0  0  0  0  0  0  0
  -26.0214  -22.4133   20.7769 C   0  0  0  0  0  0  0  0  0  0  0  0
  -31.3879  -21.3801   16.9298 C   0  0  0  0  0  0  0  0  0  0  0  0
  -31.8308  -20.0332   17.4951 C   0  0  0  0  0  0  0  0  0  0  0  0
  -26.7657  -22.1891   19.4634 C   0  0  0  0  0  0  0  0  0  0  0  0
  -24.5519  -21.9474   20.7539 C   0  0  0  0  0  0  0  0  0  1  0  0
  -31.4721  -22.4548   17.8964 N   0  0  0  0  0  0  0  0  0  0  0  0
  -31.0462  -19.6332   18.6421 N   0  0  0  0  0  0  0  0  0  0  0  0
  -28.1767  -22.6201   19.6297 N   0  0  0  0  0  0  0  0  0  0  0  0
  -31.4485  -12.4701   19.0860 H   0  0  0  0  0  0  0  0  0  0  0  0
  -30.3970  -11.2460   19.6950 H   0  0  0  0  0  0  0  0  0  0  0  0
  -29.6870  -11.8204   17.4226 H   0  0  0  0  0  0  0  0  0  0  0  0
  -29.6375  -13.5326   17.8649 H   0  0  0  0  0  0  0  0  0  0  0  0
  -27.7830  -11.3650   18.7904 H   0  0  0  0  0  0  0  0  0  0  0  0
  -27.4028  -12.7801   17.8021 H   0  0  0  0  0  0  0  0  0  0  0  0
  -27.7353  -14.2503   19.6136 H   0  0  0  0  0  0  0  0  0  0  0  0
  -28.5890  -11.9550   21.3832 H   0  0  0  0  0  0  0  0  0  0  0  0
  -28.5005  -13.6134   21.8562 H   0  0  0  0  0  0  0  0  0  0  0  0
  -25.2399   -9.5495   22.4318 H   0  0  0  0  0  0  0  0  0  0  0  0
  -23.9663   -7.5070   22.7297 H   0  0  0  0  0  0  0  0  0  0  0  0
  -21.1515   -8.8641   19.9162 H   0  0  0  0  0  0  0  0  0  0  0  0
  -22.4016  -10.9115   19.6476 H   0  0  0  0  0  0  0  0  0  0  0  0
  -21.2319   -7.5552   23.9750 H   0  0  0  0  0  0  0  0  0  0  0  0
  -21.1589   -6.0228   25.8556 H   0  0  0  0  0  0  0  0  0  0  0  0
  -22.0396   -2.8212   23.2809 H   0  0  0  0  0  0  0  0  0  0  0  0
  -22.4401  -11.9703   22.4008 H   0  0  0  0  0  0  0  0  0  0  0  0
  -21.1493  -13.0679   22.2082 H   0  0  0  0  0  0  0  0  0  0  0  0
  -24.6538  -15.7807   20.5848 H   0  0  0  0  0  0  0  0  0  0  0  0
  -26.2762  -15.5453   20.1156 H   0  0  0  0  0  0  0  0  0  0  0  0
  -26.6778  -32.4663   23.1464 H   0  0  0  0  0  0  0  0  0  0  0  0
  -25.0747  -34.0282   25.0566 H   0  0  0  0  0  0  0  0  0  0  0  0
  -22.7881  -31.3489   21.4131 H   0  0  0  0  0  0  0  0  0  0  0  0
  -23.3854  -35.9823   23.3648 H   0  0  0  0  0  0  0  0  0  0  0  0
  -24.3696  -36.8624   22.2204 H   0  0  0  0  0  0  0  0  0  0  0  0
  -23.7669  -37.6632   23.6516 H   0  0  0  0  0  0  0  0  0  0  0  0
  -25.9445  -31.6237   20.5691 H   0  0  0  0  0  0  0  0  0  0  0  0
  -26.7436  -31.0079   22.0108 H   0  0  0  0  0  0  0  0  0  0  0  0
  -28.0090  -29.1452   21.2057 H   0  0  0  0  0  0  0  0  0  0  0  0
  -26.1369  -26.0560   19.0719 H   0  0  0  0  0  0  0  0  0  0  0  0
  -24.0652  -27.2961   19.0997 H   0  0  0  0  0  0  0  0  0  0  0  0
  -23.6156  -30.5365   19.3930 H   0  0  0  0  0  0  0  0  0  0  0  0
  -22.7355  -29.1425   19.9945 H   0  0  0  0  0  0  0  0  0  0  0  0
  -25.1353  -36.2335   25.0565 H   0  0  0  0  0  0  0  0  0  0  0  0
  -21.0070  -28.3206   24.0793 H   0  0  0  0  0  0  0  0  0  0  0  0
  -20.5555  -26.2518   23.3550 H   0  0  0  0  0  0  0  0  0  0  0  0
  -21.5974  -26.8362   22.0454 H   0  0  0  0  0  0  0  0  0  0  0  0
  -19.6810  -25.6422   21.1488 H   0  0  0  0  0  0  0  0  0  0  0  0
  -19.6406  -27.3343   20.7034 H   0  0  0  0  0  0  0  0  0  0  0  0
  -17.4282  -26.6888   21.4113 H   0  0  0  0  0  0  0  0  0  0  0  0
  -18.0803  -26.0130   22.9049 H   0  0  0  0  0  0  0  0  0  0  0  0
  -19.7265  -30.6774   24.2204 H   0  0  0  0  0  0  0  0  0  0  0  0
  -17.5064  -31.5856   24.4483 H   0  0  0  0  0  0  0  0  0  0  0  0
  -15.5878  -30.2839   23.7407 H   0  0  0  0  0  0  0  0  0  0  0  0
  -15.9120  -28.0941   22.7766 H   0  0  0  0  0  0  0  0  0  0  0  0
  -24.5787  -30.7757   25.6817 H   0  0  0  0  0  0  0  0  0  0  0  0
  -25.0041  -32.2289   26.5536 H   0  0  0  0  0  0  0  0  0  0  0  0
  -25.8166  -30.7245   26.9138 H   0  0  0  0  0  0  0  0  0  0  0  0
  -26.2892  -29.7335   24.0803 H   0  0  0  0  0  0  0  0  0  0  0  0
  -27.4336  -29.7484   25.4006 H   0  0  0  0  0  0  0  0  0  0  0  0
  -27.8466  -30.4994   23.8779 H   0  0  0  0  0  0  0  0  0  0  0  0
  -27.2251  -33.3632   26.1242 H   0  0  0  0  0  0  0  0  0  0  0  0
  -28.3902  -32.6065   25.0645 H   0  0  0  0  0  0  0  0  0  0  0  0
  -27.9772  -31.8555   26.5872 H   0  0  0  0  0  0  0  0  0  0  0  0
  -28.2744  -38.0016   24.6863 H   0  0  0  0  0  0  0  0  0  0  0  0
  -28.0396  -36.2711   24.7461 H   0  0  0  0  0  0  0  0  0  0  0  0
  -27.1773  -37.3087   25.8564 H   0  0  0  0  0  0  0  0  0  0  0  0
  -20.9627  -29.9365   21.7352 H   0  0  0  0  0  0  0  0  0  0  0  0
  -26.0447  -38.2561   24.0273 H   0  0  0  0  0  0  0  0  0  0  0  0
  -30.3375  -24.5645   20.0470 H   0  0  0  0  0  0  0  0  0  0  0  0
  -32.6724  -25.6094   20.5476 H   0  0  0  0  0  0  0  0  0  0  0  0
  -33.7063  -25.5968   19.1390 H   0  0  0  0  0  0  0  0  0  0  0  0
  -33.9544  -24.4296   20.4153 H   0  0  0  0  0  0  0  0  0  0  0  0
  -34.6945  -23.3752   18.1096 H   0  0  0  0  0  0  0  0  0  0  0  0
  -33.9116  -22.8919   16.6242 H   0  0  0  0  0  0  0  0  0  0  0  0
  -34.1606  -21.7247   17.9003 H   0  0  0  0  0  0  0  0  0  0  0  0
  -22.8750  -22.0328   19.4275 H   0  0  0  0  0  0  0  0  0  0  0  0
  -24.3487  -22.6906   18.7577 H   0  0  0  0  0  0  0  0  0  0  0  0
  -23.4508  -23.5972   19.9513 H   0  0  0  0  0  0  0  0  0  0  0  0
  -23.5275  -20.0715   20.8836 H   0  0  0  0  0  0  0  0  0  0  0  0
  -25.2387  -19.9743   21.2233 H   0  0  0  0  0  0  0  0  0  0  0  0
  -24.6842  -20.1633   19.5771 H   0  0  0  0  0  0  0  0  0  0  0  0
  -29.0477  -21.4476   18.1333 H   0  0  0  0  0  0  0  0  0  0  0  0
  -28.5535  -23.0783   17.6405 H   0  0  0  0  0  0  0  0  0  0  0  0
  -26.0389  -23.4599   20.9988 H   0  0  0  0  0  0  0  0  0  0  0  0
  -26.5203  -21.8257   21.5190 H   0  0  0  0  0  0  0  0  0  0  0  0
  -30.3729  -21.2951   16.6020 H   0  0  0  0  0  0  0  0  0  0  0  0
  -32.0491  -21.6219   16.1240 H   0  0  0  0  0  0  0  0  0  0  0  0
  -32.8573  -20.1042   17.7886 H   0  0  0  0  0  0  0  0  0  0  0  0
  -31.6921  -19.2967   16.7314 H   0  0  0  0  0  0  0  0  0  0  0  0
  -26.3043  -22.7626   18.6868 H   0  0  0  0  0  0  0  0  0  0  0  0
  -26.7322  -21.1524   19.2005 H   0  0  0  0  0  0  0  0  0  0  0  0
  -30.5239  -20.3284   19.1038 H   0  0  0  0  0  0  0  0  0  0  0  0
  -28.1801  -23.6011   19.9091 H   0  0  0  0  0  0  0  0  0  0  0  0
  -28.5885  -22.0060   20.3323 H   0  0  0  0  0  0  0  0  0  0  0  0
  1 25  1  0
  1 30  2  0
  1 86  1  0
  2  3  1  0
  2 25  1  0
  2 88  1  0
  2 89  1  0
  3  4  1  0
  3 90  1  0
  3 91  1  0
  4  5  1  0
  4 92  1  0
  4 93  1  0
  5  6  1  0
  5 26  1  0
  5 94  1  6
  6 25  1  0
  6 95  1  0
  6 96  1  0
  7  8  2  0
  7 26  1  0
  7 29  1  0
  8  9  1  0
  8 22  1  0
  9 10  1  0
  9 27  2  0
 10 11  2  0
 10 15  1  0
 11 12  1  0
 11 97  1  0
 12 13  2  0
 12 98  1  0
 13 14  1  0
 13 31  1  0
 14 15  2  0
 14 99  1  0
 15100  1  0
 16 17  2  0
 16 21  1  0
 16 31  1  0
 17 18  1  0
 17101  1  0
 18 19  2  0
 18102  1  0
 19 20  1  0
 19 24  1  0
 20 21  2  0
 20103  1  0
 21 23  1  0
 22 28  1  0
 22 32  2  0
 26 27  1  0
 28104  1  0
 28105  1  0
 29106  1  0
 29107  1  0
 33 34  1  0
 33 66  1  0
 33 70  2  0
 34 36  1  0
 34 59  1  0
 34108  1  6
 35 44  2  0
 35 45  1  0
 35 68  1  0
 36 56  1  0
 36109  1  0
 37 39  1  0
 37 47  1  0
 37 66  1  0
 37110  1  6
 38 43  2  0
 38 46  1  0
 38 47  1  0
 39 64  1  0
 39 67  2  0
 40 52  1  0
 40 53  2  0
 40 58  1  0
 41111  1  0
 41112  1  0
 41113  1  0
 42 43  1  0
 42 66  1  0
 42114  1  0
 42115  1  0
 43 44  1  0
 44116  1  0
 45 46  2  0
 45117  1  0
 46118  1  0
 47119  1  0
 47120  1  0
 48 41  1  0
 48 56  1  0
 48 65  1  0
 48121  1  1
 49 50  1  0
 49 53  1  0
 49 64  1  0
 49122  1  1
 50 51  1  0
 50123  1  0
 50124  1  0
 51 52  1  0
 51125  1  0
 51126  1  0
 52127  1  0
 52128  1  0
 53 54  1  0
 54 55  2  0
 54129  1  0
 55 57  1  0
 55130  1  0
 56 69  2  0
 57 58  2  0
 57131  1  0
 58132  1  0
 59 60  1  0
 59 61  1  0
 59 62  1  0
 60133  1  0
 60134  1  0
 60135  1  0
 61136  1  0
 61137  1  0
 61138  1  0
 62139  1  0
 62140  1  0
 62141  1  0
 63 65  1  0
 63142  1  0
 63143  1  0
 63144  1  0
 64145  1  0
 65146  1  0
 68 84  1  0
 71 72  1  0
 71 73  2  0
 71147  1  0
 72 74  2  0
 72 75  1  0
 73 79  1  0
 73 85  1  0
 74 76  1  0
 74 85  1  0
 75148  1  0
 75149  1  0
 75150  1  0
 76151  1  0
 76152  1  0
 76153  1  0
 77154  1  0
 77155  1  0
 77156  1  0
 78 84  1  0
 78157  1  0
 78158  1  0
 78159  1  0
 79 87  1  0
 79160  1  0
 79161  1  0
 80 83  1  0
 80 84  1  0
 80162  1  0
 80163  1  0
 81 82  1  0
 81 85  1  0
 81164  1  0
 81165  1  0
 82 86  1  0
 82166  1  0
 82167  1  0
 83 87  1  0
 83168  1  0
 83169  1  0
 84 77  1  0
 86170  1  0
 87171  1  0
 87172  1  0
M  CHG  1  87   1
M  ISO  4   1 100  68 101  84 101  86 100
M  END
$$$$
26
     RDKit          3D

157165  0  0  0  0  0  0  0  0999 V2000
  -30.7652  -14.3608   20.6636 C   0  0  0  0  0  0  0  0  0100  0  0
  -30.4392  -12.2669   19.3775 C   0  0  0  0  0  0  0  0  0101  0  0
  -29.4791  -12.5281   18.1977 C   0  0  0  0  0  0  0  0  0102  0  0
  -27.9985  -12.3963   18.6038 C   0  0  0  0  0  0  0  0  0103  0  0
  -27.6639  -13.2170   19.8820 C   0  0  2  0  0  0  0  0  0104  0  0
  -28.6795  -12.9602   21.0279 C   0  0  0  0  0  0  0  0  0105  0  0
  -25.2633  -13.8245   20.5754 C   0  0  0  0  0  0  0  0  0106  0  0
  -24.1645  -13.0409   20.9408 C   0  0  0  0  0  0  0  0  0107  0  0
  -24.6400  -11.7009   20.8697 C   0  0  0  0  0  0  0  0  0108  0  0
  -23.9005  -10.4085   21.0420 C   0  0  0  0  0  0  0  0  0109  0  0
  -24.3588   -9.4123   21.9123 C   0  0  0  0  0  0  0  0  0110  0  0
  -23.6296   -8.2350   22.0803 C   0  0  0  0  0  0  0  0  0111  0  0
  -22.4385   -8.0419   21.3657 C   0  0  0  0  0  0  0  0  0112  0  0
  -22.0103   -9.0167   20.4678 C   0  0  0  0  0  0  0  0  0113  0  0
  -22.7317  -10.1925   20.3102 C   0  0  0  0  0  0  0  0  0114  0  0
  -21.6857   -6.0709   22.5391 C   0  0  0  0  0  0  0  0  0115  0  0
  -21.4064   -6.5490   23.8264 C   0  0  0  0  0  0  0  0  0116  0  0
  -21.3635   -5.6677   24.9085 C   0  0  0  0  0  0  0  0  0117  0  0
  -21.5973   -4.3067   24.7088 C   0  0  0  0  0  0  0  0  0118  0  0
  -21.8700   -3.8284   23.4282 C   0  0  0  0  0  0  0  0  0119  0  0
  -21.9144   -4.7056   22.3460 C   0  0  0  0  0  0  0  0  0120  0  0
  -22.8194  -13.5263   21.1763 C   0  0  0  0  0  0  0  0  0121  0  0
  -22.1559   -4.2206   21.1063 F   0  0  0  0  0  0  0  0  0122  0  0
  -21.5628   -3.4510   25.7555 F   0  0  0  0  0  0  0  0  0123  0  0
  -30.0261  -13.1803   20.4553 N   0  0  0  0  0  0  0  0  0124  0  0
  -26.2911  -12.9356   20.3443 N   0  0  0  0  0  0  0  0  0125  0  0
  -25.9236  -11.6675   20.5847 N   0  0  0  0  0  0  0  0  0126  0  0
  -22.0708  -12.7905   22.0005 N   0  0  0  0  0  0  0  0  0127  0  0
  -25.4117  -15.1773   20.4097 N   0  0  0  0  0  0  0  0  0128  0  0
  -31.7916  -14.6724   20.0536 O   0  0  0  0  0  0  0  0  0129  0  0
  -21.6670   -6.9022   21.4423 O   0  0  0  0  0  0  0  0  0130  0  0
  -22.3946  -14.5564   20.6568 O   0  0  0  0  0  0  0  0  0131  0  0
  -24.6048  -31.8614   23.2223 C   0  0  0  0  0  0  0  0  0100  0  0
  -25.8822  -32.4841   23.8616 C   0  0  1  0  0  0  0  0  0101  0  0
  -27.2536  -27.5042   20.1156 C   0  0  0  0  0  0  0  0  0102  0  0
  -25.5726  -33.8762   24.2210 N   0  0  0  0  0  0  0  0  0103  0  0
  -23.4066  -30.4859   21.5461 C   0  0  2  0  0  0  0  0  0104  0  0
  -24.8467  -28.9636   20.1247 C   0  0  0  0  0  0  0  0  0105  0  0
  -22.7412  -29.4652   22.5052 C   0  0  0  0  0  0  0  0  0106  0  0
  -18.0167  -28.1302   22.8626 C   0  0  0  0  0  0  0  0  0107  0  0
  -24.1342  -36.7390   23.2568 C   0  0  0  0  0  0  0  0  0108  0  0
  -25.9141  -30.8882   21.3456 C   0  0  0  0  0  0  0  0  0109  0  0
  -25.9930  -29.5029   20.7208 C   0  0  0  0  0  0  0  0  0110  0  0
  -27.1758  -28.7612   20.7331 C   0  0  0  0  0  0  0  0  0111  0  0
  -26.1032  -26.9836   19.5230 C   0  0  0  0  0  0  0  0  0112  0  0
  -24.9097  -27.7011   19.5331 C   0  0  0  0  0  0  0  0  0113  0  0
  -23.5715  -29.7899   20.1582 C   0  0  0  0  0  0  0  0  0114  0  0
  -25.3990  -36.3212   24.0232 C   0  0  1  0  0  0  0  0  0115  0  0
  -20.5793  -28.3813   23.1004 C   0  0  2  0  0  0  0  0  0116  0  0
  -20.6548  -26.9392   22.5411 C   0  0  0  0  0  0  0  0  0117  0  0
  -19.5615  -26.6407   21.5143 C   0  0  0  0  0  0  0  0  0118  0  0
  -18.1797  -26.7818   22.1673 C   0  0  0  0  0  0  0  0  0119  0  0
  -19.1385  -28.8769   23.2988 C   0  0  0  0  0  0  0  0  0120  0  0
  -18.9183  -30.1286   23.8878 C   0  0  0  0  0  0  0  0  0121  0  0
  -17.6396  -30.6493   24.0352 C   0  0  0  0  0  0  0  0  0122  0  0
  -25.9153  -34.9582   23.4993 C   0  0  0  0  0  0  0  0  0123  0  0
  -16.5415  -29.9068   23.6254 C   0  0  0  0  0  0  0  0  0124  0  0
  -16.7331  -28.6521   23.0586 C   0  0  0  0  0  0  0  0  0125  0  0
  -26.4583  -31.6439   25.0683 C   0  0  0  0  0  0  0  0  0126  0  0
  -25.3807  -31.3179   26.1374 C   0  0  0  0  0  0  0  0  0127  0  0
  -27.0530  -30.3024   24.5680 C   0  0  0  0  0  0  0  0  0128  0  0
  -27.6014  -32.4281   25.7651 C   0  0  0  0  0  0  0  0  0129  0  0
  -27.5629  -37.2220   24.8621 C   0  0  0  0  0  0  0  0  0130  0  0
  -21.4133  -29.3375   22.3735 N   0  0  0  0  0  0  0  0  0131  0  0
  -26.4706  -37.3372   23.9061 N   0  0  0  0  0  0  0  0  0132  0  0
  -24.6674  -31.0544   22.1178 N   0  0  0  0  0  0  0  0  0133  0  0
  -23.4259  -28.8150   23.2971 O   0  0  0  0  0  0  0  0  0134  0  0
  -28.3948  -26.7345   20.0089 O   0  0  0  0  0  0  0  0  0135  0  0
  -26.5870  -34.9065   22.4671 O   0  0  0  0  0  0  0  0  0136  0  0
  -23.5365  -32.1254   23.7833 O   0  0  0  0  0  0  0  0  0137  0  0
  -29.7779  -17.0799   23.2642 C   0  0  0  0  0  0  0  0  0  0  0  0
  -32.2752  -17.3960   23.1476 C   0  0  0  0  0  0  0  0  0  0  0  0
  -29.9876  -15.6777   23.8187 C   0  0  0  0  0  0  0  0  0  0  0  0
  -32.4724  -15.9924   23.7031 C   0  0  0  0  0  0  0  0  0  0  0  0
  -30.9476  -18.0093   23.6069 C   0  0  1  0  0  0  0  0  0  0  0  0
  -30.7964  -11.2744   23.3023 C   0  0  0  0  0  0  0  0  0  0  0  0
  -30.7437  -19.3891   22.9849 C   0  0  0  0  0  0  0  0  0  1  0  0
  -31.4991  -13.6977   23.7341 C   0  0  0  0  0  0  0  0  0  0  0  0
  -30.6915  -12.7316   22.8690 C   0  0  1  0  0  0  0  0  0  0  0  0
  -31.2987  -15.1276   23.3130 N   0  0  1  0  0  0  0  0  0  0  0  0
  -31.4485  -12.4701   19.0860 H   0  0  0  0  0  0  0  0  0  0  0  0
  -30.3970  -11.2460   19.6950 H   0  0  0  0  0  0  0  0  0  0  0  0
  -29.6870  -11.8204   17.4226 H   0  0  0  0  0  0  0  0  0  0  0  0
  -29.6375  -13.5326   17.8649 H   0  0  0  0  0  0  0  0  0  0  0  0
  -27.7830  -11.3650   18.7904 H   0  0  0  0  0  0  0  0  0  0  0  0
  -27.4028  -12.7801   17.8021 H   0  0  0  0  0  0  0  0  0  0  0  0
  -27.7353  -14.2503   19.6136 H   0  0  0  0  0  0  0  0  0  0  0  0
  -28.5890  -11.9550   21.3832 H   0  0  0  0  0  0  0  0  0  0  0  0
  -28.5005  -13.6134   21.8562 H   0  0  0  0  0  0  0  0  0  0  0  0
  -25.2399   -9.5495   22.4318 H   0  0  0  0  0  0  0  0  0  0  0  0
  -23.9663   -7.5070   22.7297 H   0  0  0  0  0  0  0  0  0  0  0  0
  -21.1515   -8.8641   19.9162 H   0  0  0  0  0  0  0  0  0  0  0  0
  -22.4016  -10.9115   19.6476 H   0  0  0  0  0  0  0  0  0  0  0  0
  -21.2319   -7.5552   23.9750 H   0  0  0  0  0  0  0  0  0  0  0  0
  -21.1589   -6.0228   25.8556 H   0  0  0  0  0  0  0  0  0  0  0  0
  -22.0396   -2.8212   23.2809 H   0  0  0  0  0  0  0  0  0  0  0  0
  -22.4401  -11.9703   22.4008 H   0  0  0  0  0  0  0  0  0  0  0  0
  -21.1493  -13.0679   22.2082 H   0  0  0  0  0  0  0  0  0  0  0  0
  -24.6538  -15.7807   20.5848 H   0  0  0  0  0  0  0  0  0  0  0  0
  -26.2762  -15.5453   20.1156 H   0  0  0  0  0  0  0  0  0  0  0  0
  -26.6778  -32.4663   23.1464 H   0  0  0  0  0  0  0  0  0  0  0  0
  -25.0747  -34.0282   25.0566 H   0  0  0  0  0  0  0  0  0  0  0  0
  -22.7881  -31.3489   21.4131 H   0  0  0  0  0  0  0  0  0  0  0  0
  -23.3854  -35.9823   23.3648 H   0  0  0  0  0  0  0  0  0  0  0  0
  -24.3696  -36.8624   22.2204 H   0  0  0  0  0  0  0  0  0  0  0  0
  -23.7669  -37.6632   23.6516 H   0  0  0  0  0  0  0  0  0  0  0  0
  -25.9445  -31.6237   20.5691 H   0  0  0  0  0  0  0  0  0  0  0  0
  -26.7436  -31.0079   22.0108 H   0  0  0  0  0  0  0  0  0  0  0  0
  -28.0090  -29.1452   21.2057 H   0  0  0  0  0  0  0  0  0  0  0  0
  -26.1369  -26.0560   19.0719 H   0  0  0  0  0  0  0  0  0  0  0  0
  -24.0652  -27.2961   19.0997 H   0  0  0  0  0  0  0  0  0  0  0  0
  -23.6156  -30.5365   19.3930 H   0  0  0  0  0  0  0  0  0  0  0  0
  -22.7355  -29.1425   19.9945 H   0  0  0  0  0  0  0  0  0  0  0  0
  -25.1353  -36.2335   25.0565 H   0  0  0  0  0  0  0  0  0  0  0  0
  -21.0070  -28.3206   24.0793 H   0  0  0  0  0  0  0  0  0  0  0  0
  -20.5555  -26.2518   23.3550 H   0  0  0  0  0  0  0  0  0  0  0  0
  -21.5974  -26.8362   22.0454 H   0  0  0  0  0  0  0  0  0  0  0  0
  -19.6810  -25.6422   21.1488 H   0  0  0  0  0  0  0  0  0  0  0  0
  -19.6406  -27.3343   20.7034 H   0  0  0  0  0  0  0  0  0  0  0  0
  -17.4282  -26.6888   21.4113 H   0  0  0  0  0  0  0  0  0  0  0  0
  -18.0803  -26.0130   22.9049 H   0  0  0  0  0  0  0  0  0  0  0  0
  -19.7265  -30.6774   24.2204 H   0  0  0  0  0  0  0  0  0  0  0  0
  -17.5064  -31.5856   24.4483 H   0  0  0  0  0  0  0  0  0  0  0  0
  -15.5878  -30.2839   23.7407 H   0  0  0  0  0  0  0  0  0  0  0  0
  -15.9120  -28.0941   22.7766 H   0  0  0  0  0  0  0  0  0  0  0  0
  -24.5787  -30.7757   25.6817 H   0  0  0  0  0  0  0  0  0  0  0  0
  -25.0041  -32.2289   26.5536 H   0  0  0  0  0  0  0  0  0  0  0  0
  -25.8166  -30.7245   26.9138 H   0  0  0  0  0  0  0  0  0  0  0  0
  -26.2892  -29.7335   24.0803 H   0  0  0  0  0  0  0  0  0  0  0  0
  -27.4336  -29.7484   25.4006 H   0  0  0  0  0  0  0  0  0  0  0  0
  -27.8466  -30.4994   23.8779 H   0  0  0  0  0  0  0  0  0  0  0  0
  -27.2251  -33.3632   26.1242 H   0  0  0  0  0  0  0  0  0  0  0  0
  -28.3902  -32.6065   25.0645 H   0  0  0  0  0  0  0  0  0  0  0  0
  -27.9772  -31.8555   26.5872 H   0  0  0  0  0  0  0  0  0  0  0  0
  -28.2744  -38.0016   24.6863 H   0  0  0  0  0  0  0  0  0  0  0  0
  -28.0396  -36.2711   24.7461 H   0  0  0  0  0  0  0  0  0  0  0  0
  -27.1773  -37.3087   25.8564 H   0  0  0  0  0  0  0  0  0  0  0  0
  -20.9627  -29.9365   21.7352 H   0  0  0  0  0  0  0  0  0  0  0  0
  -26.0447  -38.2561   24.0273 H   0  0  0  0  0  0  0  0  0  0  0  0
  -28.8797  -17.4860   23.6803 H   0  0  0  0  0  0  0  0  0  0  0  0
  -29.7109  -17.0092   22.1986 H   0  0  0  0  0  0  0  0  0  0  0  0
  -32.2837  -17.3497   22.0786 H   0  0  0  0  0  0  0  0  0  0  0  0
  -33.0700  -18.0125   23.5125 H   0  0  0  0  0  0  0  0  0  0  0  0
  -29.1874  -15.0439   23.4978 H   0  0  0  0  0  0  0  0  0  0  0  0
  -30.0055  -15.7160   24.8879 H   0  0  0  0  0  0  0  0  0  0  0  0
  -32.5432  -16.0376   24.7698 H   0  0  0  0  0  0  0  0  0  0  0  0
  -33.3724  -15.5738   23.3034 H   0  0  0  0  0  0  0  0  0  0  0  0
  -30.9825  -18.1269   24.6698 H   0  0  0  0  0  0  0  0  0  0  0  0
  -30.6854  -11.2093   24.3645 H   0  0  0  0  0  0  0  0  0  0  0  0
  -31.7524  -10.8860   23.0192 H   0  0  0  0  0  0  0  0  0  0  0  0
  -30.0251  -10.7047   22.8275 H   0  0  0  0  0  0  0  0  0  0  0  0
  -31.1280  -19.0731   22.0376 H   0  0  0  0  0  0  0  0  0  0  0  0
  -30.5005  -19.7508   23.9621 H   0  0  0  0  0  0  0  0  0  0  0  0
  -32.5374  -13.4539   23.6483 H   0  0  0  0  0  0  0  0  0  0  0  0
  -31.1625  -13.5990   24.7450 H   0  0  0  0  0  0  0  0  0  0  0  0
  -29.7118  -12.3077   22.7959 H   0  0  0  0  0  0  0  0  0  0  0  0
  -31.2496  -15.1429   22.2943 H   0  0  0  0  0  0  0  0  0  0  0  0
  1 25  1  0
  1 30  2  0
  1 79  1  0
  2  3  1  0
  2 25  1  0
  2 81  1  0
  2 82  1  0
  3  4  1  0
  3 83  1  0
  3 84  1  0
  4  5  1  0
  4 85  1  0
  4 86  1  0
  5  6  1  0
  5 26  1  0
  5 87  1  6
  6 25  1  0
  6 88  1  0
  6 89  1  0
  7  8  2  0
  7 26  1  0
  7 29  1  0
  8  9  1  0
  8 22  1  0
  9 10  1  0
  9 27  2  0
 10 11  2  0
 10 15  1  0
 11 12  1  0
 11 90  1  0
 12 13  2  0
 12 91  1  0
 13 14  1  0
 13 31  1  0
 14 15  2  0
 14 92  1  0
 15 93  1  0
 16 17  2  0
 16 21  1  0
 16 31  1  0
 17 18  1  0
 17 94  1  0
 18 19  2  0
 18 95  1  0
 19 20  1  0
 19 24  1  0
 20 21  2  0
 20 96  1  0
 21 23  1  0
 22 28  1  0
 22 32  2  0
 26 27  1  0
 28 97  1  0
 28 98  1  0
 29 99  1  0
 29100  1  0
 33 34  1  0
 33 66  1  0
 33 70  2  0
 34 36  1  0
 34 59  1  0
 34101  1  6
 35 44  2  0
 35 45  1  0
 35 68  1  0
 36 56  1  0
 36102  1  0
 37 39  1  0
 37 47  1  0
 37 66  1  0
 37103  1  6
 38 43  2  0
 38 46  1  0
 38 47  1  0
 39 64  1  0
 39 67  2  0
 40 52  1  0
 40 53  2  0
 40 58  1  0
 41104  1  0
 41105  1  0
 41106  1  0
 42 43  1  0
 42 66  1  0
 42107  1  0
 42108  1  0
 43 44  1  0
 44109  1  0
 45 46  2  0
 45110  1  0
 46111  1  0
 47112  1  0
 47113  1  0
 48 41  1  0
 48 56  1  0
 48 65  1  0
 48114  1  1
 49 50  1  0
 49 53  1  0
 49 64  1  0
 49115  1  1
 50 51  1  0
 50116  1  0
 50117  1  0
 51 52  1  0
 51118  1  0
 51119  1  0
 52120  1  0
 52121  1  0
 53 54  1  0
 54 55  2  0
 54122  1  0
 55 57  1  0
 55123  1  0
 56 69  2  0
 57 58  2  0
 57124  1  0
 58125  1  0
 59 60  1  0
 59 61  1  0
 59 62  1  0
 60126  1  0
 60127  1  0
 60128  1  0
 61129  1  0
 61130  1  0
 61131  1  0
 62132  1  0
 62133  1  0
 62134  1  0
 63 65  1  0
 63135  1  0
 63136  1  0
 63137  1  0
 64138  1  0
 65139  1  0
 68 77  1  0
 71 73  1  0
 71 75  1  0
 71140  1  0
 71141  1  0
 72 74  1  0
 72 75  1  0
 72142  1  0
 72143  1  0
 73 80  1  0
 73144  1  0
 73145  1  0
 74 80  1  0
 74146  1  0
 74147  1  0
 75 77  1  0
 75148  1  1
 76149  1  0
 76150  1  0
 76151  1  0
 77152  1  0
 77153  1  0
 78 79  1  0
 78154  1  0
 78155  1  0
 79 76  1  0
 79156  1  1
 80 78  1  0
 80157  1  6
M  CHG  1  80   1
M  ISO  4   1 100  68 101  77 101  79 100
M  END
$$$$
27
     RDKit          3D

159167  0  0  0  0  0  0  0  0999 V2000
  -30.7652  -14.3608   20.6636 C   0  0  0  0  0  0  0  0  0100  0  0
  -30.4392  -12.2669   19.3775 C   0  0  0  0  0  0  0  0  0101  0  0
  -29.4791  -12.5281   18.1977 C   0  0  0  0  0  0  0  0  0102  0  0
  -27.9985  -12.3963   18.6038 C   0  0  0  0  0  0  0  0  0103  0  0
  -27.6639  -13.2170   19.8820 C   0  0  2  0  0  0  0  0  0104  0  0
  -28.6795  -12.9602   21.0279 C   0  0  0  0  0  0  0  0  0105  0  0
  -25.2633  -13.8245   20.5754 C   0  0  0  0  0  0  0  0  0106  0  0
  -24.1645  -13.0409   20.9408 C   0  0  0  0  0  0  0  0  0107  0  0
  -24.6400  -11.7009   20.8697 C   0  0  0  0  0  0  0  0  0108  0  0
  -23.9005  -10.4085   21.0420 C   0  0  0  0  0  0  0  0  0109  0  0
  -24.3588   -9.4123   21.9123 C   0  0  0  0  0  0  0  0  0110  0  0
  -23.6296   -8.2350   22.0803 C   0  0  0  0  0  0  0  0  0111  0  0
  -22.4385   -8.0419   21.3657 C   0  0  0  0  0  0  0  0  0112  0  0
  -22.0103   -9.0167   20.4678 C   0  0  0  0  0  0  0  0  0113  0  0
  -22.7317  -10.1925   20.3102 C   0  0  0  0  0  0  0  0  0114  0  0
  -21.6857   -6.0709   22.5391 C   0  0  0  0  0  0  0  0  0115  0  0
  -21.4064   -6.5490   23.8264 C   0  0  0  0  0  0  0  0  0116  0  0
  -21.3635   -5.6677   24.9085 C   0  0  0  0  0  0  0  0  0117  0  0
  -21.5973   -4.3067   24.7088 C   0  0  0  0  0  0  0  0  0118  0  0
  -21.8700   -3.8284   23.4282 C   0  0  0  0  0  0  0  0  0119  0  0
  -21.9144   -4.7056   22.3460 C   0  0  0  0  0  0  0  0  0120  0  0
  -22.8194  -13.5263   21.1763 C   0  0  0  0  0  0  0  0  0121  0  0
  -22.1559   -4.2206   21.1063 F   0  0  0  0  0  0  0  0  0122  0  0
  -21.5628   -3.4510   25.7555 F   0  0  0  0  0  0  0  0  0123  0  0
  -30.0261  -13.1803   20.4553 N   0  0  0  0  0  0  0  0  0124  0  0
  -26.2911  -12.9356   20.3443 N   0  0  0  0  0  0  0  0  0125  0  0
  -25.9236  -11.6675   20.5847 N   0  0  0  0  0  0  0  0  0126  0  0
  -22.0708  -12.7905   22.0005 N   0  0  0  0  0  0  0  0  0127  0  0
  -25.4117  -15.1773   20.4097 N   0  0  0  0  0  0  0  0  0128  0  0
  -31.7916  -14.6724   20.0536 O   0  0  0  0  0  0  0  0  0129  0  0
  -21.6670   -6.9022   21.4423 O   0  0  0  0  0  0  0  0  0130  0  0
  -22.3946  -14.5564   20.6568 O   0  0  0  0  0  0  0  0  0131  0  0
  -24.6048  -31.8614   23.2223 C   0  0  0  0  0  0  0  0  0100  0  0
  -25.8822  -32.4841   23.8616 C   0  0  1  0  0  0  0  0  0101  0  0
  -27.2536  -27.5042   20.1156 C   0  0  0  0  0  0  0  0  0102  0  0
  -25.5726  -33.8762   24.2210 N   0  0  0  0  0  0  0  0  0103  0  0
  -23.4066  -30.4859   21.5461 C   0  0  2  0  0  0  0  0  0104  0  0
  -24.8467  -28.9636   20.1247 C   0  0  0  0  0  0  0  0  0105  0  0
  -22.7412  -29.4652   22.5052 C   0  0  0  0  0  0  0  0  0106  0  0
  -18.0167  -28.1302   22.8626 C   0  0  0  0  0  0  0  0  0107  0  0
  -24.1342  -36.7390   23.2568 C   0  0  0  0  0  0  0  0  0108  0  0
  -25.9141  -30.8882   21.3456 C   0  0  0  0  0  0  0  0  0109  0  0
  -25.9930  -29.5029   20.7208 C   0  0  0  0  0  0  0  0  0110  0  0
  -27.1758  -28.7612   20.7331 C   0  0  0  0  0  0  0  0  0111  0  0
  -26.1032  -26.9836   19.5230 C   0  0  0  0  0  0  0  0  0112  0  0
  -24.9097  -27.7011   19.5331 C   0  0  0  0  0  0  0  0  0113  0  0
  -23.5715  -29.7899   20.1582 C   0  0  0  0  0  0  0  0  0114  0  0
  -25.3990  -36.3212   24.0232 C   0  0  1  0  0  0  0  0  0115  0  0
  -20.5793  -28.3813   23.1004 C   0  0  2  0  0  0  0  0  0116  0  0
  -20.6548  -26.9392   22.5411 C   0  0  0  0  0  0  0  0  0117  0  0
  -19.5615  -26.6407   21.5143 C   0  0  0  0  0  0  0  0  0118  0  0
  -18.1797  -26.7818   22.1673 C   0  0  0  0  0  0  0  0  0119  0  0
  -19.1385  -28.8769   23.2988 C   0  0  0  0  0  0  0  0  0120  0  0
  -18.9183  -30.1286   23.8878 C   0  0  0  0  0  0  0  0  0121  0  0
  -17.6396  -30.6493   24.0352 C   0  0  0  0  0  0  0  0  0122  0  0
  -25.9153  -34.9582   23.4993 C   0  0  0  0  0  0  0  0  0123  0  0
  -16.5415  -29.9068   23.6254 C   0  0  0  0  0  0  0  0  0124  0  0
  -16.7331  -28.6521   23.0586 C   0  0  0  0  0  0  0  0  0125  0  0
  -26.4583  -31.6439   25.0683 C   0  0  0  0  0  0  0  0  0126  0  0
  -25.3807  -31.3179   26.1374 C   0  0  0  0  0  0  0  0  0127  0  0
  -27.0530  -30.3024   24.5680 C   0  0  0  0  0  0  0  0  0128  0  0
  -27.6014  -32.4281   25.7651 C   0  0  0  0  0  0  0  0  0129  0  0
  -27.5629  -37.2220   24.8621 C   0  0  0  0  0  0  0  0  0130  0  0
  -21.4133  -29.3375   22.3735 N   0  0  0  0  0  0  0  0  0131  0  0
  -26.4706  -37.3372   23.9061 N   0  0  0  0  0  0  0  0  0132  0  0
  -24.6674  -31.0544   22.1178 N   0  0  0  0  0  0  0  0  0133  0  0
  -23.4259  -28.8150   23.2971 O   0  0  0  0  0  0  0  0  0134  0  0
  -28.3948  -26.7345   20.0089 O   0  0  0  0  0  0  0  0  0135  0  0
  -26.5870  -34.9065   22.4671 O   0  0  0  0  0  0  0  0  0136  0  0
  -23.5365  -32.1254   23.7833 O   0  0  0  0  0  0  0  0  0137  0  0
  -18.7900  -20.8995   19.0719 C   0  0  0  0  0  0  0  0  0  0  0  0
  -18.6751  -22.3849   18.7307 C   0  0  0  0  0  0  0  0  0  0  0  0
  -19.2909  -20.6879   20.4976 C   0  0  0  0  0  0  0  0  0  0  0  0
  -20.4894  -22.9106   20.4150 C   0  0  0  0  0  0  0  0  0  0  0  0
  -19.9968  -23.1071   18.9844 C   0  0  2  0  0  0  0  0  0  0  0  0
  -20.6068  -21.4239   20.7520 C   0  0  2  0  0  0  0  0  0  1  0  0
  -19.9312  -24.9178   17.2761 C   0  0  0  0  0  0  0  0  0  0  0  0
  -18.5926  -26.5914   19.4616 C   0  0  0  0  0  0  0  0  0  0  0  0
  -18.5179  -25.0826   19.3196 C   0  0  0  0  0  0  0  0  0  0  0  0
  -19.7036  -27.0095   20.2872 N   0  0  0  0  0  0  0  0  0  0  0  0
  -19.8064  -24.5606   18.7358 N   0  0  1  0  0  0  0  0  0  0  0  0
  -31.4485  -12.4701   19.0860 H   0  0  0  0  0  0  0  0  0  0  0  0
  -30.3970  -11.2460   19.6950 H   0  0  0  0  0  0  0  0  0  0  0  0
  -29.6870  -11.8204   17.4226 H   0  0  0  0  0  0  0  0  0  0  0  0
  -29.6375  -13.5326   17.8649 H   0  0  0  0  0  0  0  0  0  0  0  0
  -27.7830  -11.3650   18.7904 H   0  0  0  0  0  0  0  0  0  0  0  0
  -27.4028  -12.7801   17.8021 H   0  0  0  0  0  0  0  0  0  0  0  0
  -27.7353  -14.2503   19.6136 H   0  0  0  0  0  0  0  0  0  0  0  0
  -28.5890  -11.9550   21.3832 H   0  0  0  0  0  0  0  0  0  0  0  0
  -28.5005  -13.6134   21.8562 H   0  0  0  0  0  0  0  0  0  0  0  0
  -25.2399   -9.5495   22.4318 H   0  0  0  0  0  0  0  0  0  0  0  0
  -23.9663   -7.5070   22.7297 H   0  0  0  0  0  0  0  0  0  0  0  0
  -21.1515   -8.8641   19.9162 H   0  0  0  0  0  0  0  0  0  0  0  0
  -22.4016  -10.9115   19.6476 H   0  0  0  0  0  0  0  0  0  0  0  0
  -21.2319   -7.5552   23.9750 H   0  0  0  0  0  0  0  0  0  0  0  0
  -21.1589   -6.0228   25.8556 H   0  0  0  0  0  0  0  0  0  0  0  0
  -22.0396   -2.8212   23.2809 H   0  0  0  0  0  0  0  0  0  0  0  0
  -22.4401  -11.9703   22.4008 H   0  0  0  0  0  0  0  0  0  0  0  0
  -21.1493  -13.0679   22.2082 H   0  0  0  0  0  0  0  0  0  0  0  0
  -24.6538  -15.7807   20.5848 H   0  0  0  0  0  0  0  0  0  0  0  0
  -26.2762  -15.5453   20.1156 H   0  0  0  0  0  0  0  0  0  0  0  0
  -26.6778  -32.4663   23.1464 H   0  0  0  0  0  0  0  0  0  0  0  0
  -25.0747  -34.0282   25.0566 H   0  0  0  0  0  0  0  0  0  0  0  0
  -22.7881  -31.3489   21.4131 H   0  0  0  0  0  0  0  0  0  0  0  0
  -23.3854  -35.9823   23.3648 H   0  0  0  0  0  0  0  0  0  0  0  0
  -24.3696  -36.8624   22.2204 H   0  0  0  0  0  0  0  0  0  0  0  0
  -23.7669  -37.6632   23.6516 H   0  0  0  0  0  0  0  0  0  0  0  0
  -25.9445  -31.6237   20.5691 H   0  0  0  0  0  0  0  0  0  0  0  0
  -26.7436  -31.0079   22.0108 H   0  0  0  0  0  0  0  0  0  0  0  0
  -28.0090  -29.1452   21.2057 H   0  0  0  0  0  0  0  0  0  0  0  0
  -26.1369  -26.0560   19.0719 H   0  0  0  0  0  0  0  0  0  0  0  0
  -24.0652  -27.2961   19.0997 H   0  0  0  0  0  0  0  0  0  0  0  0
  -23.6156  -30.5365   19.3930 H   0  0  0  0  0  0  0  0  0  0  0  0
  -22.7355  -29.1425   19.9945 H   0  0  0  0  0  0  0  0  0  0  0  0
  -25.1353  -36.2335   25.0565 H   0  0  0  0  0  0  0  0  0  0  0  0
  -21.0070  -28.3206   24.0793 H   0  0  0  0  0  0  0  0  0  0  0  0
  -20.5555  -26.2518   23.3550 H   0  0  0  0  0  0  0  0  0  0  0  0
  -21.5974  -26.8362   22.0454 H   0  0  0  0  0  0  0  0  0  0  0  0
  -19.6810  -25.6422   21.1488 H   0  0  0  0  0  0  0  0  0  0  0  0
  -19.6406  -27.3343   20.7034 H   0  0  0  0  0  0  0  0  0  0  0  0
  -17.4282  -26.6888   21.4113 H   0  0  0  0  0  0  0  0  0  0  0  0
  -18.0803  -26.0130   22.9049 H   0  0  0  0  0  0  0  0  0  0  0  0
  -19.7265  -30.6774   24.2204 H   0  0  0  0  0  0  0  0  0  0  0  0
  -17.5064  -31.5856   24.4483 H   0  0  0  0  0  0  0  0  0  0  0  0
  -15.5878  -30.2839   23.7407 H   0  0  0  0  0  0  0  0  0  0  0  0
  -15.9120  -28.0941   22.7766 H   0  0  0  0  0  0  0  0  0  0  0  0
  -24.5787  -30.7757   25.6817 H   0  0  0  0  0  0  0  0  0  0  0  0
  -25.0041  -32.2289   26.5536 H   0  0  0  0  0  0  0  0  0  0  0  0
  -25.8166  -30.7245   26.9138 H   0  0  0  0  0  0  0  0  0  0  0  0
  -26.2892  -29.7335   24.0803 H   0  0  0  0  0  0  0  0  0  0  0  0
  -27.4336  -29.7484   25.4006 H   0  0  0  0  0  0  0  0  0  0  0  0
  -27.8466  -30.4994   23.8779 H   0  0  0  0  0  0  0  0  0  0  0  0
  -27.2251  -33.3632   26.1242 H   0  0  0  0  0  0  0  0  0  0  0  0
  -28.3902  -32.6065   25.0645 H   0  0  0  0  0  0  0  0  0  0  0  0
  -27.9772  -31.8555   26.5872 H   0  0  0  0  0  0  0  0  0  0  0  0
  -28.2744  -38.0016   24.6863 H   0  0  0  0  0  0  0  0  0  0  0  0
  -28.0396  -36.2711   24.7461 H   0  0  0  0  0  0  0  0  0  0  0  0
  -27.1773  -37.3087   25.8564 H   0  0  0  0  0  0  0  0  0  0  0  0
  -20.9627  -29.9365   21.7352 H   0  0  0  0  0  0  0  0  0  0  0  0
  -26.0447  -38.2561   24.0273 H   0  0  0  0  0  0  0  0  0  0  0  0
  -19.4750  -20.4388   18.3912 H   0  0  0  0  0  0  0  0  0  0  0  0
  -17.8173  -20.4611   18.9903 H   0  0  0  0  0  0  0  0  0  0  0  0
  -17.9128  -22.8259   19.3385 H   0  0  0  0  0  0  0  0  0  0  0  0
  -18.4280  -22.4790   17.6939 H   0  0  0  0  0  0  0  0  0  0  0  0
  -19.4425  -19.6412   20.6597 H   0  0  0  0  0  0  0  0  0  0  0  0
  -18.5558  -21.0786   21.1699 H   0  0  0  0  0  0  0  0  0  0  0  0
  -19.7973  -23.3693   21.0900 H   0  0  0  0  0  0  0  0  0  0  0  0
  -21.4560  -23.3598   20.5086 H   0  0  0  0  0  0  0  0  0  0  0  0
  -20.7305  -22.6957   18.3231 H   0  0  0  0  0  0  0  0  0  0  0  0
  -20.7120  -20.4500   21.1825 H   0  0  0  0  0  0  0  0  0  0  0  0
  -20.8535  -24.5342   16.8926 H   0  0  0  0  0  0  0  0  0  0  0  0
  -19.9146  -25.9821   17.1667 H   0  0  0  0  0  0  0  0  0  0  0  0
  -19.1140  -24.4907   16.7333 H   0  0  0  0  0  0  0  0  0  0  0  0
  -17.6836  -26.9409   19.9048 H   0  0  0  0  0  0  0  0  0  0  0  0
  -18.7354  -27.0058   18.4855 H   0  0  0  0  0  0  0  0  0  0  0  0
  -17.7052  -24.8264   18.6725 H   0  0  0  0  0  0  0  0  0  0  0  0
  -18.3632  -24.6441   20.2833 H   0  0  0  0  0  0  0  0  0  0  0  0
  -19.7954  -27.8768   20.7439 H   0  0  0  0  0  0  0  0  0  0  0  0
  -20.5691  -25.0280   19.2259 H   0  0  0  0  0  0  0  0  0  0  0  0
  1 25  1  0
  1 30  2  0
  1 80  1  0
  2  3  1  0
  2 25  1  0
  2 82  1  0
  2 83  1  0
  3  4  1  0
  3 84  1  0
  3 85  1  0
  4  5  1  0
  4 86  1  0
  4 87  1  0
  5  6  1  0
  5 26  1  0
  5 88  1  6
  6 25  1  0
  6 89  1  0
  6 90  1  0
  7  8  2  0
  7 26  1  0
  7 29  1  0
  8  9  1  0
  8 22  1  0
  9 10  1  0
  9 27  2  0
 10 11  2  0
 10 15  1  0
 11 12  1  0
 11 91  1  0
 12 13  2  0
 12 92  1  0
 13 14  1  0
 13 31  1  0
 14 15  2  0
 14 93  1  0
 15 94  1  0
 16 17  2  0
 16 21  1  0
 16 31  1  0
 17 18  1  0
 17 95  1  0
 18 19  2  0
 18 96  1  0
 19 20  1  0
 19 24  1  0
 20 21  2  0
 20 97  1  0
 21 23  1  0
 22 28  1  0
 22 32  2  0
 26 27  1  0
 28 98  1  0
 28 99  1  0
 29100  1  0
 29101  1  0
 33 34  1  0
 33 66  1  0
 33 70  2  0
 34 36  1  0
 34 59  1  0
 34102  1  6
 35 44  2  0
 35 45  1  0
 35 68  1  0
 36 56  1  0
 36103  1  0
 37 39  1  0
 37 47  1  0
 37 66  1  0
 37104  1  6
 38 43  2  0
 38 46  1  0
 38 47  1  0
 39 64  1  0
 39 67  2  0
 40 52  1  0
 40 53  2  0
 40 58  1  0
 41105  1  0
 41106  1  0
 41107  1  0
 42 43  1  0
 42 66  1  0
 42108  1  0
 42109  1  0
 43 44  1  0
 44110  1  0
 45 46  2  0
 45111  1  0
 46112  1  0
 47113  1  0
 47114  1  0
 48 41  1  0
 48 56  1  0
 48 65  1  0
 48115  1  1
 49 50  1  0
 49 53  1  0
 49 64  1  0
 49116  1  1
 50 51  1  0
 50117  1  0
 50118  1  0
 51 52  1  0
 51119  1  0
 51120  1  0
 52121  1  0
 52122  1  0
 53 54  1  0
 54 55  2  0
 54123  1  0
 55 57  1  0
 55124  1  0
 56 69  2  0
 57 58  2  0
 57125  1  0
 58126  1  0
 59 60  1  0
 59 61  1  0
 59 62  1  0
 60127  1  0
 60128  1  0
 60129  1  0
 61130  1  0
 61131  1  0
 61132  1  0
 62133  1  0
 62134  1  0
 62135  1  0
 63 65  1  0
 63136  1  0
 63137  1  0
 63138  1  0
 64139  1  0
 65140  1  0
 71 72  1  0
 71 73  1  0
 71141  1  0
 71142  1  0
 72143  1  0
 72144  1  0
 73 76  1  0
 73145  1  0
 73146  1  0
 74 75  1  0
 74 76  1  0
 74147  1  0
 74148  1  0
 75 72  1  0
 75 81  1  0
 75149  1  6
 76 68  1  0
 76150  1  1
 77151  1  0
 77152  1  0
 77153  1  0
 78 79  1  0
 78 80  1  0
 78154  1  0
 78155  1  0
 79 81  1  0
 79156  1  0
 79157  1  0
 80158  1  0
 81 77  1  0
 81159  1  1
M  CHG  1  81   1
M  ISO  4   1 100  68 101  76 101  80 100
M  END
$$$$
28
     RDKit          3D

169177  0  0  0  0  0  0  0  0999 V2000
  -30.7652  -14.3608   20.6636 C   0  0  0  0  0  0  0  0  0100  0  0
  -30.4392  -12.2669   19.3775 C   0  0  0  0  0  0  0  0  0101  0  0
  -29.4791  -12.5281   18.1977 C   0  0  0  0  0  0  0  0  0102  0  0
  -27.9985  -12.3963   18.6038 C   0  0  0  0  0  0  0  0  0103  0  0
  -27.6639  -13.2170   19.8820 C   0  0  2  0  0  0  0  0  0104  0  0
  -28.6795  -12.9602   21.0279 C   0  0  0  0  0  0  0  0  0105  0  0
  -25.2633  -13.8245   20.5754 C   0  0  0  0  0  0  0  0  0106  0  0
  -24.1645  -13.0409   20.9408 C   0  0  0  0  0  0  0  0  0107  0  0
  -24.6400  -11.7009   20.8697 C   0  0  0  0  0  0  0  0  0108  0  0
  -23.9005  -10.4085   21.0420 C   0  0  0  0  0  0  0  0  0109  0  0
  -24.3588   -9.4123   21.9123 C   0  0  0  0  0  0  0  0  0110  0  0
  -23.6296   -8.2350   22.0803 C   0  0  0  0  0  0  0  0  0111  0  0
  -22.4385   -8.0419   21.3657 C   0  0  0  0  0  0  0  0  0112  0  0
  -22.0103   -9.0167   20.4678 C   0  0  0  0  0  0  0  0  0113  0  0
  -22.7317  -10.1925   20.3102 C   0  0  0  0  0  0  0  0  0114  0  0
  -21.6857   -6.0709   22.5391 C   0  0  0  0  0  0  0  0  0115  0  0
  -21.4064   -6.5490   23.8264 C   0  0  0  0  0  0  0  0  0116  0  0
  -21.3635   -5.6677   24.9085 C   0  0  0  0  0  0  0  0  0117  0  0
  -21.5973   -4.3067   24.7088 C   0  0  0  0  0  0  0  0  0118  0  0
  -21.8700   -3.8284   23.4282 C   0  0  0  0  0  0  0  0  0119  0  0
  -21.9144   -4.7056   22.3460 C   0  0  0  0  0  0  0  0  0120  0  0
  -22.8194  -13.5263   21.1763 C   0  0  0  0  0  0  0  0  0121  0  0
  -22.1559   -4.2206   21.1063 F   0  0  0  0  0  0  0  0  0122  0  0
  -21.5628   -3.4510   25.7555 F   0  0  0  0  0  0  0  0  0123  0  0
  -30.0261  -13.1803   20.4553 N   0  0  0  0  0  0  0  0  0124  0  0
  -26.2911  -12.9356   20.3443 N   0  0  0  0  0  0  0  0  0125  0  0
  -25.9236  -11.6675   20.5847 N   0  0  0  0  0  0  0  0  0126  0  0
  -22.0708  -12.7905   22.0005 N   0  0  0  0  0  0  0  0  0127  0  0
  -25.4117  -15.1773   20.4097 N   0  0  0  0  0  0  0  0  0128  0  0
  -31.7916  -14.6724   20.0536 O   0  0  0  0  0  0  0  0  0129  0  0
  -21.6670   -6.9022   21.4423 O   0  0  0  0  0  0  0  0  0130  0  0
  -22.3946  -14.5564   20.6568 O   0  0  0  0  0  0  0  0  0131  0  0
  -24.6048  -31.8614   23.2223 C   0  0  0  0  0  0  0  0  0100  0  0
  -25.8822  -32.4841   23.8616 C   0  0  1  0  0  0  0  0  0101  0  0
  -27.2536  -27.5042   20.1156 C   0  0  0  0  0  0  0  0  0102  0  0
  -25.5726  -33.8762   24.2210 N   0  0  0  0  0  0  0  0  0103  0  0
  -23.4066  -30.4859   21.5461 C   0  0  2  0  0  0  0  0  0104  0  0
  -24.8467  -28.9636   20.1247 C   0  0  0  0  0  0  0  0  0105  0  0
  -22.7412  -29.4652   22.5052 C   0  0  0  0  0  0  0  0  0106  0  0
  -18.0167  -28.1302   22.8626 C   0  0  0  0  0  0  0  0  0107  0  0
  -24.1342  -36.7390   23.2568 C   0  0  0  0  0  0  0  0  0108  0  0
  -25.9141  -30.8882   21.3456 C   0  0  0  0  0  0  0  0  0109  0  0
  -25.9930  -29.5029   20.7208 C   0  0  0  0  0  0  0  0  0110  0  0
  -27.1758  -28.7612   20.7331 C   0  0  0  0  0  0  0  0  0111  0  0
  -26.1032  -26.9836   19.5230 C   0  0  0  0  0  0  0  0  0112  0  0
  -24.9097  -27.7011   19.5331 C   0  0  0  0  0  0  0  0  0113  0  0
  -23.5715  -29.7899   20.1582 C   0  0  0  0  0  0  0  0  0114  0  0
  -25.3990  -36.3212   24.0232 C   0  0  1  0  0  0  0  0  0115  0  0
  -20.5793  -28.3813   23.1004 C   0  0  2  0  0  0  0  0  0116  0  0
  -20.6548  -26.9392   22.5411 C   0  0  0  0  0  0  0  0  0117  0  0
  -19.5615  -26.6407   21.5143 C   0  0  0  0  0  0  0  0  0118  0  0
  -18.1797  -26.7818   22.1673 C   0  0  0  0  0  0  0  0  0119  0  0
  -19.1385  -28.8769   23.2988 C   0  0  0  0  0  0  0  0  0120  0  0
  -18.9183  -30.1286   23.8878 C   0  0  0  0  0  0  0  0  0121  0  0
  -17.6396  -30.6493   24.0352 C   0  0  0  0  0  0  0  0  0122  0  0
  -25.9153  -34.9582   23.4993 C   0  0  0  0  0  0  0  0  0123  0  0
  -16.5415  -29.9068   23.6254 C   0  0  0  0  0  0  0  0  0124  0  0
  -16.7331  -28.6521   23.0586 C   0  0  0  0  0  0  0  0  0125  0  0
  -26.4583  -31.6439   25.0683 C   0  0  0  0  0  0  0  0  0126  0  0
  -25.3807  -31.3179   26.1374 C   0  0  0  0  0  0  0  0  0127  0  0
  -27.0530  -30.3024   24.5680 C   0  0  0  0  0  0  0  0  0128  0  0
  -27.6014  -32.4281   25.7651 C   0  0  0  0  0  0  0  0  0129  0  0
  -27.5629  -37.2220   24.8621 C   0  0  0  0  0  0  0  0  0130  0  0
  -21.4133  -29.3375   22.3735 N   0  0  0  0  0  0  0  0  0131  0  0
  -26.4706  -37.3372   23.9061 N   0  0  0  0  0  0  0  0  0132  0  0
  -24.6674  -31.0544   22.1178 N   0  0  0  0  0  0  0  0  0133  0  0
  -23.4259  -28.8150   23.2971 O   0  0  0  0  0  0  0  0  0134  0  0
  -28.3948  -26.7345   20.0089 O   0  0  0  0  0  0  0  0  0135  0  0
  -26.5870  -34.9065   22.4671 O   0  0  0  0  0  0  0  0  0136  0  0
  -23.5365  -32.1254   23.7833 O   0  0  0  0  0  0  0  0  0137  0  0
  -27.7866  -22.2373   14.0166 C   0  0  0  0  0  0  0  0  0  0  0  0
  -28.7645  -21.3700   15.8500 C   0  0  0  0  0  0  0  0  0  0  0  0
  -27.6659  -21.2521   15.0275 C   0  0  0  0  0  0  0  0  0  0  0  0
  -28.9554  -22.9271   14.2520 C   0  0  0  0  0  0  0  0  0  0  0  0
  -29.5601  -24.0502   13.5061 C   0  0  0  0  0  0  0  0  0  0  0  0
  -27.0469  -18.8132   15.0423 C   0  0  0  0  0  0  0  0  0  0  0  0
  -32.9543  -22.8683   18.2195 C   0  0  0  0  0  0  0  0  0  0  0  0
  -32.9520  -24.9603   16.8729 C   0  0  0  0  0  0  0  0  0  0  0  0
  -29.8808  -24.9870   16.9251 C   0  0  0  0  0  0  0  0  0  0  0  0
  -30.7876  -22.8240   15.9626 C   0  0  0  0  0  0  0  0  0  0  0  0
  -25.7764  -20.4316   16.5012 C   0  0  0  0  0  0  0  0  0  1  0  0
  -26.5329  -20.2492   15.1782 C   0  0  1  0  0  0  0  0  0  0  0  0
  -32.1106  -24.0920   17.8226 C   0  0  0  0  0  0  0  0  0  0  0  0
  -30.7004  -23.7181   17.2415 C   0  0  1  0  0  0  0  0  0  0  0  0
  -29.5416  -22.3911   15.3688 N   0  0  0  0  0  0  0  0  0  0  0  0
  -29.9585  -22.9689   18.2309 N   0  0  0  0  0  0  0  0  0  0  0  0
  -31.4485  -12.4701   19.0860 H   0  0  0  0  0  0  0  0  0  0  0  0
  -30.3970  -11.2460   19.6950 H   0  0  0  0  0  0  0  0  0  0  0  0
  -29.6870  -11.8204   17.4226 H   0  0  0  0  0  0  0  0  0  0  0  0
  -29.6375  -13.5326   17.8649 H   0  0  0  0  0  0  0  0  0  0  0  0
  -27.7830  -11.3650   18.7904 H   0  0  0  0  0  0  0  0  0  0  0  0
  -27.4028  -12.7801   17.8021 H   0  0  0  0  0  0  0  0  0  0  0  0
  -27.7353  -14.2503   19.6136 H   0  0  0  0  0  0  0  0  0  0  0  0
  -28.5890  -11.9550   21.3832 H   0  0  0  0  0  0  0  0  0  0  0  0
  -28.5005  -13.6134   21.8562 H   0  0  0  0  0  0  0  0  0  0  0  0
  -25.2399   -9.5495   22.4318 H   0  0  0  0  0  0  0  0  0  0  0  0
  -23.9663   -7.5070   22.7297 H   0  0  0  0  0  0  0  0  0  0  0  0
  -21.1515   -8.8641   19.9162 H   0  0  0  0  0  0  0  0  0  0  0  0
  -22.4016  -10.9115   19.6476 H   0  0  0  0  0  0  0  0  0  0  0  0
  -21.2319   -7.5552   23.9750 H   0  0  0  0  0  0  0  0  0  0  0  0
  -21.1589   -6.0228   25.8556 H   0  0  0  0  0  0  0  0  0  0  0  0
  -22.0396   -2.8212   23.2809 H   0  0  0  0  0  0  0  0  0  0  0  0
  -22.4401  -11.9703   22.4008 H   0  0  0  0  0  0  0  0  0  0  0  0
  -21.1493  -13.0679   22.2082 H   0  0  0  0  0  0  0  0  0  0  0  0
  -24.6538  -15.7807   20.5848 H   0  0  0  0  0  0  0  0  0  0  0  0
  -26.2762  -15.5453   20.1156 H   0  0  0  0  0  0  0  0  0  0  0  0
  -26.6778  -32.4663   23.1464 H   0  0  0  0  0  0  0  0  0  0  0  0
  -25.0747  -34.0282   25.0566 H   0  0  0  0  0  0  0  0  0  0  0  0
  -22.7881  -31.3489   21.4131 H   0  0  0  0  0  0  0  0  0  0  0  0
  -23.3854  -35.9823   23.3648 H   0  0  0  0  0  0  0  0  0  0  0  0
  -24.3696  -36.8624   22.2204 H   0  0  0  0  0  0  0  0  0  0  0  0
  -23.7669  -37.6632   23.6516 H   0  0  0  0  0  0  0  0  0  0  0  0
  -25.9445  -31.6237   20.5691 H   0  0  0  0  0  0  0  0  0  0  0  0
  -26.7436  -31.0079   22.0108 H   0  0  0  0  0  0  0  0  0  0  0  0
  -28.0090  -29.1452   21.2057 H   0  0  0  0  0  0  0  0  0  0  0  0
  -26.1369  -26.0560   19.0719 H   0  0  0  0  0  0  0  0  0  0  0  0
  -24.0652  -27.2961   19.0997 H   0  0  0  0  0  0  0  0  0  0  0  0
  -23.6156  -30.5365   19.3930 H   0  0  0  0  0  0  0  0  0  0  0  0
  -22.7355  -29.1425   19.9945 H   0  0  0  0  0  0  0  0  0  0  0  0
  -25.1353  -36.2335   25.0565 H   0  0  0  0  0  0  0  0  0  0  0  0
  -21.0070  -28.3206   24.0793 H   0  0  0  0  0  0  0  0  0  0  0  0
  -20.5555  -26.2518   23.3550 H   0  0  0  0  0  0  0  0  0  0  0  0
  -21.5974  -26.8362   22.0454 H   0  0  0  0  0  0  0  0  0  0  0  0
  -19.6810  -25.6422   21.1488 H   0  0  0  0  0  0  0  0  0  0  0  0
  -19.6406  -27.3343   20.7034 H   0  0  0  0  0  0  0  0  0  0  0  0
  -17.4282  -26.6888   21.4113 H   0  0  0  0  0  0  0  0  0  0  0  0
  -18.0803  -26.0130   22.9049 H   0  0  0  0  0  0  0  0  0  0  0  0
  -19.7265  -30.6774   24.2204 H   0  0  0  0  0  0  0  0  0  0  0  0
  -17.5064  -31.5856   24.4483 H   0  0  0  0  0  0  0  0  0  0  0  0
  -15.5878  -30.2839   23.7407 H   0  0  0  0  0  0  0  0  0  0  0  0
  -15.9120  -28.0941   22.7766 H   0  0  0  0  0  0  0  0  0  0  0  0
  -24.5787  -30.7757   25.6817 H   0  0  0  0  0  0  0  0  0  0  0  0
  -25.0041  -32.2289   26.5536 H   0  0  0  0  0  0  0  0  0  0  0  0
  -25.8166  -30.7245   26.9138 H   0  0  0  0  0  0  0  0  0  0  0  0
  -26.2892  -29.7335   24.0803 H   0  0  0  0  0  0  0  0  0  0  0  0
  -27.4336  -29.7484   25.4006 H   0  0  0  0  0  0  0  0  0  0  0  0
  -27.8466  -30.4994   23.8779 H   0  0  0  0  0  0  0  0  0  0  0  0
  -27.2251  -33.3632   26.1242 H   0  0  0  0  0  0  0  0  0  0  0  0
  -28.3902  -32.6065   25.0645 H   0  0  0  0  0  0  0  0  0  0  0  0
  -27.9772  -31.8555   26.5872 H   0  0  0  0  0  0  0  0  0  0  0  0
  -28.2744  -38.0016   24.6863 H   0  0  0  0  0  0  0  0  0  0  0  0
  -28.0396  -36.2711   24.7461 H   0  0  0  0  0  0  0  0  0  0  0  0
  -27.1773  -37.3087   25.8564 H   0  0  0  0  0  0  0  0  0  0  0  0
  -20.9627  -29.9365   21.7352 H   0  0  0  0  0  0  0  0  0  0  0  0
  -26.0447  -38.2561   24.0273 H   0  0  0  0  0  0  0  0  0  0  0  0
  -27.1215  -22.4069   13.2460 H   0  0  0  0  0  0  0  0  0  0  0  0
  -28.9665  -20.7922   16.6809 H   0  0  0  0  0  0  0  0  0  0  0  0
  -28.9354  -24.3040   12.6753 H   0  0  0  0  0  0  0  0  0  0  0  0
  -30.5273  -23.7624   13.1502 H   0  0  0  0  0  0  0  0  0  0  0  0
  -29.6555  -24.8975   14.1526 H   0  0  0  0  0  0  0  0  0  0  0  0
  -27.5702  -18.7080   14.1150 H   0  0  0  0  0  0  0  0  0  0  0  0
  -26.2198  -18.1348   15.0641 H   0  0  0  0  0  0  0  0  0  0  0  0
  -27.7099  -18.5935   15.8529 H   0  0  0  0  0  0  0  0  0  0  0  0
  -33.8972  -23.1952   18.6054 H   0  0  0  0  0  0  0  0  0  0  0  0
  -33.1151  -22.2519   17.3598 H   0  0  0  0  0  0  0  0  0  0  0  0
  -32.4374  -22.3067   18.9693 H   0  0  0  0  0  0  0  0  0  0  0  0
  -33.8953  -25.1768   17.3292 H   0  0  0  0  0  0  0  0  0  0  0  0
  -32.4342  -25.8751   16.6731 H   0  0  0  0  0  0  0  0  0  0  0  0
  -33.1121  -24.4333   15.9555 H   0  0  0  0  0  0  0  0  0  0  0  0
  -30.3976  -25.5722   16.1934 H   0  0  0  0  0  0  0  0  0  0  0  0
  -29.7554  -25.5626   17.8184 H   0  0  0  0  0  0  0  0  0  0  0  0
  -28.9212  -24.7060   16.5442 H   0  0  0  0  0  0  0  0  0  0  0  0
  -31.3422  -21.9463   16.2214 H   0  0  0  0  0  0  0  0  0  0  0  0
  -31.2423  -23.4481   15.2219 H   0  0  0  0  0  0  0  0  0  0  0  0
  -25.9369  -19.5790   17.1274 H   0  0  0  0  0  0  0  0  0  0  0  0
  -24.7286  -20.5320   16.3091 H   0  0  0  0  0  0  0  0  0  0  0  0
  -25.8405  -20.4369   14.3843 H   0  0  0  0  0  0  0  0  0  0  0  0
  -31.8728  -24.6558   18.7004 H   0  0  0  0  0  0  0  0  0  0  0  0
  -29.2629  -23.4768   18.7078 H   0  0  0  0  0  0  0  0  0  0  0  0
  1 25  1  0
  1 30  2  0
  1 86  1  0
  2  3  1  0
  2 25  1  0
  2 87  1  0
  2 88  1  0
  3  4  1  0
  3 89  1  0
  3 90  1  0
  4  5  1  0
  4 91  1  0
  4 92  1  0
  5  6  1  0
  5 26  1  0
  5 93  1  6
  6 25  1  0
  6 94  1  0
  6 95  1  0
  7  8  2  0
  7 26  1  0
  7 29  1  0
  8  9  1  0
  8 22  1  0
  9 10  1  0
  9 27  2  0
 10 11  2  0
 10 15  1  0
 11 12  1  0
 11 96  1  0
 12 13  2  0
 12 97  1  0
 13 14  1  0
 13 31  1  0
 14 15  2  0
 14 98  1  0
 15 99  1  0
 16 17  2  0
 16 21  1  0
 16 31  1  0
 17 18  1  0
 17100  1  0
 18 19  2  0
 18101  1  0
 19 20  1  0
 19 24  1  0
 20 21  2  0
 20102  1  0
 21 23  1  0
 22 28  1  0
 22 32  2  0
 26 27  1  0
 28103  1  0
 28104  1  0
 29105  1  0
 29106  1  0
 33 34  1  0
 33 66  1  0
 33 70  2  0
 34 36  1  0
 34 59  1  0
 34107  1  6
 35 44  2  0
 35 45  1  0
 35 68  1  0
 36 56  1  0
 36108  1  0
 37 39  1  0
 37 47  1  0
 37 66  1  0
 37109  1  6
 38 43  2  0
 38 46  1  0
 38 47  1  0
 39 64  1  0
 39 67  2  0
 40 52  1  0
 40 53  2  0
 40 58  1  0
 41110  1  0
 41111  1  0
 41112  1  0
 42 43  1  0
 42 66  1  0
 42113  1  0
 42114  1  0
 43 44  1  0
 44115  1  0
 45 46  2  0
 45116  1  0
 46117  1  0
 47118  1  0
 47119  1  0
 48 41  1  0
 48 56  1  0
 48 65  1  0
 48120  1  1
 49 50  1  0
 49 53  1  0
 49 64  1  0
 49121  1  1
 50 51  1  0
 50122  1  0
 50123  1  0
 51 52  1  0
 51124  1  0
 51125  1  0
 52126  1  0
 52127  1  0
 53 54  1  0
 54 55  2  0
 54128  1  0
 55 57  1  0
 55129  1  0
 56 69  2  0
 57 58  2  0
 57130  1  0
 58131  1  0
 59 60  1  0
 59 61  1  0
 59 62  1  0
 60132  1  0
 60133  1  0
 60134  1  0
 61135  1  0
 61136  1  0
 61137  1  0
 62138  1  0
 62139  1  0
 62140  1  0
 63 65  1  0
 63141  1  0
 63142  1  0
 63143  1  0
 64144  1  0
 65145  1  0
 68 81  1  0
 71 73  1  0
 71 74  2  0
 71146  1  0
 72 73  2  0
 72 85  1  0
 72147  1  0
 73 82  1  0
 74 75  1  0
 74 85  1  0
 75148  1  0
 75149  1  0
 75150  1  0
 76151  1  0
 76152  1  0
 76153  1  0
 77154  1  0
 77155  1  0
 77156  1  0
 78 83  1  0
 78157  1  0
 78158  1  0
 78159  1  0
 79160  1  0
 79161  1  0
 79162  1  0
 80 84  1  0
 80 85  1  0
 80163  1  0
 80164  1  0
 81 82  1  0
 81165  1  0
 81166  1  0
 82 76  1  0
 82167  1  6
 83 77  1  0
 83 84  1  0
 83168  1  0
 84 79  1  0
 84 86  1  1
 86169  1  0
M  ISO  4   1 100  68 101  81 101  86 100
M  END
$$$$
29
     RDKit          3D

173181  0  0  0  0  0  0  0  0999 V2000
  -30.7652  -14.3608   20.6636 C   0  0  0  0  0  0  0  0  0100  0  0
  -30.4392  -12.2669   19.3775 C   0  0  0  0  0  0  0  0  0101  0  0
  -29.4791  -12.5281   18.1977 C   0  0  0  0  0  0  0  0  0102  0  0
  -27.9985  -12.3963   18.6038 C   0  0  0  0  0  0  0  0  0103  0  0
  -27.6639  -13.2170   19.8820 C   0  0  2  0  0  0  0  0  0104  0  0
  -28.6795  -12.9602   21.0279 C   0  0  0  0  0  0  0  0  0105  0  0
  -25.2633  -13.8245   20.5754 C   0  0  0  0  0  0  0  0  0106  0  0
  -24.1645  -13.0409   20.9408 C   0  0  0  0  0  0  0  0  0107  0  0
  -24.6400  -11.7009   20.8697 C   0  0  0  0  0  0  0  0  0108  0  0
  -23.9005  -10.4085   21.0420 C   0  0  0  0  0  0  0  0  0109  0  0
  -24.3588   -9.4123   21.9123 C   0  0  0  0  0  0  0  0  0110  0  0
  -23.6296   -8.2350   22.0803 C   0  0  0  0  0  0  0  0  0111  0  0
  -22.4385   -8.0419   21.3657 C   0  0  0  0  0  0  0  0  0112  0  0
  -22.0103   -9.0167   20.4678 C   0  0  0  0  0  0  0  0  0113  0  0
  -22.7317  -10.1925   20.3102 C   0  0  0  0  0  0  0  0  0114  0  0
  -21.6857   -6.0709   22.5391 C   0  0  0  0  0  0  0  0  0115  0  0
  -21.4064   -6.5490   23.8264 C   0  0  0  0  0  0  0  0  0116  0  0
  -21.3635   -5.6677   24.9085 C   0  0  0  0  0  0  0  0  0117  0  0
  -21.5973   -4.3067   24.7088 C   0  0  0  0  0  0  0  0  0118  0  0
  -21.8700   -3.8284   23.4282 C   0  0  0  0  0  0  0  0  0119  0  0
  -21.9144   -4.7056   22.3460 C   0  0  0  0  0  0  0  0  0120  0  0
  -22.8194  -13.5263   21.1763 C   0  0  0  0  0  0  0  0  0121  0  0
  -22.1559   -4.2206   21.1063 F   0  0  0  0  0  0  0  0  0122  0  0
  -21.5628   -3.4510   25.7555 F   0  0  0  0  0  0  0  0  0123  0  0
  -30.0261  -13.1803   20.4553 N   0  0  0  0  0  0  0  0  0124  0  0
  -26.2911  -12.9356   20.3443 N   0  0  0  0  0  0  0  0  0125  0  0
  -25.9236  -11.6675   20.5847 N   0  0  0  0  0  0  0  0  0126  0  0
  -22.0708  -12.7905   22.0005 N   0  0  0  0  0  0  0  0  0127  0  0
  -25.4117  -15.1773   20.4097 N   0  0  0  0  0  0  0  0  0128  0  0
  -31.7916  -14.6724   20.0536 O   0  0  0  0  0  0  0  0  0129  0  0
  -21.6670   -6.9022   21.4423 O   0  0  0  0  0  0  0  0  0130  0  0
  -22.3946  -14.5564   20.6568 O   0  0  0  0  0  0  0  0  0131  0  0
  -24.6048  -31.8614   23.2223 C   0  0  0  0  0  0  0  0  0100  0  0
  -25.8822  -32.4841   23.8616 C   0  0  1  0  0  0  0  0  0101  0  0
  -27.2536  -27.5042   20.1156 C   0  0  0  0  0  0  0  0  0102  0  0
  -25.5726  -33.8762   24.2210 N   0  0  0  0  0  0  0  0  0103  0  0
  -23.4066  -30.4859   21.5461 C   0  0  2  0  0  0  0  0  0104  0  0
  -24.8467  -28.9636   20.1247 C   0  0  0  0  0  0  0  0  0105  0  0
  -22.7412  -29.4652   22.5052 C   0  0  0  0  0  0  0  0  0106  0  0
  -18.0167  -28.1302   22.8626 C   0  0  0  0  0  0  0  0  0107  0  0
  -24.1342  -36.7390   23.2568 C   0  0  0  0  0  0  0  0  0108  0  0
  -25.9141  -30.8882   21.3456 C   0  0  0  0  0  0  0  0  0109  0  0
  -25.9930  -29.5029   20.7208 C   0  0  0  0  0  0  0  0  0110  0  0
  -27.1758  -28.7612   20.7331 C   0  0  0  0  0  0  0  0  0111  0  0
  -26.1032  -26.9836   19.5230 C   0  0  0  0  0  0  0  0  0112  0  0
  -24.9097  -27.7011   19.5331 C   0  0  0  0  0  0  0  0  0113  0  0
  -23.5715  -29.7899   20.1582 C   0  0  0  0  0  0  0  0  0114  0  0
  -25.3990  -36.3212   24.0232 C   0  0  1  0  0  0  0  0  0115  0  0
  -20.5793  -28.3813   23.1004 C   0  0  2  0  0  0  0  0  0116  0  0
  -20.6548  -26.9392   22.5411 C   0  0  0  0  0  0  0  0  0117  0  0
  -19.5615  -26.6407   21.5143 C   0  0  0  0  0  0  0  0  0118  0  0
  -18.1797  -26.7818   22.1673 C   0  0  0  0  0  0  0  0  0119  0  0
  -19.1385  -28.8769   23.2988 C   0  0  0  0  0  0  0  0  0120  0  0
  -18.9183  -30.1286   23.8878 C   0  0  0  0  0  0  0  0  0121  0  0
  -17.6396  -30.6493   24.0352 C   0  0  0  0  0  0  0  0  0122  0  0
  -25.9153  -34.9582   23.4993 C   0  0  0  0  0  0  0  0  0123  0  0
  -16.5415  -29.9068   23.6254 C   0  0  0  0  0  0  0  0  0124  0  0
  -16.7331  -28.6521   23.0586 C   0  0  0  0  0  0  0  0  0125  0  0
  -26.4583  -31.6439   25.0683 C   0  0  0  0  0  0  0  0  0126  0  0
  -25.3807  -31.3179   26.1374 C   0  0  0  0  0  0  0  0  0127  0  0
  -27.0530  -30.3024   24.5680 C   0  0  0  0  0  0  0  0  0128  0  0
  -27.6014  -32.4281   25.7651 C   0  0  0  0  0  0  0  0  0129  0  0
  -27.5629  -37.2220   24.8621 C   0  0  0  0  0  0  0  0  0130  0  0
  -21.4133  -29.3375   22.3735 N   0  0  0  0  0  0  0  0  0131  0  0
  -26.4706  -37.3372   23.9061 N   0  0  0  0  0  0  0  0  0132  0  0
  -24.6674  -31.0544   22.1178 N   0  0  0  0  0  0  0  0  0133  0  0
  -23.4259  -28.8150   23.2971 O   0  0  0  0  0  0  0  0  0134  0  0
  -28.3948  -26.7345   20.0089 O   0  0  0  0  0  0  0  0  0135  0  0
  -26.5870  -34.9065   22.4671 O   0  0  0  0  0  0  0  0  0136  0  0
  -23.5365  -32.1254   23.7833 O   0  0  0  0  0  0  0  0  0137  0  0
  -32.4399  -23.9748   21.9219 C   0  0  0  0  0  0  0  0  0  0  0  0
  -32.3478  -25.4962   22.0507 C   0  0  0  0  0  0  0  0  0  0  0  0
  -31.5488  -23.5942   20.7435 C   0  0  0  0  0  0  0  0  0  0  0  0
  -31.4204  -25.9594   20.9320 C   0  0  0  0  0  0  0  0  0  0  0  0
  -30.5471  -24.7410   20.6501 C   0  0  0  0  0  0  0  0  0  0  0  0
  -26.3923  -20.9415   20.5364 C   0  0  0  0  0  0  0  0  0  0  0  0
  -25.3166  -23.3321   17.9156 C   0  0  0  0  0  0  0  0  0  0  0  0
  -27.4228  -22.1772   17.9647 C   0  0  0  0  0  0  0  0  0  0  0  0
  -25.5123  -20.3179   18.2351 C   0  0  0  0  0  0  0  0  0  0  0  0
  -28.4198  -23.3184   17.8936 C   0  0  0  0  0  0  0  0  0  0  0  0
  -29.1337  -26.1446   19.0974 C   0  0  0  0  0  0  0  0  0  1  0  0
  -29.8386  -24.8094   19.3087 C   0  0  2  0  0  0  0  0  0  0  0  0
  -25.5946  -21.3997   19.3159 C   0  0  2  0  0  0  0  0  0  0  0  0
  -24.4897  -19.3330   18.5092 N   0  0  0  0  0  0  0  0  0  0  0  0
  -26.2384  -22.5798   18.7555 N   0  0  0  0  0  0  0  0  0  0  0  0
  -28.8175  -23.7230   19.2660 N   0  0  0  0  0  0  0  0  0  0  0  0
  -31.4485  -12.4701   19.0860 H   0  0  0  0  0  0  0  0  0  0  0  0
  -30.3970  -11.2460   19.6950 H   0  0  0  0  0  0  0  0  0  0  0  0
  -29.6870  -11.8204   17.4226 H   0  0  0  0  0  0  0  0  0  0  0  0
  -29.6375  -13.5326   17.8649 H   0  0  0  0  0  0  0  0  0  0  0  0
  -27.7830  -11.3650   18.7904 H   0  0  0  0  0  0  0  0  0  0  0  0
  -27.4028  -12.7801   17.8021 H   0  0  0  0  0  0  0  0  0  0  0  0
  -27.7353  -14.2503   19.6136 H   0  0  0  0  0  0  0  0  0  0  0  0
  -28.5890  -11.9550   21.3832 H   0  0  0  0  0  0  0  0  0  0  0  0
  -28.5005  -13.6134   21.8562 H   0  0  0  0  0  0  0  0  0  0  0  0
  -25.2399   -9.5495   22.4318 H   0  0  0  0  0  0  0  0  0  0  0  0
  -23.9663   -7.5070   22.7297 H   0  0  0  0  0  0  0  0  0  0  0  0
  -21.1515   -8.8641   19.9162 H   0  0  0  0  0  0  0  0  0  0  0  0
  -22.4016  -10.9115   19.6476 H   0  0  0  0  0  0  0  0  0  0  0  0
  -21.2319   -7.5552   23.9750 H   0  0  0  0  0  0  0  0  0  0  0  0
  -21.1589   -6.0228   25.8556 H   0  0  0  0  0  0  0  0  0  0  0  0
  -22.0396   -2.8212   23.2809 H   0  0  0  0  0  0  0  0  0  0  0  0
  -22.4401  -11.9703   22.4008 H   0  0  0  0  0  0  0  0  0  0  0  0
  -21.1493  -13.0679   22.2082 H   0  0  0  0  0  0  0  0  0  0  0  0
  -24.6538  -15.7807   20.5848 H   0  0  0  0  0  0  0  0  0  0  0  0
  -26.2762  -15.5453   20.1156 H   0  0  0  0  0  0  0  0  0  0  0  0
  -26.6778  -32.4663   23.1464 H   0  0  0  0  0  0  0  0  0  0  0  0
  -25.0747  -34.0282   25.0566 H   0  0  0  0  0  0  0  0  0  0  0  0
  -22.7881  -31.3489   21.4131 H   0  0  0  0  0  0  0  0  0  0  0  0
  -23.3854  -35.9823   23.3648 H   0  0  0  0  0  0  0  0  0  0  0  0
  -24.3696  -36.8624   22.2204 H   0  0  0  0  0  0  0  0  0  0  0  0
  -23.7669  -37.6632   23.6516 H   0  0  0  0  0  0  0  0  0  0  0  0
  -25.9445  -31.6237   20.5691 H   0  0  0  0  0  0  0  0  0  0  0  0
  -26.7436  -31.0079   22.0108 H   0  0  0  0  0  0  0  0  0  0  0  0
  -28.0090  -29.1452   21.2057 H   0  0  0  0  0  0  0  0  0  0  0  0
  -26.1369  -26.0560   19.0719 H   0  0  0  0  0  0  0  0  0  0  0  0
  -24.0652  -27.2961   19.0997 H   0  0  0  0  0  0  0  0  0  0  0  0
  -23.6156  -30.5365   19.3930 H   0  0  0  0  0  0  0  0  0  0  0  0
  -22.7355  -29.1425   19.9945 H   0  0  0  0  0  0  0  0  0  0  0  0
  -25.1353  -36.2335   25.0565 H   0  0  0  0  0  0  0  0  0  0  0  0
  -21.0070  -28.3206   24.0793 H   0  0  0  0  0  0  0  0  0  0  0  0
  -20.5555  -26.2518   23.3550 H   0  0  0  0  0  0  0  0  0  0  0  0
  -21.5974  -26.8362   22.0454 H   0  0  0  0  0  0  0  0  0  0  0  0
  -19.6810  -25.6422   21.1488 H   0  0  0  0  0  0  0  0  0  0  0  0
  -19.6406  -27.3343   20.7034 H   0  0  0  0  0  0  0  0  0  0  0  0
  -17.4282  -26.6888   21.4113 H   0  0  0  0  0  0  0  0  0  0  0  0
  -18.0803  -26.0130   22.9049 H   0  0  0  0  0  0  0  0  0  0  0  0
  -19.7265  -30.6774   24.2204 H   0  0  0  0  0  0  0  0  0  0  0  0
  -17.5064  -31.5856   24.4483 H   0  0  0  0  0  0  0  0  0  0  0  0
  -15.5878  -30.2839   23.7407 H   0  0  0  0  0  0  0  0  0  0  0  0
  -15.9120  -28.0941   22.7766 H   0  0  0  0  0  0  0  0  0  0  0  0
  -24.5787  -30.7757   25.6817 H   0  0  0  0  0  0  0  0  0  0  0  0
  -25.0041  -32.2289   26.5536 H   0  0  0  0  0  0  0  0  0  0  0  0
  -25.8166  -30.7245   26.9138 H   0  0  0  0  0  0  0  0  0  0  0  0
  -26.2892  -29.7335   24.0803 H   0  0  0  0  0  0  0  0  0  0  0  0
  -27.4336  -29.7484   25.4006 H   0  0  0  0  0  0  0  0  0  0  0  0
  -27.8466  -30.4994   23.8779 H   0  0  0  0  0  0  0  0  0  0  0  0
  -27.2251  -33.3632   26.1242 H   0  0  0  0  0  0  0  0  0  0  0  0
  -28.3902  -32.6065   25.0645 H   0  0  0  0  0  0  0  0  0  0  0  0
  -27.9772  -31.8555   26.5872 H   0  0  0  0  0  0  0  0  0  0  0  0
  -28.2744  -38.0016   24.6863 H   0  0  0  0  0  0  0  0  0  0  0  0
  -28.0396  -36.2711   24.7461 H   0  0  0  0  0  0  0  0  0  0  0  0
  -27.1773  -37.3087   25.8564 H   0  0  0  0  0  0  0  0  0  0  0  0
  -20.9627  -29.9365   21.7352 H   0  0  0  0  0  0  0  0  0  0  0  0
  -26.0447  -38.2561   24.0273 H   0  0  0  0  0  0  0  0  0  0  0  0
  -32.0915  -23.5047   22.8177 H   0  0  0  0  0  0  0  0  0  0  0  0
  -33.4496  -23.6565   21.7668 H   0  0  0  0  0  0  0  0  0  0  0  0
  -33.3158  -25.9378   21.9375 H   0  0  0  0  0  0  0  0  0  0  0  0
  -31.9765  -25.7856   23.0116 H   0  0  0  0  0  0  0  0  0  0  0  0
  -31.0485  -22.6668   20.9294 H   0  0  0  0  0  0  0  0  0  0  0  0
  -32.1016  -23.4565   19.8378 H   0  0  0  0  0  0  0  0  0  0  0  0
  -31.9805  -26.2353   20.0631 H   0  0  0  0  0  0  0  0  0  0  0  0
  -30.8488  -26.8229   21.2013 H   0  0  0  0  0  0  0  0  0  0  0  0
  -29.7296  -24.6423   21.3333 H   0  0  0  0  0  0  0  0  0  0  0  0
  -25.9303  -20.0739   20.9593 H   0  0  0  0  0  0  0  0  0  0  0  0
  -26.4123  -21.7255   21.2643 H   0  0  0  0  0  0  0  0  0  0  0  0
  -27.3927  -20.7043   20.2401 H   0  0  0  0  0  0  0  0  0  0  0  0
  -25.8159  -24.1912   17.5187 H   0  0  0  0  0  0  0  0  0  0  0  0
  -24.4768  -23.6458   18.4998 H   0  0  0  0  0  0  0  0  0  0  0  0
  -24.9799  -22.7120   17.1113 H   0  0  0  0  0  0  0  0  0  0  0  0
  -27.8863  -21.3317   18.4285 H   0  0  0  0  0  0  0  0  0  0  0  0
  -27.1103  -21.9251   16.9729 H   0  0  0  0  0  0  0  0  0  0  0  0
  -26.4583  -19.8216   18.1746 H   0  0  0  0  0  0  0  0  0  0  0  0
  -25.2589  -20.7996   17.3138 H   0  0  0  0  0  0  0  0  0  0  0  0
  -27.9717  -24.1513   17.3932 H   0  0  0  0  0  0  0  0  0  0  0  0
  -29.2864  -22.9982   17.3538 H   0  0  0  0  0  0  0  0  0  0  0  0
  -28.4944  -26.0050   18.2508 H   0  0  0  0  0  0  0  0  0  0  0  0
  -29.9690  -26.8115   19.0478 H   0  0  0  0  0  0  0  0  0  0  0  0
  -30.5717  -24.6991   18.5371 H   0  0  0  0  0  0  0  0  0  0  0  0
  -24.5965  -21.6146   19.6361 H   0  0  0  0  0  0  0  0  0  0  0  0
  -23.5078  -19.2784   18.4621 H   0  0  0  0  0  0  0  0  0  0  0  0
  -29.1989  -22.9060   19.7430 H   0  0  0  0  0  0  0  0  0  0  0  0
  -27.9800  -24.0885   19.7192 H   0  0  0  0  0  0  0  0  0  0  0  0
  1 25  1  0
  1 30  2  0
  1 84  1  0
  2  3  1  0
  2 25  1  0
  2 87  1  0
  2 88  1  0
  3  4  1  0
  3 89  1  0
  3 90  1  0
  4  5  1  0
  4 91  1  0
  4 92  1  0
  5  6  1  0
  5 26  1  0
  5 93  1  6
  6 25  1  0
  6 94  1  0
  6 95  1  0
  7  8  2  0
  7 26  1  0
  7 29  1  0
  8  9  1  0
  8 22  1  0
  9 10  1  0
  9 27  2  0
 10 11  2  0
 10 15  1  0
 11 12  1  0
 11 96  1  0
 12 13  2  0
 12 97  1  0
 13 14  1  0
 13 31  1  0
 14 15  2  0
 14 98  1  0
 15 99  1  0
 16 17  2  0
 16 21  1  0
 16 31  1  0
 17 18  1  0
 17100  1  0
 18 19  2  0
 18101  1  0
 19 20  1  0
 19 24  1  0
 20 21  2  0
 20102  1  0
 21 23  1  0
 22 28  1  0
 22 32  2  0
 26 27  1  0
 28103  1  0
 28104  1  0
 29105  1  0
 29106  1  0
 33 34  1  0
 33 66  1  0
 33 70  2  0
 34 36  1  0
 34 59  1  0
 34107  1  6
 35 44  2  0
 35 45  1  0
 35 68  1  0
 36 56  1  0
 36108  1  0
 37 39  1  0
 37 47  1  0
 37 66  1  0
 37109  1  6
 38 43  2  0
 38 46  1  0
 38 47  1  0
 39 64  1  0
 39 67  2  0
 40 52  1  0
 40 53  2  0
 40 58  1  0
 41110  1  0
 41111  1  0
 41112  1  0
 42 43  1  0
 42 66  1  0
 42113  1  0
 42114  1  0
 43 44  1  0
 44115  1  0
 45 46  2  0
 45116  1  0
 46117  1  0
 47118  1  0
 47119  1  0
 48 41  1  0
 48 56  1  0
 48 65  1  0
 48120  1  1
 49 50  1  0
 49 53  1  0
 49 64  1  0
 49121  1  1
 50 51  1  0
 50122  1  0
 50123  1  0
 51 52  1  0
 51124  1  0
 51125  1  0
 52126  1  0
 52127  1  0
 53 54  1  0
 54 55  2  0
 54128  1  0
 55 57  1  0
 55129  1  0
 56 69  2  0
 57 58  2  0
 57130  1  0
 58131  1  0
 59 60  1  0
 59 61  1  0
 59 62  1  0
 60132  1  0
 60133  1  0
 60134  1  0
 61135  1  0
 61136  1  0
 61137  1  0
 62138  1  0
 62139  1  0
 62140  1  0
 63 65  1  0
 63141  1  0
 63142  1  0
 63143  1  0
 64144  1  0
 65145  1  0
 68 81  1  0
 71 72  1  0
 71 73  1  0
 71146  1  0
 71147  1  0
 72 74  1  0
 72148  1  0
 72149  1  0
 73150  1  0
 73151  1  0
 74 75  1  0
 74152  1  0
 74153  1  0
 75 73  1  0
 75 82  1  0
 75154  1  0
 76155  1  0
 76156  1  0
 76157  1  0
 77 85  1  0
 77158  1  0
 77159  1  0
 77160  1  0
 78 80  1  0
 78 85  1  0
 78161  1  0
 78162  1  0
 79 83  1  0
 79 84  1  0
 79163  1  0
 79164  1  0
 80 86  1  0
 80165  1  0
 80166  1  0
 81167  1  0
 81168  1  0
 82 81  1  0
 82 86  1  0
 82169  1  6
 83 76  1  0
 83 85  1  0
 83170  1  1
 84171  1  0
 86172  1  0
 86173  1  0
M  CHG  1  86   1
M  ISO  4   1 100  68 101  81 101  84 100
M  END
$$$$
30
     RDKit          3D

163171  0  0  0  0  0  0  0  0999 V2000
  -30.7652  -14.3608   20.6636 C   0  0  0  0  0  0  0  0  0100  0  0
  -30.4392  -12.2669   19.3775 C   0  0  0  0  0  0  0  0  0101  0  0
  -29.4791  -12.5281   18.1977 C   0  0  0  0  0  0  0  0  0102  0  0
  -27.9985  -12.3963   18.6038 C   0  0  0  0  0  0  0  0  0103  0  0
  -27.6639  -13.2170   19.8820 C   0  0  2  0  0  0  0  0  0104  0  0
  -28.6795  -12.9602   21.0279 C   0  0  0  0  0  0  0  0  0105  0  0
  -25.2633  -13.8245   20.5754 C   0  0  0  0  0  0  0  0  0106  0  0
  -24.1645  -13.0409   20.9408 C   0  0  0  0  0  0  0  0  0107  0  0
  -24.6400  -11.7009   20.8697 C   0  0  0  0  0  0  0  0  0108  0  0
  -23.9005  -10.4085   21.0420 C   0  0  0  0  0  0  0  0  0109  0  0
  -24.3588   -9.4123   21.9123 C   0  0  0  0  0  0  0  0  0110  0  0
  -23.6296   -8.2350   22.0803 C   0  0  0  0  0  0  0  0  0111  0  0
  -22.4385   -8.0419   21.3657 C   0  0  0  0  0  0  0  0  0112  0  0
  -22.0103   -9.0167   20.4678 C   0  0  0  0  0  0  0  0  0113  0  0
  -22.7317  -10.1925   20.3102 C   0  0  0  0  0  0  0  0  0114  0  0
  -21.6857   -6.0709   22.5391 C   0  0  0  0  0  0  0  0  0115  0  0
  -21.4064   -6.5490   23.8264 C   0  0  0  0  0  0  0  0  0116  0  0
  -21.3635   -5.6677   24.9085 C   0  0  0  0  0  0  0  0  0117  0  0
  -21.5973   -4.3067   24.7088 C   0  0  0  0  0  0  0  0  0118  0  0
  -21.8700   -3.8284   23.4282 C   0  0  0  0  0  0  0  0  0119  0  0
  -21.9144   -4.7056   22.3460 C   0  0  0  0  0  0  0  0  0120  0  0
  -22.8194  -13.5263   21.1763 C   0  0  0  0  0  0  0  0  0121  0  0
  -22.1559   -4.2206   21.1063 F   0  0  0  0  0  0  0  0  0122  0  0
  -21.5628   -3.4510   25.7555 F   0  0  0  0  0  0  0  0  0123  0  0
  -30.0261  -13.1803   20.4553 N   0  0  0  0  0  0  0  0  0124  0  0
  -26.2911  -12.9356   20.3443 N   0  0  0  0  0  0  0  0  0125  0  0
  -25.9236  -11.6675   20.5847 N   0  0  0  0  0  0  0  0  0126  0  0
  -22.0708  -12.7905   22.0005 N   0  0  0  0  0  0  0  0  0127  0  0
  -25.4117  -15.1773   20.4097 N   0  0  0  0  0  0  0  0  0128  0  0
  -31.7916  -14.6724   20.0536 O   0  0  0  0  0  0  0  0  0129  0  0
  -21.6670   -6.9022   21.4423 O   0  0  0  0  0  0  0  0  0130  0  0
  -22.3946  -14.5564   20.6568 O   0  0  0  0  0  0  0  0  0131  0  0
  -24.6048  -31.8614   23.2223 C   0  0  0  0  0  0  0  0  0100  0  0
  -25.8822  -32.4841   23.8616 C   0  0  1  0  0  0  0  0  0101  0  0
  -27.2536  -27.5042   20.1156 C   0  0  0  0  0  0  0  0  0102  0  0
  -25.5726  -33.8762   24.2210 N   0  0  0  0  0  0  0  0  0103  0  0
  -23.4066  -30.4859   21.5461 C   0  0  2  0  0  0  0  0  0104  0  0
  -24.8467  -28.9636   20.1247 C   0  0  0  0  0  0  0  0  0105  0  0
  -22.7412  -29.4652   22.5052 C   0  0  0  0  0  0  0  0  0106  0  0
  -18.0167  -28.1302   22.8626 C   0  0  0  0  0  0  0  0  0107  0  0
  -24.1342  -36.7390   23.2568 C   0  0  0  0  0  0  0  0  0108  0  0
  -25.9141  -30.8882   21.3456 C   0  0  0  0  0  0  0  0  0109  0  0
  -25.9930  -29.5029   20.7208 C   0  0  0  0  0  0  0  0  0110  0  0
  -27.1758  -28.7612   20.7331 C   0  0  0  0  0  0  0  0  0111  0  0
  -26.1032  -26.9836   19.5230 C   0  0  0  0  0  0  0  0  0112  0  0
  -24.9097  -27.7011   19.5331 C   0  0  0  0  0  0  0  0  0113  0  0
  -23.5715  -29.7899   20.1582 C   0  0  0  0  0  0  0  0  0114  0  0
  -25.3990  -36.3212   24.0232 C   0  0  1  0  0  0  0  0  0115  0  0
  -20.5793  -28.3813   23.1004 C   0  0  2  0  0  0  0  0  0116  0  0
  -20.6548  -26.9392   22.5411 C   0  0  0  0  0  0  0  0  0117  0  0
  -19.5615  -26.6407   21.5143 C   0  0  0  0  0  0  0  0  0118  0  0
  -18.1797  -26.7818   22.1673 C   0  0  0  0  0  0  0  0  0119  0  0
  -19.1385  -28.8769   23.2988 C   0  0  0  0  0  0  0  0  0120  0  0
  -18.9183  -30.1286   23.8878 C   0  0  0  0  0  0  0  0  0121  0  0
  -17.6396  -30.6493   24.0352 C   0  0  0  0  0  0  0  0  0122  0  0
  -25.9153  -34.9582   23.4993 C   0  0  0  0  0  0  0  0  0123  0  0
  -16.5415  -29.9068   23.6254 C   0  0  0  0  0  0  0  0  0124  0  0
  -16.7331  -28.6521   23.0586 C   0  0  0  0  0  0  0  0  0125  0  0
  -26.4583  -31.6439   25.0683 C   0  0  0  0  0  0  0  0  0126  0  0
  -25.3807  -31.3179   26.1374 C   0  0  0  0  0  0  0  0  0127  0  0
  -27.0530  -30.3024   24.5680 C   0  0  0  0  0  0  0  0  0128  0  0
  -27.6014  -32.4281   25.7651 C   0  0  0  0  0  0  0  0  0129  0  0
  -27.5629  -37.2220   24.8621 C   0  0  0  0  0  0  0  0  0130  0  0
  -21.4133  -29.3375   22.3735 N   0  0  0  0  0  0  0  0  0131  0  0
  -26.4706  -37.3372   23.9061 N   0  0  0  0  0  0  0  0  0132  0  0
  -24.6674  -31.0544   22.1178 N   0  0  0  0  0  0  0  0  0133  0  0
  -23.4259  -28.8150   23.2971 O   0  0  0  0  0  0  0  0  0134  0  0
  -28.3948  -26.7345   20.0089 O   0  0  0  0  0  0  0  0  0135  0  0
  -26.5870  -34.9065   22.4671 O   0  0  0  0  0  0  0  0  0136  0  0
  -23.5365  -32.1254   23.7833 O   0  0  0  0  0  0  0  0  0137  0  0
  -29.5392  -20.2764   19.9386 C   0  0  0  0  0  0  0  0  0  0  0  0
  -28.1232  -18.5595   21.0464 C   0  0  0  0  0  0  0  0  0  0  0  0
  -30.7365  -19.3910   20.2372 C   0  0  0  0  0  0  0  0  0  0  0  0
  -29.3969  -17.7569   21.2961 C   0  0  1  0  0  0  0  0  0  0  0  0
  -26.2678  -23.2017   21.1959 C   0  0  0  0  0  0  0  0  0  0  0  0
  -31.1390  -15.9317   22.6446 C   0  0  0  0  0  0  0  0  0  0  0  0
  -29.1032  -16.2632   21.2914 C   0  0  0  0  0  0  0  0  0  0  0  0
  -27.2827  -20.9015   20.8098 C   0  0  0  0  0  0  0  0  0  0  0  0
  -27.9015  -22.2541   22.8765 C   0  0  0  0  0  0  0  0  0  1  0  0
  -27.4914  -22.3011   21.3993 C   0  0  2  0  0  0  0  0  0  0  0  0
  -30.3129  -15.4802   21.5339 N   0  0  0  0  0  0  0  0  0  0  0  0
  -28.4727  -20.0366   20.9911 N   0  0  2  0  0  0  0  0  0  0  0  0
  -30.3504  -18.0163   20.2593 O   0  0  0  0  0  0  0  0  0  0  0  0
  -31.4485  -12.4701   19.0860 H   0  0  0  0  0  0  0  0  0  0  0  0
  -30.3970  -11.2460   19.6950 H   0  0  0  0  0  0  0  0  0  0  0  0
  -29.6870  -11.8204   17.4226 H   0  0  0  0  0  0  0  0  0  0  0  0
  -29.6375  -13.5326   17.8649 H   0  0  0  0  0  0  0  0  0  0  0  0
  -27.7830  -11.3650   18.7904 H   0  0  0  0  0  0  0  0  0  0  0  0
  -27.4028  -12.7801   17.8021 H   0  0  0  0  0  0  0  0  0  0  0  0
  -27.7353  -14.2503   19.6136 H   0  0  0  0  0  0  0  0  0  0  0  0
  -28.5890  -11.9550   21.3832 H   0  0  0  0  0  0  0  0  0  0  0  0
  -28.5005  -13.6134   21.8562 H   0  0  0  0  0  0  0  0  0  0  0  0
  -25.2399   -9.5495   22.4318 H   0  0  0  0  0  0  0  0  0  0  0  0
  -23.9663   -7.5070   22.7297 H   0  0  0  0  0  0  0  0  0  0  0  0
  -21.1515   -8.8641   19.9162 H   0  0  0  0  0  0  0  0  0  0  0  0
  -22.4016  -10.9115   19.6476 H   0  0  0  0  0  0  0  0  0  0  0  0
  -21.2319   -7.5552   23.9750 H   0  0  0  0  0  0  0  0  0  0  0  0
  -21.1589   -6.0228   25.8556 H   0  0  0  0  0  0  0  0  0  0  0  0
  -22.0396   -2.8212   23.2809 H   0  0  0  0  0  0  0  0  0  0  0  0
  -22.4401  -11.9703   22.4008 H   0  0  0  0  0  0  0  0  0  0  0  0
  -21.1493  -13.0679   22.2082 H   0  0  0  0  0  0  0  0  0  0  0  0
  -24.6538  -15.7807   20.5848 H   0  0  0  0  0  0  0  0  0  0  0  0
  -26.2762  -15.5453   20.1156 H   0  0  0  0  0  0  0  0  0  0  0  0
  -26.6778  -32.4663   23.1464 H   0  0  0  0  0  0  0  0  0  0  0  0
  -25.0747  -34.0282   25.0566 H   0  0  0  0  0  0  0  0  0  0  0  0
  -22.7881  -31.3489   21.4131 H   0  0  0  0  0  0  0  0  0  0  0  0
  -23.3854  -35.9823   23.3648 H   0  0  0  0  0  0  0  0  0  0  0  0
  -24.3696  -36.8624   22.2204 H   0  0  0  0  0  0  0  0  0  0  0  0
  -23.7669  -37.6632   23.6516 H   0  0  0  0  0  0  0  0  0  0  0  0
  -25.9445  -31.6237   20.5691 H   0  0  0  0  0  0  0  0  0  0  0  0
  -26.7436  -31.0079   22.0108 H   0  0  0  0  0  0  0  0  0  0  0  0
  -28.0090  -29.1452   21.2057 H   0  0  0  0  0  0  0  0  0  0  0  0
  -26.1369  -26.0560   19.0719 H   0  0  0  0  0  0  0  0  0  0  0  0
  -24.0652  -27.2961   19.0997 H   0  0  0  0  0  0  0  0  0  0  0  0
  -23.6156  -30.5365   19.3930 H   0  0  0  0  0  0  0  0  0  0  0  0
  -22.7355  -29.1425   19.9945 H   0  0  0  0  0  0  0  0  0  0  0  0
  -25.1353  -36.2335   25.0565 H   0  0  0  0  0  0  0  0  0  0  0  0
  -21.0070  -28.3206   24.0793 H   0  0  0  0  0  0  0  0  0  0  0  0
  -20.5555  -26.2518   23.3550 H   0  0  0  0  0  0  0  0  0  0  0  0
  -21.5974  -26.8362   22.0454 H   0  0  0  0  0  0  0  0  0  0  0  0
  -19.6810  -25.6422   21.1488 H   0  0  0  0  0  0  0  0  0  0  0  0
  -19.6406  -27.3343   20.7034 H   0  0  0  0  0  0  0  0  0  0  0  0
  -17.4282  -26.6888   21.4113 H   0  0  0  0  0  0  0  0  0  0  0  0
  -18.0803  -26.0130   22.9049 H   0  0  0  0  0  0  0  0  0  0  0  0
  -19.7265  -30.6774   24.2204 H   0  0  0  0  0  0  0  0  0  0  0  0
  -17.5064  -31.5856   24.4483 H   0  0  0  0  0  0  0  0  0  0  0  0
  -15.5878  -30.2839   23.7407 H   0  0  0  0  0  0  0  0  0  0  0  0
  -15.9120  -28.0941   22.7766 H   0  0  0  0  0  0  0  0  0  0  0  0
  -24.5787  -30.7757   25.6817 H   0  0  0  0  0  0  0  0  0  0  0  0
  -25.0041  -32.2289   26.5536 H   0  0  0  0  0  0  0  0  0  0  0  0
  -25.8166  -30.7245   26.9138 H   0  0  0  0  0  0  0  0  0  0  0  0
  -26.2892  -29.7335   24.0803 H   0  0  0  0  0  0  0  0  0  0  0  0
  -27.4336  -29.7484   25.4006 H   0  0  0  0  0  0  0  0  0  0  0  0
  -27.8466  -30.4994   23.8779 H   0  0  0  0  0  0  0  0  0  0  0  0
  -27.2251  -33.3632   26.1242 H   0  0  0  0  0  0  0  0  0  0  0  0
  -28.3902  -32.6065   25.0645 H   0  0  0  0  0  0  0  0  0  0  0  0
  -27.9772  -31.8555   26.5872 H   0  0  0  0  0  0  0  0  0  0  0  0
  -28.2744  -38.0016   24.6863 H   0  0  0  0  0  0  0  0  0  0  0  0
  -28.0396  -36.2711   24.7461 H   0  0  0  0  0  0  0  0  0  0  0  0
  -27.1773  -37.3087   25.8564 H   0  0  0  0  0  0  0  0  0  0  0  0
  -20.9627  -29.9365   21.7352 H   0  0  0  0  0  0  0  0  0  0  0  0
  -26.0447  -38.2561   24.0273 H   0  0  0  0  0  0  0  0  0  0  0  0
  -29.1488  -20.0376   18.9714 H   0  0  0  0  0  0  0  0  0  0  0  0
  -29.8369  -21.3040   19.9532 H   0  0  0  0  0  0  0  0  0  0  0  0
  -27.4276  -18.3849   21.8405 H   0  0  0  0  0  0  0  0  0  0  0  0
  -27.6813  -18.2575   20.1199 H   0  0  0  0  0  0  0  0  0  0  0  0
  -31.1424  -19.6579   21.1906 H   0  0  0  0  0  0  0  0  0  0  0  0
  -31.4699  -19.5316   19.4709 H   0  0  0  0  0  0  0  0  0  0  0  0
  -29.7842  -18.0504   22.2494 H   0  0  0  0  0  0  0  0  0  0  0  0
  -26.0040  -23.2162   20.1590 H   0  0  0  0  0  0  0  0  0  0  0  0
  -26.4985  -24.1953   21.5192 H   0  0  0  0  0  0  0  0  0  0  0  0
  -25.4467  -22.8223   21.7675 H   0  0  0  0  0  0  0  0  0  0  0  0
  -30.6491  -16.7386   23.1485 H   0  0  0  0  0  0  0  0  0  0  0  0
  -32.0852  -16.2654   22.2728 H   0  0  0  0  0  0  0  0  0  0  0  0
  -31.2898  -15.1230   23.3288 H   0  0  0  0  0  0  0  0  0  0  0  0
  -28.6978  -15.9913   20.3392 H   0  0  0  0  0  0  0  0  0  0  0  0
  -28.4052  -16.0552   22.0753 H   0  0  0  0  0  0  0  0  0  0  0  0
  -27.0802  -20.9947   19.7633 H   0  0  0  0  0  0  0  0  0  0  0  0
  -26.4629  -20.4460   21.3250 H   0  0  0  0  0  0  0  0  0  0  0  0
  -28.7717  -21.7085   23.1764 H   0  0  0  0  0  0  0  0  0  0  0  0
  -27.4215  -21.9838   23.7938 H   0  0  0  0  0  0  0  0  0  0  0  0
  -28.3045  -22.7352   20.8558 H   0  0  0  0  0  0  0  0  0  0  0  0
  -28.8565  -20.3051   21.8972 H   0  0  0  0  0  0  0  0  0  0  0  0
  1 25  1  0
  1 30  2  0
  1 81  1  0
  2  3  1  0
  2 25  1  0
  2 84  1  0
  2 85  1  0
  3  4  1  0
  3 86  1  0
  3 87  1  0
  4  5  1  0
  4 88  1  0
  4 89  1  0
  5  6  1  0
  5 26  1  0
  5 90  1  6
  6 25  1  0
  6 91  1  0
  6 92  1  0
  7  8  2  0
  7 26  1  0
  7 29  1  0
  8  9  1  0
  8 22  1  0
  9 10  1  0
  9 27  2  0
 10 11  2  0
 10 15  1  0
 11 12  1  0
 11 93  1  0
 12 13  2  0
 12 94  1  0
 13 14  1  0
 13 31  1  0
 14 15  2  0
 14 95  1  0
 15 96  1  0
 16 17  2  0
 16 21  1  0
 16 31  1  0
 17 18  1  0
 17 97  1  0
 18 19  2  0
 18 98  1  0
 19 20  1  0
 19 24  1  0
 20 21  2  0
 20 99  1  0
 21 23  1  0
 22 28  1  0
 22 32  2  0
 26 27  1  0
 28100  1  0
 28101  1  0
 29102  1  0
 29103  1  0
 33 34  1  0
 33 66  1  0
 33 70  2  0
 34 36  1  0
 34 59  1  0
 34104  1  6
 35 44  2  0
 35 45  1  0
 35 68  1  0
 36 56  1  0
 36105  1  0
 37 39  1  0
 37 47  1  0
 37 66  1  0
 37106  1  6
 38 43  2  0
 38 46  1  0
 38 47  1  0
 39 64  1  0
 39 67  2  0
 40 52  1  0
 40 53  2  0
 40 58  1  0
 41107  1  0
 41108  1  0
 41109  1  0
 42 43  1  0
 42 66  1  0
 42110  1  0
 42111  1  0
 43 44  1  0
 44112  1  0
 45 46  2  0
 45113  1  0
 46114  1  0
 47115  1  0
 47116  1  0
 48 41  1  0
 48 56  1  0
 48 65  1  0
 48117  1  1
 49 50  1  0
 49 53  1  0
 49 64  1  0
 49118  1  1
 50 51  1  0
 50119  1  0
 50120  1  0
 51 52  1  0
 51121  1  0
 51122  1  0
 52123  1  0
 52124  1  0
 53 54  1  0
 54 55  2  0
 54125  1  0
 55 57  1  0
 55126  1  0
 56 69  2  0
 57 58  2  0
 57127  1  0
 58128  1  0
 59 60  1  0
 59 61  1  0
 59 62  1  0
 60129  1  0
 60130  1  0
 60131  1  0
 61132  1  0
 61133  1  0
 61134  1  0
 62135  1  0
 62136  1  0
 62137  1  0
 63 65  1  0
 63138  1  0
 63139  1  0
 63140  1  0
 64141  1  0
 65142  1  0
 68 79  1  0
 71 73  1  0
 71 82  1  0
 71143  1  0
 71144  1  0
 72 74  1  0
 72 82  1  0
 72145  1  0
 72146  1  0
 73 83  1  0
 73147  1  0
 73148  1  0
 74 77  1  0
 74 83  1  0
 74149  1  1
 75150  1  0
 75151  1  0
 75152  1  0
 76 81  1  0
 76153  1  0
 76154  1  0
 76155  1  0
 77 81  1  0
 77156  1  0
 77157  1  0
 78 80  1  0
 78158  1  0
 78159  1  0
 79 80  1  0
 79160  1  0
 79161  1  0
 80 75  1  0
 80162  1  6
 82 78  1  0
 82163  1  1
M  CHG  1  82   1
M  ISO  4   1 100  68 101  79 101  81 100
M  END
$$$$
31
     RDKit          3D

155163  0  0  0  0  0  0  0  0999 V2000
  -30.7652  -14.3608   20.6636 C   0  0  0  0  0  0  0  0  0100  0  0
  -30.4392  -12.2669   19.3775 C   0  0  0  0  0  0  0  0  0101  0  0
  -29.4791  -12.5281   18.1977 C   0  0  0  0  0  0  0  0  0102  0  0
  -27.9985  -12.3963   18.6038 C   0  0  0  0  0  0  0  0  0103  0  0
  -27.6639  -13.2170   19.8820 C   0  0  2  0  0  0  0  0  0104  0  0
  -28.6795  -12.9602   21.0279 C   0  0  0  0  0  0  0  0  0105  0  0
  -25.2633  -13.8245   20.5754 C   0  0  0  0  0  0  0  0  0106  0  0
  -24.1645  -13.0409   20.9408 C   0  0  0  0  0  0  0  0  0107  0  0
  -24.6400  -11.7009   20.8697 C   0  0  0  0  0  0  0  0  0108  0  0
  -23.9005  -10.4085   21.0420 C   0  0  0  0  0  0  0  0  0109  0  0
  -24.3588   -9.4123   21.9123 C   0  0  0  0  0  0  0  0  0110  0  0
  -23.6296   -8.2350   22.0803 C   0  0  0  0  0  0  0  0  0111  0  0
  -22.4385   -8.0419   21.3657 C   0  0  0  0  0  0  0  0  0112  0  0
  -22.0103   -9.0167   20.4678 C   0  0  0  0  0  0  0  0  0113  0  0
  -22.7317  -10.1925   20.3102 C   0  0  0  0  0  0  0  0  0114  0  0
  -21.6857   -6.0709   22.5391 C   0  0  0  0  0  0  0  0  0115  0  0
  -21.4064   -6.5490   23.8264 C   0  0  0  0  0  0  0  0  0116  0  0
  -21.3635   -5.6677   24.9085 C   0  0  0  0  0  0  0  0  0117  0  0
  -21.5973   -4.3067   24.7088 C   0  0  0  0  0  0  0  0  0118  0  0
  -21.8700   -3.8284   23.4282 C   0  0  0  0  0  0  0  0  0119  0  0
  -21.9144   -4.7056   22.3460 C   0  0  0  0  0  0  0  0  0120  0  0
  -22.8194  -13.5263   21.1763 C   0  0  0  0  0  0  0  0  0121  0  0
  -22.1559   -4.2206   21.1063 F   0  0  0  0  0  0  0  0  0122  0  0
  -21.5628   -3.4510   25.7555 F   0  0  0  0  0  0  0  0  0123  0  0
  -30.0261  -13.1803   20.4553 N   0  0  0  0  0  0  0  0  0124  0  0
  -26.2911  -12.9356   20.3443 N   0  0  0  0  0  0  0  0  0125  0  0
  -25.9236  -11.6675   20.5847 N   0  0  0  0  0  0  0  0  0126  0  0
  -22.0708  -12.7905   22.0005 N   0  0  0  0  0  0  0  0  0127  0  0
  -25.4117  -15.1773   20.4097 N   0  0  0  0  0  0  0  0  0128  0  0
  -31.7916  -14.6724   20.0536 O   0  0  0  0  0  0  0  0  0129  0  0
  -21.6670   -6.9022   21.4423 O   0  0  0  0  0  0  0  0  0130  0  0
  -22.3946  -14.5564   20.6568 O   0  0  0  0  0  0  0  0  0131  0  0
  -24.6048  -31.8614   23.2223 C   0  0  0  0  0  0  0  0  0100  0  0
  -25.8822  -32.4841   23.8616 C   0  0  1  0  0  0  0  0  0101  0  0
  -27.2536  -27.5042   20.1156 C   0  0  0  0  0  0  0  0  0102  0  0
  -25.5726  -33.8762   24.2210 N   0  0  0  0  0  0  0  0  0103  0  0
  -23.4066  -30.4859   21.5461 C   0  0  2  0  0  0  0  0  0104  0  0
  -24.8467  -28.9636   20.1247 C   0  0  0  0  0  0  0  0  0105  0  0
  -22.7412  -29.4652   22.5052 C   0  0  0  0  0  0  0  0  0106  0  0
  -18.0167  -28.1302   22.8626 C   0  0  0  0  0  0  0  0  0107  0  0
  -24.1342  -36.7390   23.2568 C   0  0  0  0  0  0  0  0  0108  0  0
  -25.9141  -30.8882   21.3456 C   0  0  0  0  0  0  0  0  0109  0  0
  -25.9930  -29.5029   20.7208 C   0  0  0  0  0  0  0  0  0110  0  0
  -27.1758  -28.7612   20.7331 C   0  0  0  0  0  0  0  0  0111  0  0
  -26.1032  -26.9836   19.5230 C   0  0  0  0  0  0  0  0  0112  0  0
  -24.9097  -27.7011   19.5331 C   0  0  0  0  0  0  0  0  0113  0  0
  -23.5715  -29.7899   20.1582 C   0  0  0  0  0  0  0  0  0114  0  0
  -25.3990  -36.3212   24.0232 C   0  0  1  0  0  0  0  0  0115  0  0
  -20.5793  -28.3813   23.1004 C   0  0  2  0  0  0  0  0  0116  0  0
  -20.6548  -26.9392   22.5411 C   0  0  0  0  0  0  0  0  0117  0  0
  -19.5615  -26.6407   21.5143 C   0  0  0  0  0  0  0  0  0118  0  0
  -18.1797  -26.7818   22.1673 C   0  0  0  0  0  0  0  0  0119  0  0
  -19.1385  -28.8769   23.2988 C   0  0  0  0  0  0  0  0  0120  0  0
  -18.9183  -30.1286   23.8878 C   0  0  0  0  0  0  0  0  0121  0  0
  -17.6396  -30.6493   24.0352 C   0  0  0  0  0  0  0  0  0122  0  0
  -25.9153  -34.9582   23.4993 C   0  0  0  0  0  0  0  0  0123  0  0
  -16.5415  -29.9068   23.6254 C   0  0  0  0  0  0  0  0  0124  0  0
  -16.7331  -28.6521   23.0586 C   0  0  0  0  0  0  0  0  0125  0  0
  -26.4583  -31.6439   25.0683 C   0  0  0  0  0  0  0  0  0126  0  0
  -25.3807  -31.3179   26.1374 C   0  0  0  0  0  0  0  0  0127  0  0
  -27.0530  -30.3024   24.5680 C   0  0  0  0  0  0  0  0  0128  0  0
  -27.6014  -32.4281   25.7651 C   0  0  0  0  0  0  0  0  0129  0  0
  -27.5629  -37.2220   24.8621 C   0  0  0  0  0  0  0  0  0130  0  0
  -21.4133  -29.3375   22.3735 N   0  0  0  0  0  0  0  0  0131  0  0
  -26.4706  -37.3372   23.9061 N   0  0  0  0  0  0  0  0  0132  0  0
  -24.6674  -31.0544   22.1178 N   0  0  0  0  0  0  0  0  0133  0  0
  -23.4259  -28.8150   23.2971 O   0  0  0  0  0  0  0  0  0134  0  0
  -28.3948  -26.7345   20.0089 O   0  0  0  0  0  0  0  0  0135  0  0
  -26.5870  -34.9065   22.4671 O   0  0  0  0  0  0  0  0  0136  0  0
  -23.5365  -32.1254   23.7833 O   0  0  0  0  0  0  0  0  0137  0  0
  -28.7206  -19.6329   20.5279 C   0  0  0  0  0  0  0  0  0  0  0  0
  -26.9880  -20.2747   22.2096 C   0  0  0  0  0  0  0  0  0  0  0  0
  -27.2236  -18.9553   22.9297 C   0  0  0  0  0  0  0  0  0  0  0  0
  -27.3052  -20.1745   20.7142 C   0  0  1  0  0  0  0  0  0  0  0  0
  -29.0485  -18.3673   21.3056 C   0  0  1  0  0  0  0  0  0  0  0  0
  -27.1225  -21.5272   20.0333 C   0  0  0  0  0  0  0  0  0  1  0  0
  -30.5284  -18.0187   21.2698 C   0  0  0  0  0  0  0  0  0  0  0  0
  -30.8653  -16.7866   22.1023 C   0  0  0  0  0  0  0  0  0  0  0  0
  -30.1803  -15.6025   21.6338 N   0  0  0  0  0  0  0  0  0  0  0  0
  -28.6470  -18.5449   22.7402 N   0  0  0  0  0  0  0  0  0  0  0  0
  -29.5134  -20.1310   19.7296 O   0  0  0  0  0  0  0  0  0  0  0  0
  -31.4485  -12.4701   19.0860 H   0  0  0  0  0  0  0  0  0  0  0  0
  -30.3970  -11.2460   19.6950 H   0  0  0  0  0  0  0  0  0  0  0  0
  -29.6870  -11.8204   17.4226 H   0  0  0  0  0  0  0  0  0  0  0  0
  -29.6375  -13.5326   17.8649 H   0  0  0  0  0  0  0  0  0  0  0  0
  -27.7830  -11.3650   18.7904 H   0  0  0  0  0  0  0  0  0  0  0  0
  -27.4028  -12.7801   17.8021 H   0  0  0  0  0  0  0  0  0  0  0  0
  -27.7353  -14.2503   19.6136 H   0  0  0  0  0  0  0  0  0  0  0  0
  -28.5890  -11.9550   21.3832 H   0  0  0  0  0  0  0  0  0  0  0  0
  -28.5005  -13.6134   21.8562 H   0  0  0  0  0  0  0  0  0  0  0  0
  -25.2399   -9.5495   22.4318 H   0  0  0  0  0  0  0  0  0  0  0  0
  -23.9663   -7.5070   22.7297 H   0  0  0  0  0  0  0  0  0  0  0  0
  -21.1515   -8.8641   19.9162 H   0  0  0  0  0  0  0  0  0  0  0  0
  -22.4016  -10.9115   19.6476 H   0  0  0  0  0  0  0  0  0  0  0  0
  -21.2319   -7.5552   23.9750 H   0  0  0  0  0  0  0  0  0  0  0  0
  -21.1589   -6.0228   25.8556 H   0  0  0  0  0  0  0  0  0  0  0  0
  -22.0396   -2.8212   23.2809 H   0  0  0  0  0  0  0  0  0  0  0  0
  -22.4401  -11.9703   22.4008 H   0  0  0  0  0  0  0  0  0  0  0  0
  -21.1493  -13.0679   22.2082 H   0  0  0  0  0  0  0  0  0  0  0  0
  -24.6538  -15.7807   20.5848 H   0  0  0  0  0  0  0  0  0  0  0  0
  -26.2762  -15.5453   20.1156 H   0  0  0  0  0  0  0  0  0  0  0  0
  -26.6778  -32.4663   23.1464 H   0  0  0  0  0  0  0  0  0  0  0  0
  -25.0747  -34.0282   25.0566 H   0  0  0  0  0  0  0  0  0  0  0  0
  -22.7881  -31.3489   21.4131 H   0  0  0  0  0  0  0  0  0  0  0  0
  -23.3854  -35.9823   23.3648 H   0  0  0  0  0  0  0  0  0  0  0  0
  -24.3696  -36.8624   22.2204 H   0  0  0  0  0  0  0  0  0  0  0  0
  -23.7669  -37.6632   23.6516 H   0  0  0  0  0  0  0  0  0  0  0  0
  -25.9445  -31.6237   20.5691 H   0  0  0  0  0  0  0  0  0  0  0  0
  -26.7436  -31.0079   22.0108 H   0  0  0  0  0  0  0  0  0  0  0  0
  -28.0090  -29.1452   21.2057 H   0  0  0  0  0  0  0  0  0  0  0  0
  -26.1369  -26.0560   19.0719 H   0  0  0  0  0  0  0  0  0  0  0  0
  -24.0652  -27.2961   19.0997 H   0  0  0  0  0  0  0  0  0  0  0  0
  -23.6156  -30.5365   19.3930 H   0  0  0  0  0  0  0  0  0  0  0  0
  -22.7355  -29.1425   19.9945 H   0  0  0  0  0  0  0  0  0  0  0  0
  -25.1353  -36.2335   25.0565 H   0  0  0  0  0  0  0  0  0  0  0  0
  -21.0070  -28.3206   24.0793 H   0  0  0  0  0  0  0  0  0  0  0  0
  -20.5555  -26.2518   23.3550 H   0  0  0  0  0  0  0  0  0  0  0  0
  -21.5974  -26.8362   22.0454 H   0  0  0  0  0  0  0  0  0  0  0  0
  -19.6810  -25.6422   21.1488 H   0  0  0  0  0  0  0  0  0  0  0  0
  -19.6406  -27.3343   20.7034 H   0  0  0  0  0  0  0  0  0  0  0  0
  -17.4282  -26.6888   21.4113 H   0  0  0  0  0  0  0  0  0  0  0  0
  -18.0803  -26.0130   22.9049 H   0  0  0  0  0  0  0  0  0  0  0  0
  -19.7265  -30.6774   24.2204 H   0  0  0  0  0  0  0  0  0  0  0  0
  -17.5064  -31.5856   24.4483 H   0  0  0  0  0  0  0  0  0  0  0  0
  -15.5878  -30.2839   23.7407 H   0  0  0  0  0  0  0  0  0  0  0  0
  -15.9120  -28.0941   22.7766 H   0  0  0  0  0  0  0  0  0  0  0  0
  -24.5787  -30.7757   25.6817 H   0  0  0  0  0  0  0  0  0  0  0  0
  -25.0041  -32.2289   26.5536 H   0  0  0  0  0  0  0  0  0  0  0  0
  -25.8166  -30.7245   26.9138 H   0  0  0  0  0  0  0  0  0  0  0  0
  -26.2892  -29.7335   24.0803 H   0  0  0  0  0  0  0  0  0  0  0  0
  -27.4336  -29.7484   25.4006 H   0  0  0  0  0  0  0  0  0  0  0  0
  -27.8466  -30.4994   23.8779 H   0  0  0  0  0  0  0  0  0  0  0  0
  -27.2251  -33.3632   26.1242 H   0  0  0  0  0  0  0  0  0  0  0  0
  -28.3902  -32.6065   25.0645 H   0  0  0  0  0  0  0  0  0  0  0  0
  -27.9772  -31.8555   26.5872 H   0  0  0  0  0  0  0  0  0  0  0  0
  -28.2744  -38.0016   24.6863 H   0  0  0  0  0  0  0  0  0  0  0  0
  -28.0396  -36.2711   24.7461 H   0  0  0  0  0  0  0  0  0  0  0  0
  -27.1773  -37.3087   25.8564 H   0  0  0  0  0  0  0  0  0  0  0  0
  -20.9627  -29.9365   21.7352 H   0  0  0  0  0  0  0  0  0  0  0  0
  -26.0447  -38.2561   24.0273 H   0  0  0  0  0  0  0  0  0  0  0  0
  -27.6146  -21.0239   22.6466 H   0  0  0  0  0  0  0  0  0  0  0  0
  -25.9536  -20.5284   22.3127 H   0  0  0  0  0  0  0  0  0  0  0  0
  -26.5771  -18.2051   22.5246 H   0  0  0  0  0  0  0  0  0  0  0  0
  -27.0168  -19.0712   23.9731 H   0  0  0  0  0  0  0  0  0  0  0  0
  -26.6220  -19.4943   20.2500 H   0  0  0  0  0  0  0  0  0  0  0  0
  -28.5071  -17.5705   20.8399 H   0  0  0  0  0  0  0  0  0  0  0  0
  -26.0563  -21.6053   20.0771 H   0  0  0  0  0  0  0  0  0  0  0  0
  -27.9604  -21.3207   19.4007 H   0  0  0  0  0  0  0  0  0  0  0  0
  -31.0848  -18.8502   21.6491 H   0  0  0  0  0  0  0  0  0  0  0  0
  -30.7836  -17.8007   20.2538 H   0  0  0  0  0  0  0  0  0  0  0  0
  -30.5811  -16.9693   23.1176 H   0  0  0  0  0  0  0  0  0  0  0  0
  -31.9173  -16.6114   22.0160 H   0  0  0  0  0  0  0  0  0  0  0  0
  -29.2435  -15.5111   21.9225 H   0  0  0  0  0  0  0  0  0  0  0  0
  -28.7922  -17.6594   23.2252 H   0  0  0  0  0  0  0  0  0  0  0  0
  -29.2225  -19.2990   23.1151 H   0  0  0  0  0  0  0  0  0  0  0  0
  1 25  1  0
  1 30  2  0
  1 79  1  0
  2  3  1  0
  2 25  1  0
  2 82  1  0
  2 83  1  0
  3  4  1  0
  3 84  1  0
  3 85  1  0
  4  5  1  0
  4 86  1  0
  4 87  1  0
  5  6  1  0
  5 26  1  0
  5 88  1  6
  6 25  1  0
  6 89  1  0
  6 90  1  0
  7  8  2  0
  7 26  1  0
  7 29  1  0
  8  9  1  0
  8 22  1  0
  9 10  1  0
  9 27  2  0
 10 11  2  0
 10 15  1  0
 11 12  1  0
 11 91  1  0
 12 13  2  0
 12 92  1  0
 13 14  1  0
 13 31  1  0
 14 15  2  0
 14 93  1  0
 15 94  1  0
 16 17  2  0
 16 21  1  0
 16 31  1  0
 17 18  1  0
 17 95  1  0
 18 19  2  0
 18 96  1  0
 19 20  1  0
 19 24  1  0
 20 21  2  0
 20 97  1  0
 21 23  1  0
 22 28  1  0
 22 32  2  0
 26 27  1  0
 28 98  1  0
 28 99  1  0
 29100  1  0
 29101  1  0
 33 34  1  0
 33 66  1  0
 33 70  2  0
 34 36  1  0
 34 59  1  0
 34102  1  6
 35 44  2  0
 35 45  1  0
 35 68  1  0
 36 56  1  0
 36103  1  0
 37 39  1  0
 37 47  1  0
 37 66  1  0
 37104  1  6
 38 43  2  0
 38 46  1  0
 38 47  1  0
 39 64  1  0
 39 67  2  0
 40 52  1  0
 40 53  2  0
 40 58  1  0
 41105  1  0
 41106  1  0
 41107  1  0
 42 43  1  0
 42 66  1  0
 42108  1  0
 42109  1  0
 43 44  1  0
 44110  1  0
 45 46  2  0
 45111  1  0
 46112  1  0
 47113  1  0
 47114  1  0
 48 41  1  0
 48 56  1  0
 48 65  1  0
 48115  1  1
 49 50  1  0
 49 53  1  0
 49 64  1  0
 49116  1  1
 50 51  1  0
 50117  1  0
 50118  1  0
 51 52  1  0
 51119  1  0
 51120  1  0
 52121  1  0
 52122  1  0
 53 54  1  0
 54 55  2  0
 54123  1  0
 55 57  1  0
 55124  1  0
 56 69  2  0
 57 58  2  0
 57125  1  0
 58126  1  0
 59 60  1  0
 59 61  1  0
 59 62  1  0
 60127  1  0
 60128  1  0
 60129  1  0
 61130  1  0
 61131  1  0
 61132  1  0
 62133  1  0
 62134  1  0
 62135  1  0
 63 65  1  0
 63136  1  0
 63137  1  0
 63138  1  0
 64139  1  0
 65140  1  0
 68 76  1  0
 71 74  1  0
 71 75  1  0
 71 81  2  0
 72 73  1  0
 72 74  1  0
 72141  1  0
 72142  1  0
 73 80  1  0
 73143  1  0
 73144  1  0
 74 76  1  0
 74145  1  6
 75 77  1  0
 75 80  1  0
 75146  1  6
 76147  1  0
 76148  1  0
 77 78  1  0
 77149  1  0
 77150  1  0
 78 79  1  0
 78151  1  0
 78152  1  0
 79153  1  0
 80154  1  0
 80155  1  0
M  CHG  1  80   1
M  ISO  4   1 100  68 101  76 101  79 100
M  END
$$$$
32
     RDKit          3D

157165  0  0  0  0  0  0  0  0999 V2000
  -30.7652  -14.3608   20.6636 C   0  0  0  0  0  0  0  0  0100  0  0
  -30.4392  -12.2669   19.3775 C   0  0  0  0  0  0  0  0  0101  0  0
  -29.4791  -12.5281   18.1977 C   0  0  0  0  0  0  0  0  0102  0  0
  -27.9985  -12.3963   18.6038 C   0  0  0  0  0  0  0  0  0103  0  0
  -27.6639  -13.2170   19.8820 C   0  0  2  0  0  0  0  0  0104  0  0
  -28.6795  -12.9602   21.0279 C   0  0  0  0  0  0  0  0  0105  0  0
  -25.2633  -13.8245   20.5754 C   0  0  0  0  0  0  0  0  0106  0  0
  -24.1645  -13.0409   20.9408 C   0  0  0  0  0  0  0  0  0107  0  0
  -24.6400  -11.7009   20.8697 C   0  0  0  0  0  0  0  0  0108  0  0
  -23.9005  -10.4085   21.0420 C   0  0  0  0  0  0  0  0  0109  0  0
  -24.3588   -9.4123   21.9123 C   0  0  0  0  0  0  0  0  0110  0  0
  -23.6296   -8.2350   22.0803 C   0  0  0  0  0  0  0  0  0111  0  0
  -22.4385   -8.0419   21.3657 C   0  0  0  0  0  0  0  0  0112  0  0
  -22.0103   -9.0167   20.4678 C   0  0  0  0  0  0  0  0  0113  0  0
  -22.7317  -10.1925   20.3102 C   0  0  0  0  0  0  0  0  0114  0  0
  -21.6857   -6.0709   22.5391 C   0  0  0  0  0  0  0  0  0115  0  0
  -21.4064   -6.5490   23.8264 C   0  0  0  0  0  0  0  0  0116  0  0
  -21.3635   -5.6677   24.9085 C   0  0  0  0  0  0  0  0  0117  0  0
  -21.5973   -4.3067   24.7088 C   0  0  0  0  0  0  0  0  0118  0  0
  -21.8700   -3.8284   23.4282 C   0  0  0  0  0  0  0  0  0119  0  0
  -21.9144   -4.7056   22.3460 C   0  0  0  0  0  0  0  0  0120  0  0
  -22.8194  -13.5263   21.1763 C   0  0  0  0  0  0  0  0  0121  0  0
  -22.1559   -4.2206   21.1063 F   0  0  0  0  0  0  0  0  0122  0  0
  -21.5628   -3.4510   25.7555 F   0  0  0  0  0  0  0  0  0123  0  0
  -30.0261  -13.1803   20.4553 N   0  0  0  0  0  0  0  0  0124  0  0
  -26.2911  -12.9356   20.3443 N   0  0  0  0  0  0  0  0  0125  0  0
  -25.9236  -11.6675   20.5847 N   0  0  0  0  0  0  0  0  0126  0  0
  -22.0708  -12.7905   22.0005 N   0  0  0  0  0  0  0  0  0127  0  0
  -25.4117  -15.1773   20.4097 N   0  0  0  0  0  0  0  0  0128  0  0
  -31.7916  -14.6724   20.0536 O   0  0  0  0  0  0  0  0  0129  0  0
  -21.6670   -6.9022   21.4423 O   0  0  0  0  0  0  0  0  0130  0  0
  -22.3946  -14.5564   20.6568 O   0  0  0  0  0  0  0  0  0131  0  0
  -24.6048  -31.8614   23.2223 C   0  0  0  0  0  0  0  0  0100  0  0
  -25.8822  -32.4841   23.8616 C   0  0  1  0  0  0  0  0  0101  0  0
  -27.2536  -27.5042   20.1156 C   0  0  0  0  0  0  0  0  0102  0  0
  -25.5726  -33.8762   24.2210 N   0  0  0  0  0  0  0  0  0103  0  0
  -23.4066  -30.4859   21.5461 C   0  0  2  0  0  0  0  0  0104  0  0
  -24.8467  -28.9636   20.1247 C   0  0  0  0  0  0  0  0  0105  0  0
  -22.7412  -29.4652   22.5052 C   0  0  0  0  0  0  0  0  0106  0  0
  -18.0167  -28.1302   22.8626 C   0  0  0  0  0  0  0  0  0107  0  0
  -24.1342  -36.7390   23.2568 C   0  0  0  0  0  0  0  0  0108  0  0
  -25.9141  -30.8882   21.3456 C   0  0  0  0  0  0  0  0  0109  0  0
  -25.9930  -29.5029   20.7208 C   0  0  0  0  0  0  0  0  0110  0  0
  -27.1758  -28.7612   20.7331 C   0  0  0  0  0  0  0  0  0111  0  0
  -26.1032  -26.9836   19.5230 C   0  0  0  0  0  0  0  0  0112  0  0
  -24.9097  -27.7011   19.5331 C   0  0  0  0  0  0  0  0  0113  0  0
  -23.5715  -29.7899   20.1582 C   0  0  0  0  0  0  0  0  0114  0  0
  -25.3990  -36.3212   24.0232 C   0  0  1  0  0  0  0  0  0115  0  0
  -20.5793  -28.3813   23.1004 C   0  0  2  0  0  0  0  0  0116  0  0
  -20.6548  -26.9392   22.5411 C   0  0  0  0  0  0  0  0  0117  0  0
  -19.5615  -26.6407   21.5143 C   0  0  0  0  0  0  0  0  0118  0  0
  -18.1797  -26.7818   22.1673 C   0  0  0  0  0  0  0  0  0119  0  0
  -19.1385  -28.8769   23.2988 C   0  0  0  0  0  0  0  0  0120  0  0
  -18.9183  -30.1286   23.8878 C   0  0  0  0  0  0  0  0  0121  0  0
  -17.6396  -30.6493   24.0352 C   0  0  0  0  0  0  0  0  0122  0  0
  -25.9153  -34.9582   23.4993 C   0  0  0  0  0  0  0  0  0123  0  0
  -16.5415  -29.9068   23.6254 C   0  0  0  0  0  0  0  0  0124  0  0
  -16.7331  -28.6521   23.0586 C   0  0  0  0  0  0  0  0  0125  0  0
  -26.4583  -31.6439   25.0683 C   0  0  0  0  0  0  0  0  0126  0  0
  -25.3807  -31.3179   26.1374 C   0  0  0  0  0  0  0  0  0127  0  0
  -27.0530  -30.3024   24.5680 C   0  0  0  0  0  0  0  0  0128  0  0
  -27.6014  -32.4281   25.7651 C   0  0  0  0  0  0  0  0  0129  0  0
  -27.5629  -37.2220   24.8621 C   0  0  0  0  0  0  0  0  0130  0  0
  -21.4133  -29.3375   22.3735 N   0  0  0  0  0  0  0  0  0131  0  0
  -26.4706  -37.3372   23.9061 N   0  0  0  0  0  0  0  0  0132  0  0
  -24.6674  -31.0544   22.1178 N   0  0  0  0  0  0  0  0  0133  0  0
  -23.4259  -28.8150   23.2971 O   0  0  0  0  0  0  0  0  0134  0  0
  -28.3948  -26.7345   20.0089 O   0  0  0  0  0  0  0  0  0135  0  0
  -26.5870  -34.9065   22.4671 O   0  0  0  0  0  0  0  0  0136  0  0
  -23.5365  -32.1254   23.7833 O   0  0  0  0  0  0  0  0  0137  0  0
  -27.0974  -19.1461   21.2035 C   0  0  0  0  0  0  0  0  0  0  0  0
  -27.0384  -18.4428   19.9751 C   0  0  0  0  0  0  0  0  0  0  0  0
  -28.3943  -19.0672   21.6607 C   0  0  0  0  0  0  0  0  0  0  0  0
  -28.3010  -17.9554   19.7191 C   0  0  0  0  0  0  0  0  0  0  0  0
  -27.1040  -18.2710   16.2346 C   0  0  0  0  0  0  0  0  0  0  0  0
  -28.8051  -17.1396   18.5555 C   0  0  0  0  0  0  0  0  0  0  0  0
  -29.3282  -17.9863   17.3860 C   0  0  0  0  0  0  0  0  0  0  0  0
  -30.5256  -18.0377   20.8758 C   0  0  0  0  0  0  0  0  0  0  0  0
  -30.8060  -16.8979   21.8517 C   0  0  0  0  0  0  0  0  0  0  0  0
  -28.3066  -18.9884   16.8343 C   0  0  2  0  0  0  0  0  0  1  0  0
  -29.1169  -18.3408   20.7505 N   0  0  0  0  0  0  0  0  0  0  0  0
  -30.1414  -15.6716   21.4708 N   0  0  0  0  0  0  0  0  0  0  0  0
  -31.4485  -12.4701   19.0860 H   0  0  0  0  0  0  0  0  0  0  0  0
  -30.3970  -11.2460   19.6950 H   0  0  0  0  0  0  0  0  0  0  0  0
  -29.6870  -11.8204   17.4226 H   0  0  0  0  0  0  0  0  0  0  0  0
  -29.6375  -13.5326   17.8649 H   0  0  0  0  0  0  0  0  0  0  0  0
  -27.7830  -11.3650   18.7904 H   0  0  0  0  0  0  0  0  0  0  0  0
  -27.4028  -12.7801   17.8021 H   0  0  0  0  0  0  0  0  0  0  0  0
  -27.7353  -14.2503   19.6136 H   0  0  0  0  0  0  0  0  0  0  0  0
  -28.5890  -11.9550   21.3832 H   0  0  0  0  0  0  0  0  0  0  0  0
  -28.5005  -13.6134   21.8562 H   0  0  0  0  0  0  0  0  0  0  0  0
  -25.2399   -9.5495   22.4318 H   0  0  0  0  0  0  0  0  0  0  0  0
  -23.9663   -7.5070   22.7297 H   0  0  0  0  0  0  0  0  0  0  0  0
  -21.1515   -8.8641   19.9162 H   0  0  0  0  0  0  0  0  0  0  0  0
  -22.4016  -10.9115   19.6476 H   0  0  0  0  0  0  0  0  0  0  0  0
  -21.2319   -7.5552   23.9750 H   0  0  0  0  0  0  0  0  0  0  0  0
  -21.1589   -6.0228   25.8556 H   0  0  0  0  0  0  0  0  0  0  0  0
  -22.0396   -2.8212   23.2809 H   0  0  0  0  0  0  0  0  0  0  0  0
  -22.4401  -11.9703   22.4008 H   0  0  0  0  0  0  0  0  0  0  0  0
  -21.1493  -13.0679   22.2082 H   0  0  0  0  0  0  0  0  0  0  0  0
  -24.6538  -15.7807   20.5848 H   0  0  0  0  0  0  0  0  0  0  0  0
  -26.2762  -15.5453   20.1156 H   0  0  0  0  0  0  0  0  0  0  0  0
  -26.6778  -32.4663   23.1464 H   0  0  0  0  0  0  0  0  0  0  0  0
  -25.0747  -34.0282   25.0566 H   0  0  0  0  0  0  0  0  0  0  0  0
  -22.7881  -31.3489   21.4131 H   0  0  0  0  0  0  0  0  0  0  0  0
  -23.3854  -35.9823   23.3648 H   0  0  0  0  0  0  0  0  0  0  0  0
  -24.3696  -36.8624   22.2204 H   0  0  0  0  0  0  0  0  0  0  0  0
  -23.7669  -37.6632   23.6516 H   0  0  0  0  0  0  0  0  0  0  0  0
  -25.9445  -31.6237   20.5691 H   0  0  0  0  0  0  0  0  0  0  0  0
  -26.7436  -31.0079   22.0108 H   0  0  0  0  0  0  0  0  0  0  0  0
  -28.0090  -29.1452   21.2057 H   0  0  0  0  0  0  0  0  0  0  0  0
  -26.1369  -26.0560   19.0719 H   0  0  0  0  0  0  0  0  0  0  0  0
  -24.0652  -27.2961   19.0997 H   0  0  0  0  0  0  0  0  0  0  0  0
  -23.6156  -30.5365   19.3930 H   0  0  0  0  0  0  0  0  0  0  0  0
  -22.7355  -29.1425   19.9945 H   0  0  0  0  0  0  0  0  0  0  0  0
  -25.1353  -36.2335   25.0565 H   0  0  0  0  0  0  0  0  0  0  0  0
  -21.0070  -28.3206   24.0793 H   0  0  0  0  0  0  0  0  0  0  0  0
  -20.5555  -26.2518   23.3550 H   0  0  0  0  0  0  0  0  0  0  0  0
  -21.5974  -26.8362   22.0454 H   0  0  0  0  0  0  0  0  0  0  0  0
  -19.6810  -25.6422   21.1488 H   0  0  0  0  0  0  0  0  0  0  0  0
  -19.6406  -27.3343   20.7034 H   0  0  0  0  0  0  0  0  0  0  0  0
  -17.4282  -26.6888   21.4113 H   0  0  0  0  0  0  0  0  0  0  0  0
  -18.0803  -26.0130   22.9049 H   0  0  0  0  0  0  0  0  0  0  0  0
  -19.7265  -30.6774   24.2204 H   0  0  0  0  0  0  0  0  0  0  0  0
  -17.5064  -31.5856   24.4483 H   0  0  0  0  0  0  0  0  0  0  0  0
  -15.5878  -30.2839   23.7407 H   0  0  0  0  0  0  0  0  0  0  0  0
  -15.9120  -28.0941   22.7766 H   0  0  0  0  0  0  0  0  0  0  0  0
  -24.5787  -30.7757   25.6817 H   0  0  0  0  0  0  0  0  0  0  0  0
  -25.0041  -32.2289   26.5536 H   0  0  0  0  0  0  0  0  0  0  0  0
  -25.8166  -30.7245   26.9138 H   0  0  0  0  0  0  0  0  0  0  0  0
  -26.2892  -29.7335   24.0803 H   0  0  0  0  0  0  0  0  0  0  0  0
  -27.4336  -29.7484   25.4006 H   0  0  0  0  0  0  0  0  0  0  0  0
  -27.8466  -30.4994   23.8779 H   0  0  0  0  0  0  0  0  0  0  0  0
  -27.2251  -33.3632   26.1242 H   0  0  0  0  0  0  0  0  0  0  0  0
  -28.3902  -32.6065   25.0645 H   0  0  0  0  0  0  0  0  0  0  0  0
  -27.9772  -31.8555   26.5872 H   0  0  0  0  0  0  0  0  0  0  0  0
  -28.2744  -38.0016   24.6863 H   0  0  0  0  0  0  0  0  0  0  0  0
  -28.0396  -36.2711   24.7461 H   0  0  0  0  0  0  0  0  0  0  0  0
  -27.1773  -37.3087   25.8564 H   0  0  0  0  0  0  0  0  0  0  0  0
  -20.9627  -29.9365   21.7352 H   0  0  0  0  0  0  0  0  0  0  0  0
  -26.0447  -38.2561   24.0273 H   0  0  0  0  0  0  0  0  0  0  0  0
  -26.3133  -19.6286   21.6698 H   0  0  0  0  0  0  0  0  0  0  0  0
  -26.2034  -18.3186   19.3815 H   0  0  0  0  0  0  0  0  0  0  0  0
  -28.7573  -19.4814   22.5334 H   0  0  0  0  0  0  0  0  0  0  0  0
  -27.3963  -17.2936   15.9117 H   0  0  0  0  0  0  0  0  0  0  0  0
  -26.7370  -18.8281   15.3980 H   0  0  0  0  0  0  0  0  0  0  0  0
  -26.3340  -18.1873   16.9728 H   0  0  0  0  0  0  0  0  0  0  0  0
  -28.0019  -16.5298   18.1978 H   0  0  0  0  0  0  0  0  0  0  0  0
  -29.6300  -16.5605   18.9147 H   0  0  0  0  0  0  0  0  0  0  0  0
  -29.6132  -17.3259   16.5938 H   0  0  0  0  0  0  0  0  0  0  0  0
  -30.1505  -18.5584   17.7620 H   0  0  0  0  0  0  0  0  0  0  0  0
  -30.9021  -17.7624   19.9128 H   0  0  0  0  0  0  0  0  0  0  0  0
  -31.0084  -18.9126   21.2583 H   0  0  0  0  0  0  0  0  0  0  0  0
  -30.4650  -17.1861   22.8241 H   0  0  0  0  0  0  0  0  0  0  0  0
  -31.8600  -16.7140   21.8451 H   0  0  0  0  0  0  0  0  0  0  0  0
  -28.5980  -19.5027   15.9424 H   0  0  0  0  0  0  0  0  0  0  0  0
  -29.1923  -15.6046   21.7237 H   0  0  0  0  0  0  0  0  0  0  0  0
  1 25  1  0
  1 30  2  0
  1 82  1  0
  2  3  1  0
  2 25  1  0
  2 83  1  0
  2 84  1  0
  3  4  1  0
  3 85  1  0
  3 86  1  0
  4  5  1  0
  4 87  1  0
  4 88  1  0
  5  6  1  0
  5 26  1  0
  5 89  1  6
  6 25  1  0
  6 90  1  0
  6 91  1  0
  7  8  2  0
  7 26  1  0
  7 29  1  0
  8  9  1  0
  8 22  1  0
  9 10  1  0
  9 27  2  0
 10 11  2  0
 10 15  1  0
 11 12  1  0
 11 92  1  0
 12 13  2  0
 12 93  1  0
 13 14  1  0
 13 31  1  0
 14 15  2  0
 14 94  1  0
 15 95  1  0
 16 17  2  0
 16 21  1  0
 16 31  1  0
 17 18  1  0
 17 96  1  0
 18 19  2  0
 18 97  1  0
 19 20  1  0
 19 24  1  0
 20 21  2  0
 20 98  1  0
 21 23  1  0
 22 28  1  0
 22 32  2  0
 26 27  1  0
 28 99  1  0
 28100  1  0
 29101  1  0
 29102  1  0
 33 34  1  0
 33 66  1  0
 33 70  2  0
 34 36  1  0
 34 59  1  0
 34103  1  6
 35 44  2  0
 35 45  1  0
 35 68  1  0
 36 56  1  0
 36104  1  0
 37 39  1  0
 37 47  1  0
 37 66  1  0
 37105  1  6
 38 43  2  0
 38 46  1  0
 38 47  1  0
 39 64  1  0
 39 67  2  0
 40 52  1  0
 40 53  2  0
 40 58  1  0
 41106  1  0
 41107  1  0
 41108  1  0
 42 43  1  0
 42 66  1  0
 42109  1  0
 42110  1  0
 43 44  1  0
 44111  1  0
 45 46  2  0
 45112  1  0
 46113  1  0
 47114  1  0
 47115  1  0
 48 41  1  0
 48 56  1  0
 48 65  1  0
 48116  1  1
 49 50  1  0
 49 53  1  0
 49 64  1  0
 49117  1  1
 50 51  1  0
 50118  1  0
 50119  1  0
 51 52  1  0
 51120  1  0
 51121  1  0
 52122  1  0
 52123  1  0
 53 54  1  0
 54 55  2  0
 54124  1  0
 55 57  1  0
 55125  1  0
 56 69  2  0
 57 58  2  0
 57126  1  0
 58127  1  0
 59 60  1  0
 59 61  1  0
 59 62  1  0
 60128  1  0
 60129  1  0
 60130  1  0
 61131  1  0
 61132  1  0
 61133  1  0
 62134  1  0
 62135  1  0
 62136  1  0
 63 65  1  0
 63137  1  0
 63138  1  0
 63139  1  0
 64140  1  0
 65141  1  0
 68 80  1  0
 71 72  1  0
 71 73  2  0
 71142  1  0
 72 74  2  0
 72143  1  0
 73 81  1  0
 73144  1  0
 74 76  1  0
 74 81  1  0
 75145  1  0
 75146  1  0
 75147  1  0
 76 77  1  0
 76148  1  0
 76149  1  0
 77 80  1  0
 77150  1  0
 77151  1  0
 78 79  1  0
 78 81  1  0
 78152  1  0
 78153  1  0
 79 82  1  0
 79154  1  0
 79155  1  0
 80 75  1  0
 80156  1  6
 82157  1  0
M  ISO  4   1 100  68 101  80 101  82 100
M  END
$$$$
33
     RDKit          3D

153160  0  0  0  0  0  0  0  0999 V2000
  -30.7652  -14.3608   20.6636 C   0  0  0  0  0  0  0  0  0100  0  0
  -30.4392  -12.2669   19.3775 C   0  0  0  0  0  0  0  0  0101  0  0
  -29.4791  -12.5281   18.1977 C   0  0  0  0  0  0  0  0  0102  0  0
  -27.9985  -12.3963   18.6038 C   0  0  0  0  0  0  0  0  0103  0  0
  -27.6639  -13.2170   19.8820 C   0  0  2  0  0  0  0  0  0104  0  0
  -28.6795  -12.9602   21.0279 C   0  0  0  0  0  0  0  0  0105  0  0
  -25.2633  -13.8245   20.5754 C   0  0  0  0  0  0  0  0  0106  0  0
  -24.1645  -13.0409   20.9408 C   0  0  0  0  0  0  0  0  0107  0  0
  -24.6400  -11.7009   20.8697 C   0  0  0  0  0  0  0  0  0108  0  0
  -23.9005  -10.4085   21.0420 C   0  0  0  0  0  0  0  0  0109  0  0
  -24.3588   -9.4123   21.9123 C   0  0  0  0  0  0  0  0  0110  0  0
  -23.6296   -8.2350   22.0803 C   0  0  0  0  0  0  0  0  0111  0  0
  -22.4385   -8.0419   21.3657 C   0  0  0  0  0  0  0  0  0112  0  0
  -22.0103   -9.0167   20.4678 C   0  0  0  0  0  0  0  0  0113  0  0
  -22.7317  -10.1925   20.3102 C   0  0  0  0  0  0  0  0  0114  0  0
  -21.6857   -6.0709   22.5391 C   0  0  0  0  0  0  0  0  0115  0  0
  -21.4064   -6.5490   23.8264 C   0  0  0  0  0  0  0  0  0116  0  0
  -21.3635   -5.6677   24.9085 C   0  0  0  0  0  0  0  0  0117  0  0
  -21.5973   -4.3067   24.7088 C   0  0  0  0  0  0  0  0  0118  0  0
  -21.8700   -3.8284   23.4282 C   0  0  0  0  0  0  0  0  0119  0  0
  -21.9144   -4.7056   22.3460 C   0  0  0  0  0  0  0  0  0120  0  0
  -22.8194  -13.5263   21.1763 C   0  0  0  0  0  0  0  0  0121  0  0
  -22.1559   -4.2206   21.1063 F   0  0  0  0  0  0  0  0  0122  0  0
  -21.5628   -3.4510   25.7555 F   0  0  0  0  0  0  0  0  0123  0  0
  -30.0261  -13.1803   20.4553 N   0  0  0  0  0  0  0  0  0124  0  0
  -26.2911  -12.9356   20.3443 N   0  0  0  0  0  0  0  0  0125  0  0
  -25.9236  -11.6675   20.5847 N   0  0  0  0  0  0  0  0  0126  0  0
  -22.0708  -12.7905   22.0005 N   0  0  0  0  0  0  0  0  0127  0  0
  -25.4117  -15.1773   20.4097 N   0  0  0  0  0  0  0  0  0128  0  0
  -31.7916  -14.6724   20.0536 O   0  0  0  0  0  0  0  0  0129  0  0
  -21.6670   -6.9022   21.4423 O   0  0  0  0  0  0  0  0  0130  0  0
  -22.3946  -14.5564   20.6568 O   0  0  0  0  0  0  0  0  0131  0  0
  -24.6048  -31.8614   23.2223 C   0  0  0  0  0  0  0  0  0100  0  0
  -25.8822  -32.4841   23.8616 C   0  0  1  0  0  0  0  0  0101  0  0
  -27.2536  -27.5042   20.1156 C   0  0  0  0  0  0  0  0  0102  0  0
  -25.5726  -33.8762   24.2210 N   0  0  0  0  0  0  0  0  0103  0  0
  -23.4066  -30.4859   21.5461 C   0  0  2  0  0  0  0  0  0104  0  0
  -24.8467  -28.9636   20.1247 C   0  0  0  0  0  0  0  0  0105  0  0
  -22.7412  -29.4652   22.5052 C   0  0  0  0  0  0  0  0  0106  0  0
  -18.0167  -28.1302   22.8626 C   0  0  0  0  0  0  0  0  0107  0  0
  -24.1342  -36.7390   23.2568 C   0  0  0  0  0  0  0  0  0108  0  0
  -25.9141  -30.8882   21.3456 C   0  0  0  0  0  0  0  0  0109  0  0
  -25.9930  -29.5029   20.7208 C   0  0  0  0  0  0  0  0  0110  0  0
  -27.1758  -28.7612   20.7331 C   0  0  0  0  0  0  0  0  0111  0  0
  -26.1032  -26.9836   19.5230 C   0  0  0  0  0  0  0  0  0112  0  0
  -24.9097  -27.7011   19.5331 C   0  0  0  0  0  0  0  0  0113  0  0
  -23.5715  -29.7899   20.1582 C   0  0  0  0  0  0  0  0  0114  0  0
  -25.3990  -36.3212   24.0232 C   0  0  1  0  0  0  0  0  0115  0  0
  -20.5793  -28.3813   23.1004 C   0  0  2  0  0  0  0  0  0116  0  0
  -20.6548  -26.9392   22.5411 C   0  0  0  0  0  0  0  0  0117  0  0
  -19.5615  -26.6407   21.5143 C   0  0  0  0  0  0  0  0  0118  0  0
  -18.1797  -26.7818   22.1673 C   0  0  0  0  0  0  0  0  0119  0  0
  -19.1385  -28.8769   23.2988 C   0  0  0  0  0  0  0  0  0120  0  0
  -18.9183  -30.1286   23.8878 C   0  0  0  0  0  0  0  0  0121  0  0
  -17.6396  -30.6493   24.0352 C   0  0  0  0  0  0  0  0  0122  0  0
  -25.9153  -34.9582   23.4993 C   0  0  0  0  0  0  0  0  0123  0  0
  -16.5415  -29.9068   23.6254 C   0  0  0  0  0  0  0  0  0124  0  0
  -16.7331  -28.6521   23.0586 C   0  0  0  0  0  0  0  0  0125  0  0
  -26.4583  -31.6439   25.0683 C   0  0  0  0  0  0  0  0  0126  0  0
  -25.3807  -31.3179   26.1374 C   0  0  0  0  0  0  0  0  0127  0  0
  -27.0530  -30.3024   24.5680 C   0  0  0  0  0  0  0  0  0128  0  0
  -27.6014  -32.4281   25.7651 C   0  0  0  0  0  0  0  0  0129  0  0
  -27.5629  -37.2220   24.8621 C   0  0  0  0  0  0  0  0  0130  0  0
  -21.4133  -29.3375   22.3735 N   0  0  0  0  0  0  0  0  0131  0  0
  -26.4706  -37.3372   23.9061 N   0  0  0  0  0  0  0  0  0132  0  0
  -24.6674  -31.0544   22.1178 N   0  0  0  0  0  0  0  0  0133  0  0
  -23.4259  -28.8150   23.2971 O   0  0  0  0  0  0  0  0  0134  0  0
  -28.3948  -26.7345   20.0089 O   0  0  0  0  0  0  0  0  0135  0  0
  -26.5870  -34.9065   22.4671 O   0  0  0  0  0  0  0  0  0136  0  0
  -23.5365  -32.1254   23.7833 O   0  0  0  0  0  0  0  0  0137  0  0
  -15.6677  -23.0747   17.6758 C   0  0  0  0  0  0  0  0  0  0  0  0
  -16.4018  -26.0556   20.9169 C   0  0  0  0  0  0  0  0  0  0  0  0
  -15.9798  -24.7070   20.3644 C   0  0  0  0  0  0  0  0  0  0  0  0
  -19.0252  -22.0718   19.4309 C   0  0  0  0  0  0  0  0  0  1  0  0
  -16.6815  -22.8910   18.7997 C   0  0  1  0  0  0  0  0  0  0  0  0
  -17.9789  -22.2194   18.3264 C   0  0  1  0  0  0  0  0  0  0  0  0
  -17.7124  -26.0121   21.5263 N   0  0  0  0  0  0  0  0  0  0  0  0
  -16.9768  -24.2376   19.3688 N   0  0  0  0  0  0  0  0  0  0  0  0
  -18.5441  -22.9713   17.2509 O   0  0  0  0  0  0  0  0  0  0  0  0
  -31.4485  -12.4701   19.0860 H   0  0  0  0  0  0  0  0  0  0  0  0
  -30.3970  -11.2460   19.6950 H   0  0  0  0  0  0  0  0  0  0  0  0
  -29.6870  -11.8204   17.4226 H   0  0  0  0  0  0  0  0  0  0  0  0
  -29.6375  -13.5326   17.8649 H   0  0  0  0  0  0  0  0  0  0  0  0
  -27.7830  -11.3650   18.7904 H   0  0  0  0  0  0  0  0  0  0  0  0
  -27.4028  -12.7801   17.8021 H   0  0  0  0  0  0  0  0  0  0  0  0
  -27.7353  -14.2503   19.6136 H   0  0  0  0  0  0  0  0  0  0  0  0
  -28.5890  -11.9550   21.3832 H   0  0  0  0  0  0  0  0  0  0  0  0
  -28.5005  -13.6134   21.8562 H   0  0  0  0  0  0  0  0  0  0  0  0
  -25.2399   -9.5495   22.4318 H   0  0  0  0  0  0  0  0  0  0  0  0
  -23.9663   -7.5070   22.7297 H   0  0  0  0  0  0  0  0  0  0  0  0
  -21.1515   -8.8641   19.9162 H   0  0  0  0  0  0  0  0  0  0  0  0
  -22.4016  -10.9115   19.6476 H   0  0  0  0  0  0  0  0  0  0  0  0
  -21.2319   -7.5552   23.9750 H   0  0  0  0  0  0  0  0  0  0  0  0
  -21.1589   -6.0228   25.8556 H   0  0  0  0  0  0  0  0  0  0  0  0
  -22.0396   -2.8212   23.2809 H   0  0  0  0  0  0  0  0  0  0  0  0
  -22.4401  -11.9703   22.4008 H   0  0  0  0  0  0  0  0  0  0  0  0
  -21.1493  -13.0679   22.2082 H   0  0  0  0  0  0  0  0  0  0  0  0
  -24.6538  -15.7807   20.5848 H   0  0  0  0  0  0  0  0  0  0  0  0
  -26.2762  -15.5453   20.1156 H   0  0  0  0  0  0  0  0  0  0  0  0
  -26.6778  -32.4663   23.1464 H   0  0  0  0  0  0  0  0  0  0  0  0
  -25.0747  -34.0282   25.0566 H   0  0  0  0  0  0  0  0  0  0  0  0
  -22.7881  -31.3489   21.4131 H   0  0  0  0  0  0  0  0  0  0  0  0
  -23.3854  -35.9823   23.3648 H   0  0  0  0  0  0  0  0  0  0  0  0
  -24.3696  -36.8624   22.2204 H   0  0  0  0  0  0  0  0  0  0  0  0
  -23.7669  -37.6632   23.6516 H   0  0  0  0  0  0  0  0  0  0  0  0
  -25.9445  -31.6237   20.5691 H   0  0  0  0  0  0  0  0  0  0  0  0
  -26.7436  -31.0079   22.0108 H   0  0  0  0  0  0  0  0  0  0  0  0
  -28.0090  -29.1452   21.2057 H   0  0  0  0  0  0  0  0  0  0  0  0
  -26.1369  -26.0560   19.0719 H   0  0  0  0  0  0  0  0  0  0  0  0
  -24.0652  -27.2961   19.0997 H   0  0  0  0  0  0  0  0  0  0  0  0
  -23.6156  -30.5365   19.3930 H   0  0  0  0  0  0  0  0  0  0  0  0
  -22.7355  -29.1425   19.9945 H   0  0  0  0  0  0  0  0  0  0  0  0
  -25.1353  -36.2335   25.0565 H   0  0  0  0  0  0  0  0  0  0  0  0
  -21.0070  -28.3206   24.0793 H   0  0  0  0  0  0  0  0  0  0  0  0
  -20.5555  -26.2518   23.3550 H   0  0  0  0  0  0  0  0  0  0  0  0
  -21.5974  -26.8362   22.0454 H   0  0  0  0  0  0  0  0  0  0  0  0
  -19.6810  -25.6422   21.1488 H   0  0  0  0  0  0  0  0  0  0  0  0
  -19.6406  -27.3343   20.7034 H   0  0  0  0  0  0  0  0  0  0  0  0
  -17.4282  -26.6888   21.4113 H   0  0  0  0  0  0  0  0  0  0  0  0
  -18.0803  -26.0130   22.9049 H   0  0  0  0  0  0  0  0  0  0  0  0
  -19.7265  -30.6774   24.2204 H   0  0  0  0  0  0  0  0  0  0  0  0
  -17.5064  -31.5856   24.4483 H   0  0  0  0  0  0  0  0  0  0  0  0
  -15.5878  -30.2839   23.7407 H   0  0  0  0  0  0  0  0  0  0  0  0
  -15.9120  -28.0941   22.7766 H   0  0  0  0  0  0  0  0  0  0  0  0
  -24.5787  -30.7757   25.6817 H   0  0  0  0  0  0  0  0  0  0  0  0
  -25.0041  -32.2289   26.5536 H   0  0  0  0  0  0  0  0  0  0  0  0
  -25.8166  -30.7245   26.9138 H   0  0  0  0  0  0  0  0  0  0  0  0
  -26.2892  -29.7335   24.0803 H   0  0  0  0  0  0  0  0  0  0  0  0
  -27.4336  -29.7484   25.4006 H   0  0  0  0  0  0  0  0  0  0  0  0
  -27.8466  -30.4994   23.8779 H   0  0  0  0  0  0  0  0  0  0  0  0
  -27.2251  -33.3632   26.1242 H   0  0  0  0  0  0  0  0  0  0  0  0
  -28.3902  -32.6065   25.0645 H   0  0  0  0  0  0  0  0  0  0  0  0
  -27.9772  -31.8555   26.5872 H   0  0  0  0  0  0  0  0  0  0  0  0
  -28.2744  -38.0016   24.6863 H   0  0  0  0  0  0  0  0  0  0  0  0
  -28.0396  -36.2711   24.7461 H   0  0  0  0  0  0  0  0  0  0  0  0
  -27.1773  -37.3087   25.8564 H   0  0  0  0  0  0  0  0  0  0  0  0
  -20.9627  -29.9365   21.7352 H   0  0  0  0  0  0  0  0  0  0  0  0
  -26.0447  -38.2561   24.0273 H   0  0  0  0  0  0  0  0  0  0  0  0
  -15.4350  -22.1227   17.2462 H   0  0  0  0  0  0  0  0  0  0  0  0
  -16.0808  -23.7140   16.9238 H   0  0  0  0  0  0  0  0  0  0  0  0
  -14.7758  -23.5163   18.0687 H   0  0  0  0  0  0  0  0  0  0  0  0
  -15.6897  -26.3640   21.6535 H   0  0  0  0  0  0  0  0  0  0  0  0
  -16.4427  -26.7461   20.1005 H   0  0  0  0  0  0  0  0  0  0  0  0
  -15.0236  -24.7995   19.8933 H   0  0  0  0  0  0  0  0  0  0  0  0
  -15.9200  -23.9999   21.1652 H   0  0  0  0  0  0  0  0  0  0  0  0
  -19.2388  -21.0239   19.4666 H   0  0  0  0  0  0  0  0  0  0  0  0
  -18.5235  -22.6089   20.2086 H   0  0  0  0  0  0  0  0  0  0  0  0
  -16.2615  -22.2397   19.5374 H   0  0  0  0  0  0  0  0  0  0  0  0
  -17.7112  -21.2329   18.0100 H   0  0  0  0  0  0  0  0  0  0  0  0
  -17.9092  -26.7871   22.1007 H   0  0  0  0  0  0  0  0  0  0  0  0
  -17.8896  -24.2005   19.8225 H   0  0  0  0  0  0  0  0  0  0  0  0
  -16.9497  -24.8977   18.5917 H   0  0  0  0  0  0  0  0  0  0  0  0
  -18.7771  -23.8591   17.5645 H   0  0  0  0  0  0  0  0  0  0  0  0
  1 25  1  0
  1 30  2  0
  1 77  1  0
  2  3  1  0
  2 25  1  0
  2 80  1  0
  2 81  1  0
  3  4  1  0
  3 82  1  0
  3 83  1  0
  4  5  1  0
  4 84  1  0
  4 85  1  0
  5  6  1  0
  5 26  1  0
  5 86  1  6
  6 25  1  0
  6 87  1  0
  6 88  1  0
  7  8  2  0
  7 26  1  0
  7 29  1  0
  8  9  1  0
  8 22  1  0
  9 10  1  0
  9 27  2  0
 10 11  2  0
 10 15  1  0
 11 12  1  0
 11 89  1  0
 12 13  2  0
 12 90  1  0
 13 14  1  0
 13 31  1  0
 14 15  2  0
 14 91  1  0
 15 92  1  0
 16 17  2  0
 16 21  1  0
 16 31  1  0
 17 18  1  0
 17 93  1  0
 18 19  2  0
 18 94  1  0
 19 20  1  0
 19 24  1  0
 20 21  2  0
 20 95  1  0
 21 23  1  0
 22 28  1  0
 22 32  2  0
 26 27  1  0
 28 96  1  0
 28 97  1  0
 29 98  1  0
 29 99  1  0
 33 34  1  0
 33 66  1  0
 33 70  2  0
 34 36  1  0
 34 59  1  0
 34100  1  6
 35 44  2  0
 35 45  1  0
 35 68  1  0
 36 56  1  0
 36101  1  0
 37 39  1  0
 37 47  1  0
 37 66  1  0
 37102  1  6
 38 43  2  0
 38 46  1  0
 38 47  1  0
 39 64  1  0
 39 67  2  0
 40 52  1  0
 40 53  2  0
 40 58  1  0
 41103  1  0
 41104  1  0
 41105  1  0
 42 43  1  0
 42 66  1  0
 42106  1  0
 42107  1  0
 43 44  1  0
 44108  1  0
 45 46  2  0
 45109  1  0
 46110  1  0
 47111  1  0
 47112  1  0
 48 41  1  0
 48 56  1  0
 48 65  1  0
 48113  1  1
 49 50  1  0
 49 53  1  0
 49 64  1  0
 49114  1  1
 50 51  1  0
 50115  1  0
 50116  1  0
 51 52  1  0
 51117  1  0
 51118  1  0
 52119  1  0
 52120  1  0
 53 54  1  0
 54 55  2  0
 54121  1  0
 55 57  1  0
 55122  1  0
 56 69  2  0
 57 58  2  0
 57123  1  0
 58124  1  0
 59 60  1  0
 59 61  1  0
 59 62  1  0
 60125  1  0
 60126  1  0
 60127  1  0
 61128  1  0
 61129  1  0
 61130  1  0
 62131  1  0
 62132  1  0
 62133  1  0
 63 65  1  0
 63134  1  0
 63135  1  0
 63136  1  0
 64137  1  0
 65138  1  0
 68 74  1  0
 71139  1  0
 71140  1  0
 71141  1  0
 72 73  1  0
 72 77  1  0
 72142  1  0
 72143  1  0
 73 78  1  0
 73144  1  0
 73145  1  0
 74 76  1  0
 74146  1  0
 74147  1  0
 75 71  1  0
 75 76  1  0
 75 78  1  0
 75148  1  1
 76 79  1  0
 76149  1  6
 77150  1  0
 78151  1  0
 78152  1  0
 79153  1  0
M  CHG  1  78   1
M  ISO  4   1 100  68 101  74 101  77 100
M  END
$$$$
34
     RDKit          3D

166174  0  0  0  0  0  0  0  0999 V2000
  -30.7652  -14.3608   20.6636 C   0  0  0  0  0  0  0  0  0100  0  0
  -30.4392  -12.2669   19.3775 C   0  0  0  0  0  0  0  0  0101  0  0
  -29.4791  -12.5281   18.1977 C   0  0  0  0  0  0  0  0  0102  0  0
  -27.9985  -12.3963   18.6038 C   0  0  0  0  0  0  0  0  0103  0  0
  -27.6639  -13.2170   19.8820 C   0  0  2  0  0  0  0  0  0104  0  0
  -28.6795  -12.9602   21.0279 C   0  0  0  0  0  0  0  0  0105  0  0
  -25.2633  -13.8245   20.5754 C   0  0  0  0  0  0  0  0  0106  0  0
  -24.1645  -13.0409   20.9408 C   0  0  0  0  0  0  0  0  0107  0  0
  -24.6400  -11.7009   20.8697 C   0  0  0  0  0  0  0  0  0108  0  0
  -23.9005  -10.4085   21.0420 C   0  0  0  0  0  0  0  0  0109  0  0
  -24.3588   -9.4123   21.9123 C   0  0  0  0  0  0  0  0  0110  0  0
  -23.6296   -8.2350   22.0803 C   0  0  0  0  0  0  0  0  0111  0  0
  -22.4385   -8.0419   21.3657 C   0  0  0  0  0  0  0  0  0112  0  0
  -22.0103   -9.0167   20.4678 C   0  0  0  0  0  0  0  0  0113  0  0
  -22.7317  -10.1925   20.3102 C   0  0  0  0  0  0  0  0  0114  0  0
  -21.6857   -6.0709   22.5391 C   0  0  0  0  0  0  0  0  0115  0  0
  -21.4064   -6.5490   23.8264 C   0  0  0  0  0  0  0  0  0116  0  0
  -21.3635   -5.6677   24.9085 C   0  0  0  0  0  0  0  0  0117  0  0
  -21.5973   -4.3067   24.7088 C   0  0  0  0  0  0  0  0  0118  0  0
  -21.8700   -3.8284   23.4282 C   0  0  0  0  0  0  0  0  0119  0  0
  -21.9144   -4.7056   22.3460 C   0  0  0  0  0  0  0  0  0120  0  0
  -22.8194  -13.5263   21.1763 C   0  0  0  0  0  0  0  0  0121  0  0
  -22.1559   -4.2206   21.1063 F   0  0  0  0  0  0  0  0  0122  0  0
  -21.5628   -3.4510   25.7555 F   0  0  0  0  0  0  0  0  0123  0  0
  -30.0261  -13.1803   20.4553 N   0  0  0  0  0  0  0  0  0124  0  0
  -26.2911  -12.9356   20.3443 N   0  0  0  0  0  0  0  0  0125  0  0
  -25.9236  -11.6675   20.5847 N   0  0  0  0  0  0  0  0  0126  0  0
  -22.0708  -12.7905   22.0005 N   0  0  0  0  0  0  0  0  0127  0  0
  -25.4117  -15.1773   20.4097 N   0  0  0  0  0  0  0  0  0128  0  0
  -31.7916  -14.6724   20.0536 O   0  0  0  0  0  0  0  0  0129  0  0
  -21.6670   -6.9022   21.4423 O   0  0  0  0  0  0  0  0  0130  0  0
  -22.3946  -14.5564   20.6568 O   0  0  0  0  0  0  0  0  0131  0  0
  -24.6048  -31.8614   23.2223 C   0  0  0  0  0  0  0  0  0100  0  0
  -25.8822  -32.4841   23.8616 C   0  0  1  0  0  0  0  0  0101  0  0
  -27.2536  -27.5042   20.1156 C   0  0  0  0  0  0  0  0  0102  0  0
  -25.5726  -33.8762   24.2210 N   0  0  0  0  0  0  0  0  0103  0  0
  -23.4066  -30.4859   21.5461 C   0  0  2  0  0  0  0  0  0104  0  0
  -24.8467  -28.9636   20.1247 C   0  0  0  0  0  0  0  0  0105  0  0
  -22.7412  -29.4652   22.5052 C   0  0  0  0  0  0  0  0  0106  0  0
  -18.0167  -28.1302   22.8626 C   0  0  0  0  0  0  0  0  0107  0  0
  -24.1342  -36.7390   23.2568 C   0  0  0  0  0  0  0  0  0108  0  0
  -25.9141  -30.8882   21.3456 C   0  0  0  0  0  0  0  0  0109  0  0
  -25.9930  -29.5029   20.7208 C   0  0  0  0  0  0  0  0  0110  0  0
  -27.1758  -28.7612   20.7331 C   0  0  0  0  0  0  0  0  0111  0  0
  -26.1032  -26.9836   19.5230 C   0  0  0  0  0  0  0  0  0112  0  0
  -24.9097  -27.7011   19.5331 C   0  0  0  0  0  0  0  0  0113  0  0
  -23.5715  -29.7899   20.1582 C   0  0  0  0  0  0  0  0  0114  0  0
  -25.3990  -36.3212   24.0232 C   0  0  1  0  0  0  0  0  0115  0  0
  -20.5793  -28.3813   23.1004 C   0  0  2  0  0  0  0  0  0116  0  0
  -20.6548  -26.9392   22.5411 C   0  0  0  0  0  0  0  0  0117  0  0
  -19.5615  -26.6407   21.5143 C   0  0  0  0  0  0  0  0  0118  0  0
  -18.1797  -26.7818   22.1673 C   0  0  0  0  0  0  0  0  0119  0  0
  -19.1385  -28.8769   23.2988 C   0  0  0  0  0  0  0  0  0120  0  0
  -18.9183  -30.1286   23.8878 C   0  0  0  0  0  0  0  0  0121  0  0
  -17.6396  -30.6493   24.0352 C   0  0  0  0  0  0  0  0  0122  0  0
  -25.9153  -34.9582   23.4993 C   0  0  0  0  0  0  0  0  0123  0  0
  -16.5415  -29.9068   23.6254 C   0  0  0  0  0  0  0  0  0124  0  0
  -16.7331  -28.6521   23.0586 C   0  0  0  0  0  0  0  0  0125  0  0
  -26.4583  -31.6439   25.0683 C   0  0  0  0  0  0  0  0  0126  0  0
  -25.3807  -31.3179   26.1374 C   0  0  0  0  0  0  0  0  0127  0  0
  -27.0530  -30.3024   24.5680 C   0  0  0  0  0  0  0  0  0128  0  0
  -27.6014  -32.4281   25.7651 C   0  0  0  0  0  0  0  0  0129  0  0
  -27.5629  -37.2220   24.8621 C   0  0  0  0  0  0  0  0  0130  0  0
  -21.4133  -29.3375   22.3735 N   0  0  0  0  0  0  0  0  0131  0  0
  -26.4706  -37.3372   23.9061 N   0  0  0  0  0  0  0  0  0132  0  0
  -24.6674  -31.0544   22.1178 N   0  0  0  0  0  0  0  0  0133  0  0
  -23.4259  -28.8150   23.2971 O   0  0  0  0  0  0  0  0  0134  0  0
  -28.3948  -26.7345   20.0089 O   0  0  0  0  0  0  0  0  0135  0  0
  -26.5870  -34.9065   22.4671 O   0  0  0  0  0  0  0  0  0136  0  0
  -23.5365  -32.1254   23.7833 O   0  0  0  0  0  0  0  0  0137  0  0
  -28.3951  -18.7069   21.8760 C   0  0  0  0  0  0  0  0  0  0  0  0
  -29.2061  -18.3122   20.8349 C   0  0  0  0  0  0  0  0  0  0  0  0
  -28.4265  -18.3527   19.6526 C   0  0  0  0  0  0  0  0  0  0  0  0
  -27.1630  -18.7712   20.0072 C   0  0  0  0  0  0  0  0  0  0  0  0
  -25.9611  -18.9879   19.1743 C   0  0  0  0  0  0  0  0  0  0  0  0
  -29.6707  -20.3634   17.6500 C   0  0  0  0  0  0  0  0  0  0  0  0
  -28.1227  -16.7884   17.7158 C   0  0  0  0  0  0  0  0  0  0  0  0
  -30.6256  -17.9204   20.9436 C   0  0  0  0  0  0  0  0  0  0  0  0
  -28.7923  -19.1799   17.2629 C   0  0  0  0  0  0  0  0  0  0  0  0
  -25.9747  -19.4500   22.1773 C   0  0  0  0  0  0  0  0  0  0  0  0
  -30.8853  -16.7623   21.9239 C   0  0  0  0  0  0  0  0  0  0  0  0
  -26.0801  -20.9219   22.5613 C   0  0  0  0  0  0  0  0  0  1  0  0
  -28.8822  -18.0099   18.2896 C   0  0  1  0  0  0  0  0  0  0  0  0
  -27.1556  -18.9837   21.3611 N   0  0  0  0  0  0  0  0  0  0  0  0
  -30.1902  -15.5565   21.5321 N   0  0  0  0  0  0  0  0  0  0  0  0
  -31.4485  -12.4701   19.0860 H   0  0  0  0  0  0  0  0  0  0  0  0
  -30.3970  -11.2460   19.6950 H   0  0  0  0  0  0  0  0  0  0  0  0
  -29.6870  -11.8204   17.4226 H   0  0  0  0  0  0  0  0  0  0  0  0
  -29.6375  -13.5326   17.8649 H   0  0  0  0  0  0  0  0  0  0  0  0
  -27.7830  -11.3650   18.7904 H   0  0  0  0  0  0  0  0  0  0  0  0
  -27.4028  -12.7801   17.8021 H   0  0  0  0  0  0  0  0  0  0  0  0
  -27.7353  -14.2503   19.6136 H   0  0  0  0  0  0  0  0  0  0  0  0
  -28.5890  -11.9550   21.3832 H   0  0  0  0  0  0  0  0  0  0  0  0
  -28.5005  -13.6134   21.8562 H   0  0  0  0  0  0  0  0  0  0  0  0
  -25.2399   -9.5495   22.4318 H   0  0  0  0  0  0  0  0  0  0  0  0
  -23.9663   -7.5070   22.7297 H   0  0  0  0  0  0  0  0  0  0  0  0
  -21.1515   -8.8641   19.9162 H   0  0  0  0  0  0  0  0  0  0  0  0
  -22.4016  -10.9115   19.6476 H   0  0  0  0  0  0  0  0  0  0  0  0
  -21.2319   -7.5552   23.9750 H   0  0  0  0  0  0  0  0  0  0  0  0
  -21.1589   -6.0228   25.8556 H   0  0  0  0  0  0  0  0  0  0  0  0
  -22.0396   -2.8212   23.2809 H   0  0  0  0  0  0  0  0  0  0  0  0
  -22.4401  -11.9703   22.4008 H   0  0  0  0  0  0  0  0  0  0  0  0
  -21.1493  -13.0679   22.2082 H   0  0  0  0  0  0  0  0  0  0  0  0
  -24.6538  -15.7807   20.5848 H   0  0  0  0  0  0  0  0  0  0  0  0
  -26.2762  -15.5453   20.1156 H   0  0  0  0  0  0  0  0  0  0  0  0
  -26.6778  -32.4663   23.1464 H   0  0  0  0  0  0  0  0  0  0  0  0
  -25.0747  -34.0282   25.0566 H   0  0  0  0  0  0  0  0  0  0  0  0
  -22.7881  -31.3489   21.4131 H   0  0  0  0  0  0  0  0  0  0  0  0
  -23.3854  -35.9823   23.3648 H   0  0  0  0  0  0  0  0  0  0  0  0
  -24.3696  -36.8624   22.2204 H   0  0  0  0  0  0  0  0  0  0  0  0
  -23.7669  -37.6632   23.6516 H   0  0  0  0  0  0  0  0  0  0  0  0
  -25.9445  -31.6237   20.5691 H   0  0  0  0  0  0  0  0  0  0  0  0
  -26.7436  -31.0079   22.0108 H   0  0  0  0  0  0  0  0  0  0  0  0
  -28.0090  -29.1452   21.2057 H   0  0  0  0  0  0  0  0  0  0  0  0
  -26.1369  -26.0560   19.0719 H   0  0  0  0  0  0  0  0  0  0  0  0
  -24.0652  -27.2961   19.0997 H   0  0  0  0  0  0  0  0  0  0  0  0
  -23.6156  -30.5365   19.3930 H   0  0  0  0  0  0  0  0  0  0  0  0
  -22.7355  -29.1425   19.9945 H   0  0  0  0  0  0  0  0  0  0  0  0
  -25.1353  -36.2335   25.0565 H   0  0  0  0  0  0  0  0  0  0  0  0
  -21.0070  -28.3206   24.0793 H   0  0  0  0  0  0  0  0  0  0  0  0
  -20.5555  -26.2518   23.3550 H   0  0  0  0  0  0  0  0  0  0  0  0
  -21.5974  -26.8362   22.0454 H   0  0  0  0  0  0  0  0  0  0  0  0
  -19.6810  -25.6422   21.1488 H   0  0  0  0  0  0  0  0  0  0  0  0
  -19.6406  -27.3343   20.7034 H   0  0  0  0  0  0  0  0  0  0  0  0
  -17.4282  -26.6888   21.4113 H   0  0  0  0  0  0  0  0  0  0  0  0
  -18.0803  -26.0130   22.9049 H   0  0  0  0  0  0  0  0  0  0  0  0
  -19.7265  -30.6774   24.2204 H   0  0  0  0  0  0  0  0  0  0  0  0
  -17.5064  -31.5856   24.4483 H   0  0  0  0  0  0  0  0  0  0  0  0
  -15.5878  -30.2839   23.7407 H   0  0  0  0  0  0  0  0  0  0  0  0
  -15.9120  -28.0941   22.7766 H   0  0  0  0  0  0  0  0  0  0  0  0
  -24.5787  -30.7757   25.6817 H   0  0  0  0  0  0  0  0  0  0  0  0
  -25.0041  -32.2289   26.5536 H   0  0  0  0  0  0  0  0  0  0  0  0
  -25.8166  -30.7245   26.9138 H   0  0  0  0  0  0  0  0  0  0  0  0
  -26.2892  -29.7335   24.0803 H   0  0  0  0  0  0  0  0  0  0  0  0
  -27.4336  -29.7484   25.4006 H   0  0  0  0  0  0  0  0  0  0  0  0
  -27.8466  -30.4994   23.8779 H   0  0  0  0  0  0  0  0  0  0  0  0
  -27.2251  -33.3632   26.1242 H   0  0  0  0  0  0  0  0  0  0  0  0
  -28.3902  -32.6065   25.0645 H   0  0  0  0  0  0  0  0  0  0  0  0
  -27.9772  -31.8555   26.5872 H   0  0  0  0  0  0  0  0  0  0  0  0
  -28.2744  -38.0016   24.6863 H   0  0  0  0  0  0  0  0  0  0  0  0
  -28.0396  -36.2711   24.7461 H   0  0  0  0  0  0  0  0  0  0  0  0
  -27.1773  -37.3087   25.8564 H   0  0  0  0  0  0  0  0  0  0  0  0
  -20.9627  -29.9365   21.7352 H   0  0  0  0  0  0  0  0  0  0  0  0
  -26.0447  -38.2561   24.0273 H   0  0  0  0  0  0  0  0  0  0  0  0
  -28.6717  -18.7810   22.8675 H   0  0  0  0  0  0  0  0  0  0  0  0
  -26.1895  -18.7635   18.1533 H   0  0  0  0  0  0  0  0  0  0  0  0
  -25.6510  -20.0089   19.2543 H   0  0  0  0  0  0  0  0  0  0  0  0
  -25.1728  -18.3482   19.5124 H   0  0  0  0  0  0  0  0  0  0  0  0
  -29.5728  -21.1355   16.9157 H   0  0  0  0  0  0  0  0  0  0  0  0
  -30.6918  -20.0478   17.7018 H   0  0  0  0  0  0  0  0  0  0  0  0
  -29.3643  -20.7379   18.6044 H   0  0  0  0  0  0  0  0  0  0  0  0
  -28.1761  -15.9766   18.4108 H   0  0  0  0  0  0  0  0  0  0  0  0
  -28.5689  -16.4942   16.7888 H   0  0  0  0  0  0  0  0  0  0  0  0
  -27.0984  -17.0504   17.5513 H   0  0  0  0  0  0  0  0  0  0  0  0
  -31.1846  -18.7712   21.2731 H   0  0  0  0  0  0  0  0  0  0  0  0
  -30.9259  -17.5779   19.9754 H   0  0  0  0  0  0  0  0  0  0  0  0
  -29.1036  -18.8203   16.3044 H   0  0  0  0  0  0  0  0  0  0  0  0
  -27.7778  -19.5197   17.2445 H   0  0  0  0  0  0  0  0  0  0  0  0
  -25.0826  -19.3072   21.6040 H   0  0  0  0  0  0  0  0  0  0  0  0
  -25.9552  -18.8771   23.0808 H   0  0  0  0  0  0  0  0  0  0  0  0
  -30.5515  -17.0527   22.8982 H   0  0  0  0  0  0  0  0  0  0  0  0
  -31.9350  -16.5551   21.9209 H   0  0  0  0  0  0  0  0  0  0  0  0
  -26.6167  -20.8646   23.4853 H   0  0  0  0  0  0  0  0  0  0  0  0
  -25.0749  -21.1277   22.2578 H   0  0  0  0  0  0  0  0  0  0  0  0
  -29.9183  -17.7757   18.4184 H   0  0  0  0  0  0  0  0  0  0  0  0
  -29.2585  -15.4682   21.8378 H   0  0  0  0  0  0  0  0  0  0  0  0
  1 25  1  0
  1 30  2  0
  1 85  1  0
  2  3  1  0
  2 25  1  0
  2 86  1  0
  2 87  1  0
  3  4  1  0
  3 88  1  0
  3 89  1  0
  4  5  1  0
  4 90  1  0
  4 91  1  0
  5  6  1  0
  5 26  1  0
  5 92  1  6
  6 25  1  0
  6 93  1  0
  6 94  1  0
  7  8  2  0
  7 26  1  0
  7 29  1  0
  8  9  1  0
  8 22  1  0
  9 10  1  0
  9 27  2  0
 10 11  2  0
 10 15  1  0
 11 12  1  0
 11 95  1  0
 12 13  2  0
 12 96  1  0
 13 14  1  0
 13 31  1  0
 14 15  2  0
 14 97  1  0
 15 98  1  0
 16 17  2  0
 16 21  1  0
 16 31  1  0
 17 18  1  0
 17 99  1  0
 18 19  2  0
 18100  1  0
 19 20  1  0
 19 24  1  0
 20 21  2  0
 20101  1  0
 21 23  1  0
 22 28  1  0
 22 32  2  0
 26 27  1  0
 28102  1  0
 28103  1  0
 29104  1  0
 29105  1  0
 33 34  1  0
 33 66  1  0
 33 70  2  0
 34 36  1  0
 34 59  1  0
 34106  1  6
 35 44  2  0
 35 45  1  0
 35 68  1  0
 36 56  1  0
 36107  1  0
 37 39  1  0
 37 47  1  0
 37 66  1  0
 37108  1  6
 38 43  2  0
 38 46  1  0
 38 47  1  0
 39 64  1  0
 39 67  2  0
 40 52  1  0
 40 53  2  0
 40 58  1  0
 41109  1  0
 41110  1  0
 41111  1  0
 42 43  1  0
 42 66  1  0
 42112  1  0
 42113  1  0
 43 44  1  0
 44114  1  0
 45 46  2  0
 45115  1  0
 46116  1  0
 47117  1  0
 47118  1  0
 48 41  1  0
 48 56  1  0
 48 65  1  0
 48119  1  1
 49 50  1  0
 49 53  1  0
 49 64  1  0
 49120  1  1
 50 51  1  0
 50121  1  0
 50122  1  0
 51 52  1  0
 51123  1  0
 51124  1  0
 52125  1  0
 52126  1  0
 53 54  1  0
 54 55  2  0
 54127  1  0
 55 57  1  0
 55128  1  0
 56 69  2  0
 57 58  2  0
 57129  1  0
 58130  1  0
 59 60  1  0
 59 61  1  0
 59 62  1  0
 60131  1  0
 60132  1  0
 60133  1  0
 61134  1  0
 61135  1  0
 61136  1  0
 62137  1  0
 62138  1  0
 62139  1  0
 63 65  1  0
 63140  1  0
 63141  1  0
 63142  1  0
 64143  1  0
 65144  1  0
 68 82  1  0
 71 72  2  0
 71 84  1  0
 71145  1  0
 72 73  1  0
 72 78  1  0
 73 74  2  0
 73 83  1  0
 74 75  1  0
 74 84  1  0
 75146  1  0
 75147  1  0
 75148  1  0
 76 79  1  0
 76149  1  0
 76150  1  0
 76151  1  0
 77152  1  0
 77153  1  0
 77154  1  0
 78 81  1  0
 78155  1  0
 78156  1  0
 79 83  1  0
 79157  1  0
 79158  1  0
 80 82  1  0
 80 84  1  0
 80159  1  0
 80160  1  0
 81 85  1  0
 81161  1  0
 81162  1  0
 82163  1  0
 82164  1  0
 83 77  1  0
 83165  1  1
 85166  1  0
M  ISO  4   1 100  68 101  82 101  85 100
M  END
$$$$
35
     RDKit          3D

184194  0  0  0  0  0  0  0  0999 V2000
  -30.7652  -14.3608   20.6636 C   0  0  0  0  0  0  0  0  0100  0  0
  -30.4392  -12.2669   19.3775 C   0  0  0  0  0  0  0  0  0101  0  0
  -29.4791  -12.5281   18.1977 C   0  0  0  0  0  0  0  0  0102  0  0
  -27.9985  -12.3963   18.6038 C   0  0  0  0  0  0  0  0  0103  0  0
  -27.6639  -13.2170   19.8820 C   0  0  2  0  0  0  0  0  0104  0  0
  -28.6795  -12.9602   21.0279 C   0  0  0  0  0  0  0  0  0105  0  0
  -25.2633  -13.8245   20.5754 C   0  0  0  0  0  0  0  0  0106  0  0
  -24.1645  -13.0409   20.9408 C   0  0  0  0  0  0  0  0  0107  0  0
  -24.6400  -11.7009   20.8697 C   0  0  0  0  0  0  0  0  0108  0  0
  -23.9005  -10.4085   21.0420 C   0  0  0  0  0  0  0  0  0109  0  0
  -24.3588   -9.4123   21.9123 C   0  0  0  0  0  0  0  0  0110  0  0
  -23.6296   -8.2350   22.0803 C   0  0  0  0  0  0  0  0  0111  0  0
  -22.4385   -8.0419   21.3657 C   0  0  0  0  0  0  0  0  0112  0  0
  -22.0103   -9.0167   20.4678 C   0  0  0  0  0  0  0  0  0113  0  0
  -22.7317  -10.1925   20.3102 C   0  0  0  0  0  0  0  0  0114  0  0
  -21.6857   -6.0709   22.5391 C   0  0  0  0  0  0  0  0  0115  0  0
  -21.4064   -6.5490   23.8264 C   0  0  0  0  0  0  0  0  0116  0  0
  -21.3635   -5.6677   24.9085 C   0  0  0  0  0  0  0  0  0117  0  0
  -21.5973   -4.3067   24.7088 C   0  0  0  0  0  0  0  0  0118  0  0
  -21.8700   -3.8284   23.4282 C   0  0  0  0  0  0  0  0  0119  0  0
  -21.9144   -4.7056   22.3460 C   0  0  0  0  0  0  0  0  0120  0  0
  -22.8194  -13.5263   21.1763 C   0  0  0  0  0  0  0  0  0121  0  0
  -22.1559   -4.2206   21.1063 F   0  0  0  0  0  0  0  0  0122  0  0
  -21.5628   -3.4510   25.7555 F   0  0  0  0  0  0  0  0  0123  0  0
  -30.0261  -13.1803   20.4553 N   0  0  0  0  0  0  0  0  0124  0  0
  -26.2911  -12.9356   20.3443 N   0  0  0  0  0  0  0  0  0125  0  0
  -25.9236  -11.6675   20.5847 N   0  0  0  0  0  0  0  0  0126  0  0
  -22.0708  -12.7905   22.0005 N   0  0  0  0  0  0  0  0  0127  0  0
  -25.4117  -15.1773   20.4097 N   0  0  0  0  0  0  0  0  0128  0  0
  -31.7916  -14.6724   20.0536 O   0  0  0  0  0  0  0  0  0129  0  0
  -21.6670   -6.9022   21.4423 O   0  0  0  0  0  0  0  0  0130  0  0
  -22.3946  -14.5564   20.6568 O   0  0  0  0  0  0  0  0  0131  0  0
  -24.6048  -31.8614   23.2223 C   0  0  0  0  0  0  0  0  0100  0  0
  -25.8822  -32.4841   23.8616 C   0  0  1  0  0  0  0  0  0101  0  0
  -27.2536  -27.5042   20.1156 C   0  0  0  0  0  0  0  0  0102  0  0
  -25.5726  -33.8762   24.2210 N   0  0  0  0  0  0  0  0  0103  0  0
  -23.4066  -30.4859   21.5461 C   0  0  2  0  0  0  0  0  0104  0  0
  -24.8467  -28.9636   20.1247 C   0  0  0  0  0  0  0  0  0105  0  0
  -22.7412  -29.4652   22.5052 C   0  0  0  0  0  0  0  0  0106  0  0
  -18.0167  -28.1302   22.8626 C   0  0  0  0  0  0  0  0  0107  0  0
  -24.1342  -36.7390   23.2568 C   0  0  0  0  0  0  0  0  0108  0  0
  -25.9141  -30.8882   21.3456 C   0  0  0  0  0  0  0  0  0109  0  0
  -25.9930  -29.5029   20.7208 C   0  0  0  0  0  0  0  0  0110  0  0
  -27.1758  -28.7612   20.7331 C   0  0  0  0  0  0  0  0  0111  0  0
  -26.1032  -26.9836   19.5230 C   0  0  0  0  0  0  0  0  0112  0  0
  -24.9097  -27.7011   19.5331 C   0  0  0  0  0  0  0  0  0113  0  0
  -23.5715  -29.7899   20.1582 C   0  0  0  0  0  0  0  0  0114  0  0
  -25.3990  -36.3212   24.0232 C   0  0  1  0  0  0  0  0  0115  0  0
  -20.5793  -28.3813   23.1004 C   0  0  2  0  0  0  0  0  0116  0  0
  -20.6548  -26.9392   22.5411 C   0  0  0  0  0  0  0  0  0117  0  0
  -19.5615  -26.6407   21.5143 C   0  0  0  0  0  0  0  0  0118  0  0
  -18.1797  -26.7818   22.1673 C   0  0  0  0  0  0  0  0  0119  0  0
  -19.1385  -28.8769   23.2988 C   0  0  0  0  0  0  0  0  0120  0  0
  -18.9183  -30.1286   23.8878 C   0  0  0  0  0  0  0  0  0121  0  0
  -17.6396  -30.6493   24.0352 C   0  0  0  0  0  0  0  0  0122  0  0
  -25.9153  -34.9582   23.4993 C   0  0  0  0  0  0  0  0  0123  0  0
  -16.5415  -29.9068   23.6254 C   0  0  0  0  0  0  0  0  0124  0  0
  -16.7331  -28.6521   23.0586 C   0  0  0  0  0  0  0  0  0125  0  0
  -26.4583  -31.6439   25.0683 C   0  0  0  0  0  0  0  0  0126  0  0
  -25.3807  -31.3179   26.1374 C   0  0  0  0  0  0  0  0  0127  0  0
  -27.0530  -30.3024   24.5680 C   0  0  0  0  0  0  0  0  0128  0  0
  -27.6014  -32.4281   25.7651 C   0  0  0  0  0  0  0  0  0129  0  0
  -27.5629  -37.2220   24.8621 C   0  0  0  0  0  0  0  0  0130  0  0
  -21.4133  -29.3375   22.3735 N   0  0  0  0  0  0  0  0  0131  0  0
  -26.4706  -37.3372   23.9061 N   0  0  0  0  0  0  0  0  0132  0  0
  -24.6674  -31.0544   22.1178 N   0  0  0  0  0  0  0  0  0133  0  0
  -23.4259  -28.8150   23.2971 O   0  0  0  0  0  0  0  0  0134  0  0
  -28.3948  -26.7345   20.0089 O   0  0  0  0  0  0  0  0  0135  0  0
  -26.5870  -34.9065   22.4671 O   0  0  0  0  0  0  0  0  0136  0  0
  -23.5365  -32.1254   23.7833 O   0  0  0  0  0  0  0  0  0137  0  0
  -30.3065  -24.1263   22.2920 C   0  0  0  0  0  0  0  0  0  0  0  0
  -29.1661  -23.6120   22.8576 C   0  0  0  0  0  0  0  0  0  0  0  0
  -29.9211  -25.3885   21.8167 C   0  0  0  0  0  0  0  0  0  0  0  0
  -28.8352  -22.3966   23.5166 C   0  0  0  0  0  0  0  0  0  0  0  0
  -27.5809  -22.2021   23.9643 C   0  0  0  0  0  0  0  0  0  0  0  0
  -26.8593  -24.3605   23.1684 C   0  0  0  0  0  0  0  0  0  0  0  0
  -26.5404  -23.2112   23.7923 C   0  0  0  0  0  0  0  0  0  0  0  0
  -33.1120  -26.8722   18.7913 C   0  0  0  0  0  0  0  0  0  0  0  0
  -33.4354  -26.0380   17.5521 C   0  0  0  0  0  0  0  0  0  0  0  0
  -31.6288  -27.2301   18.8868 C   0  0  0  0  0  0  0  0  0  0  0  0
  -32.9654  -24.5901   17.5751 C   0  0  0  0  0  0  0  0  0  0  0  0
  -31.1436  -24.7132   19.3068 C   0  0  0  0  0  0  0  0  0  0  0  0
  -30.7321  -26.1746   19.5782 C   0  0  1  0  0  0  0  0  0  0  0  0
  -29.0442  -24.1798   16.0716 C   0  0  0  0  0  0  0  0  0  0  0  0
  -28.8862  -21.7794   16.7939 C   0  0  0  0  0  0  0  0  0  0  0  0
  -30.7774  -26.3913   21.1067 C   0  0  0  0  0  0  0  0  0  0  0  0
  -25.1763  -22.9066   24.3225 C   0  0  0  0  0  0  0  0  0  0  0  0
  -29.2759  -26.4009   19.1177 C   0  0  0  0  0  0  0  0  0  1  0  0
  -30.9591  -23.1346   17.3845 C   0  0  0  0  0  0  0  0  0  0  0  0
  -29.4463  -23.1603   17.1386 C   0  0  0  0  0  0  0  0  0  0  0  0
  -28.6388  -25.6687   22.0531 N   0  0  0  0  0  0  0  0  0  0  0  0
  -28.1612  -24.5705   22.6996 N   0  0  0  0  0  0  0  0  0  0  0  0
  -24.5302  -21.9471   23.4550 N   0  0  0  0  0  0  0  0  0  0  0  0
  -31.4835  -24.4709   17.8507 N   0  0  2  0  0  0  0  0  0  0  0  0
  -31.4485  -12.4701   19.0860 H   0  0  0  0  0  0  0  0  0  0  0  0
  -30.3970  -11.2460   19.6950 H   0  0  0  0  0  0  0  0  0  0  0  0
  -29.6870  -11.8204   17.4226 H   0  0  0  0  0  0  0  0  0  0  0  0
  -29.6375  -13.5326   17.8649 H   0  0  0  0  0  0  0  0  0  0  0  0
  -27.7830  -11.3650   18.7904 H   0  0  0  0  0  0  0  0  0  0  0  0
  -27.4028  -12.7801   17.8021 H   0  0  0  0  0  0  0  0  0  0  0  0
  -27.7353  -14.2503   19.6136 H   0  0  0  0  0  0  0  0  0  0  0  0
  -28.5890  -11.9550   21.3832 H   0  0  0  0  0  0  0  0  0  0  0  0
  -28.5005  -13.6134   21.8562 H   0  0  0  0  0  0  0  0  0  0  0  0
  -25.2399   -9.5495   22.4318 H   0  0  0  0  0  0  0  0  0  0  0  0
  -23.9663   -7.5070   22.7297 H   0  0  0  0  0  0  0  0  0  0  0  0
  -21.1515   -8.8641   19.9162 H   0  0  0  0  0  0  0  0  0  0  0  0
  -22.4016  -10.9115   19.6476 H   0  0  0  0  0  0  0  0  0  0  0  0
  -21.2319   -7.5552   23.9750 H   0  0  0  0  0  0  0  0  0  0  0  0
  -21.1589   -6.0228   25.8556 H   0  0  0  0  0  0  0  0  0  0  0  0
  -22.0396   -2.8212   23.2809 H   0  0  0  0  0  0  0  0  0  0  0  0
  -22.4401  -11.9703   22.4008 H   0  0  0  0  0  0  0  0  0  0  0  0
  -21.1493  -13.0679   22.2082 H   0  0  0  0  0  0  0  0  0  0  0  0
  -24.6538  -15.7807   20.5848 H   0  0  0  0  0  0  0  0  0  0  0  0
  -26.2762  -15.5453   20.1156 H   0  0  0  0  0  0  0  0  0  0  0  0
  -26.6778  -32.4663   23.1464 H   0  0  0  0  0  0  0  0  0  0  0  0
  -25.0747  -34.0282   25.0566 H   0  0  0  0  0  0  0  0  0  0  0  0
  -22.7881  -31.3489   21.4131 H   0  0  0  0  0  0  0  0  0  0  0  0
  -23.3854  -35.9823   23.3648 H   0  0  0  0  0  0  0  0  0  0  0  0
  -24.3696  -36.8624   22.2204 H   0  0  0  0  0  0  0  0  0  0  0  0
  -23.7669  -37.6632   23.6516 H   0  0  0  0  0  0  0  0  0  0  0  0
  -25.9445  -31.6237   20.5691 H   0  0  0  0  0  0  0  0  0  0  0  0
  -26.7436  -31.0079   22.0108 H   0  0  0  0  0  0  0  0  0  0  0  0
  -28.0090  -29.1452   21.2057 H   0  0  0  0  0  0  0  0  0  0  0  0
  -26.1369  -26.0560   19.0719 H   0  0  0  0  0  0  0  0  0  0  0  0
  -24.0652  -27.2961   19.0997 H   0  0  0  0  0  0  0  0  0  0  0  0
  -23.6156  -30.5365   19.3930 H   0  0  0  0  0  0  0  0  0  0  0  0
  -22.7355  -29.1425   19.9945 H   0  0  0  0  0  0  0  0  0  0  0  0
  -25.1353  -36.2335   25.0565 H   0  0  0  0  0  0  0  0  0  0  0  0
  -21.0070  -28.3206   24.0793 H   0  0  0  0  0  0  0  0  0  0  0  0
  -20.5555  -26.2518   23.3550 H   0  0  0  0  0  0  0  0  0  0  0  0
  -21.5974  -26.8362   22.0454 H   0  0  0  0  0  0  0  0  0  0  0  0
  -19.6810  -25.6422   21.1488 H   0  0  0  0  0  0  0  0  0  0  0  0
  -19.6406  -27.3343   20.7034 H   0  0  0  0  0  0  0  0  0  0  0  0
  -17.4282  -26.6888   21.4113 H   0  0  0  0  0  0  0  0  0  0  0  0
  -18.0803  -26.0130   22.9049 H   0  0  0  0  0  0  0  0  0  0  0  0
  -19.7265  -30.6774   24.2204 H   0  0  0  0  0  0  0  0  0  0  0  0
  -17.5064  -31.5856   24.4483 H   0  0  0  0  0  0  0  0  0  0  0  0
  -15.5878  -30.2839   23.7407 H   0  0  0  0  0  0  0  0  0  0  0  0
  -15.9120  -28.0941   22.7766 H   0  0  0  0  0  0  0  0  0  0  0  0
  -24.5787  -30.7757   25.6817 H   0  0  0  0  0  0  0  0  0  0  0  0
  -25.0041  -32.2289   26.5536 H   0  0  0  0  0  0  0  0  0  0  0  0
  -25.8166  -30.7245   26.9138 H   0  0  0  0  0  0  0  0  0  0  0  0
  -26.2892  -29.7335   24.0803 H   0  0  0  0  0  0  0  0  0  0  0  0
  -27.4336  -29.7484   25.4006 H   0  0  0  0  0  0  0  0  0  0  0  0
  -27.8466  -30.4994   23.8779 H   0  0  0  0  0  0  0  0  0  0  0  0
  -27.2251  -33.3632   26.1242 H   0  0  0  0  0  0  0  0  0  0  0  0
  -28.3902  -32.6065   25.0645 H   0  0  0  0  0  0  0  0  0  0  0  0
  -27.9772  -31.8555   26.5872 H   0  0  0  0  0  0  0  0  0  0  0  0
  -28.2744  -38.0016   24.6863 H   0  0  0  0  0  0  0  0  0  0  0  0
  -28.0396  -36.2711   24.7461 H   0  0  0  0  0  0  0  0  0  0  0  0
  -27.1773  -37.3087   25.8564 H   0  0  0  0  0  0  0  0  0  0  0  0
  -20.9627  -29.9365   21.7352 H   0  0  0  0  0  0  0  0  0  0  0  0
  -26.0447  -38.2561   24.0273 H   0  0  0  0  0  0  0  0  0  0  0  0
  -31.2370  -23.6842   22.2304 H   0  0  0  0  0  0  0  0  0  0  0  0
  -29.5529  -21.6673   23.6510 H   0  0  0  0  0  0  0  0  0  0  0  0
  -27.3489  -21.3169   24.4414 H   0  0  0  0  0  0  0  0  0  0  0  0
  -26.1411  -25.0895   23.0352 H   0  0  0  0  0  0  0  0  0  0  0  0
  -33.6814  -27.7773   18.7536 H   0  0  0  0  0  0  0  0  0  0  0  0
  -33.3605  -26.2859   19.6512 H   0  0  0  0  0  0  0  0  0  0  0  0
  -34.4983  -26.0343   17.4294 H   0  0  0  0  0  0  0  0  0  0  0  0
  -32.9008  -26.4999   16.7485 H   0  0  0  0  0  0  0  0  0  0  0  0
  -31.2601  -27.3758   17.8929 H   0  0  0  0  0  0  0  0  0  0  0  0
  -31.5767  -28.1063   19.4988 H   0  0  0  0  0  0  0  0  0  0  0  0
  -33.5006  -24.0669   18.3398 H   0  0  0  0  0  0  0  0  0  0  0  0
  -33.1530  -24.1702   16.6090 H   0  0  0  0  0  0  0  0  0  0  0  0
  -30.3332  -24.0711   19.5821 H   0  0  0  0  0  0  0  0  0  0  0  0
  -32.0200  -24.5078   19.8853 H   0  0  0  0  0  0  0  0  0  0  0  0
  -27.9827  -24.1575   15.9390 H   0  0  0  0  0  0  0  0  0  0  0  0
  -29.5244  -23.9365   15.1469 H   0  0  0  0  0  0  0  0  0  0  0  0
  -29.3443  -25.1587   16.3825 H   0  0  0  0  0  0  0  0  0  0  0  0
  -27.8310  -21.8526   16.6325 H   0  0  0  0  0  0  0  0  0  0  0  0
  -29.0774  -21.1050   17.6023 H   0  0  0  0  0  0  0  0  0  0  0  0
  -29.3584  -21.4145   15.9058 H   0  0  0  0  0  0  0  0  0  0  0  0
  -31.7876  -26.2904   21.4446 H   0  0  0  0  0  0  0  0  0  0  0  0
  -30.4057  -27.3710   21.3232 H   0  0  0  0  0  0  0  0  0  0  0  0
  -24.5968  -23.8054   24.3558 H   0  0  0  0  0  0  0  0  0  0  0  0
  -25.2574  -22.5004   25.3091 H   0  0  0  0  0  0  0  0  0  0  0  0
  -28.9411  -25.4904   18.6663 H   0  0  0  0  0  0  0  0  0  0  0  0
  -29.3323  -27.2511   18.4705 H   0  0  0  0  0  0  0  0  0  0  0  0
  -31.4521  -22.8701   16.4724 H   0  0  0  0  0  0  0  0  0  0  0  0
  -31.1547  -22.4180   18.1547 H   0  0  0  0  0  0  0  0  0  0  0  0
  -29.0110  -23.4682   18.0663 H   0  0  0  0  0  0  0  0  0  0  0  0
  -23.5919  -22.0176   23.1653 H   0  0  0  0  0  0  0  0  0  0  0  0
  -31.0196  -25.2056   17.3165 H   0  0  0  0  0  0  0  0  0  0  0  0
  1 25  1  0
  1 30  2  0
  1 93  1  0
  2  3  1  0
  2 25  1  0
  2 95  1  0
  2 96  1  0
  3  4  1  0
  3 97  1  0
  3 98  1  0
  4  5  1  0
  4 99  1  0
  4100  1  0
  5  6  1  0
  5 26  1  0
  5101  1  6
  6 25  1  0
  6102  1  0
  6103  1  0
  7  8  2  0
  7 26  1  0
  7 29  1  0
  8  9  1  0
  8 22  1  0
  9 10  1  0
  9 27  2  0
 10 11  2  0
 10 15  1  0
 11 12  1  0
 11104  1  0
 12 13  2  0
 12105  1  0
 13 14  1  0
 13 31  1  0
 14 15  2  0
 14106  1  0
 15107  1  0
 16 17  2  0
 16 21  1  0
 16 31  1  0
 17 18  1  0
 17108  1  0
 18 19  2  0
 18109  1  0
 19 20  1  0
 19 24  1  0
 20 21  2  0
 20110  1  0
 21 23  1  0
 22 28  1  0
 22 32  2  0
 26 27  1  0
 28111  1  0
 28112  1  0
 29113  1  0
 29114  1  0
 33 34  1  0
 33 66  1  0
 33 70  2  0
 34 36  1  0
 34 59  1  0
 34115  1  6
 35 44  2  0
 35 45  1  0
 35 68  1  0
 36 56  1  0
 36116  1  0
 37 39  1  0
 37 47  1  0
 37 66  1  0
 37117  1  6
 38 43  2  0
 38 46  1  0
 38 47  1  0
 39 64  1  0
 39 67  2  0
 40 52  1  0
 40 53  2  0
 40 58  1  0
 41118  1  0
 41119  1  0
 41120  1  0
 42 43  1  0
 42 66  1  0
 42121  1  0
 42122  1  0
 43 44  1  0
 44123  1  0
 45 46  2  0
 45124  1  0
 46125  1  0
 47126  1  0
 47127  1  0
 48 41  1  0
 48 56  1  0
 48 65  1  0
 48128  1  1
 49 50  1  0
 49 53  1  0
 49 64  1  0
 49129  1  1
 50 51  1  0
 50130  1  0
 50131  1  0
 51 52  1  0
 51132  1  0
 51133  1  0
 52134  1  0
 52135  1  0
 53 54  1  0
 54 55  2  0
 54136  1  0
 55 57  1  0
 55137  1  0
 56 69  2  0
 57 58  2  0
 57138  1  0
 58139  1  0
 59 60  1  0
 59 61  1  0
 59 62  1  0
 60140  1  0
 60141  1  0
 60142  1  0
 61143  1  0
 61144  1  0
 61145  1  0
 62146  1  0
 62147  1  0
 62148  1  0
 63 65  1  0
 63149  1  0
 63150  1  0
 63151  1  0
 64152  1  0
 65153  1  0
 68 88  1  0
 71 72  2  0
 71 73  1  0
 71154  1  0
 72 74  1  0
 72 92  1  0
 73 86  1  0
 73 91  2  0
 74 75  2  0
 74155  1  0
 75 77  1  0
 75156  1  0
 76 77  2  0
 76 92  1  0
 76157  1  0
 77 87  1  0
 78 79  1  0
 78 80  1  0
 78158  1  0
 78159  1  0
 79 81  1  0
 79160  1  0
 79161  1  0
 80 83  1  0
 80162  1  0
 80163  1  0
 81 94  1  0
 81164  1  0
 81165  1  0
 82 83  1  0
 82 94  1  0
 82166  1  0
 82167  1  0
 83 86  1  1
 83 88  1  0
 84168  1  0
 84169  1  0
 84170  1  0
 85 90  1  0
 85171  1  0
 85172  1  0
 85173  1  0
 86174  1  0
 86175  1  0
 87 93  1  0
 87176  1  0
 87177  1  0
 88178  1  0
 88179  1  0
 89 90  1  0
 89180  1  0
 89181  1  0
 90 84  1  0
 90182  1  0
 91 92  1  0
 93183  1  0
 94 89  1  0
 94184  1  6
M  CHG  1  94   1
M  ISO  4   1 100  68 101  88 101  93 100
M  END
$$$$
36
     RDKit          3D

169177  0  0  0  0  0  0  0  0999 V2000
  -30.7652  -14.3608   20.6636 C   0  0  0  0  0  0  0  0  0100  0  0
  -30.4392  -12.2669   19.3775 C   0  0  0  0  0  0  0  0  0101  0  0
  -29.4791  -12.5281   18.1977 C   0  0  0  0  0  0  0  0  0102  0  0
  -27.9985  -12.3963   18.6038 C   0  0  0  0  0  0  0  0  0103  0  0
  -27.6639  -13.2170   19.8820 C   0  0  2  0  0  0  0  0  0104  0  0
  -28.6795  -12.9602   21.0279 C   0  0  0  0  0  0  0  0  0105  0  0
  -25.2633  -13.8245   20.5754 C   0  0  0  0  0  0  0  0  0106  0  0
  -24.1645  -13.0409   20.9408 C   0  0  0  0  0  0  0  0  0107  0  0
  -24.6400  -11.7009   20.8697 C   0  0  0  0  0  0  0  0  0108  0  0
  -23.9005  -10.4085   21.0420 C   0  0  0  0  0  0  0  0  0109  0  0
  -24.3588   -9.4123   21.9123 C   0  0  0  0  0  0  0  0  0110  0  0
  -23.6296   -8.2350   22.0803 C   0  0  0  0  0  0  0  0  0111  0  0
  -22.4385   -8.0419   21.3657 C   0  0  0  0  0  0  0  0  0112  0  0
  -22.0103   -9.0167   20.4678 C   0  0  0  0  0  0  0  0  0113  0  0
  -22.7317  -10.1925   20.3102 C   0  0  0  0  0  0  0  0  0114  0  0
  -21.6857   -6.0709   22.5391 C   0  0  0  0  0  0  0  0  0115  0  0
  -21.4064   -6.5490   23.8264 C   0  0  0  0  0  0  0  0  0116  0  0
  -21.3635   -5.6677   24.9085 C   0  0  0  0  0  0  0  0  0117  0  0
  -21.5973   -4.3067   24.7088 C   0  0  0  0  0  0  0  0  0118  0  0
  -21.8700   -3.8284   23.4282 C   0  0  0  0  0  0  0  0  0119  0  0
  -21.9144   -4.7056   22.3460 C   0  0  0  0  0  0  0  0  0120  0  0
  -22.8194  -13.5263   21.1763 C   0  0  0  0  0  0  0  0  0121  0  0
  -22.1559   -4.2206   21.1063 F   0  0  0  0  0  0  0  0  0122  0  0
  -21.5628   -3.4510   25.7555 F   0  0  0  0  0  0  0  0  0123  0  0
  -30.0261  -13.1803   20.4553 N   0  0  0  0  0  0  0  0  0124  0  0
  -26.2911  -12.9356   20.3443 N   0  0  0  0  0  0  0  0  0125  0  0
  -25.9236  -11.6675   20.5847 N   0  0  0  0  0  0  0  0  0126  0  0
  -22.0708  -12.7905   22.0005 N   0  0  0  0  0  0  0  0  0127  0  0
  -25.4117  -15.1773   20.4097 N   0  0  0  0  0  0  0  0  0128  0  0
  -31.7916  -14.6724   20.0536 O   0  0  0  0  0  0  0  0  0129  0  0
  -21.6670   -6.9022   21.4423 O   0  0  0  0  0  0  0  0  0130  0  0
  -22.3946  -14.5564   20.6568 O   0  0  0  0  0  0  0  0  0131  0  0
  -24.6048  -31.8614   23.2223 C   0  0  0  0  0  0  0  0  0100  0  0
  -25.8822  -32.4841   23.8616 C   0  0  1  0  0  0  0  0  0101  0  0
  -27.2536  -27.5042   20.1156 C   0  0  0  0  0  0  0  0  0102  0  0
  -25.5726  -33.8762   24.2210 N   0  0  0  0  0  0  0  0  0103  0  0
  -23.4066  -30.4859   21.5461 C   0  0  2  0  0  0  0  0  0104  0  0
  -24.8467  -28.9636   20.1247 C   0  0  0  0  0  0  0  0  0105  0  0
  -22.7412  -29.4652   22.5052 C   0  0  0  0  0  0  0  0  0106  0  0
  -18.0167  -28.1302   22.8626 C   0  0  0  0  0  0  0  0  0107  0  0
  -24.1342  -36.7390   23.2568 C   0  0  0  0  0  0  0  0  0108  0  0
  -25.9141  -30.8882   21.3456 C   0  0  0  0  0  0  0  0  0109  0  0
  -25.9930  -29.5029   20.7208 C   0  0  0  0  0  0  0  0  0110  0  0
  -27.1758  -28.7612   20.7331 C   0  0  0  0  0  0  0  0  0111  0  0
  -26.1032  -26.9836   19.5230 C   0  0  0  0  0  0  0  0  0112  0  0
  -24.9097  -27.7011   19.5331 C   0  0  0  0  0  0  0  0  0113  0  0
  -23.5715  -29.7899   20.1582 C   0  0  0  0  0  0  0  0  0114  0  0
  -25.3990  -36.3212   24.0232 C   0  0  1  0  0  0  0  0  0115  0  0
  -20.5793  -28.3813   23.1004 C   0  0  2  0  0  0  0  0  0116  0  0
  -20.6548  -26.9392   22.5411 C   0  0  0  0  0  0  0  0  0117  0  0
  -19.5615  -26.6407   21.5143 C   0  0  0  0  0  0  0  0  0118  0  0
  -18.1797  -26.7818   22.1673 C   0  0  0  0  0  0  0  0  0119  0  0
  -19.1385  -28.8769   23.2988 C   0  0  0  0  0  0  0  0  0120  0  0
  -18.9183  -30.1286   23.8878 C   0  0  0  0  0  0  0  0  0121  0  0
  -17.6396  -30.6493   24.0352 C   0  0  0  0  0  0  0  0  0122  0  0
  -25.9153  -34.9582   23.4993 C   0  0  0  0  0  0  0  0  0123  0  0
  -16.5415  -29.9068   23.6254 C   0  0  0  0  0  0  0  0  0124  0  0
  -16.7331  -28.6521   23.0586 C   0  0  0  0  0  0  0  0  0125  0  0
  -26.4583  -31.6439   25.0683 C   0  0  0  0  0  0  0  0  0126  0  0
  -25.3807  -31.3179   26.1374 C   0  0  0  0  0  0  0  0  0127  0  0
  -27.0530  -30.3024   24.5680 C   0  0  0  0  0  0  0  0  0128  0  0
  -27.6014  -32.4281   25.7651 C   0  0  0  0  0  0  0  0  0129  0  0
  -27.5629  -37.2220   24.8621 C   0  0  0  0  0  0  0  0  0130  0  0
  -21.4133  -29.3375   22.3735 N   0  0  0  0  0  0  0  0  0131  0  0
  -26.4706  -37.3372   23.9061 N   0  0  0  0  0  0  0  0  0132  0  0
  -24.6674  -31.0544   22.1178 N   0  0  0  0  0  0  0  0  0133  0  0
  -23.4259  -28.8150   23.2971 O   0  0  0  0  0  0  0  0  0134  0  0
  -28.3948  -26.7345   20.0089 O   0  0  0  0  0  0  0  0  0135  0  0
  -26.5870  -34.9065   22.4671 O   0  0  0  0  0  0  0  0  0136  0  0
  -23.5365  -32.1254   23.7833 O   0  0  0  0  0  0  0  0  0137  0  0
  -31.3775  -23.5792   22.8322 C   0  0  0  0  0  0  0  0  0  0  0  0
  -29.9609  -22.9064   21.2165 C   0  0  0  0  0  0  0  0  0  0  0  0
  -30.5552  -24.0207   21.7664 C   0  0  0  0  0  0  0  0  0  0  0  0
  -31.2608  -22.2084   22.9010 C   0  0  0  0  0  0  0  0  0  0  0  0
  -31.5043  -21.4770   25.3009 C   0  0  0  0  0  0  0  0  0  0  0  0
  -33.4409  -21.2317   23.7057 C   0  0  0  0  0  0  0  0  0  0  0  0
  -30.3591  -20.4608   19.1072 C   0  0  0  0  0  0  0  0  0  0  0  0
  -32.2180  -19.7165   20.6034 C   0  0  0  0  0  0  0  0  0  0  0  0
  -30.3653  -25.4401   21.3184 C   0  0  0  0  0  0  0  0  0  1  0  0
  -30.1473  -18.2824   20.3030 C   0  0  0  0  0  0  0  0  0  0  0  0
  -29.9967  -20.4484   21.6370 C   0  0  0  0  0  0  0  0  0  0  0  0
  -30.4249  -17.3587   21.4881 C   0  0  0  0  0  0  0  0  0  0  0  0
  -31.8997  -21.2478   23.8242 C   0  0  0  0  0  0  0  0  0  0  0  0
  -30.6872  -19.7399   20.4330 C   0  0  0  0  0  0  0  0  0  0  0  0
  -30.3974  -21.8104   21.9140 N   0  0  0  0  0  0  0  0  0  0  0  0
  -29.8580  -16.0472   21.2658 N   0  0  0  0  0  0  0  0  0  0  0  0
  -31.4485  -12.4701   19.0860 H   0  0  0  0  0  0  0  0  0  0  0  0
  -30.3970  -11.2460   19.6950 H   0  0  0  0  0  0  0  0  0  0  0  0
  -29.6870  -11.8204   17.4226 H   0  0  0  0  0  0  0  0  0  0  0  0
  -29.6375  -13.5326   17.8649 H   0  0  0  0  0  0  0  0  0  0  0  0
  -27.7830  -11.3650   18.7904 H   0  0  0  0  0  0  0  0  0  0  0  0
  -27.4028  -12.7801   17.8021 H   0  0  0  0  0  0  0  0  0  0  0  0
  -27.7353  -14.2503   19.6136 H   0  0  0  0  0  0  0  0  0  0  0  0
  -28.5890  -11.9550   21.3832 H   0  0  0  0  0  0  0  0  0  0  0  0
  -28.5005  -13.6134   21.8562 H   0  0  0  0  0  0  0  0  0  0  0  0
  -25.2399   -9.5495   22.4318 H   0  0  0  0  0  0  0  0  0  0  0  0
  -23.9663   -7.5070   22.7297 H   0  0  0  0  0  0  0  0  0  0  0  0
  -21.1515   -8.8641   19.9162 H   0  0  0  0  0  0  0  0  0  0  0  0
  -22.4016  -10.9115   19.6476 H   0  0  0  0  0  0  0  0  0  0  0  0
  -21.2319   -7.5552   23.9750 H   0  0  0  0  0  0  0  0  0  0  0  0
  -21.1589   -6.0228   25.8556 H   0  0  0  0  0  0  0  0  0  0  0  0
  -22.0396   -2.8212   23.2809 H   0  0  0  0  0  0  0  0  0  0  0  0
  -22.4401  -11.9703   22.4008 H   0  0  0  0  0  0  0  0  0  0  0  0
  -21.1493  -13.0679   22.2082 H   0  0  0  0  0  0  0  0  0  0  0  0
  -24.6538  -15.7807   20.5848 H   0  0  0  0  0  0  0  0  0  0  0  0
  -26.2762  -15.5453   20.1156 H   0  0  0  0  0  0  0  0  0  0  0  0
  -26.6778  -32.4663   23.1464 H   0  0  0  0  0  0  0  0  0  0  0  0
  -25.0747  -34.0282   25.0566 H   0  0  0  0  0  0  0  0  0  0  0  0
  -22.7881  -31.3489   21.4131 H   0  0  0  0  0  0  0  0  0  0  0  0
  -23.3854  -35.9823   23.3648 H   0  0  0  0  0  0  0  0  0  0  0  0
  -24.3696  -36.8624   22.2204 H   0  0  0  0  0  0  0  0  0  0  0  0
  -23.7669  -37.6632   23.6516 H   0  0  0  0  0  0  0  0  0  0  0  0
  -25.9445  -31.6237   20.5691 H   0  0  0  0  0  0  0  0  0  0  0  0
  -26.7436  -31.0079   22.0108 H   0  0  0  0  0  0  0  0  0  0  0  0
  -28.0090  -29.1452   21.2057 H   0  0  0  0  0  0  0  0  0  0  0  0
  -26.1369  -26.0560   19.0719 H   0  0  0  0  0  0  0  0  0  0  0  0
  -24.0652  -27.2961   19.0997 H   0  0  0  0  0  0  0  0  0  0  0  0
  -23.6156  -30.5365   19.3930 H   0  0  0  0  0  0  0  0  0  0  0  0
  -22.7355  -29.1425   19.9945 H   0  0  0  0  0  0  0  0  0  0  0  0
  -25.1353  -36.2335   25.0565 H   0  0  0  0  0  0  0  0  0  0  0  0
  -21.0070  -28.3206   24.0793 H   0  0  0  0  0  0  0  0  0  0  0  0
  -20.5555  -26.2518   23.3550 H   0  0  0  0  0  0  0  0  0  0  0  0
  -21.5974  -26.8362   22.0454 H   0  0  0  0  0  0  0  0  0  0  0  0
  -19.6810  -25.6422   21.1488 H   0  0  0  0  0  0  0  0  0  0  0  0
  -19.6406  -27.3343   20.7034 H   0  0  0  0  0  0  0  0  0  0  0  0
  -17.4282  -26.6888   21.4113 H   0  0  0  0  0  0  0  0  0  0  0  0
  -18.0803  -26.0130   22.9049 H   0  0  0  0  0  0  0  0  0  0  0  0
  -19.7265  -30.6774   24.2204 H   0  0  0  0  0  0  0  0  0  0  0  0
  -17.5064  -31.5856   24.4483 H   0  0  0  0  0  0  0  0  0  0  0  0
  -15.5878  -30.2839   23.7407 H   0  0  0  0  0  0  0  0  0  0  0  0
  -15.9120  -28.0941   22.7766 H   0  0  0  0  0  0  0  0  0  0  0  0
  -24.5787  -30.7757   25.6817 H   0  0  0  0  0  0  0  0  0  0  0  0
  -25.0041  -32.2289   26.5536 H   0  0  0  0  0  0  0  0  0  0  0  0
  -25.8166  -30.7245   26.9138 H   0  0  0  0  0  0  0  0  0  0  0  0
  -26.2892  -29.7335   24.0803 H   0  0  0  0  0  0  0  0  0  0  0  0
  -27.4336  -29.7484   25.4006 H   0  0  0  0  0  0  0  0  0  0  0  0
  -27.8466  -30.4994   23.8779 H   0  0  0  0  0  0  0  0  0  0  0  0
  -27.2251  -33.3632   26.1242 H   0  0  0  0  0  0  0  0  0  0  0  0
  -28.3902  -32.6065   25.0645 H   0  0  0  0  0  0  0  0  0  0  0  0
  -27.9772  -31.8555   26.5872 H   0  0  0  0  0  0  0  0  0  0  0  0
  -28.2744  -38.0016   24.6863 H   0  0  0  0  0  0  0  0  0  0  0  0
  -28.0396  -36.2711   24.7461 H   0  0  0  0  0  0  0  0  0  0  0  0
  -27.1773  -37.3087   25.8564 H   0  0  0  0  0  0  0  0  0  0  0  0
  -20.9627  -29.9365   21.7352 H   0  0  0  0  0  0  0  0  0  0  0  0
  -26.0447  -38.2561   24.0273 H   0  0  0  0  0  0  0  0  0  0  0  0
  -31.9570  -24.1747   23.4442 H   0  0  0  0  0  0  0  0  0  0  0  0
  -29.3038  -22.8983   20.4208 H   0  0  0  0  0  0  0  0  0  0  0  0
  -30.4378  -21.4888   25.3869 H   0  0  0  0  0  0  0  0  0  0  0  0
  -31.8994  -22.4137   25.6347 H   0  0  0  0  0  0  0  0  0  0  0  0
  -31.9020  -20.6872   25.9033 H   0  0  0  0  0  0  0  0  0  0  0  0
  -33.7185  -21.0732   22.6846 H   0  0  0  0  0  0  0  0  0  0  0  0
  -33.8368  -20.4421   24.3096 H   0  0  0  0  0  0  0  0  0  0  0  0
  -33.8342  -22.1686   24.0409 H   0  0  0  0  0  0  0  0  0  0  0  0
  -30.8437  -19.9564   18.2975 H   0  0  0  0  0  0  0  0  0  0  0  0
  -30.7055  -21.4720   19.1559 H   0  0  0  0  0  0  0  0  0  0  0  0
  -29.3008  -20.4535   18.9497 H   0  0  0  0  0  0  0  0  0  0  0  0
  -32.6629  -19.2250   19.7635 H   0  0  0  0  0  0  0  0  0  0  0  0
  -32.4691  -19.1886   21.4996 H   0  0  0  0  0  0  0  0  0  0  0  0
  -32.5853  -20.7196   20.6654 H   0  0  0  0  0  0  0  0  0  0  0  0
  -31.2226  -25.6171   20.7030 H   0  0  0  0  0  0  0  0  0  0  0  0
  -30.1150  -25.8218   22.2862 H   0  0  0  0  0  0  0  0  0  0  0  0
  -29.0868  -18.3364   20.1710 H   0  0  0  0  0  0  0  0  0  0  0  0
  -30.6697  -17.8535   19.4735 H   0  0  0  0  0  0  0  0  0  0  0  0
  -30.1990  -19.8678   22.5127 H   0  0  0  0  0  0  0  0  0  0  0  0
  -28.9632  -20.5117   21.3673 H   0  0  0  0  0  0  0  0  0  0  0  0
  -29.9925  -17.7820   22.3706 H   0  0  0  0  0  0  0  0  0  0  0  0
  -31.4841  -17.2579   21.6014 H   0  0  0  0  0  0  0  0  0  0  0  0
  -31.5257  -20.2936   23.5168 H   0  0  0  0  0  0  0  0  0  0  0  0
  -28.8909  -15.9705   21.4334 H   0  0  0  0  0  0  0  0  0  0  0  0
  1 25  1  0
  1 30  2  0
  1 86  1  0
  2  3  1  0
  2 25  1  0
  2 87  1  0
  2 88  1  0
  3  4  1  0
  3 89  1  0
  3 90  1  0
  4  5  1  0
  4 91  1  0
  4 92  1  0
  5  6  1  0
  5 26  1  0
  5 93  1  6
  6 25  1  0
  6 94  1  0
  6 95  1  0
  7  8  2  0
  7 26  1  0
  7 29  1  0
  8  9  1  0
  8 22  1  0
  9 10  1  0
  9 27  2  0
 10 11  2  0
 10 15  1  0
 11 12  1  0
 11 96  1  0
 12 13  2  0
 12 97  1  0
 13 14  1  0
 13 31  1  0
 14 15  2  0
 14 98  1  0
 15 99  1  0
 16 17  2  0
 16 21  1  0
 16 31  1  0
 17 18  1  0
 17100  1  0
 18 19  2  0
 18101  1  0
 19 20  1  0
 19 24  1  0
 20 21  2  0
 20102  1  0
 21 23  1  0
 22 28  1  0
 22 32  2  0
 26 27  1  0
 28103  1  0
 28104  1  0
 29105  1  0
 29106  1  0
 33 34  1  0
 33 66  1  0
 33 70  2  0
 34 36  1  0
 34 59  1  0
 34107  1  6
 35 44  2  0
 35 45  1  0
 35 68  1  0
 36 56  1  0
 36108  1  0
 37 39  1  0
 37 47  1  0
 37 66  1  0
 37109  1  6
 38 43  2  0
 38 46  1  0
 38 47  1  0
 39 64  1  0
 39 67  2  0
 40 52  1  0
 40 53  2  0
 40 58  1  0
 41110  1  0
 41111  1  0
 41112  1  0
 42 43  1  0
 42 66  1  0
 42113  1  0
 42114  1  0
 43 44  1  0
 44115  1  0
 45 46  2  0
 45116  1  0
 46117  1  0
 47118  1  0
 47119  1  0
 48 41  1  0
 48 56  1  0
 48 65  1  0
 48120  1  1
 49 50  1  0
 49 53  1  0
 49 64  1  0
 49121  1  1
 50 51  1  0
 50122  1  0
 50123  1  0
 51 52  1  0
 51124  1  0
 51125  1  0
 52126  1  0
 52127  1  0
 53 54  1  0
 54 55  2  0
 54128  1  0
 55 57  1  0
 55129  1  0
 56 69  2  0
 57 58  2  0
 57130  1  0
 58131  1  0
 59 60  1  0
 59 61  1  0
 59 62  1  0
 60132  1  0
 60133  1  0
 60134  1  0
 61135  1  0
 61136  1  0
 61137  1  0
 62138  1  0
 62139  1  0
 62140  1  0
 63 65  1  0
 63141  1  0
 63142  1  0
 63143  1  0
 64144  1  0
 65145  1  0
 68 79  1  0
 71 73  1  0
 71 74  2  0
 71146  1  0
 72 73  2  0
 72 85  1  0
 72147  1  0
 73 79  1  0
 74 83  1  0
 74 85  1  0
 75148  1  0
 75149  1  0
 75150  1  0
 76 83  1  0
 76151  1  0
 76152  1  0
 76153  1  0
 77154  1  0
 77155  1  0
 77156  1  0
 78 84  1  0
 78157  1  0
 78158  1  0
 78159  1  0
 79160  1  0
 79161  1  0
 80 82  1  0
 80 84  1  0
 80162  1  0
 80163  1  0
 81 84  1  0
 81 85  1  0
 81164  1  0
 81165  1  0
 82 86  1  0
 82166  1  0
 82167  1  0
 83 75  1  0
 83168  1  0
 84 77  1  0
 86169  1  0
M  ISO  4   1 100  68 101  79 101  86 100
M  END
$$$$
37
     RDKit          3D

168175  0  0  0  0  0  0  0  0999 V2000
  -30.7652  -14.3608   20.6636 C   0  0  0  0  0  0  0  0  0100  0  0
  -30.4392  -12.2669   19.3775 C   0  0  0  0  0  0  0  0  0101  0  0
  -29.4791  -12.5281   18.1977 C   0  0  0  0  0  0  0  0  0102  0  0
  -27.9985  -12.3963   18.6038 C   0  0  0  0  0  0  0  0  0103  0  0
  -27.6639  -13.2170   19.8820 C   0  0  2  0  0  0  0  0  0104  0  0
  -28.6795  -12.9602   21.0279 C   0  0  0  0  0  0  0  0  0105  0  0
  -25.2633  -13.8245   20.5754 C   0  0  0  0  0  0  0  0  0106  0  0
  -24.1645  -13.0409   20.9408 C   0  0  0  0  0  0  0  0  0107  0  0
  -24.6400  -11.7009   20.8697 C   0  0  0  0  0  0  0  0  0108  0  0
  -23.9005  -10.4085   21.0420 C   0  0  0  0  0  0  0  0  0109  0  0
  -24.3588   -9.4123   21.9123 C   0  0  0  0  0  0  0  0  0110  0  0
  -23.6296   -8.2350   22.0803 C   0  0  0  0  0  0  0  0  0111  0  0
  -22.4385   -8.0419   21.3657 C   0  0  0  0  0  0  0  0  0112  0  0
  -22.0103   -9.0167   20.4678 C   0  0  0  0  0  0  0  0  0113  0  0
  -22.7317  -10.1925   20.3102 C   0  0  0  0  0  0  0  0  0114  0  0
  -21.6857   -6.0709   22.5391 C   0  0  0  0  0  0  0  0  0115  0  0
  -21.4064   -6.5490   23.8264 C   0  0  0  0  0  0  0  0  0116  0  0
  -21.3635   -5.6677   24.9085 C   0  0  0  0  0  0  0  0  0117  0  0
  -21.5973   -4.3067   24.7088 C   0  0  0  0  0  0  0  0  0118  0  0
  -21.8700   -3.8284   23.4282 C   0  0  0  0  0  0  0  0  0119  0  0
  -21.9144   -4.7056   22.3460 C   0  0  0  0  0  0  0  0  0120  0  0
  -22.8194  -13.5263   21.1763 C   0  0  0  0  0  0  0  0  0121  0  0
  -22.1559   -4.2206   21.1063 F   0  0  0  0  0  0  0  0  0122  0  0
  -21.5628   -3.4510   25.7555 F   0  0  0  0  0  0  0  0  0123  0  0
  -30.0261  -13.1803   20.4553 N   0  0  0  0  0  0  0  0  0124  0  0
  -26.2911  -12.9356   20.3443 N   0  0  0  0  0  0  0  0  0125  0  0
  -25.9236  -11.6675   20.5847 N   0  0  0  0  0  0  0  0  0126  0  0
  -22.0708  -12.7905   22.0005 N   0  0  0  0  0  0  0  0  0127  0  0
  -25.4117  -15.1773   20.4097 N   0  0  0  0  0  0  0  0  0128  0  0
  -31.7916  -14.6724   20.0536 O   0  0  0  0  0  0  0  0  0129  0  0
  -21.6670   -6.9022   21.4423 O   0  0  0  0  0  0  0  0  0130  0  0
  -22.3946  -14.5564   20.6568 O   0  0  0  0  0  0  0  0  0131  0  0
  -24.6048  -31.8614   23.2223 C   0  0  0  0  0  0  0  0  0100  0  0
  -25.8822  -32.4841   23.8616 C   0  0  1  0  0  0  0  0  0101  0  0
  -27.2536  -27.5042   20.1156 C   0  0  0  0  0  0  0  0  0102  0  0
  -25.5726  -33.8762   24.2210 N   0  0  0  0  0  0  0  0  0103  0  0
  -23.4066  -30.4859   21.5461 C   0  0  2  0  0  0  0  0  0104  0  0
  -24.8467  -28.9636   20.1247 C   0  0  0  0  0  0  0  0  0105  0  0
  -22.7412  -29.4652   22.5052 C   0  0  0  0  0  0  0  0  0106  0  0
  -18.0167  -28.1302   22.8626 C   0  0  0  0  0  0  0  0  0107  0  0
  -24.1342  -36.7390   23.2568 C   0  0  0  0  0  0  0  0  0108  0  0
  -25.9141  -30.8882   21.3456 C   0  0  0  0  0  0  0  0  0109  0  0
  -25.9930  -29.5029   20.7208 C   0  0  0  0  0  0  0  0  0110  0  0
  -27.1758  -28.7612   20.7331 C   0  0  0  0  0  0  0  0  0111  0  0
  -26.1032  -26.9836   19.5230 C   0  0  0  0  0  0  0  0  0112  0  0
  -24.9097  -27.7011   19.5331 C   0  0  0  0  0  0  0  0  0113  0  0
  -23.5715  -29.7899   20.1582 C   0  0  0  0  0  0  0  0  0114  0  0
  -25.3990  -36.3212   24.0232 C   0  0  1  0  0  0  0  0  0115  0  0
  -20.5793  -28.3813   23.1004 C   0  0  2  0  0  0  0  0  0116  0  0
  -20.6548  -26.9392   22.5411 C   0  0  0  0  0  0  0  0  0117  0  0
  -19.5615  -26.6407   21.5143 C   0  0  0  0  0  0  0  0  0118  0  0
  -18.1797  -26.7818   22.1673 C   0  0  0  0  0  0  0  0  0119  0  0
  -19.1385  -28.8769   23.2988 C   0  0  0  0  0  0  0  0  0120  0  0
  -18.9183  -30.1286   23.8878 C   0  0  0  0  0  0  0  0  0121  0  0
  -17.6396  -30.6493   24.0352 C   0  0  0  0  0  0  0  0  0122  0  0
  -25.9153  -34.9582   23.4993 C   0  0  0  0  0  0  0  0  0123  0  0
  -16.5415  -29.9068   23.6254 C   0  0  0  0  0  0  0  0  0124  0  0
  -16.7331  -28.6521   23.0586 C   0  0  0  0  0  0  0  0  0125  0  0
  -26.4583  -31.6439   25.0683 C   0  0  0  0  0  0  0  0  0126  0  0
  -25.3807  -31.3179   26.1374 C   0  0  0  0  0  0  0  0  0127  0  0
  -27.0530  -30.3024   24.5680 C   0  0  0  0  0  0  0  0  0128  0  0
  -27.6014  -32.4281   25.7651 C   0  0  0  0  0  0  0  0  0129  0  0
  -27.5629  -37.2220   24.8621 C   0  0  0  0  0  0  0  0  0130  0  0
  -21.4133  -29.3375   22.3735 N   0  0  0  0  0  0  0  0  0131  0  0
  -26.4706  -37.3372   23.9061 N   0  0  0  0  0  0  0  0  0132  0  0
  -24.6674  -31.0544   22.1178 N   0  0  0  0  0  0  0  0  0133  0  0
  -23.4259  -28.8150   23.2971 O   0  0  0  0  0  0  0  0  0134  0  0
  -28.3948  -26.7345   20.0089 O   0  0  0  0  0  0  0  0  0135  0  0
  -26.5870  -34.9065   22.4671 O   0  0  0  0  0  0  0  0  0136  0  0
  -23.5365  -32.1254   23.7833 O   0  0  0  0  0  0  0  0  0137  0  0
  -22.2844  -32.2570   23.7293 C   0  0  0  0  0  0  0  0  0  0  0  0
  -22.3241  -31.0984   20.2655 C   0  0  0  0  0  0  0  0  0  0  0  0
  -25.0663  -24.6286   22.4768 C   0  0  0  0  0  0  0  0  0  0  0  0
  -21.5053  -31.0536   23.2128 C   0  0  0  0  0  0  0  0  0  0  0  0
  -20.2669  -26.7971   22.9354 C   0  0  0  0  0  0  0  0  0  0  0  0
  -20.8622  -25.8457   21.9030 C   0  0  0  0  0  0  0  0  0  0  0  0
  -21.1721  -27.9375   23.3892 C   0  0  0  0  0  0  0  0  0  0  0  0
  -22.7346  -24.2429   21.4980 C   0  0  0  0  0  0  0  0  0  0  0  0
  -23.1736  -30.4650   21.3635 C   0  0  1  0  0  0  0  0  0  0  0  0
  -22.3973  -29.9653   22.5981 C   0  0  2  0  0  0  0  0  0  0  0  0
  -23.9811  -23.6214   22.1197 C   0  0  1  0  0  0  0  0  0  1  0  0
  -22.1170  -25.2318   22.4162 N   0  0  0  0  0  0  0  0  0  0  0  0
  -21.5567  -28.7893   22.2398 N   0  0  0  0  0  0  0  0  0  0  0  0
  -31.4485  -12.4701   19.0860 H   0  0  0  0  0  0  0  0  0  0  0  0
  -30.3970  -11.2460   19.6950 H   0  0  0  0  0  0  0  0  0  0  0  0
  -29.6870  -11.8204   17.4226 H   0  0  0  0  0  0  0  0  0  0  0  0
  -29.6375  -13.5326   17.8649 H   0  0  0  0  0  0  0  0  0  0  0  0
  -27.7830  -11.3650   18.7904 H   0  0  0  0  0  0  0  0  0  0  0  0
  -27.4028  -12.7801   17.8021 H   0  0  0  0  0  0  0  0  0  0  0  0
  -27.7353  -14.2503   19.6136 H   0  0  0  0  0  0  0  0  0  0  0  0
  -28.5890  -11.9550   21.3832 H   0  0  0  0  0  0  0  0  0  0  0  0
  -28.5005  -13.6134   21.8562 H   0  0  0  0  0  0  0  0  0  0  0  0
  -25.2399   -9.5495   22.4318 H   0  0  0  0  0  0  0  0  0  0  0  0
  -23.9663   -7.5070   22.7297 H   0  0  0  0  0  0  0  0  0  0  0  0
  -21.1515   -8.8641   19.9162 H   0  0  0  0  0  0  0  0  0  0  0  0
  -22.4016  -10.9115   19.6476 H   0  0  0  0  0  0  0  0  0  0  0  0
  -21.2319   -7.5552   23.9750 H   0  0  0  0  0  0  0  0  0  0  0  0
  -21.1589   -6.0228   25.8556 H   0  0  0  0  0  0  0  0  0  0  0  0
  -22.0396   -2.8212   23.2809 H   0  0  0  0  0  0  0  0  0  0  0  0
  -22.4401  -11.9703   22.4008 H   0  0  0  0  0  0  0  0  0  0  0  0
  -21.1493  -13.0679   22.2082 H   0  0  0  0  0  0  0  0  0  0  0  0
  -24.6538  -15.7807   20.5848 H   0  0  0  0  0  0  0  0  0  0  0  0
  -26.2762  -15.5453   20.1156 H   0  0  0  0  0  0  0  0  0  0  0  0
  -26.6778  -32.4663   23.1464 H   0  0  0  0  0  0  0  0  0  0  0  0
  -25.0747  -34.0282   25.0566 H   0  0  0  0  0  0  0  0  0  0  0  0
  -22.7881  -31.3489   21.4131 H   0  0  0  0  0  0  0  0  0  0  0  0
  -23.3854  -35.9823   23.3648 H   0  0  0  0  0  0  0  0  0  0  0  0
  -24.3696  -36.8624   22.2204 H   0  0  0  0  0  0  0  0  0  0  0  0
  -23.7669  -37.6632   23.6516 H   0  0  0  0  0  0  0  0  0  0  0  0
  -25.9445  -31.6237   20.5691 H   0  0  0  0  0  0  0  0  0  0  0  0
  -26.7436  -31.0079   22.0108 H   0  0  0  0  0  0  0  0  0  0  0  0
  -28.0090  -29.1452   21.2057 H   0  0  0  0  0  0  0  0  0  0  0  0
  -26.1369  -26.0560   19.0719 H   0  0  0  0  0  0  0  0  0  0  0  0
  -24.0652  -27.2961   19.0997 H   0  0  0  0  0  0  0  0  0  0  0  0
  -23.6156  -30.5365   19.3930 H   0  0  0  0  0  0  0  0  0  0  0  0
  -22.7355  -29.1425   19.9945 H   0  0  0  0  0  0  0  0  0  0  0  0
  -25.1353  -36.2335   25.0565 H   0  0  0  0  0  0  0  0  0  0  0  0
  -21.0070  -28.3206   24.0793 H   0  0  0  0  0  0  0  0  0  0  0  0
  -20.5555  -26.2518   23.3550 H   0  0  0  0  0  0  0  0  0  0  0  0
  -21.5974  -26.8362   22.0454 H   0  0  0  0  0  0  0  0  0  0  0  0
  -19.6810  -25.6422   21.1488 H   0  0  0  0  0  0  0  0  0  0  0  0
  -19.6406  -27.3343   20.7034 H   0  0  0  0  0  0  0  0  0  0  0  0
  -17.4282  -26.6888   21.4113 H   0  0  0  0  0  0  0  0  0  0  0  0
  -18.0803  -26.0130   22.9049 H   0  0  0  0  0  0  0  0  0  0  0  0
  -19.7265  -30.6774   24.2204 H   0  0  0  0  0  0  0  0  0  0  0  0
  -17.5064  -31.5856   24.4483 H   0  0  0  0  0  0  0  0  0  0  0  0
  -15.5878  -30.2839   23.7407 H   0  0  0  0  0  0  0  0  0  0  0  0
  -15.9120  -28.0941   22.7766 H   0  0  0  0  0  0  0  0  0  0  0  0
  -24.5787  -30.7757   25.6817 H   0  0  0  0  0  0  0  0  0  0  0  0
  -25.0041  -32.2289   26.5536 H   0  0  0  0  0  0  0  0  0  0  0  0
  -25.8166  -30.7245   26.9138 H   0  0  0  0  0  0  0  0  0  0  0  0
  -26.2892  -29.7335   24.0803 H   0  0  0  0  0  0  0  0  0  0  0  0
  -27.4336  -29.7484   25.4006 H   0  0  0  0  0  0  0  0  0  0  0  0
  -27.8466  -30.4994   23.8779 H   0  0  0  0  0  0  0  0  0  0  0  0
  -27.2251  -33.3632   26.1242 H   0  0  0  0  0  0  0  0  0  0  0  0
  -28.3902  -32.6065   25.0645 H   0  0  0  0  0  0  0  0  0  0  0  0
  -27.9772  -31.8555   26.5872 H   0  0  0  0  0  0  0  0  0  0  0  0
  -28.2744  -38.0016   24.6863 H   0  0  0  0  0  0  0  0  0  0  0  0
  -28.0396  -36.2711   24.7461 H   0  0  0  0  0  0  0  0  0  0  0  0
  -27.1773  -37.3087   25.8564 H   0  0  0  0  0  0  0  0  0  0  0  0
  -20.9627  -29.9365   21.7352 H   0  0  0  0  0  0  0  0  0  0  0  0
  -26.0447  -38.2561   24.0273 H   0  0  0  0  0  0  0  0  0  0  0  0
  -21.6038  -32.9721   24.1420 H   0  0  0  0  0  0  0  0  0  0  0  0
  -22.8259  -32.7044   22.9222 H   0  0  0  0  0  0  0  0  0  0  0  0
  -22.9705  -31.9394   24.4864 H   0  0  0  0  0  0  0  0  0  0  0  0
  -22.0001  -32.0685   20.5801 H   0  0  0  0  0  0  0  0  0  0  0  0
  -21.4707  -30.4819   20.0745 H   0  0  0  0  0  0  0  0  0  0  0  0
  -22.9058  -31.1890   19.3720 H   0  0  0  0  0  0  0  0  0  0  0  0
  -25.0049  -24.8647   23.5186 H   0  0  0  0  0  0  0  0  0  0  0  0
  -24.9295  -25.5197   21.9005 H   0  0  0  0  0  0  0  0  0  0  0  0
  -26.0269  -24.2090   22.2622 H   0  0  0  0  0  0  0  0  0  0  0  0
  -20.8179  -31.3905   22.4652 H   0  0  0  0  0  0  0  0  0  0  0  0
  -21.0081  -30.6159   24.0531 H   0  0  0  0  0  0  0  0  0  0  0  0
  -20.0057  -26.2221   23.7991 H   0  0  0  0  0  0  0  0  0  0  0  0
  -19.4331  -27.2632   22.4533 H   0  0  0  0  0  0  0  0  0  0  0  0
  -21.0780  -26.3896   21.0072 H   0  0  0  0  0  0  0  0  0  0  0  0
  -20.1550  -25.0679   21.7035 H   0  0  0  0  0  0  0  0  0  0  0  0
  -22.0550  -27.5292   23.8348 H   0  0  0  0  0  0  0  0  0  0  0  0
  -20.6412  -28.5366   24.0992 H   0  0  0  0  0  0  0  0  0  0  0  0
  -22.0254  -23.4694   21.2889 H   0  0  0  0  0  0  0  0  0  0  0  0
  -23.0183  -24.7459   20.5972 H   0  0  0  0  0  0  0  0  0  0  0  0
  -23.8312  -31.3079   21.3199 H   0  0  0  0  0  0  0  0  0  0  0  0
  -23.1285  -29.6882   23.3285 H   0  0  0  0  0  0  0  0  0  0  0  0
  -23.5943  -22.6753   22.4362 H   0  0  0  0  0  0  0  0  0  0  0  0
  -21.9056  -24.7616   23.2963 H   0  0  0  0  0  0  0  0  0  0  0  0
  -22.7903  -25.9905   22.5231 H   0  0  0  0  0  0  0  0  0  0  0  0
  -20.7038  -29.1303   21.7963 H   0  0  0  0  0  0  0  0  0  0  0  0
  -22.1211  -28.2061   21.6219 H   0  0  0  0  0  0  0  0  0  0  0  0
  1 25  1  0
  1 30  2  0
  1 79  1  0
  2  3  1  0
  2 25  1  0
  2 84  1  0
  2 85  1  0
  3  4  1  0
  3 86  1  0
  3 87  1  0
  4  5  1  0
  4 88  1  0
  4 89  1  0
  5  6  1  0
  5 26  1  0
  5 90  1  6
  6 25  1  0
  6 91  1  0
  6 92  1  0
  7  8  2  0
  7 26  1  0
  7 29  1  0
  8  9  1  0
  8 22  1  0
  9 10  1  0
  9 27  2  0
 10 11  2  0
 10 15  1  0
 11 12  1  0
 11 93  1  0
 12 13  2  0
 12 94  1  0
 13 14  1  0
 13 31  1  0
 14 15  2  0
 14 95  1  0
 15 96  1  0
 16 17  2  0
 16 21  1  0
 16 31  1  0
 17 18  1  0
 17 97  1  0
 18 19  2  0
 18 98  1  0
 19 20  1  0
 19 24  1  0
 20 21  2  0
 20 99  1  0
 21 23  1  0
 22 28  1  0
 22 32  2  0
 26 27  1  0
 28100  1  0
 28101  1  0
 29102  1  0
 29103  1  0
 33 34  1  0
 33 66  1  0
 33 70  2  0
 34 36  1  0
 34 59  1  0
 34104  1  6
 35 44  2  0
 35 45  1  0
 35 68  1  0
 36 56  1  0
 36105  1  0
 37 39  1  0
 37 47  1  0
 37 66  1  0
 37106  1  6
 38 43  2  0
 38 46  1  0
 38 47  1  0
 39 64  1  0
 39 67  2  0
 40 52  1  0
 40 53  2  0
 40 58  1  0
 41107  1  0
 41108  1  0
 41109  1  0
 42 43  1  0
 42 66  1  0
 42110  1  0
 42111  1  0
 43 44  1  0
 44112  1  0
 45 46  2  0
 45113  1  0
 46114  1  0
 47115  1  0
 47116  1  0
 48 41  1  0
 48 56  1  0
 48 65  1  0
 48117  1  1
 49 50  1  0
 49 53  1  0
 49 64  1  0
 49118  1  1
 50 51  1  0
 50119  1  0
 50120  1  0
 51 52  1  0
 51121  1  0
 51122  1  0
 52123  1  0
 52124  1  0
 53 54  1  0
 54 55  2  0
 54125  1  0
 55 57  1  0
 55126  1  0
 56 69  2  0
 57 58  2  0
 57127  1  0
 58128  1  0
 59 60  1  0
 59 61  1  0
 59 62  1  0
 60129  1  0
 60130  1  0
 60131  1  0
 61132  1  0
 61133  1  0
 61134  1  0
 62135  1  0
 62136  1  0
 62137  1  0
 63 65  1  0
 63138  1  0
 63139  1  0
 63140  1  0
 64141  1  0
 65142  1  0
 68 81  1  0
 71 74  1  0
 71143  1  0
 71144  1  0
 71145  1  0
 72146  1  0
 72147  1  0
 72148  1  0
 73149  1  0
 73150  1  0
 73151  1  0
 74152  1  0
 74153  1  0
 75 76  1  0
 75 77  1  0
 75154  1  0
 75155  1  0
 76 82  1  0
 76156  1  0
 76157  1  0
 77 83  1  0
 77158  1  0
 77159  1  0
 78 81  1  0
 78 82  1  0
 78160  1  0
 78161  1  0
 79 72  1  0
 79 80  1  0
 79162  1  1
 80 74  1  0
 80 83  1  0
 80163  1  1
 81 73  1  0
 81164  1  1
 82165  1  0
 82166  1  0
 83167  1  0
 83168  1  0
M  CHG  2  82   1  83   1
M  ISO  4   1 100  68 101  79 100  81 101
M  END
$$$$
38
     RDKit          3D

169178  0  0  0  0  0  0  0  0999 V2000
  -30.7652  -14.3608   20.6636 C   0  0  0  0  0  0  0  0  0100  0  0
  -30.4392  -12.2669   19.3775 C   0  0  0  0  0  0  0  0  0101  0  0
  -29.4791  -12.5281   18.1977 C   0  0  0  0  0  0  0  0  0102  0  0
  -27.9985  -12.3963   18.6038 C   0  0  0  0  0  0  0  0  0103  0  0
  -27.6639  -13.2170   19.8820 C   0  0  2  0  0  0  0  0  0104  0  0
  -28.6795  -12.9602   21.0279 C   0  0  0  0  0  0  0  0  0105  0  0
  -25.2633  -13.8245   20.5754 C   0  0  0  0  0  0  0  0  0106  0  0
  -24.1645  -13.0409   20.9408 C   0  0  0  0  0  0  0  0  0107  0  0
  -24.6400  -11.7009   20.8697 C   0  0  0  0  0  0  0  0  0108  0  0
  -23.9005  -10.4085   21.0420 C   0  0  0  0  0  0  0  0  0109  0  0
  -24.3588   -9.4123   21.9123 C   0  0  0  0  0  0  0  0  0110  0  0
  -23.6296   -8.2350   22.0803 C   0  0  0  0  0  0  0  0  0111  0  0
  -22.4385   -8.0419   21.3657 C   0  0  0  0  0  0  0  0  0112  0  0
  -22.0103   -9.0167   20.4678 C   0  0  0  0  0  0  0  0  0113  0  0
  -22.7317  -10.1925   20.3102 C   0  0  0  0  0  0  0  0  0114  0  0
  -21.6857   -6.0709   22.5391 C   0  0  0  0  0  0  0  0  0115  0  0
  -21.4064   -6.5490   23.8264 C   0  0  0  0  0  0  0  0  0116  0  0
  -21.3635   -5.6677   24.9085 C   0  0  0  0  0  0  0  0  0117  0  0
  -21.5973   -4.3067   24.7088 C   0  0  0  0  0  0  0  0  0118  0  0
  -21.8700   -3.8284   23.4282 C   0  0  0  0  0  0  0  0  0119  0  0
  -21.9144   -4.7056   22.3460 C   0  0  0  0  0  0  0  0  0120  0  0
  -22.8194  -13.5263   21.1763 C   0  0  0  0  0  0  0  0  0121  0  0
  -22.1559   -4.2206   21.1063 F   0  0  0  0  0  0  0  0  0122  0  0
  -21.5628   -3.4510   25.7555 F   0  0  0  0  0  0  0  0  0123  0  0
  -30.0261  -13.1803   20.4553 N   0  0  0  0  0  0  0  0  0124  0  0
  -26.2911  -12.9356   20.3443 N   0  0  0  0  0  0  0  0  0125  0  0
  -25.9236  -11.6675   20.5847 N   0  0  0  0  0  0  0  0  0126  0  0
  -22.0708  -12.7905   22.0005 N   0  0  0  0  0  0  0  0  0127  0  0
  -25.4117  -15.1773   20.4097 N   0  0  0  0  0  0  0  0  0128  0  0
  -31.7916  -14.6724   20.0536 O   0  0  0  0  0  0  0  0  0129  0  0
  -21.6670   -6.9022   21.4423 O   0  0  0  0  0  0  0  0  0130  0  0
  -22.3946  -14.5564   20.6568 O   0  0  0  0  0  0  0  0  0131  0  0
  -24.6048  -31.8614   23.2223 C   0  0  0  0  0  0  0  0  0100  0  0
  -25.8822  -32.4841   23.8616 C   0  0  1  0  0  0  0  0  0101  0  0
  -27.2536  -27.5042   20.1156 C   0  0  0  0  0  0  0  0  0102  0  0
  -25.5726  -33.8762   24.2210 N   0  0  0  0  0  0  0  0  0103  0  0
  -23.4066  -30.4859   21.5461 C   0  0  2  0  0  0  0  0  0104  0  0
  -24.8467  -28.9636   20.1247 C   0  0  0  0  0  0  0  0  0105  0  0
  -22.7412  -29.4652   22.5052 C   0  0  0  0  0  0  0  0  0106  0  0
  -18.0167  -28.1302   22.8626 C   0  0  0  0  0  0  0  0  0107  0  0
  -24.1342  -36.7390   23.2568 C   0  0  0  0  0  0  0  0  0108  0  0
  -25.9141  -30.8882   21.3456 C   0  0  0  0  0  0  0  0  0109  0  0
  -25.9930  -29.5029   20.7208 C   0  0  0  0  0  0  0  0  0110  0  0
  -27.1758  -28.7612   20.7331 C   0  0  0  0  0  0  0  0  0111  0  0
  -26.1032  -26.9836   19.5230 C   0  0  0  0  0  0  0  0  0112  0  0
  -24.9097  -27.7011   19.5331 C   0  0  0  0  0  0  0  0  0113  0  0
  -23.5715  -29.7899   20.1582 C   0  0  0  0  0  0  0  0  0114  0  0
  -25.3990  -36.3212   24.0232 C   0  0  1  0  0  0  0  0  0115  0  0
  -20.5793  -28.3813   23.1004 C   0  0  2  0  0  0  0  0  0116  0  0
  -20.6548  -26.9392   22.5411 C   0  0  0  0  0  0  0  0  0117  0  0
  -19.5615  -26.6407   21.5143 C   0  0  0  0  0  0  0  0  0118  0  0
  -18.1797  -26.7818   22.1673 C   0  0  0  0  0  0  0  0  0119  0  0
  -19.1385  -28.8769   23.2988 C   0  0  0  0  0  0  0  0  0120  0  0
  -18.9183  -30.1286   23.8878 C   0  0  0  0  0  0  0  0  0121  0  0
  -17.6396  -30.6493   24.0352 C   0  0  0  0  0  0  0  0  0122  0  0
  -25.9153  -34.9582   23.4993 C   0  0  0  0  0  0  0  0  0123  0  0
  -16.5415  -29.9068   23.6254 C   0  0  0  0  0  0  0  0  0124  0  0
  -16.7331  -28.6521   23.0586 C   0  0  0  0  0  0  0  0  0125  0  0
  -26.4583  -31.6439   25.0683 C   0  0  0  0  0  0  0  0  0126  0  0
  -25.3807  -31.3179   26.1374 C   0  0  0  0  0  0  0  0  0127  0  0
  -27.0530  -30.3024   24.5680 C   0  0  0  0  0  0  0  0  0128  0  0
  -27.6014  -32.4281   25.7651 C   0  0  0  0  0  0  0  0  0129  0  0
  -27.5629  -37.2220   24.8621 C   0  0  0  0  0  0  0  0  0130  0  0
  -21.4133  -29.3375   22.3735 N   0  0  0  0  0  0  0  0  0131  0  0
  -26.4706  -37.3372   23.9061 N   0  0  0  0  0  0  0  0  0132  0  0
  -24.6674  -31.0544   22.1178 N   0  0  0  0  0  0  0  0  0133  0  0
  -23.4259  -28.8150   23.2971 O   0  0  0  0  0  0  0  0  0134  0  0
  -28.3948  -26.7345   20.0089 O   0  0  0  0  0  0  0  0  0135  0  0
  -26.5870  -34.9065   22.4671 O   0  0  0  0  0  0  0  0  0136  0  0
  -23.5365  -32.1254   23.7833 O   0  0  0  0  0  0  0  0  0137  0  0
  -28.2055  -20.8683   18.8570 C   0  0  0  0  0  0  0  0  0  0  0  0
  -30.1929  -22.7579   18.4074 C   0  0  0  0  0  0  0  0  0  0  0  0
  -29.3536  -20.4974   18.1360 C   0  0  0  0  0  0  0  0  0  0  0  0
  -30.3605  -21.4546   17.9081 C   0  0  0  0  0  0  0  0  0  0  0  0
  -28.0558  -22.1643   19.3490 C   0  0  0  0  0  0  0  0  0  0  0  0
  -29.0497  -23.1093   19.1241 C   0  0  0  0  0  0  0  0  0  0  0  0
  -29.4670  -19.0848   17.6148 C   0  0  0  0  0  0  0  0  0  0  0  0
  -31.6110  -21.1235   17.1295 C   0  0  0  0  0  0  0  0  0  0  0  0
  -30.6441  -18.3211   18.2066 C   0  0  0  0  0  0  0  0  0  0  0  0
  -32.4640  -20.0513   17.7943 C   0  0  0  0  0  0  0  0  0  0  0  0
  -26.8121  -22.5097   20.1158 C   0  0  0  0  0  0  0  0  0  0  0  0
  -27.0240  -22.6060   21.6233 C   0  0  0  0  0  0  0  0  0  0  0  0
  -27.7441  -21.3006   23.6273 C   0  0  0  0  0  0  0  0  0  0  0  0
  -28.1401  -19.9050   24.0675 C   0  0  0  0  0  0  0  0  0  1  0  0
  -28.9198  -24.4331   19.6126 N   0  0  0  0  0  0  0  0  0  0  0  0
  -31.9189  -18.6882   17.5211 N   0  0  0  0  0  0  0  0  0  0  0  0
  -27.4545  -21.2913   22.1712 N   0  0  0  0  0  0  0  0  0  0  0  0
  -31.4485  -12.4701   19.0860 H   0  0  0  0  0  0  0  0  0  0  0  0
  -30.3970  -11.2460   19.6950 H   0  0  0  0  0  0  0  0  0  0  0  0
  -29.6870  -11.8204   17.4226 H   0  0  0  0  0  0  0  0  0  0  0  0
  -29.6375  -13.5326   17.8649 H   0  0  0  0  0  0  0  0  0  0  0  0
  -27.7830  -11.3650   18.7904 H   0  0  0  0  0  0  0  0  0  0  0  0
  -27.4028  -12.7801   17.8021 H   0  0  0  0  0  0  0  0  0  0  0  0
  -27.7353  -14.2503   19.6136 H   0  0  0  0  0  0  0  0  0  0  0  0
  -28.5890  -11.9550   21.3832 H   0  0  0  0  0  0  0  0  0  0  0  0
  -28.5005  -13.6134   21.8562 H   0  0  0  0  0  0  0  0  0  0  0  0
  -25.2399   -9.5495   22.4318 H   0  0  0  0  0  0  0  0  0  0  0  0
  -23.9663   -7.5070   22.7297 H   0  0  0  0  0  0  0  0  0  0  0  0
  -21.1515   -8.8641   19.9162 H   0  0  0  0  0  0  0  0  0  0  0  0
  -22.4016  -10.9115   19.6476 H   0  0  0  0  0  0  0  0  0  0  0  0
  -21.2319   -7.5552   23.9750 H   0  0  0  0  0  0  0  0  0  0  0  0
  -21.1589   -6.0228   25.8556 H   0  0  0  0  0  0  0  0  0  0  0  0
  -22.0396   -2.8212   23.2809 H   0  0  0  0  0  0  0  0  0  0  0  0
  -22.4401  -11.9703   22.4008 H   0  0  0  0  0  0  0  0  0  0  0  0
  -21.1493  -13.0679   22.2082 H   0  0  0  0  0  0  0  0  0  0  0  0
  -24.6538  -15.7807   20.5848 H   0  0  0  0  0  0  0  0  0  0  0  0
  -26.2762  -15.5453   20.1156 H   0  0  0  0  0  0  0  0  0  0  0  0
  -26.6778  -32.4663   23.1464 H   0  0  0  0  0  0  0  0  0  0  0  0
  -25.0747  -34.0282   25.0566 H   0  0  0  0  0  0  0  0  0  0  0  0
  -22.7881  -31.3489   21.4131 H   0  0  0  0  0  0  0  0  0  0  0  0
  -23.3854  -35.9823   23.3648 H   0  0  0  0  0  0  0  0  0  0  0  0
  -24.3696  -36.8624   22.2204 H   0  0  0  0  0  0  0  0  0  0  0  0
  -23.7669  -37.6632   23.6516 H   0  0  0  0  0  0  0  0  0  0  0  0
  -25.9445  -31.6237   20.5691 H   0  0  0  0  0  0  0  0  0  0  0  0
  -26.7436  -31.0079   22.0108 H   0  0  0  0  0  0  0  0  0  0  0  0
  -28.0090  -29.1452   21.2057 H   0  0  0  0  0  0  0  0  0  0  0  0
  -26.1369  -26.0560   19.0719 H   0  0  0  0  0  0  0  0  0  0  0  0
  -24.0652  -27.2961   19.0997 H   0  0  0  0  0  0  0  0  0  0  0  0
  -23.6156  -30.5365   19.3930 H   0  0  0  0  0  0  0  0  0  0  0  0
  -22.7355  -29.1425   19.9945 H   0  0  0  0  0  0  0  0  0  0  0  0
  -25.1353  -36.2335   25.0565 H   0  0  0  0  0  0  0  0  0  0  0  0
  -21.0070  -28.3206   24.0793 H   0  0  0  0  0  0  0  0  0  0  0  0
  -20.5555  -26.2518   23.3550 H   0  0  0  0  0  0  0  0  0  0  0  0
  -21.5974  -26.8362   22.0454 H   0  0  0  0  0  0  0  0  0  0  0  0
  -19.6810  -25.6422   21.1488 H   0  0  0  0  0  0  0  0  0  0  0  0
  -19.6406  -27.3343   20.7034 H   0  0  0  0  0  0  0  0  0  0  0  0
  -17.4282  -26.6888   21.4113 H   0  0  0  0  0  0  0  0  0  0  0  0
  -18.0803  -26.0130   22.9049 H   0  0  0  0  0  0  0  0  0  0  0  0
  -19.7265  -30.6774   24.2204 H   0  0  0  0  0  0  0  0  0  0  0  0
  -17.5064  -31.5856   24.4483 H   0  0  0  0  0  0  0  0  0  0  0  0
  -15.5878  -30.2839   23.7407 H   0  0  0  0  0  0  0  0  0  0  0  0
  -15.9120  -28.0941   22.7766 H   0  0  0  0  0  0  0  0  0  0  0  0
  -24.5787  -30.7757   25.6817 H   0  0  0  0  0  0  0  0  0  0  0  0
  -25.0041  -32.2289   26.5536 H   0  0  0  0  0  0  0  0  0  0  0  0
  -25.8166  -30.7245   26.9138 H   0  0  0  0  0  0  0  0  0  0  0  0
  -26.2892  -29.7335   24.0803 H   0  0  0  0  0  0  0  0  0  0  0  0
  -27.4336  -29.7484   25.4006 H   0  0  0  0  0  0  0  0  0  0  0  0
  -27.8466  -30.4994   23.8779 H   0  0  0  0  0  0  0  0  0  0  0  0
  -27.2251  -33.3632   26.1242 H   0  0  0  0  0  0  0  0  0  0  0  0
  -28.3902  -32.6065   25.0645 H   0  0  0  0  0  0  0  0  0  0  0  0
  -27.9772  -31.8555   26.5872 H   0  0  0  0  0  0  0  0  0  0  0  0
  -28.2744  -38.0016   24.6863 H   0  0  0  0  0  0  0  0  0  0  0  0
  -28.0396  -36.2711   24.7461 H   0  0  0  0  0  0  0  0  0  0  0  0
  -27.1773  -37.3087   25.8564 H   0  0  0  0  0  0  0  0  0  0  0  0
  -20.9627  -29.9365   21.7352 H   0  0  0  0  0  0  0  0  0  0  0  0
  -26.0447  -38.2561   24.0273 H   0  0  0  0  0  0  0  0  0  0  0  0
  -27.4629  -20.1716   19.0246 H   0  0  0  0  0  0  0  0  0  0  0  0
  -30.9264  -23.4646   18.2411 H   0  0  0  0  0  0  0  0  0  0  0  0
  -29.5856  -19.1227   16.5521 H   0  0  0  0  0  0  0  0  0  0  0  0
  -28.5753  -18.5672   17.9008 H   0  0  0  0  0  0  0  0  0  0  0  0
  -32.1973  -22.0133   17.0329 H   0  0  0  0  0  0  0  0  0  0  0  0
  -31.3024  -20.7410   16.1790 H   0  0  0  0  0  0  0  0  0  0  0  0
  -30.4740  -17.2711   18.0904 H   0  0  0  0  0  0  0  0  0  0  0  0
  -30.7288  -18.5746   19.2427 H   0  0  0  0  0  0  0  0  0  0  0  0
  -32.4751  -20.2184   18.8511 H   0  0  0  0  0  0  0  0  0  0  0  0
  -33.4552  -20.1083   17.3954 H   0  0  0  0  0  0  0  0  0  0  0  0
  -26.0783  -21.7544   19.9260 H   0  0  0  0  0  0  0  0  0  0  0  0
  -26.4999  -23.4775   19.7829 H   0  0  0  0  0  0  0  0  0  0  0  0
  -26.1071  -22.8995   22.0903 H   0  0  0  0  0  0  0  0  0  0  0  0
  -27.7857  -23.3309   21.8213 H   0  0  0  0  0  0  0  0  0  0  0  0
  -28.5461  -21.9799   23.8280 H   0  0  0  0  0  0  0  0  0  0  0  0
  -26.8728  -21.6125   24.1644 H   0  0  0  0  0  0  0  0  0  0  0  0
  -27.6847  -19.0043   23.7121 H   0  0  0  0  0  0  0  0  0  0  0  0
  -28.5752  -19.2816   24.8205 H   0  0  0  0  0  0  0  0  0  0  0  0
  -28.7828  -25.4003   19.7353 H   0  0  0  0  0  0  0  0  0  0  0  0
  -31.7605  -18.6153   16.5161 H   0  0  0  0  0  0  0  0  0  0  0  0
  -32.6162  -18.0433   17.8928 H   0  0  0  0  0  0  0  0  0  0  0  0
  -28.2999  -21.0018   21.6794 H   0  0  0  0  0  0  0  0  0  0  0  0
  -26.6750  -20.6482   22.0329 H   0  0  0  0  0  0  0  0  0  0  0  0
  1 25  1  0
  1 30  2  0
  1 85  1  0
  2  3  1  0
  2 25  1  0
  2 88  1  0
  2 89  1  0
  3  4  1  0
  3 90  1  0
  3 91  1  0
  4  5  1  0
  4 92  1  0
  4 93  1  0
  5  6  1  0
  5 26  1  0
  5 94  1  6
  6 25  1  0
  6 95  1  0
  6 96  1  0
  7  8  2  0
  7 26  1  0
  7 29  1  0
  8  9  1  0
  8 22  1  0
  9 10  1  0
  9 27  2  0
 10 11  2  0
 10 15  1  0
 11 12  1  0
 11 97  1  0
 12 13  2  0
 12 98  1  0
 13 14  1  0
 13 31  1  0
 14 15  2  0
 14 99  1  0
 15100  1  0
 16 17  2  0
 16 21  1  0
 16 31  1  0
 17 18  1  0
 17101  1  0
 18 19  2  0
 18102  1  0
 19 20  1  0
 19 24  1  0
 20 21  2  0
 20103  1  0
 21 23  1  0
 22 28  1  0
 22 32  2  0
 26 27  1  0
 28104  1  0
 28105  1  0
 29106  1  0
 29107  1  0
 33 34  1  0
 33 66  1  0
 33 70  2  0
 34 36  1  0
 34 59  1  0
 34108  1  6
 35 44  2  0
 35 45  1  0
 35 68  1  0
 36 56  1  0
 36109  1  0
 37 39  1  0
 37 47  1  0
 37 66  1  0
 37110  1  6
 38 43  2  0
 38 46  1  0
 38 47  1  0
 39 64  1  0
 39 67  2  0
 40 52  1  0
 40 53  2  0
 40 58  1  0
 41111  1  0
 41112  1  0
 41113  1  0
 42 43  1  0
 42 66  1  0
 42114  1  0
 42115  1  0
 43 44  1  0
 44116  1  0
 45 46  2  0
 45117  1  0
 46118  1  0
 47119  1  0
 47120  1  0
 48 41  1  0
 48 56  1  0
 48 65  1  0
 48121  1  1
 49 50  1  0
 49 53  1  0
 49 64  1  0
 49122  1  1
 50 51  1  0
 50123  1  0
 50124  1  0
 51 52  1  0
 51125  1  0
 51126  1  0
 52127  1  0
 52128  1  0
 53 54  1  0
 54 55  2  0
 54129  1  0
 55 57  1  0
 55130  1  0
 56 69  2  0
 57 58  2  0
 57131  1  0
 58132  1  0
 59 60  1  0
 59 61  1  0
 59 62  1  0
 60133  1  0
 60134  1  0
 60135  1  0
 61136  1  0
 61137  1  0
 61138  1  0
 62139  1  0
 62140  1  0
 62141  1  0
 63 65  1  0
 63142  1  0
 63143  1  0
 63144  1  0
 64145  1  0
 65146  1  0
 68 84  1  0
 71 73  2  0
 71 75  1  0
 71147  1  0
 72 74  2  0
 72 76  1  0
 72148  1  0
 73 74  1  0
 73 77  1  0
 74 78  1  0
 75 76  2  0
 75 81  1  0
 76 85  1  0
 77 79  1  0
 77149  1  0
 77150  1  0
 78 80  1  0
 78151  1  0
 78152  1  0
 79 86  1  0
 79153  1  0
 79154  1  0
 80 86  1  0
 80155  1  0
 80156  1  0
 81 82  1  0
 81157  1  0
 81158  1  0
 82 87  1  0
 82159  1  0
 82160  1  0
 83 84  1  0
 83 87  1  0
 83161  1  0
 83162  1  0
 84163  1  0
 84164  1  0
 85165  1  0
 86166  1  0
 86167  1  0
 87168  1  0
 87169  1  0
M  CHG  2  86   1  87   1
M  ISO  4   1 100  68 101  84 101  85 100
M  END
$$$$
39
     RDKit          3D

162171  0  0  0  0  0  0  0  0999 V2000
  -30.7652  -14.3608   20.6636 C   0  0  0  0  0  0  0  0  0100  0  0
  -30.4392  -12.2669   19.3775 C   0  0  0  0  0  0  0  0  0101  0  0
  -29.4791  -12.5281   18.1977 C   0  0  0  0  0  0  0  0  0102  0  0
  -27.9985  -12.3963   18.6038 C   0  0  0  0  0  0  0  0  0103  0  0
  -27.6639  -13.2170   19.8820 C   0  0  2  0  0  0  0  0  0104  0  0
  -28.6795  -12.9602   21.0279 C   0  0  0  0  0  0  0  0  0105  0  0
  -25.2633  -13.8245   20.5754 C   0  0  0  0  0  0  0  0  0106  0  0
  -24.1645  -13.0409   20.9408 C   0  0  0  0  0  0  0  0  0107  0  0
  -24.6400  -11.7009   20.8697 C   0  0  0  0  0  0  0  0  0108  0  0
  -23.9005  -10.4085   21.0420 C   0  0  0  0  0  0  0  0  0109  0  0
  -24.3588   -9.4123   21.9123 C   0  0  0  0  0  0  0  0  0110  0  0
  -23.6296   -8.2350   22.0803 C   0  0  0  0  0  0  0  0  0111  0  0
  -22.4385   -8.0419   21.3657 C   0  0  0  0  0  0  0  0  0112  0  0
  -22.0103   -9.0167   20.4678 C   0  0  0  0  0  0  0  0  0113  0  0
  -22.7317  -10.1925   20.3102 C   0  0  0  0  0  0  0  0  0114  0  0
  -21.6857   -6.0709   22.5391 C   0  0  0  0  0  0  0  0  0115  0  0
  -21.4064   -6.5490   23.8264 C   0  0  0  0  0  0  0  0  0116  0  0
  -21.3635   -5.6677   24.9085 C   0  0  0  0  0  0  0  0  0117  0  0
  -21.5973   -4.3067   24.7088 C   0  0  0  0  0  0  0  0  0118  0  0
  -21.8700   -3.8284   23.4282 C   0  0  0  0  0  0  0  0  0119  0  0
  -21.9144   -4.7056   22.3460 C   0  0  0  0  0  0  0  0  0120  0  0
  -22.8194  -13.5263   21.1763 C   0  0  0  0  0  0  0  0  0121  0  0
  -22.1559   -4.2206   21.1063 F   0  0  0  0  0  0  0  0  0122  0  0
  -21.5628   -3.4510   25.7555 F   0  0  0  0  0  0  0  0  0123  0  0
  -30.0261  -13.1803   20.4553 N   0  0  0  0  0  0  0  0  0124  0  0
  -26.2911  -12.9356   20.3443 N   0  0  0  0  0  0  0  0  0125  0  0
  -25.9236  -11.6675   20.5847 N   0  0  0  0  0  0  0  0  0126  0  0
  -22.0708  -12.7905   22.0005 N   0  0  0  0  0  0  0  0  0127  0  0
  -25.4117  -15.1773   20.4097 N   0  0  0  0  0  0  0  0  0128  0  0
  -31.7916  -14.6724   20.0536 O   0  0  0  0  0  0  0  0  0129  0  0
  -21.6670   -6.9022   21.4423 O   0  0  0  0  0  0  0  0  0130  0  0
  -22.3946  -14.5564   20.6568 O   0  0  0  0  0  0  0  0  0131  0  0
  -24.6048  -31.8614   23.2223 C   0  0  0  0  0  0  0  0  0100  0  0
  -25.8822  -32.4841   23.8616 C   0  0  1  0  0  0  0  0  0101  0  0
  -27.2536  -27.5042   20.1156 C   0  0  0  0  0  0  0  0  0102  0  0
  -25.5726  -33.8762   24.2210 N   0  0  0  0  0  0  0  0  0103  0  0
  -23.4066  -30.4859   21.5461 C   0  0  2  0  0  0  0  0  0104  0  0
  -24.8467  -28.9636   20.1247 C   0  0  0  0  0  0  0  0  0105  0  0
  -22.7412  -29.4652   22.5052 C   0  0  0  0  0  0  0  0  0106  0  0
  -18.0167  -28.1302   22.8626 C   0  0  0  0  0  0  0  0  0107  0  0
  -24.1342  -36.7390   23.2568 C   0  0  0  0  0  0  0  0  0108  0  0
  -25.9141  -30.8882   21.3456 C   0  0  0  0  0  0  0  0  0109  0  0
  -25.9930  -29.5029   20.7208 C   0  0  0  0  0  0  0  0  0110  0  0
  -27.1758  -28.7612   20.7331 C   0  0  0  0  0  0  0  0  0111  0  0
  -26.1032  -26.9836   19.5230 C   0  0  0  0  0  0  0  0  0112  0  0
  -24.9097  -27.7011   19.5331 C   0  0  0  0  0  0  0  0  0113  0  0
  -23.5715  -29.7899   20.1582 C   0  0  0  0  0  0  0  0  0114  0  0
  -25.3990  -36.3212   24.0232 C   0  0  1  0  0  0  0  0  0115  0  0
  -20.5793  -28.3813   23.1004 C   0  0  2  0  0  0  0  0  0116  0  0
  -20.6548  -26.9392   22.5411 C   0  0  0  0  0  0  0  0  0117  0  0
  -19.5615  -26.6407   21.5143 C   0  0  0  0  0  0  0  0  0118  0  0
  -18.1797  -26.7818   22.1673 C   0  0  0  0  0  0  0  0  0119  0  0
  -19.1385  -28.8769   23.2988 C   0  0  0  0  0  0  0  0  0120  0  0
  -18.9183  -30.1286   23.8878 C   0  0  0  0  0  0  0  0  0121  0  0
  -17.6396  -30.6493   24.0352 C   0  0  0  0  0  0  0  0  0122  0  0
  -25.9153  -34.9582   23.4993 C   0  0  0  0  0  0  0  0  0123  0  0
  -16.5415  -29.9068   23.6254 C   0  0  0  0  0  0  0  0  0124  0  0
  -16.7331  -28.6521   23.0586 C   0  0  0  0  0  0  0  0  0125  0  0
  -26.4583  -31.6439   25.0683 C   0  0  0  0  0  0  0  0  0126  0  0
  -25.3807  -31.3179   26.1374 C   0  0  0  0  0  0  0  0  0127  0  0
  -27.0530  -30.3024   24.5680 C   0  0  0  0  0  0  0  0  0128  0  0
  -27.6014  -32.4281   25.7651 C   0  0  0  0  0  0  0  0  0129  0  0
  -27.5629  -37.2220   24.8621 C   0  0  0  0  0  0  0  0  0130  0  0
  -21.4133  -29.3375   22.3735 N   0  0  0  0  0  0  0  0  0131  0  0
  -26.4706  -37.3372   23.9061 N   0  0  0  0  0  0  0  0  0132  0  0
  -24.6674  -31.0544   22.1178 N   0  0  0  0  0  0  0  0  0133  0  0
  -23.4259  -28.8150   23.2971 O   0  0  0  0  0  0  0  0  0134  0  0
  -28.3948  -26.7345   20.0089 O   0  0  0  0  0  0  0  0  0135  0  0
  -26.5870  -34.9065   22.4671 O   0  0  0  0  0  0  0  0  0136  0  0
  -23.5365  -32.1254   23.7833 O   0  0  0  0  0  0  0  0  0137  0  0
  -30.5252  -20.3811   15.5369 C   0  0  0  0  0  0  0  0  0  0  0  0
  -30.6107  -21.7687   15.5198 C   0  0  0  0  0  0  0  0  0  0  0  0
  -29.2822  -19.7655   15.4395 C   0  0  0  0  0  0  0  0  0  0  0  0
  -29.4332  -22.4898   15.4046 C   0  0  0  0  0  0  0  0  0  0  0  0
  -28.1641  -20.5762   15.3280 C   0  0  0  0  0  0  0  0  0  0  0  0
  -29.9640  -26.0009   16.8259 C   0  0  0  0  0  0  0  0  0  0  0  0
  -27.9288  -24.5685   17.2753 C   0  0  0  0  0  0  0  0  0  0  0  0
  -29.8230  -26.6288   18.2092 C   0  0  0  0  0  0  0  0  0  0  0  0
  -27.7930  -25.2008   18.6572 C   0  0  0  0  0  0  0  0  0  0  0  0
  -29.3845  -24.5799   16.7885 C   0  0  1  0  0  0  0  0  0  0  0  0
  -28.3748  -26.6124   18.6912 C   0  0  1  0  0  0  0  0  0  1  0  0
  -29.4875  -23.9924   15.3822 C   0  0  0  0  0  0  0  0  0  0  0  0
  -26.8137  -19.9498   15.2212 C   0  0  0  0  0  0  0  0  0  0  0  0
  -28.2077  -21.9272   15.3079 N   0  0  0  0  0  0  0  0  0  0  0  0
  -26.3439  -19.4387   16.4896 N   0  0  0  0  0  0  0  0  0  0  0  0
  -31.4485  -12.4701   19.0860 H   0  0  0  0  0  0  0  0  0  0  0  0
  -30.3970  -11.2460   19.6950 H   0  0  0  0  0  0  0  0  0  0  0  0
  -29.6870  -11.8204   17.4226 H   0  0  0  0  0  0  0  0  0  0  0  0
  -29.6375  -13.5326   17.8649 H   0  0  0  0  0  0  0  0  0  0  0  0
  -27.7830  -11.3650   18.7904 H   0  0  0  0  0  0  0  0  0  0  0  0
  -27.4028  -12.7801   17.8021 H   0  0  0  0  0  0  0  0  0  0  0  0
  -27.7353  -14.2503   19.6136 H   0  0  0  0  0  0  0  0  0  0  0  0
  -28.5890  -11.9550   21.3832 H   0  0  0  0  0  0  0  0  0  0  0  0
  -28.5005  -13.6134   21.8562 H   0  0  0  0  0  0  0  0  0  0  0  0
  -25.2399   -9.5495   22.4318 H   0  0  0  0  0  0  0  0  0  0  0  0
  -23.9663   -7.5070   22.7297 H   0  0  0  0  0  0  0  0  0  0  0  0
  -21.1515   -8.8641   19.9162 H   0  0  0  0  0  0  0  0  0  0  0  0
  -22.4016  -10.9115   19.6476 H   0  0  0  0  0  0  0  0  0  0  0  0
  -21.2319   -7.5552   23.9750 H   0  0  0  0  0  0  0  0  0  0  0  0
  -21.1589   -6.0228   25.8556 H   0  0  0  0  0  0  0  0  0  0  0  0
  -22.0396   -2.8212   23.2809 H   0  0  0  0  0  0  0  0  0  0  0  0
  -22.4401  -11.9703   22.4008 H   0  0  0  0  0  0  0  0  0  0  0  0
  -21.1493  -13.0679   22.2082 H   0  0  0  0  0  0  0  0  0  0  0  0
  -24.6538  -15.7807   20.5848 H   0  0  0  0  0  0  0  0  0  0  0  0
  -26.2762  -15.5453   20.1156 H   0  0  0  0  0  0  0  0  0  0  0  0
  -26.6778  -32.4663   23.1464 H   0  0  0  0  0  0  0  0  0  0  0  0
  -25.0747  -34.0282   25.0566 H   0  0  0  0  0  0  0  0  0  0  0  0
  -22.7881  -31.3489   21.4131 H   0  0  0  0  0  0  0  0  0  0  0  0
  -23.3854  -35.9823   23.3648 H   0  0  0  0  0  0  0  0  0  0  0  0
  -24.3696  -36.8624   22.2204 H   0  0  0  0  0  0  0  0  0  0  0  0
  -23.7669  -37.6632   23.6516 H   0  0  0  0  0  0  0  0  0  0  0  0
  -25.9445  -31.6237   20.5691 H   0  0  0  0  0  0  0  0  0  0  0  0
  -26.7436  -31.0079   22.0108 H   0  0  0  0  0  0  0  0  0  0  0  0
  -28.0090  -29.1452   21.2057 H   0  0  0  0  0  0  0  0  0  0  0  0
  -26.1369  -26.0560   19.0719 H   0  0  0  0  0  0  0  0  0  0  0  0
  -24.0652  -27.2961   19.0997 H   0  0  0  0  0  0  0  0  0  0  0  0
  -23.6156  -30.5365   19.3930 H   0  0  0  0  0  0  0  0  0  0  0  0
  -22.7355  -29.1425   19.9945 H   0  0  0  0  0  0  0  0  0  0  0  0
  -25.1353  -36.2335   25.0565 H   0  0  0  0  0  0  0  0  0  0  0  0
  -21.0070  -28.3206   24.0793 H   0  0  0  0  0  0  0  0  0  0  0  0
  -20.5555  -26.2518   23.3550 H   0  0  0  0  0  0  0  0  0  0  0  0
  -21.5974  -26.8362   22.0454 H   0  0  0  0  0  0  0  0  0  0  0  0
  -19.6810  -25.6422   21.1488 H   0  0  0  0  0  0  0  0  0  0  0  0
  -19.6406  -27.3343   20.7034 H   0  0  0  0  0  0  0  0  0  0  0  0
  -17.4282  -26.6888   21.4113 H   0  0  0  0  0  0  0  0  0  0  0  0
  -18.0803  -26.0130   22.9049 H   0  0  0  0  0  0  0  0  0  0  0  0
  -19.7265  -30.6774   24.2204 H   0  0  0  0  0  0  0  0  0  0  0  0
  -17.5064  -31.5856   24.4483 H   0  0  0  0  0  0  0  0  0  0  0  0
  -15.5878  -30.2839   23.7407 H   0  0  0  0  0  0  0  0  0  0  0  0
  -15.9120  -28.0941   22.7766 H   0  0  0  0  0  0  0  0  0  0  0  0
  -24.5787  -30.7757   25.6817 H   0  0  0  0  0  0  0  0  0  0  0  0
  -25.0041  -32.2289   26.5536 H   0  0  0  0  0  0  0  0  0  0  0  0
  -25.8166  -30.7245   26.9138 H   0  0  0  0  0  0  0  0  0  0  0  0
  -26.2892  -29.7335   24.0803 H   0  0  0  0  0  0  0  0  0  0  0  0
  -27.4336  -29.7484   25.4006 H   0  0  0  0  0  0  0  0  0  0  0  0
  -27.8466  -30.4994   23.8779 H   0  0  0  0  0  0  0  0  0  0  0  0
  -27.2251  -33.3632   26.1242 H   0  0  0  0  0  0  0  0  0  0  0  0
  -28.3902  -32.6065   25.0645 H   0  0  0  0  0  0  0  0  0  0  0  0
  -27.9772  -31.8555   26.5872 H   0  0  0  0  0  0  0  0  0  0  0  0
  -28.2744  -38.0016   24.6863 H   0  0  0  0  0  0  0  0  0  0  0  0
  -28.0396  -36.2711   24.7461 H   0  0  0  0  0  0  0  0  0  0  0  0
  -27.1773  -37.3087   25.8564 H   0  0  0  0  0  0  0  0  0  0  0  0
  -20.9627  -29.9365   21.7352 H   0  0  0  0  0  0  0  0  0  0  0  0
  -26.0447  -38.2561   24.0273 H   0  0  0  0  0  0  0  0  0  0  0  0
  -31.3808  -19.8103   15.6215 H   0  0  0  0  0  0  0  0  0  0  0  0
  -31.5226  -22.2466   15.5907 H   0  0  0  0  0  0  0  0  0  0  0  0
  -29.1952  -18.7372   15.4499 H   0  0  0  0  0  0  0  0  0  0  0  0
  -31.0015  -25.9597   16.5674 H   0  0  0  0  0  0  0  0  0  0  0  0
  -29.4199  -26.6026   16.1282 H   0  0  0  0  0  0  0  0  0  0  0  0
  -27.3266  -25.1173   16.5818 H   0  0  0  0  0  0  0  0  0  0  0  0
  -27.6059  -23.5505   17.3402 H   0  0  0  0  0  0  0  0  0  0  0  0
  -30.1628  -27.6425   18.1662 H   0  0  0  0  0  0  0  0  0  0  0  0
  -30.4101  -26.0566   18.8968 H   0  0  0  0  0  0  0  0  0  0  0  0
  -28.3129  -24.5941   19.3689 H   0  0  0  0  0  0  0  0  0  0  0  0
  -26.7516  -25.2630   18.8950 H   0  0  0  0  0  0  0  0  0  0  0  0
  -29.9608  -23.9690   17.4515 H   0  0  0  0  0  0  0  0  0  0  0  0
  -27.8562  -27.3430   18.1062 H   0  0  0  0  0  0  0  0  0  0  0  0
  -28.6746  -24.3605   14.7917 H   0  0  0  0  0  0  0  0  0  0  0  0
  -30.4275  -24.2871   14.9644 H   0  0  0  0  0  0  0  0  0  0  0  0
  -26.8637  -19.1416   14.5218 H   0  0  0  0  0  0  0  0  0  0  0  0
  -26.1275  -20.7045   14.8980 H   0  0  0  0  0  0  0  0  0  0  0  0
  -25.4680  -19.7239   16.8371 H   0  0  0  0  0  0  0  0  0  0  0  0
  1 25  1  0
  1 30  2  0
  1 85  1  0
  2  3  1  0
  2 25  1  0
  2 86  1  0
  2 87  1  0
  3  4  1  0
  3 88  1  0
  3 89  1  0
  4  5  1  0
  4 90  1  0
  4 91  1  0
  5  6  1  0
  5 26  1  0
  5 92  1  6
  6 25  1  0
  6 93  1  0
  6 94  1  0
  7  8  2  0
  7 26  1  0
  7 29  1  0
  8  9  1  0
  8 22  1  0
  9 10  1  0
  9 27  2  0
 10 11  2  0
 10 15  1  0
 11 12  1  0
 11 95  1  0
 12 13  2  0
 12 96  1  0
 13 14  1  0
 13 31  1  0
 14 15  2  0
 14 97  1  0
 15 98  1  0
 16 17  2  0
 16 21  1  0
 16 31  1  0
 17 18  1  0
 17 99  1  0
 18 19  2  0
 18100  1  0
 19 20  1  0
 19 24  1  0
 20 21  2  0
 20101  1  0
 21 23  1  0
 22 28  1  0
 22 32  2  0
 26 27  1  0
 28102  1  0
 28103  1  0
 29104  1  0
 29105  1  0
 33 34  1  0
 33 66  1  0
 33 70  2  0
 34 36  1  0
 34 59  1  0
 34106  1  6
 35 44  2  0
 35 45  1  0
 35 68  1  0
 36 56  1  0
 36107  1  0
 37 39  1  0
 37 47  1  0
 37 66  1  0
 37108  1  6
 38 43  2  0
 38 46  1  0
 38 47  1  0
 39 64  1  0
 39 67  2  0
 40 52  1  0
 40 53  2  0
 40 58  1  0
 41109  1  0
 41110  1  0
 41111  1  0
 42 43  1  0
 42 66  1  0
 42112  1  0
 42113  1  0
 43 44  1  0
 44114  1  0
 45 46  2  0
 45115  1  0
 46116  1  0
 47117  1  0
 47118  1  0
 48 41  1  0
 48 56  1  0
 48 65  1  0
 48119  1  1
 49 50  1  0
 49 53  1  0
 49 64  1  0
 49120  1  1
 50 51  1  0
 50121  1  0
 50122  1  0
 51 52  1  0
 51123  1  0
 51124  1  0
 52125  1  0
 52126  1  0
 53 54  1  0
 54 55  2  0
 54127  1  0
 55 57  1  0
 55128  1  0
 56 69  2  0
 57 58  2  0
 57129  1  0
 58130  1  0
 59 60  1  0
 59 61  1  0
 59 62  1  0
 60131  1  0
 60132  1  0
 60133  1  0
 61134  1  0
 61135  1  0
 61136  1  0
 62137  1  0
 62138  1  0
 62139  1  0
 63 65  1  0
 63140  1  0
 63141  1  0
 63142  1  0
 64143  1  0
 65144  1  0
 71 72  2  0
 71 73  1  0
 71145  1  0
 72 74  1  0
 72146  1  0
 73 75  2  0
 73147  1  0
 74 82  1  0
 74 84  2  0
 75 83  1  0
 75 84  1  0
 76 78  1  0
 76 80  1  0
 76148  1  0
 76149  1  0
 77 79  1  0
 77 80  1  0
 77150  1  0
 77151  1  0
 78 81  1  0
 78152  1  0
 78153  1  0
 79 81  1  0
 79154  1  0
 79155  1  0
 80 82  1  0
 80156  1  1
 81 68  1  0
 81157  1  6
 82158  1  0
 82159  1  0
 83 85  1  0
 83160  1  0
 83161  1  0
 85162  1  0
M  ISO  4   1 100  68 101  81 101  85 100
M  END
$$$$
40
     RDKit          3D

166174  0  0  0  0  0  0  0  0999 V2000
  -30.7652  -14.3608   20.6636 C   0  0  0  0  0  0  0  0  0100  0  0
  -30.4392  -12.2669   19.3775 C   0  0  0  0  0  0  0  0  0101  0  0
  -29.4791  -12.5281   18.1977 C   0  0  0  0  0  0  0  0  0102  0  0
  -27.9985  -12.3963   18.6038 C   0  0  0  0  0  0  0  0  0103  0  0
  -27.6639  -13.2170   19.8820 C   0  0  2  0  0  0  0  0  0104  0  0
  -28.6795  -12.9602   21.0279 C   0  0  0  0  0  0  0  0  0105  0  0
  -25.2633  -13.8245   20.5754 C   0  0  0  0  0  0  0  0  0106  0  0
  -24.1645  -13.0409   20.9408 C   0  0  0  0  0  0  0  0  0107  0  0
  -24.6400  -11.7009   20.8697 C   0  0  0  0  0  0  0  0  0108  0  0
  -23.9005  -10.4085   21.0420 C   0  0  0  0  0  0  0  0  0109  0  0
  -24.3588   -9.4123   21.9123 C   0  0  0  0  0  0  0  0  0110  0  0
  -23.6296   -8.2350   22.0803 C   0  0  0  0  0  0  0  0  0111  0  0
  -22.4385   -8.0419   21.3657 C   0  0  0  0  0  0  0  0  0112  0  0
  -22.0103   -9.0167   20.4678 C   0  0  0  0  0  0  0  0  0113  0  0
  -22.7317  -10.1925   20.3102 C   0  0  0  0  0  0  0  0  0114  0  0
  -21.6857   -6.0709   22.5391 C   0  0  0  0  0  0  0  0  0115  0  0
  -21.4064   -6.5490   23.8264 C   0  0  0  0  0  0  0  0  0116  0  0
  -21.3635   -5.6677   24.9085 C   0  0  0  0  0  0  0  0  0117  0  0
  -21.5973   -4.3067   24.7088 C   0  0  0  0  0  0  0  0  0118  0  0
  -21.8700   -3.8284   23.4282 C   0  0  0  0  0  0  0  0  0119  0  0
  -21.9144   -4.7056   22.3460 C   0  0  0  0  0  0  0  0  0120  0  0
  -22.8194  -13.5263   21.1763 C   0  0  0  0  0  0  0  0  0121  0  0
  -22.1559   -4.2206   21.1063 F   0  0  0  0  0  0  0  0  0122  0  0
  -21.5628   -3.4510   25.7555 F   0  0  0  0  0  0  0  0  0123  0  0
  -30.0261  -13.1803   20.4553 N   0  0  0  0  0  0  0  0  0124  0  0
  -26.2911  -12.9356   20.3443 N   0  0  0  0  0  0  0  0  0125  0  0
  -25.9236  -11.6675   20.5847 N   0  0  0  0  0  0  0  0  0126  0  0
  -22.0708  -12.7905   22.0005 N   0  0  0  0  0  0  0  0  0127  0  0
  -25.4117  -15.1773   20.4097 N   0  0  0  0  0  0  0  0  0128  0  0
  -31.7916  -14.6724   20.0536 O   0  0  0  0  0  0  0  0  0129  0  0
  -21.6670   -6.9022   21.4423 O   0  0  0  0  0  0  0  0  0130  0  0
  -22.3946  -14.5564   20.6568 O   0  0  0  0  0  0  0  0  0131  0  0
  -24.6048  -31.8614   23.2223 C   0  0  0  0  0  0  0  0  0100  0  0
  -25.8822  -32.4841   23.8616 C   0  0  1  0  0  0  0  0  0101  0  0
  -27.2536  -27.5042   20.1156 C   0  0  0  0  0  0  0  0  0102  0  0
  -25.5726  -33.8762   24.2210 N   0  0  0  0  0  0  0  0  0103  0  0
  -23.4066  -30.4859   21.5461 C   0  0  2  0  0  0  0  0  0104  0  0
  -24.8467  -28.9636   20.1247 C   0  0  0  0  0  0  0  0  0105  0  0
  -22.7412  -29.4652   22.5052 C   0  0  0  0  0  0  0  0  0106  0  0
  -18.0167  -28.1302   22.8626 C   0  0  0  0  0  0  0  0  0107  0  0
  -24.1342  -36.7390   23.2568 C   0  0  0  0  0  0  0  0  0108  0  0
  -25.9141  -30.8882   21.3456 C   0  0  0  0  0  0  0  0  0109  0  0
  -25.9930  -29.5029   20.7208 C   0  0  0  0  0  0  0  0  0110  0  0
  -27.1758  -28.7612   20.7331 C   0  0  0  0  0  0  0  0  0111  0  0
  -26.1032  -26.9836   19.5230 C   0  0  0  0  0  0  0  0  0112  0  0
  -24.9097  -27.7011   19.5331 C   0  0  0  0  0  0  0  0  0113  0  0
  -23.5715  -29.7899   20.1582 C   0  0  0  0  0  0  0  0  0114  0  0
  -25.3990  -36.3212   24.0232 C   0  0  1  0  0  0  0  0  0115  0  0
  -20.5793  -28.3813   23.1004 C   0  0  2  0  0  0  0  0  0116  0  0
  -20.6548  -26.9392   22.5411 C   0  0  0  0  0  0  0  0  0117  0  0
  -19.5615  -26.6407   21.5143 C   0  0  0  0  0  0  0  0  0118  0  0
  -18.1797  -26.7818   22.1673 C   0  0  0  0  0  0  0  0  0119  0  0
  -19.1385  -28.8769   23.2988 C   0  0  0  0  0  0  0  0  0120  0  0
  -18.9183  -30.1286   23.8878 C   0  0  0  0  0  0  0  0  0121  0  0
  -17.6396  -30.6493   24.0352 C   0  0  0  0  0  0  0  0  0122  0  0
  -25.9153  -34.9582   23.4993 C   0  0  0  0  0  0  0  0  0123  0  0
  -16.5415  -29.9068   23.6254 C   0  0  0  0  0  0  0  0  0124  0  0
  -16.7331  -28.6521   23.0586 C   0  0  0  0  0  0  0  0  0125  0  0
  -26.4583  -31.6439   25.0683 C   0  0  0  0  0  0  0  0  0126  0  0
  -25.3807  -31.3179   26.1374 C   0  0  0  0  0  0  0  0  0127  0  0
  -27.0530  -30.3024   24.5680 C   0  0  0  0  0  0  0  0  0128  0  0
  -27.6014  -32.4281   25.7651 C   0  0  0  0  0  0  0  0  0129  0  0
  -27.5629  -37.2220   24.8621 C   0  0  0  0  0  0  0  0  0130  0  0
  -21.4133  -29.3375   22.3735 N   0  0  0  0  0  0  0  0  0131  0  0
  -26.4706  -37.3372   23.9061 N   0  0  0  0  0  0  0  0  0132  0  0
  -24.6674  -31.0544   22.1178 N   0  0  0  0  0  0  0  0  0133  0  0
  -23.4259  -28.8150   23.2971 O   0  0  0  0  0  0  0  0  0134  0  0
  -28.3948  -26.7345   20.0089 O   0  0  0  0  0  0  0  0  0135  0  0
  -26.5870  -34.9065   22.4671 O   0  0  0  0  0  0  0  0  0136  0  0
  -23.5365  -32.1254   23.7833 O   0  0  0  0  0  0  0  0  0137  0  0
  -30.3256  -17.6202   24.3715 C   0  0  0  0  0  0  0  0  0  0  0  0
  -30.8108  -16.1374   25.9950 C   0  0  0  0  0  0  0  0  0  0  0  0
  -30.2365  -17.3676   25.7627 C   0  0  0  0  0  0  0  0  0  0  0  0
  -30.9515  -16.5364   23.7960 C   0  0  0  0  0  0  0  0  0  0  0  0
  -25.9600  -18.6752   28.1209 C   0  0  0  0  0  0  0  0  0  0  0  0
  -30.9949  -13.1957   25.0096 C   0  0  0  0  0  0  0  0  0  0  0  0
  -33.2413  -14.3096   25.3548 C   0  0  0  0  0  0  0  0  0  0  0  0
  -29.6262  -18.2773   26.7994 C   0  0  0  0  0  0  0  0  0  0  0  0
  -31.2959  -16.2814   22.3819 C   0  0  0  0  0  0  0  0  0  0  0  0
  -28.1289  -18.0365   27.0370 C   0  0  0  0  0  0  0  0  0  0  0  0
  -27.6661  -20.4774   27.7075 C   0  0  0  0  0  0  0  0  0  1  0  0
  -27.4584  -18.9950   28.0460 C   0  0  1  0  0  0  0  0  0  0  0  0
  -31.9008  -14.3653   24.6197 C   0  0  0  0  0  0  0  0  0  0  0  0
  -31.2416  -15.6412   24.7923 N   0  0  0  0  0  0  0  0  0  0  0  0
  -30.4139  -15.3236   21.7531 N   0  0  0  0  0  0  0  0  0  0  0  0
  -31.4485  -12.4701   19.0860 H   0  0  0  0  0  0  0  0  0  0  0  0
  -30.3970  -11.2460   19.6950 H   0  0  0  0  0  0  0  0  0  0  0  0
  -29.6870  -11.8204   17.4226 H   0  0  0  0  0  0  0  0  0  0  0  0
  -29.6375  -13.5326   17.8649 H   0  0  0  0  0  0  0  0  0  0  0  0
  -27.7830  -11.3650   18.7904 H   0  0  0  0  0  0  0  0  0  0  0  0
  -27.4028  -12.7801   17.8021 H   0  0  0  0  0  0  0  0  0  0  0  0
  -27.7353  -14.2503   19.6136 H   0  0  0  0  0  0  0  0  0  0  0  0
  -28.5890  -11.9550   21.3832 H   0  0  0  0  0  0  0  0  0  0  0  0
  -28.5005  -13.6134   21.8562 H   0  0  0  0  0  0  0  0  0  0  0  0
  -25.2399   -9.5495   22.4318 H   0  0  0  0  0  0  0  0  0  0  0  0
  -23.9663   -7.5070   22.7297 H   0  0  0  0  0  0  0  0  0  0  0  0
  -21.1515   -8.8641   19.9162 H   0  0  0  0  0  0  0  0  0  0  0  0
  -22.4016  -10.9115   19.6476 H   0  0  0  0  0  0  0  0  0  0  0  0
  -21.2319   -7.5552   23.9750 H   0  0  0  0  0  0  0  0  0  0  0  0
  -21.1589   -6.0228   25.8556 H   0  0  0  0  0  0  0  0  0  0  0  0
  -22.0396   -2.8212   23.2809 H   0  0  0  0  0  0  0  0  0  0  0  0
  -22.4401  -11.9703   22.4008 H   0  0  0  0  0  0  0  0  0  0  0  0
  -21.1493  -13.0679   22.2082 H   0  0  0  0  0  0  0  0  0  0  0  0
  -24.6538  -15.7807   20.5848 H   0  0  0  0  0  0  0  0  0  0  0  0
  -26.2762  -15.5453   20.1156 H   0  0  0  0  0  0  0  0  0  0  0  0
  -26.6778  -32.4663   23.1464 H   0  0  0  0  0  0  0  0  0  0  0  0
  -25.0747  -34.0282   25.0566 H   0  0  0  0  0  0  0  0  0  0  0  0
  -22.7881  -31.3489   21.4131 H   0  0  0  0  0  0  0  0  0  0  0  0
  -23.3854  -35.9823   23.3648 H   0  0  0  0  0  0  0  0  0  0  0  0
  -24.3696  -36.8624   22.2204 H   0  0  0  0  0  0  0  0  0  0  0  0
  -23.7669  -37.6632   23.6516 H   0  0  0  0  0  0  0  0  0  0  0  0
  -25.9445  -31.6237   20.5691 H   0  0  0  0  0  0  0  0  0  0  0  0
  -26.7436  -31.0079   22.0108 H   0  0  0  0  0  0  0  0  0  0  0  0
  -28.0090  -29.1452   21.2057 H   0  0  0  0  0  0  0  0  0  0  0  0
  -26.1369  -26.0560   19.0719 H   0  0  0  0  0  0  0  0  0  0  0  0
  -24.0652  -27.2961   19.0997 H   0  0  0  0  0  0  0  0  0  0  0  0
  -23.6156  -30.5365   19.3930 H   0  0  0  0  0  0  0  0  0  0  0  0
  -22.7355  -29.1425   19.9945 H   0  0  0  0  0  0  0  0  0  0  0  0
  -25.1353  -36.2335   25.0565 H   0  0  0  0  0  0  0  0  0  0  0  0
  -21.0070  -28.3206   24.0793 H   0  0  0  0  0  0  0  0  0  0  0  0
  -20.5555  -26.2518   23.3550 H   0  0  0  0  0  0  0  0  0  0  0  0
  -21.5974  -26.8362   22.0454 H   0  0  0  0  0  0  0  0  0  0  0  0
  -19.6810  -25.6422   21.1488 H   0  0  0  0  0  0  0  0  0  0  0  0
  -19.6406  -27.3343   20.7034 H   0  0  0  0  0  0  0  0  0  0  0  0
  -17.4282  -26.6888   21.4113 H   0  0  0  0  0  0  0  0  0  0  0  0
  -18.0803  -26.0130   22.9049 H   0  0  0  0  0  0  0  0  0  0  0  0
  -19.7265  -30.6774   24.2204 H   0  0  0  0  0  0  0  0  0  0  0  0
  -17.5064  -31.5856   24.4483 H   0  0  0  0  0  0  0  0  0  0  0  0
  -15.5878  -30.2839   23.7407 H   0  0  0  0  0  0  0  0  0  0  0  0
  -15.9120  -28.0941   22.7766 H   0  0  0  0  0  0  0  0  0  0  0  0
  -24.5787  -30.7757   25.6817 H   0  0  0  0  0  0  0  0  0  0  0  0
  -25.0041  -32.2289   26.5536 H   0  0  0  0  0  0  0  0  0  0  0  0
  -25.8166  -30.7245   26.9138 H   0  0  0  0  0  0  0  0  0  0  0  0
  -26.2892  -29.7335   24.0803 H   0  0  0  0  0  0  0  0  0  0  0  0
  -27.4336  -29.7484   25.4006 H   0  0  0  0  0  0  0  0  0  0  0  0
  -27.8466  -30.4994   23.8779 H   0  0  0  0  0  0  0  0  0  0  0  0
  -27.2251  -33.3632   26.1242 H   0  0  0  0  0  0  0  0  0  0  0  0
  -28.3902  -32.6065   25.0645 H   0  0  0  0  0  0  0  0  0  0  0  0
  -27.9772  -31.8555   26.5872 H   0  0  0  0  0  0  0  0  0  0  0  0
  -28.2744  -38.0016   24.6863 H   0  0  0  0  0  0  0  0  0  0  0  0
  -28.0396  -36.2711   24.7461 H   0  0  0  0  0  0  0  0  0  0  0  0
  -27.1773  -37.3087   25.8564 H   0  0  0  0  0  0  0  0  0  0  0  0
  -20.9627  -29.9365   21.7352 H   0  0  0  0  0  0  0  0  0  0  0  0
  -26.0447  -38.2561   24.0273 H   0  0  0  0  0  0  0  0  0  0  0  0
  -29.9845  -18.4611   23.8799 H   0  0  0  0  0  0  0  0  0  0  0  0
  -30.9007  -15.6720   26.9117 H   0  0  0  0  0  0  0  0  0  0  0  0
  -25.8276  -17.6401   28.3573 H   0  0  0  0  0  0  0  0  0  0  0  0
  -25.5025  -18.8869   27.1771 H   0  0  0  0  0  0  0  0  0  0  0  0
  -25.5047  -19.2756   28.8806 H   0  0  0  0  0  0  0  0  0  0  0  0
  -31.5204  -12.2746   24.8670 H   0  0  0  0  0  0  0  0  0  0  0  0
  -30.1177  -13.2044   24.3970 H   0  0  0  0  0  0  0  0  0  0  0  0
  -30.7131  -13.2901   26.0375 H   0  0  0  0  0  0  0  0  0  0  0  0
  -33.6930  -13.3519   25.2008 H   0  0  0  0  0  0  0  0  0  0  0  0
  -33.0809  -14.4642   26.4014 H   0  0  0  0  0  0  0  0  0  0  0  0
  -33.8876  -15.0738   24.9764 H   0  0  0  0  0  0  0  0  0  0  0  0
  -29.7575  -19.2894   26.4781 H   0  0  0  0  0  0  0  0  0  0  0  0
  -30.1237  -18.0709   27.7240 H   0  0  0  0  0  0  0  0  0  0  0  0
  -32.2966  -15.9054   22.3364 H   0  0  0  0  0  0  0  0  0  0  0  0
  -31.1945  -17.2067   21.8543 H   0  0  0  0  0  0  0  0  0  0  0  0
  -28.0082  -17.0372   27.3999 H   0  0  0  0  0  0  0  0  0  0  0  0
  -27.6481  -18.2122   26.0974 H   0  0  0  0  0  0  0  0  0  0  0  0
  -28.5893  -20.6714   28.2124 H   0  0  0  0  0  0  0  0  0  0  0  0
  -26.6209  -20.6804   27.8139 H   0  0  0  0  0  0  0  0  0  0  0  0
  -27.9271  -18.8374   28.9949 H   0  0  0  0  0  0  0  0  0  0  0  0
  -32.1105  -14.2661   23.5752 H   0  0  0  0  0  0  0  0  0  0  0  0
  -29.4841  -15.3030   22.0761 H   0  0  0  0  0  0  0  0  0  0  0  0
  1 25  1  0
  1 30  2  0
  1 85  1  0
  2  3  1  0
  2 25  1  0
  2 86  1  0
  2 87  1  0
  3  4  1  0
  3 88  1  0
  3 89  1  0
  4  5  1  0
  4 90  1  0
  4 91  1  0
  5  6  1  0
  5 26  1  0
  5 92  1  6
  6 25  1  0
  6 93  1  0
  6 94  1  0
  7  8  2  0
  7 26  1  0
  7 29  1  0
  8  9  1  0
  8 22  1  0
  9 10  1  0
  9 27  2  0
 10 11  2  0
 10 15  1  0
 11 12  1  0
 11 95  1  0
 12 13  2  0
 12 96  1  0
 13 14  1  0
 13 31  1  0
 14 15  2  0
 14 97  1  0
 15 98  1  0
 16 17  2  0
 16 21  1  0
 16 31  1  0
 17 18  1  0
 17 99  1  0
 18 19  2  0
 18100  1  0
 19 20  1  0
 19 24  1  0
 20 21  2  0
 20101  1  0
 21 23  1  0
 22 28  1  0
 22 32  2  0
 26 27  1  0
 28102  1  0
 28103  1  0
 29104  1  0
 29105  1  0
 33 34  1  0
 33 66  1  0
 33 70  2  0
 34 36  1  0
 34 59  1  0
 34106  1  6
 35 44  2  0
 35 45  1  0
 35 68  1  0
 36 56  1  0
 36107  1  0
 37 39  1  0
 37 47  1  0
 37 66  1  0
 37108  1  6
 38 43  2  0
 38 46  1  0
 38 47  1  0
 39 64  1  0
 39 67  2  0
 40 52  1  0
 40 53  2  0
 40 58  1  0
 41109  1  0
 41110  1  0
 41111  1  0
 42 43  1  0
 42 66  1  0
 42112  1  0
 42113  1  0
 43 44  1  0
 44114  1  0
 45 46  2  0
 45115  1  0
 46116  1  0
 47117  1  0
 47118  1  0
 48 41  1  0
 48 56  1  0
 48 65  1  0
 48119  1  1
 49 50  1  0
 49 53  1  0
 49 64  1  0
 49120  1  1
 50 51  1  0
 50121  1  0
 50122  1  0
 51 52  1  0
 51123  1  0
 51124  1  0
 52125  1  0
 52126  1  0
 53 54  1  0
 54 55  2  0
 54127  1  0
 55 57  1  0
 55128  1  0
 56 69  2  0
 57 58  2  0
 57129  1  0
 58130  1  0
 59 60  1  0
 59 61  1  0
 59 62  1  0
 60131  1  0
 60132  1  0
 60133  1  0
 61134  1  0
 61135  1  0
 61136  1  0
 62137  1  0
 62138  1  0
 62139  1  0
 63 65  1  0
 63140  1  0
 63141  1  0
 63142  1  0
 64143  1  0
 65144  1  0
 68 81  1  0
 71 73  1  0
 71 74  2  0
 71145  1  0
 72 73  2  0
 72 84  1  0
 72146  1  0
 73 78  1  0
 74 79  1  0
 74 84  1  0
 75147  1  0
 75148  1  0
 75149  1  0
 76150  1  0
 76151  1  0
 76152  1  0
 77 83  1  0
 77153  1  0
 77154  1  0
 77155  1  0
 78 80  1  0
 78156  1  0
 78157  1  0
 79 85  1  0
 79158  1  0
 79159  1  0
 80 82  1  0
 80160  1  0
 80161  1  0
 81 82  1  0
 81162  1  0
 81163  1  0
 82 75  1  0
 82164  1  1
 83 76  1  0
 83 84  1  0
 83165  1  0
 85166  1  0
M  ISO  4   1 100  68 101  81 101  85 100
M  END
$$$$
41
     RDKit          3D

167175  0  0  0  0  0  0  0  0999 V2000
  -30.7652  -14.3608   20.6636 C   0  0  0  0  0  0  0  0  0100  0  0
  -30.4392  -12.2669   19.3775 C   0  0  0  0  0  0  0  0  0101  0  0
  -29.4791  -12.5281   18.1977 C   0  0  0  0  0  0  0  0  0102  0  0
  -27.9985  -12.3963   18.6038 C   0  0  0  0  0  0  0  0  0103  0  0
  -27.6639  -13.2170   19.8820 C   0  0  2  0  0  0  0  0  0104  0  0
  -28.6795  -12.9602   21.0279 C   0  0  0  0  0  0  0  0  0105  0  0
  -25.2633  -13.8245   20.5754 C   0  0  0  0  0  0  0  0  0106  0  0
  -24.1645  -13.0409   20.9408 C   0  0  0  0  0  0  0  0  0107  0  0
  -24.6400  -11.7009   20.8697 C   0  0  0  0  0  0  0  0  0108  0  0
  -23.9005  -10.4085   21.0420 C   0  0  0  0  0  0  0  0  0109  0  0
  -24.3588   -9.4123   21.9123 C   0  0  0  0  0  0  0  0  0110  0  0
  -23.6296   -8.2350   22.0803 C   0  0  0  0  0  0  0  0  0111  0  0
  -22.4385   -8.0419   21.3657 C   0  0  0  0  0  0  0  0  0112  0  0
  -22.0103   -9.0167   20.4678 C   0  0  0  0  0  0  0  0  0113  0  0
  -22.7317  -10.1925   20.3102 C   0  0  0  0  0  0  0  0  0114  0  0
  -21.6857   -6.0709   22.5391 C   0  0  0  0  0  0  0  0  0115  0  0
  -21.4064   -6.5490   23.8264 C   0  0  0  0  0  0  0  0  0116  0  0
  -21.3635   -5.6677   24.9085 C   0  0  0  0  0  0  0  0  0117  0  0
  -21.5973   -4.3067   24.7088 C   0  0  0  0  0  0  0  0  0118  0  0
  -21.8700   -3.8284   23.4282 C   0  0  0  0  0  0  0  0  0119  0  0
  -21.9144   -4.7056   22.3460 C   0  0  0  0  0  0  0  0  0120  0  0
  -22.8194  -13.5263   21.1763 C   0  0  0  0  0  0  0  0  0121  0  0
  -22.1559   -4.2206   21.1063 F   0  0  0  0  0  0  0  0  0122  0  0
  -21.5628   -3.4510   25.7555 F   0  0  0  0  0  0  0  0  0123  0  0
  -30.0261  -13.1803   20.4553 N   0  0  0  0  0  0  0  0  0124  0  0
  -26.2911  -12.9356   20.3443 N   0  0  0  0  0  0  0  0  0125  0  0
  -25.9236  -11.6675   20.5847 N   0  0  0  0  0  0  0  0  0126  0  0
  -22.0708  -12.7905   22.0005 N   0  0  0  0  0  0  0  0  0127  0  0
  -25.4117  -15.1773   20.4097 N   0  0  0  0  0  0  0  0  0128  0  0
  -31.7916  -14.6724   20.0536 O   0  0  0  0  0  0  0  0  0129  0  0
  -21.6670   -6.9022   21.4423 O   0  0  0  0  0  0  0  0  0130  0  0
  -22.3946  -14.5564   20.6568 O   0  0  0  0  0  0  0  0  0131  0  0
  -24.6048  -31.8614   23.2223 C   0  0  0  0  0  0  0  0  0100  0  0
  -25.8822  -32.4841   23.8616 C   0  0  1  0  0  0  0  0  0101  0  0
  -27.2536  -27.5042   20.1156 C   0  0  0  0  0  0  0  0  0102  0  0
  -25.5726  -33.8762   24.2210 N   0  0  0  0  0  0  0  0  0103  0  0
  -23.4066  -30.4859   21.5461 C   0  0  2  0  0  0  0  0  0104  0  0
  -24.8467  -28.9636   20.1247 C   0  0  0  0  0  0  0  0  0105  0  0
  -22.7412  -29.4652   22.5052 C   0  0  0  0  0  0  0  0  0106  0  0
  -18.0167  -28.1302   22.8626 C   0  0  0  0  0  0  0  0  0107  0  0
  -24.1342  -36.7390   23.2568 C   0  0  0  0  0  0  0  0  0108  0  0
  -25.9141  -30.8882   21.3456 C   0  0  0  0  0  0  0  0  0109  0  0
  -25.9930  -29.5029   20.7208 C   0  0  0  0  0  0  0  0  0110  0  0
  -27.1758  -28.7612   20.7331 C   0  0  0  0  0  0  0  0  0111  0  0
  -26.1032  -26.9836   19.5230 C   0  0  0  0  0  0  0  0  0112  0  0
  -24.9097  -27.7011   19.5331 C   0  0  0  0  0  0  0  0  0113  0  0
  -23.5715  -29.7899   20.1582 C   0  0  0  0  0  0  0  0  0114  0  0
  -25.3990  -36.3212   24.0232 C   0  0  1  0  0  0  0  0  0115  0  0
  -20.5793  -28.3813   23.1004 C   0  0  2  0  0  0  0  0  0116  0  0
  -20.6548  -26.9392   22.5411 C   0  0  0  0  0  0  0  0  0117  0  0
  -19.5615  -26.6407   21.5143 C   0  0  0  0  0  0  0  0  0118  0  0
  -18.1797  -26.7818   22.1673 C   0  0  0  0  0  0  0  0  0119  0  0
  -19.1385  -28.8769   23.2988 C   0  0  0  0  0  0  0  0  0120  0  0
  -18.9183  -30.1286   23.8878 C   0  0  0  0  0  0  0  0  0121  0  0
  -17.6396  -30.6493   24.0352 C   0  0  0  0  0  0  0  0  0122  0  0
  -25.9153  -34.9582   23.4993 C   0  0  0  0  0  0  0  0  0123  0  0
  -16.5415  -29.9068   23.6254 C   0  0  0  0  0  0  0  0  0124  0  0
  -16.7331  -28.6521   23.0586 C   0  0  0  0  0  0  0  0  0125  0  0
  -26.4583  -31.6439   25.0683 C   0  0  0  0  0  0  0  0  0126  0  0
  -25.3807  -31.3179   26.1374 C   0  0  0  0  0  0  0  0  0127  0  0
  -27.0530  -30.3024   24.5680 C   0  0  0  0  0  0  0  0  0128  0  0
  -27.6014  -32.4281   25.7651 C   0  0  0  0  0  0  0  0  0129  0  0
  -27.5629  -37.2220   24.8621 C   0  0  0  0  0  0  0  0  0130  0  0
  -21.4133  -29.3375   22.3735 N   0  0  0  0  0  0  0  0  0131  0  0
  -26.4706  -37.3372   23.9061 N   0  0  0  0  0  0  0  0  0132  0  0
  -24.6674  -31.0544   22.1178 N   0  0  0  0  0  0  0  0  0133  0  0
  -23.4259  -28.8150   23.2971 O   0  0  0  0  0  0  0  0  0134  0  0
  -28.3948  -26.7345   20.0089 O   0  0  0  0  0  0  0  0  0135  0  0
  -26.5870  -34.9065   22.4671 O   0  0  0  0  0  0  0  0  0136  0  0
  -23.5365  -32.1254   23.7833 O   0  0  0  0  0  0  0  0  0137  0  0
  -31.2856  -19.4863   22.6816 C   0  0  0  0  0  0  0  0  0  0  0  0
  -29.5702  -17.8007   22.6583 C   0  0  0  0  0  0  0  0  0  0  0  0
  -30.0206  -19.0526   23.0623 C   0  0  0  0  0  0  0  0  0  0  0  0
  -32.0552  -18.6372   21.9028 C   0  0  0  0  0  0  0  0  0  0  0  0
  -30.4165  -17.0271   21.8804 C   0  0  0  0  0  0  0  0  0  0  0  0
  -29.7744  -20.2138   25.2810 C   0  0  0  0  0  0  0  0  0  0  0  0
  -33.2337  -19.3428   18.3811 C   0  0  0  0  0  0  0  0  0  0  0  0
  -32.7671  -21.7793   18.7027 C   0  0  0  0  0  0  0  0  0  0  0  0
  -33.4629  -20.4066   20.6910 C   0  0  0  0  0  0  0  0  0  0  0  0
  -28.7898  -21.2614   23.2087 C   0  0  0  0  0  0  0  0  0  1  0  0
  -29.1331  -19.9438   23.9170 C   0  0  1  0  0  0  0  0  0  0  0  0
  -33.4178  -19.0701   21.4748 C   0  0  1  0  0  0  0  0  0  0  0  0
  -32.6943  -20.3942   19.3520 C   0  0  0  0  0  0  0  0  0  0  0  0
  -31.6518  -17.4144   21.4909 N   0  0  0  0  0  0  0  0  0  0  0  0
  -29.9482  -15.7532   21.4735 N   0  0  0  0  0  0  0  0  0  0  0  0
  -34.3615  -19.2232   22.6420 N   0  0  0  0  0  0  0  0  0  0  0  0
  -31.4485  -12.4701   19.0860 H   0  0  0  0  0  0  0  0  0  0  0  0
  -30.3970  -11.2460   19.6950 H   0  0  0  0  0  0  0  0  0  0  0  0
  -29.6870  -11.8204   17.4226 H   0  0  0  0  0  0  0  0  0  0  0  0
  -29.6375  -13.5326   17.8649 H   0  0  0  0  0  0  0  0  0  0  0  0
  -27.7830  -11.3650   18.7904 H   0  0  0  0  0  0  0  0  0  0  0  0
  -27.4028  -12.7801   17.8021 H   0  0  0  0  0  0  0  0  0  0  0  0
  -27.7353  -14.2503   19.6136 H   0  0  0  0  0  0  0  0  0  0  0  0
  -28.5890  -11.9550   21.3832 H   0  0  0  0  0  0  0  0  0  0  0  0
  -28.5005  -13.6134   21.8562 H   0  0  0  0  0  0  0  0  0  0  0  0
  -25.2399   -9.5495   22.4318 H   0  0  0  0  0  0  0  0  0  0  0  0
  -23.9663   -7.5070   22.7297 H   0  0  0  0  0  0  0  0  0  0  0  0
  -21.1515   -8.8641   19.9162 H   0  0  0  0  0  0  0  0  0  0  0  0
  -22.4016  -10.9115   19.6476 H   0  0  0  0  0  0  0  0  0  0  0  0
  -21.2319   -7.5552   23.9750 H   0  0  0  0  0  0  0  0  0  0  0  0
  -21.1589   -6.0228   25.8556 H   0  0  0  0  0  0  0  0  0  0  0  0
  -22.0396   -2.8212   23.2809 H   0  0  0  0  0  0  0  0  0  0  0  0
  -22.4401  -11.9703   22.4008 H   0  0  0  0  0  0  0  0  0  0  0  0
  -21.1493  -13.0679   22.2082 H   0  0  0  0  0  0  0  0  0  0  0  0
  -24.6538  -15.7807   20.5848 H   0  0  0  0  0  0  0  0  0  0  0  0
  -26.2762  -15.5453   20.1156 H   0  0  0  0  0  0  0  0  0  0  0  0
  -26.6778  -32.4663   23.1464 H   0  0  0  0  0  0  0  0  0  0  0  0
  -25.0747  -34.0282   25.0566 H   0  0  0  0  0  0  0  0  0  0  0  0
  -22.7881  -31.3489   21.4131 H   0  0  0  0  0  0  0  0  0  0  0  0
  -23.3854  -35.9823   23.3648 H   0  0  0  0  0  0  0  0  0  0  0  0
  -24.3696  -36.8624   22.2204 H   0  0  0  0  0  0  0  0  0  0  0  0
  -23.7669  -37.6632   23.6516 H   0  0  0  0  0  0  0  0  0  0  0  0
  -25.9445  -31.6237   20.5691 H   0  0  0  0  0  0  0  0  0  0  0  0
  -26.7436  -31.0079   22.0108 H   0  0  0  0  0  0  0  0  0  0  0  0
  -28.0090  -29.1452   21.2057 H   0  0  0  0  0  0  0  0  0  0  0  0
  -26.1369  -26.0560   19.0719 H   0  0  0  0  0  0  0  0  0  0  0  0
  -24.0652  -27.2961   19.0997 H   0  0  0  0  0  0  0  0  0  0  0  0
  -23.6156  -30.5365   19.3930 H   0  0  0  0  0  0  0  0  0  0  0  0
  -22.7355  -29.1425   19.9945 H   0  0  0  0  0  0  0  0  0  0  0  0
  -25.1353  -36.2335   25.0565 H   0  0  0  0  0  0  0  0  0  0  0  0
  -21.0070  -28.3206   24.0793 H   0  0  0  0  0  0  0  0  0  0  0  0
  -20.5555  -26.2518   23.3550 H   0  0  0  0  0  0  0  0  0  0  0  0
  -21.5974  -26.8362   22.0454 H   0  0  0  0  0  0  0  0  0  0  0  0
  -19.6810  -25.6422   21.1488 H   0  0  0  0  0  0  0  0  0  0  0  0
  -19.6406  -27.3343   20.7034 H   0  0  0  0  0  0  0  0  0  0  0  0
  -17.4282  -26.6888   21.4113 H   0  0  0  0  0  0  0  0  0  0  0  0
  -18.0803  -26.0130   22.9049 H   0  0  0  0  0  0  0  0  0  0  0  0
  -19.7265  -30.6774   24.2204 H   0  0  0  0  0  0  0  0  0  0  0  0
  -17.5064  -31.5856   24.4483 H   0  0  0  0  0  0  0  0  0  0  0  0
  -15.5878  -30.2839   23.7407 H   0  0  0  0  0  0  0  0  0  0  0  0
  -15.9120  -28.0941   22.7766 H   0  0  0  0  0  0  0  0  0  0  0  0
  -24.5787  -30.7757   25.6817 H   0  0  0  0  0  0  0  0  0  0  0  0
  -25.0041  -32.2289   26.5536 H   0  0  0  0  0  0  0  0  0  0  0  0
  -25.8166  -30.7245   26.9138 H   0  0  0  0  0  0  0  0  0  0  0  0
  -26.2892  -29.7335   24.0803 H   0  0  0  0  0  0  0  0  0  0  0  0
  -27.4336  -29.7484   25.4006 H   0  0  0  0  0  0  0  0  0  0  0  0
  -27.8466  -30.4994   23.8779 H   0  0  0  0  0  0  0  0  0  0  0  0
  -27.2251  -33.3632   26.1242 H   0  0  0  0  0  0  0  0  0  0  0  0
  -28.3902  -32.6065   25.0645 H   0  0  0  0  0  0  0  0  0  0  0  0
  -27.9772  -31.8555   26.5872 H   0  0  0  0  0  0  0  0  0  0  0  0
  -28.2744  -38.0016   24.6863 H   0  0  0  0  0  0  0  0  0  0  0  0
  -28.0396  -36.2711   24.7461 H   0  0  0  0  0  0  0  0  0  0  0  0
  -27.1773  -37.3087   25.8564 H   0  0  0  0  0  0  0  0  0  0  0  0
  -20.9627  -29.9365   21.7352 H   0  0  0  0  0  0  0  0  0  0  0  0
  -26.0447  -38.2561   24.0273 H   0  0  0  0  0  0  0  0  0  0  0  0
  -31.6402  -20.4116   22.9700 H   0  0  0  0  0  0  0  0  0  0  0  0
  -28.6351  -17.4585   22.9293 H   0  0  0  0  0  0  0  0  0  0  0  0
  -30.0054  -19.2837   25.7569 H   0  0  0  0  0  0  0  0  0  0  0  0
  -29.0928  -20.7676   25.8922 H   0  0  0  0  0  0  0  0  0  0  0  0
  -30.6732  -20.7788   25.1470 H   0  0  0  0  0  0  0  0  0  0  0  0
  -32.6701  -19.3742   17.4721 H   0  0  0  0  0  0  0  0  0  0  0  0
  -33.1458  -18.3718   18.8219 H   0  0  0  0  0  0  0  0  0  0  0  0
  -34.2626  -19.5468   18.1700 H   0  0  0  0  0  0  0  0  0  0  0  0
  -32.2336  -21.7670   17.7753 H   0  0  0  0  0  0  0  0  0  0  0  0
  -33.7902  -22.0353   18.5222 H   0  0  0  0  0  0  0  0  0  0  0  0
  -32.3284  -22.5034   19.3570 H   0  0  0  0  0  0  0  0  0  0  0  0
  -34.4871  -20.6383   20.4855 H   0  0  0  0  0  0  0  0  0  0  0  0
  -32.9826  -21.1363   21.3089 H   0  0  0  0  0  0  0  0  0  0  0  0
  -28.3751  -21.6908   24.0967 H   0  0  0  0  0  0  0  0  0  0  0  0
  -29.0545  -20.7879   22.2864 H   0  0  0  0  0  0  0  0  0  0  0  0
  -28.2160  -19.4153   24.0734 H   0  0  0  0  0  0  0  0  0  0  0  0
  -33.7217  -18.2781   20.8226 H   0  0  0  0  0  0  0  0  0  0  0  0
  -31.6779  -20.1396   19.5688 H   0  0  0  0  0  0  0  0  0  0  0  0
  -28.9961  -15.5974   21.6696 H   0  0  0  0  0  0  0  0  0  0  0  0
  -34.0415  -19.9848   23.2403 H   0  0  0  0  0  0  0  0  0  0  0  0
  -35.2982  -19.4326   22.2967 H   0  0  0  0  0  0  0  0  0  0  0  0
  -34.3828  -18.3557   23.1781 H   0  0  0  0  0  0  0  0  0  0  0  0
  1 25  1  0
  1 30  2  0
  1 85  1  0
  2  3  1  0
  2 25  1  0
  2 87  1  0
  2 88  1  0
  3  4  1  0
  3 89  1  0
  3 90  1  0
  4  5  1  0
  4 91  1  0
  4 92  1  0
  5  6  1  0
  5 26  1  0
  5 93  1  6
  6 25  1  0
  6 94  1  0
  6 95  1  0
  7  8  2  0
  7 26  1  0
  7 29  1  0
  8  9  1  0
  8 22  1  0
  9 10  1  0
  9 27  2  0
 10 11  2  0
 10 15  1  0
 11 12  1  0
 11 96  1  0
 12 13  2  0
 12 97  1  0
 13 14  1  0
 13 31  1  0
 14 15  2  0
 14 98  1  0
 15 99  1  0
 16 17  2  0
 16 21  1  0
 16 31  1  0
 17 18  1  0
 17100  1  0
 18 19  2  0
 18101  1  0
 19 20  1  0
 19 24  1  0
 20 21  2  0
 20102  1  0
 21 23  1  0
 22 28  1  0
 22 32  2  0
 26 27  1  0
 28103  1  0
 28104  1  0
 29105  1  0
 29106  1  0
 33 34  1  0
 33 66  1  0
 33 70  2  0
 34 36  1  0
 34 59  1  0
 34107  1  6
 35 44  2  0
 35 45  1  0
 35 68  1  0
 36 56  1  0
 36108  1  0
 37 39  1  0
 37 47  1  0
 37 66  1  0
 37109  1  6
 38 43  2  0
 38 46  1  0
 38 47  1  0
 39 64  1  0
 39 67  2  0
 40 52  1  0
 40 53  2  0
 40 58  1  0
 41110  1  0
 41111  1  0
 41112  1  0
 42 43  1  0
 42 66  1  0
 42113  1  0
 42114  1  0
 43 44  1  0
 44115  1  0
 45 46  2  0
 45116  1  0
 46117  1  0
 47118  1  0
 47119  1  0
 48 41  1  0
 48 56  1  0
 48 65  1  0
 48120  1  1
 49 50  1  0
 49 53  1  0
 49 64  1  0
 49121  1  1
 50 51  1  0
 50122  1  0
 50123  1  0
 51 52  1  0
 51124  1  0
 51125  1  0
 52126  1  0
 52127  1  0
 53 54  1  0
 54 55  2  0
 54128  1  0
 55 57  1  0
 55129  1  0
 56 69  2  0
 57 58  2  0
 57130  1  0
 58131  1  0
 59 60  1  0
 59 61  1  0
 59 62  1  0
 60132  1  0
 60133  1  0
 60134  1  0
 61135  1  0
 61136  1  0
 61137  1  0
 62138  1  0
 62139  1  0
 62140  1  0
 63 65  1  0
 63141  1  0
 63142  1  0
 63143  1  0
 64144  1  0
 65145  1  0
 68 80  1  0
 71 73  2  0
 71 74  1  0
 71146  1  0
 72 73  1  0
 72 75  2  0
 72147  1  0
 73 81  1  0
 74 82  1  0
 74 84  2  0
 75 84  1  0
 75 85  1  0
 76148  1  0
 76149  1  0
 76150  1  0
 77151  1  0
 77152  1  0
 77153  1  0
 78 83  1  0
 78154  1  0
 78155  1  0
 78156  1  0
 79 82  1  0
 79 83  1  0
 79157  1  0
 79158  1  0
 80 81  1  0
 80159  1  0
 80160  1  0
 81 76  1  0
 81161  1  1
 82 86  1  0
 82162  1  6
 83 77  1  0
 83163  1  0
 85164  1  0
 86165  1  0
 86166  1  0
 86167  1  0
M  CHG  1  86   1
M  ISO  4   1 100  68 101  80 101  85 100
M  END
$$$$
42
     RDKit          3D

166174  0  0  0  0  0  0  0  0999 V2000
  -30.7652  -14.3608   20.6636 C   0  0  0  0  0  0  0  0  0100  0  0
  -30.4392  -12.2669   19.3775 C   0  0  0  0  0  0  0  0  0101  0  0
  -29.4791  -12.5281   18.1977 C   0  0  0  0  0  0  0  0  0102  0  0
  -27.9985  -12.3963   18.6038 C   0  0  0  0  0  0  0  0  0103  0  0
  -27.6639  -13.2170   19.8820 C   0  0  2  0  0  0  0  0  0104  0  0
  -28.6795  -12.9602   21.0279 C   0  0  0  0  0  0  0  0  0105  0  0
  -25.2633  -13.8245   20.5754 C   0  0  0  0  0  0  0  0  0106  0  0
  -24.1645  -13.0409   20.9408 C   0  0  0  0  0  0  0  0  0107  0  0
  -24.6400  -11.7009   20.8697 C   0  0  0  0  0  0  0  0  0108  0  0
  -23.9005  -10.4085   21.0420 C   0  0  0  0  0  0  0  0  0109  0  0
  -24.3588   -9.4123   21.9123 C   0  0  0  0  0  0  0  0  0110  0  0
  -23.6296   -8.2350   22.0803 C   0  0  0  0  0  0  0  0  0111  0  0
  -22.4385   -8.0419   21.3657 C   0  0  0  0  0  0  0  0  0112  0  0
  -22.0103   -9.0167   20.4678 C   0  0  0  0  0  0  0  0  0113  0  0
  -22.7317  -10.1925   20.3102 C   0  0  0  0  0  0  0  0  0114  0  0
  -21.6857   -6.0709   22.5391 C   0  0  0  0  0  0  0  0  0115  0  0
  -21.4064   -6.5490   23.8264 C   0  0  0  0  0  0  0  0  0116  0  0
  -21.3635   -5.6677   24.9085 C   0  0  0  0  0  0  0  0  0117  0  0
  -21.5973   -4.3067   24.7088 C   0  0  0  0  0  0  0  0  0118  0  0
  -21.8700   -3.8284   23.4282 C   0  0  0  0  0  0  0  0  0119  0  0
  -21.9144   -4.7056   22.3460 C   0  0  0  0  0  0  0  0  0120  0  0
  -22.8194  -13.5263   21.1763 C   0  0  0  0  0  0  0  0  0121  0  0
  -22.1559   -4.2206   21.1063 F   0  0  0  0  0  0  0  0  0122  0  0
  -21.5628   -3.4510   25.7555 F   0  0  0  0  0  0  0  0  0123  0  0
  -30.0261  -13.1803   20.4553 N   0  0  0  0  0  0  0  0  0124  0  0
  -26.2911  -12.9356   20.3443 N   0  0  0  0  0  0  0  0  0125  0  0
  -25.9236  -11.6675   20.5847 N   0  0  0  0  0  0  0  0  0126  0  0
  -22.0708  -12.7905   22.0005 N   0  0  0  0  0  0  0  0  0127  0  0
  -25.4117  -15.1773   20.4097 N   0  0  0  0  0  0  0  0  0128  0  0
  -31.7916  -14.6724   20.0536 O   0  0  0  0  0  0  0  0  0129  0  0
  -21.6670   -6.9022   21.4423 O   0  0  0  0  0  0  0  0  0130  0  0
  -22.3946  -14.5564   20.6568 O   0  0  0  0  0  0  0  0  0131  0  0
  -24.6048  -31.8614   23.2223 C   0  0  0  0  0  0  0  0  0100  0  0
  -25.8822  -32.4841   23.8616 C   0  0  1  0  0  0  0  0  0101  0  0
  -27.2536  -27.5042   20.1156 C   0  0  0  0  0  0  0  0  0102  0  0
  -25.5726  -33.8762   24.2210 N   0  0  0  0  0  0  0  0  0103  0  0
  -23.4066  -30.4859   21.5461 C   0  0  2  0  0  0  0  0  0104  0  0
  -24.8467  -28.9636   20.1247 C   0  0  0  0  0  0  0  0  0105  0  0
  -22.7412  -29.4652   22.5052 C   0  0  0  0  0  0  0  0  0106  0  0
  -18.0167  -28.1302   22.8626 C   0  0  0  0  0  0  0  0  0107  0  0
  -24.1342  -36.7390   23.2568 C   0  0  0  0  0  0  0  0  0108  0  0
  -25.9141  -30.8882   21.3456 C   0  0  0  0  0  0  0  0  0109  0  0
  -25.9930  -29.5029   20.7208 C   0  0  0  0  0  0  0  0  0110  0  0
  -27.1758  -28.7612   20.7331 C   0  0  0  0  0  0  0  0  0111  0  0
  -26.1032  -26.9836   19.5230 C   0  0  0  0  0  0  0  0  0112  0  0
  -24.9097  -27.7011   19.5331 C   0  0  0  0  0  0  0  0  0113  0  0
  -23.5715  -29.7899   20.1582 C   0  0  0  0  0  0  0  0  0114  0  0
  -25.3990  -36.3212   24.0232 C   0  0  1  0  0  0  0  0  0115  0  0
  -20.5793  -28.3813   23.1004 C   0  0  2  0  0  0  0  0  0116  0  0
  -20.6548  -26.9392   22.5411 C   0  0  0  0  0  0  0  0  0117  0  0
  -19.5615  -26.6407   21.5143 C   0  0  0  0  0  0  0  0  0118  0  0
  -18.1797  -26.7818   22.1673 C   0  0  0  0  0  0  0  0  0119  0  0
  -19.1385  -28.8769   23.2988 C   0  0  0  0  0  0  0  0  0120  0  0
  -18.9183  -30.1286   23.8878 C   0  0  0  0  0  0  0  0  0121  0  0
  -17.6396  -30.6493   24.0352 C   0  0  0  0  0  0  0  0  0122  0  0
  -25.9153  -34.9582   23.4993 C   0  0  0  0  0  0  0  0  0123  0  0
  -16.5415  -29.9068   23.6254 C   0  0  0  0  0  0  0  0  0124  0  0
  -16.7331  -28.6521   23.0586 C   0  0  0  0  0  0  0  0  0125  0  0
  -26.4583  -31.6439   25.0683 C   0  0  0  0  0  0  0  0  0126  0  0
  -25.3807  -31.3179   26.1374 C   0  0  0  0  0  0  0  0  0127  0  0
  -27.0530  -30.3024   24.5680 C   0  0  0  0  0  0  0  0  0128  0  0
  -27.6014  -32.4281   25.7651 C   0  0  0  0  0  0  0  0  0129  0  0
  -27.5629  -37.2220   24.8621 C   0  0  0  0  0  0  0  0  0130  0  0
  -21.4133  -29.3375   22.3735 N   0  0  0  0  0  0  0  0  0131  0  0
  -26.4706  -37.3372   23.9061 N   0  0  0  0  0  0  0  0  0132  0  0
  -24.6674  -31.0544   22.1178 N   0  0  0  0  0  0  0  0  0133  0  0
  -23.4259  -28.8150   23.2971 O   0  0  0  0  0  0  0  0  0134  0  0
  -28.3948  -26.7345   20.0089 O   0  0  0  0  0  0  0  0  0135  0  0
  -26.5870  -34.9065   22.4671 O   0  0  0  0  0  0  0  0  0136  0  0
  -23.5365  -32.1254   23.7833 O   0  0  0  0  0  0  0  0  0137  0  0
  -29.8358  -11.9566   19.1299 C   0  0  0  0  0  0  0  0  0  0  0  0
  -28.4243  -12.0405   19.0422 C   0  0  0  0  0  0  0  0  0  0  0  0
  -30.2760  -13.0914   19.7748 C   0  0  0  0  0  0  0  0  0  0  0  0
  -28.0449  -13.2241   19.6359 C   0  0  0  0  0  0  0  0  0  0  0  0
  -25.7781  -12.9248   20.6968 C   0  0  0  0  0  0  0  0  0  0  0  0
  -25.9859  -14.1046   18.4787 C   0  0  0  0  0  0  0  0  0  0  0  0
  -34.0438  -12.6349   23.0989 C   0  0  0  0  0  0  0  0  0  0  0  0
  -31.6779  -13.5169   20.1330 C   0  0  0  0  0  0  0  0  0  0  0  0
  -32.1417  -13.0368   21.5153 C   0  0  0  0  0  0  0  0  0  0  0  0
  -33.5988  -14.9915   22.3386 C   0  0  0  0  0  0  0  0  0  1  0  0
  -29.2135  -15.1793   20.7847 C   0  0  0  0  0  0  0  0  0  0  0  0
  -26.6976  -13.8026   19.8173 C   0  0  0  0  0  0  0  0  0  0  0  0
  -33.5494  -13.5103   21.9402 C   0  0  1  0  0  0  0  0  0  0  0  0
  -29.1788  -13.8547   20.0774 N   0  0  0  0  0  0  0  0  0  0  0  0
  -29.0288  -16.2896   19.8651 N   0  0  0  0  0  0  0  0  0  0  0  0
  -31.4485  -12.4701   19.0860 H   0  0  0  0  0  0  0  0  0  0  0  0
  -30.3970  -11.2460   19.6950 H   0  0  0  0  0  0  0  0  0  0  0  0
  -29.6870  -11.8204   17.4226 H   0  0  0  0  0  0  0  0  0  0  0  0
  -29.6375  -13.5326   17.8649 H   0  0  0  0  0  0  0  0  0  0  0  0
  -27.7830  -11.3650   18.7904 H   0  0  0  0  0  0  0  0  0  0  0  0
  -27.4028  -12.7801   17.8021 H   0  0  0  0  0  0  0  0  0  0  0  0
  -27.7353  -14.2503   19.6136 H   0  0  0  0  0  0  0  0  0  0  0  0
  -28.5890  -11.9550   21.3832 H   0  0  0  0  0  0  0  0  0  0  0  0
  -28.5005  -13.6134   21.8562 H   0  0  0  0  0  0  0  0  0  0  0  0
  -25.2399   -9.5495   22.4318 H   0  0  0  0  0  0  0  0  0  0  0  0
  -23.9663   -7.5070   22.7297 H   0  0  0  0  0  0  0  0  0  0  0  0
  -21.1515   -8.8641   19.9162 H   0  0  0  0  0  0  0  0  0  0  0  0
  -22.4016  -10.9115   19.6476 H   0  0  0  0  0  0  0  0  0  0  0  0
  -21.2319   -7.5552   23.9750 H   0  0  0  0  0  0  0  0  0  0  0  0
  -21.1589   -6.0228   25.8556 H   0  0  0  0  0  0  0  0  0  0  0  0
  -22.0396   -2.8212   23.2809 H   0  0  0  0  0  0  0  0  0  0  0  0
  -22.4401  -11.9703   22.4008 H   0  0  0  0  0  0  0  0  0  0  0  0
  -21.1493  -13.0679   22.2082 H   0  0  0  0  0  0  0  0  0  0  0  0
  -24.6538  -15.7807   20.5848 H   0  0  0  0  0  0  0  0  0  0  0  0
  -26.2762  -15.5453   20.1156 H   0  0  0  0  0  0  0  0  0  0  0  0
  -26.6778  -32.4663   23.1464 H   0  0  0  0  0  0  0  0  0  0  0  0
  -25.0747  -34.0282   25.0566 H   0  0  0  0  0  0  0  0  0  0  0  0
  -22.7881  -31.3489   21.4131 H   0  0  0  0  0  0  0  0  0  0  0  0
  -23.3854  -35.9823   23.3648 H   0  0  0  0  0  0  0  0  0  0  0  0
  -24.3696  -36.8624   22.2204 H   0  0  0  0  0  0  0  0  0  0  0  0
  -23.7669  -37.6632   23.6516 H   0  0  0  0  0  0  0  0  0  0  0  0
  -25.9445  -31.6237   20.5691 H   0  0  0  0  0  0  0  0  0  0  0  0
  -26.7436  -31.0079   22.0108 H   0  0  0  0  0  0  0  0  0  0  0  0
  -28.0090  -29.1452   21.2057 H   0  0  0  0  0  0  0  0  0  0  0  0
  -26.1369  -26.0560   19.0719 H   0  0  0  0  0  0  0  0  0  0  0  0
  -24.0652  -27.2961   19.0997 H   0  0  0  0  0  0  0  0  0  0  0  0
  -23.6156  -30.5365   19.3930 H   0  0  0  0  0  0  0  0  0  0  0  0
  -22.7355  -29.1425   19.9945 H   0  0  0  0  0  0  0  0  0  0  0  0
  -25.1353  -36.2335   25.0565 H   0  0  0  0  0  0  0  0  0  0  0  0
  -21.0070  -28.3206   24.0793 H   0  0  0  0  0  0  0  0  0  0  0  0
  -20.5555  -26.2518   23.3550 H   0  0  0  0  0  0  0  0  0  0  0  0
  -21.5974  -26.8362   22.0454 H   0  0  0  0  0  0  0  0  0  0  0  0
  -19.6810  -25.6422   21.1488 H   0  0  0  0  0  0  0  0  0  0  0  0
  -19.6406  -27.3343   20.7034 H   0  0  0  0  0  0  0  0  0  0  0  0
  -17.4282  -26.6888   21.4113 H   0  0  0  0  0  0  0  0  0  0  0  0
  -18.0803  -26.0130   22.9049 H   0  0  0  0  0  0  0  0  0  0  0  0
  -19.7265  -30.6774   24.2204 H   0  0  0  0  0  0  0  0  0  0  0  0
  -17.5064  -31.5856   24.4483 H   0  0  0  0  0  0  0  0  0  0  0  0
  -15.5878  -30.2839   23.7407 H   0  0  0  0  0  0  0  0  0  0  0  0
  -15.9120  -28.0941   22.7766 H   0  0  0  0  0  0  0  0  0  0  0  0
  -24.5787  -30.7757   25.6817 H   0  0  0  0  0  0  0  0  0  0  0  0
  -25.0041  -32.2289   26.5536 H   0  0  0  0  0  0  0  0  0  0  0  0
  -25.8166  -30.7245   26.9138 H   0  0  0  0  0  0  0  0  0  0  0  0
  -26.2892  -29.7335   24.0803 H   0  0  0  0  0  0  0  0  0  0  0  0
  -27.4336  -29.7484   25.4006 H   0  0  0  0  0  0  0  0  0  0  0  0
  -27.8466  -30.4994   23.8779 H   0  0  0  0  0  0  0  0  0  0  0  0
  -27.2251  -33.3632   26.1242 H   0  0  0  0  0  0  0  0  0  0  0  0
  -28.3902  -32.6065   25.0645 H   0  0  0  0  0  0  0  0  0  0  0  0
  -27.9772  -31.8555   26.5872 H   0  0  0  0  0  0  0  0  0  0  0  0
  -28.2744  -38.0016   24.6863 H   0  0  0  0  0  0  0  0  0  0  0  0
  -28.0396  -36.2711   24.7461 H   0  0  0  0  0  0  0  0  0  0  0  0
  -27.1773  -37.3087   25.8564 H   0  0  0  0  0  0  0  0  0  0  0  0
  -20.9627  -29.9365   21.7352 H   0  0  0  0  0  0  0  0  0  0  0  0
  -26.0447  -38.2561   24.0273 H   0  0  0  0  0  0  0  0  0  0  0  0
  -30.4255  -11.1872   18.7759 H   0  0  0  0  0  0  0  0  0  0  0  0
  -27.7962  -11.3434   18.6127 H   0  0  0  0  0  0  0  0  0  0  0  0
  -26.2675  -12.7136   21.6246 H   0  0  0  0  0  0  0  0  0  0  0  0
  -25.5673  -12.0075   20.1878 H   0  0  0  0  0  0  0  0  0  0  0  0
  -24.8630  -13.4457   20.8868 H   0  0  0  0  0  0  0  0  0  0  0  0
  -26.6196  -14.7122   17.8670 H   0  0  0  0  0  0  0  0  0  0  0  0
  -25.0706  -14.6244   18.6707 H   0  0  0  0  0  0  0  0  0  0  0  0
  -25.7750  -13.1862   17.9718 H   0  0  0  0  0  0  0  0  0  0  0  0
  -34.0049  -11.6054   22.8099 H   0  0  0  0  0  0  0  0  0  0  0  0
  -33.4194  -12.7891   23.9540 H   0  0  0  0  0  0  0  0  0  0  0  0
  -35.0519  -12.8996   23.3409 H   0  0  0  0  0  0  0  0  0  0  0  0
  -31.7197  -14.5860   20.1166 H   0  0  0  0  0  0  0  0  0  0  0  0
  -32.3310  -13.0681   19.4140 H   0  0  0  0  0  0  0  0  0  0  0  0
  -32.1400  -11.9668   21.5114 H   0  0  0  0  0  0  0  0  0  0  0  0
  -31.4602  -13.4639   22.2210 H   0  0  0  0  0  0  0  0  0  0  0  0
  -34.6328  -15.2024   22.1615 H   0  0  0  0  0  0  0  0  0  0  0  0
  -32.8979  -14.8194   23.1286 H   0  0  0  0  0  0  0  0  0  0  0  0
  -30.1604  -15.2870   21.2713 H   0  0  0  0  0  0  0  0  0  0  0  0
  -28.4116  -15.1983   21.4929 H   0  0  0  0  0  0  0  0  0  0  0  0
  -26.8712  -14.7280   20.3257 H   0  0  0  0  0  0  0  0  0  0  0  0
  -34.1899  -13.4090   21.0891 H   0  0  0  0  0  0  0  0  0  0  0  0
  -28.6321  -17.0524   19.3855 H   0  0  0  0  0  0  0  0  0  0  0  0
  1 25  1  0
  1 30  2  0
  1 85  1  0
  2  3  1  0
  2 25  1  0
  2 86  1  0
  2 87  1  0
  3  4  1  0
  3 88  1  0
  3 89  1  0
  4  5  1  0
  4 90  1  0
  4 91  1  0
  5  6  1  0
  5 26  1  0
  5 92  1  6
  6 25  1  0
  6 93  1  0
  6 94  1  0
  7  8  2  0
  7 26  1  0
  7 29  1  0
  8  9  1  0
  8 22  1  0
  9 10  1  0
  9 27  2  0
 10 11  2  0
 10 15  1  0
 11 12  1  0
 11 95  1  0
 12 13  2  0
 12 96  1  0
 13 14  1  0
 13 31  1  0
 14 15  2  0
 14 97  1  0
 15 98  1  0
 16 17  2  0
 16 21  1  0
 16 31  1  0
 17 18  1  0
 17 99  1  0
 18 19  2  0
 18100  1  0
 19 20  1  0
 19 24  1  0
 20 21  2  0
 20101  1  0
 21 23  1  0
 22 28  1  0
 22 32  2  0
 26 27  1  0
 28102  1  0
 28103  1  0
 29104  1  0
 29105  1  0
 33 34  1  0
 33 66  1  0
 33 70  2  0
 34 36  1  0
 34 59  1  0
 34106  1  6
 35 44  2  0
 35 45  1  0
 35 68  1  0
 36 56  1  0
 36107  1  0
 37 39  1  0
 37 47  1  0
 37 66  1  0
 37108  1  6
 38 43  2  0
 38 46  1  0
 38 47  1  0
 39 64  1  0
 39 67  2  0
 40 52  1  0
 40 53  2  0
 40 58  1  0
 41109  1  0
 41110  1  0
 41111  1  0
 42 43  1  0
 42 66  1  0
 42112  1  0
 42113  1  0
 43 44  1  0
 44114  1  0
 45 46  2  0
 45115  1  0
 46116  1  0
 47117  1  0
 47118  1  0
 48 41  1  0
 48 56  1  0
 48 65  1  0
 48119  1  1
 49 50  1  0
 49 53  1  0
 49 64  1  0
 49120  1  1
 50 51  1  0
 50121  1  0
 50122  1  0
 51 52  1  0
 51123  1  0
 51124  1  0
 52125  1  0
 52126  1  0
 53 54  1  0
 54 55  2  0
 54127  1  0
 55 57  1  0
 55128  1  0
 56 69  2  0
 57 58  2  0
 57129  1  0
 58130  1  0
 59 60  1  0
 59 61  1  0
 59 62  1  0
 60131  1  0
 60132  1  0
 60133  1  0
 61134  1  0
 61135  1  0
 61136  1  0
 62137  1  0
 62138  1  0
 62139  1  0
 63 65  1  0
 63140  1  0
 63141  1  0
 63142  1  0
 64143  1  0
 65144  1  0
 68 80  1  0
 71 72  1  0
 71 73  2  0
 71145  1  0
 72 74  2  0
 72146  1  0
 73 78  1  0
 73 84  1  0
 74 82  1  0
 74 84  1  0
 75147  1  0
 75148  1  0
 75149  1  0
 76 82  1  0
 76150  1  0
 76151  1  0
 76152  1  0
 77153  1  0
 77154  1  0
 77155  1  0
 78 79  1  0
 78156  1  0
 78157  1  0
 79 83  1  0
 79158  1  0
 79159  1  0
 80 83  1  0
 80160  1  0
 80161  1  0
 81 84  1  0
 81 85  1  0
 81162  1  0
 81163  1  0
 82 75  1  0
 82164  1  0
 83 77  1  0
 83165  1  6
 85166  1  0
M  ISO  4   1 100  68 101  80 101  85 100
M  END
$$$$
43
     RDKit          3D

176184  0  0  0  0  0  0  0  0999 V2000
  -30.7652  -14.3608   20.6636 C   0  0  0  0  0  0  0  0  0100  0  0
  -30.4392  -12.2669   19.3775 C   0  0  0  0  0  0  0  0  0101  0  0
  -29.4791  -12.5281   18.1977 C   0  0  0  0  0  0  0  0  0102  0  0
  -27.9985  -12.3963   18.6038 C   0  0  0  0  0  0  0  0  0103  0  0
  -27.6639  -13.2170   19.8820 C   0  0  2  0  0  0  0  0  0104  0  0
  -28.6795  -12.9602   21.0279 C   0  0  0  0  0  0  0  0  0105  0  0
  -25.2633  -13.8245   20.5754 C   0  0  0  0  0  0  0  0  0106  0  0
  -24.1645  -13.0409   20.9408 C   0  0  0  0  0  0  0  0  0107  0  0
  -24.6400  -11.7009   20.8697 C   0  0  0  0  0  0  0  0  0108  0  0
  -23.9005  -10.4085   21.0420 C   0  0  0  0  0  0  0  0  0109  0  0
  -24.3588   -9.4123   21.9123 C   0  0  0  0  0  0  0  0  0110  0  0
  -23.6296   -8.2350   22.0803 C   0  0  0  0  0  0  0  0  0111  0  0
  -22.4385   -8.0419   21.3657 C   0  0  0  0  0  0  0  0  0112  0  0
  -22.0103   -9.0167   20.4678 C   0  0  0  0  0  0  0  0  0113  0  0
  -22.7317  -10.1925   20.3102 C   0  0  0  0  0  0  0  0  0114  0  0
  -21.6857   -6.0709   22.5391 C   0  0  0  0  0  0  0  0  0115  0  0
  -21.4064   -6.5490   23.8264 C   0  0  0  0  0  0  0  0  0116  0  0
  -21.3635   -5.6677   24.9085 C   0  0  0  0  0  0  0  0  0117  0  0
  -21.5973   -4.3067   24.7088 C   0  0  0  0  0  0  0  0  0118  0  0
  -21.8700   -3.8284   23.4282 C   0  0  0  0  0  0  0  0  0119  0  0
  -21.9144   -4.7056   22.3460 C   0  0  0  0  0  0  0  0  0120  0  0
  -22.8194  -13.5263   21.1763 C   0  0  0  0  0  0  0  0  0121  0  0
  -22.1559   -4.2206   21.1063 F   0  0  0  0  0  0  0  0  0122  0  0
  -21.5628   -3.4510   25.7555 F   0  0  0  0  0  0  0  0  0123  0  0
  -30.0261  -13.1803   20.4553 N   0  0  0  0  0  0  0  0  0124  0  0
  -26.2911  -12.9356   20.3443 N   0  0  0  0  0  0  0  0  0125  0  0
  -25.9236  -11.6675   20.5847 N   0  0  0  0  0  0  0  0  0126  0  0
  -22.0708  -12.7905   22.0005 N   0  0  0  0  0  0  0  0  0127  0  0
  -25.4117  -15.1773   20.4097 N   0  0  0  0  0  0  0  0  0128  0  0
  -31.7916  -14.6724   20.0536 O   0  0  0  0  0  0  0  0  0129  0  0
  -21.6670   -6.9022   21.4423 O   0  0  0  0  0  0  0  0  0130  0  0
  -22.3946  -14.5564   20.6568 O   0  0  0  0  0  0  0  0  0131  0  0
  -24.6048  -31.8614   23.2223 C   0  0  0  0  0  0  0  0  0100  0  0
  -25.8822  -32.4841   23.8616 C   0  0  1  0  0  0  0  0  0101  0  0
  -27.2536  -27.5042   20.1156 C   0  0  0  0  0  0  0  0  0102  0  0
  -25.5726  -33.8762   24.2210 N   0  0  0  0  0  0  0  0  0103  0  0
  -23.4066  -30.4859   21.5461 C   0  0  2  0  0  0  0  0  0104  0  0
  -24.8467  -28.9636   20.1247 C   0  0  0  0  0  0  0  0  0105  0  0
  -22.7412  -29.4652   22.5052 C   0  0  0  0  0  0  0  0  0106  0  0
  -18.0167  -28.1302   22.8626 C   0  0  0  0  0  0  0  0  0107  0  0
  -24.1342  -36.7390   23.2568 C   0  0  0  0  0  0  0  0  0108  0  0
  -25.9141  -30.8882   21.3456 C   0  0  0  0  0  0  0  0  0109  0  0
  -25.9930  -29.5029   20.7208 C   0  0  0  0  0  0  0  0  0110  0  0
  -27.1758  -28.7612   20.7331 C   0  0  0  0  0  0  0  0  0111  0  0
  -26.1032  -26.9836   19.5230 C   0  0  0  0  0  0  0  0  0112  0  0
  -24.9097  -27.7011   19.5331 C   0  0  0  0  0  0  0  0  0113  0  0
  -23.5715  -29.7899   20.1582 C   0  0  0  0  0  0  0  0  0114  0  0
  -25.3990  -36.3212   24.0232 C   0  0  1  0  0  0  0  0  0115  0  0
  -20.5793  -28.3813   23.1004 C   0  0  2  0  0  0  0  0  0116  0  0
  -20.6548  -26.9392   22.5411 C   0  0  0  0  0  0  0  0  0117  0  0
  -19.5615  -26.6407   21.5143 C   0  0  0  0  0  0  0  0  0118  0  0
  -18.1797  -26.7818   22.1673 C   0  0  0  0  0  0  0  0  0119  0  0
  -19.1385  -28.8769   23.2988 C   0  0  0  0  0  0  0  0  0120  0  0
  -18.9183  -30.1286   23.8878 C   0  0  0  0  0  0  0  0  0121  0  0
  -17.6396  -30.6493   24.0352 C   0  0  0  0  0  0  0  0  0122  0  0
  -25.9153  -34.9582   23.4993 C   0  0  0  0  0  0  0  0  0123  0  0
  -16.5415  -29.9068   23.6254 C   0  0  0  0  0  0  0  0  0124  0  0
  -16.7331  -28.6521   23.0586 C   0  0  0  0  0  0  0  0  0125  0  0
  -26.4583  -31.6439   25.0683 C   0  0  0  0  0  0  0  0  0126  0  0
  -25.3807  -31.3179   26.1374 C   0  0  0  0  0  0  0  0  0127  0  0
  -27.0530  -30.3024   24.5680 C   0  0  0  0  0  0  0  0  0128  0  0
  -27.6014  -32.4281   25.7651 C   0  0  0  0  0  0  0  0  0129  0  0
  -27.5629  -37.2220   24.8621 C   0  0  0  0  0  0  0  0  0130  0  0
  -21.4133  -29.3375   22.3735 N   0  0  0  0  0  0  0  0  0131  0  0
  -26.4706  -37.3372   23.9061 N   0  0  0  0  0  0  0  0  0132  0  0
  -24.6674  -31.0544   22.1178 N   0  0  0  0  0  0  0  0  0133  0  0
  -23.4259  -28.8150   23.2971 O   0  0  0  0  0  0  0  0  0134  0  0
  -28.3948  -26.7345   20.0089 O   0  0  0  0  0  0  0  0  0135  0  0
  -26.5870  -34.9065   22.4671 O   0  0  0  0  0  0  0  0  0136  0  0
  -23.5365  -32.1254   23.7833 O   0  0  0  0  0  0  0  0  0137  0  0
  -27.8185  -13.3109   19.0955 C   0  0  0  0  0  0  0  0  0  0  0  0
  -28.8596  -13.8835   19.8176 C   0  0  0  0  0  0  0  0  0  0  0  0
  -29.1910  -13.3769   21.0694 C   0  0  0  0  0  0  0  0  0  0  0  0
  -27.1452  -12.2421   19.6648 C   0  0  0  0  0  0  0  0  0  0  0  0
  -28.4562  -12.3052   21.5504 C   0  0  0  0  0  0  0  0  0  0  0  0
  -31.6767  -13.5369   21.3557 C   0  0  0  0  0  0  0  0  0  0  0  0
  -28.4165   -9.7493   24.4437 C   0  0  0  0  0  0  0  0  0  0  0  0
  -26.5430  -11.0389   17.5531 C   0  0  0  0  0  0  0  0  0  0  0  0
  -25.3598  -10.3706   19.6257 C   0  0  0  0  0  0  0  0  0  0  0  0
  -30.3046  -13.9693   21.8657 C   0  0  0  0  0  0  0  0  0  0  0  0
  -29.6012  -15.0385   19.2302 C   0  0  0  0  0  0  0  0  0  0  0  0
  -28.7662  -11.7166   22.8880 C   0  0  0  0  0  0  0  0  0  0  0  0
  -28.0729  -10.3626   23.0955 C   0  0  0  0  0  0  0  0  0  0  0  0
  -24.1613  -13.2214   19.7902 C   0  0  0  0  0  0  0  0  0  0  0  0
  -24.8606  -12.6122   18.5690 C   0  0  0  0  0  0  0  0  0  0  0  0
  -23.0174  -14.1380   19.3732 C   0  0  0  0  0  0  0  0  0  1  0  0
  -25.9877  -11.5815   18.8942 C   0  0  0  0  0  0  0  0  0  0  0  0
  -27.4383  -11.7226   20.8780 N   0  0  0  0  0  0  0  0  0  0  0  0
  -28.8437  -16.2683   19.2982 N   0  0  0  0  0  0  0  0  0  0  0  0
  -31.4485  -12.4701   19.0860 H   0  0  0  0  0  0  0  0  0  0  0  0
  -30.3970  -11.2460   19.6950 H   0  0  0  0  0  0  0  0  0  0  0  0
  -29.6870  -11.8204   17.4226 H   0  0  0  0  0  0  0  0  0  0  0  0
  -29.6375  -13.5326   17.8649 H   0  0  0  0  0  0  0  0  0  0  0  0
  -27.7830  -11.3650   18.7904 H   0  0  0  0  0  0  0  0  0  0  0  0
  -27.4028  -12.7801   17.8021 H   0  0  0  0  0  0  0  0  0  0  0  0
  -27.7353  -14.2503   19.6136 H   0  0  0  0  0  0  0  0  0  0  0  0
  -28.5890  -11.9550   21.3832 H   0  0  0  0  0  0  0  0  0  0  0  0
  -28.5005  -13.6134   21.8562 H   0  0  0  0  0  0  0  0  0  0  0  0
  -25.2399   -9.5495   22.4318 H   0  0  0  0  0  0  0  0  0  0  0  0
  -23.9663   -7.5070   22.7297 H   0  0  0  0  0  0  0  0  0  0  0  0
  -21.1515   -8.8641   19.9162 H   0  0  0  0  0  0  0  0  0  0  0  0
  -22.4016  -10.9115   19.6476 H   0  0  0  0  0  0  0  0  0  0  0  0
  -21.2319   -7.5552   23.9750 H   0  0  0  0  0  0  0  0  0  0  0  0
  -21.1589   -6.0228   25.8556 H   0  0  0  0  0  0  0  0  0  0  0  0
  -22.0396   -2.8212   23.2809 H   0  0  0  0  0  0  0  0  0  0  0  0
  -22.4401  -11.9703   22.4008 H   0  0  0  0  0  0  0  0  0  0  0  0
  -21.1493  -13.0679   22.2082 H   0  0  0  0  0  0  0  0  0  0  0  0
  -24.6538  -15.7807   20.5848 H   0  0  0  0  0  0  0  0  0  0  0  0
  -26.2762  -15.5453   20.1156 H   0  0  0  0  0  0  0  0  0  0  0  0
  -26.6778  -32.4663   23.1464 H   0  0  0  0  0  0  0  0  0  0  0  0
  -25.0747  -34.0282   25.0566 H   0  0  0  0  0  0  0  0  0  0  0  0
  -22.7881  -31.3489   21.4131 H   0  0  0  0  0  0  0  0  0  0  0  0
  -23.3854  -35.9823   23.3648 H   0  0  0  0  0  0  0  0  0  0  0  0
  -24.3696  -36.8624   22.2204 H   0  0  0  0  0  0  0  0  0  0  0  0
  -23.7669  -37.6632   23.6516 H   0  0  0  0  0  0  0  0  0  0  0  0
  -25.9445  -31.6237   20.5691 H   0  0  0  0  0  0  0  0  0  0  0  0
  -26.7436  -31.0079   22.0108 H   0  0  0  0  0  0  0  0  0  0  0  0
  -28.0090  -29.1452   21.2057 H   0  0  0  0  0  0  0  0  0  0  0  0
  -26.1369  -26.0560   19.0719 H   0  0  0  0  0  0  0  0  0  0  0  0
  -24.0652  -27.2961   19.0997 H   0  0  0  0  0  0  0  0  0  0  0  0
  -23.6156  -30.5365   19.3930 H   0  0  0  0  0  0  0  0  0  0  0  0
  -22.7355  -29.1425   19.9945 H   0  0  0  0  0  0  0  0  0  0  0  0
  -25.1353  -36.2335   25.0565 H   0  0  0  0  0  0  0  0  0  0  0  0
  -21.0070  -28.3206   24.0793 H   0  0  0  0  0  0  0  0  0  0  0  0
  -20.5555  -26.2518   23.3550 H   0  0  0  0  0  0  0  0  0  0  0  0
  -21.5974  -26.8362   22.0454 H   0  0  0  0  0  0  0  0  0  0  0  0
  -19.6810  -25.6422   21.1488 H   0  0  0  0  0  0  0  0  0  0  0  0
  -19.6406  -27.3343   20.7034 H   0  0  0  0  0  0  0  0  0  0  0  0
  -17.4282  -26.6888   21.4113 H   0  0  0  0  0  0  0  0  0  0  0  0
  -18.0803  -26.0130   22.9049 H   0  0  0  0  0  0  0  0  0  0  0  0
  -19.7265  -30.6774   24.2204 H   0  0  0  0  0  0  0  0  0  0  0  0
  -17.5064  -31.5856   24.4483 H   0  0  0  0  0  0  0  0  0  0  0  0
  -15.5878  -30.2839   23.7407 H   0  0  0  0  0  0  0  0  0  0  0  0
  -15.9120  -28.0941   22.7766 H   0  0  0  0  0  0  0  0  0  0  0  0
  -24.5787  -30.7757   25.6817 H   0  0  0  0  0  0  0  0  0  0  0  0
  -25.0041  -32.2289   26.5536 H   0  0  0  0  0  0  0  0  0  0  0  0
  -25.8166  -30.7245   26.9138 H   0  0  0  0  0  0  0  0  0  0  0  0
  -26.2892  -29.7335   24.0803 H   0  0  0  0  0  0  0  0  0  0  0  0
  -27.4336  -29.7484   25.4006 H   0  0  0  0  0  0  0  0  0  0  0  0
  -27.8466  -30.4994   23.8779 H   0  0  0  0  0  0  0  0  0  0  0  0
  -27.2251  -33.3632   26.1242 H   0  0  0  0  0  0  0  0  0  0  0  0
  -28.3902  -32.6065   25.0645 H   0  0  0  0  0  0  0  0  0  0  0  0
  -27.9772  -31.8555   26.5872 H   0  0  0  0  0  0  0  0  0  0  0  0
  -28.2744  -38.0016   24.6863 H   0  0  0  0  0  0  0  0  0  0  0  0
  -28.0396  -36.2711   24.7461 H   0  0  0  0  0  0  0  0  0  0  0  0
  -27.1773  -37.3087   25.8564 H   0  0  0  0  0  0  0  0  0  0  0  0
  -20.9627  -29.9365   21.7352 H   0  0  0  0  0  0  0  0  0  0  0  0
  -26.0447  -38.2561   24.0273 H   0  0  0  0  0  0  0  0  0  0  0  0
  -27.5555  -13.6707   18.1647 H   0  0  0  0  0  0  0  0  0  0  0  0
  -32.4388  -13.9865   21.9574 H   0  0  0  0  0  0  0  0  0  0  0  0
  -31.7941  -13.8494   20.3391 H   0  0  0  0  0  0  0  0  0  0  0  0
  -31.7591  -12.4716   21.4131 H   0  0  0  0  0  0  0  0  0  0  0  0
  -27.9142   -8.8102   24.5467 H   0  0  0  0  0  0  0  0  0  0  0  0
  -28.1034  -10.4090   25.2258 H   0  0  0  0  0  0  0  0  0  0  0  0
  -29.4737   -9.5972   24.5073 H   0  0  0  0  0  0  0  0  0  0  0  0
  -27.3189  -10.3287   17.7496 H   0  0  0  0  0  0  0  0  0  0  0  0
  -26.9386  -11.8491   16.9770 H   0  0  0  0  0  0  0  0  0  0  0  0
  -25.7549  -10.5642   17.0067 H   0  0  0  0  0  0  0  0  0  0  0  0
  -26.1234   -9.6567   19.8540 H   0  0  0  0  0  0  0  0  0  0  0  0
  -24.6234   -9.9163   18.9962 H   0  0  0  0  0  0  0  0  0  0  0  0
  -24.8985  -10.7018   20.5326 H   0  0  0  0  0  0  0  0  0  0  0  0
  -30.2025  -13.6579   22.8843 H   0  0  0  0  0  0  0  0  0  0  0  0
  -30.2421  -15.0335   21.7737 H   0  0  0  0  0  0  0  0  0  0  0  0
  -29.8168  -14.8233   18.2045 H   0  0  0  0  0  0  0  0  0  0  0  0
  -30.4981  -15.1745   19.7976 H   0  0  0  0  0  0  0  0  0  0  0  0
  -28.4364  -12.3936   23.6481 H   0  0  0  0  0  0  0  0  0  0  0  0
  -29.8230  -11.5584   22.9424 H   0  0  0  0  0  0  0  0  0  0  0  0
  -27.0138  -10.5044   23.0400 H   0  0  0  0  0  0  0  0  0  0  0  0
  -28.4138   -9.6954   22.3316 H   0  0  0  0  0  0  0  0  0  0  0  0
  -24.8736  -13.7872   20.3536 H   0  0  0  0  0  0  0  0  0  0  0  0
  -23.7581  -12.4253   20.3806 H   0  0  0  0  0  0  0  0  0  0  0  0
  -25.2948  -13.4103   18.0038 H   0  0  0  0  0  0  0  0  0  0  0  0
  -24.1079  -12.0707   18.0350 H   0  0  0  0  0  0  0  0  0  0  0  0
  -22.1910  -14.0438   20.0463 H   0  0  0  0  0  0  0  0  0  0  0  0
  -22.6378  -13.9031   18.4008 H   0  0  0  0  0  0  0  0  0  0  0  0
  -28.2506  -17.0264   19.0916 H   0  0  0  0  0  0  0  0  0  0  0  0
  1 25  1  0
  1 30  2  0
  1 89  1  0
  2  3  1  0
  2 25  1  0
  2 90  1  0
  2 91  1  0
  3  4  1  0
  3 92  1  0
  3 93  1  0
  4  5  1  0
  4 94  1  0
  4 95  1  0
  5  6  1  0
  5 26  1  0
  5 96  1  6
  6 25  1  0
  6 97  1  0
  6 98  1  0
  7  8  2  0
  7 26  1  0
  7 29  1  0
  8  9  1  0
  8 22  1  0
  9 10  1  0
  9 27  2  0
 10 11  2  0
 10 15  1  0
 11 12  1  0
 11 99  1  0
 12 13  2  0
 12100  1  0
 13 14  1  0
 13 31  1  0
 14 15  2  0
 14101  1  0
 15102  1  0
 16 17  2  0
 16 21  1  0
 16 31  1  0
 17 18  1  0
 17103  1  0
 18 19  2  0
 18104  1  0
 19 20  1  0
 19 24  1  0
 20 21  2  0
 20105  1  0
 21 23  1  0
 22 28  1  0
 22 32  2  0
 26 27  1  0
 28106  1  0
 28107  1  0
 29108  1  0
 29109  1  0
 33 34  1  0
 33 66  1  0
 33 70  2  0
 34 36  1  0
 34 59  1  0
 34110  1  6
 35 44  2  0
 35 45  1  0
 35 68  1  0
 36 56  1  0
 36111  1  0
 37 39  1  0
 37 47  1  0
 37 66  1  0
 37112  1  6
 38 43  2  0
 38 46  1  0
 38 47  1  0
 39 64  1  0
 39 67  2  0
 40 52  1  0
 40 53  2  0
 40 58  1  0
 41113  1  0
 41114  1  0
 41115  1  0
 42 43  1  0
 42 66  1  0
 42116  1  0
 42117  1  0
 43 44  1  0
 44118  1  0
 45 46  2  0
 45119  1  0
 46120  1  0
 47121  1  0
 47122  1  0
 48 41  1  0
 48 56  1  0
 48 65  1  0
 48123  1  1
 49 50  1  0
 49 53  1  0
 49 64  1  0
 49124  1  1
 50 51  1  0
 50125  1  0
 50126  1  0
 51 52  1  0
 51127  1  0
 51128  1  0
 52129  1  0
 52130  1  0
 53 54  1  0
 54 55  2  0
 54131  1  0
 55 57  1  0
 55132  1  0
 56 69  2  0
 57 58  2  0
 57133  1  0
 58134  1  0
 59 60  1  0
 59 61  1  0
 59 62  1  0
 60135  1  0
 60136  1  0
 60137  1  0
 61138  1  0
 61139  1  0
 61140  1  0
 62141  1  0
 62142  1  0
 62143  1  0
 63 65  1  0
 63144  1  0
 63145  1  0
 63146  1  0
 64147  1  0
 65148  1  0
 68 86  1  0
 71 72  2  0
 71 74  1  0
 71149  1  0
 72 73  1  0
 72 81  1  0
 73 75  2  0
 73 80  1  0
 74 87  1  0
 74 88  2  0
 75 82  1  0
 75 88  1  0
 76 80  1  0
 76150  1  0
 76151  1  0
 76152  1  0
 77 83  1  0
 77153  1  0
 77154  1  0
 77155  1  0
 78156  1  0
 78157  1  0
 78158  1  0
 79 87  1  0
 79159  1  0
 79160  1  0
 79161  1  0
 80162  1  0
 80163  1  0
 81 89  1  0
 81164  1  0
 81165  1  0
 82 83  1  0
 82166  1  0
 82167  1  0
 83168  1  0
 83169  1  0
 84 85  1  0
 84 86  1  0
 84170  1  0
 84171  1  0
 85 87  1  0
 85172  1  0
 85173  1  0
 86174  1  0
 86175  1  0
 87 78  1  0
 89176  1  0
M  ISO  4   1 100  68 101  86 101  89 100
M  END
$$$$
44
     RDKit          3D

162170  0  0  0  0  0  0  0  0999 V2000
  -30.7652  -14.3608   20.6636 C   0  0  0  0  0  0  0  0  0100  0  0
  -30.4392  -12.2669   19.3775 C   0  0  0  0  0  0  0  0  0101  0  0
  -29.4791  -12.5281   18.1977 C   0  0  0  0  0  0  0  0  0102  0  0
  -27.9985  -12.3963   18.6038 C   0  0  0  0  0  0  0  0  0103  0  0
  -27.6639  -13.2170   19.8820 C   0  0  2  0  0  0  0  0  0104  0  0
  -28.6795  -12.9602   21.0279 C   0  0  0  0  0  0  0  0  0105  0  0
  -25.2633  -13.8245   20.5754 C   0  0  0  0  0  0  0  0  0106  0  0
  -24.1645  -13.0409   20.9408 C   0  0  0  0  0  0  0  0  0107  0  0
  -24.6400  -11.7009   20.8697 C   0  0  0  0  0  0  0  0  0108  0  0
  -23.9005  -10.4085   21.0420 C   0  0  0  0  0  0  0  0  0109  0  0
  -24.3588   -9.4123   21.9123 C   0  0  0  0  0  0  0  0  0110  0  0
  -23.6296   -8.2350   22.0803 C   0  0  0  0  0  0  0  0  0111  0  0
  -22.4385   -8.0419   21.3657 C   0  0  0  0  0  0  0  0  0112  0  0
  -22.0103   -9.0167   20.4678 C   0  0  0  0  0  0  0  0  0113  0  0
  -22.7317  -10.1925   20.3102 C   0  0  0  0  0  0  0  0  0114  0  0
  -21.6857   -6.0709   22.5391 C   0  0  0  0  0  0  0  0  0115  0  0
  -21.4064   -6.5490   23.8264 C   0  0  0  0  0  0  0  0  0116  0  0
  -21.3635   -5.6677   24.9085 C   0  0  0  0  0  0  0  0  0117  0  0
  -21.5973   -4.3067   24.7088 C   0  0  0  0  0  0  0  0  0118  0  0
  -21.8700   -3.8284   23.4282 C   0  0  0  0  0  0  0  0  0119  0  0
  -21.9144   -4.7056   22.3460 C   0  0  0  0  0  0  0  0  0120  0  0
  -22.8194  -13.5263   21.1763 C   0  0  0  0  0  0  0  0  0121  0  0
  -22.1559   -4.2206   21.1063 F   0  0  0  0  0  0  0  0  0122  0  0
  -21.5628   -3.4510   25.7555 F   0  0  0  0  0  0  0  0  0123  0  0
  -30.0261  -13.1803   20.4553 N   0  0  0  0  0  0  0  0  0124  0  0
  -26.2911  -12.9356   20.3443 N   0  0  0  0  0  0  0  0  0125  0  0
  -25.9236  -11.6675   20.5847 N   0  0  0  0  0  0  0  0  0126  0  0
  -22.0708  -12.7905   22.0005 N   0  0  0  0  0  0  0  0  0127  0  0
  -25.4117  -15.1773   20.4097 N   0  0  0  0  0  0  0  0  0128  0  0
  -31.7916  -14.6724   20.0536 O   0  0  0  0  0  0  0  0  0129  0  0
  -21.6670   -6.9022   21.4423 O   0  0  0  0  0  0  0  0  0130  0  0
  -22.3946  -14.5564   20.6568 O   0  0  0  0  0  0  0  0  0131  0  0
  -24.6048  -31.8614   23.2223 C   0  0  0  0  0  0  0  0  0100  0  0
  -25.8822  -32.4841   23.8616 C   0  0  1  0  0  0  0  0  0101  0  0
  -27.2536  -27.5042   20.1156 C   0  0  0  0  0  0  0  0  0102  0  0
  -25.5726  -33.8762   24.2210 N   0  0  0  0  0  0  0  0  0103  0  0
  -23.4066  -30.4859   21.5461 C   0  0  2  0  0  0  0  0  0104  0  0
  -24.8467  -28.9636   20.1247 C   0  0  0  0  0  0  0  0  0105  0  0
  -22.7412  -29.4652   22.5052 C   0  0  0  0  0  0  0  0  0106  0  0
  -18.0167  -28.1302   22.8626 C   0  0  0  0  0  0  0  0  0107  0  0
  -24.1342  -36.7390   23.2568 C   0  0  0  0  0  0  0  0  0108  0  0
  -25.9141  -30.8882   21.3456 C   0  0  0  0  0  0  0  0  0109  0  0
  -25.9930  -29.5029   20.7208 C   0  0  0  0  0  0  0  0  0110  0  0
  -27.1758  -28.7612   20.7331 C   0  0  0  0  0  0  0  0  0111  0  0
  -26.1032  -26.9836   19.5230 C   0  0  0  0  0  0  0  0  0112  0  0
  -24.9097  -27.7011   19.5331 C   0  0  0  0  0  0  0  0  0113  0  0
  -23.5715  -29.7899   20.1582 C   0  0  0  0  0  0  0  0  0114  0  0
  -25.3990  -36.3212   24.0232 C   0  0  1  0  0  0  0  0  0115  0  0
  -20.5793  -28.3813   23.1004 C   0  0  2  0  0  0  0  0  0116  0  0
  -20.6548  -26.9392   22.5411 C   0  0  0  0  0  0  0  0  0117  0  0
  -19.5615  -26.6407   21.5143 C   0  0  0  0  0  0  0  0  0118  0  0
  -18.1797  -26.7818   22.1673 C   0  0  0  0  0  0  0  0  0119  0  0
  -19.1385  -28.8769   23.2988 C   0  0  0  0  0  0  0  0  0120  0  0
  -18.9183  -30.1286   23.8878 C   0  0  0  0  0  0  0  0  0121  0  0
  -17.6396  -30.6493   24.0352 C   0  0  0  0  0  0  0  0  0122  0  0
  -25.9153  -34.9582   23.4993 C   0  0  0  0  0  0  0  0  0123  0  0
  -16.5415  -29.9068   23.6254 C   0  0  0  0  0  0  0  0  0124  0  0
  -16.7331  -28.6521   23.0586 C   0  0  0  0  0  0  0  0  0125  0  0
  -26.4583  -31.6439   25.0683 C   0  0  0  0  0  0  0  0  0126  0  0
  -25.3807  -31.3179   26.1374 C   0  0  0  0  0  0  0  0  0127  0  0
  -27.0530  -30.3024   24.5680 C   0  0  0  0  0  0  0  0  0128  0  0
  -27.6014  -32.4281   25.7651 C   0  0  0  0  0  0  0  0  0129  0  0
  -27.5629  -37.2220   24.8621 C   0  0  0  0  0  0  0  0  0130  0  0
  -21.4133  -29.3375   22.3735 N   0  0  0  0  0  0  0  0  0131  0  0
  -26.4706  -37.3372   23.9061 N   0  0  0  0  0  0  0  0  0132  0  0
  -24.6674  -31.0544   22.1178 N   0  0  0  0  0  0  0  0  0133  0  0
  -23.4259  -28.8150   23.2971 O   0  0  0  0  0  0  0  0  0134  0  0
  -28.3948  -26.7345   20.0089 O   0  0  0  0  0  0  0  0  0135  0  0
  -26.5870  -34.9065   22.4671 O   0  0  0  0  0  0  0  0  0136  0  0
  -23.5365  -32.1254   23.7833 O   0  0  0  0  0  0  0  0  0137  0  0
  -31.1416  -25.3178   20.2438 C   0  0  0  0  0  0  0  0  0  0  0  0
  -30.0393  -24.7021   18.1840 C   0  0  0  0  0  0  0  0  0  0  0  0
  -31.7611  -24.0688   20.2857 C   0  0  0  0  0  0  0  0  0  0  0  0
  -30.6588  -23.4531   18.2258 C   0  0  0  0  0  0  0  0  0  0  0  0
  -30.2806  -25.6345   19.1930 C   0  0  0  0  0  0  0  0  0  0  0  0
  -31.5198  -23.1364   19.2767 C   0  0  0  0  0  0  0  0  0  0  0  0
  -33.7160  -21.8849   19.3313 C   0  0  0  0  0  0  0  0  0  0  0  0
  -29.9120  -19.9972   21.7399 C   0  0  0  0  0  0  0  0  0  0  0  0
  -29.6138  -26.9778   19.1472 C   0  0  0  0  0  0  0  0  0  1  0  0
  -30.5600  -19.1303   19.4276 C   0  0  0  0  0  0  0  0  0  0  0  0
  -32.1839  -21.8018   19.3213 C   0  0  1  0  0  0  0  0  0  0  0  0
  -30.4433  -20.3384   20.3545 C   0  0  2  0  0  0  0  0  0  0  0  0
  -29.2994  -18.4666   19.1805 N   0  0  0  0  0  0  0  0  0  0  0  0
  -31.7737  -20.9701   20.5043 N   0  0  0  0  0  0  0  0  0  0  0  0
  -31.4485  -12.4701   19.0860 H   0  0  0  0  0  0  0  0  0  0  0  0
  -30.3970  -11.2460   19.6950 H   0  0  0  0  0  0  0  0  0  0  0  0
  -29.6870  -11.8204   17.4226 H   0  0  0  0  0  0  0  0  0  0  0  0
  -29.6375  -13.5326   17.8649 H   0  0  0  0  0  0  0  0  0  0  0  0
  -27.7830  -11.3650   18.7904 H   0  0  0  0  0  0  0  0  0  0  0  0
  -27.4028  -12.7801   17.8021 H   0  0  0  0  0  0  0  0  0  0  0  0
  -27.7353  -14.2503   19.6136 H   0  0  0  0  0  0  0  0  0  0  0  0
  -28.5890  -11.9550   21.3832 H   0  0  0  0  0  0  0  0  0  0  0  0
  -28.5005  -13.6134   21.8562 H   0  0  0  0  0  0  0  0  0  0  0  0
  -25.2399   -9.5495   22.4318 H   0  0  0  0  0  0  0  0  0  0  0  0
  -23.9663   -7.5070   22.7297 H   0  0  0  0  0  0  0  0  0  0  0  0
  -21.1515   -8.8641   19.9162 H   0  0  0  0  0  0  0  0  0  0  0  0
  -22.4016  -10.9115   19.6476 H   0  0  0  0  0  0  0  0  0  0  0  0
  -21.2319   -7.5552   23.9750 H   0  0  0  0  0  0  0  0  0  0  0  0
  -21.1589   -6.0228   25.8556 H   0  0  0  0  0  0  0  0  0  0  0  0
  -22.0396   -2.8212   23.2809 H   0  0  0  0  0  0  0  0  0  0  0  0
  -22.4401  -11.9703   22.4008 H   0  0  0  0  0  0  0  0  0  0  0  0
  -21.1493  -13.0679   22.2082 H   0  0  0  0  0  0  0  0  0  0  0  0
  -24.6538  -15.7807   20.5848 H   0  0  0  0  0  0  0  0  0  0  0  0
  -26.2762  -15.5453   20.1156 H   0  0  0  0  0  0  0  0  0  0  0  0
  -26.6778  -32.4663   23.1464 H   0  0  0  0  0  0  0  0  0  0  0  0
  -25.0747  -34.0282   25.0566 H   0  0  0  0  0  0  0  0  0  0  0  0
  -22.7881  -31.3489   21.4131 H   0  0  0  0  0  0  0  0  0  0  0  0
  -23.3854  -35.9823   23.3648 H   0  0  0  0  0  0  0  0  0  0  0  0
  -24.3696  -36.8624   22.2204 H   0  0  0  0  0  0  0  0  0  0  0  0
  -23.7669  -37.6632   23.6516 H   0  0  0  0  0  0  0  0  0  0  0  0
  -25.9445  -31.6237   20.5691 H   0  0  0  0  0  0  0  0  0  0  0  0
  -26.7436  -31.0079   22.0108 H   0  0  0  0  0  0  0  0  0  0  0  0
  -28.0090  -29.1452   21.2057 H   0  0  0  0  0  0  0  0  0  0  0  0
  -26.1369  -26.0560   19.0719 H   0  0  0  0  0  0  0  0  0  0  0  0
  -24.0652  -27.2961   19.0997 H   0  0  0  0  0  0  0  0  0  0  0  0
  -23.6156  -30.5365   19.3930 H   0  0  0  0  0  0  0  0  0  0  0  0
  -22.7355  -29.1425   19.9945 H   0  0  0  0  0  0  0  0  0  0  0  0
  -25.1353  -36.2335   25.0565 H   0  0  0  0  0  0  0  0  0  0  0  0
  -21.0070  -28.3206   24.0793 H   0  0  0  0  0  0  0  0  0  0  0  0
  -20.5555  -26.2518   23.3550 H   0  0  0  0  0  0  0  0  0  0  0  0
  -21.5974  -26.8362   22.0454 H   0  0  0  0  0  0  0  0  0  0  0  0
  -19.6810  -25.6422   21.1488 H   0  0  0  0  0  0  0  0  0  0  0  0
  -19.6406  -27.3343   20.7034 H   0  0  0  0  0  0  0  0  0  0  0  0
  -17.4282  -26.6888   21.4113 H   0  0  0  0  0  0  0  0  0  0  0  0
  -18.0803  -26.0130   22.9049 H   0  0  0  0  0  0  0  0  0  0  0  0
  -19.7265  -30.6774   24.2204 H   0  0  0  0  0  0  0  0  0  0  0  0
  -17.5064  -31.5856   24.4483 H   0  0  0  0  0  0  0  0  0  0  0  0
  -15.5878  -30.2839   23.7407 H   0  0  0  0  0  0  0  0  0  0  0  0
  -15.9120  -28.0941   22.7766 H   0  0  0  0  0  0  0  0  0  0  0  0
  -24.5787  -30.7757   25.6817 H   0  0  0  0  0  0  0  0  0  0  0  0
  -25.0041  -32.2289   26.5536 H   0  0  0  0  0  0  0  0  0  0  0  0
  -25.8166  -30.7245   26.9138 H   0  0  0  0  0  0  0  0  0  0  0  0
  -26.2892  -29.7335   24.0803 H   0  0  0  0  0  0  0  0  0  0  0  0
  -27.4336  -29.7484   25.4006 H   0  0  0  0  0  0  0  0  0  0  0  0
  -27.8466  -30.4994   23.8779 H   0  0  0  0  0  0  0  0  0  0  0  0
  -27.2251  -33.3632   26.1242 H   0  0  0  0  0  0  0  0  0  0  0  0
  -28.3902  -32.6065   25.0645 H   0  0  0  0  0  0  0  0  0  0  0  0
  -27.9772  -31.8555   26.5872 H   0  0  0  0  0  0  0  0  0  0  0  0
  -28.2744  -38.0016   24.6863 H   0  0  0  0  0  0  0  0  0  0  0  0
  -28.0396  -36.2711   24.7461 H   0  0  0  0  0  0  0  0  0  0  0  0
  -27.1773  -37.3087   25.8564 H   0  0  0  0  0  0  0  0  0  0  0  0
  -20.9627  -29.9365   21.7352 H   0  0  0  0  0  0  0  0  0  0  0  0
  -26.0447  -38.2561   24.0273 H   0  0  0  0  0  0  0  0  0  0  0  0
  -31.3203  -26.0077   20.9903 H   0  0  0  0  0  0  0  0  0  0  0  0
  -29.4024  -24.9364   17.4065 H   0  0  0  0  0  0  0  0  0  0  0  0
  -32.3980  -23.8345   21.0632 H   0  0  0  0  0  0  0  0  0  0  0  0
  -30.4802  -22.7633   17.4793 H   0  0  0  0  0  0  0  0  0  0  0  0
  -34.0468  -22.4718   18.5000 H   0  0  0  0  0  0  0  0  0  0  0  0
  -34.1271  -20.8997   19.2584 H   0  0  0  0  0  0  0  0  0  0  0  0
  -34.0425  -22.3411   20.2424 H   0  0  0  0  0  0  0  0  0  0  0  0
  -28.9493  -19.5390   21.6498 H   0  0  0  0  0  0  0  0  0  0  0  0
  -29.8281  -20.8923   22.3201 H   0  0  0  0  0  0  0  0  0  0  0  0
  -30.5852  -19.3206   22.2234 H   0  0  0  0  0  0  0  0  0  0  0  0
  -29.3399  -27.2450   18.1480 H   0  0  0  0  0  0  0  0  0  0  0  0
  -30.2319  -27.7849   19.4811 H   0  0  0  0  0  0  0  0  0  0  0  0
  -31.2316  -18.4261   19.8726 H   0  0  0  0  0  0  0  0  0  0  0  0
  -30.9148  -19.4911   18.4848 H   0  0  0  0  0  0  0  0  0  0  0  0
  -31.8523  -21.3337   18.4181 H   0  0  0  0  0  0  0  0  0  0  0  0
  -29.7377  -21.0015   19.8990 H   0  0  0  0  0  0  0  0  0  0  0  0
  -28.4372  -18.7800   18.8234 H   0  0  0  0  0  0  0  0  0  0  0  0
  -31.7543  -21.5703   21.3288 H   0  0  0  0  0  0  0  0  0  0  0  0
  -32.4545  -20.2152   20.5886 H   0  0  0  0  0  0  0  0  0  0  0  0
  1 25  1  0
  1 30  2  0
  1 83  1  0
  2  3  1  0
  2 25  1  0
  2 85  1  0
  2 86  1  0
  3  4  1  0
  3 87  1  0
  3 88  1  0
  4  5  1  0
  4 89  1  0
  4 90  1  0
  5  6  1  0
  5 26  1  0
  5 91  1  6
  6 25  1  0
  6 92  1  0
  6 93  1  0
  7  8  2  0
  7 26  1  0
  7 29  1  0
  8  9  1  0
  8 22  1  0
  9 10  1  0
  9 27  2  0
 10 11  2  0
 10 15  1  0
 11 12  1  0
 11 94  1  0
 12 13  2  0
 12 95  1  0
 13 14  1  0
 13 31  1  0
 14 15  2  0
 14 96  1  0
 15 97  1  0
 16 17  2  0
 16 21  1  0
 16 31  1  0
 17 18  1  0
 17 98  1  0
 18 19  2  0
 18 99  1  0
 19 20  1  0
 19 24  1  0
 20 21  2  0
 20100  1  0
 21 23  1  0
 22 28  1  0
 22 32  2  0
 26 27  1  0
 28101  1  0
 28102  1  0
 29103  1  0
 29104  1  0
 33 34  1  0
 33 66  1  0
 33 70  2  0
 34 36  1  0
 34 59  1  0
 34105  1  6
 35 44  2  0
 35 45  1  0
 35 68  1  0
 36 56  1  0
 36106  1  0
 37 39  1  0
 37 47  1  0
 37 66  1  0
 37107  1  6
 38 43  2  0
 38 46  1  0
 38 47  1  0
 39 64  1  0
 39 67  2  0
 40 52  1  0
 40 53  2  0
 40 58  1  0
 41108  1  0
 41109  1  0
 41110  1  0
 42 43  1  0
 42 66  1  0
 42111  1  0
 42112  1  0
 43 44  1  0
 44113  1  0
 45 46  2  0
 45114  1  0
 46115  1  0
 47116  1  0
 47117  1  0
 48 41  1  0
 48 56  1  0
 48 65  1  0
 48118  1  1
 49 50  1  0
 49 53  1  0
 49 64  1  0
 49119  1  1
 50 51  1  0
 50120  1  0
 50121  1  0
 51 52  1  0
 51122  1  0
 51123  1  0
 52124  1  0
 52125  1  0
 53 54  1  0
 54 55  2  0
 54126  1  0
 55 57  1  0
 55127  1  0
 56 69  2  0
 57 58  2  0
 57128  1  0
 58129  1  0
 59 60  1  0
 59 61  1  0
 59 62  1  0
 60130  1  0
 60131  1  0
 60132  1  0
 61133  1  0
 61134  1  0
 61135  1  0
 62136  1  0
 62137  1  0
 62138  1  0
 63 65  1  0
 63139  1  0
 63140  1  0
 63141  1  0
 64142  1  0
 65143  1  0
 68 79  1  0
 71 73  2  0
 71 75  1  0
 71144  1  0
 72 74  1  0
 72 75  2  0
 72145  1  0
 73 76  1  0
 73146  1  0
 74 76  2  0
 74147  1  0
 75 79  1  0
 76 81  1  0
 77148  1  0
 77149  1  0
 77150  1  0
 78151  1  0
 78152  1  0
 78153  1  0
 79154  1  0
 79155  1  0
 80 82  1  0
 80 83  1  0
 80156  1  0
 80157  1  0
 81 77  1  0
 81 84  1  0
 81158  1  6
 82 78  1  0
 82 84  1  0
 82159  1  6
 83160  1  0
 84161  1  0
 84162  1  0
M  CHG  1  84   1
M  ISO  4   1 100  68 101  79 101  83 100
M  END
$$$$
45
     RDKit          3D

161169  0  0  0  0  0  0  0  0999 V2000
  -30.7652  -14.3608   20.6636 C   0  0  0  0  0  0  0  0  0100  0  0
  -30.4392  -12.2669   19.3775 C   0  0  0  0  0  0  0  0  0101  0  0
  -29.4791  -12.5281   18.1977 C   0  0  0  0  0  0  0  0  0102  0  0
  -27.9985  -12.3963   18.6038 C   0  0  0  0  0  0  0  0  0103  0  0
  -27.6639  -13.2170   19.8820 C   0  0  2  0  0  0  0  0  0104  0  0
  -28.6795  -12.9602   21.0279 C   0  0  0  0  0  0  0  0  0105  0  0
  -25.2633  -13.8245   20.5754 C   0  0  0  0  0  0  0  0  0106  0  0
  -24.1645  -13.0409   20.9408 C   0  0  0  0  0  0  0  0  0107  0  0
  -24.6400  -11.7009   20.8697 C   0  0  0  0  0  0  0  0  0108  0  0
  -23.9005  -10.4085   21.0420 C   0  0  0  0  0  0  0  0  0109  0  0
  -24.3588   -9.4123   21.9123 C   0  0  0  0  0  0  0  0  0110  0  0
  -23.6296   -8.2350   22.0803 C   0  0  0  0  0  0  0  0  0111  0  0
  -22.4385   -8.0419   21.3657 C   0  0  0  0  0  0  0  0  0112  0  0
  -22.0103   -9.0167   20.4678 C   0  0  0  0  0  0  0  0  0113  0  0
  -22.7317  -10.1925   20.3102 C   0  0  0  0  0  0  0  0  0114  0  0
  -21.6857   -6.0709   22.5391 C   0  0  0  0  0  0  0  0  0115  0  0
  -21.4064   -6.5490   23.8264 C   0  0  0  0  0  0  0  0  0116  0  0
  -21.3635   -5.6677   24.9085 C   0  0  0  0  0  0  0  0  0117  0  0
  -21.5973   -4.3067   24.7088 C   0  0  0  0  0  0  0  0  0118  0  0
  -21.8700   -3.8284   23.4282 C   0  0  0  0  0  0  0  0  0119  0  0
  -21.9144   -4.7056   22.3460 C   0  0  0  0  0  0  0  0  0120  0  0
  -22.8194  -13.5263   21.1763 C   0  0  0  0  0  0  0  0  0121  0  0
  -22.1559   -4.2206   21.1063 F   0  0  0  0  0  0  0  0  0122  0  0
  -21.5628   -3.4510   25.7555 F   0  0  0  0  0  0  0  0  0123  0  0
  -30.0261  -13.1803   20.4553 N   0  0  0  0  0  0  0  0  0124  0  0
  -26.2911  -12.9356   20.3443 N   0  0  0  0  0  0  0  0  0125  0  0
  -25.9236  -11.6675   20.5847 N   0  0  0  0  0  0  0  0  0126  0  0
  -22.0708  -12.7905   22.0005 N   0  0  0  0  0  0  0  0  0127  0  0
  -25.4117  -15.1773   20.4097 N   0  0  0  0  0  0  0  0  0128  0  0
  -31.7916  -14.6724   20.0536 O   0  0  0  0  0  0  0  0  0129  0  0
  -21.6670   -6.9022   21.4423 O   0  0  0  0  0  0  0  0  0130  0  0
  -22.3946  -14.5564   20.6568 O   0  0  0  0  0  0  0  0  0131  0  0
  -24.6048  -31.8614   23.2223 C   0  0  0  0  0  0  0  0  0100  0  0
  -25.8822  -32.4841   23.8616 C   0  0  1  0  0  0  0  0  0101  0  0
  -27.2536  -27.5042   20.1156 C   0  0  0  0  0  0  0  0  0102  0  0
  -25.5726  -33.8762   24.2210 N   0  0  0  0  0  0  0  0  0103  0  0
  -23.4066  -30.4859   21.5461 C   0  0  2  0  0  0  0  0  0104  0  0
  -24.8467  -28.9636   20.1247 C   0  0  0  0  0  0  0  0  0105  0  0
  -22.7412  -29.4652   22.5052 C   0  0  0  0  0  0  0  0  0106  0  0
  -18.0167  -28.1302   22.8626 C   0  0  0  0  0  0  0  0  0107  0  0
  -24.1342  -36.7390   23.2568 C   0  0  0  0  0  0  0  0  0108  0  0
  -25.9141  -30.8882   21.3456 C   0  0  0  0  0  0  0  0  0109  0  0
  -25.9930  -29.5029   20.7208 C   0  0  0  0  0  0  0  0  0110  0  0
  -27.1758  -28.7612   20.7331 C   0  0  0  0  0  0  0  0  0111  0  0
  -26.1032  -26.9836   19.5230 C   0  0  0  0  0  0  0  0  0112  0  0
  -24.9097  -27.7011   19.5331 C   0  0  0  0  0  0  0  0  0113  0  0
  -23.5715  -29.7899   20.1582 C   0  0  0  0  0  0  0  0  0114  0  0
  -25.3990  -36.3212   24.0232 C   0  0  1  0  0  0  0  0  0115  0  0
  -20.5793  -28.3813   23.1004 C   0  0  2  0  0  0  0  0  0116  0  0
  -20.6548  -26.9392   22.5411 C   0  0  0  0  0  0  0  0  0117  0  0
  -19.5615  -26.6407   21.5143 C   0  0  0  0  0  0  0  0  0118  0  0
  -18.1797  -26.7818   22.1673 C   0  0  0  0  0  0  0  0  0119  0  0
  -19.1385  -28.8769   23.2988 C   0  0  0  0  0  0  0  0  0120  0  0
  -18.9183  -30.1286   23.8878 C   0  0  0  0  0  0  0  0  0121  0  0
  -17.6396  -30.6493   24.0352 C   0  0  0  0  0  0  0  0  0122  0  0
  -25.9153  -34.9582   23.4993 C   0  0  0  0  0  0  0  0  0123  0  0
  -16.5415  -29.9068   23.6254 C   0  0  0  0  0  0  0  0  0124  0  0
  -16.7331  -28.6521   23.0586 C   0  0  0  0  0  0  0  0  0125  0  0
  -26.4583  -31.6439   25.0683 C   0  0  0  0  0  0  0  0  0126  0  0
  -25.3807  -31.3179   26.1374 C   0  0  0  0  0  0  0  0  0127  0  0
  -27.0530  -30.3024   24.5680 C   0  0  0  0  0  0  0  0  0128  0  0
  -27.6014  -32.4281   25.7651 C   0  0  0  0  0  0  0  0  0129  0  0
  -27.5629  -37.2220   24.8621 C   0  0  0  0  0  0  0  0  0130  0  0
  -21.4133  -29.3375   22.3735 N   0  0  0  0  0  0  0  0  0131  0  0
  -26.4706  -37.3372   23.9061 N   0  0  0  0  0  0  0  0  0132  0  0
  -24.6674  -31.0544   22.1178 N   0  0  0  0  0  0  0  0  0133  0  0
  -23.4259  -28.8150   23.2971 O   0  0  0  0  0  0  0  0  0134  0  0
  -28.3948  -26.7345   20.0089 O   0  0  0  0  0  0  0  0  0135  0  0
  -26.5870  -34.9065   22.4671 O   0  0  0  0  0  0  0  0  0136  0  0
  -23.5365  -32.1254   23.7833 O   0  0  0  0  0  0  0  0  0137  0  0
  -30.4967  -26.8398   17.4852 C   0  0  0  0  0  0  0  0  0  0  0  0
  -29.8344  -25.7662   16.9003 C   0  0  0  0  0  0  0  0  0  0  0  0
  -29.7420  -24.5583   17.5826 C   0  0  0  0  0  0  0  0  0  0  0  0
  -31.0450  -26.6555   18.7443 C   0  0  0  0  0  0  0  0  0  0  0  0
  -30.3243  -24.4760   18.8372 C   0  0  0  0  0  0  0  0  0  0  0  0
  -29.2333  -25.9354   15.5440 C   0  0  0  0  0  0  0  0  0  0  0  0
  -29.0325  -23.3953   16.9713 C   0  0  0  0  0  0  0  0  0  0  0  0
  -30.3476  -26.5729   23.4920 C   0  0  0  0  0  0  0  0  0  0  0  0
  -31.7718  -27.7973   19.4088 C   0  0  0  0  0  0  0  0  0  0  0  0
  -31.0698  -27.2827   22.3539 C   0  0  0  0  0  0  0  0  0  0  0  0
  -30.8675  -28.6910   20.2699 C   0  0  0  0  0  0  0  0  0  0  0  0
  -30.0971  -27.9492   21.3734 C   0  0  1  0  0  0  0  0  0  1  0  0
  -30.9756  -25.4972   19.4378 N   0  0  0  0  0  0  0  0  0  0  0  0
  -30.2372  -23.2505   19.5430 N   0  0  0  0  0  0  0  0  0  0  0  0
  -31.4485  -12.4701   19.0860 H   0  0  0  0  0  0  0  0  0  0  0  0
  -30.3970  -11.2460   19.6950 H   0  0  0  0  0  0  0  0  0  0  0  0
  -29.6870  -11.8204   17.4226 H   0  0  0  0  0  0  0  0  0  0  0  0
  -29.6375  -13.5326   17.8649 H   0  0  0  0  0  0  0  0  0  0  0  0
  -27.7830  -11.3650   18.7904 H   0  0  0  0  0  0  0  0  0  0  0  0
  -27.4028  -12.7801   17.8021 H   0  0  0  0  0  0  0  0  0  0  0  0
  -27.7353  -14.2503   19.6136 H   0  0  0  0  0  0  0  0  0  0  0  0
  -28.5890  -11.9550   21.3832 H   0  0  0  0  0  0  0  0  0  0  0  0
  -28.5005  -13.6134   21.8562 H   0  0  0  0  0  0  0  0  0  0  0  0
  -25.2399   -9.5495   22.4318 H   0  0  0  0  0  0  0  0  0  0  0  0
  -23.9663   -7.5070   22.7297 H   0  0  0  0  0  0  0  0  0  0  0  0
  -21.1515   -8.8641   19.9162 H   0  0  0  0  0  0  0  0  0  0  0  0
  -22.4016  -10.9115   19.6476 H   0  0  0  0  0  0  0  0  0  0  0  0
  -21.2319   -7.5552   23.9750 H   0  0  0  0  0  0  0  0  0  0  0  0
  -21.1589   -6.0228   25.8556 H   0  0  0  0  0  0  0  0  0  0  0  0
  -22.0396   -2.8212   23.2809 H   0  0  0  0  0  0  0  0  0  0  0  0
  -22.4401  -11.9703   22.4008 H   0  0  0  0  0  0  0  0  0  0  0  0
  -21.1493  -13.0679   22.2082 H   0  0  0  0  0  0  0  0  0  0  0  0
  -24.6538  -15.7807   20.5848 H   0  0  0  0  0  0  0  0  0  0  0  0
  -26.2762  -15.5453   20.1156 H   0  0  0  0  0  0  0  0  0  0  0  0
  -26.6778  -32.4663   23.1464 H   0  0  0  0  0  0  0  0  0  0  0  0
  -25.0747  -34.0282   25.0566 H   0  0  0  0  0  0  0  0  0  0  0  0
  -22.7881  -31.3489   21.4131 H   0  0  0  0  0  0  0  0  0  0  0  0
  -23.3854  -35.9823   23.3648 H   0  0  0  0  0  0  0  0  0  0  0  0
  -24.3696  -36.8624   22.2204 H   0  0  0  0  0  0  0  0  0  0  0  0
  -23.7669  -37.6632   23.6516 H   0  0  0  0  0  0  0  0  0  0  0  0
  -25.9445  -31.6237   20.5691 H   0  0  0  0  0  0  0  0  0  0  0  0
  -26.7436  -31.0079   22.0108 H   0  0  0  0  0  0  0  0  0  0  0  0
  -28.0090  -29.1452   21.2057 H   0  0  0  0  0  0  0  0  0  0  0  0
  -26.1369  -26.0560   19.0719 H   0  0  0  0  0  0  0  0  0  0  0  0
  -24.0652  -27.2961   19.0997 H   0  0  0  0  0  0  0  0  0  0  0  0
  -23.6156  -30.5365   19.3930 H   0  0  0  0  0  0  0  0  0  0  0  0
  -22.7355  -29.1425   19.9945 H   0  0  0  0  0  0  0  0  0  0  0  0
  -25.1353  -36.2335   25.0565 H   0  0  0  0  0  0  0  0  0  0  0  0
  -21.0070  -28.3206   24.0793 H   0  0  0  0  0  0  0  0  0  0  0  0
  -20.5555  -26.2518   23.3550 H   0  0  0  0  0  0  0  0  0  0  0  0
  -21.5974  -26.8362   22.0454 H   0  0  0  0  0  0  0  0  0  0  0  0
  -19.6810  -25.6422   21.1488 H   0  0  0  0  0  0  0  0  0  0  0  0
  -19.6406  -27.3343   20.7034 H   0  0  0  0  0  0  0  0  0  0  0  0
  -17.4282  -26.6888   21.4113 H   0  0  0  0  0  0  0  0  0  0  0  0
  -18.0803  -26.0130   22.9049 H   0  0  0  0  0  0  0  0  0  0  0  0
  -19.7265  -30.6774   24.2204 H   0  0  0  0  0  0  0  0  0  0  0  0
  -17.5064  -31.5856   24.4483 H   0  0  0  0  0  0  0  0  0  0  0  0
  -15.5878  -30.2839   23.7407 H   0  0  0  0  0  0  0  0  0  0  0  0
  -15.9120  -28.0941   22.7766 H   0  0  0  0  0  0  0  0  0  0  0  0
  -24.5787  -30.7757   25.6817 H   0  0  0  0  0  0  0  0  0  0  0  0
  -25.0041  -32.2289   26.5536 H   0  0  0  0  0  0  0  0  0  0  0  0
  -25.8166  -30.7245   26.9138 H   0  0  0  0  0  0  0  0  0  0  0  0
  -26.2892  -29.7335   24.0803 H   0  0  0  0  0  0  0  0  0  0  0  0
  -27.4336  -29.7484   25.4006 H   0  0  0  0  0  0  0  0  0  0  0  0
  -27.8466  -30.4994   23.8779 H   0  0  0  0  0  0  0  0  0  0  0  0
  -27.2251  -33.3632   26.1242 H   0  0  0  0  0  0  0  0  0  0  0  0
  -28.3902  -32.6065   25.0645 H   0  0  0  0  0  0  0  0  0  0  0  0
  -27.9772  -31.8555   26.5872 H   0  0  0  0  0  0  0  0  0  0  0  0
  -28.2744  -38.0016   24.6863 H   0  0  0  0  0  0  0  0  0  0  0  0
  -28.0396  -36.2711   24.7461 H   0  0  0  0  0  0  0  0  0  0  0  0
  -27.1773  -37.3087   25.8564 H   0  0  0  0  0  0  0  0  0  0  0  0
  -20.9627  -29.9365   21.7352 H   0  0  0  0  0  0  0  0  0  0  0  0
  -26.0447  -38.2561   24.0273 H   0  0  0  0  0  0  0  0  0  0  0  0
  -30.5774  -27.7454   16.9969 H   0  0  0  0  0  0  0  0  0  0  0  0
  -29.4136  -26.9309   15.1956 H   0  0  0  0  0  0  0  0  0  0  0  0
  -28.1788  -25.7616   15.5970 H   0  0  0  0  0  0  0  0  0  0  0  0
  -29.6767  -25.2349   14.8675 H   0  0  0  0  0  0  0  0  0  0  0  0
  -28.6602  -23.6714   16.0069 H   0  0  0  0  0  0  0  0  0  0  0  0
  -28.2160  -23.1054   17.5992 H   0  0  0  0  0  0  0  0  0  0  0  0
  -29.7128  -22.5757   16.8698 H   0  0  0  0  0  0  0  0  0  0  0  0
  -31.0663  -26.1256   24.1465 H   0  0  0  0  0  0  0  0  0  0  0  0
  -29.7093  -25.8136   23.0908 H   0  0  0  0  0  0  0  0  0  0  0  0
  -29.7599  -27.2810   24.0381 H   0  0  0  0  0  0  0  0  0  0  0  0
  -32.2172  -28.4025   18.6470 H   0  0  0  0  0  0  0  0  0  0  0  0
  -32.4977  -27.3645   20.0650 H   0  0  0  0  0  0  0  0  0  0  0  0
  -31.6591  -26.5664   21.8205 H   0  0  0  0  0  0  0  0  0  0  0  0
  -31.6804  -28.0501   22.7818 H   0  0  0  0  0  0  0  0  0  0  0  0
  -30.1555  -29.1639   19.6262 H   0  0  0  0  0  0  0  0  0  0  0  0
  -31.5124  -29.3861   20.7657 H   0  0  0  0  0  0  0  0  0  0  0  0
  -29.5503  -28.4772   22.1265 H   0  0  0  0  0  0  0  0  0  0  0  0
  -29.9496  -23.5506   20.4355 H   0  0  0  0  0  0  0  0  0  0  0  0
  1 25  1  0
  1 30  2  0
  1 84  1  0
  2  3  1  0
  2 25  1  0
  2 85  1  0
  2 86  1  0
  3  4  1  0
  3 87  1  0
  3 88  1  0
  4  5  1  0
  4 89  1  0
  4 90  1  0
  5  6  1  0
  5 26  1  0
  5 91  1  6
  6 25  1  0
  6 92  1  0
  6 93  1  0
  7  8  2  0
  7 26  1  0
  7 29  1  0
  8  9  1  0
  8 22  1  0
  9 10  1  0
  9 27  2  0
 10 11  2  0
 10 15  1  0
 11 12  1  0
 11 94  1  0
 12 13  2  0
 12 95  1  0
 13 14  1  0
 13 31  1  0
 14 15  2  0
 14 96  1  0
 15 97  1  0
 16 17  2  0
 16 21  1  0
 16 31  1  0
 17 18  1  0
 17 98  1  0
 18 19  2  0
 18 99  1  0
 19 20  1  0
 19 24  1  0
 20 21  2  0
 20100  1  0
 21 23  1  0
 22 28  1  0
 22 32  2  0
 26 27  1  0
 28101  1  0
 28102  1  0
 29103  1  0
 29104  1  0
 33 34  1  0
 33 66  1  0
 33 70  2  0
 34 36  1  0
 34 59  1  0
 34105  1  6
 35 44  2  0
 35 45  1  0
 35 68  1  0
 36 56  1  0
 36106  1  0
 37 39  1  0
 37 47  1  0
 37 66  1  0
 37107  1  6
 38 43  2  0
 38 46  1  0
 38 47  1  0
 39 64  1  0
 39 67  2  0
 40 52  1  0
 40 53  2  0
 40 58  1  0
 41108  1  0
 41109  1  0
 41110  1  0
 42 43  1  0
 42 66  1  0
 42111  1  0
 42112  1  0
 43 44  1  0
 44113  1  0
 45 46  2  0
 45114  1  0
 46115  1  0
 47116  1  0
 47117  1  0
 48 41  1  0
 48 56  1  0
 48 65  1  0
 48118  1  1
 49 50  1  0
 49 53  1  0
 49 64  1  0
 49119  1  1
 50 51  1  0
 50120  1  0
 50121  1  0
 51 52  1  0
 51122  1  0
 51123  1  0
 52124  1  0
 52125  1  0
 53 54  1  0
 54 55  2  0
 54126  1  0
 55 57  1  0
 55127  1  0
 56 69  2  0
 57 58  2  0
 57128  1  0
 58129  1  0
 59 60  1  0
 59 61  1  0
 59 62  1  0
 60130  1  0
 60131  1  0
 60132  1  0
 61133  1  0
 61134  1  0
 61135  1  0
 62136  1  0
 62137  1  0
 62138  1  0
 63 65  1  0
 63139  1  0
 63140  1  0
 63141  1  0
 64142  1  0
 65143  1  0
 68 82  1  0
 71 72  2  0
 71 74  1  0
 71144  1  0
 72 73  1  0
 72 76  1  0
 73 75  2  0
 73 77  1  0
 74 79  1  0
 74 83  2  0
 75 83  1  0
 75 84  1  0
 76145  1  0
 76146  1  0
 76147  1  0
 77148  1  0
 77149  1  0
 77150  1  0
 78 80  1  0
 78151  1  0
 78152  1  0
 78153  1  0
 79 81  1  0
 79154  1  0
 79155  1  0
 80156  1  0
 80157  1  0
 81 82  1  0
 81158  1  0
 81159  1  0
 82 80  1  0
 82160  1  1
 84161  1  0
M  ISO  4   1 100  68 101  82 101  84 100
M  END
$$$$
46
     RDKit          3D

156164  0  0  0  0  0  0  0  0999 V2000
  -30.7652  -14.3608   20.6636 C   0  0  0  0  0  0  0  0  0100  0  0
  -30.4392  -12.2669   19.3775 C   0  0  0  0  0  0  0  0  0101  0  0
  -29.4791  -12.5281   18.1977 C   0  0  0  0  0  0  0  0  0102  0  0
  -27.9985  -12.3963   18.6038 C   0  0  0  0  0  0  0  0  0103  0  0
  -27.6639  -13.2170   19.8820 C   0  0  2  0  0  0  0  0  0104  0  0
  -28.6795  -12.9602   21.0279 C   0  0  0  0  0  0  0  0  0105  0  0
  -25.2633  -13.8245   20.5754 C   0  0  0  0  0  0  0  0  0106  0  0
  -24.1645  -13.0409   20.9408 C   0  0  0  0  0  0  0  0  0107  0  0
  -24.6400  -11.7009   20.8697 C   0  0  0  0  0  0  0  0  0108  0  0
  -23.9005  -10.4085   21.0420 C   0  0  0  0  0  0  0  0  0109  0  0
  -24.3588   -9.4123   21.9123 C   0  0  0  0  0  0  0  0  0110  0  0
  -23.6296   -8.2350   22.0803 C   0  0  0  0  0  0  0  0  0111  0  0
  -22.4385   -8.0419   21.3657 C   0  0  0  0  0  0  0  0  0112  0  0
  -22.0103   -9.0167   20.4678 C   0  0  0  0  0  0  0  0  0113  0  0
  -22.7317  -10.1925   20.3102 C   0  0  0  0  0  0  0  0  0114  0  0
  -21.6857   -6.0709   22.5391 C   0  0  0  0  0  0  0  0  0115  0  0
  -21.4064   -6.5490   23.8264 C   0  0  0  0  0  0  0  0  0116  0  0
  -21.3635   -5.6677   24.9085 C   0  0  0  0  0  0  0  0  0117  0  0
  -21.5973   -4.3067   24.7088 C   0  0  0  0  0  0  0  0  0118  0  0
  -21.8700   -3.8284   23.4282 C   0  0  0  0  0  0  0  0  0119  0  0
  -21.9144   -4.7056   22.3460 C   0  0  0  0  0  0  0  0  0120  0  0
  -22.8194  -13.5263   21.1763 C   0  0  0  0  0  0  0  0  0121  0  0
  -22.1559   -4.2206   21.1063 F   0  0  0  0  0  0  0  0  0122  0  0
  -21.5628   -3.4510   25.7555 F   0  0  0  0  0  0  0  0  0123  0  0
  -30.0261  -13.1803   20.4553 N   0  0  0  0  0  0  0  0  0124  0  0
  -26.2911  -12.9356   20.3443 N   0  0  0  0  0  0  0  0  0125  0  0
  -25.9236  -11.6675   20.5847 N   0  0  0  0  0  0  0  0  0126  0  0
  -22.0708  -12.7905   22.0005 N   0  0  0  0  0  0  0  0  0127  0  0
  -25.4117  -15.1773   20.4097 N   0  0  0  0  0  0  0  0  0128  0  0
  -31.7916  -14.6724   20.0536 O   0  0  0  0  0  0  0  0  0129  0  0
  -21.6670   -6.9022   21.4423 O   0  0  0  0  0  0  0  0  0130  0  0
  -22.3946  -14.5564   20.6568 O   0  0  0  0  0  0  0  0  0131  0  0
  -24.6048  -31.8614   23.2223 C   0  0  0  0  0  0  0  0  0100  0  0
  -25.8822  -32.4841   23.8616 C   0  0  1  0  0  0  0  0  0101  0  0
  -27.2536  -27.5042   20.1156 C   0  0  0  0  0  0  0  0  0102  0  0
  -25.5726  -33.8762   24.2210 N   0  0  0  0  0  0  0  0  0103  0  0
  -23.4066  -30.4859   21.5461 C   0  0  2  0  0  0  0  0  0104  0  0
  -24.8467  -28.9636   20.1247 C   0  0  0  0  0  0  0  0  0105  0  0
  -22.7412  -29.4652   22.5052 C   0  0  0  0  0  0  0  0  0106  0  0
  -18.0167  -28.1302   22.8626 C   0  0  0  0  0  0  0  0  0107  0  0
  -24.1342  -36.7390   23.2568 C   0  0  0  0  0  0  0  0  0108  0  0
  -25.9141  -30.8882   21.3456 C   0  0  0  0  0  0  0  0  0109  0  0
  -25.9930  -29.5029   20.7208 C   0  0  0  0  0  0  0  0  0110  0  0
  -27.1758  -28.7612   20.7331 C   0  0  0  0  0  0  0  0  0111  0  0
  -26.1032  -26.9836   19.5230 C   0  0  0  0  0  0  0  0  0112  0  0
  -24.9097  -27.7011   19.5331 C   0  0  0  0  0  0  0  0  0113  0  0
  -23.5715  -29.7899   20.1582 C   0  0  0  0  0  0  0  0  0114  0  0
  -25.3990  -36.3212   24.0232 C   0  0  1  0  0  0  0  0  0115  0  0
  -20.5793  -28.3813   23.1004 C   0  0  2  0  0  0  0  0  0116  0  0
  -20.6548  -26.9392   22.5411 C   0  0  0  0  0  0  0  0  0117  0  0
  -19.5615  -26.6407   21.5143 C   0  0  0  0  0  0  0  0  0118  0  0
  -18.1797  -26.7818   22.1673 C   0  0  0  0  0  0  0  0  0119  0  0
  -19.1385  -28.8769   23.2988 C   0  0  0  0  0  0  0  0  0120  0  0
  -18.9183  -30.1286   23.8878 C   0  0  0  0  0  0  0  0  0121  0  0
  -17.6396  -30.6493   24.0352 C   0  0  0  0  0  0  0  0  0122  0  0
  -25.9153  -34.9582   23.4993 C   0  0  0  0  0  0  0  0  0123  0  0
  -16.5415  -29.9068   23.6254 C   0  0  0  0  0  0  0  0  0124  0  0
  -16.7331  -28.6521   23.0586 C   0  0  0  0  0  0  0  0  0125  0  0
  -26.4583  -31.6439   25.0683 C   0  0  0  0  0  0  0  0  0126  0  0
  -25.3807  -31.3179   26.1374 C   0  0  0  0  0  0  0  0  0127  0  0
  -27.0530  -30.3024   24.5680 C   0  0  0  0  0  0  0  0  0128  0  0
  -27.6014  -32.4281   25.7651 C   0  0  0  0  0  0  0  0  0129  0  0
  -27.5629  -37.2220   24.8621 C   0  0  0  0  0  0  0  0  0130  0  0
  -21.4133  -29.3375   22.3735 N   0  0  0  0  0  0  0  0  0131  0  0
  -26.4706  -37.3372   23.9061 N   0  0  0  0  0  0  0  0  0132  0  0
  -24.6674  -31.0544   22.1178 N   0  0  0  0  0  0  0  0  0133  0  0
  -23.4259  -28.8150   23.2971 O   0  0  0  0  0  0  0  0  0134  0  0
  -28.3948  -26.7345   20.0089 O   0  0  0  0  0  0  0  0  0135  0  0
  -26.5870  -34.9065   22.4671 O   0  0  0  0  0  0  0  0  0136  0  0
  -23.5365  -32.1254   23.7833 O   0  0  0  0  0  0  0  0  0137  0  0
  -27.8066  -22.7799   21.0135 C   0  0  0  0  0  0  0  0  0  0  0  0
  -26.7317  -21.9284   21.2430 C   0  0  0  0  0  0  0  0  0  0  0  0
  -27.5784  -24.0648   20.5337 C   0  0  0  0  0  0  0  0  0  0  0  0
  -25.4581  -22.4060   20.9790 C   0  0  0  0  0  0  0  0  0  0  0  0
  -26.2669  -24.4467   20.3013 C   0  0  0  0  0  0  0  0  0  0  0  0
  -24.2811  -21.5194   21.2143 C   0  0  0  0  0  0  0  0  0  0  0  0
  -30.5137  -26.0685   21.2623 C   0  0  0  0  0  0  0  0  0  0  0  0
  -29.6404  -27.1388   21.8980 C   0  0  0  0  0  0  0  0  0  1  0  0
  -29.7799  -24.7438   21.1238 C   0  0  0  0  0  0  0  0  0  0  0  0
  -25.9677  -25.8161   19.7850 C   0  0  0  0  0  0  0  0  0  0  0  0
  -25.1971  -23.6476   20.5124 N   0  0  0  0  0  0  0  0  0  0  0  0
  -24.3412  -20.3071   20.4285 N   0  0  0  0  0  0  0  0  0  0  0  0
  -28.6310  -24.9122   20.3043 O   0  0  0  0  0  0  0  0  0  0  0  0
  -26.3975  -26.7640   20.6576 F   0  0  0  0  0  0  0  0  0  0  0  0
  -24.6286  -25.9958   19.6472 F   0  0  0  0  0  0  0  0  0  0  0  0
  -31.4485  -12.4701   19.0860 H   0  0  0  0  0  0  0  0  0  0  0  0
  -30.3970  -11.2460   19.6950 H   0  0  0  0  0  0  0  0  0  0  0  0
  -29.6870  -11.8204   17.4226 H   0  0  0  0  0  0  0  0  0  0  0  0
  -29.6375  -13.5326   17.8649 H   0  0  0  0  0  0  0  0  0  0  0  0
  -27.7830  -11.3650   18.7904 H   0  0  0  0  0  0  0  0  0  0  0  0
  -27.4028  -12.7801   17.8021 H   0  0  0  0  0  0  0  0  0  0  0  0
  -27.7353  -14.2503   19.6136 H   0  0  0  0  0  0  0  0  0  0  0  0
  -28.5890  -11.9550   21.3832 H   0  0  0  0  0  0  0  0  0  0  0  0
  -28.5005  -13.6134   21.8562 H   0  0  0  0  0  0  0  0  0  0  0  0
  -25.2399   -9.5495   22.4318 H   0  0  0  0  0  0  0  0  0  0  0  0
  -23.9663   -7.5070   22.7297 H   0  0  0  0  0  0  0  0  0  0  0  0
  -21.1515   -8.8641   19.9162 H   0  0  0  0  0  0  0  0  0  0  0  0
  -22.4016  -10.9115   19.6476 H   0  0  0  0  0  0  0  0  0  0  0  0
  -21.2319   -7.5552   23.9750 H   0  0  0  0  0  0  0  0  0  0  0  0
  -21.1589   -6.0228   25.8556 H   0  0  0  0  0  0  0  0  0  0  0  0
  -22.0396   -2.8212   23.2809 H   0  0  0  0  0  0  0  0  0  0  0  0
  -22.4401  -11.9703   22.4008 H   0  0  0  0  0  0  0  0  0  0  0  0
  -21.1493  -13.0679   22.2082 H   0  0  0  0  0  0  0  0  0  0  0  0
  -24.6538  -15.7807   20.5848 H   0  0  0  0  0  0  0  0  0  0  0  0
  -26.2762  -15.5453   20.1156 H   0  0  0  0  0  0  0  0  0  0  0  0
  -26.6778  -32.4663   23.1464 H   0  0  0  0  0  0  0  0  0  0  0  0
  -25.0747  -34.0282   25.0566 H   0  0  0  0  0  0  0  0  0  0  0  0
  -22.7881  -31.3489   21.4131 H   0  0  0  0  0  0  0  0  0  0  0  0
  -23.3854  -35.9823   23.3648 H   0  0  0  0  0  0  0  0  0  0  0  0
  -24.3696  -36.8624   22.2204 H   0  0  0  0  0  0  0  0  0  0  0  0
  -23.7669  -37.6632   23.6516 H   0  0  0  0  0  0  0  0  0  0  0  0
  -25.9445  -31.6237   20.5691 H   0  0  0  0  0  0  0  0  0  0  0  0
  -26.7436  -31.0079   22.0108 H   0  0  0  0  0  0  0  0  0  0  0  0
  -28.0090  -29.1452   21.2057 H   0  0  0  0  0  0  0  0  0  0  0  0
  -26.1369  -26.0560   19.0719 H   0  0  0  0  0  0  0  0  0  0  0  0
  -24.0652  -27.2961   19.0997 H   0  0  0  0  0  0  0  0  0  0  0  0
  -23.6156  -30.5365   19.3930 H   0  0  0  0  0  0  0  0  0  0  0  0
  -22.7355  -29.1425   19.9945 H   0  0  0  0  0  0  0  0  0  0  0  0
  -25.1353  -36.2335   25.0565 H   0  0  0  0  0  0  0  0  0  0  0  0
  -21.0070  -28.3206   24.0793 H   0  0  0  0  0  0  0  0  0  0  0  0
  -20.5555  -26.2518   23.3550 H   0  0  0  0  0  0  0  0  0  0  0  0
  -21.5974  -26.8362   22.0454 H   0  0  0  0  0  0  0  0  0  0  0  0
  -19.6810  -25.6422   21.1488 H   0  0  0  0  0  0  0  0  0  0  0  0
  -19.6406  -27.3343   20.7034 H   0  0  0  0  0  0  0  0  0  0  0  0
  -17.4282  -26.6888   21.4113 H   0  0  0  0  0  0  0  0  0  0  0  0
  -18.0803  -26.0130   22.9049 H   0  0  0  0  0  0  0  0  0  0  0  0
  -19.7265  -30.6774   24.2204 H   0  0  0  0  0  0  0  0  0  0  0  0
  -17.5064  -31.5856   24.4483 H   0  0  0  0  0  0  0  0  0  0  0  0
  -15.5878  -30.2839   23.7407 H   0  0  0  0  0  0  0  0  0  0  0  0
  -15.9120  -28.0941   22.7766 H   0  0  0  0  0  0  0  0  0  0  0  0
  -24.5787  -30.7757   25.6817 H   0  0  0  0  0  0  0  0  0  0  0  0
  -25.0041  -32.2289   26.5536 H   0  0  0  0  0  0  0  0  0  0  0  0
  -25.8166  -30.7245   26.9138 H   0  0  0  0  0  0  0  0  0  0  0  0
  -26.2892  -29.7335   24.0803 H   0  0  0  0  0  0  0  0  0  0  0  0
  -27.4336  -29.7484   25.4006 H   0  0  0  0  0  0  0  0  0  0  0  0
  -27.8466  -30.4994   23.8779 H   0  0  0  0  0  0  0  0  0  0  0  0
  -27.2251  -33.3632   26.1242 H   0  0  0  0  0  0  0  0  0  0  0  0
  -28.3902  -32.6065   25.0645 H   0  0  0  0  0  0  0  0  0  0  0  0
  -27.9772  -31.8555   26.5872 H   0  0  0  0  0  0  0  0  0  0  0  0
  -28.2744  -38.0016   24.6863 H   0  0  0  0  0  0  0  0  0  0  0  0
  -28.0396  -36.2711   24.7461 H   0  0  0  0  0  0  0  0  0  0  0  0
  -27.1773  -37.3087   25.8564 H   0  0  0  0  0  0  0  0  0  0  0  0
  -20.9627  -29.9365   21.7352 H   0  0  0  0  0  0  0  0  0  0  0  0
  -26.0447  -38.2561   24.0273 H   0  0  0  0  0  0  0  0  0  0  0  0
  -28.7700  -22.4595   21.1985 H   0  0  0  0  0  0  0  0  0  0  0  0
  -26.8779  -20.9708   21.5988 H   0  0  0  0  0  0  0  0  0  0  0  0
  -23.3908  -22.0535   20.9553 H   0  0  0  0  0  0  0  0  0  0  0  0
  -24.2830  -21.2403   22.2472 H   0  0  0  0  0  0  0  0  0  0  0  0
  -31.3799  -25.9215   21.8730 H   0  0  0  0  0  0  0  0  0  0  0  0
  -30.7838  -26.4012   20.2819 H   0  0  0  0  0  0  0  0  0  0  0  0
  -30.0738  -28.1140   21.9750 H   0  0  0  0  0  0  0  0  0  0  0  0
  -29.2652  -27.1116   22.8997 H   0  0  0  0  0  0  0  0  0  0  0  0
  -29.4785  -24.4020   22.0919 H   0  0  0  0  0  0  0  0  0  0  0  0
  -30.4319  -24.0246   20.6739 H   0  0  0  0  0  0  0  0  0  0  0  0
  -26.4664  -25.9080   18.8428 H   0  0  0  0  0  0  0  0  0  0  0  0
  -23.5932  -20.1348   19.8121 H   0  0  0  0  0  0  0  0  0  0  0  0
  1 25  1  0
  1 30  2  0
  1 82  1  0
  2  3  1  0
  2 25  1  0
  2 86  1  0
  2 87  1  0
  3  4  1  0
  3 88  1  0
  3 89  1  0
  4  5  1  0
  4 90  1  0
  4 91  1  0
  5  6  1  0
  5 26  1  0
  5 92  1  6
  6 25  1  0
  6 93  1  0
  6 94  1  0
  7  8  2  0
  7 26  1  0
  7 29  1  0
  8  9  1  0
  8 22  1  0
  9 10  1  0
  9 27  2  0
 10 11  2  0
 10 15  1  0
 11 12  1  0
 11 95  1  0
 12 13  2  0
 12 96  1  0
 13 14  1  0
 13 31  1  0
 14 15  2  0
 14 97  1  0
 15 98  1  0
 16 17  2  0
 16 21  1  0
 16 31  1  0
 17 18  1  0
 17 99  1  0
 18 19  2  0
 18100  1  0
 19 20  1  0
 19 24  1  0
 20 21  2  0
 20101  1  0
 21 23  1  0
 22 28  1  0
 22 32  2  0
 26 27  1  0
 28102  1  0
 28103  1  0
 29104  1  0
 29105  1  0
 33 34  1  0
 33 66  1  0
 33 70  2  0
 34 36  1  0
 34 59  1  0
 34106  1  6
 35 44  2  0
 35 45  1  0
 35 68  1  0
 36 56  1  0
 36107  1  0
 37 39  1  0
 37 47  1  0
 37 66  1  0
 37108  1  6
 38 43  2  0
 38 46  1  0
 38 47  1  0
 39 64  1  0
 39 67  2  0
 40 52  1  0
 40 53  2  0
 40 58  1  0
 41109  1  0
 41110  1  0
 41111  1  0
 42 43  1  0
 42 66  1  0
 42112  1  0
 42113  1  0
 43 44  1  0
 44114  1  0
 45 46  2  0
 45115  1  0
 46116  1  0
 47117  1  0
 47118  1  0
 48 41  1  0
 48 56  1  0
 48 65  1  0
 48119  1  1
 49 50  1  0
 49 53  1  0
 49 64  1  0
 49120  1  1
 50 51  1  0
 50121  1  0
 50122  1  0
 51 52  1  0
 51123  1  0
 51124  1  0
 52125  1  0
 52126  1  0
 53 54  1  0
 54 55  2  0
 54127  1  0
 55 57  1  0
 55128  1  0
 56 69  2  0
 57 58  2  0
 57129  1  0
 58130  1  0
 59 60  1  0
 59 61  1  0
 59 62  1  0
 60131  1  0
 60132  1  0
 60133  1  0
 61134  1  0
 61135  1  0
 61136  1  0
 62137  1  0
 62138  1  0
 62139  1  0
 63 65  1  0
 63140  1  0
 63141  1  0
 63142  1  0
 64143  1  0
 65144  1  0
 68 78  1  0
 71 72  2  0
 71 73  1  0
 71145  1  0
 72 74  1  0
 72146  1  0
 73 75  2  0
 73 83  1  0
 74 76  1  0
 74 81  2  0
 75 80  1  0
 75 81  1  0
 76 82  1  0
 76147  1  0
 76148  1  0
 77 78  1  0
 77 79  1  0
 77149  1  0
 77150  1  0
 78151  1  0
 78152  1  0
 79 83  1  0
 79153  1  0
 79154  1  0
 80 84  1  0
 80 85  1  0
 80155  1  0
 82156  1  0
M  ISO  4   1 100  68 101  78 101  82 100
M  END
$$$$
47
     RDKit          3D

171179  0  0  0  0  0  0  0  0999 V2000
  -30.7652  -14.3608   20.6636 C   0  0  0  0  0  0  0  0  0100  0  0
  -30.4392  -12.2669   19.3775 C   0  0  0  0  0  0  0  0  0101  0  0
  -29.4791  -12.5281   18.1977 C   0  0  0  0  0  0  0  0  0102  0  0
  -27.9985  -12.3963   18.6038 C   0  0  0  0  0  0  0  0  0103  0  0
  -27.6639  -13.2170   19.8820 C   0  0  2  0  0  0  0  0  0104  0  0
  -28.6795  -12.9602   21.0279 C   0  0  0  0  0  0  0  0  0105  0  0
  -25.2633  -13.8245   20.5754 C   0  0  0  0  0  0  0  0  0106  0  0
  -24.1645  -13.0409   20.9408 C   0  0  0  0  0  0  0  0  0107  0  0
  -24.6400  -11.7009   20.8697 C   0  0  0  0  0  0  0  0  0108  0  0
  -23.9005  -10.4085   21.0420 C   0  0  0  0  0  0  0  0  0109  0  0
  -24.3588   -9.4123   21.9123 C   0  0  0  0  0  0  0  0  0110  0  0
  -23.6296   -8.2350   22.0803 C   0  0  0  0  0  0  0  0  0111  0  0
  -22.4385   -8.0419   21.3657 C   0  0  0  0  0  0  0  0  0112  0  0
  -22.0103   -9.0167   20.4678 C   0  0  0  0  0  0  0  0  0113  0  0
  -22.7317  -10.1925   20.3102 C   0  0  0  0  0  0  0  0  0114  0  0
  -21.6857   -6.0709   22.5391 C   0  0  0  0  0  0  0  0  0115  0  0
  -21.4064   -6.5490   23.8264 C   0  0  0  0  0  0  0  0  0116  0  0
  -21.3635   -5.6677   24.9085 C   0  0  0  0  0  0  0  0  0117  0  0
  -21.5973   -4.3067   24.7088 C   0  0  0  0  0  0  0  0  0118  0  0
  -21.8700   -3.8284   23.4282 C   0  0  0  0  0  0  0  0  0119  0  0
  -21.9144   -4.7056   22.3460 C   0  0  0  0  0  0  0  0  0120  0  0
  -22.8194  -13.5263   21.1763 C   0  0  0  0  0  0  0  0  0121  0  0
  -22.1559   -4.2206   21.1063 F   0  0  0  0  0  0  0  0  0122  0  0
  -21.5628   -3.4510   25.7555 F   0  0  0  0  0  0  0  0  0123  0  0
  -30.0261  -13.1803   20.4553 N   0  0  0  0  0  0  0  0  0124  0  0
  -26.2911  -12.9356   20.3443 N   0  0  0  0  0  0  0  0  0125  0  0
  -25.9236  -11.6675   20.5847 N   0  0  0  0  0  0  0  0  0126  0  0
  -22.0708  -12.7905   22.0005 N   0  0  0  0  0  0  0  0  0127  0  0
  -25.4117  -15.1773   20.4097 N   0  0  0  0  0  0  0  0  0128  0  0
  -31.7916  -14.6724   20.0536 O   0  0  0  0  0  0  0  0  0129  0  0
  -21.6670   -6.9022   21.4423 O   0  0  0  0  0  0  0  0  0130  0  0
  -22.3946  -14.5564   20.6568 O   0  0  0  0  0  0  0  0  0131  0  0
  -24.6048  -31.8614   23.2223 C   0  0  0  0  0  0  0  0  0100  0  0
  -25.8822  -32.4841   23.8616 C   0  0  1  0  0  0  0  0  0101  0  0
  -27.2536  -27.5042   20.1156 C   0  0  0  0  0  0  0  0  0102  0  0
  -25.5726  -33.8762   24.2210 N   0  0  0  0  0  0  0  0  0103  0  0
  -23.4066  -30.4859   21.5461 C   0  0  2  0  0  0  0  0  0104  0  0
  -24.8467  -28.9636   20.1247 C   0  0  0  0  0  0  0  0  0105  0  0
  -22.7412  -29.4652   22.5052 C   0  0  0  0  0  0  0  0  0106  0  0
  -18.0167  -28.1302   22.8626 C   0  0  0  0  0  0  0  0  0107  0  0
  -24.1342  -36.7390   23.2568 C   0  0  0  0  0  0  0  0  0108  0  0
  -25.9141  -30.8882   21.3456 C   0  0  0  0  0  0  0  0  0109  0  0
  -25.9930  -29.5029   20.7208 C   0  0  0  0  0  0  0  0  0110  0  0
  -27.1758  -28.7612   20.7331 C   0  0  0  0  0  0  0  0  0111  0  0
  -26.1032  -26.9836   19.5230 C   0  0  0  0  0  0  0  0  0112  0  0
  -24.9097  -27.7011   19.5331 C   0  0  0  0  0  0  0  0  0113  0  0
  -23.5715  -29.7899   20.1582 C   0  0  0  0  0  0  0  0  0114  0  0
  -25.3990  -36.3212   24.0232 C   0  0  1  0  0  0  0  0  0115  0  0
  -20.5793  -28.3813   23.1004 C   0  0  2  0  0  0  0  0  0116  0  0
  -20.6548  -26.9392   22.5411 C   0  0  0  0  0  0  0  0  0117  0  0
  -19.5615  -26.6407   21.5143 C   0  0  0  0  0  0  0  0  0118  0  0
  -18.1797  -26.7818   22.1673 C   0  0  0  0  0  0  0  0  0119  0  0
  -19.1385  -28.8769   23.2988 C   0  0  0  0  0  0  0  0  0120  0  0
  -18.9183  -30.1286   23.8878 C   0  0  0  0  0  0  0  0  0121  0  0
  -17.6396  -30.6493   24.0352 C   0  0  0  0  0  0  0  0  0122  0  0
  -25.9153  -34.9582   23.4993 C   0  0  0  0  0  0  0  0  0123  0  0
  -16.5415  -29.9068   23.6254 C   0  0  0  0  0  0  0  0  0124  0  0
  -16.7331  -28.6521   23.0586 C   0  0  0  0  0  0  0  0  0125  0  0
  -26.4583  -31.6439   25.0683 C   0  0  0  0  0  0  0  0  0126  0  0
  -25.3807  -31.3179   26.1374 C   0  0  0  0  0  0  0  0  0127  0  0
  -27.0530  -30.3024   24.5680 C   0  0  0  0  0  0  0  0  0128  0  0
  -27.6014  -32.4281   25.7651 C   0  0  0  0  0  0  0  0  0129  0  0
  -27.5629  -37.2220   24.8621 C   0  0  0  0  0  0  0  0  0130  0  0
  -21.4133  -29.3375   22.3735 N   0  0  0  0  0  0  0  0  0131  0  0
  -26.4706  -37.3372   23.9061 N   0  0  0  0  0  0  0  0  0132  0  0
  -24.6674  -31.0544   22.1178 N   0  0  0  0  0  0  0  0  0133  0  0
  -23.4259  -28.8150   23.2971 O   0  0  0  0  0  0  0  0  0134  0  0
  -28.3948  -26.7345   20.0089 O   0  0  0  0  0  0  0  0  0135  0  0
  -26.5870  -34.9065   22.4671 O   0  0  0  0  0  0  0  0  0136  0  0
  -23.5365  -32.1254   23.7833 O   0  0  0  0  0  0  0  0  0137  0  0
  -27.1073  -19.0836   21.1539 C   0  0  0  0  0  0  0  0  0  0  0  0
  -27.2200  -18.3633   19.9496 C   0  0  0  0  0  0  0  0  0  0  0  0
  -28.3710  -19.0539   21.6912 C   0  0  0  0  0  0  0  0  0  0  0  0
  -28.2433  -19.0388   24.2086 C   0  0  0  0  0  0  0  0  0  0  0  0
  -28.8127  -21.1698   22.9881 C   0  0  0  0  0  0  0  0  0  0  0  0
  -24.9383  -18.6665   16.8214 C   0  0  0  0  0  0  0  0  0  0  0  0
  -25.7954  -21.6284   17.2676 C   0  0  0  0  0  0  0  0  0  0  0  0
  -26.1310  -18.0754   18.9448 C   0  0  0  0  0  0  0  0  0  0  0  0
  -30.5407  -18.0396   20.9308 C   0  0  0  0  0  0  0  0  0  0  0  0
  -30.8206  -16.8899   21.8951 C   0  0  0  0  0  0  0  0  0  0  0  0
  -24.3543  -20.6987   19.1144 C   0  0  0  0  0  0  0  0  0  1  0  0
  -28.9060  -19.6263   22.9402 C   0  0  0  0  0  0  0  0  0  0  0  0
  -25.9881  -19.1449   17.8343 C   0  0  2  0  0  0  0  0  0  0  0  0
  -25.6986  -20.5743   18.3823 C   0  0  1  0  0  0  0  0  0  0  0  0
  -28.4575  -17.9094   19.7341 N   0  0  0  0  0  0  0  0  0  0  0  0
  -29.1341  -18.3455   20.8102 N   0  0  0  0  0  0  0  0  0  0  0  0
  -30.1539  -15.6682   21.5027 N   0  0  0  0  0  0  0  0  0  0  0  0
  -31.4485  -12.4701   19.0860 H   0  0  0  0  0  0  0  0  0  0  0  0
  -30.3970  -11.2460   19.6950 H   0  0  0  0  0  0  0  0  0  0  0  0
  -29.6870  -11.8204   17.4226 H   0  0  0  0  0  0  0  0  0  0  0  0
  -29.6375  -13.5326   17.8649 H   0  0  0  0  0  0  0  0  0  0  0  0
  -27.7830  -11.3650   18.7904 H   0  0  0  0  0  0  0  0  0  0  0  0
  -27.4028  -12.7801   17.8021 H   0  0  0  0  0  0  0  0  0  0  0  0
  -27.7353  -14.2503   19.6136 H   0  0  0  0  0  0  0  0  0  0  0  0
  -28.5890  -11.9550   21.3832 H   0  0  0  0  0  0  0  0  0  0  0  0
  -28.5005  -13.6134   21.8562 H   0  0  0  0  0  0  0  0  0  0  0  0
  -25.2399   -9.5495   22.4318 H   0  0  0  0  0  0  0  0  0  0  0  0
  -23.9663   -7.5070   22.7297 H   0  0  0  0  0  0  0  0  0  0  0  0
  -21.1515   -8.8641   19.9162 H   0  0  0  0  0  0  0  0  0  0  0  0
  -22.4016  -10.9115   19.6476 H   0  0  0  0  0  0  0  0  0  0  0  0
  -21.2319   -7.5552   23.9750 H   0  0  0  0  0  0  0  0  0  0  0  0
  -21.1589   -6.0228   25.8556 H   0  0  0  0  0  0  0  0  0  0  0  0
  -22.0396   -2.8212   23.2809 H   0  0  0  0  0  0  0  0  0  0  0  0
  -22.4401  -11.9703   22.4008 H   0  0  0  0  0  0  0  0  0  0  0  0
  -21.1493  -13.0679   22.2082 H   0  0  0  0  0  0  0  0  0  0  0  0
  -24.6538  -15.7807   20.5848 H   0  0  0  0  0  0  0  0  0  0  0  0
  -26.2762  -15.5453   20.1156 H   0  0  0  0  0  0  0  0  0  0  0  0
  -26.6778  -32.4663   23.1464 H   0  0  0  0  0  0  0  0  0  0  0  0
  -25.0747  -34.0282   25.0566 H   0  0  0  0  0  0  0  0  0  0  0  0
  -22.7881  -31.3489   21.4131 H   0  0  0  0  0  0  0  0  0  0  0  0
  -23.3854  -35.9823   23.3648 H   0  0  0  0  0  0  0  0  0  0  0  0
  -24.3696  -36.8624   22.2204 H   0  0  0  0  0  0  0  0  0  0  0  0
  -23.7669  -37.6632   23.6516 H   0  0  0  0  0  0  0  0  0  0  0  0
  -25.9445  -31.6237   20.5691 H   0  0  0  0  0  0  0  0  0  0  0  0
  -26.7436  -31.0079   22.0108 H   0  0  0  0  0  0  0  0  0  0  0  0
  -28.0090  -29.1452   21.2057 H   0  0  0  0  0  0  0  0  0  0  0  0
  -26.1369  -26.0560   19.0719 H   0  0  0  0  0  0  0  0  0  0  0  0
  -24.0652  -27.2961   19.0997 H   0  0  0  0  0  0  0  0  0  0  0  0
  -23.6156  -30.5365   19.3930 H   0  0  0  0  0  0  0  0  0  0  0  0
  -22.7355  -29.1425   19.9945 H   0  0  0  0  0  0  0  0  0  0  0  0
  -25.1353  -36.2335   25.0565 H   0  0  0  0  0  0  0  0  0  0  0  0
  -21.0070  -28.3206   24.0793 H   0  0  0  0  0  0  0  0  0  0  0  0
  -20.5555  -26.2518   23.3550 H   0  0  0  0  0  0  0  0  0  0  0  0
  -21.5974  -26.8362   22.0454 H   0  0  0  0  0  0  0  0  0  0  0  0
  -19.6810  -25.6422   21.1488 H   0  0  0  0  0  0  0  0  0  0  0  0
  -19.6406  -27.3343   20.7034 H   0  0  0  0  0  0  0  0  0  0  0  0
  -17.4282  -26.6888   21.4113 H   0  0  0  0  0  0  0  0  0  0  0  0
  -18.0803  -26.0130   22.9049 H   0  0  0  0  0  0  0  0  0  0  0  0
  -19.7265  -30.6774   24.2204 H   0  0  0  0  0  0  0  0  0  0  0  0
  -17.5064  -31.5856   24.4483 H   0  0  0  0  0  0  0  0  0  0  0  0
  -15.5878  -30.2839   23.7407 H   0  0  0  0  0  0  0  0  0  0  0  0
  -15.9120  -28.0941   22.7766 H   0  0  0  0  0  0  0  0  0  0  0  0
  -24.5787  -30.7757   25.6817 H   0  0  0  0  0  0  0  0  0  0  0  0
  -25.0041  -32.2289   26.5536 H   0  0  0  0  0  0  0  0  0  0  0  0
  -25.8166  -30.7245   26.9138 H   0  0  0  0  0  0  0  0  0  0  0  0
  -26.2892  -29.7335   24.0803 H   0  0  0  0  0  0  0  0  0  0  0  0
  -27.4336  -29.7484   25.4006 H   0  0  0  0  0  0  0  0  0  0  0  0
  -27.8466  -30.4994   23.8779 H   0  0  0  0  0  0  0  0  0  0  0  0
  -27.2251  -33.3632   26.1242 H   0  0  0  0  0  0  0  0  0  0  0  0
  -28.3902  -32.6065   25.0645 H   0  0  0  0  0  0  0  0  0  0  0  0
  -27.9772  -31.8555   26.5872 H   0  0  0  0  0  0  0  0  0  0  0  0
  -28.2744  -38.0016   24.6863 H   0  0  0  0  0  0  0  0  0  0  0  0
  -28.0396  -36.2711   24.7461 H   0  0  0  0  0  0  0  0  0  0  0  0
  -27.1773  -37.3087   25.8564 H   0  0  0  0  0  0  0  0  0  0  0  0
  -20.9627  -29.9365   21.7352 H   0  0  0  0  0  0  0  0  0  0  0  0
  -26.0447  -38.2561   24.0273 H   0  0  0  0  0  0  0  0  0  0  0  0
  -26.2646  -19.5329   21.5451 H   0  0  0  0  0  0  0  0  0  0  0  0
  -28.3048  -17.9709   24.1811 H   0  0  0  0  0  0  0  0  0  0  0  0
  -27.2161  -19.3361   24.2446 H   0  0  0  0  0  0  0  0  0  0  0  0
  -28.7507  -19.4030   25.0774 H   0  0  0  0  0  0  0  0  0  0  0  0
  -29.2697  -21.5821   22.1128 H   0  0  0  0  0  0  0  0  0  0  0  0
  -29.3192  -21.5309   23.8587 H   0  0  0  0  0  0  0  0  0  0  0  0
  -27.7846  -21.4640   23.0259 H   0  0  0  0  0  0  0  0  0  0  0  0
  -25.1910  -17.6833   16.4832 H   0  0  0  0  0  0  0  0  0  0  0  0
  -24.9166  -19.3360   15.9871 H   0  0  0  0  0  0  0  0  0  0  0  0
  -23.9756  -18.6467   17.2879 H   0  0  0  0  0  0  0  0  0  0  0  0
  -25.5920  -22.5971   17.6741 H   0  0  0  0  0  0  0  0  0  0  0  0
  -25.0811  -21.4054   16.5028 H   0  0  0  0  0  0  0  0  0  0  0  0
  -26.7805  -21.6165   16.8500 H   0  0  0  0  0  0  0  0  0  0  0  0
  -25.2004  -18.0104   19.4689 H   0  0  0  0  0  0  0  0  0  0  0  0
  -26.3988  -17.1616   18.4568 H   0  0  0  0  0  0  0  0  0  0  0  0
  -30.9158  -17.7733   19.9647 H   0  0  0  0  0  0  0  0  0  0  0  0
  -31.0252  -18.9100   21.3214 H   0  0  0  0  0  0  0  0  0  0  0  0
  -30.4809  -17.1689   22.8706 H   0  0  0  0  0  0  0  0  0  0  0  0
  -31.8744  -16.7047   21.8856 H   0  0  0  0  0  0  0  0  0  0  0  0
  -24.1779  -20.0735   19.9647 H   0  0  0  0  0  0  0  0  0  0  0  0
  -23.3510  -20.5720   18.7646 H   0  0  0  0  0  0  0  0  0  0  0  0
  -29.9391  -19.3476   22.9356 H   0  0  0  0  0  0  0  0  0  0  0  0
  -26.9306  -19.2478   17.3382 H   0  0  0  0  0  0  0  0  0  0  0  0
  -26.4599  -20.7575   19.1115 H   0  0  0  0  0  0  0  0  0  0  0  0
  -29.2082  -15.5976   21.7671 H   0  0  0  0  0  0  0  0  0  0  0  0
  1 25  1  0
  1 30  2  0
  1 87  1  0
  2  3  1  0
  2 25  1  0
  2 88  1  0
  2 89  1  0
  3  4  1  0
  3 90  1  0
  3 91  1  0
  4  5  1  0
  4 92  1  0
  4 93  1  0
  5  6  1  0
  5 26  1  0
  5 94  1  6
  6 25  1  0
  6 95  1  0
  6 96  1  0
  7  8  2  0
  7 26  1  0
  7 29  1  0
  8  9  1  0
  8 22  1  0
  9 10  1  0
  9 27  2  0
 10 11  2  0
 10 15  1  0
 11 12  1  0
 11 97  1  0
 12 13  2  0
 12 98  1  0
 13 14  1  0
 13 31  1  0
 14 15  2  0
 14 99  1  0
 15100  1  0
 16 17  2  0
 16 21  1  0
 16 31  1  0
 17 18  1  0
 17101  1  0
 18 19  2  0
 18102  1  0
 19 20  1  0
 19 24  1  0
 20 21  2  0
 20103  1  0
 21 23  1  0
 22 28  1  0
 22 32  2  0
 26 27  1  0
 28104  1  0
 28105  1  0
 29106  1  0
 29107  1  0
 33 34  1  0
 33 66  1  0
 33 70  2  0
 34 36  1  0
 34 59  1  0
 34108  1  6
 35 44  2  0
 35 45  1  0
 35 68  1  0
 36 56  1  0
 36109  1  0
 37 39  1  0
 37 47  1  0
 37 66  1  0
 37110  1  6
 38 43  2  0
 38 46  1  0
 38 47  1  0
 39 64  1  0
 39 67  2  0
 40 52  1  0
 40 53  2  0
 40 58  1  0
 41111  1  0
 41112  1  0
 41113  1  0
 42 43  1  0
 42 66  1  0
 42114  1  0
 42115  1  0
 43 44  1  0
 44116  1  0
 45 46  2  0
 45117  1  0
 46118  1  0
 47119  1  0
 47120  1  0
 48 41  1  0
 48 56  1  0
 48 65  1  0
 48121  1  1
 49 50  1  0
 49 53  1  0
 49 64  1  0
 49122  1  1
 50 51  1  0
 50123  1  0
 50124  1  0
 51 52  1  0
 51125  1  0
 51126  1  0
 52127  1  0
 52128  1  0
 53 54  1  0
 54 55  2  0
 54129  1  0
 55 57  1  0
 55130  1  0
 56 69  2  0
 57 58  2  0
 57131  1  0
 58132  1  0
 59 60  1  0
 59 61  1  0
 59 62  1  0
 60133  1  0
 60134  1  0
 60135  1  0
 61136  1  0
 61137  1  0
 61138  1  0
 62139  1  0
 62140  1  0
 62141  1  0
 63 65  1  0
 63142  1  0
 63143  1  0
 63144  1  0
 64145  1  0
 65146  1  0
 68 81  1  0
 71 72  1  0
 71 73  2  0
 71147  1  0
 72 78  1  0
 72 85  2  0
 73 82  1  0
 73 86  1  0
 74148  1  0
 74149  1  0
 74150  1  0
 75 82  1  0
 75151  1  0
 75152  1  0
 75153  1  0
 76154  1  0
 76155  1  0
 76156  1  0
 77157  1  0
 77158  1  0
 77159  1  0
 78 83  1  0
 78160  1  0
 78161  1  0
 79 80  1  0
 79 86  1  0
 79162  1  0
 79163  1  0
 80 87  1  0
 80164  1  0
 80165  1  0
 81 84  1  0
 81166  1  0
 81167  1  0
 82 74  1  0
 82168  1  0
 83 76  1  0
 83 84  1  0
 83169  1  6
 84 77  1  0
 84170  1  1
 85 86  1  0
 87171  1  0
M  ISO  4   1 100  68 101  81 101  87 100
M  END
$$$$
48
     RDKit          3D

159166  0  0  0  0  0  0  0  0999 V2000
  -30.7652  -14.3608   20.6636 C   0  0  0  0  0  0  0  0  0100  0  0
  -30.4392  -12.2669   19.3775 C   0  0  0  0  0  0  0  0  0101  0  0
  -29.4791  -12.5281   18.1977 C   0  0  0  0  0  0  0  0  0102  0  0
  -27.9985  -12.3963   18.6038 C   0  0  0  0  0  0  0  0  0103  0  0
  -27.6639  -13.2170   19.8820 C   0  0  2  0  0  0  0  0  0104  0  0
  -28.6795  -12.9602   21.0279 C   0  0  0  0  0  0  0  0  0105  0  0
  -25.2633  -13.8245   20.5754 C   0  0  0  0  0  0  0  0  0106  0  0
  -24.1645  -13.0409   20.9408 C   0  0  0  0  0  0  0  0  0107  0  0
  -24.6400  -11.7009   20.8697 C   0  0  0  0  0  0  0  0  0108  0  0
  -23.9005  -10.4085   21.0420 C   0  0  0  0  0  0  0  0  0109  0  0
  -24.3588   -9.4123   21.9123 C   0  0  0  0  0  0  0  0  0110  0  0
  -23.6296   -8.2350   22.0803 C   0  0  0  0  0  0  0  0  0111  0  0
  -22.4385   -8.0419   21.3657 C   0  0  0  0  0  0  0  0  0112  0  0
  -22.0103   -9.0167   20.4678 C   0  0  0  0  0  0  0  0  0113  0  0
  -22.7317  -10.1925   20.3102 C   0  0  0  0  0  0  0  0  0114  0  0
  -21.6857   -6.0709   22.5391 C   0  0  0  0  0  0  0  0  0115  0  0
  -21.4064   -6.5490   23.8264 C   0  0  0  0  0  0  0  0  0116  0  0
  -21.3635   -5.6677   24.9085 C   0  0  0  0  0  0  0  0  0117  0  0
  -21.5973   -4.3067   24.7088 C   0  0  0  0  0  0  0  0  0118  0  0
  -21.8700   -3.8284   23.4282 C   0  0  0  0  0  0  0  0  0119  0  0
  -21.9144   -4.7056   22.3460 C   0  0  0  0  0  0  0  0  0120  0  0
  -22.8194  -13.5263   21.1763 C   0  0  0  0  0  0  0  0  0121  0  0
  -22.1559   -4.2206   21.1063 F   0  0  0  0  0  0  0  0  0122  0  0
  -21.5628   -3.4510   25.7555 F   0  0  0  0  0  0  0  0  0123  0  0
  -30.0261  -13.1803   20.4553 N   0  0  0  0  0  0  0  0  0124  0  0
  -26.2911  -12.9356   20.3443 N   0  0  0  0  0  0  0  0  0125  0  0
  -25.9236  -11.6675   20.5847 N   0  0  0  0  0  0  0  0  0126  0  0
  -22.0708  -12.7905   22.0005 N   0  0  0  0  0  0  0  0  0127  0  0
  -25.4117  -15.1773   20.4097 N   0  0  0  0  0  0  0  0  0128  0  0
  -31.7916  -14.6724   20.0536 O   0  0  0  0  0  0  0  0  0129  0  0
  -21.6670   -6.9022   21.4423 O   0  0  0  0  0  0  0  0  0130  0  0
  -22.3946  -14.5564   20.6568 O   0  0  0  0  0  0  0  0  0131  0  0
  -24.6048  -31.8614   23.2223 C   0  0  0  0  0  0  0  0  0100  0  0
  -25.8822  -32.4841   23.8616 C   0  0  1  0  0  0  0  0  0101  0  0
  -27.2536  -27.5042   20.1156 C   0  0  0  0  0  0  0  0  0102  0  0
  -25.5726  -33.8762   24.2210 N   0  0  0  0  0  0  0  0  0103  0  0
  -23.4066  -30.4859   21.5461 C   0  0  2  0  0  0  0  0  0104  0  0
  -24.8467  -28.9636   20.1247 C   0  0  0  0  0  0  0  0  0105  0  0
  -22.7412  -29.4652   22.5052 C   0  0  0  0  0  0  0  0  0106  0  0
  -18.0167  -28.1302   22.8626 C   0  0  0  0  0  0  0  0  0107  0  0
  -24.1342  -36.7390   23.2568 C   0  0  0  0  0  0  0  0  0108  0  0
  -25.9141  -30.8882   21.3456 C   0  0  0  0  0  0  0  0  0109  0  0
  -25.9930  -29.5029   20.7208 C   0  0  0  0  0  0  0  0  0110  0  0
  -27.1758  -28.7612   20.7331 C   0  0  0  0  0  0  0  0  0111  0  0
  -26.1032  -26.9836   19.5230 C   0  0  0  0  0  0  0  0  0112  0  0
  -24.9097  -27.7011   19.5331 C   0  0  0  0  0  0  0  0  0113  0  0
  -23.5715  -29.7899   20.1582 C   0  0  0  0  0  0  0  0  0114  0  0
  -25.3990  -36.3212   24.0232 C   0  0  1  0  0  0  0  0  0115  0  0
  -20.5793  -28.3813   23.1004 C   0  0  2  0  0  0  0  0  0116  0  0
  -20.6548  -26.9392   22.5411 C   0  0  0  0  0  0  0  0  0117  0  0
  -19.5615  -26.6407   21.5143 C   0  0  0  0  0  0  0  0  0118  0  0
  -18.1797  -26.7818   22.1673 C   0  0  0  0  0  0  0  0  0119  0  0
  -19.1385  -28.8769   23.2988 C   0  0  0  0  0  0  0  0  0120  0  0
  -18.9183  -30.1286   23.8878 C   0  0  0  0  0  0  0  0  0121  0  0
  -17.6396  -30.6493   24.0352 C   0  0  0  0  0  0  0  0  0122  0  0
  -25.9153  -34.9582   23.4993 C   0  0  0  0  0  0  0  0  0123  0  0
  -16.5415  -29.9068   23.6254 C   0  0  0  0  0  0  0  0  0124  0  0
  -16.7331  -28.6521   23.0586 C   0  0  0  0  0  0  0  0  0125  0  0
  -26.4583  -31.6439   25.0683 C   0  0  0  0  0  0  0  0  0126  0  0
  -25.3807  -31.3179   26.1374 C   0  0  0  0  0  0  0  0  0127  0  0
  -27.0530  -30.3024   24.5680 C   0  0  0  0  0  0  0  0  0128  0  0
  -27.6014  -32.4281   25.7651 C   0  0  0  0  0  0  0  0  0129  0  0
  -27.5629  -37.2220   24.8621 C   0  0  0  0  0  0  0  0  0130  0  0
  -21.4133  -29.3375   22.3735 N   0  0  0  0  0  0  0  0  0131  0  0
  -26.4706  -37.3372   23.9061 N   0  0  0  0  0  0  0  0  0132  0  0
  -24.6674  -31.0544   22.1178 N   0  0  0  0  0  0  0  0  0133  0  0
  -23.4259  -28.8150   23.2971 O   0  0  0  0  0  0  0  0  0134  0  0
  -28.3948  -26.7345   20.0089 O   0  0  0  0  0  0  0  0  0135  0  0
  -26.5870  -34.9065   22.4671 O   0  0  0  0  0  0  0  0  0136  0  0
  -23.5365  -32.1254   23.7833 O   0  0  0  0  0  0  0  0  0137  0  0
  -35.5385  -27.4589   19.7254 C   0  0  0  0  0  0  0  0  0  0  0  0
  -34.2132  -27.2903   19.6367 C   0  0  0  0  0  0  0  0  0  0  0  0
  -30.1084  -29.7778   21.3877 C   0  0  0  0  0  0  0  0  0  0  0  0
  -34.3309  -24.7339   19.8340 C   0  0  0  0  0  0  0  0  0  0  0  0
  -32.6782  -25.8912   18.3167 C   0  0  0  0  0  0  0  0  0  0  0  0
  -30.3953  -27.2559   21.7069 C   0  0  0  0  0  0  0  0  0  0  0  0
  -32.3917  -26.0424   20.8233 C   0  0  0  0  0  0  0  0  0  0  0  0
  -29.4370  -28.4116   21.4380 C   0  0  2  0  0  0  0  0  0  1  0  0
  -33.4295  -25.9791   19.6736 C   0  0  2  0  0  0  0  0  0  0  0  0
  -31.5558  -24.9797   18.3223 N   0  0  0  0  0  0  0  0  0  0  0  0
  -31.4457  -27.1797   20.6612 N   0  0  0  0  0  0  0  0  0  0  0  0
  -31.4485  -12.4701   19.0860 H   0  0  0  0  0  0  0  0  0  0  0  0
  -30.3970  -11.2460   19.6950 H   0  0  0  0  0  0  0  0  0  0  0  0
  -29.6870  -11.8204   17.4226 H   0  0  0  0  0  0  0  0  0  0  0  0
  -29.6375  -13.5326   17.8649 H   0  0  0  0  0  0  0  0  0  0  0  0
  -27.7830  -11.3650   18.7904 H   0  0  0  0  0  0  0  0  0  0  0  0
  -27.4028  -12.7801   17.8021 H   0  0  0  0  0  0  0  0  0  0  0  0
  -27.7353  -14.2503   19.6136 H   0  0  0  0  0  0  0  0  0  0  0  0
  -28.5890  -11.9550   21.3832 H   0  0  0  0  0  0  0  0  0  0  0  0
  -28.5005  -13.6134   21.8562 H   0  0  0  0  0  0  0  0  0  0  0  0
  -25.2399   -9.5495   22.4318 H   0  0  0  0  0  0  0  0  0  0  0  0
  -23.9663   -7.5070   22.7297 H   0  0  0  0  0  0  0  0  0  0  0  0
  -21.1515   -8.8641   19.9162 H   0  0  0  0  0  0  0  0  0  0  0  0
  -22.4016  -10.9115   19.6476 H   0  0  0  0  0  0  0  0  0  0  0  0
  -21.2319   -7.5552   23.9750 H   0  0  0  0  0  0  0  0  0  0  0  0
  -21.1589   -6.0228   25.8556 H   0  0  0  0  0  0  0  0  0  0  0  0
  -22.0396   -2.8212   23.2809 H   0  0  0  0  0  0  0  0  0  0  0  0
  -22.4401  -11.9703   22.4008 H   0  0  0  0  0  0  0  0  0  0  0  0
  -21.1493  -13.0679   22.2082 H   0  0  0  0  0  0  0  0  0  0  0  0
  -24.6538  -15.7807   20.5848 H   0  0  0  0  0  0  0  0  0  0  0  0
  -26.2762  -15.5453   20.1156 H   0  0  0  0  0  0  0  0  0  0  0  0
  -26.6778  -32.4663   23.1464 H   0  0  0  0  0  0  0  0  0  0  0  0
  -25.0747  -34.0282   25.0566 H   0  0  0  0  0  0  0  0  0  0  0  0
  -22.7881  -31.3489   21.4131 H   0  0  0  0  0  0  0  0  0  0  0  0
  -23.3854  -35.9823   23.3648 H   0  0  0  0  0  0  0  0  0  0  0  0
  -24.3696  -36.8624   22.2204 H   0  0  0  0  0  0  0  0  0  0  0  0
  -23.7669  -37.6632   23.6516 H   0  0  0  0  0  0  0  0  0  0  0  0
  -25.9445  -31.6237   20.5691 H   0  0  0  0  0  0  0  0  0  0  0  0
  -26.7436  -31.0079   22.0108 H   0  0  0  0  0  0  0  0  0  0  0  0
  -28.0090  -29.1452   21.2057 H   0  0  0  0  0  0  0  0  0  0  0  0
  -26.1369  -26.0560   19.0719 H   0  0  0  0  0  0  0  0  0  0  0  0
  -24.0652  -27.2961   19.0997 H   0  0  0  0  0  0  0  0  0  0  0  0
  -23.6156  -30.5365   19.3930 H   0  0  0  0  0  0  0  0  0  0  0  0
  -22.7355  -29.1425   19.9945 H   0  0  0  0  0  0  0  0  0  0  0  0
  -25.1353  -36.2335   25.0565 H   0  0  0  0  0  0  0  0  0  0  0  0
  -21.0070  -28.3206   24.0793 H   0  0  0  0  0  0  0  0  0  0  0  0
  -20.5555  -26.2518   23.3550 H   0  0  0  0  0  0  0  0  0  0  0  0
  -21.5974  -26.8362   22.0454 H   0  0  0  0  0  0  0  0  0  0  0  0
  -19.6810  -25.6422   21.1488 H   0  0  0  0  0  0  0  0  0  0  0  0
  -19.6406  -27.3343   20.7034 H   0  0  0  0  0  0  0  0  0  0  0  0
  -17.4282  -26.6888   21.4113 H   0  0  0  0  0  0  0  0  0  0  0  0
  -18.0803  -26.0130   22.9049 H   0  0  0  0  0  0  0  0  0  0  0  0
  -19.7265  -30.6774   24.2204 H   0  0  0  0  0  0  0  0  0  0  0  0
  -17.5064  -31.5856   24.4483 H   0  0  0  0  0  0  0  0  0  0  0  0
  -15.5878  -30.2839   23.7407 H   0  0  0  0  0  0  0  0  0  0  0  0
  -15.9120  -28.0941   22.7766 H   0  0  0  0  0  0  0  0  0  0  0  0
  -24.5787  -30.7757   25.6817 H   0  0  0  0  0  0  0  0  0  0  0  0
  -25.0041  -32.2289   26.5536 H   0  0  0  0  0  0  0  0  0  0  0  0
  -25.8166  -30.7245   26.9138 H   0  0  0  0  0  0  0  0  0  0  0  0
  -26.2892  -29.7335   24.0803 H   0  0  0  0  0  0  0  0  0  0  0  0
  -27.4336  -29.7484   25.4006 H   0  0  0  0  0  0  0  0  0  0  0  0
  -27.8466  -30.4994   23.8779 H   0  0  0  0  0  0  0  0  0  0  0  0
  -27.2251  -33.3632   26.1242 H   0  0  0  0  0  0  0  0  0  0  0  0
  -28.3902  -32.6065   25.0645 H   0  0  0  0  0  0  0  0  0  0  0  0
  -27.9772  -31.8555   26.5872 H   0  0  0  0  0  0  0  0  0  0  0  0
  -28.2744  -38.0016   24.6863 H   0  0  0  0  0  0  0  0  0  0  0  0
  -28.0396  -36.2711   24.7461 H   0  0  0  0  0  0  0  0  0  0  0  0
  -27.1773  -37.3087   25.8564 H   0  0  0  0  0  0  0  0  0  0  0  0
  -20.9627  -29.9365   21.7352 H   0  0  0  0  0  0  0  0  0  0  0  0
  -26.0447  -38.2561   24.0273 H   0  0  0  0  0  0  0  0  0  0  0  0
  -35.9417  -28.4081   19.6862 H   0  0  0  0  0  0  0  0  0  0  0  0
  -36.1568  -26.6397   19.8330 H   0  0  0  0  0  0  0  0  0  0  0  0
  -33.6529  -28.1504   19.5305 H   0  0  0  0  0  0  0  0  0  0  0  0
  -30.3978  -30.0696   22.3756 H   0  0  0  0  0  0  0  0  0  0  0  0
  -29.4237  -30.4972   20.9895 H   0  0  0  0  0  0  0  0  0  0  0  0
  -30.9753  -29.7264   20.7626 H   0  0  0  0  0  0  0  0  0  0  0  0
  -35.0416  -24.7027   19.0348 H   0  0  0  0  0  0  0  0  0  0  0  0
  -33.7271  -23.8509   19.8090 H   0  0  0  0  0  0  0  0  0  0  0  0
  -34.8480  -24.7860   20.7693 H   0  0  0  0  0  0  0  0  0  0  0  0
  -33.3713  -25.5664   17.5691 H   0  0  0  0  0  0  0  0  0  0  0  0
  -32.2837  -26.8658   18.1183 H   0  0  0  0  0  0  0  0  0  0  0  0
  -29.8436  -26.3391   21.7158 H   0  0  0  0  0  0  0  0  0  0  0  0
  -30.8681  -27.4190   22.6528 H   0  0  0  0  0  0  0  0  0  0  0  0
  -32.9116  -26.1557   21.7516 H   0  0  0  0  0  0  0  0  0  0  0  0
  -31.8236  -25.1359   20.8048 H   0  0  0  0  0  0  0  0  0  0  0  0
  -28.7170  -29.0275   21.9352 H   0  0  0  0  0  0  0  0  0  0  0  0
  -30.7015  -25.3968   18.0663 H   0  0  0  0  0  0  0  0  0  0  0  0
  -31.9822  -28.0469   20.6839 H   0  0  0  0  0  0  0  0  0  0  0  0
  -30.9639  -27.0340   19.7741 H   0  0  0  0  0  0  0  0  0  0  0  0
  1 25  1  0
  1 30  2  0
  1 80  1  0
  2  3  1  0
  2 25  1  0
  2 82  1  0
  2 83  1  0
  3  4  1  0
  3 84  1  0
  3 85  1  0
  4  5  1  0
  4 86  1  0
  4 87  1  0
  5  6  1  0
  5 26  1  0
  5 88  1  6
  6 25  1  0
  6 89  1  0
  6 90  1  0
  7  8  2  0
  7 26  1  0
  7 29  1  0
  8  9  1  0
  8 22  1  0
  9 10  1  0
  9 27  2  0
 10 11  2  0
 10 15  1  0
 11 12  1  0
 11 91  1  0
 12 13  2  0
 12 92  1  0
 13 14  1  0
 13 31  1  0
 14 15  2  0
 14 93  1  0
 15 94  1  0
 16 17  2  0
 16 21  1  0
 16 31  1  0
 17 18  1  0
 17 95  1  0
 18 19  2  0
 18 96  1  0
 19 20  1  0
 19 24  1  0
 20 21  2  0
 20 97  1  0
 21 23  1  0
 22 28  1  0
 22 32  2  0
 26 27  1  0
 28 98  1  0
 28 99  1  0
 29100  1  0
 29101  1  0
 33 34  1  0
 33 66  1  0
 33 70  2  0
 34 36  1  0
 34 59  1  0
 34102  1  6
 35 44  2  0
 35 45  1  0
 35 68  1  0
 36 56  1  0
 36103  1  0
 37 39  1  0
 37 47  1  0
 37 66  1  0
 37104  1  6
 38 43  2  0
 38 46  1  0
 38 47  1  0
 39 64  1  0
 39 67  2  0
 40 52  1  0
 40 53  2  0
 40 58  1  0
 41105  1  0
 41106  1  0
 41107  1  0
 42 43  1  0
 42 66  1  0
 42108  1  0
 42109  1  0
 43 44  1  0
 44110  1  0
 45 46  2  0
 45111  1  0
 46112  1  0
 47113  1  0
 47114  1  0
 48 41  1  0
 48 56  1  0
 48 65  1  0
 48115  1  1
 49 50  1  0
 49 53  1  0
 49 64  1  0
 49116  1  1
 50 51  1  0
 50117  1  0
 50118  1  0
 51 52  1  0
 51119  1  0
 51120  1  0
 52121  1  0
 52122  1  0
 53 54  1  0
 54 55  2  0
 54123  1  0
 55 57  1  0
 55124  1  0
 56 69  2  0
 57 58  2  0
 57125  1  0
 58126  1  0
 59 60  1  0
 59 61  1  0
 59 62  1  0
 60127  1  0
 60128  1  0
 60129  1  0
 61130  1  0
 61131  1  0
 61132  1  0
 62133  1  0
 62134  1  0
 62135  1  0
 63 65  1  0
 63136  1  0
 63137  1  0
 63138  1  0
 64139  1  0
 65140  1  0
 68 78  1  0
 71 72  2  0
 71141  1  0
 71142  1  0
 72143  1  0
 73144  1  0
 73145  1  0
 73146  1  0
 74147  1  0
 74148  1  0
 74149  1  0
 79 75  1  6
 75 80  1  0
 75150  1  0
 75151  1  0
 76 78  1  0
 76 81  1  0
 76152  1  0
 76153  1  0
 77 79  1  0
 77 81  1  0
 77154  1  0
 77155  1  0
 78 73  1  0
 78156  1  1
 79 72  1  0
 79 74  1  0
 80157  1  0
 81158  1  0
 81159  1  0
M  CHG  1  81   1
M  ISO  4   1 100  68 101  78 101  80 100
M  END
$$$$
49
     RDKit          3D

158165  0  0  0  0  0  0  0  0999 V2000
  -30.7652  -14.3608   20.6636 C   0  0  0  0  0  0  0  0  0100  0  0
  -30.4392  -12.2669   19.3775 C   0  0  0  0  0  0  0  0  0101  0  0
  -29.4791  -12.5281   18.1977 C   0  0  0  0  0  0  0  0  0102  0  0
  -27.9985  -12.3963   18.6038 C   0  0  0  0  0  0  0  0  0103  0  0
  -27.6639  -13.2170   19.8820 C   0  0  2  0  0  0  0  0  0104  0  0
  -28.6795  -12.9602   21.0279 C   0  0  0  0  0  0  0  0  0105  0  0
  -25.2633  -13.8245   20.5754 C   0  0  0  0  0  0  0  0  0106  0  0
  -24.1645  -13.0409   20.9408 C   0  0  0  0  0  0  0  0  0107  0  0
  -24.6400  -11.7009   20.8697 C   0  0  0  0  0  0  0  0  0108  0  0
  -23.9005  -10.4085   21.0420 C   0  0  0  0  0  0  0  0  0109  0  0
  -24.3588   -9.4123   21.9123 C   0  0  0  0  0  0  0  0  0110  0  0
  -23.6296   -8.2350   22.0803 C   0  0  0  0  0  0  0  0  0111  0  0
  -22.4385   -8.0419   21.3657 C   0  0  0  0  0  0  0  0  0112  0  0
  -22.0103   -9.0167   20.4678 C   0  0  0  0  0  0  0  0  0113  0  0
  -22.7317  -10.1925   20.3102 C   0  0  0  0  0  0  0  0  0114  0  0
  -21.6857   -6.0709   22.5391 C   0  0  0  0  0  0  0  0  0115  0  0
  -21.4064   -6.5490   23.8264 C   0  0  0  0  0  0  0  0  0116  0  0
  -21.3635   -5.6677   24.9085 C   0  0  0  0  0  0  0  0  0117  0  0
  -21.5973   -4.3067   24.7088 C   0  0  0  0  0  0  0  0  0118  0  0
  -21.8700   -3.8284   23.4282 C   0  0  0  0  0  0  0  0  0119  0  0
  -21.9144   -4.7056   22.3460 C   0  0  0  0  0  0  0  0  0120  0  0
  -22.8194  -13.5263   21.1763 C   0  0  0  0  0  0  0  0  0121  0  0
  -22.1559   -4.2206   21.1063 F   0  0  0  0  0  0  0  0  0122  0  0
  -21.5628   -3.4510   25.7555 F   0  0  0  0  0  0  0  0  0123  0  0
  -30.0261  -13.1803   20.4553 N   0  0  0  0  0  0  0  0  0124  0  0
  -26.2911  -12.9356   20.3443 N   0  0  0  0  0  0  0  0  0125  0  0
  -25.9236  -11.6675   20.5847 N   0  0  0  0  0  0  0  0  0126  0  0
  -22.0708  -12.7905   22.0005 N   0  0  0  0  0  0  0  0  0127  0  0
  -25.4117  -15.1773   20.4097 N   0  0  0  0  0  0  0  0  0128  0  0
  -31.7916  -14.6724   20.0536 O   0  0  0  0  0  0  0  0  0129  0  0
  -21.6670   -6.9022   21.4423 O   0  0  0  0  0  0  0  0  0130  0  0
  -22.3946  -14.5564   20.6568 O   0  0  0  0  0  0  0  0  0131  0  0
  -24.6048  -31.8614   23.2223 C   0  0  0  0  0  0  0  0  0100  0  0
  -25.8822  -32.4841   23.8616 C   0  0  1  0  0  0  0  0  0101  0  0
  -27.2536  -27.5042   20.1156 C   0  0  0  0  0  0  0  0  0102  0  0
  -25.5726  -33.8762   24.2210 N   0  0  0  0  0  0  0  0  0103  0  0
  -23.4066  -30.4859   21.5461 C   0  0  2  0  0  0  0  0  0104  0  0
  -24.8467  -28.9636   20.1247 C   0  0  0  0  0  0  0  0  0105  0  0
  -22.7412  -29.4652   22.5052 C   0  0  0  0  0  0  0  0  0106  0  0
  -18.0167  -28.1302   22.8626 C   0  0  0  0  0  0  0  0  0107  0  0
  -24.1342  -36.7390   23.2568 C   0  0  0  0  0  0  0  0  0108  0  0
  -25.9141  -30.8882   21.3456 C   0  0  0  0  0  0  0  0  0109  0  0
  -25.9930  -29.5029   20.7208 C   0  0  0  0  0  0  0  0  0110  0  0
  -27.1758  -28.7612   20.7331 C   0  0  0  0  0  0  0  0  0111  0  0
  -26.1032  -26.9836   19.5230 C   0  0  0  0  0  0  0  0  0112  0  0
  -24.9097  -27.7011   19.5331 C   0  0  0  0  0  0  0  0  0113  0  0
  -23.5715  -29.7899   20.1582 C   0  0  0  0  0  0  0  0  0114  0  0
  -25.3990  -36.3212   24.0232 C   0  0  1  0  0  0  0  0  0115  0  0
  -20.5793  -28.3813   23.1004 C   0  0  2  0  0  0  0  0  0116  0  0
  -20.6548  -26.9392   22.5411 C   0  0  0  0  0  0  0  0  0117  0  0
  -19.5615  -26.6407   21.5143 C   0  0  0  0  0  0  0  0  0118  0  0
  -18.1797  -26.7818   22.1673 C   0  0  0  0  0  0  0  0  0119  0  0
  -19.1385  -28.8769   23.2988 C   0  0  0  0  0  0  0  0  0120  0  0
  -18.9183  -30.1286   23.8878 C   0  0  0  0  0  0  0  0  0121  0  0
  -17.6396  -30.6493   24.0352 C   0  0  0  0  0  0  0  0  0122  0  0
  -25.9153  -34.9582   23.4993 C   0  0  0  0  0  0  0  0  0123  0  0
  -16.5415  -29.9068   23.6254 C   0  0  0  0  0  0  0  0  0124  0  0
  -16.7331  -28.6521   23.0586 C   0  0  0  0  0  0  0  0  0125  0  0
  -26.4583  -31.6439   25.0683 C   0  0  0  0  0  0  0  0  0126  0  0
  -25.3807  -31.3179   26.1374 C   0  0  0  0  0  0  0  0  0127  0  0
  -27.0530  -30.3024   24.5680 C   0  0  0  0  0  0  0  0  0128  0  0
  -27.6014  -32.4281   25.7651 C   0  0  0  0  0  0  0  0  0129  0  0
  -27.5629  -37.2220   24.8621 C   0  0  0  0  0  0  0  0  0130  0  0
  -21.4133  -29.3375   22.3735 N   0  0  0  0  0  0  0  0  0131  0  0
  -26.4706  -37.3372   23.9061 N   0  0  0  0  0  0  0  0  0132  0  0
  -24.6674  -31.0544   22.1178 N   0  0  0  0  0  0  0  0  0133  0  0
  -23.4259  -28.8150   23.2971 O   0  0  0  0  0  0  0  0  0134  0  0
  -28.3948  -26.7345   20.0089 O   0  0  0  0  0  0  0  0  0135  0  0
  -26.5870  -34.9065   22.4671 O   0  0  0  0  0  0  0  0  0136  0  0
  -23.5365  -32.1254   23.7833 O   0  0  0  0  0  0  0  0  0137  0  0
  -31.1604  -23.0202   18.6055 C   0  0  0  0  0  0  0  0  0  0  0  0
  -28.1797  -19.9016   13.4045 C   0  0  0  0  0  0  0  0  0  0  0  0
  -30.9594  -20.8986   17.2845 C   0  0  0  0  0  0  0  0  0  0  0  0
  -27.2487  -19.0142   15.6100 C   0  0  0  0  0  0  0  0  0  0  0  0
  -30.1180  -19.8069   16.6313 C   0  0  0  0  0  0  0  0  0  0  0  0
  -29.1418  -21.5634   18.9786 C   0  0  0  0  0  0  0  0  0  1  0  0
  -30.1717  -22.0478   17.9498 C   0  0  1  0  0  0  0  0  0  0  0  0
  -28.4918  -19.3538   14.7904 C   0  0  2  0  0  0  0  0  0  0  0  0
  -26.3746  -20.1447   15.8309 N   0  0  0  0  0  0  0  0  0  0  0  0
  -29.3049  -20.3625   15.5250 N   0  0  0  0  0  0  0  0  0  0  0  0
  -31.4485  -12.4701   19.0860 H   0  0  0  0  0  0  0  0  0  0  0  0
  -30.3970  -11.2460   19.6950 H   0  0  0  0  0  0  0  0  0  0  0  0
  -29.6870  -11.8204   17.4226 H   0  0  0  0  0  0  0  0  0  0  0  0
  -29.6375  -13.5326   17.8649 H   0  0  0  0  0  0  0  0  0  0  0  0
  -27.7830  -11.3650   18.7904 H   0  0  0  0  0  0  0  0  0  0  0  0
  -27.4028  -12.7801   17.8021 H   0  0  0  0  0  0  0  0  0  0  0  0
  -27.7353  -14.2503   19.6136 H   0  0  0  0  0  0  0  0  0  0  0  0
  -28.5890  -11.9550   21.3832 H   0  0  0  0  0  0  0  0  0  0  0  0
  -28.5005  -13.6134   21.8562 H   0  0  0  0  0  0  0  0  0  0  0  0
  -25.2399   -9.5495   22.4318 H   0  0  0  0  0  0  0  0  0  0  0  0
  -23.9663   -7.5070   22.7297 H   0  0  0  0  0  0  0  0  0  0  0  0
  -21.1515   -8.8641   19.9162 H   0  0  0  0  0  0  0  0  0  0  0  0
  -22.4016  -10.9115   19.6476 H   0  0  0  0  0  0  0  0  0  0  0  0
  -21.2319   -7.5552   23.9750 H   0  0  0  0  0  0  0  0  0  0  0  0
  -21.1589   -6.0228   25.8556 H   0  0  0  0  0  0  0  0  0  0  0  0
  -22.0396   -2.8212   23.2809 H   0  0  0  0  0  0  0  0  0  0  0  0
  -22.4401  -11.9703   22.4008 H   0  0  0  0  0  0  0  0  0  0  0  0
  -21.1493  -13.0679   22.2082 H   0  0  0  0  0  0  0  0  0  0  0  0
  -24.6538  -15.7807   20.5848 H   0  0  0  0  0  0  0  0  0  0  0  0
  -26.2762  -15.5453   20.1156 H   0  0  0  0  0  0  0  0  0  0  0  0
  -26.6778  -32.4663   23.1464 H   0  0  0  0  0  0  0  0  0  0  0  0
  -25.0747  -34.0282   25.0566 H   0  0  0  0  0  0  0  0  0  0  0  0
  -22.7881  -31.3489   21.4131 H   0  0  0  0  0  0  0  0  0  0  0  0
  -23.3854  -35.9823   23.3648 H   0  0  0  0  0  0  0  0  0  0  0  0
  -24.3696  -36.8624   22.2204 H   0  0  0  0  0  0  0  0  0  0  0  0
  -23.7669  -37.6632   23.6516 H   0  0  0  0  0  0  0  0  0  0  0  0
  -25.9445  -31.6237   20.5691 H   0  0  0  0  0  0  0  0  0  0  0  0
  -26.7436  -31.0079   22.0108 H   0  0  0  0  0  0  0  0  0  0  0  0
  -28.0090  -29.1452   21.2057 H   0  0  0  0  0  0  0  0  0  0  0  0
  -26.1369  -26.0560   19.0719 H   0  0  0  0  0  0  0  0  0  0  0  0
  -24.0652  -27.2961   19.0997 H   0  0  0  0  0  0  0  0  0  0  0  0
  -23.6156  -30.5365   19.3930 H   0  0  0  0  0  0  0  0  0  0  0  0
  -22.7355  -29.1425   19.9945 H   0  0  0  0  0  0  0  0  0  0  0  0
  -25.1353  -36.2335   25.0565 H   0  0  0  0  0  0  0  0  0  0  0  0
  -21.0070  -28.3206   24.0793 H   0  0  0  0  0  0  0  0  0  0  0  0
  -20.5555  -26.2518   23.3550 H   0  0  0  0  0  0  0  0  0  0  0  0
  -21.5974  -26.8362   22.0454 H   0  0  0  0  0  0  0  0  0  0  0  0
  -19.6810  -25.6422   21.1488 H   0  0  0  0  0  0  0  0  0  0  0  0
  -19.6406  -27.3343   20.7034 H   0  0  0  0  0  0  0  0  0  0  0  0
  -17.4282  -26.6888   21.4113 H   0  0  0  0  0  0  0  0  0  0  0  0
  -18.0803  -26.0130   22.9049 H   0  0  0  0  0  0  0  0  0  0  0  0
  -19.7265  -30.6774   24.2204 H   0  0  0  0  0  0  0  0  0  0  0  0
  -17.5064  -31.5856   24.4483 H   0  0  0  0  0  0  0  0  0  0  0  0
  -15.5878  -30.2839   23.7407 H   0  0  0  0  0  0  0  0  0  0  0  0
  -15.9120  -28.0941   22.7766 H   0  0  0  0  0  0  0  0  0  0  0  0
  -24.5787  -30.7757   25.6817 H   0  0  0  0  0  0  0  0  0  0  0  0
  -25.0041  -32.2289   26.5536 H   0  0  0  0  0  0  0  0  0  0  0  0
  -25.8166  -30.7245   26.9138 H   0  0  0  0  0  0  0  0  0  0  0  0
  -26.2892  -29.7335   24.0803 H   0  0  0  0  0  0  0  0  0  0  0  0
  -27.4336  -29.7484   25.4006 H   0  0  0  0  0  0  0  0  0  0  0  0
  -27.8466  -30.4994   23.8779 H   0  0  0  0  0  0  0  0  0  0  0  0
  -27.2251  -33.3632   26.1242 H   0  0  0  0  0  0  0  0  0  0  0  0
  -28.3902  -32.6065   25.0645 H   0  0  0  0  0  0  0  0  0  0  0  0
  -27.9772  -31.8555   26.5872 H   0  0  0  0  0  0  0  0  0  0  0  0
  -28.2744  -38.0016   24.6863 H   0  0  0  0  0  0  0  0  0  0  0  0
  -28.0396  -36.2711   24.7461 H   0  0  0  0  0  0  0  0  0  0  0  0
  -27.1773  -37.3087   25.8564 H   0  0  0  0  0  0  0  0  0  0  0  0
  -20.9627  -29.9365   21.7352 H   0  0  0  0  0  0  0  0  0  0  0  0
  -26.0447  -38.2561   24.0273 H   0  0  0  0  0  0  0  0  0  0  0  0
  -31.8722  -23.3498   17.8778 H   0  0  0  0  0  0  0  0  0  0  0  0
  -31.6709  -22.5248   19.4048 H   0  0  0  0  0  0  0  0  0  0  0  0
  -30.6278  -23.8642   18.9913 H   0  0  0  0  0  0  0  0  0  0  0  0
  -27.5950  -19.1881   12.8623 H   0  0  0  0  0  0  0  0  0  0  0  0
  -29.0938  -20.0862   12.8798 H   0  0  0  0  0  0  0  0  0  0  0  0
  -27.6310  -20.8155   13.4975 H   0  0  0  0  0  0  0  0  0  0  0  0
  -31.5870  -21.3248   16.5299 H   0  0  0  0  0  0  0  0  0  0  0  0
  -31.4950  -20.4176   18.0761 H   0  0  0  0  0  0  0  0  0  0  0  0
  -27.5629  -18.6385   16.5613 H   0  0  0  0  0  0  0  0  0  0  0  0
  -26.6919  -18.2915   15.0509 H   0  0  0  0  0  0  0  0  0  0  0  0
  -29.4670  -19.3792   17.3649 H   0  0  0  0  0  0  0  0  0  0  0  0
  -30.7729  -19.0596   16.2345 H   0  0  0  0  0  0  0  0  0  0  0  0
  -29.5433  -20.9918   19.7892 H   0  0  0  0  0  0  0  0  0  0  0  0
  -28.3410  -20.8984   18.7308 H   0  0  0  0  0  0  0  0  0  0  0  0
  -29.6140  -22.5394   17.1802 H   0  0  0  0  0  0  0  0  0  0  0  0
  -29.0248  -18.4358   14.6556 H   0  0  0  0  0  0  0  0  0  0  0  0
  -25.7896  -20.9077   15.6190 H   0  0  0  0  0  0  0  0  0  0  0  0
  -29.9354  -20.8096   14.8594 H   0  0  0  0  0  0  0  0  0  0  0  0
  -28.6450  -21.0148   15.9487 H   0  0  0  0  0  0  0  0  0  0  0  0
  1 25  1  0
  1 30  2  0
  1 79  1  0
  2  3  1  0
  2 25  1  0
  2 81  1  0
  2 82  1  0
  3  4  1  0
  3 83  1  0
  3 84  1  0
  4  5  1  0
  4 85  1  0
  4 86  1  0
  5  6  1  0
  5 26  1  0
  5 87  1  6
  6 25  1  0
  6 88  1  0
  6 89  1  0
  7  8  2  0
  7 26  1  0
  7 29  1  0
  8  9  1  0
  8 22  1  0
  9 10  1  0
  9 27  2  0
 10 11  2  0
 10 15  1  0
 11 12  1  0
 11 90  1  0
 12 13  2  0
 12 91  1  0
 13 14  1  0
 13 31  1  0
 14 15  2  0
 14 92  1  0
 15 93  1  0
 16 17  2  0
 16 21  1  0
 16 31  1  0
 17 18  1  0
 17 94  1  0
 18 19  2  0
 18 95  1  0
 19 20  1  0
 19 24  1  0
 20 21  2  0
 20 96  1  0
 21 23  1  0
 22 28  1  0
 22 32  2  0
 26 27  1  0
 28 97  1  0
 28 98  1  0
 29 99  1  0
 29100  1  0
 33 34  1  0
 33 66  1  0
 33 70  2  0
 34 36  1  0
 34 59  1  0
 34101  1  6
 35 44  2  0
 35 45  1  0
 35 68  1  0
 36 56  1  0
 36102  1  0
 37 39  1  0
 37 47  1  0
 37 66  1  0
 37103  1  6
 38 43  2  0
 38 46  1  0
 38 47  1  0
 39 64  1  0
 39 67  2  0
 40 52  1  0
 40 53  2  0
 40 58  1  0
 41104  1  0
 41105  1  0
 41106  1  0
 42 43  1  0
 42 66  1  0
 42107  1  0
 42108  1  0
 43 44  1  0
 44109  1  0
 45 46  2  0
 45110  1  0
 46111  1  0
 47112  1  0
 47113  1  0
 48 41  1  0
 48 56  1  0
 48 65  1  0
 48114  1  1
 49 50  1  0
 49 53  1  0
 49 64  1  0
 49115  1  1
 50 51  1  0
 50116  1  0
 50117  1  0
 51 52  1  0
 51118  1  0
 51119  1  0
 52120  1  0
 52121  1  0
 53 54  1  0
 54 55  2  0
 54122  1  0
 55 57  1  0
 55123  1  0
 56 69  2  0
 57 58  2  0
 57124  1  0
 58125  1  0
 59 60  1  0
 59 61  1  0
 59 62  1  0
 60126  1  0
 60127  1  0
 60128  1  0
 61129  1  0
 61130  1  0
 61131  1  0
 62132  1  0
 62133  1  0
 62134  1  0
 63 65  1  0
 63135  1  0
 63136  1  0
 63137  1  0
 64138  1  0
 65139  1  0
 68 76  1  0
 71140  1  0
 71141  1  0
 71142  1  0
 72143  1  0
 72144  1  0
 72145  1  0
 73 75  1  0
 73 77  1  0
 73146  1  0
 73147  1  0
 74 78  1  0
 74 79  1  0
 74148  1  0
 74149  1  0
 75 80  1  0
 75150  1  0
 75151  1  0
 76 77  1  0
 76152  1  0
 76153  1  0
 77 71  1  0
 77154  1  6
 78 72  1  0
 78 80  1  0
 78155  1  6
 79156  1  0
 80157  1  0
 80158  1  0
M  CHG  1  80   1
M  ISO  4   1 100  68 101  76 101  79 100
M  END
$$$$
50
     RDKit          3D

155162  0  0  0  0  0  0  0  0999 V2000
  -30.7652  -14.3608   20.6636 C   0  0  0  0  0  0  0  0  0100  0  0
  -30.4392  -12.2669   19.3775 C   0  0  0  0  0  0  0  0  0101  0  0
  -29.4791  -12.5281   18.1977 C   0  0  0  0  0  0  0  0  0102  0  0
  -27.9985  -12.3963   18.6038 C   0  0  0  0  0  0  0  0  0103  0  0
  -27.6639  -13.2170   19.8820 C   0  0  2  0  0  0  0  0  0104  0  0
  -28.6795  -12.9602   21.0279 C   0  0  0  0  0  0  0  0  0105  0  0
  -25.2633  -13.8245   20.5754 C   0  0  0  0  0  0  0  0  0106  0  0
  -24.1645  -13.0409   20.9408 C   0  0  0  0  0  0  0  0  0107  0  0
  -24.6400  -11.7009   20.8697 C   0  0  0  0  0  0  0  0  0108  0  0
  -23.9005  -10.4085   21.0420 C   0  0  0  0  0  0  0  0  0109  0  0
  -24.3588   -9.4123   21.9123 C   0  0  0  0  0  0  0  0  0110  0  0
  -23.6296   -8.2350   22.0803 C   0  0  0  0  0  0  0  0  0111  0  0
  -22.4385   -8.0419   21.3657 C   0  0  0  0  0  0  0  0  0112  0  0
  -22.0103   -9.0167   20.4678 C   0  0  0  0  0  0  0  0  0113  0  0
  -22.7317  -10.1925   20.3102 C   0  0  0  0  0  0  0  0  0114  0  0
  -21.6857   -6.0709   22.5391 C   0  0  0  0  0  0  0  0  0115  0  0
  -21.4064   -6.5490   23.8264 C   0  0  0  0  0  0  0  0  0116  0  0
  -21.3635   -5.6677   24.9085 C   0  0  0  0  0  0  0  0  0117  0  0
  -21.5973   -4.3067   24.7088 C   0  0  0  0  0  0  0  0  0118  0  0
  -21.8700   -3.8284   23.4282 C   0  0  0  0  0  0  0  0  0119  0  0
  -21.9144   -4.7056   22.3460 C   0  0  0  0  0  0  0  0  0120  0  0
  -22.8194  -13.5263   21.1763 C   0  0  0  0  0  0  0  0  0121  0  0
  -22.1559   -4.2206   21.1063 F   0  0  0  0  0  0  0  0  0122  0  0
  -21.5628   -3.4510   25.7555 F   0  0  0  0  0  0  0  0  0123  0  0
  -30.0261  -13.1803   20.4553 N   0  0  0  0  0  0  0  0  0124  0  0
  -26.2911  -12.9356   20.3443 N   0  0  0  0  0  0  0  0  0125  0  0
  -25.9236  -11.6675   20.5847 N   0  0  0  0  0  0  0  0  0126  0  0
  -22.0708  -12.7905   22.0005 N   0  0  0  0  0  0  0  0  0127  0  0
  -25.4117  -15.1773   20.4097 N   0  0  0  0  0  0  0  0  0128  0  0
  -31.7916  -14.6724   20.0536 O   0  0  0  0  0  0  0  0  0129  0  0
  -21.6670   -6.9022   21.4423 O   0  0  0  0  0  0  0  0  0130  0  0
  -22.3946  -14.5564   20.6568 O   0  0  0  0  0  0  0  0  0131  0  0
  -24.6048  -31.8614   23.2223 C   0  0  0  0  0  0  0  0  0100  0  0
  -25.8822  -32.4841   23.8616 C   0  0  1  0  0  0  0  0  0101  0  0
  -27.2536  -27.5042   20.1156 C   0  0  0  0  0  0  0  0  0102  0  0
  -25.5726  -33.8762   24.2210 N   0  0  0  0  0  0  0  0  0103  0  0
  -23.4066  -30.4859   21.5461 C   0  0  2  0  0  0  0  0  0104  0  0
  -24.8467  -28.9636   20.1247 C   0  0  0  0  0  0  0  0  0105  0  0
  -22.7412  -29.4652   22.5052 C   0  0  0  0  0  0  0  0  0106  0  0
  -18.0167  -28.1302   22.8626 C   0  0  0  0  0  0  0  0  0107  0  0
  -24.1342  -36.7390   23.2568 C   0  0  0  0  0  0  0  0  0108  0  0
  -25.9141  -30.8882   21.3456 C   0  0  0  0  0  0  0  0  0109  0  0
  -25.9930  -29.5029   20.7208 C   0  0  0  0  0  0  0  0  0110  0  0
  -27.1758  -28.7612   20.7331 C   0  0  0  0  0  0  0  0  0111  0  0
  -26.1032  -26.9836   19.5230 C   0  0  0  0  0  0  0  0  0112  0  0
  -24.9097  -27.7011   19.5331 C   0  0  0  0  0  0  0  0  0113  0  0
  -23.5715  -29.7899   20.1582 C   0  0  0  0  0  0  0  0  0114  0  0
  -25.3990  -36.3212   24.0232 C   0  0  1  0  0  0  0  0  0115  0  0
  -20.5793  -28.3813   23.1004 C   0  0  2  0  0  0  0  0  0116  0  0
  -20.6548  -26.9392   22.5411 C   0  0  0  0  0  0  0  0  0117  0  0
  -19.5615  -26.6407   21.5143 C   0  0  0  0  0  0  0  0  0118  0  0
  -18.1797  -26.7818   22.1673 C   0  0  0  0  0  0  0  0  0119  0  0
  -19.1385  -28.8769   23.2988 C   0  0  0  0  0  0  0  0  0120  0  0
  -18.9183  -30.1286   23.8878 C   0  0  0  0  0  0  0  0  0121  0  0
  -17.6396  -30.6493   24.0352 C   0  0  0  0  0  0  0  0  0122  0  0
  -25.9153  -34.9582   23.4993 C   0  0  0  0  0  0  0  0  0123  0  0
  -16.5415  -29.9068   23.6254 C   0  0  0  0  0  0  0  0  0124  0  0
  -16.7331  -28.6521   23.0586 C   0  0  0  0  0  0  0  0  0125  0  0
  -26.4583  -31.6439   25.0683 C   0  0  0  0  0  0  0  0  0126  0  0
  -25.3807  -31.3179   26.1374 C   0  0  0  0  0  0  0  0  0127  0  0
  -27.0530  -30.3024   24.5680 C   0  0  0  0  0  0  0  0  0128  0  0
  -27.6014  -32.4281   25.7651 C   0  0  0  0  0  0  0  0  0129  0  0
  -27.5629  -37.2220   24.8621 C   0  0  0  0  0  0  0  0  0130  0  0
  -21.4133  -29.3375   22.3735 N   0  0  0  0  0  0  0  0  0131  0  0
  -26.4706  -37.3372   23.9061 N   0  0  0  0  0  0  0  0  0132  0  0
  -24.6674  -31.0544   22.1178 N   0  0  0  0  0  0  0  0  0133  0  0
  -23.4259  -28.8150   23.2971 O   0  0  0  0  0  0  0  0  0134  0  0
  -28.3948  -26.7345   20.0089 O   0  0  0  0  0  0  0  0  0135  0  0
  -26.5870  -34.9065   22.4671 O   0  0  0  0  0  0  0  0  0136  0  0
  -23.5365  -32.1254   23.7833 O   0  0  0  0  0  0  0  0  0137  0  0
  -20.0045  -13.6666   20.0645 C   0  0  0  0  0  0  0  0  0  0  0  0
  -20.3928  -17.8745   18.3420 C   0  0  0  0  0  0  0  0  0  0  0  0
  -21.3899  -16.7450   18.0731 C   0  0  0  0  0  0  0  0  0  0  0  0
  -20.9581  -19.2278   17.8977 C   0  0  0  0  0  0  0  0  0  0  0  0
  -20.8428  -15.3531   18.4109 C   0  0  0  0  0  0  0  0  0  0  0  0
  -19.9671  -20.3703   18.0956 C   0  0  0  0  0  0  0  0  0  0  0  0
  -21.6328  -15.4150   20.8571 C   0  0  0  0  0  0  0  0  0  1  0  0
  -20.4793  -15.1149   19.8912 C   0  0  2  0  0  0  0  0  0  0  0  0
  -20.4944  -21.6412   17.6509 N   0  0  0  0  0  0  0  0  0  0  0  0
  -31.4485  -12.4701   19.0860 H   0  0  0  0  0  0  0  0  0  0  0  0
  -30.3970  -11.2460   19.6950 H   0  0  0  0  0  0  0  0  0  0  0  0
  -29.6870  -11.8204   17.4226 H   0  0  0  0  0  0  0  0  0  0  0  0
  -29.6375  -13.5326   17.8649 H   0  0  0  0  0  0  0  0  0  0  0  0
  -27.7830  -11.3650   18.7904 H   0  0  0  0  0  0  0  0  0  0  0  0
  -27.4028  -12.7801   17.8021 H   0  0  0  0  0  0  0  0  0  0  0  0
  -27.7353  -14.2503   19.6136 H   0  0  0  0  0  0  0  0  0  0  0  0
  -28.5890  -11.9550   21.3832 H   0  0  0  0  0  0  0  0  0  0  0  0
  -28.5005  -13.6134   21.8562 H   0  0  0  0  0  0  0  0  0  0  0  0
  -25.2399   -9.5495   22.4318 H   0  0  0  0  0  0  0  0  0  0  0  0
  -23.9663   -7.5070   22.7297 H   0  0  0  0  0  0  0  0  0  0  0  0
  -21.1515   -8.8641   19.9162 H   0  0  0  0  0  0  0  0  0  0  0  0
  -22.4016  -10.9115   19.6476 H   0  0  0  0  0  0  0  0  0  0  0  0
  -21.2319   -7.5552   23.9750 H   0  0  0  0  0  0  0  0  0  0  0  0
  -21.1589   -6.0228   25.8556 H   0  0  0  0  0  0  0  0  0  0  0  0
  -22.0396   -2.8212   23.2809 H   0  0  0  0  0  0  0  0  0  0  0  0
  -22.4401  -11.9703   22.4008 H   0  0  0  0  0  0  0  0  0  0  0  0
  -21.1493  -13.0679   22.2082 H   0  0  0  0  0  0  0  0  0  0  0  0
  -24.6538  -15.7807   20.5848 H   0  0  0  0  0  0  0  0  0  0  0  0
  -26.2762  -15.5453   20.1156 H   0  0  0  0  0  0  0  0  0  0  0  0
  -26.6778  -32.4663   23.1464 H   0  0  0  0  0  0  0  0  0  0  0  0
  -25.0747  -34.0282   25.0566 H   0  0  0  0  0  0  0  0  0  0  0  0
  -22.7881  -31.3489   21.4131 H   0  0  0  0  0  0  0  0  0  0  0  0
  -23.3854  -35.9823   23.3648 H   0  0  0  0  0  0  0  0  0  0  0  0
  -24.3696  -36.8624   22.2204 H   0  0  0  0  0  0  0  0  0  0  0  0
  -23.7669  -37.6632   23.6516 H   0  0  0  0  0  0  0  0  0  0  0  0
  -25.9445  -31.6237   20.5691 H   0  0  0  0  0  0  0  0  0  0  0  0
  -26.7436  -31.0079   22.0108 H   0  0  0  0  0  0  0  0  0  0  0  0
  -28.0090  -29.1452   21.2057 H   0  0  0  0  0  0  0  0  0  0  0  0
  -26.1369  -26.0560   19.0719 H   0  0  0  0  0  0  0  0  0  0  0  0
  -24.0652  -27.2961   19.0997 H   0  0  0  0  0  0  0  0  0  0  0  0
  -23.6156  -30.5365   19.3930 H   0  0  0  0  0  0  0  0  0  0  0  0
  -22.7355  -29.1425   19.9945 H   0  0  0  0  0  0  0  0  0  0  0  0
  -25.1353  -36.2335   25.0565 H   0  0  0  0  0  0  0  0  0  0  0  0
  -21.0070  -28.3206   24.0793 H   0  0  0  0  0  0  0  0  0  0  0  0
  -20.5555  -26.2518   23.3550 H   0  0  0  0  0  0  0  0  0  0  0  0
  -21.5974  -26.8362   22.0454 H   0  0  0  0  0  0  0  0  0  0  0  0
  -19.6810  -25.6422   21.1488 H   0  0  0  0  0  0  0  0  0  0  0  0
  -19.6406  -27.3343   20.7034 H   0  0  0  0  0  0  0  0  0  0  0  0
  -17.4282  -26.6888   21.4113 H   0  0  0  0  0  0  0  0  0  0  0  0
  -18.0803  -26.0130   22.9049 H   0  0  0  0  0  0  0  0  0  0  0  0
  -19.7265  -30.6774   24.2204 H   0  0  0  0  0  0  0  0  0  0  0  0
  -17.5064  -31.5856   24.4483 H   0  0  0  0  0  0  0  0  0  0  0  0
  -15.5878  -30.2839   23.7407 H   0  0  0  0  0  0  0  0  0  0  0  0
  -15.9120  -28.0941   22.7766 H   0  0  0  0  0  0  0  0  0  0  0  0
  -24.5787  -30.7757   25.6817 H   0  0  0  0  0  0  0  0  0  0  0  0
  -25.0041  -32.2289   26.5536 H   0  0  0  0  0  0  0  0  0  0  0  0
  -25.8166  -30.7245   26.9138 H   0  0  0  0  0  0  0  0  0  0  0  0
  -26.2892  -29.7335   24.0803 H   0  0  0  0  0  0  0  0  0  0  0  0
  -27.4336  -29.7484   25.4006 H   0  0  0  0  0  0  0  0  0  0  0  0
  -27.8466  -30.4994   23.8779 H   0  0  0  0  0  0  0  0  0  0  0  0
  -27.2251  -33.3632   26.1242 H   0  0  0  0  0  0  0  0  0  0  0  0
  -28.3902  -32.6065   25.0645 H   0  0  0  0  0  0  0  0  0  0  0  0
  -27.9772  -31.8555   26.5872 H   0  0  0  0  0  0  0  0  0  0  0  0
  -28.2744  -38.0016   24.6863 H   0  0  0  0  0  0  0  0  0  0  0  0
  -28.0396  -36.2711   24.7461 H   0  0  0  0  0  0  0  0  0  0  0  0
  -27.1773  -37.3087   25.8564 H   0  0  0  0  0  0  0  0  0  0  0  0
  -20.9627  -29.9365   21.7352 H   0  0  0  0  0  0  0  0  0  0  0  0
  -26.0447  -38.2561   24.0273 H   0  0  0  0  0  0  0  0  0  0  0  0
  -19.2008  -13.4711   19.3857 H   0  0  0  0  0  0  0  0  0  0  0  0
  -19.6666  -13.5198   21.0691 H   0  0  0  0  0  0  0  0  0  0  0  0
  -20.8149  -12.9986   19.8596 H   0  0  0  0  0  0  0  0  0  0  0  0
  -20.1812  -17.9115   19.3902 H   0  0  0  0  0  0  0  0  0  0  0  0
  -19.5006  -17.6797   17.7845 H   0  0  0  0  0  0  0  0  0  0  0  0
  -22.2648  -16.9177   18.6643 H   0  0  0  0  0  0  0  0  0  0  0  0
  -21.6007  -16.7543   17.0241 H   0  0  0  0  0  0  0  0  0  0  0  0
  -21.2112  -19.1695   16.8597 H   0  0  0  0  0  0  0  0  0  0  0  0
  -21.8166  -19.4348   18.5019 H   0  0  0  0  0  0  0  0  0  0  0  0
  -21.5847  -14.6331   18.1352 H   0  0  0  0  0  0  0  0  0  0  0  0
  -19.9250  -15.2624   17.8684 H   0  0  0  0  0  0  0  0  0  0  0  0
  -19.7292  -20.4423   19.1363 H   0  0  0  0  0  0  0  0  0  0  0  0
  -19.0989  -20.1542   17.5087 H   0  0  0  0  0  0  0  0  0  0  0  0
  -22.3443  -14.6248   20.7376 H   0  0  0  0  0  0  0  0  0  0  0  0
  -21.1354  -15.5056   21.8001 H   0  0  0  0  0  0  0  0  0  0  0  0
  -19.6969  -15.8005   20.1415 H   0  0  0  0  0  0  0  0  0  0  0  0
  -20.2302  -22.5293   17.3180 H   0  0  0  0  0  0  0  0  0  0  0  0
  1 25  1  0
  1 30  2  0
  1 79  1  0
  2  3  1  0
  2 25  1  0
  2 80  1  0
  2 81  1  0
  3  4  1  0
  3 82  1  0
  3 83  1  0
  4  5  1  0
  4 84  1  0
  4 85  1  0
  5  6  1  0
  5 26  1  0
  5 86  1  6
  6 25  1  0
  6 87  1  0
  6 88  1  0
  7  8  2  0
  7 26  1  0
  7 29  1  0
  8  9  1  0
  8 22  1  0
  9 10  1  0
  9 27  2  0
 10 11  2  0
 10 15  1  0
 11 12  1  0
 11 89  1  0
 12 13  2  0
 12 90  1  0
 13 14  1  0
 13 31  1  0
 14 15  2  0
 14 91  1  0
 15 92  1  0
 16 17  2  0
 16 21  1  0
 16 31  1  0
 17 18  1  0
 17 93  1  0
 18 19  2  0
 18 94  1  0
 19 20  1  0
 19 24  1  0
 20 21  2  0
 20 95  1  0
 21 23  1  0
 22 28  1  0
 22 32  2  0
 26 27  1  0
 28 96  1  0
 28 97  1  0
 29 98  1  0
 29 99  1  0
 33 34  1  0
 33 66  1  0
 33 70  2  0
 34 36  1  0
 34 59  1  0
 34100  1  6
 35 44  2  0
 35 45  1  0
 35 68  1  0
 36 56  1  0
 36101  1  0
 37 39  1  0
 37 47  1  0
 37 66  1  0
 37102  1  6
 38 43  2  0
 38 46  1  0
 38 47  1  0
 39 64  1  0
 39 67  2  0
 40 52  1  0
 40 53  2  0
 40 58  1  0
 41103  1  0
 41104  1  0
 41105  1  0
 42 43  1  0
 42 66  1  0
 42106  1  0
 42107  1  0
 43 44  1  0
 44108  1  0
 45 46  2  0
 45109  1  0
 46110  1  0
 47111  1  0
 47112  1  0
 48 41  1  0
 48 56  1  0
 48 65  1  0
 48113  1  1
 49 50  1  0
 49 53  1  0
 49 64  1  0
 49114  1  1
 50 51  1  0
 50115  1  0
 50116  1  0
 51 52  1  0
 51117  1  0
 51118  1  0
 52119  1  0
 52120  1  0
 53 54  1  0
 54 55  2  0
 54121  1  0
 55 57  1  0
 55122  1  0
 56 69  2  0
 57 58  2  0
 57123  1  0
 58124  1  0
 59 60  1  0
 59 61  1  0
 59 62  1  0
 60125  1  0
 60126  1  0
 60127  1  0
 61128  1  0
 61129  1  0
 61130  1  0
 62131  1  0
 62132  1  0
 62133  1  0
 63 65  1  0
 63134  1  0
 63135  1  0
 63136  1  0
 64137  1  0
 65138  1  0
 68 77  1  0
 71139  1  0
 71140  1  0
 71141  1  0
 72 73  1  0
 72 74  1  0
 72142  1  0
 72143  1  0
 73 75  1  0
 73144  1  0
 73145  1  0
 74 76  1  0
 74146  1  0
 74147  1  0
 75 78  1  0
 75148  1  0
 75149  1  0
 76 79  1  0
 76150  1  0
 76151  1  0
 77 78  1  0
 77152  1  0
 77153  1  0
 78 71  1  0
 78154  1  1
 79155  1  0
M  ISO  4   1 100  68 101  77 101  79 100
M  END
$$$$
51
     RDKit          3D

173181  0  0  0  0  0  0  0  0999 V2000
  -30.7652  -14.3608   20.6636 C   0  0  0  0  0  0  0  0  0100  0  0
  -30.4392  -12.2669   19.3775 C   0  0  0  0  0  0  0  0  0101  0  0
  -29.4791  -12.5281   18.1977 C   0  0  0  0  0  0  0  0  0102  0  0
  -27.9985  -12.3963   18.6038 C   0  0  0  0  0  0  0  0  0103  0  0
  -27.6639  -13.2170   19.8820 C   0  0  2  0  0  0  0  0  0104  0  0
  -28.6795  -12.9602   21.0279 C   0  0  0  0  0  0  0  0  0105  0  0
  -25.2633  -13.8245   20.5754 C   0  0  0  0  0  0  0  0  0106  0  0
  -24.1645  -13.0409   20.9408 C   0  0  0  0  0  0  0  0  0107  0  0
  -24.6400  -11.7009   20.8697 C   0  0  0  0  0  0  0  0  0108  0  0
  -23.9005  -10.4085   21.0420 C   0  0  0  0  0  0  0  0  0109  0  0
  -24.3588   -9.4123   21.9123 C   0  0  0  0  0  0  0  0  0110  0  0
  -23.6296   -8.2350   22.0803 C   0  0  0  0  0  0  0  0  0111  0  0
  -22.4385   -8.0419   21.3657 C   0  0  0  0  0  0  0  0  0112  0  0
  -22.0103   -9.0167   20.4678 C   0  0  0  0  0  0  0  0  0113  0  0
  -22.7317  -10.1925   20.3102 C   0  0  0  0  0  0  0  0  0114  0  0
  -21.6857   -6.0709   22.5391 C   0  0  0  0  0  0  0  0  0115  0  0
  -21.4064   -6.5490   23.8264 C   0  0  0  0  0  0  0  0  0116  0  0
  -21.3635   -5.6677   24.9085 C   0  0  0  0  0  0  0  0  0117  0  0
  -21.5973   -4.3067   24.7088 C   0  0  0  0  0  0  0  0  0118  0  0
  -21.8700   -3.8284   23.4282 C   0  0  0  0  0  0  0  0  0119  0  0
  -21.9144   -4.7056   22.3460 C   0  0  0  0  0  0  0  0  0120  0  0
  -22.8194  -13.5263   21.1763 C   0  0  0  0  0  0  0  0  0121  0  0
  -22.1559   -4.2206   21.1063 F   0  0  0  0  0  0  0  0  0122  0  0
  -21.5628   -3.4510   25.7555 F   0  0  0  0  0  0  0  0  0123  0  0
  -30.0261  -13.1803   20.4553 N   0  0  0  0  0  0  0  0  0124  0  0
  -26.2911  -12.9356   20.3443 N   0  0  0  0  0  0  0  0  0125  0  0
  -25.9236  -11.6675   20.5847 N   0  0  0  0  0  0  0  0  0126  0  0
  -22.0708  -12.7905   22.0005 N   0  0  0  0  0  0  0  0  0127  0  0
  -25.4117  -15.1773   20.4097 N   0  0  0  0  0  0  0  0  0128  0  0
  -31.7916  -14.6724   20.0536 O   0  0  0  0  0  0  0  0  0129  0  0
  -21.6670   -6.9022   21.4423 O   0  0  0  0  0  0  0  0  0130  0  0
  -22.3946  -14.5564   20.6568 O   0  0  0  0  0  0  0  0  0131  0  0
  -24.6048  -31.8614   23.2223 C   0  0  0  0  0  0  0  0  0100  0  0
  -25.8822  -32.4841   23.8616 C   0  0  1  0  0  0  0  0  0101  0  0
  -27.2536  -27.5042   20.1156 C   0  0  0  0  0  0  0  0  0102  0  0
  -25.5726  -33.8762   24.2210 N   0  0  0  0  0  0  0  0  0103  0  0
  -23.4066  -30.4859   21.5461 C   0  0  2  0  0  0  0  0  0104  0  0
  -24.8467  -28.9636   20.1247 C   0  0  0  0  0  0  0  0  0105  0  0
  -22.7412  -29.4652   22.5052 C   0  0  0  0  0  0  0  0  0106  0  0
  -18.0167  -28.1302   22.8626 C   0  0  0  0  0  0  0  0  0107  0  0
  -24.1342  -36.7390   23.2568 C   0  0  0  0  0  0  0  0  0108  0  0
  -25.9141  -30.8882   21.3456 C   0  0  0  0  0  0  0  0  0109  0  0
  -25.9930  -29.5029   20.7208 C   0  0  0  0  0  0  0  0  0110  0  0
  -27.1758  -28.7612   20.7331 C   0  0  0  0  0  0  0  0  0111  0  0
  -26.1032  -26.9836   19.5230 C   0  0  0  0  0  0  0  0  0112  0  0
  -24.9097  -27.7011   19.5331 C   0  0  0  0  0  0  0  0  0113  0  0
  -23.5715  -29.7899   20.1582 C   0  0  0  0  0  0  0  0  0114  0  0
  -25.3990  -36.3212   24.0232 C   0  0  1  0  0  0  0  0  0115  0  0
  -20.5793  -28.3813   23.1004 C   0  0  2  0  0  0  0  0  0116  0  0
  -20.6548  -26.9392   22.5411 C   0  0  0  0  0  0  0  0  0117  0  0
  -19.5615  -26.6407   21.5143 C   0  0  0  0  0  0  0  0  0118  0  0
  -18.1797  -26.7818   22.1673 C   0  0  0  0  0  0  0  0  0119  0  0
  -19.1385  -28.8769   23.2988 C   0  0  0  0  0  0  0  0  0120  0  0
  -18.9183  -30.1286   23.8878 C   0  0  0  0  0  0  0  0  0121  0  0
  -17.6396  -30.6493   24.0352 C   0  0  0  0  0  0  0  0  0122  0  0
  -25.9153  -34.9582   23.4993 C   0  0  0  0  0  0  0  0  0123  0  0
  -16.5415  -29.9068   23.6254 C   0  0  0  0  0  0  0  0  0124  0  0
  -16.7331  -28.6521   23.0586 C   0  0  0  0  0  0  0  0  0125  0  0
  -26.4583  -31.6439   25.0683 C   0  0  0  0  0  0  0  0  0126  0  0
  -25.3807  -31.3179   26.1374 C   0  0  0  0  0  0  0  0  0127  0  0
  -27.0530  -30.3024   24.5680 C   0  0  0  0  0  0  0  0  0128  0  0
  -27.6014  -32.4281   25.7651 C   0  0  0  0  0  0  0  0  0129  0  0
  -27.5629  -37.2220   24.8621 C   0  0  0  0  0  0  0  0  0130  0  0
  -21.4133  -29.3375   22.3735 N   0  0  0  0  0  0  0  0  0131  0  0
  -26.4706  -37.3372   23.9061 N   0  0  0  0  0  0  0  0  0132  0  0
  -24.6674  -31.0544   22.1178 N   0  0  0  0  0  0  0  0  0133  0  0
  -23.4259  -28.8150   23.2971 O   0  0  0  0  0  0  0  0  0134  0  0
  -28.3948  -26.7345   20.0089 O   0  0  0  0  0  0  0  0  0135  0  0
  -26.5870  -34.9065   22.4671 O   0  0  0  0  0  0  0  0  0136  0  0
  -23.5365  -32.1254   23.7833 O   0  0  0  0  0  0  0  0  0137  0  0
  -26.7749  -20.5444   22.7056 C   0  0  0  0  0  0  0  0  0  0  0  0
  -28.8887  -20.6510   21.6686 C   0  0  0  0  0  0  0  0  0  0  0  0
  -27.1165  -19.1391   22.1833 C   0  0  1  0  0  0  0  0  0  0  0  0
  -28.6278  -19.1910   21.9786 C   0  0  1  0  0  0  0  0  0  0  0  0
  -25.2035  -18.0326   23.3515 C   0  0  0  0  0  0  0  0  0  0  0  0
  -25.9639  -25.4356   24.4767 C   0  0  0  0  0  0  0  0  0  0  0  0
  -28.6503  -18.8663   19.5099 C   0  0  0  0  0  0  0  0  0  0  0  0
  -26.6815  -18.0238   23.1221 C   0  0  0  0  0  0  0  0  0  0  0  0
  -27.0282  -23.3310   23.5720 C   0  0  0  0  0  0  0  0  0  0  0  0
  -27.8584  -22.7115   22.4454 C   0  0  0  0  0  0  0  0  0  0  0  0
  -30.7873  -16.8781   21.8836 C   0  0  0  0  0  0  0  0  0  0  0  0
  -30.5291  -18.0011   20.8964 C   0  0  0  0  0  0  0  0  0  0  0  0
  -26.8262  -24.8373   23.3734 C   0  0  1  0  0  0  0  0  0  1  0  0
  -28.0427  -21.2882   22.6804 N   0  0  0  0  0  0  0  0  0  0  0  0
  -30.1160  -15.6537   21.5081 N   0  0  0  0  0  0  0  0  0  0  0  0
  -29.0519  -18.3237   20.8632 N   0  0  1  0  0  0  0  0  0  0  0  0
  -31.4485  -12.4701   19.0860 H   0  0  0  0  0  0  0  0  0  0  0  0
  -30.3970  -11.2460   19.6950 H   0  0  0  0  0  0  0  0  0  0  0  0
  -29.6870  -11.8204   17.4226 H   0  0  0  0  0  0  0  0  0  0  0  0
  -29.6375  -13.5326   17.8649 H   0  0  0  0  0  0  0  0  0  0  0  0
  -27.7830  -11.3650   18.7904 H   0  0  0  0  0  0  0  0  0  0  0  0
  -27.4028  -12.7801   17.8021 H   0  0  0  0  0  0  0  0  0  0  0  0
  -27.7353  -14.2503   19.6136 H   0  0  0  0  0  0  0  0  0  0  0  0
  -28.5890  -11.9550   21.3832 H   0  0  0  0  0  0  0  0  0  0  0  0
  -28.5005  -13.6134   21.8562 H   0  0  0  0  0  0  0  0  0  0  0  0
  -25.2399   -9.5495   22.4318 H   0  0  0  0  0  0  0  0  0  0  0  0
  -23.9663   -7.5070   22.7297 H   0  0  0  0  0  0  0  0  0  0  0  0
  -21.1515   -8.8641   19.9162 H   0  0  0  0  0  0  0  0  0  0  0  0
  -22.4016  -10.9115   19.6476 H   0  0  0  0  0  0  0  0  0  0  0  0
  -21.2319   -7.5552   23.9750 H   0  0  0  0  0  0  0  0  0  0  0  0
  -21.1589   -6.0228   25.8556 H   0  0  0  0  0  0  0  0  0  0  0  0
  -22.0396   -2.8212   23.2809 H   0  0  0  0  0  0  0  0  0  0  0  0
  -22.4401  -11.9703   22.4008 H   0  0  0  0  0  0  0  0  0  0  0  0
  -21.1493  -13.0679   22.2082 H   0  0  0  0  0  0  0  0  0  0  0  0
  -24.6538  -15.7807   20.5848 H   0  0  0  0  0  0  0  0  0  0  0  0
  -26.2762  -15.5453   20.1156 H   0  0  0  0  0  0  0  0  0  0  0  0
  -26.6778  -32.4663   23.1464 H   0  0  0  0  0  0  0  0  0  0  0  0
  -25.0747  -34.0282   25.0566 H   0  0  0  0  0  0  0  0  0  0  0  0
  -22.7881  -31.3489   21.4131 H   0  0  0  0  0  0  0  0  0  0  0  0
  -23.3854  -35.9823   23.3648 H   0  0  0  0  0  0  0  0  0  0  0  0
  -24.3696  -36.8624   22.2204 H   0  0  0  0  0  0  0  0  0  0  0  0
  -23.7669  -37.6632   23.6516 H   0  0  0  0  0  0  0  0  0  0  0  0
  -25.9445  -31.6237   20.5691 H   0  0  0  0  0  0  0  0  0  0  0  0
  -26.7436  -31.0079   22.0108 H   0  0  0  0  0  0  0  0  0  0  0  0
  -28.0090  -29.1452   21.2057 H   0  0  0  0  0  0  0  0  0  0  0  0
  -26.1369  -26.0560   19.0719 H   0  0  0  0  0  0  0  0  0  0  0  0
  -24.0652  -27.2961   19.0997 H   0  0  0  0  0  0  0  0  0  0  0  0
  -23.6156  -30.5365   19.3930 H   0  0  0  0  0  0  0  0  0  0  0  0
  -22.7355  -29.1425   19.9945 H   0  0  0  0  0  0  0  0  0  0  0  0
  -25.1353  -36.2335   25.0565 H   0  0  0  0  0  0  0  0  0  0  0  0
  -21.0070  -28.3206   24.0793 H   0  0  0  0  0  0  0  0  0  0  0  0
  -20.5555  -26.2518   23.3550 H   0  0  0  0  0  0  0  0  0  0  0  0
  -21.5974  -26.8362   22.0454 H   0  0  0  0  0  0  0  0  0  0  0  0
  -19.6810  -25.6422   21.1488 H   0  0  0  0  0  0  0  0  0  0  0  0
  -19.6406  -27.3343   20.7034 H   0  0  0  0  0  0  0  0  0  0  0  0
  -17.4282  -26.6888   21.4113 H   0  0  0  0  0  0  0  0  0  0  0  0
  -18.0803  -26.0130   22.9049 H   0  0  0  0  0  0  0  0  0  0  0  0
  -19.7265  -30.6774   24.2204 H   0  0  0  0  0  0  0  0  0  0  0  0
  -17.5064  -31.5856   24.4483 H   0  0  0  0  0  0  0  0  0  0  0  0
  -15.5878  -30.2839   23.7407 H   0  0  0  0  0  0  0  0  0  0  0  0
  -15.9120  -28.0941   22.7766 H   0  0  0  0  0  0  0  0  0  0  0  0
  -24.5787  -30.7757   25.6817 H   0  0  0  0  0  0  0  0  0  0  0  0
  -25.0041  -32.2289   26.5536 H   0  0  0  0  0  0  0  0  0  0  0  0
  -25.8166  -30.7245   26.9138 H   0  0  0  0  0  0  0  0  0  0  0  0
  -26.2892  -29.7335   24.0803 H   0  0  0  0  0  0  0  0  0  0  0  0
  -27.4336  -29.7484   25.4006 H   0  0  0  0  0  0  0  0  0  0  0  0
  -27.8466  -30.4994   23.8779 H   0  0  0  0  0  0  0  0  0  0  0  0
  -27.2251  -33.3632   26.1242 H   0  0  0  0  0  0  0  0  0  0  0  0
  -28.3902  -32.6065   25.0645 H   0  0  0  0  0  0  0  0  0  0  0  0
  -27.9772  -31.8555   26.5872 H   0  0  0  0  0  0  0  0  0  0  0  0
  -28.2744  -38.0016   24.6863 H   0  0  0  0  0  0  0  0  0  0  0  0
  -28.0396  -36.2711   24.7461 H   0  0  0  0  0  0  0  0  0  0  0  0
  -27.1773  -37.3087   25.8564 H   0  0  0  0  0  0  0  0  0  0  0  0
  -20.9627  -29.9365   21.7352 H   0  0  0  0  0  0  0  0  0  0  0  0
  -26.0447  -38.2561   24.0273 H   0  0  0  0  0  0  0  0  0  0  0  0
  -26.3922  -20.4903   23.7034 H   0  0  0  0  0  0  0  0  0  0  0  0
  -26.0230  -21.0187   22.1101 H   0  0  0  0  0  0  0  0  0  0  0  0
  -28.5800  -20.9064   20.6764 H   0  0  0  0  0  0  0  0  0  0  0  0
  -29.9188  -20.9386   21.7002 H   0  0  0  0  0  0  0  0  0  0  0  0
  -26.5886  -18.9039   21.2828 H   0  0  0  0  0  0  0  0  0  0  0  0
  -29.1738  -18.8395   22.8290 H   0  0  0  0  0  0  0  0  0  0  0  0
  -24.9408  -17.2353   24.0149 H   0  0  0  0  0  0  0  0  0  0  0  0
  -24.6969  -17.9016   22.4182 H   0  0  0  0  0  0  0  0  0  0  0  0
  -24.9155  -18.9673   23.7855 H   0  0  0  0  0  0  0  0  0  0  0  0
  -25.7289  -24.6788   25.1957 H   0  0  0  0  0  0  0  0  0  0  0  0
  -25.0589  -25.8191   24.0537 H   0  0  0  0  0  0  0  0  0  0  0  0
  -26.4980  -26.2293   24.9560 H   0  0  0  0  0  0  0  0  0  0  0  0
  -27.6033  -19.0868   19.5105 H   0  0  0  0  0  0  0  0  0  0  0  0
  -28.8607  -18.1365   18.7563 H   0  0  0  0  0  0  0  0  0  0  0  0
  -29.2028  -19.7595   19.3055 H   0  0  0  0  0  0  0  0  0  0  0  0
  -27.1781  -18.1490   24.0616 H   0  0  0  0  0  0  0  0  0  0  0  0
  -26.9413  -17.0895   22.6699 H   0  0  0  0  0  0  0  0  0  0  0  0
  -27.5324  -23.1695   24.5019 H   0  0  0  0  0  0  0  0  0  0  0  0
  -26.0652  -22.8646   23.5684 H   0  0  0  0  0  0  0  0  0  0  0  0
  -28.8147  -23.1900   22.4071 H   0  0  0  0  0  0  0  0  0  0  0  0
  -27.3437  -22.8480   21.5173 H   0  0  0  0  0  0  0  0  0  0  0  0
  -30.4374  -17.1806   22.8485 H   0  0  0  0  0  0  0  0  0  0  0  0
  -31.8398  -16.6854   21.8930 H   0  0  0  0  0  0  0  0  0  0  0  0
  -30.8485  -17.6975   19.9214 H   0  0  0  0  0  0  0  0  0  0  0  0
  -31.0741  -18.8706   21.1995 H   0  0  0  0  0  0  0  0  0  0  0  0
  -27.2302  -25.7727   23.0468 H   0  0  0  0  0  0  0  0  0  0  0  0
  -29.1731  -15.5707   21.7787 H   0  0  0  0  0  0  0  0  0  0  0  0
  -28.5464  -17.4488   21.0025 H   0  0  0  0  0  0  0  0  0  0  0  0
  1 25  1  0
  1 30  2  0
  1 85  1  0
  2  3  1  0
  2 25  1  0
  2 87  1  0
  2 88  1  0
  3  4  1  0
  3 89  1  0
  3 90  1  0
  4  5  1  0
  4 91  1  0
  4 92  1  0
  5  6  1  0
  5 26  1  0
  5 93  1  6
  6 25  1  0
  6 94  1  0
  6 95  1  0
  7  8  2  0
  7 26  1  0
  7 29  1  0
  8  9  1  0
  8 22  1  0
  9 10  1  0
  9 27  2  0
 10 11  2  0
 10 15  1  0
 11 12  1  0
 11 96  1  0
 12 13  2  0
 12 97  1  0
 13 14  1  0
 13 31  1  0
 14 15  2  0
 14 98  1  0
 15 99  1  0
 16 17  2  0
 16 21  1  0
 16 31  1  0
 17 18  1  0
 17100  1  0
 18 19  2  0
 18101  1  0
 19 20  1  0
 19 24  1  0
 20 21  2  0
 20102  1  0
 21 23  1  0
 22 28  1  0
 22 32  2  0
 26 27  1  0
 28103  1  0
 28104  1  0
 29105  1  0
 29106  1  0
 33 34  1  0
 33 66  1  0
 33 70  2  0
 34 36  1  0
 34 59  1  0
 34107  1  6
 35 44  2  0
 35 45  1  0
 35 68  1  0
 36 56  1  0
 36108  1  0
 37 39  1  0
 37 47  1  0
 37 66  1  0
 37109  1  6
 38 43  2  0
 38 46  1  0
 38 47  1  0
 39 64  1  0
 39 67  2  0
 40 52  1  0
 40 53  2  0
 40 58  1  0
 41110  1  0
 41111  1  0
 41112  1  0
 42 43  1  0
 42 66  1  0
 42113  1  0
 42114  1  0
 43 44  1  0
 44115  1  0
 45 46  2  0
 45116  1  0
 46117  1  0
 47118  1  0
 47119  1  0
 48 41  1  0
 48 56  1  0
 48 65  1  0
 48120  1  1
 49 50  1  0
 49 53  1  0
 49 64  1  0
 49121  1  1
 50 51  1  0
 50122  1  0
 50123  1  0
 51 52  1  0
 51124  1  0
 51125  1  0
 52126  1  0
 52127  1  0
 53 54  1  0
 54 55  2  0
 54128  1  0
 55 57  1  0
 55129  1  0
 56 69  2  0
 57 58  2  0
 57130  1  0
 58131  1  0
 59 60  1  0
 59 61  1  0
 59 62  1  0
 60132  1  0
 60133  1  0
 60134  1  0
 61135  1  0
 61136  1  0
 61137  1  0
 62138  1  0
 62139  1  0
 62140  1  0
 63 65  1  0
 63141  1  0
 63142  1  0
 63143  1  0
 64144  1  0
 65145  1  0
 68 83  1  0
 71 73  1  0
 71 84  1  0
 71146  1  0
 71147  1  0
 72 84  1  0
 72148  1  0
 72149  1  0
 73 74  1  0
 73 78  1  0
 73150  1  6
 74 72  1  0
 74 86  1  0
 74151  1  1
 75 78  1  0
 75152  1  0
 75153  1  0
 75154  1  0
 76155  1  0
 76156  1  0
 76157  1  0
 77158  1  0
 77159  1  0
 77160  1  0
 78161  1  0
 78162  1  0
 79 80  1  0
 79 83  1  0
 79163  1  0
 79164  1  0
 80 84  1  0
 80165  1  0
 80166  1  0
 81 82  1  0
 81 85  1  0
 81167  1  0
 81168  1  0
 82 86  1  0
 82169  1  0
 82170  1  0
 83 76  1  0
 83171  1  1
 85172  1  0
 86 77  1  0
 86173  1  1
M  CHG  1  86   1
M  ISO  4   1 100  68 101  83 101  85 100
M  END
$$$$
52
     RDKit          3D

162170  0  0  0  0  0  0  0  0999 V2000
  -30.7652  -14.3608   20.6636 C   0  0  0  0  0  0  0  0  0100  0  0
  -30.4392  -12.2669   19.3775 C   0  0  0  0  0  0  0  0  0101  0  0
  -29.4791  -12.5281   18.1977 C   0  0  0  0  0  0  0  0  0102  0  0
  -27.9985  -12.3963   18.6038 C   0  0  0  0  0  0  0  0  0103  0  0
  -27.6639  -13.2170   19.8820 C   0  0  2  0  0  0  0  0  0104  0  0
  -28.6795  -12.9602   21.0279 C   0  0  0  0  0  0  0  0  0105  0  0
  -25.2633  -13.8245   20.5754 C   0  0  0  0  0  0  0  0  0106  0  0
  -24.1645  -13.0409   20.9408 C   0  0  0  0  0  0  0  0  0107  0  0
  -24.6400  -11.7009   20.8697 C   0  0  0  0  0  0  0  0  0108  0  0
  -23.9005  -10.4085   21.0420 C   0  0  0  0  0  0  0  0  0109  0  0
  -24.3588   -9.4123   21.9123 C   0  0  0  0  0  0  0  0  0110  0  0
  -23.6296   -8.2350   22.0803 C   0  0  0  0  0  0  0  0  0111  0  0
  -22.4385   -8.0419   21.3657 C   0  0  0  0  0  0  0  0  0112  0  0
  -22.0103   -9.0167   20.4678 C   0  0  0  0  0  0  0  0  0113  0  0
  -22.7317  -10.1925   20.3102 C   0  0  0  0  0  0  0  0  0114  0  0
  -21.6857   -6.0709   22.5391 C   0  0  0  0  0  0  0  0  0115  0  0
  -21.4064   -6.5490   23.8264 C   0  0  0  0  0  0  0  0  0116  0  0
  -21.3635   -5.6677   24.9085 C   0  0  0  0  0  0  0  0  0117  0  0
  -21.5973   -4.3067   24.7088 C   0  0  0  0  0  0  0  0  0118  0  0
  -21.8700   -3.8284   23.4282 C   0  0  0  0  0  0  0  0  0119  0  0
  -21.9144   -4.7056   22.3460 C   0  0  0  0  0  0  0  0  0120  0  0
  -22.8194  -13.5263   21.1763 C   0  0  0  0  0  0  0  0  0121  0  0
  -22.1559   -4.2206   21.1063 F   0  0  0  0  0  0  0  0  0122  0  0
  -21.5628   -3.4510   25.7555 F   0  0  0  0  0  0  0  0  0123  0  0
  -30.0261  -13.1803   20.4553 N   0  0  0  0  0  0  0  0  0124  0  0
  -26.2911  -12.9356   20.3443 N   0  0  0  0  0  0  0  0  0125  0  0
  -25.9236  -11.6675   20.5847 N   0  0  0  0  0  0  0  0  0126  0  0
  -22.0708  -12.7905   22.0005 N   0  0  0  0  0  0  0  0  0127  0  0
  -25.4117  -15.1773   20.4097 N   0  0  0  0  0  0  0  0  0128  0  0
  -31.7916  -14.6724   20.0536 O   0  0  0  0  0  0  0  0  0129  0  0
  -21.6670   -6.9022   21.4423 O   0  0  0  0  0  0  0  0  0130  0  0
  -22.3946  -14.5564   20.6568 O   0  0  0  0  0  0  0  0  0131  0  0
  -24.6048  -31.8614   23.2223 C   0  0  0  0  0  0  0  0  0100  0  0
  -25.8822  -32.4841   23.8616 C   0  0  1  0  0  0  0  0  0101  0  0
  -27.2536  -27.5042   20.1156 C   0  0  0  0  0  0  0  0  0102  0  0
  -25.5726  -33.8762   24.2210 N   0  0  0  0  0  0  0  0  0103  0  0
  -23.4066  -30.4859   21.5461 C   0  0  2  0  0  0  0  0  0104  0  0
  -24.8467  -28.9636   20.1247 C   0  0  0  0  0  0  0  0  0105  0  0
  -22.7412  -29.4652   22.5052 C   0  0  0  0  0  0  0  0  0106  0  0
  -18.0167  -28.1302   22.8626 C   0  0  0  0  0  0  0  0  0107  0  0
  -24.1342  -36.7390   23.2568 C   0  0  0  0  0  0  0  0  0108  0  0
  -25.9141  -30.8882   21.3456 C   0  0  0  0  0  0  0  0  0109  0  0
  -25.9930  -29.5029   20.7208 C   0  0  0  0  0  0  0  0  0110  0  0
  -27.1758  -28.7612   20.7331 C   0  0  0  0  0  0  0  0  0111  0  0
  -26.1032  -26.9836   19.5230 C   0  0  0  0  0  0  0  0  0112  0  0
  -24.9097  -27.7011   19.5331 C   0  0  0  0  0  0  0  0  0113  0  0
  -23.5715  -29.7899   20.1582 C   0  0  0  0  0  0  0  0  0114  0  0
  -25.3990  -36.3212   24.0232 C   0  0  1  0  0  0  0  0  0115  0  0
  -20.5793  -28.3813   23.1004 C   0  0  2  0  0  0  0  0  0116  0  0
  -20.6548  -26.9392   22.5411 C   0  0  0  0  0  0  0  0  0117  0  0
  -19.5615  -26.6407   21.5143 C   0  0  0  0  0  0  0  0  0118  0  0
  -18.1797  -26.7818   22.1673 C   0  0  0  0  0  0  0  0  0119  0  0
  -19.1385  -28.8769   23.2988 C   0  0  0  0  0  0  0  0  0120  0  0
  -18.9183  -30.1286   23.8878 C   0  0  0  0  0  0  0  0  0121  0  0
  -17.6396  -30.6493   24.0352 C   0  0  0  0  0  0  0  0  0122  0  0
  -25.9153  -34.9582   23.4993 C   0  0  0  0  0  0  0  0  0123  0  0
  -16.5415  -29.9068   23.6254 C   0  0  0  0  0  0  0  0  0124  0  0
  -16.7331  -28.6521   23.0586 C   0  0  0  0  0  0  0  0  0125  0  0
  -26.4583  -31.6439   25.0683 C   0  0  0  0  0  0  0  0  0126  0  0
  -25.3807  -31.3179   26.1374 C   0  0  0  0  0  0  0  0  0127  0  0
  -27.0530  -30.3024   24.5680 C   0  0  0  0  0  0  0  0  0128  0  0
  -27.6014  -32.4281   25.7651 C   0  0  0  0  0  0  0  0  0129  0  0
  -27.5629  -37.2220   24.8621 C   0  0  0  0  0  0  0  0  0130  0  0
  -21.4133  -29.3375   22.3735 N   0  0  0  0  0  0  0  0  0131  0  0
  -26.4706  -37.3372   23.9061 N   0  0  0  0  0  0  0  0  0132  0  0
  -24.6674  -31.0544   22.1178 N   0  0  0  0  0  0  0  0  0133  0  0
  -23.4259  -28.8150   23.2971 O   0  0  0  0  0  0  0  0  0134  0  0
  -28.3948  -26.7345   20.0089 O   0  0  0  0  0  0  0  0  0135  0  0
  -26.5870  -34.9065   22.4671 O   0  0  0  0  0  0  0  0  0136  0  0
  -23.5365  -32.1254   23.7833 O   0  0  0  0  0  0  0  0  0137  0  0
  -27.2348  -21.6507   18.7597 C   0  0  0  0  0  0  0  0  0  0  0  0
  -28.3782  -23.3059   19.4574 C   0  0  0  0  0  0  0  0  0  0  0  0
  -27.4407  -23.0886   18.2641 C   0  0  0  0  0  0  0  0  0  0  0  0
  -25.3036  -24.2789   16.3481 C   0  0  0  0  0  0  0  0  0  0  0  0
  -26.5145  -23.2342   14.4213 C   0  0  0  0  0  0  0  0  0  0  0  0
  -29.4000  -25.9706   17.6016 C   0  0  0  0  0  0  0  0  0  0  0  0
  -27.9634  -25.6267   17.1827 C   0  0  0  0  0  0  0  0  0  0  0  0
  -29.4550  -27.2011   18.5022 C   0  0  0  0  0  0  0  0  0  1  0  0
  -26.5373  -24.3755   15.4451 C   0  0  0  0  0  0  0  0  0  0  0  0
  -27.8828  -24.4382   16.2094 C   0  0  2  0  0  0  0  0  0  0  0  0
  -27.7726  -22.1077   20.0337 N   0  0  0  0  0  0  0  0  0  0  0  0
  -28.1185  -23.1699   16.9651 N   0  0  0  0  0  0  0  0  0  0  0  0
  -31.4485  -12.4701   19.0860 H   0  0  0  0  0  0  0  0  0  0  0  0
  -30.3970  -11.2460   19.6950 H   0  0  0  0  0  0  0  0  0  0  0  0
  -29.6870  -11.8204   17.4226 H   0  0  0  0  0  0  0  0  0  0  0  0
  -29.6375  -13.5326   17.8649 H   0  0  0  0  0  0  0  0  0  0  0  0
  -27.7830  -11.3650   18.7904 H   0  0  0  0  0  0  0  0  0  0  0  0
  -27.4028  -12.7801   17.8021 H   0  0  0  0  0  0  0  0  0  0  0  0
  -27.7353  -14.2503   19.6136 H   0  0  0  0  0  0  0  0  0  0  0  0
  -28.5890  -11.9550   21.3832 H   0  0  0  0  0  0  0  0  0  0  0  0
  -28.5005  -13.6134   21.8562 H   0  0  0  0  0  0  0  0  0  0  0  0
  -25.2399   -9.5495   22.4318 H   0  0  0  0  0  0  0  0  0  0  0  0
  -23.9663   -7.5070   22.7297 H   0  0  0  0  0  0  0  0  0  0  0  0
  -21.1515   -8.8641   19.9162 H   0  0  0  0  0  0  0  0  0  0  0  0
  -22.4016  -10.9115   19.6476 H   0  0  0  0  0  0  0  0  0  0  0  0
  -21.2319   -7.5552   23.9750 H   0  0  0  0  0  0  0  0  0  0  0  0
  -21.1589   -6.0228   25.8556 H   0  0  0  0  0  0  0  0  0  0  0  0
  -22.0396   -2.8212   23.2809 H   0  0  0  0  0  0  0  0  0  0  0  0
  -22.4401  -11.9703   22.4008 H   0  0  0  0  0  0  0  0  0  0  0  0
  -21.1493  -13.0679   22.2082 H   0  0  0  0  0  0  0  0  0  0  0  0
  -24.6538  -15.7807   20.5848 H   0  0  0  0  0  0  0  0  0  0  0  0
  -26.2762  -15.5453   20.1156 H   0  0  0  0  0  0  0  0  0  0  0  0
  -26.6778  -32.4663   23.1464 H   0  0  0  0  0  0  0  0  0  0  0  0
  -25.0747  -34.0282   25.0566 H   0  0  0  0  0  0  0  0  0  0  0  0
  -22.7881  -31.3489   21.4131 H   0  0  0  0  0  0  0  0  0  0  0  0
  -23.3854  -35.9823   23.3648 H   0  0  0  0  0  0  0  0  0  0  0  0
  -24.3696  -36.8624   22.2204 H   0  0  0  0  0  0  0  0  0  0  0  0
  -23.7669  -37.6632   23.6516 H   0  0  0  0  0  0  0  0  0  0  0  0
  -25.9445  -31.6237   20.5691 H   0  0  0  0  0  0  0  0  0  0  0  0
  -26.7436  -31.0079   22.0108 H   0  0  0  0  0  0  0  0  0  0  0  0
  -28.0090  -29.1452   21.2057 H   0  0  0  0  0  0  0  0  0  0  0  0
  -26.1369  -26.0560   19.0719 H   0  0  0  0  0  0  0  0  0  0  0  0
  -24.0652  -27.2961   19.0997 H   0  0  0  0  0  0  0  0  0  0  0  0
  -23.6156  -30.5365   19.3930 H   0  0  0  0  0  0  0  0  0  0  0  0
  -22.7355  -29.1425   19.9945 H   0  0  0  0  0  0  0  0  0  0  0  0
  -25.1353  -36.2335   25.0565 H   0  0  0  0  0  0  0  0  0  0  0  0
  -21.0070  -28.3206   24.0793 H   0  0  0  0  0  0  0  0  0  0  0  0
  -20.5555  -26.2518   23.3550 H   0  0  0  0  0  0  0  0  0  0  0  0
  -21.5974  -26.8362   22.0454 H   0  0  0  0  0  0  0  0  0  0  0  0
  -19.6810  -25.6422   21.1488 H   0  0  0  0  0  0  0  0  0  0  0  0
  -19.6406  -27.3343   20.7034 H   0  0  0  0  0  0  0  0  0  0  0  0
  -17.4282  -26.6888   21.4113 H   0  0  0  0  0  0  0  0  0  0  0  0
  -18.0803  -26.0130   22.9049 H   0  0  0  0  0  0  0  0  0  0  0  0
  -19.7265  -30.6774   24.2204 H   0  0  0  0  0  0  0  0  0  0  0  0
  -17.5064  -31.5856   24.4483 H   0  0  0  0  0  0  0  0  0  0  0  0
  -15.5878  -30.2839   23.7407 H   0  0  0  0  0  0  0  0  0  0  0  0
  -15.9120  -28.0941   22.7766 H   0  0  0  0  0  0  0  0  0  0  0  0
  -24.5787  -30.7757   25.6817 H   0  0  0  0  0  0  0  0  0  0  0  0
  -25.0041  -32.2289   26.5536 H   0  0  0  0  0  0  0  0  0  0  0  0
  -25.8166  -30.7245   26.9138 H   0  0  0  0  0  0  0  0  0  0  0  0
  -26.2892  -29.7335   24.0803 H   0  0  0  0  0  0  0  0  0  0  0  0
  -27.4336  -29.7484   25.4006 H   0  0  0  0  0  0  0  0  0  0  0  0
  -27.8466  -30.4994   23.8779 H   0  0  0  0  0  0  0  0  0  0  0  0
  -27.2251  -33.3632   26.1242 H   0  0  0  0  0  0  0  0  0  0  0  0
  -28.3902  -32.6065   25.0645 H   0  0  0  0  0  0  0  0  0  0  0  0
  -27.9772  -31.8555   26.5872 H   0  0  0  0  0  0  0  0  0  0  0  0
  -28.2744  -38.0016   24.6863 H   0  0  0  0  0  0  0  0  0  0  0  0
  -28.0396  -36.2711   24.7461 H   0  0  0  0  0  0  0  0  0  0  0  0
  -27.1773  -37.3087   25.8564 H   0  0  0  0  0  0  0  0  0  0  0  0
  -20.9627  -29.9365   21.7352 H   0  0  0  0  0  0  0  0  0  0  0  0
  -26.0447  -38.2561   24.0273 H   0  0  0  0  0  0  0  0  0  0  0  0
  -27.8273  -20.9132   18.2597 H   0  0  0  0  0  0  0  0  0  0  0  0
  -26.2921  -21.1501   18.6843 H   0  0  0  0  0  0  0  0  0  0  0  0
  -28.2052  -24.2071   20.0077 H   0  0  0  0  0  0  0  0  0  0  0  0
  -29.4365  -23.4125   19.3413 H   0  0  0  0  0  0  0  0  0  0  0  0
  -26.6135  -23.7401   18.0738 H   0  0  0  0  0  0  0  0  0  0  0  0
  -24.4214  -24.2403   15.7438 H   0  0  0  0  0  0  0  0  0  0  0  0
  -25.2611  -25.1363   16.9869 H   0  0  0  0  0  0  0  0  0  0  0  0
  -25.3665  -23.3927   16.9444 H   0  0  0  0  0  0  0  0  0  0  0  0
  -25.5708  -23.2262   13.9171 H   0  0  0  0  0  0  0  0  0  0  0  0
  -26.6580  -22.3008   14.9244 H   0  0  0  0  0  0  0  0  0  0  0  0
  -27.2988  -23.3792   13.7080 H   0  0  0  0  0  0  0  0  0  0  0  0
  -29.9800  -26.1599   16.7226 H   0  0  0  0  0  0  0  0  0  0  0  0
  -29.7907  -25.1407   18.1525 H   0  0  0  0  0  0  0  0  0  0  0  0
  -27.5332  -26.4840   16.7086 H   0  0  0  0  0  0  0  0  0  0  0  0
  -27.4324  -25.3479   18.0688 H   0  0  0  0  0  0  0  0  0  0  0  0
  -29.0469  -28.0545   18.0021 H   0  0  0  0  0  0  0  0  0  0  0  0
  -30.4564  -27.4623   18.7741 H   0  0  0  0  0  0  0  0  0  0  0  0
  -26.4778  -25.3149   14.9364 H   0  0  0  0  0  0  0  0  0  0  0  0
  -28.6415  -24.5720   15.4669 H   0  0  0  0  0  0  0  0  0  0  0  0
  -27.7937  -22.3931   16.3893 H   0  0  0  0  0  0  0  0  0  0  0  0
  -29.1187  -23.1364   17.1622 H   0  0  0  0  0  0  0  0  0  0  0  0
  1 25  1  0
  1 30  2  0
  1 81  1  0
  2  3  1  0
  2 25  1  0
  2 83  1  0
  2 84  1  0
  3  4  1  0
  3 85  1  0
  3 86  1  0
  4  5  1  0
  4 87  1  0
  4 88  1  0
  5  6  1  0
  5 26  1  0
  5 89  1  6
  6 25  1  0
  6 90  1  0
  6 91  1  0
  7  8  2  0
  7 26  1  0
  7 29  1  0
  8  9  1  0
  8 22  1  0
  9 10  1  0
  9 27  2  0
 10 11  2  0
 10 15  1  0
 11 12  1  0
 11 92  1  0
 12 13  2  0
 12 93  1  0
 13 14  1  0
 13 31  1  0
 14 15  2  0
 14 94  1  0
 15 95  1  0
 16 17  2  0
 16 21  1  0
 16 31  1  0
 17 18  1  0
 17 96  1  0
 18 19  2  0
 18 97  1  0
 19 20  1  0
 19 24  1  0
 20 21  2  0
 20 98  1  0
 21 23  1  0
 22 28  1  0
 22 32  2  0
 26 27  1  0
 28 99  1  0
 28100  1  0
 29101  1  0
 29102  1  0
 33 34  1  0
 33 66  1  0
 33 70  2  0
 34 36  1  0
 34 59  1  0
 34103  1  6
 35 44  2  0
 35 45  1  0
 35 68  1  0
 36 56  1  0
 36104  1  0
 37 39  1  0
 37 47  1  0
 37 66  1  0
 37105  1  6
 38 43  2  0
 38 46  1  0
 38 47  1  0
 39 64  1  0
 39 67  2  0
 40 52  1  0
 40 53  2  0
 40 58  1  0
 41106  1  0
 41107  1  0
 41108  1  0
 42 43  1  0
 42 66  1  0
 42109  1  0
 42110  1  0
 43 44  1  0
 44111  1  0
 45 46  2  0
 45112  1  0
 46113  1  0
 47114  1  0
 47115  1  0
 48 41  1  0
 48 56  1  0
 48 65  1  0
 48116  1  1
 49 50  1  0
 49 53  1  0
 49 64  1  0
 49117  1  1
 50 51  1  0
 50118  1  0
 50119  1  0
 51 52  1  0
 51120  1  0
 51121  1  0
 52122  1  0
 52123  1  0
 53 54  1  0
 54 55  2  0
 54124  1  0
 55 57  1  0
 55125  1  0
 56 69  2  0
 57 58  2  0
 57126  1  0
 58127  1  0
 59 60  1  0
 59 61  1  0
 59 62  1  0
 60128  1  0
 60129  1  0
 60130  1  0
 61131  1  0
 61132  1  0
 61133  1  0
 62134  1  0
 62135  1  0
 62136  1  0
 63 65  1  0
 63137  1  0
 63138  1  0
 63139  1  0
 64140  1  0
 65141  1  0
 68 78  1  0
 71 73  1  0
 71 81  1  0
 71142  1  0
 71143  1  0
 72 73  1  0
 72 81  1  0
 72144  1  0
 72145  1  0
 73 82  1  0
 73146  1  0
 74147  1  0
 74148  1  0
 74149  1  0
 75 79  1  0
 75150  1  0
 75151  1  0
 75152  1  0
 76 77  1  0
 76 78  1  0
 76153  1  0
 76154  1  0
 77155  1  0
 77156  1  0
 78157  1  0
 78158  1  0
 79 74  1  0
 79 80  1  0
 79159  1  0
 80 77  1  0
 80 82  1  0
 80160  1  6
 82161  1  0
 82162  1  0
M  CHG  1  82   1
M  ISO  4   1 100  68 101  78 101  81 100
M  END
$$$$
53
     RDKit          3D

151159  0  0  0  0  0  0  0  0999 V2000
  -30.7652  -14.3608   20.6636 C   0  0  0  0  0  0  0  0  0100  0  0
  -30.4392  -12.2669   19.3775 C   0  0  0  0  0  0  0  0  0101  0  0
  -29.4791  -12.5281   18.1977 C   0  0  0  0  0  0  0  0  0102  0  0
  -27.9985  -12.3963   18.6038 C   0  0  0  0  0  0  0  0  0103  0  0
  -27.6639  -13.2170   19.8820 C   0  0  2  0  0  0  0  0  0104  0  0
  -28.6795  -12.9602   21.0279 C   0  0  0  0  0  0  0  0  0105  0  0
  -25.2633  -13.8245   20.5754 C   0  0  0  0  0  0  0  0  0106  0  0
  -24.1645  -13.0409   20.9408 C   0  0  0  0  0  0  0  0  0107  0  0
  -24.6400  -11.7009   20.8697 C   0  0  0  0  0  0  0  0  0108  0  0
  -23.9005  -10.4085   21.0420 C   0  0  0  0  0  0  0  0  0109  0  0
  -24.3588   -9.4123   21.9123 C   0  0  0  0  0  0  0  0  0110  0  0
  -23.6296   -8.2350   22.0803 C   0  0  0  0  0  0  0  0  0111  0  0
  -22.4385   -8.0419   21.3657 C   0  0  0  0  0  0  0  0  0112  0  0
  -22.0103   -9.0167   20.4678 C   0  0  0  0  0  0  0  0  0113  0  0
  -22.7317  -10.1925   20.3102 C   0  0  0  0  0  0  0  0  0114  0  0
  -21.6857   -6.0709   22.5391 C   0  0  0  0  0  0  0  0  0115  0  0
  -21.4064   -6.5490   23.8264 C   0  0  0  0  0  0  0  0  0116  0  0
  -21.3635   -5.6677   24.9085 C   0  0  0  0  0  0  0  0  0117  0  0
  -21.5973   -4.3067   24.7088 C   0  0  0  0  0  0  0  0  0118  0  0
  -21.8700   -3.8284   23.4282 C   0  0  0  0  0  0  0  0  0119  0  0
  -21.9144   -4.7056   22.3460 C   0  0  0  0  0  0  0  0  0120  0  0
  -22.8194  -13.5263   21.1763 C   0  0  0  0  0  0  0  0  0121  0  0
  -22.1559   -4.2206   21.1063 F   0  0  0  0  0  0  0  0  0122  0  0
  -21.5628   -3.4510   25.7555 F   0  0  0  0  0  0  0  0  0123  0  0
  -30.0261  -13.1803   20.4553 N   0  0  0  0  0  0  0  0  0124  0  0
  -26.2911  -12.9356   20.3443 N   0  0  0  0  0  0  0  0  0125  0  0
  -25.9236  -11.6675   20.5847 N   0  0  0  0  0  0  0  0  0126  0  0
  -22.0708  -12.7905   22.0005 N   0  0  0  0  0  0  0  0  0127  0  0
  -25.4117  -15.1773   20.4097 N   0  0  0  0  0  0  0  0  0128  0  0
  -31.7916  -14.6724   20.0536 O   0  0  0  0  0  0  0  0  0129  0  0
  -21.6670   -6.9022   21.4423 O   0  0  0  0  0  0  0  0  0130  0  0
  -22.3946  -14.5564   20.6568 O   0  0  0  0  0  0  0  0  0131  0  0
  -24.6048  -31.8614   23.2223 C   0  0  0  0  0  0  0  0  0100  0  0
  -25.8822  -32.4841   23.8616 C   0  0  1  0  0  0  0  0  0101  0  0
  -27.2536  -27.5042   20.1156 C   0  0  0  0  0  0  0  0  0102  0  0
  -25.5726  -33.8762   24.2210 N   0  0  0  0  0  0  0  0  0103  0  0
  -23.4066  -30.4859   21.5461 C   0  0  2  0  0  0  0  0  0104  0  0
  -24.8467  -28.9636   20.1247 C   0  0  0  0  0  0  0  0  0105  0  0
  -22.7412  -29.4652   22.5052 C   0  0  0  0  0  0  0  0  0106  0  0
  -18.0167  -28.1302   22.8626 C   0  0  0  0  0  0  0  0  0107  0  0
  -24.1342  -36.7390   23.2568 C   0  0  0  0  0  0  0  0  0108  0  0
  -25.9141  -30.8882   21.3456 C   0  0  0  0  0  0  0  0  0109  0  0
  -25.9930  -29.5029   20.7208 C   0  0  0  0  0  0  0  0  0110  0  0
  -27.1758  -28.7612   20.7331 C   0  0  0  0  0  0  0  0  0111  0  0
  -26.1032  -26.9836   19.5230 C   0  0  0  0  0  0  0  0  0112  0  0
  -24.9097  -27.7011   19.5331 C   0  0  0  0  0  0  0  0  0113  0  0
  -23.5715  -29.7899   20.1582 C   0  0  0  0  0  0  0  0  0114  0  0
  -25.3990  -36.3212   24.0232 C   0  0  1  0  0  0  0  0  0115  0  0
  -20.5793  -28.3813   23.1004 C   0  0  2  0  0  0  0  0  0116  0  0
  -20.6548  -26.9392   22.5411 C   0  0  0  0  0  0  0  0  0117  0  0
  -19.5615  -26.6407   21.5143 C   0  0  0  0  0  0  0  0  0118  0  0
  -18.1797  -26.7818   22.1673 C   0  0  0  0  0  0  0  0  0119  0  0
  -19.1385  -28.8769   23.2988 C   0  0  0  0  0  0  0  0  0120  0  0
  -18.9183  -30.1286   23.8878 C   0  0  0  0  0  0  0  0  0121  0  0
  -17.6396  -30.6493   24.0352 C   0  0  0  0  0  0  0  0  0122  0  0
  -25.9153  -34.9582   23.4993 C   0  0  0  0  0  0  0  0  0123  0  0
  -16.5415  -29.9068   23.6254 C   0  0  0  0  0  0  0  0  0124  0  0
  -16.7331  -28.6521   23.0586 C   0  0  0  0  0  0  0  0  0125  0  0
  -26.4583  -31.6439   25.0683 C   0  0  0  0  0  0  0  0  0126  0  0
  -25.3807  -31.3179   26.1374 C   0  0  0  0  0  0  0  0  0127  0  0
  -27.0530  -30.3024   24.5680 C   0  0  0  0  0  0  0  0  0128  0  0
  -27.6014  -32.4281   25.7651 C   0  0  0  0  0  0  0  0  0129  0  0
  -27.5629  -37.2220   24.8621 C   0  0  0  0  0  0  0  0  0130  0  0
  -21.4133  -29.3375   22.3735 N   0  0  0  0  0  0  0  0  0131  0  0
  -26.4706  -37.3372   23.9061 N   0  0  0  0  0  0  0  0  0132  0  0
  -24.6674  -31.0544   22.1178 N   0  0  0  0  0  0  0  0  0133  0  0
  -23.4259  -28.8150   23.2971 O   0  0  0  0  0  0  0  0  0134  0  0
  -28.3948  -26.7345   20.0089 O   0  0  0  0  0  0  0  0  0135  0  0
  -26.5870  -34.9065   22.4671 O   0  0  0  0  0  0  0  0  0136  0  0
  -23.5365  -32.1254   23.7833 O   0  0  0  0  0  0  0  0  0137  0  0
  -29.7209  -23.7391   16.2138 C   0  0  0  0  0  0  0  0  0  0  0  0
  -28.7467  -21.7335   16.7216 C   0  0  0  0  0  0  0  0  0  0  0  0
  -30.2577  -23.7993   17.4809 C   0  0  0  0  0  0  0  0  0  0  0  0
  -29.2841  -21.7932   17.9886 C   0  0  0  0  0  0  0  0  0  0  0  0
  -30.9953  -27.4587   18.5261 C   0  0  0  0  0  0  0  0  0  0  0  0
  -31.1145  -24.9789   17.8991 C   0  0  1  0  0  0  0  0  0  0  0  0
  -30.2770  -26.1123   18.5253 C   0  0  1  0  0  0  0  0  0  1  0  0
  -28.9557  -22.7052   15.8113 N   0  0  0  0  0  0  0  0  0  0  0  0
  -30.0490  -22.8274   18.3911 N   0  0  0  0  0  0  0  0  0  0  0  0
  -29.0182  -20.7305   18.8872 N   0  0  0  0  0  0  0  0  0  0  0  0
  -32.2344  -24.6025   18.8185 N   0  0  0  0  0  0  0  0  0  0  0  0
  -31.4485  -12.4701   19.0860 H   0  0  0  0  0  0  0  0  0  0  0  0
  -30.3970  -11.2460   19.6950 H   0  0  0  0  0  0  0  0  0  0  0  0
  -29.6870  -11.8204   17.4226 H   0  0  0  0  0  0  0  0  0  0  0  0
  -29.6375  -13.5326   17.8649 H   0  0  0  0  0  0  0  0  0  0  0  0
  -27.7830  -11.3650   18.7904 H   0  0  0  0  0  0  0  0  0  0  0  0
  -27.4028  -12.7801   17.8021 H   0  0  0  0  0  0  0  0  0  0  0  0
  -27.7353  -14.2503   19.6136 H   0  0  0  0  0  0  0  0  0  0  0  0
  -28.5890  -11.9550   21.3832 H   0  0  0  0  0  0  0  0  0  0  0  0
  -28.5005  -13.6134   21.8562 H   0  0  0  0  0  0  0  0  0  0  0  0
  -25.2399   -9.5495   22.4318 H   0  0  0  0  0  0  0  0  0  0  0  0
  -23.9663   -7.5070   22.7297 H   0  0  0  0  0  0  0  0  0  0  0  0
  -21.1515   -8.8641   19.9162 H   0  0  0  0  0  0  0  0  0  0  0  0
  -22.4016  -10.9115   19.6476 H   0  0  0  0  0  0  0  0  0  0  0  0
  -21.2319   -7.5552   23.9750 H   0  0  0  0  0  0  0  0  0  0  0  0
  -21.1589   -6.0228   25.8556 H   0  0  0  0  0  0  0  0  0  0  0  0
  -22.0396   -2.8212   23.2809 H   0  0  0  0  0  0  0  0  0  0  0  0
  -22.4401  -11.9703   22.4008 H   0  0  0  0  0  0  0  0  0  0  0  0
  -21.1493  -13.0679   22.2082 H   0  0  0  0  0  0  0  0  0  0  0  0
  -24.6538  -15.7807   20.5848 H   0  0  0  0  0  0  0  0  0  0  0  0
  -26.2762  -15.5453   20.1156 H   0  0  0  0  0  0  0  0  0  0  0  0
  -26.6778  -32.4663   23.1464 H   0  0  0  0  0  0  0  0  0  0  0  0
  -25.0747  -34.0282   25.0566 H   0  0  0  0  0  0  0  0  0  0  0  0
  -22.7881  -31.3489   21.4131 H   0  0  0  0  0  0  0  0  0  0  0  0
  -23.3854  -35.9823   23.3648 H   0  0  0  0  0  0  0  0  0  0  0  0
  -24.3696  -36.8624   22.2204 H   0  0  0  0  0  0  0  0  0  0  0  0
  -23.7669  -37.6632   23.6516 H   0  0  0  0  0  0  0  0  0  0  0  0
  -25.9445  -31.6237   20.5691 H   0  0  0  0  0  0  0  0  0  0  0  0
  -26.7436  -31.0079   22.0108 H   0  0  0  0  0  0  0  0  0  0  0  0
  -28.0090  -29.1452   21.2057 H   0  0  0  0  0  0  0  0  0  0  0  0
  -26.1369  -26.0560   19.0719 H   0  0  0  0  0  0  0  0  0  0  0  0
  -24.0652  -27.2961   19.0997 H   0  0  0  0  0  0  0  0  0  0  0  0
  -23.6156  -30.5365   19.3930 H   0  0  0  0  0  0  0  0  0  0  0  0
  -22.7355  -29.1425   19.9945 H   0  0  0  0  0  0  0  0  0  0  0  0
  -25.1353  -36.2335   25.0565 H   0  0  0  0  0  0  0  0  0  0  0  0
  -21.0070  -28.3206   24.0793 H   0  0  0  0  0  0  0  0  0  0  0  0
  -20.5555  -26.2518   23.3550 H   0  0  0  0  0  0  0  0  0  0  0  0
  -21.5974  -26.8362   22.0454 H   0  0  0  0  0  0  0  0  0  0  0  0
  -19.6810  -25.6422   21.1488 H   0  0  0  0  0  0  0  0  0  0  0  0
  -19.6406  -27.3343   20.7034 H   0  0  0  0  0  0  0  0  0  0  0  0
  -17.4282  -26.6888   21.4113 H   0  0  0  0  0  0  0  0  0  0  0  0
  -18.0803  -26.0130   22.9049 H   0  0  0  0  0  0  0  0  0  0  0  0
  -19.7265  -30.6774   24.2204 H   0  0  0  0  0  0  0  0  0  0  0  0
  -17.5064  -31.5856   24.4483 H   0  0  0  0  0  0  0  0  0  0  0  0
  -15.5878  -30.2839   23.7407 H   0  0  0  0  0  0  0  0  0  0  0  0
  -15.9120  -28.0941   22.7766 H   0  0  0  0  0  0  0  0  0  0  0  0
  -24.5787  -30.7757   25.6817 H   0  0  0  0  0  0  0  0  0  0  0  0
  -25.0041  -32.2289   26.5536 H   0  0  0  0  0  0  0  0  0  0  0  0
  -25.8166  -30.7245   26.9138 H   0  0  0  0  0  0  0  0  0  0  0  0
  -26.2892  -29.7335   24.0803 H   0  0  0  0  0  0  0  0  0  0  0  0
  -27.4336  -29.7484   25.4006 H   0  0  0  0  0  0  0  0  0  0  0  0
  -27.8466  -30.4994   23.8779 H   0  0  0  0  0  0  0  0  0  0  0  0
  -27.2251  -33.3632   26.1242 H   0  0  0  0  0  0  0  0  0  0  0  0
  -28.3902  -32.6065   25.0645 H   0  0  0  0  0  0  0  0  0  0  0  0
  -27.9772  -31.8555   26.5872 H   0  0  0  0  0  0  0  0  0  0  0  0
  -28.2744  -38.0016   24.6863 H   0  0  0  0  0  0  0  0  0  0  0  0
  -28.0396  -36.2711   24.7461 H   0  0  0  0  0  0  0  0  0  0  0  0
  -27.1773  -37.3087   25.8564 H   0  0  0  0  0  0  0  0  0  0  0  0
  -20.9627  -29.9365   21.7352 H   0  0  0  0  0  0  0  0  0  0  0  0
  -26.0447  -38.2561   24.0273 H   0  0  0  0  0  0  0  0  0  0  0  0
  -29.9103  -24.5087   15.5529 H   0  0  0  0  0  0  0  0  0  0  0  0
  -28.1667  -20.9204   16.4617 H   0  0  0  0  0  0  0  0  0  0  0  0
  -31.8721  -27.3955   17.9161 H   0  0  0  0  0  0  0  0  0  0  0  0
  -31.2748  -27.7133   19.5271 H   0  0  0  0  0  0  0  0  0  0  0  0
  -30.3427  -28.2114   18.1357 H   0  0  0  0  0  0  0  0  0  0  0  0
  -31.5533  -25.3376   16.9915 H   0  0  0  0  0  0  0  0  0  0  0  0
  -29.7455  -25.2770   18.1195 H   0  0  0  0  0  0  0  0  0  0  0  0
  -28.3005  -21.0241   19.4938 H   0  0  0  0  0  0  0  0  0  0  0  0
  -31.8506  -24.2549   19.6973 H   0  0  0  0  0  0  0  0  0  0  0  0
  -32.8143  -25.4215   19.0011 H   0  0  0  0  0  0  0  0  0  0  0  0
  -32.8013  -23.8746   18.3836 H   0  0  0  0  0  0  0  0  0  0  0  0
  1 25  1  0
  1 30  2  0
  1 80  1  0
  2  3  1  0
  2 25  1  0
  2 82  1  0
  2 83  1  0
  3  4  1  0
  3 84  1  0
  3 85  1  0
  4  5  1  0
  4 86  1  0
  4 87  1  0
  5  6  1  0
  5 26  1  0
  5 88  1  6
  6 25  1  0
  6 89  1  0
  6 90  1  0
  7  8  2  0
  7 26  1  0
  7 29  1  0
  8  9  1  0
  8 22  1  0
  9 10  1  0
  9 27  2  0
 10 11  2  0
 10 15  1  0
 11 12  1  0
 11 91  1  0
 12 13  2  0
 12 92  1  0
 13 14  1  0
 13 31  1  0
 14 15  2  0
 14 93  1  0
 15 94  1  0
 16 17  2  0
 16 21  1  0
 16 31  1  0
 17 18  1  0
 17 95  1  0
 18 19  2  0
 18 96  1  0
 19 20  1  0
 19 24  1  0
 20 21  2  0
 20 97  1  0
 21 23  1  0
 22 28  1  0
 22 32  2  0
 26 27  1  0
 28 98  1  0
 28 99  1  0
 29100  1  0
 29101  1  0
 33 34  1  0
 33 66  1  0
 33 70  2  0
 34 36  1  0
 34 59  1  0
 34102  1  6
 35 44  2  0
 35 45  1  0
 35 68  1  0
 36 56  1  0
 36103  1  0
 37 39  1  0
 37 47  1  0
 37 66  1  0
 37104  1  6
 38 43  2  0
 38 46  1  0
 38 47  1  0
 39 64  1  0
 39 67  2  0
 40 52  1  0
 40 53  2  0
 40 58  1  0
 41105  1  0
 41106  1  0
 41107  1  0
 42 43  1  0
 42 66  1  0
 42108  1  0
 42109  1  0
 43 44  1  0
 44110  1  0
 45 46  2  0
 45111  1  0
 46112  1  0
 47113  1  0
 47114  1  0
 48 41  1  0
 48 56  1  0
 48 65  1  0
 48115  1  1
 49 50  1  0
 49 53  1  0
 49 64  1  0
 49116  1  1
 50 51  1  0
 50117  1  0
 50118  1  0
 51 52  1  0
 51119  1  0
 51120  1  0
 52121  1  0
 52122  1  0
 53 54  1  0
 54 55  2  0
 54123  1  0
 55 57  1  0
 55124  1  0
 56 69  2  0
 57 58  2  0
 57125  1  0
 58126  1  0
 59 60  1  0
 59 61  1  0
 59 62  1  0
 60127  1  0
 60128  1  0
 60129  1  0
 61130  1  0
 61131  1  0
 61132  1  0
 62133  1  0
 62134  1  0
 62135  1  0
 63 65  1  0
 63136  1  0
 63137  1  0
 63138  1  0
 64139  1  0
 65140  1  0
 68 77  1  0
 71 73  2  0
 71 78  1  0
 71141  1  0
 72 74  1  0
 72 78  2  0
 72142  1  0
 73 76  1  0
 73 79  1  0
 74 79  2  0
 74 80  1  0
 75143  1  0
 75144  1  0
 75145  1  0
 76 77  1  0
 76 81  1  0
 76146  1  6
 77 75  1  0
 77147  1  6
 80148  1  0
 81149  1  0
 81150  1  0
 81151  1  0
M  CHG  1  81   1
M  ISO  4   1 100  68 101  77 101  80 100
M  END
$$$$
54
     RDKit          3D

165173  0  0  0  0  0  0  0  0999 V2000
  -30.7652  -14.3608   20.6636 C   0  0  0  0  0  0  0  0  0100  0  0
  -30.4392  -12.2669   19.3775 C   0  0  0  0  0  0  0  0  0101  0  0
  -29.4791  -12.5281   18.1977 C   0  0  0  0  0  0  0  0  0102  0  0
  -27.9985  -12.3963   18.6038 C   0  0  0  0  0  0  0  0  0103  0  0
  -27.6639  -13.2170   19.8820 C   0  0  2  0  0  0  0  0  0104  0  0
  -28.6795  -12.9602   21.0279 C   0  0  0  0  0  0  0  0  0105  0  0
  -25.2633  -13.8245   20.5754 C   0  0  0  0  0  0  0  0  0106  0  0
  -24.1645  -13.0409   20.9408 C   0  0  0  0  0  0  0  0  0107  0  0
  -24.6400  -11.7009   20.8697 C   0  0  0  0  0  0  0  0  0108  0  0
  -23.9005  -10.4085   21.0420 C   0  0  0  0  0  0  0  0  0109  0  0
  -24.3588   -9.4123   21.9123 C   0  0  0  0  0  0  0  0  0110  0  0
  -23.6296   -8.2350   22.0803 C   0  0  0  0  0  0  0  0  0111  0  0
  -22.4385   -8.0419   21.3657 C   0  0  0  0  0  0  0  0  0112  0  0
  -22.0103   -9.0167   20.4678 C   0  0  0  0  0  0  0  0  0113  0  0
  -22.7317  -10.1925   20.3102 C   0  0  0  0  0  0  0  0  0114  0  0
  -21.6857   -6.0709   22.5391 C   0  0  0  0  0  0  0  0  0115  0  0
  -21.4064   -6.5490   23.8264 C   0  0  0  0  0  0  0  0  0116  0  0
  -21.3635   -5.6677   24.9085 C   0  0  0  0  0  0  0  0  0117  0  0
  -21.5973   -4.3067   24.7088 C   0  0  0  0  0  0  0  0  0118  0  0
  -21.8700   -3.8284   23.4282 C   0  0  0  0  0  0  0  0  0119  0  0
  -21.9144   -4.7056   22.3460 C   0  0  0  0  0  0  0  0  0120  0  0
  -22.8194  -13.5263   21.1763 C   0  0  0  0  0  0  0  0  0121  0  0
  -22.1559   -4.2206   21.1063 F   0  0  0  0  0  0  0  0  0122  0  0
  -21.5628   -3.4510   25.7555 F   0  0  0  0  0  0  0  0  0123  0  0
  -30.0261  -13.1803   20.4553 N   0  0  0  0  0  0  0  0  0124  0  0
  -26.2911  -12.9356   20.3443 N   0  0  0  0  0  0  0  0  0125  0  0
  -25.9236  -11.6675   20.5847 N   0  0  0  0  0  0  0  0  0126  0  0
  -22.0708  -12.7905   22.0005 N   0  0  0  0  0  0  0  0  0127  0  0
  -25.4117  -15.1773   20.4097 N   0  0  0  0  0  0  0  0  0128  0  0
  -31.7916  -14.6724   20.0536 O   0  0  0  0  0  0  0  0  0129  0  0
  -21.6670   -6.9022   21.4423 O   0  0  0  0  0  0  0  0  0130  0  0
  -22.3946  -14.5564   20.6568 O   0  0  0  0  0  0  0  0  0131  0  0
  -24.6048  -31.8614   23.2223 C   0  0  0  0  0  0  0  0  0100  0  0
  -25.8822  -32.4841   23.8616 C   0  0  1  0  0  0  0  0  0101  0  0
  -27.2536  -27.5042   20.1156 C   0  0  0  0  0  0  0  0  0102  0  0
  -25.5726  -33.8762   24.2210 N   0  0  0  0  0  0  0  0  0103  0  0
  -23.4066  -30.4859   21.5461 C   0  0  2  0  0  0  0  0  0104  0  0
  -24.8467  -28.9636   20.1247 C   0  0  0  0  0  0  0  0  0105  0  0
  -22.7412  -29.4652   22.5052 C   0  0  0  0  0  0  0  0  0106  0  0
  -18.0167  -28.1302   22.8626 C   0  0  0  0  0  0  0  0  0107  0  0
  -24.1342  -36.7390   23.2568 C   0  0  0  0  0  0  0  0  0108  0  0
  -25.9141  -30.8882   21.3456 C   0  0  0  0  0  0  0  0  0109  0  0
  -25.9930  -29.5029   20.7208 C   0  0  0  0  0  0  0  0  0110  0  0
  -27.1758  -28.7612   20.7331 C   0  0  0  0  0  0  0  0  0111  0  0
  -26.1032  -26.9836   19.5230 C   0  0  0  0  0  0  0  0  0112  0  0
  -24.9097  -27.7011   19.5331 C   0  0  0  0  0  0  0  0  0113  0  0
  -23.5715  -29.7899   20.1582 C   0  0  0  0  0  0  0  0  0114  0  0
  -25.3990  -36.3212   24.0232 C   0  0  1  0  0  0  0  0  0115  0  0
  -20.5793  -28.3813   23.1004 C   0  0  2  0  0  0  0  0  0116  0  0
  -20.6548  -26.9392   22.5411 C   0  0  0  0  0  0  0  0  0117  0  0
  -19.5615  -26.6407   21.5143 C   0  0  0  0  0  0  0  0  0118  0  0
  -18.1797  -26.7818   22.1673 C   0  0  0  0  0  0  0  0  0119  0  0
  -19.1385  -28.8769   23.2988 C   0  0  0  0  0  0  0  0  0120  0  0
  -18.9183  -30.1286   23.8878 C   0  0  0  0  0  0  0  0  0121  0  0
  -17.6396  -30.6493   24.0352 C   0  0  0  0  0  0  0  0  0122  0  0
  -25.9153  -34.9582   23.4993 C   0  0  0  0  0  0  0  0  0123  0  0
  -16.5415  -29.9068   23.6254 C   0  0  0  0  0  0  0  0  0124  0  0
  -16.7331  -28.6521   23.0586 C   0  0  0  0  0  0  0  0  0125  0  0
  -26.4583  -31.6439   25.0683 C   0  0  0  0  0  0  0  0  0126  0  0
  -25.3807  -31.3179   26.1374 C   0  0  0  0  0  0  0  0  0127  0  0
  -27.0530  -30.3024   24.5680 C   0  0  0  0  0  0  0  0  0128  0  0
  -27.6014  -32.4281   25.7651 C   0  0  0  0  0  0  0  0  0129  0  0
  -27.5629  -37.2220   24.8621 C   0  0  0  0  0  0  0  0  0130  0  0
  -21.4133  -29.3375   22.3735 N   0  0  0  0  0  0  0  0  0131  0  0
  -26.4706  -37.3372   23.9061 N   0  0  0  0  0  0  0  0  0132  0  0
  -24.6674  -31.0544   22.1178 N   0  0  0  0  0  0  0  0  0133  0  0
  -23.4259  -28.8150   23.2971 O   0  0  0  0  0  0  0  0  0134  0  0
  -28.3948  -26.7345   20.0089 O   0  0  0  0  0  0  0  0  0135  0  0
  -26.5870  -34.9065   22.4671 O   0  0  0  0  0  0  0  0  0136  0  0
  -23.5365  -32.1254   23.7833 O   0  0  0  0  0  0  0  0  0137  0  0
  -20.2877  -25.3137   22.0080 C   0  0  0  0  0  0  0  0  0  0  0  0
  -19.9253  -26.3494   22.8221 C   0  0  0  0  0  0  0  0  0  0  0  0
  -22.0308  -25.8328   23.2701 C   0  0  0  0  0  0  0  0  0  0  0  0
  -18.7772  -28.5956   22.6533 C   0  0  0  0  0  0  0  0  0  0  0  0
  -23.4897  -23.3423   17.9260 C   0  0  0  0  0  0  0  0  0  0  0  0
  -23.3820  -25.8481   23.8839 C   0  0  0  0  0  0  0  0  0  0  0  0
  -22.5542  -24.0976   20.1263 C   0  0  0  0  0  0  0  0  0  0  0  0
  -22.4097  -23.9309   21.6454 C   0  0  0  0  0  0  0  0  0  0  0  0
  -24.7742  -22.8010   20.0204 C   0  0  0  0  0  0  0  0  0  1  0  0
  -18.6635  -27.0826   22.9522 C   0  0  2  0  0  0  0  0  0  0  0  0
  -23.3772  -22.9997   19.4171 C   0  0  2  0  0  0  0  0  0  0  0  0
  -21.5954  -25.0149   22.3063 N   0  0  0  0  0  0  0  0  0  0  0  0
  -21.0228  -26.6498   23.5924 N   0  0  0  0  0  0  0  0  0  0  0  0
  -18.0346  -26.9124   24.2624 N   0  0  0  0  0  0  0  0  0  0  0  0
  -24.3775  -26.4448   23.0215 N   0  0  0  0  0  0  0  0  0  0  0  0
  -31.4485  -12.4701   19.0860 H   0  0  0  0  0  0  0  0  0  0  0  0
  -30.3970  -11.2460   19.6950 H   0  0  0  0  0  0  0  0  0  0  0  0
  -29.6870  -11.8204   17.4226 H   0  0  0  0  0  0  0  0  0  0  0  0
  -29.6375  -13.5326   17.8649 H   0  0  0  0  0  0  0  0  0  0  0  0
  -27.7830  -11.3650   18.7904 H   0  0  0  0  0  0  0  0  0  0  0  0
  -27.4028  -12.7801   17.8021 H   0  0  0  0  0  0  0  0  0  0  0  0
  -27.7353  -14.2503   19.6136 H   0  0  0  0  0  0  0  0  0  0  0  0
  -28.5890  -11.9550   21.3832 H   0  0  0  0  0  0  0  0  0  0  0  0
  -28.5005  -13.6134   21.8562 H   0  0  0  0  0  0  0  0  0  0  0  0
  -25.2399   -9.5495   22.4318 H   0  0  0  0  0  0  0  0  0  0  0  0
  -23.9663   -7.5070   22.7297 H   0  0  0  0  0  0  0  0  0  0  0  0
  -21.1515   -8.8641   19.9162 H   0  0  0  0  0  0  0  0  0  0  0  0
  -22.4016  -10.9115   19.6476 H   0  0  0  0  0  0  0  0  0  0  0  0
  -21.2319   -7.5552   23.9750 H   0  0  0  0  0  0  0  0  0  0  0  0
  -21.1589   -6.0228   25.8556 H   0  0  0  0  0  0  0  0  0  0  0  0
  -22.0396   -2.8212   23.2809 H   0  0  0  0  0  0  0  0  0  0  0  0
  -22.4401  -11.9703   22.4008 H   0  0  0  0  0  0  0  0  0  0  0  0
  -21.1493  -13.0679   22.2082 H   0  0  0  0  0  0  0  0  0  0  0  0
  -24.6538  -15.7807   20.5848 H   0  0  0  0  0  0  0  0  0  0  0  0
  -26.2762  -15.5453   20.1156 H   0  0  0  0  0  0  0  0  0  0  0  0
  -26.6778  -32.4663   23.1464 H   0  0  0  0  0  0  0  0  0  0  0  0
  -25.0747  -34.0282   25.0566 H   0  0  0  0  0  0  0  0  0  0  0  0
  -22.7881  -31.3489   21.4131 H   0  0  0  0  0  0  0  0  0  0  0  0
  -23.3854  -35.9823   23.3648 H   0  0  0  0  0  0  0  0  0  0  0  0
  -24.3696  -36.8624   22.2204 H   0  0  0  0  0  0  0  0  0  0  0  0
  -23.7669  -37.6632   23.6516 H   0  0  0  0  0  0  0  0  0  0  0  0
  -25.9445  -31.6237   20.5691 H   0  0  0  0  0  0  0  0  0  0  0  0
  -26.7436  -31.0079   22.0108 H   0  0  0  0  0  0  0  0  0  0  0  0
  -28.0090  -29.1452   21.2057 H   0  0  0  0  0  0  0  0  0  0  0  0
  -26.1369  -26.0560   19.0719 H   0  0  0  0  0  0  0  0  0  0  0  0
  -24.0652  -27.2961   19.0997 H   0  0  0  0  0  0  0  0  0  0  0  0
  -23.6156  -30.5365   19.3930 H   0  0  0  0  0  0  0  0  0  0  0  0
  -22.7355  -29.1425   19.9945 H   0  0  0  0  0  0  0  0  0  0  0  0
  -25.1353  -36.2335   25.0565 H   0  0  0  0  0  0  0  0  0  0  0  0
  -21.0070  -28.3206   24.0793 H   0  0  0  0  0  0  0  0  0  0  0  0
  -20.5555  -26.2518   23.3550 H   0  0  0  0  0  0  0  0  0  0  0  0
  -21.5974  -26.8362   22.0454 H   0  0  0  0  0  0  0  0  0  0  0  0
  -19.6810  -25.6422   21.1488 H   0  0  0  0  0  0  0  0  0  0  0  0
  -19.6406  -27.3343   20.7034 H   0  0  0  0  0  0  0  0  0  0  0  0
  -17.4282  -26.6888   21.4113 H   0  0  0  0  0  0  0  0  0  0  0  0
  -18.0803  -26.0130   22.9049 H   0  0  0  0  0  0  0  0  0  0  0  0
  -19.7265  -30.6774   24.2204 H   0  0  0  0  0  0  0  0  0  0  0  0
  -17.5064  -31.5856   24.4483 H   0  0  0  0  0  0  0  0  0  0  0  0
  -15.5878  -30.2839   23.7407 H   0  0  0  0  0  0  0  0  0  0  0  0
  -15.9120  -28.0941   22.7766 H   0  0  0  0  0  0  0  0  0  0  0  0
  -24.5787  -30.7757   25.6817 H   0  0  0  0  0  0  0  0  0  0  0  0
  -25.0041  -32.2289   26.5536 H   0  0  0  0  0  0  0  0  0  0  0  0
  -25.8166  -30.7245   26.9138 H   0  0  0  0  0  0  0  0  0  0  0  0
  -26.2892  -29.7335   24.0803 H   0  0  0  0  0  0  0  0  0  0  0  0
  -27.4336  -29.7484   25.4006 H   0  0  0  0  0  0  0  0  0  0  0  0
  -27.8466  -30.4994   23.8779 H   0  0  0  0  0  0  0  0  0  0  0  0
  -27.2251  -33.3632   26.1242 H   0  0  0  0  0  0  0  0  0  0  0  0
  -28.3902  -32.6065   25.0645 H   0  0  0  0  0  0  0  0  0  0  0  0
  -27.9772  -31.8555   26.5872 H   0  0  0  0  0  0  0  0  0  0  0  0
  -28.2744  -38.0016   24.6863 H   0  0  0  0  0  0  0  0  0  0  0  0
  -28.0396  -36.2711   24.7461 H   0  0  0  0  0  0  0  0  0  0  0  0
  -27.1773  -37.3087   25.8564 H   0  0  0  0  0  0  0  0  0  0  0  0
  -20.9627  -29.9365   21.7352 H   0  0  0  0  0  0  0  0  0  0  0  0
  -26.0447  -38.2561   24.0273 H   0  0  0  0  0  0  0  0  0  0  0  0
  -19.6941  -24.8462   21.3050 H   0  0  0  0  0  0  0  0  0  0  0  0
  -19.2359  -28.7367   21.6970 H   0  0  0  0  0  0  0  0  0  0  0  0
  -19.3739  -29.0644   23.4077 H   0  0  0  0  0  0  0  0  0  0  0  0
  -17.8005  -29.0326   22.6484 H   0  0  0  0  0  0  0  0  0  0  0  0
  -22.5106  -23.4785   17.5165 H   0  0  0  0  0  0  0  0  0  0  0  0
  -23.9831  -22.5435   17.4127 H   0  0  0  0  0  0  0  0  0  0  0  0
  -24.0539  -24.2439   17.8088 H   0  0  0  0  0  0  0  0  0  0  0  0
  -23.6729  -24.8408   24.0974 H   0  0  0  0  0  0  0  0  0  0  0  0
  -23.3272  -26.4399   24.7737 H   0  0  0  0  0  0  0  0  0  0  0  0
  -23.0289  -25.0384   19.9407 H   0  0  0  0  0  0  0  0  0  0  0  0
  -21.5643  -24.0305   19.7258 H   0  0  0  0  0  0  0  0  0  0  0  0
  -23.3880  -23.9333   22.0788 H   0  0  0  0  0  0  0  0  0  0  0  0
  -21.8896  -23.0101   21.8079 H   0  0  0  0  0  0  0  0  0  0  0  0
  -25.2169  -21.9808   19.4948 H   0  0  0  0  0  0  0  0  0  0  0  0
  -24.5618  -22.6849   21.0627 H   0  0  0  0  0  0  0  0  0  0  0  0
  -18.0445  -26.6393   22.2004 H   0  0  0  0  0  0  0  0  0  0  0  0
  -22.8586  -22.0740   19.5548 H   0  0  0  0  0  0  0  0  0  0  0  0
  -21.0610  -27.3573   24.2760 H   0  0  0  0  0  0  0  0  0  0  0  0
  -18.6239  -27.3347   24.9799 H   0  0  0  0  0  0  0  0  0  0  0  0
  -17.9205  -25.9179   24.4581 H   0  0  0  0  0  0  0  0  0  0  0  0
  -24.5411  -27.3661   22.7155 H   0  0  0  0  0  0  0  0  0  0  0  0
  1 25  1  0
  1 30  2  0
  1 85  1  0
  2  3  1  0
  2 25  1  0
  2 86  1  0
  2 87  1  0
  3  4  1  0
  3 88  1  0
  3 89  1  0
  4  5  1  0
  4 90  1  0
  4 91  1  0
  5  6  1  0
  5 26  1  0
  5 92  1  6
  6 25  1  0
  6 93  1  0
  6 94  1  0
  7  8  2  0
  7 26  1  0
  7 29  1  0
  8  9  1  0
  8 22  1  0
  9 10  1  0
  9 27  2  0
 10 11  2  0
 10 15  1  0
 11 12  1  0
 11 95  1  0
 12 13  2  0
 12 96  1  0
 13 14  1  0
 13 31  1  0
 14 15  2  0
 14 97  1  0
 15 98  1  0
 16 17  2  0
 16 21  1  0
 16 31  1  0
 17 18  1  0
 17 99  1  0
 18 19  2  0
 18100  1  0
 19 20  1  0
 19 24  1  0
 20 21  2  0
 20101  1  0
 21 23  1  0
 22 28  1  0
 22 32  2  0
 26 27  1  0
 28102  1  0
 28103  1  0
 29104  1  0
 29105  1  0
 33 34  1  0
 33 66  1  0
 33 70  2  0
 34 36  1  0
 34 59  1  0
 34106  1  6
 35 44  2  0
 35 45  1  0
 35 68  1  0
 36 56  1  0
 36107  1  0
 37 39  1  0
 37 47  1  0
 37 66  1  0
 37108  1  6
 38 43  2  0
 38 46  1  0
 38 47  1  0
 39 64  1  0
 39 67  2  0
 40 52  1  0
 40 53  2  0
 40 58  1  0
 41109  1  0
 41110  1  0
 41111  1  0
 42 43  1  0
 42 66  1  0
 42112  1  0
 42113  1  0
 43 44  1  0
 44114  1  0
 45 46  2  0
 45115  1  0
 46116  1  0
 47117  1  0
 47118  1  0
 48 41  1  0
 48 56  1  0
 48 65  1  0
 48119  1  1
 49 50  1  0
 49 53  1  0
 49 64  1  0
 49120  1  1
 50 51  1  0
 50121  1  0
 50122  1  0
 51 52  1  0
 51123  1  0
 51124  1  0
 52125  1  0
 52126  1  0
 53 54  1  0
 54 55  2  0
 54127  1  0
 55 57  1  0
 55128  1  0
 56 69  2  0
 57 58  2  0
 57129  1  0
 58130  1  0
 59 60  1  0
 59 61  1  0
 59 62  1  0
 60131  1  0
 60132  1  0
 60133  1  0
 61134  1  0
 61135  1  0
 61136  1  0
 62137  1  0
 62138  1  0
 62139  1  0
 63 65  1  0
 63140  1  0
 63141  1  0
 63142  1  0
 64143  1  0
 65144  1  0
 68 79  1  0
 71 72  2  0
 71 82  1  0
 71145  1  0
 72 80  1  0
 72 83  1  0
 73 76  1  0
 73 82  1  0
 73 83  2  0
 74146  1  0
 74147  1  0
 74148  1  0
 75149  1  0
 75150  1  0
 75151  1  0
 76 85  1  0
 76152  1  0
 76153  1  0
 77 78  1  0
 77 81  1  0
 77154  1  0
 77155  1  0
 78 82  1  0
 78156  1  0
 78157  1  0
 79 81  1  0
 79158  1  0
 79159  1  0
 80 74  1  0
 80 84  1  0
 80160  1  6
 81 75  1  0
 81161  1  6
 83162  1  0
 84163  1  0
 84164  1  0
 85165  1  0
M  CHG  1  83   1
M  ISO  4   1 100  68 101  79 101  85 100
M  END
$$$$
55
     RDKit          3D

168176  0  0  0  0  0  0  0  0999 V2000
  -30.7652  -14.3608   20.6636 C   0  0  0  0  0  0  0  0  0100  0  0
  -30.4392  -12.2669   19.3775 C   0  0  0  0  0  0  0  0  0101  0  0
  -29.4791  -12.5281   18.1977 C   0  0  0  0  0  0  0  0  0102  0  0
  -27.9985  -12.3963   18.6038 C   0  0  0  0  0  0  0  0  0103  0  0
  -27.6639  -13.2170   19.8820 C   0  0  2  0  0  0  0  0  0104  0  0
  -28.6795  -12.9602   21.0279 C   0  0  0  0  0  0  0  0  0105  0  0
  -25.2633  -13.8245   20.5754 C   0  0  0  0  0  0  0  0  0106  0  0
  -24.1645  -13.0409   20.9408 C   0  0  0  0  0  0  0  0  0107  0  0
  -24.6400  -11.7009   20.8697 C   0  0  0  0  0  0  0  0  0108  0  0
  -23.9005  -10.4085   21.0420 C   0  0  0  0  0  0  0  0  0109  0  0
  -24.3588   -9.4123   21.9123 C   0  0  0  0  0  0  0  0  0110  0  0
  -23.6296   -8.2350   22.0803 C   0  0  0  0  0  0  0  0  0111  0  0
  -22.4385   -8.0419   21.3657 C   0  0  0  0  0  0  0  0  0112  0  0
  -22.0103   -9.0167   20.4678 C   0  0  0  0  0  0  0  0  0113  0  0
  -22.7317  -10.1925   20.3102 C   0  0  0  0  0  0  0  0  0114  0  0
  -21.6857   -6.0709   22.5391 C   0  0  0  0  0  0  0  0  0115  0  0
  -21.4064   -6.5490   23.8264 C   0  0  0  0  0  0  0  0  0116  0  0
  -21.3635   -5.6677   24.9085 C   0  0  0  0  0  0  0  0  0117  0  0
  -21.5973   -4.3067   24.7088 C   0  0  0  0  0  0  0  0  0118  0  0
  -21.8700   -3.8284   23.4282 C   0  0  0  0  0  0  0  0  0119  0  0
  -21.9144   -4.7056   22.3460 C   0  0  0  0  0  0  0  0  0120  0  0
  -22.8194  -13.5263   21.1763 C   0  0  0  0  0  0  0  0  0121  0  0
  -22.1559   -4.2206   21.1063 F   0  0  0  0  0  0  0  0  0122  0  0
  -21.5628   -3.4510   25.7555 F   0  0  0  0  0  0  0  0  0123  0  0
  -30.0261  -13.1803   20.4553 N   0  0  0  0  0  0  0  0  0124  0  0
  -26.2911  -12.9356   20.3443 N   0  0  0  0  0  0  0  0  0125  0  0
  -25.9236  -11.6675   20.5847 N   0  0  0  0  0  0  0  0  0126  0  0
  -22.0708  -12.7905   22.0005 N   0  0  0  0  0  0  0  0  0127  0  0
  -25.4117  -15.1773   20.4097 N   0  0  0  0  0  0  0  0  0128  0  0
  -31.7916  -14.6724   20.0536 O   0  0  0  0  0  0  0  0  0129  0  0
  -21.6670   -6.9022   21.4423 O   0  0  0  0  0  0  0  0  0130  0  0
  -22.3946  -14.5564   20.6568 O   0  0  0  0  0  0  0  0  0131  0  0
  -24.6048  -31.8614   23.2223 C   0  0  0  0  0  0  0  0  0100  0  0
  -25.8822  -32.4841   23.8616 C   0  0  1  0  0  0  0  0  0101  0  0
  -27.2536  -27.5042   20.1156 C   0  0  0  0  0  0  0  0  0102  0  0
  -25.5726  -33.8762   24.2210 N   0  0  0  0  0  0  0  0  0103  0  0
  -23.4066  -30.4859   21.5461 C   0  0  2  0  0  0  0  0  0104  0  0
  -24.8467  -28.9636   20.1247 C   0  0  0  0  0  0  0  0  0105  0  0
  -22.7412  -29.4652   22.5052 C   0  0  0  0  0  0  0  0  0106  0  0
  -18.0167  -28.1302   22.8626 C   0  0  0  0  0  0  0  0  0107  0  0
  -24.1342  -36.7390   23.2568 C   0  0  0  0  0  0  0  0  0108  0  0
  -25.9141  -30.8882   21.3456 C   0  0  0  0  0  0  0  0  0109  0  0
  -25.9930  -29.5029   20.7208 C   0  0  0  0  0  0  0  0  0110  0  0
  -27.1758  -28.7612   20.7331 C   0  0  0  0  0  0  0  0  0111  0  0
  -26.1032  -26.9836   19.5230 C   0  0  0  0  0  0  0  0  0112  0  0
  -24.9097  -27.7011   19.5331 C   0  0  0  0  0  0  0  0  0113  0  0
  -23.5715  -29.7899   20.1582 C   0  0  0  0  0  0  0  0  0114  0  0
  -25.3990  -36.3212   24.0232 C   0  0  1  0  0  0  0  0  0115  0  0
  -20.5793  -28.3813   23.1004 C   0  0  2  0  0  0  0  0  0116  0  0
  -20.6548  -26.9392   22.5411 C   0  0  0  0  0  0  0  0  0117  0  0
  -19.5615  -26.6407   21.5143 C   0  0  0  0  0  0  0  0  0118  0  0
  -18.1797  -26.7818   22.1673 C   0  0  0  0  0  0  0  0  0119  0  0
  -19.1385  -28.8769   23.2988 C   0  0  0  0  0  0  0  0  0120  0  0
  -18.9183  -30.1286   23.8878 C   0  0  0  0  0  0  0  0  0121  0  0
  -17.6396  -30.6493   24.0352 C   0  0  0  0  0  0  0  0  0122  0  0
  -25.9153  -34.9582   23.4993 C   0  0  0  0  0  0  0  0  0123  0  0
  -16.5415  -29.9068   23.6254 C   0  0  0  0  0  0  0  0  0124  0  0
  -16.7331  -28.6521   23.0586 C   0  0  0  0  0  0  0  0  0125  0  0
  -26.4583  -31.6439   25.0683 C   0  0  0  0  0  0  0  0  0126  0  0
  -25.3807  -31.3179   26.1374 C   0  0  0  0  0  0  0  0  0127  0  0
  -27.0530  -30.3024   24.5680 C   0  0  0  0  0  0  0  0  0128  0  0
  -27.6014  -32.4281   25.7651 C   0  0  0  0  0  0  0  0  0129  0  0
  -27.5629  -37.2220   24.8621 C   0  0  0  0  0  0  0  0  0130  0  0
  -21.4133  -29.3375   22.3735 N   0  0  0  0  0  0  0  0  0131  0  0
  -26.4706  -37.3372   23.9061 N   0  0  0  0  0  0  0  0  0132  0  0
  -24.6674  -31.0544   22.1178 N   0  0  0  0  0  0  0  0  0133  0  0
  -23.4259  -28.8150   23.2971 O   0  0  0  0  0  0  0  0  0134  0  0
  -28.3948  -26.7345   20.0089 O   0  0  0  0  0  0  0  0  0135  0  0
  -26.5870  -34.9065   22.4671 O   0  0  0  0  0  0  0  0  0136  0  0
  -23.5365  -32.1254   23.7833 O   0  0  0  0  0  0  0  0  0137  0  0
  -30.4375  -24.4391   18.8020 C   0  0  0  0  0  0  0  0  0  0  0  0
  -30.4651  -25.6649   17.9093 C   0  0  0  0  0  0  0  0  0  0  0  0
  -29.2962  -23.6219   18.2184 C   0  0  1  0  0  0  0  0  0  0  0  0
  -28.9954  -26.0016   17.6720 C   0  0  2  0  0  0  0  0  0  0  0  0
  -25.6021  -22.5398   16.0205 C   0  0  0  0  0  0  0  0  0  0  0  0
  -26.3997  -25.4671   16.5041 C   0  0  0  0  0  0  0  0  0  0  0  0
  -28.2781  -24.1440   15.4874 C   0  0  0  0  0  0  0  0  0  0  0  0
  -28.7222  -22.6084   19.1918 C   0  0  0  0  0  0  0  0  0  0  0  0
  -28.4452  -27.0211   18.6605 C   0  0  0  0  0  0  0  0  0  1  0  0
  -26.6019  -23.0201   17.0662 C   0  0  0  0  0  0  0  0  0  0  0  0
  -29.7998  -21.8728   19.9790 C   0  0  0  0  0  0  0  0  0  0  0  0
  -27.3781  -24.3058   16.7142 C   0  0  0  0  0  0  0  0  0  0  0  0
  -29.2462  -20.8919   20.8857 N   0  0  0  0  0  0  0  0  0  0  0  0
  -28.2562  -24.6766   17.8717 N   0  0  1  0  0  0  0  0  0  0  0  0
  -31.4485  -12.4701   19.0860 H   0  0  0  0  0  0  0  0  0  0  0  0
  -30.3970  -11.2460   19.6950 H   0  0  0  0  0  0  0  0  0  0  0  0
  -29.6870  -11.8204   17.4226 H   0  0  0  0  0  0  0  0  0  0  0  0
  -29.6375  -13.5326   17.8649 H   0  0  0  0  0  0  0  0  0  0  0  0
  -27.7830  -11.3650   18.7904 H   0  0  0  0  0  0  0  0  0  0  0  0
  -27.4028  -12.7801   17.8021 H   0  0  0  0  0  0  0  0  0  0  0  0
  -27.7353  -14.2503   19.6136 H   0  0  0  0  0  0  0  0  0  0  0  0
  -28.5890  -11.9550   21.3832 H   0  0  0  0  0  0  0  0  0  0  0  0
  -28.5005  -13.6134   21.8562 H   0  0  0  0  0  0  0  0  0  0  0  0
  -25.2399   -9.5495   22.4318 H   0  0  0  0  0  0  0  0  0  0  0  0
  -23.9663   -7.5070   22.7297 H   0  0  0  0  0  0  0  0  0  0  0  0
  -21.1515   -8.8641   19.9162 H   0  0  0  0  0  0  0  0  0  0  0  0
  -22.4016  -10.9115   19.6476 H   0  0  0  0  0  0  0  0  0  0  0  0
  -21.2319   -7.5552   23.9750 H   0  0  0  0  0  0  0  0  0  0  0  0
  -21.1589   -6.0228   25.8556 H   0  0  0  0  0  0  0  0  0  0  0  0
  -22.0396   -2.8212   23.2809 H   0  0  0  0  0  0  0  0  0  0  0  0
  -22.4401  -11.9703   22.4008 H   0  0  0  0  0  0  0  0  0  0  0  0
  -21.1493  -13.0679   22.2082 H   0  0  0  0  0  0  0  0  0  0  0  0
  -24.6538  -15.7807   20.5848 H   0  0  0  0  0  0  0  0  0  0  0  0
  -26.2762  -15.5453   20.1156 H   0  0  0  0  0  0  0  0  0  0  0  0
  -26.6778  -32.4663   23.1464 H   0  0  0  0  0  0  0  0  0  0  0  0
  -25.0747  -34.0282   25.0566 H   0  0  0  0  0  0  0  0  0  0  0  0
  -22.7881  -31.3489   21.4131 H   0  0  0  0  0  0  0  0  0  0  0  0
  -23.3854  -35.9823   23.3648 H   0  0  0  0  0  0  0  0  0  0  0  0
  -24.3696  -36.8624   22.2204 H   0  0  0  0  0  0  0  0  0  0  0  0
  -23.7669  -37.6632   23.6516 H   0  0  0  0  0  0  0  0  0  0  0  0
  -25.9445  -31.6237   20.5691 H   0  0  0  0  0  0  0  0  0  0  0  0
  -26.7436  -31.0079   22.0108 H   0  0  0  0  0  0  0  0  0  0  0  0
  -28.0090  -29.1452   21.2057 H   0  0  0  0  0  0  0  0  0  0  0  0
  -26.1369  -26.0560   19.0719 H   0  0  0  0  0  0  0  0  0  0  0  0
  -24.0652  -27.2961   19.0997 H   0  0  0  0  0  0  0  0  0  0  0  0
  -23.6156  -30.5365   19.3930 H   0  0  0  0  0  0  0  0  0  0  0  0
  -22.7355  -29.1425   19.9945 H   0  0  0  0  0  0  0  0  0  0  0  0
  -25.1353  -36.2335   25.0565 H   0  0  0  0  0  0  0  0  0  0  0  0
  -21.0070  -28.3206   24.0793 H   0  0  0  0  0  0  0  0  0  0  0  0
  -20.5555  -26.2518   23.3550 H   0  0  0  0  0  0  0  0  0  0  0  0
  -21.5974  -26.8362   22.0454 H   0  0  0  0  0  0  0  0  0  0  0  0
  -19.6810  -25.6422   21.1488 H   0  0  0  0  0  0  0  0  0  0  0  0
  -19.6406  -27.3343   20.7034 H   0  0  0  0  0  0  0  0  0  0  0  0
  -17.4282  -26.6888   21.4113 H   0  0  0  0  0  0  0  0  0  0  0  0
  -18.0803  -26.0130   22.9049 H   0  0  0  0  0  0  0  0  0  0  0  0
  -19.7265  -30.6774   24.2204 H   0  0  0  0  0  0  0  0  0  0  0  0
  -17.5064  -31.5856   24.4483 H   0  0  0  0  0  0  0  0  0  0  0  0
  -15.5878  -30.2839   23.7407 H   0  0  0  0  0  0  0  0  0  0  0  0
  -15.9120  -28.0941   22.7766 H   0  0  0  0  0  0  0  0  0  0  0  0
  -24.5787  -30.7757   25.6817 H   0  0  0  0  0  0  0  0  0  0  0  0
  -25.0041  -32.2289   26.5536 H   0  0  0  0  0  0  0  0  0  0  0  0
  -25.8166  -30.7245   26.9138 H   0  0  0  0  0  0  0  0  0  0  0  0
  -26.2892  -29.7335   24.0803 H   0  0  0  0  0  0  0  0  0  0  0  0
  -27.4336  -29.7484   25.4006 H   0  0  0  0  0  0  0  0  0  0  0  0
  -27.8466  -30.4994   23.8779 H   0  0  0  0  0  0  0  0  0  0  0  0
  -27.2251  -33.3632   26.1242 H   0  0  0  0  0  0  0  0  0  0  0  0
  -28.3902  -32.6065   25.0645 H   0  0  0  0  0  0  0  0  0  0  0  0
  -27.9772  -31.8555   26.5872 H   0  0  0  0  0  0  0  0  0  0  0  0
  -28.2744  -38.0016   24.6863 H   0  0  0  0  0  0  0  0  0  0  0  0
  -28.0396  -36.2711   24.7461 H   0  0  0  0  0  0  0  0  0  0  0  0
  -27.1773  -37.3087   25.8564 H   0  0  0  0  0  0  0  0  0  0  0  0
  -20.9627  -29.9365   21.7352 H   0  0  0  0  0  0  0  0  0  0  0  0
  -26.0447  -38.2561   24.0273 H   0  0  0  0  0  0  0  0  0  0  0  0
  -30.2388  -24.7073   19.8186 H   0  0  0  0  0  0  0  0  0  0  0  0
  -31.3678  -23.9110   18.8247 H   0  0  0  0  0  0  0  0  0  0  0  0
  -30.9569  -25.4475   16.9842 H   0  0  0  0  0  0  0  0  0  0  0  0
  -31.0011  -26.4778   18.3528 H   0  0  0  0  0  0  0  0  0  0  0  0
  -29.6211  -23.0337   17.3857 H   0  0  0  0  0  0  0  0  0  0  0  0
  -28.8723  -26.4345   16.7013 H   0  0  0  0  0  0  0  0  0  0  0  0
  -25.1247  -21.6471   16.3670 H   0  0  0  0  0  0  0  0  0  0  0  0
  -26.1148  -22.3372   15.1034 H   0  0  0  0  0  0  0  0  0  0  0  0
  -24.8650  -23.2980   15.8570 H   0  0  0  0  0  0  0  0  0  0  0  0
  -25.7511  -25.2429   15.6832 H   0  0  0  0  0  0  0  0  0  0  0  0
  -26.9477  -26.3612   16.2918 H   0  0  0  0  0  0  0  0  0  0  0  0
  -25.8174  -25.6077   17.3907 H   0  0  0  0  0  0  0  0  0  0  0  0
  -27.6814  -23.8783   14.6399 H   0  0  0  0  0  0  0  0  0  0  0  0
  -28.9980  -23.3742   15.6722 H   0  0  0  0  0  0  0  0  0  0  0  0
  -28.7843  -25.0663   15.2923 H   0  0  0  0  0  0  0  0  0  0  0  0
  -28.1506  -21.8908   18.6412 H   0  0  0  0  0  0  0  0  0  0  0  0
  -28.1167  -23.1421   19.8942 H   0  0  0  0  0  0  0  0  0  0  0  0
  -27.4420  -27.2335   18.3549 H   0  0  0  0  0  0  0  0  0  0  0  0
  -29.1615  -27.8144   18.6105 H   0  0  0  0  0  0  0  0  0  0  0  0
  -27.3156  -22.2381   17.2212 H   0  0  0  0  0  0  0  0  0  0  0  0
  -26.0223  -23.2595   17.9332 H   0  0  0  0  0  0  0  0  0  0  0  0
  -30.3597  -22.5872   20.5455 H   0  0  0  0  0  0  0  0  0  0  0  0
  -30.4208  -21.3556   19.2778 H   0  0  0  0  0  0  0  0  0  0  0  0
  -28.6118  -21.1991   21.5730 H   0  0  0  0  0  0  0  0  0  0  0  0
  -27.5928  -24.7620   18.6418 H   0  0  0  0  0  0  0  0  0  0  0  0
  1 25  1  0
  1 30  2  0
  1 83  1  0
  2  3  1  0
  2 25  1  0
  2 85  1  0
  2 86  1  0
  3  4  1  0
  3 87  1  0
  3 88  1  0
  4  5  1  0
  4 89  1  0
  4 90  1  0
  5  6  1  0
  5 26  1  0
  5 91  1  6
  6 25  1  0
  6 92  1  0
  6 93  1  0
  7  8  2  0
  7 26  1  0
  7 29  1  0
  8  9  1  0
  8 22  1  0
  9 10  1  0
  9 27  2  0
 10 11  2  0
 10 15  1  0
 11 12  1  0
 11 94  1  0
 12 13  2  0
 12 95  1  0
 13 14  1  0
 13 31  1  0
 14 15  2  0
 14 96  1  0
 15 97  1  0
 16 17  2  0
 16 21  1  0
 16 31  1  0
 17 18  1  0
 17 98  1  0
 18 19  2  0
 18 99  1  0
 19 20  1  0
 19 24  1  0
 20 21  2  0
 20100  1  0
 21 23  1  0
 22 28  1  0
 22 32  2  0
 26 27  1  0
 28101  1  0
 28102  1  0
 29103  1  0
 29104  1  0
 33 34  1  0
 33 66  1  0
 33 70  2  0
 34 36  1  0
 34 59  1  0
 34105  1  6
 35 44  2  0
 35 45  1  0
 35 68  1  0
 36 56  1  0
 36106  1  0
 37 39  1  0
 37 47  1  0
 37 66  1  0
 37107  1  6
 38 43  2  0
 38 46  1  0
 38 47  1  0
 39 64  1  0
 39 67  2  0
 40 52  1  0
 40 53  2  0
 40 58  1  0
 41108  1  0
 41109  1  0
 41110  1  0
 42 43  1  0
 42 66  1  0
 42111  1  0
 42112  1  0
 43 44  1  0
 44113  1  0
 45 46  2  0
 45114  1  0
 46115  1  0
 47116  1  0
 47117  1  0
 48 41  1  0
 48 56  1  0
 48 65  1  0
 48118  1  1
 49 50  1  0
 49 53  1  0
 49 64  1  0
 49119  1  1
 50 51  1  0
 50120  1  0
 50121  1  0
 51 52  1  0
 51122  1  0
 51123  1  0
 52124  1  0
 52125  1  0
 53 54  1  0
 54 55  2  0
 54126  1  0
 55 57  1  0
 55127  1  0
 56 69  2  0
 57 58  2  0
 57128  1  0
 58129  1  0
 59 60  1  0
 59 61  1  0
 59 62  1  0
 60130  1  0
 60131  1  0
 60132  1  0
 61133  1  0
 61134  1  0
 61135  1  0
 62136  1  0
 62137  1  0
 62138  1  0
 63 65  1  0
 63139  1  0
 63140  1  0
 63141  1  0
 64142  1  0
 65143  1  0
 68 79  1  0
 71 72  1  0
 71 73  1  0
 71144  1  0
 71145  1  0
 72 74  1  0
 72146  1  0
 72147  1  0
 73 78  1  0
 73 84  1  0
 73148  1  6
 74 79  1  0
 74 84  1  0
 74149  1  6
 75 80  1  0
 75150  1  0
 75151  1  0
 75152  1  0
 76153  1  0
 76154  1  0
 76155  1  0
 77 82  1  0
 77156  1  0
 77157  1  0
 77158  1  0
 78 81  1  0
 78159  1  0
 78160  1  0
 79161  1  0
 79162  1  0
 80 82  1  0
 80163  1  0
 80164  1  0
 81 83  1  0
 81165  1  0
 81166  1  0
 82 76  1  0
 83167  1  0
 84 82  1  0
 84168  1  1
M  CHG  1  84   1
M  ISO  4   1 100  68 101  79 101  83 100
M  END
$$$$
56
     RDKit          3D

152159  0  0  0  0  0  0  0  0999 V2000
  -30.7652  -14.3608   20.6636 C   0  0  0  0  0  0  0  0  0100  0  0
  -30.4392  -12.2669   19.3775 C   0  0  0  0  0  0  0  0  0101  0  0
  -29.4791  -12.5281   18.1977 C   0  0  0  0  0  0  0  0  0102  0  0
  -27.9985  -12.3963   18.6038 C   0  0  0  0  0  0  0  0  0103  0  0
  -27.6639  -13.2170   19.8820 C   0  0  2  0  0  0  0  0  0104  0  0
  -28.6795  -12.9602   21.0279 C   0  0  0  0  0  0  0  0  0105  0  0
  -25.2633  -13.8245   20.5754 C   0  0  0  0  0  0  0  0  0106  0  0
  -24.1645  -13.0409   20.9408 C   0  0  0  0  0  0  0  0  0107  0  0
  -24.6400  -11.7009   20.8697 C   0  0  0  0  0  0  0  0  0108  0  0
  -23.9005  -10.4085   21.0420 C   0  0  0  0  0  0  0  0  0109  0  0
  -24.3588   -9.4123   21.9123 C   0  0  0  0  0  0  0  0  0110  0  0
  -23.6296   -8.2350   22.0803 C   0  0  0  0  0  0  0  0  0111  0  0
  -22.4385   -8.0419   21.3657 C   0  0  0  0  0  0  0  0  0112  0  0
  -22.0103   -9.0167   20.4678 C   0  0  0  0  0  0  0  0  0113  0  0
  -22.7317  -10.1925   20.3102 C   0  0  0  0  0  0  0  0  0114  0  0
  -21.6857   -6.0709   22.5391 C   0  0  0  0  0  0  0  0  0115  0  0
  -21.4064   -6.5490   23.8264 C   0  0  0  0  0  0  0  0  0116  0  0
  -21.3635   -5.6677   24.9085 C   0  0  0  0  0  0  0  0  0117  0  0
  -21.5973   -4.3067   24.7088 C   0  0  0  0  0  0  0  0  0118  0  0
  -21.8700   -3.8284   23.4282 C   0  0  0  0  0  0  0  0  0119  0  0
  -21.9144   -4.7056   22.3460 C   0  0  0  0  0  0  0  0  0120  0  0
  -22.8194  -13.5263   21.1763 C   0  0  0  0  0  0  0  0  0121  0  0
  -22.1559   -4.2206   21.1063 F   0  0  0  0  0  0  0  0  0122  0  0
  -21.5628   -3.4510   25.7555 F   0  0  0  0  0  0  0  0  0123  0  0
  -30.0261  -13.1803   20.4553 N   0  0  0  0  0  0  0  0  0124  0  0
  -26.2911  -12.9356   20.3443 N   0  0  0  0  0  0  0  0  0125  0  0
  -25.9236  -11.6675   20.5847 N   0  0  0  0  0  0  0  0  0126  0  0
  -22.0708  -12.7905   22.0005 N   0  0  0  0  0  0  0  0  0127  0  0
  -25.4117  -15.1773   20.4097 N   0  0  0  0  0  0  0  0  0128  0  0
  -31.7916  -14.6724   20.0536 O   0  0  0  0  0  0  0  0  0129  0  0
  -21.6670   -6.9022   21.4423 O   0  0  0  0  0  0  0  0  0130  0  0
  -22.3946  -14.5564   20.6568 O   0  0  0  0  0  0  0  0  0131  0  0
  -24.6048  -31.8614   23.2223 C   0  0  0  0  0  0  0  0  0100  0  0
  -25.8822  -32.4841   23.8616 C   0  0  1  0  0  0  0  0  0101  0  0
  -27.2536  -27.5042   20.1156 C   0  0  0  0  0  0  0  0  0102  0  0
  -25.5726  -33.8762   24.2210 N   0  0  0  0  0  0  0  0  0103  0  0
  -23.4066  -30.4859   21.5461 C   0  0  2  0  0  0  0  0  0104  0  0
  -24.8467  -28.9636   20.1247 C   0  0  0  0  0  0  0  0  0105  0  0
  -22.7412  -29.4652   22.5052 C   0  0  0  0  0  0  0  0  0106  0  0
  -18.0167  -28.1302   22.8626 C   0  0  0  0  0  0  0  0  0107  0  0
  -24.1342  -36.7390   23.2568 C   0  0  0  0  0  0  0  0  0108  0  0
  -25.9141  -30.8882   21.3456 C   0  0  0  0  0  0  0  0  0109  0  0
  -25.9930  -29.5029   20.7208 C   0  0  0  0  0  0  0  0  0110  0  0
  -27.1758  -28.7612   20.7331 C   0  0  0  0  0  0  0  0  0111  0  0
  -26.1032  -26.9836   19.5230 C   0  0  0  0  0  0  0  0  0112  0  0
  -24.9097  -27.7011   19.5331 C   0  0  0  0  0  0  0  0  0113  0  0
  -23.5715  -29.7899   20.1582 C   0  0  0  0  0  0  0  0  0114  0  0
  -25.3990  -36.3212   24.0232 C   0  0  1  0  0  0  0  0  0115  0  0
  -20.5793  -28.3813   23.1004 C   0  0  2  0  0  0  0  0  0116  0  0
  -20.6548  -26.9392   22.5411 C   0  0  0  0  0  0  0  0  0117  0  0
  -19.5615  -26.6407   21.5143 C   0  0  0  0  0  0  0  0  0118  0  0
  -18.1797  -26.7818   22.1673 C   0  0  0  0  0  0  0  0  0119  0  0
  -19.1385  -28.8769   23.2988 C   0  0  0  0  0  0  0  0  0120  0  0
  -18.9183  -30.1286   23.8878 C   0  0  0  0  0  0  0  0  0121  0  0
  -17.6396  -30.6493   24.0352 C   0  0  0  0  0  0  0  0  0122  0  0
  -25.9153  -34.9582   23.4993 C   0  0  0  0  0  0  0  0  0123  0  0
  -16.5415  -29.9068   23.6254 C   0  0  0  0  0  0  0  0  0124  0  0
  -16.7331  -28.6521   23.0586 C   0  0  0  0  0  0  0  0  0125  0  0
  -26.4583  -31.6439   25.0683 C   0  0  0  0  0  0  0  0  0126  0  0
  -25.3807  -31.3179   26.1374 C   0  0  0  0  0  0  0  0  0127  0  0
  -27.0530  -30.3024   24.5680 C   0  0  0  0  0  0  0  0  0128  0  0
  -27.6014  -32.4281   25.7651 C   0  0  0  0  0  0  0  0  0129  0  0
  -27.5629  -37.2220   24.8621 C   0  0  0  0  0  0  0  0  0130  0  0
  -21.4133  -29.3375   22.3735 N   0  0  0  0  0  0  0  0  0131  0  0
  -26.4706  -37.3372   23.9061 N   0  0  0  0  0  0  0  0  0132  0  0
  -24.6674  -31.0544   22.1178 N   0  0  0  0  0  0  0  0  0133  0  0
  -23.4259  -28.8150   23.2971 O   0  0  0  0  0  0  0  0  0134  0  0
  -28.3948  -26.7345   20.0089 O   0  0  0  0  0  0  0  0  0135  0  0
  -26.5870  -34.9065   22.4671 O   0  0  0  0  0  0  0  0  0136  0  0
  -23.5365  -32.1254   23.7833 O   0  0  0  0  0  0  0  0  0137  0  0
  -26.7412  -19.6670   14.0813 C   0  0  0  0  0  0  0  0  0  0  0  0
  -25.7664  -18.6717   13.4810 C   0  0  0  0  0  0  0  0  0  0  0  0
  -25.9449  -22.2983   12.9452 C   0  0  0  0  0  0  0  0  0  0  0  0
  -25.2191  -21.6971   14.1426 C   0  0  0  0  0  0  0  0  0  0  0  0
  -25.4232  -20.2203   16.2383 C   0  0  0  0  0  0  0  0  0  0  0  0
  -25.2342  -21.2765   17.3258 C   0  0  0  0  0  0  0  0  0  1  0  0
  -26.1165  -20.7557   14.9690 C   0  0  1  0  0  0  0  0  0  0  0  0
  -27.9917  -19.4833   13.7820 N   0  0  0  0  0  0  0  0  0  0  0  0
  -28.9264  -20.3052   14.2956 N   0  0  0  0  0  0  0  0  0  0  0  0
  -31.4485  -12.4701   19.0860 H   0  0  0  0  0  0  0  0  0  0  0  0
  -30.3970  -11.2460   19.6950 H   0  0  0  0  0  0  0  0  0  0  0  0
  -29.6870  -11.8204   17.4226 H   0  0  0  0  0  0  0  0  0  0  0  0
  -29.6375  -13.5326   17.8649 H   0  0  0  0  0  0  0  0  0  0  0  0
  -27.7830  -11.3650   18.7904 H   0  0  0  0  0  0  0  0  0  0  0  0
  -27.4028  -12.7801   17.8021 H   0  0  0  0  0  0  0  0  0  0  0  0
  -27.7353  -14.2503   19.6136 H   0  0  0  0  0  0  0  0  0  0  0  0
  -28.5890  -11.9550   21.3832 H   0  0  0  0  0  0  0  0  0  0  0  0
  -28.5005  -13.6134   21.8562 H   0  0  0  0  0  0  0  0  0  0  0  0
  -25.2399   -9.5495   22.4318 H   0  0  0  0  0  0  0  0  0  0  0  0
  -23.9663   -7.5070   22.7297 H   0  0  0  0  0  0  0  0  0  0  0  0
  -21.1515   -8.8641   19.9162 H   0  0  0  0  0  0  0  0  0  0  0  0
  -22.4016  -10.9115   19.6476 H   0  0  0  0  0  0  0  0  0  0  0  0
  -21.2319   -7.5552   23.9750 H   0  0  0  0  0  0  0  0  0  0  0  0
  -21.1589   -6.0228   25.8556 H   0  0  0  0  0  0  0  0  0  0  0  0
  -22.0396   -2.8212   23.2809 H   0  0  0  0  0  0  0  0  0  0  0  0
  -22.4401  -11.9703   22.4008 H   0  0  0  0  0  0  0  0  0  0  0  0
  -21.1493  -13.0679   22.2082 H   0  0  0  0  0  0  0  0  0  0  0  0
  -24.6538  -15.7807   20.5848 H   0  0  0  0  0  0  0  0  0  0  0  0
  -26.2762  -15.5453   20.1156 H   0  0  0  0  0  0  0  0  0  0  0  0
  -26.6778  -32.4663   23.1464 H   0  0  0  0  0  0  0  0  0  0  0  0
  -25.0747  -34.0282   25.0566 H   0  0  0  0  0  0  0  0  0  0  0  0
  -22.7881  -31.3489   21.4131 H   0  0  0  0  0  0  0  0  0  0  0  0
  -23.3854  -35.9823   23.3648 H   0  0  0  0  0  0  0  0  0  0  0  0
  -24.3696  -36.8624   22.2204 H   0  0  0  0  0  0  0  0  0  0  0  0
  -23.7669  -37.6632   23.6516 H   0  0  0  0  0  0  0  0  0  0  0  0
  -25.9445  -31.6237   20.5691 H   0  0  0  0  0  0  0  0  0  0  0  0
  -26.7436  -31.0079   22.0108 H   0  0  0  0  0  0  0  0  0  0  0  0
  -28.0090  -29.1452   21.2057 H   0  0  0  0  0  0  0  0  0  0  0  0
  -26.1369  -26.0560   19.0719 H   0  0  0  0  0  0  0  0  0  0  0  0
  -24.0652  -27.2961   19.0997 H   0  0  0  0  0  0  0  0  0  0  0  0
  -23.6156  -30.5365   19.3930 H   0  0  0  0  0  0  0  0  0  0  0  0
  -22.7355  -29.1425   19.9945 H   0  0  0  0  0  0  0  0  0  0  0  0
  -25.1353  -36.2335   25.0565 H   0  0  0  0  0  0  0  0  0  0  0  0
  -21.0070  -28.3206   24.0793 H   0  0  0  0  0  0  0  0  0  0  0  0
  -20.5555  -26.2518   23.3550 H   0  0  0  0  0  0  0  0  0  0  0  0
  -21.5974  -26.8362   22.0454 H   0  0  0  0  0  0  0  0  0  0  0  0
  -19.6810  -25.6422   21.1488 H   0  0  0  0  0  0  0  0  0  0  0  0
  -19.6406  -27.3343   20.7034 H   0  0  0  0  0  0  0  0  0  0  0  0
  -17.4282  -26.6888   21.4113 H   0  0  0  0  0  0  0  0  0  0  0  0
  -18.0803  -26.0130   22.9049 H   0  0  0  0  0  0  0  0  0  0  0  0
  -19.7265  -30.6774   24.2204 H   0  0  0  0  0  0  0  0  0  0  0  0
  -17.5064  -31.5856   24.4483 H   0  0  0  0  0  0  0  0  0  0  0  0
  -15.5878  -30.2839   23.7407 H   0  0  0  0  0  0  0  0  0  0  0  0
  -15.9120  -28.0941   22.7766 H   0  0  0  0  0  0  0  0  0  0  0  0
  -24.5787  -30.7757   25.6817 H   0  0  0  0  0  0  0  0  0  0  0  0
  -25.0041  -32.2289   26.5536 H   0  0  0  0  0  0  0  0  0  0  0  0
  -25.8166  -30.7245   26.9138 H   0  0  0  0  0  0  0  0  0  0  0  0
  -26.2892  -29.7335   24.0803 H   0  0  0  0  0  0  0  0  0  0  0  0
  -27.4336  -29.7484   25.4006 H   0  0  0  0  0  0  0  0  0  0  0  0
  -27.8466  -30.4994   23.8779 H   0  0  0  0  0  0  0  0  0  0  0  0
  -27.2251  -33.3632   26.1242 H   0  0  0  0  0  0  0  0  0  0  0  0
  -28.3902  -32.6065   25.0645 H   0  0  0  0  0  0  0  0  0  0  0  0
  -27.9772  -31.8555   26.5872 H   0  0  0  0  0  0  0  0  0  0  0  0
  -28.2744  -38.0016   24.6863 H   0  0  0  0  0  0  0  0  0  0  0  0
  -28.0396  -36.2711   24.7461 H   0  0  0  0  0  0  0  0  0  0  0  0
  -27.1773  -37.3087   25.8564 H   0  0  0  0  0  0  0  0  0  0  0  0
  -20.9627  -29.9365   21.7352 H   0  0  0  0  0  0  0  0  0  0  0  0
  -26.0447  -38.2561   24.0273 H   0  0  0  0  0  0  0  0  0  0  0  0
  -24.7717  -18.9156   13.7907 H   0  0  0  0  0  0  0  0  0  0  0  0
  -26.0124  -17.6855   13.8154 H   0  0  0  0  0  0  0  0  0  0  0  0
  -25.8276  -18.7120   12.4135 H   0  0  0  0  0  0  0  0  0  0  0  0
  -25.2777  -22.9408   12.4095 H   0  0  0  0  0  0  0  0  0  0  0  0
  -26.2792  -21.5131   12.2997 H   0  0  0  0  0  0  0  0  0  0  0  0
  -26.7875  -22.8632   13.2856 H   0  0  0  0  0  0  0  0  0  0  0  0
  -24.3752  -21.1426   13.7886 H   0  0  0  0  0  0  0  0  0  0  0  0
  -24.9226  -22.5038   14.7799 H   0  0  0  0  0  0  0  0  0  0  0  0
  -24.4607  -19.8420   15.9636 H   0  0  0  0  0  0  0  0  0  0  0  0
  -26.0585  -19.4618   16.6457 H   0  0  0  0  0  0  0  0  0  0  0  0
  -25.1063  -20.6626   18.1928 H   0  0  0  0  0  0  0  0  0  0  0  0
  -24.6288  -21.8865   16.6884 H   0  0  0  0  0  0  0  0  0  0  0  0
  -26.9322  -21.3352   15.3480 H   0  0  0  0  0  0  0  0  0  0  0  0
  -29.2674  -21.1988   14.0622 H   0  0  0  0  0  0  0  0  0  0  0  0
  1 25  1  0
  1 30  2  0
  1 79  1  0
  2  3  1  0
  2 25  1  0
  2 80  1  0
  2 81  1  0
  3  4  1  0
  3 82  1  0
  3 83  1  0
  4  5  1  0
  4 84  1  0
  4 85  1  0
  5  6  1  0
  5 26  1  0
  5 86  1  6
  6 25  1  0
  6 87  1  0
  6 88  1  0
  7  8  2  0
  7 26  1  0
  7 29  1  0
  8  9  1  0
  8 22  1  0
  9 10  1  0
  9 27  2  0
 10 11  2  0
 10 15  1  0
 11 12  1  0
 11 89  1  0
 12 13  2  0
 12 90  1  0
 13 14  1  0
 13 31  1  0
 14 15  2  0
 14 91  1  0
 15 92  1  0
 16 17  2  0
 16 21  1  0
 16 31  1  0
 17 18  1  0
 17 93  1  0
 18 19  2  0
 18 94  1  0
 19 20  1  0
 19 24  1  0
 20 21  2  0
 20 95  1  0
 21 23  1  0
 22 28  1  0
 22 32  2  0
 26 27  1  0
 28 96  1  0
 28 97  1  0
 29 98  1  0
 29 99  1  0
 33 34  1  0
 33 66  1  0
 33 70  2  0
 34 36  1  0
 34 59  1  0
 34100  1  6
 35 44  2  0
 35 45  1  0
 35 68  1  0
 36 56  1  0
 36101  1  0
 37 39  1  0
 37 47  1  0
 37 66  1  0
 37102  1  6
 38 43  2  0
 38 46  1  0
 38 47  1  0
 39 64  1  0
 39 67  2  0
 40 52  1  0
 40 53  2  0
 40 58  1  0
 41103  1  0
 41104  1  0
 41105  1  0
 42 43  1  0
 42 66  1  0
 42106  1  0
 42107  1  0
 43 44  1  0
 44108  1  0
 45 46  2  0
 45109  1  0
 46110  1  0
 47111  1  0
 47112  1  0
 48 41  1  0
 48 56  1  0
 48 65  1  0
 48113  1  1
 49 50  1  0
 49 53  1  0
 49 64  1  0
 49114  1  1
 50 51  1  0
 50115  1  0
 50116  1  0
 51 52  1  0
 51117  1  0
 51118  1  0
 52119  1  0
 52120  1  0
 53 54  1  0
 54 55  2  0
 54121  1  0
 55 57  1  0
 55122  1  0
 56 69  2  0
 57 58  2  0
 57123  1  0
 58124  1  0
 59 60  1  0
 59 61  1  0
 59 62  1  0
 60125  1  0
 60126  1  0
 60127  1  0
 61128  1  0
 61129  1  0
 61130  1  0
 62131  1  0
 62132  1  0
 62133  1  0
 63 65  1  0
 63134  1  0
 63135  1  0
 63136  1  0
 64137  1  0
 65138  1  0
 68 76  1  0
 71 72  1  0
 71 77  1  0
 71 78  2  0
 72139  1  0
 72140  1  0
 72141  1  0
 73 74  1  0
 73142  1  0
 73143  1  0
 73144  1  0
 74145  1  0
 74146  1  0
 75 76  1  0
 75 77  1  0
 75147  1  0
 75148  1  0
 76149  1  0
 76150  1  0
 77 74  1  0
 77151  1  1
 78 79  1  0
 79152  1  0
M  ISO  4   1 100  68 101  76 101  79 100
M  END
$$$$
57
     RDKit          3D

167175  0  0  0  0  0  0  0  0999 V2000
  -30.7652  -14.3608   20.6636 C   0  0  0  0  0  0  0  0  0100  0  0
  -30.4392  -12.2669   19.3775 C   0  0  0  0  0  0  0  0  0101  0  0
  -29.4791  -12.5281   18.1977 C   0  0  0  0  0  0  0  0  0102  0  0
  -27.9985  -12.3963   18.6038 C   0  0  0  0  0  0  0  0  0103  0  0
  -27.6639  -13.2170   19.8820 C   0  0  2  0  0  0  0  0  0104  0  0
  -28.6795  -12.9602   21.0279 C   0  0  0  0  0  0  0  0  0105  0  0
  -25.2633  -13.8245   20.5754 C   0  0  0  0  0  0  0  0  0106  0  0
  -24.1645  -13.0409   20.9408 C   0  0  0  0  0  0  0  0  0107  0  0
  -24.6400  -11.7009   20.8697 C   0  0  0  0  0  0  0  0  0108  0  0
  -23.9005  -10.4085   21.0420 C   0  0  0  0  0  0  0  0  0109  0  0
  -24.3588   -9.4123   21.9123 C   0  0  0  0  0  0  0  0  0110  0  0
  -23.6296   -8.2350   22.0803 C   0  0  0  0  0  0  0  0  0111  0  0
  -22.4385   -8.0419   21.3657 C   0  0  0  0  0  0  0  0  0112  0  0
  -22.0103   -9.0167   20.4678 C   0  0  0  0  0  0  0  0  0113  0  0
  -22.7317  -10.1925   20.3102 C   0  0  0  0  0  0  0  0  0114  0  0
  -21.6857   -6.0709   22.5391 C   0  0  0  0  0  0  0  0  0115  0  0
  -21.4064   -6.5490   23.8264 C   0  0  0  0  0  0  0  0  0116  0  0
  -21.3635   -5.6677   24.9085 C   0  0  0  0  0  0  0  0  0117  0  0
  -21.5973   -4.3067   24.7088 C   0  0  0  0  0  0  0  0  0118  0  0
  -21.8700   -3.8284   23.4282 C   0  0  0  0  0  0  0  0  0119  0  0
  -21.9144   -4.7056   22.3460 C   0  0  0  0  0  0  0  0  0120  0  0
  -22.8194  -13.5263   21.1763 C   0  0  0  0  0  0  0  0  0121  0  0
  -22.1559   -4.2206   21.1063 F   0  0  0  0  0  0  0  0  0122  0  0
  -21.5628   -3.4510   25.7555 F   0  0  0  0  0  0  0  0  0123  0  0
  -30.0261  -13.1803   20.4553 N   0  0  0  0  0  0  0  0  0124  0  0
  -26.2911  -12.9356   20.3443 N   0  0  0  0  0  0  0  0  0125  0  0
  -25.9236  -11.6675   20.5847 N   0  0  0  0  0  0  0  0  0126  0  0
  -22.0708  -12.7905   22.0005 N   0  0  0  0  0  0  0  0  0127  0  0
  -25.4117  -15.1773   20.4097 N   0  0  0  0  0  0  0  0  0128  0  0
  -31.7916  -14.6724   20.0536 O   0  0  0  0  0  0  0  0  0129  0  0
  -21.6670   -6.9022   21.4423 O   0  0  0  0  0  0  0  0  0130  0  0
  -22.3946  -14.5564   20.6568 O   0  0  0  0  0  0  0  0  0131  0  0
  -24.6048  -31.8614   23.2223 C   0  0  0  0  0  0  0  0  0100  0  0
  -25.8822  -32.4841   23.8616 C   0  0  1  0  0  0  0  0  0101  0  0
  -27.2536  -27.5042   20.1156 C   0  0  0  0  0  0  0  0  0102  0  0
  -25.5726  -33.8762   24.2210 N   0  0  0  0  0  0  0  0  0103  0  0
  -23.4066  -30.4859   21.5461 C   0  0  2  0  0  0  0  0  0104  0  0
  -24.8467  -28.9636   20.1247 C   0  0  0  0  0  0  0  0  0105  0  0
  -22.7412  -29.4652   22.5052 C   0  0  0  0  0  0  0  0  0106  0  0
  -18.0167  -28.1302   22.8626 C   0  0  0  0  0  0  0  0  0107  0  0
  -24.1342  -36.7390   23.2568 C   0  0  0  0  0  0  0  0  0108  0  0
  -25.9141  -30.8882   21.3456 C   0  0  0  0  0  0  0  0  0109  0  0
  -25.9930  -29.5029   20.7208 C   0  0  0  0  0  0  0  0  0110  0  0
  -27.1758  -28.7612   20.7331 C   0  0  0  0  0  0  0  0  0111  0  0
  -26.1032  -26.9836   19.5230 C   0  0  0  0  0  0  0  0  0112  0  0
  -24.9097  -27.7011   19.5331 C   0  0  0  0  0  0  0  0  0113  0  0
  -23.5715  -29.7899   20.1582 C   0  0  0  0  0  0  0  0  0114  0  0
  -25.3990  -36.3212   24.0232 C   0  0  1  0  0  0  0  0  0115  0  0
  -20.5793  -28.3813   23.1004 C   0  0  2  0  0  0  0  0  0116  0  0
  -20.6548  -26.9392   22.5411 C   0  0  0  0  0  0  0  0  0117  0  0
  -19.5615  -26.6407   21.5143 C   0  0  0  0  0  0  0  0  0118  0  0
  -18.1797  -26.7818   22.1673 C   0  0  0  0  0  0  0  0  0119  0  0
  -19.1385  -28.8769   23.2988 C   0  0  0  0  0  0  0  0  0120  0  0
  -18.9183  -30.1286   23.8878 C   0  0  0  0  0  0  0  0  0121  0  0
  -17.6396  -30.6493   24.0352 C   0  0  0  0  0  0  0  0  0122  0  0
  -25.9153  -34.9582   23.4993 C   0  0  0  0  0  0  0  0  0123  0  0
  -16.5415  -29.9068   23.6254 C   0  0  0  0  0  0  0  0  0124  0  0
  -16.7331  -28.6521   23.0586 C   0  0  0  0  0  0  0  0  0125  0  0
  -26.4583  -31.6439   25.0683 C   0  0  0  0  0  0  0  0  0126  0  0
  -25.3807  -31.3179   26.1374 C   0  0  0  0  0  0  0  0  0127  0  0
  -27.0530  -30.3024   24.5680 C   0  0  0  0  0  0  0  0  0128  0  0
  -27.6014  -32.4281   25.7651 C   0  0  0  0  0  0  0  0  0129  0  0
  -27.5629  -37.2220   24.8621 C   0  0  0  0  0  0  0  0  0130  0  0
  -21.4133  -29.3375   22.3735 N   0  0  0  0  0  0  0  0  0131  0  0
  -26.4706  -37.3372   23.9061 N   0  0  0  0  0  0  0  0  0132  0  0
  -24.6674  -31.0544   22.1178 N   0  0  0  0  0  0  0  0  0133  0  0
  -23.4259  -28.8150   23.2971 O   0  0  0  0  0  0  0  0  0134  0  0
  -28.3948  -26.7345   20.0089 O   0  0  0  0  0  0  0  0  0135  0  0
  -26.5870  -34.9065   22.4671 O   0  0  0  0  0  0  0  0  0136  0  0
  -23.5365  -32.1254   23.7833 O   0  0  0  0  0  0  0  0  0137  0  0
  -28.8783  -16.8610   25.2819 C   0  0  0  0  0  0  0  0  0  0  0  0
  -27.9082  -15.9053   25.5626 C   0  0  0  0  0  0  0  0  0  0  0  0
  -30.1269  -16.4611   24.8190 C   0  0  0  0  0  0  0  0  0  0  0  0
  -28.2341  -14.5731   25.3652 C   0  0  0  0  0  0  0  0  0  0  0  0
  -30.3535  -15.1041   24.6550 C   0  0  0  0  0  0  0  0  0  0  0  0
  -29.8220  -18.6644   22.7063 C   0  0  0  0  0  0  0  0  0  0  0  0
  -32.2990  -18.9975   22.8369 C   0  0  0  0  0  0  0  0  0  0  0  0
  -26.3488  -13.1970   24.4155 C   0  0  0  0  0  0  0  0  0  0  0  0
  -27.8557  -12.2160   26.1863 C   0  0  0  0  0  0  0  0  0  0  0  0
  -31.1706  -17.4803   24.5178 C   0  0  0  0  0  0  0  0  0  0  0  0
  -31.6748  -14.6166   24.1577 C   0  0  0  0  0  0  0  0  0  0  0  0
  -31.6722  -13.1353   23.7648 C   0  0  0  0  0  0  0  0  0  0  0  0
  -31.1567  -18.0031   23.0594 C   0  0  0  0  0  0  0  0  0  0  0  0
  -27.1928  -13.4966   25.6614 C   0  0  0  0  0  0  0  0  0  1  0  0
  -29.4360  -14.1463   24.9170 N   0  0  0  0  0  0  0  0  0  0  0  0
  -30.7402  -12.8563   22.6952 N   0  0  0  0  0  0  0  0  0  0  0  0
  -31.4485  -12.4701   19.0860 H   0  0  0  0  0  0  0  0  0  0  0  0
  -30.3970  -11.2460   19.6950 H   0  0  0  0  0  0  0  0  0  0  0  0
  -29.6870  -11.8204   17.4226 H   0  0  0  0  0  0  0  0  0  0  0  0
  -29.6375  -13.5326   17.8649 H   0  0  0  0  0  0  0  0  0  0  0  0
  -27.7830  -11.3650   18.7904 H   0  0  0  0  0  0  0  0  0  0  0  0
  -27.4028  -12.7801   17.8021 H   0  0  0  0  0  0  0  0  0  0  0  0
  -27.7353  -14.2503   19.6136 H   0  0  0  0  0  0  0  0  0  0  0  0
  -28.5890  -11.9550   21.3832 H   0  0  0  0  0  0  0  0  0  0  0  0
  -28.5005  -13.6134   21.8562 H   0  0  0  0  0  0  0  0  0  0  0  0
  -25.2399   -9.5495   22.4318 H   0  0  0  0  0  0  0  0  0  0  0  0
  -23.9663   -7.5070   22.7297 H   0  0  0  0  0  0  0  0  0  0  0  0
  -21.1515   -8.8641   19.9162 H   0  0  0  0  0  0  0  0  0  0  0  0
  -22.4016  -10.9115   19.6476 H   0  0  0  0  0  0  0  0  0  0  0  0
  -21.2319   -7.5552   23.9750 H   0  0  0  0  0  0  0  0  0  0  0  0
  -21.1589   -6.0228   25.8556 H   0  0  0  0  0  0  0  0  0  0  0  0
  -22.0396   -2.8212   23.2809 H   0  0  0  0  0  0  0  0  0  0  0  0
  -22.4401  -11.9703   22.4008 H   0  0  0  0  0  0  0  0  0  0  0  0
  -21.1493  -13.0679   22.2082 H   0  0  0  0  0  0  0  0  0  0  0  0
  -24.6538  -15.7807   20.5848 H   0  0  0  0  0  0  0  0  0  0  0  0
  -26.2762  -15.5453   20.1156 H   0  0  0  0  0  0  0  0  0  0  0  0
  -26.6778  -32.4663   23.1464 H   0  0  0  0  0  0  0  0  0  0  0  0
  -25.0747  -34.0282   25.0566 H   0  0  0  0  0  0  0  0  0  0  0  0
  -22.7881  -31.3489   21.4131 H   0  0  0  0  0  0  0  0  0  0  0  0
  -23.3854  -35.9823   23.3648 H   0  0  0  0  0  0  0  0  0  0  0  0
  -24.3696  -36.8624   22.2204 H   0  0  0  0  0  0  0  0  0  0  0  0
  -23.7669  -37.6632   23.6516 H   0  0  0  0  0  0  0  0  0  0  0  0
  -25.9445  -31.6237   20.5691 H   0  0  0  0  0  0  0  0  0  0  0  0
  -26.7436  -31.0079   22.0108 H   0  0  0  0  0  0  0  0  0  0  0  0
  -28.0090  -29.1452   21.2057 H   0  0  0  0  0  0  0  0  0  0  0  0
  -26.1369  -26.0560   19.0719 H   0  0  0  0  0  0  0  0  0  0  0  0
  -24.0652  -27.2961   19.0997 H   0  0  0  0  0  0  0  0  0  0  0  0
  -23.6156  -30.5365   19.3930 H   0  0  0  0  0  0  0  0  0  0  0  0
  -22.7355  -29.1425   19.9945 H   0  0  0  0  0  0  0  0  0  0  0  0
  -25.1353  -36.2335   25.0565 H   0  0  0  0  0  0  0  0  0  0  0  0
  -21.0070  -28.3206   24.0793 H   0  0  0  0  0  0  0  0  0  0  0  0
  -20.5555  -26.2518   23.3550 H   0  0  0  0  0  0  0  0  0  0  0  0
  -21.5974  -26.8362   22.0454 H   0  0  0  0  0  0  0  0  0  0  0  0
  -19.6810  -25.6422   21.1488 H   0  0  0  0  0  0  0  0  0  0  0  0
  -19.6406  -27.3343   20.7034 H   0  0  0  0  0  0  0  0  0  0  0  0
  -17.4282  -26.6888   21.4113 H   0  0  0  0  0  0  0  0  0  0  0  0
  -18.0803  -26.0130   22.9049 H   0  0  0  0  0  0  0  0  0  0  0  0
  -19.7265  -30.6774   24.2204 H   0  0  0  0  0  0  0  0  0  0  0  0
  -17.5064  -31.5856   24.4483 H   0  0  0  0  0  0  0  0  0  0  0  0
  -15.5878  -30.2839   23.7407 H   0  0  0  0  0  0  0  0  0  0  0  0
  -15.9120  -28.0941   22.7766 H   0  0  0  0  0  0  0  0  0  0  0  0
  -24.5787  -30.7757   25.6817 H   0  0  0  0  0  0  0  0  0  0  0  0
  -25.0041  -32.2289   26.5536 H   0  0  0  0  0  0  0  0  0  0  0  0
  -25.8166  -30.7245   26.9138 H   0  0  0  0  0  0  0  0  0  0  0  0
  -26.2892  -29.7335   24.0803 H   0  0  0  0  0  0  0  0  0  0  0  0
  -27.4336  -29.7484   25.4006 H   0  0  0  0  0  0  0  0  0  0  0  0
  -27.8466  -30.4994   23.8779 H   0  0  0  0  0  0  0  0  0  0  0  0
  -27.2251  -33.3632   26.1242 H   0  0  0  0  0  0  0  0  0  0  0  0
  -28.3902  -32.6065   25.0645 H   0  0  0  0  0  0  0  0  0  0  0  0
  -27.9772  -31.8555   26.5872 H   0  0  0  0  0  0  0  0  0  0  0  0
  -28.2744  -38.0016   24.6863 H   0  0  0  0  0  0  0  0  0  0  0  0
  -28.0396  -36.2711   24.7461 H   0  0  0  0  0  0  0  0  0  0  0  0
  -27.1773  -37.3087   25.8564 H   0  0  0  0  0  0  0  0  0  0  0  0
  -20.9627  -29.9365   21.7352 H   0  0  0  0  0  0  0  0  0  0  0  0
  -26.0447  -38.2561   24.0273 H   0  0  0  0  0  0  0  0  0  0  0  0
  -28.6724  -17.8632   25.4166 H   0  0  0  0  0  0  0  0  0  0  0  0
  -26.9749  -16.1795   25.9071 H   0  0  0  0  0  0  0  0  0  0  0  0
  -29.8524  -19.0110   21.6945 H   0  0  0  0  0  0  0  0  0  0  0  0
  -29.6497  -19.4923   23.3619 H   0  0  0  0  0  0  0  0  0  0  0  0
  -29.0311  -17.9521   22.8157 H   0  0  0  0  0  0  0  0  0  0  0  0
  -32.2748  -19.3482   21.8263 H   0  0  0  0  0  0  0  0  0  0  0  0
  -33.2347  -18.5135   23.0242 H   0  0  0  0  0  0  0  0  0  0  0  0
  -32.1859  -19.8259   23.5047 H   0  0  0  0  0  0  0  0  0  0  0  0
  -26.0165  -12.1804   24.4459 H   0  0  0  0  0  0  0  0  0  0  0  0
  -26.9407  -13.3527   23.5378 H   0  0  0  0  0  0  0  0  0  0  0  0
  -25.5007  -13.8490   24.3940 H   0  0  0  0  0  0  0  0  0  0  0  0
  -27.1003  -11.5263   26.5003 H   0  0  0  0  0  0  0  0  0  0  0  0
  -28.4871  -12.4556   27.0162 H   0  0  0  0  0  0  0  0  0  0  0  0
  -28.4419  -11.7732   25.4084 H   0  0  0  0  0  0  0  0  0  0  0  0
  -32.1288  -17.0433   24.7070 H   0  0  0  0  0  0  0  0  0  0  0  0
  -30.9634  -18.3223   25.1447 H   0  0  0  0  0  0  0  0  0  0  0  0
  -32.4013  -14.7608   24.9299 H   0  0  0  0  0  0  0  0  0  0  0  0
  -31.9042  -15.1757   23.2747 H   0  0  0  0  0  0  0  0  0  0  0  0
  -31.4002  -12.5524   24.6198 H   0  0  0  0  0  0  0  0  0  0  0  0
  -32.6535  -12.8850   23.4195 H   0  0  0  0  0  0  0  0  0  0  0  0
  -31.2893  -17.1576   22.4171 H   0  0  0  0  0  0  0  0  0  0  0  0
  -30.1124  -12.1004   22.7564 H   0  0  0  0  0  0  0  0  0  0  0  0
  1 25  1  0
  1 30  2  0
  1 86  1  0
  2  3  1  0
  2 25  1  0
  2 87  1  0
  2 88  1  0
  3  4  1  0
  3 89  1  0
  3 90  1  0
  4  5  1  0
  4 91  1  0
  4 92  1  0
  5  6  1  0
  5 26  1  0
  5 93  1  6
  6 25  1  0
  6 94  1  0
  6 95  1  0
  7  8  2  0
  7 26  1  0
  7 29  1  0
  8  9  1  0
  8 22  1  0
  9 10  1  0
  9 27  2  0
 10 11  2  0
 10 15  1  0
 11 12  1  0
 11 96  1  0
 12 13  2  0
 12 97  1  0
 13 14  1  0
 13 31  1  0
 14 15  2  0
 14 98  1  0
 15 99  1  0
 16 17  2  0
 16 21  1  0
 16 31  1  0
 17 18  1  0
 17100  1  0
 18 19  2  0
 18101  1  0
 19 20  1  0
 19 24  1  0
 20 21  2  0
 20102  1  0
 21 23  1  0
 22 28  1  0
 22 32  2  0
 26 27  1  0
 28103  1  0
 28104  1  0
 29105  1  0
 29106  1  0
 33 34  1  0
 33 66  1  0
 33 70  2  0
 34 36  1  0
 34 59  1  0
 34107  1  6
 35 44  2  0
 35 45  1  0
 35 68  1  0
 36 56  1  0
 36108  1  0
 37 39  1  0
 37 47  1  0
 37 66  1  0
 37109  1  6
 38 43  2  0
 38 46  1  0
 38 47  1  0
 39 64  1  0
 39 67  2  0
 40 52  1  0
 40 53  2  0
 40 58  1  0
 41110  1  0
 41111  1  0
 41112  1  0
 42 43  1  0
 42 66  1  0
 42113  1  0
 42114  1  0
 43 44  1  0
 44115  1  0
 45 46  2  0
 45116  1  0
 46117  1  0
 47118  1  0
 47119  1  0
 48 41  1  0
 48 56  1  0
 48 65  1  0
 48120  1  1
 49 50  1  0
 49 53  1  0
 49 64  1  0
 49121  1  1
 50 51  1  0
 50122  1  0
 50123  1  0
 51 52  1  0
 51124  1  0
 51125  1  0
 52126  1  0
 52127  1  0
 53 54  1  0
 54 55  2  0
 54128  1  0
 55 57  1  0
 55129  1  0
 56 69  2  0
 57 58  2  0
 57130  1  0
 58131  1  0
 59 60  1  0
 59 61  1  0
 59 62  1  0
 60132  1  0
 60133  1  0
 60134  1  0
 61135  1  0
 61136  1  0
 61137  1  0
 62138  1  0
 62139  1  0
 62140  1  0
 63 65  1  0
 63141  1  0
 63142  1  0
 63143  1  0
 64144  1  0
 65145  1  0
 68 84  1  0
 71 72  2  0
 71 73  1  0
 71146  1  0
 72 74  1  0
 72147  1  0
 73 75  2  0
 73 80  1  0
 74 84  1  0
 74 85  2  0
 75 81  1  0
 75 85  1  0
 76148  1  0
 76149  1  0
 76150  1  0
 77 83  1  0
 77151  1  0
 77152  1  0
 77153  1  0
 78154  1  0
 78155  1  0
 78156  1  0
 79 84  1  0
 79157  1  0
 79158  1  0
 79159  1  0
 80 83  1  0
 80160  1  0
 80161  1  0
 81 82  1  0
 81162  1  0
 81163  1  0
 82 86  1  0
 82164  1  0
 82165  1  0
 83 76  1  0
 83166  1  0
 84 78  1  0
 86167  1  0
M  ISO  4   1 100  68 101  84 101  86 100
M  END
$$$$
58
     RDKit          3D

163171  0  0  0  0  0  0  0  0999 V2000
  -30.7652  -14.3608   20.6636 C   0  0  0  0  0  0  0  0  0100  0  0
  -30.4392  -12.2669   19.3775 C   0  0  0  0  0  0  0  0  0101  0  0
  -29.4791  -12.5281   18.1977 C   0  0  0  0  0  0  0  0  0102  0  0
  -27.9985  -12.3963   18.6038 C   0  0  0  0  0  0  0  0  0103  0  0
  -27.6639  -13.2170   19.8820 C   0  0  2  0  0  0  0  0  0104  0  0
  -28.6795  -12.9602   21.0279 C   0  0  0  0  0  0  0  0  0105  0  0
  -25.2633  -13.8245   20.5754 C   0  0  0  0  0  0  0  0  0106  0  0
  -24.1645  -13.0409   20.9408 C   0  0  0  0  0  0  0  0  0107  0  0
  -24.6400  -11.7009   20.8697 C   0  0  0  0  0  0  0  0  0108  0  0
  -23.9005  -10.4085   21.0420 C   0  0  0  0  0  0  0  0  0109  0  0
  -24.3588   -9.4123   21.9123 C   0  0  0  0  0  0  0  0  0110  0  0
  -23.6296   -8.2350   22.0803 C   0  0  0  0  0  0  0  0  0111  0  0
  -22.4385   -8.0419   21.3657 C   0  0  0  0  0  0  0  0  0112  0  0
  -22.0103   -9.0167   20.4678 C   0  0  0  0  0  0  0  0  0113  0  0
  -22.7317  -10.1925   20.3102 C   0  0  0  0  0  0  0  0  0114  0  0
  -21.6857   -6.0709   22.5391 C   0  0  0  0  0  0  0  0  0115  0  0
  -21.4064   -6.5490   23.8264 C   0  0  0  0  0  0  0  0  0116  0  0
  -21.3635   -5.6677   24.9085 C   0  0  0  0  0  0  0  0  0117  0  0
  -21.5973   -4.3067   24.7088 C   0  0  0  0  0  0  0  0  0118  0  0
  -21.8700   -3.8284   23.4282 C   0  0  0  0  0  0  0  0  0119  0  0
  -21.9144   -4.7056   22.3460 C   0  0  0  0  0  0  0  0  0120  0  0
  -22.8194  -13.5263   21.1763 C   0  0  0  0  0  0  0  0  0121  0  0
  -22.1559   -4.2206   21.1063 F   0  0  0  0  0  0  0  0  0122  0  0
  -21.5628   -3.4510   25.7555 F   0  0  0  0  0  0  0  0  0123  0  0
  -30.0261  -13.1803   20.4553 N   0  0  0  0  0  0  0  0  0124  0  0
  -26.2911  -12.9356   20.3443 N   0  0  0  0  0  0  0  0  0125  0  0
  -25.9236  -11.6675   20.5847 N   0  0  0  0  0  0  0  0  0126  0  0
  -22.0708  -12.7905   22.0005 N   0  0  0  0  0  0  0  0  0127  0  0
  -25.4117  -15.1773   20.4097 N   0  0  0  0  0  0  0  0  0128  0  0
  -31.7916  -14.6724   20.0536 O   0  0  0  0  0  0  0  0  0129  0  0
  -21.6670   -6.9022   21.4423 O   0  0  0  0  0  0  0  0  0130  0  0
  -22.3946  -14.5564   20.6568 O   0  0  0  0  0  0  0  0  0131  0  0
  -24.6048  -31.8614   23.2223 C   0  0  0  0  0  0  0  0  0100  0  0
  -25.8822  -32.4841   23.8616 C   0  0  1  0  0  0  0  0  0101  0  0
  -27.2536  -27.5042   20.1156 C   0  0  0  0  0  0  0  0  0102  0  0
  -25.5726  -33.8762   24.2210 N   0  0  0  0  0  0  0  0  0103  0  0
  -23.4066  -30.4859   21.5461 C   0  0  2  0  0  0  0  0  0104  0  0
  -24.8467  -28.9636   20.1247 C   0  0  0  0  0  0  0  0  0105  0  0
  -22.7412  -29.4652   22.5052 C   0  0  0  0  0  0  0  0  0106  0  0
  -18.0167  -28.1302   22.8626 C   0  0  0  0  0  0  0  0  0107  0  0
  -24.1342  -36.7390   23.2568 C   0  0  0  0  0  0  0  0  0108  0  0
  -25.9141  -30.8882   21.3456 C   0  0  0  0  0  0  0  0  0109  0  0
  -25.9930  -29.5029   20.7208 C   0  0  0  0  0  0  0  0  0110  0  0
  -27.1758  -28.7612   20.7331 C   0  0  0  0  0  0  0  0  0111  0  0
  -26.1032  -26.9836   19.5230 C   0  0  0  0  0  0  0  0  0112  0  0
  -24.9097  -27.7011   19.5331 C   0  0  0  0  0  0  0  0  0113  0  0
  -23.5715  -29.7899   20.1582 C   0  0  0  0  0  0  0  0  0114  0  0
  -25.3990  -36.3212   24.0232 C   0  0  1  0  0  0  0  0  0115  0  0
  -20.5793  -28.3813   23.1004 C   0  0  2  0  0  0  0  0  0116  0  0
  -20.6548  -26.9392   22.5411 C   0  0  0  0  0  0  0  0  0117  0  0
  -19.5615  -26.6407   21.5143 C   0  0  0  0  0  0  0  0  0118  0  0
  -18.1797  -26.7818   22.1673 C   0  0  0  0  0  0  0  0  0119  0  0
  -19.1385  -28.8769   23.2988 C   0  0  0  0  0  0  0  0  0120  0  0
  -18.9183  -30.1286   23.8878 C   0  0  0  0  0  0  0  0  0121  0  0
  -17.6396  -30.6493   24.0352 C   0  0  0  0  0  0  0  0  0122  0  0
  -25.9153  -34.9582   23.4993 C   0  0  0  0  0  0  0  0  0123  0  0
  -16.5415  -29.9068   23.6254 C   0  0  0  0  0  0  0  0  0124  0  0
  -16.7331  -28.6521   23.0586 C   0  0  0  0  0  0  0  0  0125  0  0
  -26.4583  -31.6439   25.0683 C   0  0  0  0  0  0  0  0  0126  0  0
  -25.3807  -31.3179   26.1374 C   0  0  0  0  0  0  0  0  0127  0  0
  -27.0530  -30.3024   24.5680 C   0  0  0  0  0  0  0  0  0128  0  0
  -27.6014  -32.4281   25.7651 C   0  0  0  0  0  0  0  0  0129  0  0
  -27.5629  -37.2220   24.8621 C   0  0  0  0  0  0  0  0  0130  0  0
  -21.4133  -29.3375   22.3735 N   0  0  0  0  0  0  0  0  0131  0  0
  -26.4706  -37.3372   23.9061 N   0  0  0  0  0  0  0  0  0132  0  0
  -24.6674  -31.0544   22.1178 N   0  0  0  0  0  0  0  0  0133  0  0
  -23.4259  -28.8150   23.2971 O   0  0  0  0  0  0  0  0  0134  0  0
  -28.3948  -26.7345   20.0089 O   0  0  0  0  0  0  0  0  0135  0  0
  -26.5870  -34.9065   22.4671 O   0  0  0  0  0  0  0  0  0136  0  0
  -23.5365  -32.1254   23.7833 O   0  0  0  0  0  0  0  0  0137  0  0
  -24.7083  -21.1528   24.8956 C   0  0  0  0  0  0  0  0  0  0  0  0
  -25.4762  -20.5593   25.8321 C   0  0  0  0  0  0  0  0  0  0  0  0
  -29.6634  -21.8922   27.5886 C   0  0  0  0  0  0  0  0  0  0  0  0
  -29.0400  -22.6234   28.7440 C   0  0  0  0  0  0  0  0  0  0  0  0
  -28.3135  -22.5471   27.4232 C   0  0  0  0  0  0  0  0  0  0  0  0
  -25.0060  -19.4426   26.7274 C   0  0  0  0  0  0  0  0  0  0  0  0
  -26.8131  -24.3261   26.5108 C   0  0  0  0  0  0  0  0  0  0  0  0
  -25.0764  -22.2620   23.9615 C   0  0  0  0  0  0  0  0  0  1  0  0
  -28.2151  -23.7864   26.5853 C   0  0  0  0  0  0  0  0  0  0  0  0
  -27.9323  -19.8985   25.8163 C   0  0  0  0  0  0  0  0  0  0  0  0
  -26.9138  -21.0251   26.0220 C   0  0  2  0  0  0  0  0  0  0  0  0
  -27.8515  -19.3252   24.4913 N   0  0  0  0  0  0  0  0  0  0  0  0
  -27.1464  -21.6346   27.3708 N   0  0  0  0  0  0  0  0  0  0  0  0
  -31.4485  -12.4701   19.0860 H   0  0  0  0  0  0  0  0  0  0  0  0
  -30.3970  -11.2460   19.6950 H   0  0  0  0  0  0  0  0  0  0  0  0
  -29.6870  -11.8204   17.4226 H   0  0  0  0  0  0  0  0  0  0  0  0
  -29.6375  -13.5326   17.8649 H   0  0  0  0  0  0  0  0  0  0  0  0
  -27.7830  -11.3650   18.7904 H   0  0  0  0  0  0  0  0  0  0  0  0
  -27.4028  -12.7801   17.8021 H   0  0  0  0  0  0  0  0  0  0  0  0
  -27.7353  -14.2503   19.6136 H   0  0  0  0  0  0  0  0  0  0  0  0
  -28.5890  -11.9550   21.3832 H   0  0  0  0  0  0  0  0  0  0  0  0
  -28.5005  -13.6134   21.8562 H   0  0  0  0  0  0  0  0  0  0  0  0
  -25.2399   -9.5495   22.4318 H   0  0  0  0  0  0  0  0  0  0  0  0
  -23.9663   -7.5070   22.7297 H   0  0  0  0  0  0  0  0  0  0  0  0
  -21.1515   -8.8641   19.9162 H   0  0  0  0  0  0  0  0  0  0  0  0
  -22.4016  -10.9115   19.6476 H   0  0  0  0  0  0  0  0  0  0  0  0
  -21.2319   -7.5552   23.9750 H   0  0  0  0  0  0  0  0  0  0  0  0
  -21.1589   -6.0228   25.8556 H   0  0  0  0  0  0  0  0  0  0  0  0
  -22.0396   -2.8212   23.2809 H   0  0  0  0  0  0  0  0  0  0  0  0
  -22.4401  -11.9703   22.4008 H   0  0  0  0  0  0  0  0  0  0  0  0
  -21.1493  -13.0679   22.2082 H   0  0  0  0  0  0  0  0  0  0  0  0
  -24.6538  -15.7807   20.5848 H   0  0  0  0  0  0  0  0  0  0  0  0
  -26.2762  -15.5453   20.1156 H   0  0  0  0  0  0  0  0  0  0  0  0
  -26.6778  -32.4663   23.1464 H   0  0  0  0  0  0  0  0  0  0  0  0
  -25.0747  -34.0282   25.0566 H   0  0  0  0  0  0  0  0  0  0  0  0
  -22.7881  -31.3489   21.4131 H   0  0  0  0  0  0  0  0  0  0  0  0
  -23.3854  -35.9823   23.3648 H   0  0  0  0  0  0  0  0  0  0  0  0
  -24.3696  -36.8624   22.2204 H   0  0  0  0  0  0  0  0  0  0  0  0
  -23.7669  -37.6632   23.6516 H   0  0  0  0  0  0  0  0  0  0  0  0
  -25.9445  -31.6237   20.5691 H   0  0  0  0  0  0  0  0  0  0  0  0
  -26.7436  -31.0079   22.0108 H   0  0  0  0  0  0  0  0  0  0  0  0
  -28.0090  -29.1452   21.2057 H   0  0  0  0  0  0  0  0  0  0  0  0
  -26.1369  -26.0560   19.0719 H   0  0  0  0  0  0  0  0  0  0  0  0
  -24.0652  -27.2961   19.0997 H   0  0  0  0  0  0  0  0  0  0  0  0
  -23.6156  -30.5365   19.3930 H   0  0  0  0  0  0  0  0  0  0  0  0
  -22.7355  -29.1425   19.9945 H   0  0  0  0  0  0  0  0  0  0  0  0
  -25.1353  -36.2335   25.0565 H   0  0  0  0  0  0  0  0  0  0  0  0
  -21.0070  -28.3206   24.0793 H   0  0  0  0  0  0  0  0  0  0  0  0
  -20.5555  -26.2518   23.3550 H   0  0  0  0  0  0  0  0  0  0  0  0
  -21.5974  -26.8362   22.0454 H   0  0  0  0  0  0  0  0  0  0  0  0
  -19.6810  -25.6422   21.1488 H   0  0  0  0  0  0  0  0  0  0  0  0
  -19.6406  -27.3343   20.7034 H   0  0  0  0  0  0  0  0  0  0  0  0
  -17.4282  -26.6888   21.4113 H   0  0  0  0  0  0  0  0  0  0  0  0
  -18.0803  -26.0130   22.9049 H   0  0  0  0  0  0  0  0  0  0  0  0
  -19.7265  -30.6774   24.2204 H   0  0  0  0  0  0  0  0  0  0  0  0
  -17.5064  -31.5856   24.4483 H   0  0  0  0  0  0  0  0  0  0  0  0
  -15.5878  -30.2839   23.7407 H   0  0  0  0  0  0  0  0  0  0  0  0
  -15.9120  -28.0941   22.7766 H   0  0  0  0  0  0  0  0  0  0  0  0
  -24.5787  -30.7757   25.6817 H   0  0  0  0  0  0  0  0  0  0  0  0
  -25.0041  -32.2289   26.5536 H   0  0  0  0  0  0  0  0  0  0  0  0
  -25.8166  -30.7245   26.9138 H   0  0  0  0  0  0  0  0  0  0  0  0
  -26.2892  -29.7335   24.0803 H   0  0  0  0  0  0  0  0  0  0  0  0
  -27.4336  -29.7484   25.4006 H   0  0  0  0  0  0  0  0  0  0  0  0
  -27.8466  -30.4994   23.8779 H   0  0  0  0  0  0  0  0  0  0  0  0
  -27.2251  -33.3632   26.1242 H   0  0  0  0  0  0  0  0  0  0  0  0
  -28.3902  -32.6065   25.0645 H   0  0  0  0  0  0  0  0  0  0  0  0
  -27.9772  -31.8555   26.5872 H   0  0  0  0  0  0  0  0  0  0  0  0
  -28.2744  -38.0016   24.6863 H   0  0  0  0  0  0  0  0  0  0  0  0
  -28.0396  -36.2711   24.7461 H   0  0  0  0  0  0  0  0  0  0  0  0
  -27.1773  -37.3087   25.8564 H   0  0  0  0  0  0  0  0  0  0  0  0
  -20.9627  -29.9365   21.7352 H   0  0  0  0  0  0  0  0  0  0  0  0
  -26.0447  -38.2561   24.0273 H   0  0  0  0  0  0  0  0  0  0  0  0
  -23.7434  -20.7962   24.8127 H   0  0  0  0  0  0  0  0  0  0  0  0
  -29.7409  -20.8252   27.6103 H   0  0  0  0  0  0  0  0  0  0  0  0
  -30.5998  -21.9503   27.0741 H   0  0  0  0  0  0  0  0  0  0  0  0
  -29.4535  -23.5536   29.0737 H   0  0  0  0  0  0  0  0  0  0  0  0
  -28.7978  -22.3719   29.7554 H   0  0  0  0  0  0  0  0  0  0  0  0
  -23.9875  -19.2071   26.4990 H   0  0  0  0  0  0  0  0  0  0  0  0
  -25.0805  -19.7497   27.7497 H   0  0  0  0  0  0  0  0  0  0  0  0
  -25.6161  -18.5779   26.5694 H   0  0  0  0  0  0  0  0  0  0  0  0
  -26.8017  -25.2066   25.9030 H   0  0  0  0  0  0  0  0  0  0  0  0
  -26.4712  -24.5680   27.4954 H   0  0  0  0  0  0  0  0  0  0  0  0
  -26.1690  -23.5876   26.0810 H   0  0  0  0  0  0  0  0  0  0  0  0
  -24.5730  -23.0158   24.5301 H   0  0  0  0  0  0  0  0  0  0  0  0
  -25.3579  -21.5074   23.2570 H   0  0  0  0  0  0  0  0  0  0  0  0
  -28.5468  -23.5569   25.5942 H   0  0  0  0  0  0  0  0  0  0  0  0
  -28.8263  -24.5358   27.0432 H   0  0  0  0  0  0  0  0  0  0  0  0
  -27.7459  -19.1295   26.5366 H   0  0  0  0  0  0  0  0  0  0  0  0
  -28.9110  -20.3143   25.9355 H   0  0  0  0  0  0  0  0  0  0  0  0
  -27.0596  -21.7704   25.2682 H   0  0  0  0  0  0  0  0  0  0  0  0
  -27.1607  -19.7907   23.9666 H   0  0  0  0  0  0  0  0  0  0  0  0
  -26.3138  -22.1624   27.6329 H   0  0  0  0  0  0  0  0  0  0  0  0
  -27.3411  -20.8669   28.0135 H   0  0  0  0  0  0  0  0  0  0  0  0
  1 25  1  0
  1 30  2  0
  1 82  1  0
  2  3  1  0
  2 25  1  0
  2 84  1  0
  2 85  1  0
  3  4  1  0
  3 86  1  0
  3 87  1  0
  4  5  1  0
  4 88  1  0
  4 89  1  0
  5  6  1  0
  5 26  1  0
  5 90  1  6
  6 25  1  0
  6 91  1  0
  6 92  1  0
  7  8  2  0
  7 26  1  0
  7 29  1  0
  8  9  1  0
  8 22  1  0
  9 10  1  0
  9 27  2  0
 10 11  2  0
 10 15  1  0
 11 12  1  0
 11 93  1  0
 12 13  2  0
 12 94  1  0
 13 14  1  0
 13 31  1  0
 14 15  2  0
 14 95  1  0
 15 96  1  0
 16 17  2  0
 16 21  1  0
 16 31  1  0
 17 18  1  0
 17 97  1  0
 18 19  2  0
 18 98  1  0
 19 20  1  0
 19 24  1  0
 20 21  2  0
 20 99  1  0
 21 23  1  0
 22 28  1  0
 22 32  2  0
 26 27  1  0
 28100  1  0
 28101  1  0
 29102  1  0
 29103  1  0
 33 34  1  0
 33 66  1  0
 33 70  2  0
 34 36  1  0
 34 59  1  0
 34104  1  6
 35 44  2  0
 35 45  1  0
 35 68  1  0
 36 56  1  0
 36105  1  0
 37 39  1  0
 37 47  1  0
 37 66  1  0
 37106  1  6
 38 43  2  0
 38 46  1  0
 38 47  1  0
 39 64  1  0
 39 67  2  0
 40 52  1  0
 40 53  2  0
 40 58  1  0
 41107  1  0
 41108  1  0
 41109  1  0
 42 43  1  0
 42 66  1  0
 42110  1  0
 42111  1  0
 43 44  1  0
 44112  1  0
 45 46  2  0
 45113  1  0
 46114  1  0
 47115  1  0
 47116  1  0
 48 41  1  0
 48 56  1  0
 48 65  1  0
 48117  1  1
 49 50  1  0
 49 53  1  0
 49 64  1  0
 49118  1  1
 50 51  1  0
 50119  1  0
 50120  1  0
 51 52  1  0
 51121  1  0
 51122  1  0
 52123  1  0
 52124  1  0
 53 54  1  0
 54 55  2  0
 54125  1  0
 55 57  1  0
 55126  1  0
 56 69  2  0
 57 58  2  0
 57127  1  0
 58128  1  0
 59 60  1  0
 59 61  1  0
 59 62  1  0
 60129  1  0
 60130  1  0
 60131  1  0
 61132  1  0
 61133  1  0
 61134  1  0
 62135  1  0
 62136  1  0
 62137  1  0
 63 65  1  0
 63138  1  0
 63139  1  0
 63140  1  0
 64141  1  0
 65142  1  0
 68 78  1  0
 71 72  2  0
 71 78  1  0
 71143  1  0
 72 76  1  0
 72 81  1  0
 73 74  1  0
 73 75  1  0
 73144  1  0
 73145  1  0
 74 75  1  0
 74146  1  0
 74147  1  0
 75 79  1  0
 75 83  1  0
 76148  1  0
 76149  1  0
 76150  1  0
 77 79  1  0
 77151  1  0
 77152  1  0
 77153  1  0
 78154  1  0
 78155  1  0
 79156  1  0
 79157  1  0
 80 82  1  0
 80158  1  0
 80159  1  0
 81 80  1  0
 81 83  1  0
 81160  1  6
 82161  1  0
 83162  1  0
 83163  1  0
M  CHG  1  83   1
M  ISO  4   1 100  68 101  78 101  82 100
M  END
$$$$
59
     RDKit          3D

174183  0  0  0  0  0  0  0  0999 V2000
  -30.7652  -14.3608   20.6636 C   0  0  0  0  0  0  0  0  0100  0  0
  -30.4392  -12.2669   19.3775 C   0  0  0  0  0  0  0  0  0101  0  0
  -29.4791  -12.5281   18.1977 C   0  0  0  0  0  0  0  0  0102  0  0
  -27.9985  -12.3963   18.6038 C   0  0  0  0  0  0  0  0  0103  0  0
  -27.6639  -13.2170   19.8820 C   0  0  2  0  0  0  0  0  0104  0  0
  -28.6795  -12.9602   21.0279 C   0  0  0  0  0  0  0  0  0105  0  0
  -25.2633  -13.8245   20.5754 C   0  0  0  0  0  0  0  0  0106  0  0
  -24.1645  -13.0409   20.9408 C   0  0  0  0  0  0  0  0  0107  0  0
  -24.6400  -11.7009   20.8697 C   0  0  0  0  0  0  0  0  0108  0  0
  -23.9005  -10.4085   21.0420 C   0  0  0  0  0  0  0  0  0109  0  0
  -24.3588   -9.4123   21.9123 C   0  0  0  0  0  0  0  0  0110  0  0
  -23.6296   -8.2350   22.0803 C   0  0  0  0  0  0  0  0  0111  0  0
  -22.4385   -8.0419   21.3657 C   0  0  0  0  0  0  0  0  0112  0  0
  -22.0103   -9.0167   20.4678 C   0  0  0  0  0  0  0  0  0113  0  0
  -22.7317  -10.1925   20.3102 C   0  0  0  0  0  0  0  0  0114  0  0
  -21.6857   -6.0709   22.5391 C   0  0  0  0  0  0  0  0  0115  0  0
  -21.4064   -6.5490   23.8264 C   0  0  0  0  0  0  0  0  0116  0  0
  -21.3635   -5.6677   24.9085 C   0  0  0  0  0  0  0  0  0117  0  0
  -21.5973   -4.3067   24.7088 C   0  0  0  0  0  0  0  0  0118  0  0
  -21.8700   -3.8284   23.4282 C   0  0  0  0  0  0  0  0  0119  0  0
  -21.9144   -4.7056   22.3460 C   0  0  0  0  0  0  0  0  0120  0  0
  -22.8194  -13.5263   21.1763 C   0  0  0  0  0  0  0  0  0121  0  0
  -22.1559   -4.2206   21.1063 F   0  0  0  0  0  0  0  0  0122  0  0
  -21.5628   -3.4510   25.7555 F   0  0  0  0  0  0  0  0  0123  0  0
  -30.0261  -13.1803   20.4553 N   0  0  0  0  0  0  0  0  0124  0  0
  -26.2911  -12.9356   20.3443 N   0  0  0  0  0  0  0  0  0125  0  0
  -25.9236  -11.6675   20.5847 N   0  0  0  0  0  0  0  0  0126  0  0
  -22.0708  -12.7905   22.0005 N   0  0  0  0  0  0  0  0  0127  0  0
  -25.4117  -15.1773   20.4097 N   0  0  0  0  0  0  0  0  0128  0  0
  -31.7916  -14.6724   20.0536 O   0  0  0  0  0  0  0  0  0129  0  0
  -21.6670   -6.9022   21.4423 O   0  0  0  0  0  0  0  0  0130  0  0
  -22.3946  -14.5564   20.6568 O   0  0  0  0  0  0  0  0  0131  0  0
  -24.6048  -31.8614   23.2223 C   0  0  0  0  0  0  0  0  0100  0  0
  -25.8822  -32.4841   23.8616 C   0  0  1  0  0  0  0  0  0101  0  0
  -27.2536  -27.5042   20.1156 C   0  0  0  0  0  0  0  0  0102  0  0
  -25.5726  -33.8762   24.2210 N   0  0  0  0  0  0  0  0  0103  0  0
  -23.4066  -30.4859   21.5461 C   0  0  2  0  0  0  0  0  0104  0  0
  -24.8467  -28.9636   20.1247 C   0  0  0  0  0  0  0  0  0105  0  0
  -22.7412  -29.4652   22.5052 C   0  0  0  0  0  0  0  0  0106  0  0
  -18.0167  -28.1302   22.8626 C   0  0  0  0  0  0  0  0  0107  0  0
  -24.1342  -36.7390   23.2568 C   0  0  0  0  0  0  0  0  0108  0  0
  -25.9141  -30.8882   21.3456 C   0  0  0  0  0  0  0  0  0109  0  0
  -25.9930  -29.5029   20.7208 C   0  0  0  0  0  0  0  0  0110  0  0
  -27.1758  -28.7612   20.7331 C   0  0  0  0  0  0  0  0  0111  0  0
  -26.1032  -26.9836   19.5230 C   0  0  0  0  0  0  0  0  0112  0  0
  -24.9097  -27.7011   19.5331 C   0  0  0  0  0  0  0  0  0113  0  0
  -23.5715  -29.7899   20.1582 C   0  0  0  0  0  0  0  0  0114  0  0
  -25.3990  -36.3212   24.0232 C   0  0  1  0  0  0  0  0  0115  0  0
  -20.5793  -28.3813   23.1004 C   0  0  2  0  0  0  0  0  0116  0  0
  -20.6548  -26.9392   22.5411 C   0  0  0  0  0  0  0  0  0117  0  0
  -19.5615  -26.6407   21.5143 C   0  0  0  0  0  0  0  0  0118  0  0
  -18.1797  -26.7818   22.1673 C   0  0  0  0  0  0  0  0  0119  0  0
  -19.1385  -28.8769   23.2988 C   0  0  0  0  0  0  0  0  0120  0  0
  -18.9183  -30.1286   23.8878 C   0  0  0  0  0  0  0  0  0121  0  0
  -17.6396  -30.6493   24.0352 C   0  0  0  0  0  0  0  0  0122  0  0
  -25.9153  -34.9582   23.4993 C   0  0  0  0  0  0  0  0  0123  0  0
  -16.5415  -29.9068   23.6254 C   0  0  0  0  0  0  0  0  0124  0  0
  -16.7331  -28.6521   23.0586 C   0  0  0  0  0  0  0  0  0125  0  0
  -26.4583  -31.6439   25.0683 C   0  0  0  0  0  0  0  0  0126  0  0
  -25.3807  -31.3179   26.1374 C   0  0  0  0  0  0  0  0  0127  0  0
  -27.0530  -30.3024   24.5680 C   0  0  0  0  0  0  0  0  0128  0  0
  -27.6014  -32.4281   25.7651 C   0  0  0  0  0  0  0  0  0129  0  0
  -27.5629  -37.2220   24.8621 C   0  0  0  0  0  0  0  0  0130  0  0
  -21.4133  -29.3375   22.3735 N   0  0  0  0  0  0  0  0  0131  0  0
  -26.4706  -37.3372   23.9061 N   0  0  0  0  0  0  0  0  0132  0  0
  -24.6674  -31.0544   22.1178 N   0  0  0  0  0  0  0  0  0133  0  0
  -23.4259  -28.8150   23.2971 O   0  0  0  0  0  0  0  0  0134  0  0
  -28.3948  -26.7345   20.0089 O   0  0  0  0  0  0  0  0  0135  0  0
  -26.5870  -34.9065   22.4671 O   0  0  0  0  0  0  0  0  0136  0  0
  -23.5365  -32.1254   23.7833 O   0  0  0  0  0  0  0  0  0137  0  0
  -35.7781  -20.8292   19.4174 C   0  0  0  0  0  0  0  0  0  0  0  0
  -36.0036  -21.6181   18.3009 C   0  0  0  0  0  0  0  0  0  0  0  0
  -35.4693  -19.4886   19.2155 C   0  0  0  0  0  0  0  0  0  0  0  0
  -35.3964  -18.9850   17.9215 C   0  0  0  0  0  0  0  0  0  0  0  0
  -35.6388  -19.8565   16.8720 C   0  0  0  0  0  0  0  0  0  0  0  0
  -33.8187  -14.0261   15.2822 C   0  0  0  0  0  0  0  0  0  0  0  0
  -32.4375  -13.3937   15.4039 C   0  0  0  0  0  0  0  0  0  0  0  0
  -33.8669  -15.5177   15.5900 C   0  0  0  0  0  0  0  0  0  0  0  0
  -31.9613  -13.2776   16.8507 C   0  0  0  0  0  0  0  0  0  0  0  0
  -31.7996  -15.8016   17.0706 C   0  0  0  0  0  0  0  0  0  0  0  0
  -33.3222  -15.8993   16.9672 C   0  0  2  0  0  0  0  0  0  0  0  0
  -35.5746  -19.3729   15.4600 C   0  0  0  0  0  0  0  0  0  0  0  0
  -35.2213  -18.6139   20.3997 C   0  0  0  0  0  0  0  0  0  0  0  0
  -35.0654  -17.5428   17.6733 C   0  0  0  0  0  0  0  0  0  0  0  0
  -33.7389  -18.2997   20.6525 C   0  0  0  0  0  0  0  0  0  0  0  0
  -32.9110  -19.5378   20.9767 C   0  0  0  0  0  0  0  0  0  1  0  0
  -35.9417  -21.1647   17.0288 N   0  0  0  0  0  0  0  0  0  0  0  0
  -31.2577  -14.4682   17.3522 N   0  0  0  0  0  0  0  0  0  0  0  0
  -33.6821  -17.3408   17.1842 N   0  0  0  0  0  0  0  0  0  0  0  0
  -31.4485  -12.4701   19.0860 H   0  0  0  0  0  0  0  0  0  0  0  0
  -30.3970  -11.2460   19.6950 H   0  0  0  0  0  0  0  0  0  0  0  0
  -29.6870  -11.8204   17.4226 H   0  0  0  0  0  0  0  0  0  0  0  0
  -29.6375  -13.5326   17.8649 H   0  0  0  0  0  0  0  0  0  0  0  0
  -27.7830  -11.3650   18.7904 H   0  0  0  0  0  0  0  0  0  0  0  0
  -27.4028  -12.7801   17.8021 H   0  0  0  0  0  0  0  0  0  0  0  0
  -27.7353  -14.2503   19.6136 H   0  0  0  0  0  0  0  0  0  0  0  0
  -28.5890  -11.9550   21.3832 H   0  0  0  0  0  0  0  0  0  0  0  0
  -28.5005  -13.6134   21.8562 H   0  0  0  0  0  0  0  0  0  0  0  0
  -25.2399   -9.5495   22.4318 H   0  0  0  0  0  0  0  0  0  0  0  0
  -23.9663   -7.5070   22.7297 H   0  0  0  0  0  0  0  0  0  0  0  0
  -21.1515   -8.8641   19.9162 H   0  0  0  0  0  0  0  0  0  0  0  0
  -22.4016  -10.9115   19.6476 H   0  0  0  0  0  0  0  0  0  0  0  0
  -21.2319   -7.5552   23.9750 H   0  0  0  0  0  0  0  0  0  0  0  0
  -21.1589   -6.0228   25.8556 H   0  0  0  0  0  0  0  0  0  0  0  0
  -22.0396   -2.8212   23.2809 H   0  0  0  0  0  0  0  0  0  0  0  0
  -22.4401  -11.9703   22.4008 H   0  0  0  0  0  0  0  0  0  0  0  0
  -21.1493  -13.0679   22.2082 H   0  0  0  0  0  0  0  0  0  0  0  0
  -24.6538  -15.7807   20.5848 H   0  0  0  0  0  0  0  0  0  0  0  0
  -26.2762  -15.5453   20.1156 H   0  0  0  0  0  0  0  0  0  0  0  0
  -26.6778  -32.4663   23.1464 H   0  0  0  0  0  0  0  0  0  0  0  0
  -25.0747  -34.0282   25.0566 H   0  0  0  0  0  0  0  0  0  0  0  0
  -22.7881  -31.3489   21.4131 H   0  0  0  0  0  0  0  0  0  0  0  0
  -23.3854  -35.9823   23.3648 H   0  0  0  0  0  0  0  0  0  0  0  0
  -24.3696  -36.8624   22.2204 H   0  0  0  0  0  0  0  0  0  0  0  0
  -23.7669  -37.6632   23.6516 H   0  0  0  0  0  0  0  0  0  0  0  0
  -25.9445  -31.6237   20.5691 H   0  0  0  0  0  0  0  0  0  0  0  0
  -26.7436  -31.0079   22.0108 H   0  0  0  0  0  0  0  0  0  0  0  0
  -28.0090  -29.1452   21.2057 H   0  0  0  0  0  0  0  0  0  0  0  0
  -26.1369  -26.0560   19.0719 H   0  0  0  0  0  0  0  0  0  0  0  0
  -24.0652  -27.2961   19.0997 H   0  0  0  0  0  0  0  0  0  0  0  0
  -23.6156  -30.5365   19.3930 H   0  0  0  0  0  0  0  0  0  0  0  0
  -22.7355  -29.1425   19.9945 H   0  0  0  0  0  0  0  0  0  0  0  0
  -25.1353  -36.2335   25.0565 H   0  0  0  0  0  0  0  0  0  0  0  0
  -21.0070  -28.3206   24.0793 H   0  0  0  0  0  0  0  0  0  0  0  0
  -20.5555  -26.2518   23.3550 H   0  0  0  0  0  0  0  0  0  0  0  0
  -21.5974  -26.8362   22.0454 H   0  0  0  0  0  0  0  0  0  0  0  0
  -19.6810  -25.6422   21.1488 H   0  0  0  0  0  0  0  0  0  0  0  0
  -19.6406  -27.3343   20.7034 H   0  0  0  0  0  0  0  0  0  0  0  0
  -17.4282  -26.6888   21.4113 H   0  0  0  0  0  0  0  0  0  0  0  0
  -18.0803  -26.0130   22.9049 H   0  0  0  0  0  0  0  0  0  0  0  0
  -19.7265  -30.6774   24.2204 H   0  0  0  0  0  0  0  0  0  0  0  0
  -17.5064  -31.5856   24.4483 H   0  0  0  0  0  0  0  0  0  0  0  0
  -15.5878  -30.2839   23.7407 H   0  0  0  0  0  0  0  0  0  0  0  0
  -15.9120  -28.0941   22.7766 H   0  0  0  0  0  0  0  0  0  0  0  0
  -24.5787  -30.7757   25.6817 H   0  0  0  0  0  0  0  0  0  0  0  0
  -25.0041  -32.2289   26.5536 H   0  0  0  0  0  0  0  0  0  0  0  0
  -25.8166  -30.7245   26.9138 H   0  0  0  0  0  0  0  0  0  0  0  0
  -26.2892  -29.7335   24.0803 H   0  0  0  0  0  0  0  0  0  0  0  0
  -27.4336  -29.7484   25.4006 H   0  0  0  0  0  0  0  0  0  0  0  0
  -27.8466  -30.4994   23.8779 H   0  0  0  0  0  0  0  0  0  0  0  0
  -27.2251  -33.3632   26.1242 H   0  0  0  0  0  0  0  0  0  0  0  0
  -28.3902  -32.6065   25.0645 H   0  0  0  0  0  0  0  0  0  0  0  0
  -27.9772  -31.8555   26.5872 H   0  0  0  0  0  0  0  0  0  0  0  0
  -28.2744  -38.0016   24.6863 H   0  0  0  0  0  0  0  0  0  0  0  0
  -28.0396  -36.2711   24.7461 H   0  0  0  0  0  0  0  0  0  0  0  0
  -27.1773  -37.3087   25.8564 H   0  0  0  0  0  0  0  0  0  0  0  0
  -20.9627  -29.9365   21.7352 H   0  0  0  0  0  0  0  0  0  0  0  0
  -26.0447  -38.2561   24.0273 H   0  0  0  0  0  0  0  0  0  0  0  0
  -35.8375  -21.2242   20.3690 H   0  0  0  0  0  0  0  0  0  0  0  0
  -36.2330  -22.6132   18.4496 H   0  0  0  0  0  0  0  0  0  0  0  0
  -34.1640  -13.8816   14.2798 H   0  0  0  0  0  0  0  0  0  0  0  0
  -34.4353  -13.5471   16.0138 H   0  0  0  0  0  0  0  0  0  0  0  0
  -32.4721  -12.4135   14.9763 H   0  0  0  0  0  0  0  0  0  0  0  0
  -31.7474  -14.0290   14.8891 H   0  0  0  0  0  0  0  0  0  0  0  0
  -33.2904  -16.0306   14.8488 H   0  0  0  0  0  0  0  0  0  0  0  0
  -34.8999  -15.7964   15.5836 H   0  0  0  0  0  0  0  0  0  0  0  0
  -32.8153  -13.1061   17.4721 H   0  0  0  0  0  0  0  0  0  0  0  0
  -31.2587  -12.4711   16.8790 H   0  0  0  0  0  0  0  0  0  0  0  0
  -31.3866  -16.1330   16.1408 H   0  0  0  0  0  0  0  0  0  0  0  0
  -31.5286  -16.4061   17.9109 H   0  0  0  0  0  0  0  0  0  0  0  0
  -33.7393  -15.2247   17.6854 H   0  0  0  0  0  0  0  0  0  0  0  0
  -35.3294  -18.3314   15.4505 H   0  0  0  0  0  0  0  0  0  0  0  0
  -36.5241  -19.5201   14.9891 H   0  0  0  0  0  0  0  0  0  0  0  0
  -34.8244  -19.9208   14.9291 H   0  0  0  0  0  0  0  0  0  0  0  0
  -35.6128  -19.1041   21.2665 H   0  0  0  0  0  0  0  0  0  0  0  0
  -35.7030  -17.6800   20.1978 H   0  0  0  0  0  0  0  0  0  0  0  0
  -35.1850  -17.0033   18.5895 H   0  0  0  0  0  0  0  0  0  0  0  0
  -35.7283  -17.1895   16.9113 H   0  0  0  0  0  0  0  0  0  0  0  0
  -33.6707  -17.6196   21.4757 H   0  0  0  0  0  0  0  0  0  0  0  0
  -33.3441  -17.8795   19.7512 H   0  0  0  0  0  0  0  0  0  0  0  0
  -33.6152  -19.9524   21.6674 H   0  0  0  0  0  0  0  0  0  0  0  0
  -32.0674  -19.0155   20.5762 H   0  0  0  0  0  0  0  0  0  0  0  0
  -33.0376  -17.7337   17.8702 H   0  0  0  0  0  0  0  0  0  0  0  0
  -33.6162  -17.8038   16.2778 H   0  0  0  0  0  0  0  0  0  0  0  0
  1 25  1  0
  1 30  2  0
  1 88  1  0
  2  3  1  0
  2 25  1  0
  2 90  1  0
  2 91  1  0
  3  4  1  0
  3 92  1  0
  3 93  1  0
  4  5  1  0
  4 94  1  0
  4 95  1  0
  5  6  1  0
  5 26  1  0
  5 96  1  6
  6 25  1  0
  6 97  1  0
  6 98  1  0
  7  8  2  0
  7 26  1  0
  7 29  1  0
  8  9  1  0
  8 22  1  0
  9 10  1  0
  9 27  2  0
 10 11  2  0
 10 15  1  0
 11 12  1  0
 11 99  1  0
 12 13  2  0
 12100  1  0
 13 14  1  0
 13 31  1  0
 14 15  2  0
 14101  1  0
 15102  1  0
 16 17  2  0
 16 21  1  0
 16 31  1  0
 17 18  1  0
 17103  1  0
 18 19  2  0
 18104  1  0
 19 20  1  0
 19 24  1  0
 20 21  2  0
 20105  1  0
 21 23  1  0
 22 28  1  0
 22 32  2  0
 26 27  1  0
 28106  1  0
 28107  1  0
 29108  1  0
 29109  1  0
 33 34  1  0
 33 66  1  0
 33 70  2  0
 34 36  1  0
 34 59  1  0
 34110  1  6
 35 44  2  0
 35 45  1  0
 35 68  1  0
 36 56  1  0
 36111  1  0
 37 39  1  0
 37 47  1  0
 37 66  1  0
 37112  1  6
 38 43  2  0
 38 46  1  0
 38 47  1  0
 39 64  1  0
 39 67  2  0
 40 52  1  0
 40 53  2  0
 40 58  1  0
 41113  1  0
 41114  1  0
 41115  1  0
 42 43  1  0
 42 66  1  0
 42116  1  0
 42117  1  0
 43 44  1  0
 44118  1  0
 45 46  2  0
 45119  1  0
 46120  1  0
 47121  1  0
 47122  1  0
 48 41  1  0
 48 56  1  0
 48 65  1  0
 48123  1  1
 49 50  1  0
 49 53  1  0
 49 64  1  0
 49124  1  1
 50 51  1  0
 50125  1  0
 50126  1  0
 51 52  1  0
 51127  1  0
 51128  1  0
 52129  1  0
 52130  1  0
 53 54  1  0
 54 55  2  0
 54131  1  0
 55 57  1  0
 55132  1  0
 56 69  2  0
 57 58  2  0
 57133  1  0
 58134  1  0
 59 60  1  0
 59 61  1  0
 59 62  1  0
 60135  1  0
 60136  1  0
 60137  1  0
 61138  1  0
 61139  1  0
 61140  1  0
 62141  1  0
 62142  1  0
 62143  1  0
 63 65  1  0
 63144  1  0
 63145  1  0
 63146  1  0
 64147  1  0
 65148  1  0
 68 86  1  0
 71 72  2  0
 71 73  1  0
 71149  1  0
 72 87  1  0
 72150  1  0
 73 74  2  0
 73 83  1  0
 74 75  1  0
 74 84  1  0
 75 82  1  0
 75 87  2  0
 76 77  1  0
 76 78  1  0
 76151  1  0
 76152  1  0
 77 79  1  0
 77153  1  0
 77154  1  0
 78 81  1  0
 78155  1  0
 78156  1  0
 79 88  1  0
 79157  1  0
 79158  1  0
 80 81  1  0
 80 88  1  0
 80159  1  0
 80160  1  0
 81 89  1  0
 81161  1  1
 82162  1  0
 82163  1  0
 82164  1  0
 83 85  1  0
 83165  1  0
 83166  1  0
 84 89  1  0
 84167  1  0
 84168  1  0
 85 86  1  0
 85169  1  0
 85170  1  0
 86171  1  0
 86172  1  0
 89173  1  0
 89174  1  0
M  CHG  1  89   1
M  ISO  4   1 100  68 101  86 101  88 100
M  END
$$$$
60
     RDKit          3D

154162  0  0  0  0  0  0  0  0999 V2000
  -30.7652  -14.3608   20.6636 C   0  0  0  0  0  0  0  0  0100  0  0
  -30.4392  -12.2669   19.3775 C   0  0  0  0  0  0  0  0  0101  0  0
  -29.4791  -12.5281   18.1977 C   0  0  0  0  0  0  0  0  0102  0  0
  -27.9985  -12.3963   18.6038 C   0  0  0  0  0  0  0  0  0103  0  0
  -27.6639  -13.2170   19.8820 C   0  0  2  0  0  0  0  0  0104  0  0
  -28.6795  -12.9602   21.0279 C   0  0  0  0  0  0  0  0  0105  0  0
  -25.2633  -13.8245   20.5754 C   0  0  0  0  0  0  0  0  0106  0  0
  -24.1645  -13.0409   20.9408 C   0  0  0  0  0  0  0  0  0107  0  0
  -24.6400  -11.7009   20.8697 C   0  0  0  0  0  0  0  0  0108  0  0
  -23.9005  -10.4085   21.0420 C   0  0  0  0  0  0  0  0  0109  0  0
  -24.3588   -9.4123   21.9123 C   0  0  0  0  0  0  0  0  0110  0  0
  -23.6296   -8.2350   22.0803 C   0  0  0  0  0  0  0  0  0111  0  0
  -22.4385   -8.0419   21.3657 C   0  0  0  0  0  0  0  0  0112  0  0
  -22.0103   -9.0167   20.4678 C   0  0  0  0  0  0  0  0  0113  0  0
  -22.7317  -10.1925   20.3102 C   0  0  0  0  0  0  0  0  0114  0  0
  -21.6857   -6.0709   22.5391 C   0  0  0  0  0  0  0  0  0115  0  0
  -21.4064   -6.5490   23.8264 C   0  0  0  0  0  0  0  0  0116  0  0
  -21.3635   -5.6677   24.9085 C   0  0  0  0  0  0  0  0  0117  0  0
  -21.5973   -4.3067   24.7088 C   0  0  0  0  0  0  0  0  0118  0  0
  -21.8700   -3.8284   23.4282 C   0  0  0  0  0  0  0  0  0119  0  0
  -21.9144   -4.7056   22.3460 C   0  0  0  0  0  0  0  0  0120  0  0
  -22.8194  -13.5263   21.1763 C   0  0  0  0  0  0  0  0  0121  0  0
  -22.1559   -4.2206   21.1063 F   0  0  0  0  0  0  0  0  0122  0  0
  -21.5628   -3.4510   25.7555 F   0  0  0  0  0  0  0  0  0123  0  0
  -30.0261  -13.1803   20.4553 N   0  0  0  0  0  0  0  0  0124  0  0
  -26.2911  -12.9356   20.3443 N   0  0  0  0  0  0  0  0  0125  0  0
  -25.9236  -11.6675   20.5847 N   0  0  0  0  0  0  0  0  0126  0  0
  -22.0708  -12.7905   22.0005 N   0  0  0  0  0  0  0  0  0127  0  0
  -25.4117  -15.1773   20.4097 N   0  0  0  0  0  0  0  0  0128  0  0
  -31.7916  -14.6724   20.0536 O   0  0  0  0  0  0  0  0  0129  0  0
  -21.6670   -6.9022   21.4423 O   0  0  0  0  0  0  0  0  0130  0  0
  -22.3946  -14.5564   20.6568 O   0  0  0  0  0  0  0  0  0131  0  0
  -24.6048  -31.8614   23.2223 C   0  0  0  0  0  0  0  0  0100  0  0
  -25.8822  -32.4841   23.8616 C   0  0  1  0  0  0  0  0  0101  0  0
  -27.2536  -27.5042   20.1156 C   0  0  0  0  0  0  0  0  0102  0  0
  -25.5726  -33.8762   24.2210 N   0  0  0  0  0  0  0  0  0103  0  0
  -23.4066  -30.4859   21.5461 C   0  0  2  0  0  0  0  0  0104  0  0
  -24.8467  -28.9636   20.1247 C   0  0  0  0  0  0  0  0  0105  0  0
  -22.7412  -29.4652   22.5052 C   0  0  0  0  0  0  0  0  0106  0  0
  -18.0167  -28.1302   22.8626 C   0  0  0  0  0  0  0  0  0107  0  0
  -24.1342  -36.7390   23.2568 C   0  0  0  0  0  0  0  0  0108  0  0
  -25.9141  -30.8882   21.3456 C   0  0  0  0  0  0  0  0  0109  0  0
  -25.9930  -29.5029   20.7208 C   0  0  0  0  0  0  0  0  0110  0  0
  -27.1758  -28.7612   20.7331 C   0  0  0  0  0  0  0  0  0111  0  0
  -26.1032  -26.9836   19.5230 C   0  0  0  0  0  0  0  0  0112  0  0
  -24.9097  -27.7011   19.5331 C   0  0  0  0  0  0  0  0  0113  0  0
  -23.5715  -29.7899   20.1582 C   0  0  0  0  0  0  0  0  0114  0  0
  -25.3990  -36.3212   24.0232 C   0  0  1  0  0  0  0  0  0115  0  0
  -20.5793  -28.3813   23.1004 C   0  0  2  0  0  0  0  0  0116  0  0
  -20.6548  -26.9392   22.5411 C   0  0  0  0  0  0  0  0  0117  0  0
  -19.5615  -26.6407   21.5143 C   0  0  0  0  0  0  0  0  0118  0  0
  -18.1797  -26.7818   22.1673 C   0  0  0  0  0  0  0  0  0119  0  0
  -19.1385  -28.8769   23.2988 C   0  0  0  0  0  0  0  0  0120  0  0
  -18.9183  -30.1286   23.8878 C   0  0  0  0  0  0  0  0  0121  0  0
  -17.6396  -30.6493   24.0352 C   0  0  0  0  0  0  0  0  0122  0  0
  -25.9153  -34.9582   23.4993 C   0  0  0  0  0  0  0  0  0123  0  0
  -16.5415  -29.9068   23.6254 C   0  0  0  0  0  0  0  0  0124  0  0
  -16.7331  -28.6521   23.0586 C   0  0  0  0  0  0  0  0  0125  0  0
  -26.4583  -31.6439   25.0683 C   0  0  0  0  0  0  0  0  0126  0  0
  -25.3807  -31.3179   26.1374 C   0  0  0  0  0  0  0  0  0127  0  0
  -27.0530  -30.3024   24.5680 C   0  0  0  0  0  0  0  0  0128  0  0
  -27.6014  -32.4281   25.7651 C   0  0  0  0  0  0  0  0  0129  0  0
  -27.5629  -37.2220   24.8621 C   0  0  0  0  0  0  0  0  0130  0  0
  -21.4133  -29.3375   22.3735 N   0  0  0  0  0  0  0  0  0131  0  0
  -26.4706  -37.3372   23.9061 N   0  0  0  0  0  0  0  0  0132  0  0
  -24.6674  -31.0544   22.1178 N   0  0  0  0  0  0  0  0  0133  0  0
  -23.4259  -28.8150   23.2971 O   0  0  0  0  0  0  0  0  0134  0  0
  -28.3948  -26.7345   20.0089 O   0  0  0  0  0  0  0  0  0135  0  0
  -26.5870  -34.9065   22.4671 O   0  0  0  0  0  0  0  0  0136  0  0
  -23.5365  -32.1254   23.7833 O   0  0  0  0  0  0  0  0  0137  0  0
  -31.8414  -17.5212   21.5201 C   0  0  0  0  0  0  0  0  0  0  0  0
  -29.8787  -17.8828   22.5628 C   0  0  0  0  0  0  0  0  0  0  0  0
  -30.5686  -16.9658   21.8009 C   0  0  0  0  0  0  0  0  0  0  0  0
  -31.8906  -18.7605   22.1192 C   0  0  0  0  0  0  0  0  0  0  0  0
  -33.3375  -20.2914   20.7349 C   0  0  0  0  0  0  0  0  0  0  0  0
  -34.2600  -19.2411   22.8327 C   0  0  0  0  0  0  0  0  0  0  0  0
  -30.3078  -20.2002   23.5354 C   0  0  0  0  0  0  0  0  0  0  0  0
  -29.9539  -21.3769   22.6325 C   0  0  0  0  0  0  0  0  0  1  0  0
  -32.9782  -19.7599   22.1414 C   0  0  0  0  0  0  0  0  0  0  0  0
  -30.6922  -18.9697   22.7503 N   0  0  0  0  0  0  0  0  0  0  0  0
  -30.0698  -15.7052   21.3887 N   0  0  0  0  0  0  0  0  0  0  0  0
  -31.4485  -12.4701   19.0860 H   0  0  0  0  0  0  0  0  0  0  0  0
  -30.3970  -11.2460   19.6950 H   0  0  0  0  0  0  0  0  0  0  0  0
  -29.6870  -11.8204   17.4226 H   0  0  0  0  0  0  0  0  0  0  0  0
  -29.6375  -13.5326   17.8649 H   0  0  0  0  0  0  0  0  0  0  0  0
  -27.7830  -11.3650   18.7904 H   0  0  0  0  0  0  0  0  0  0  0  0
  -27.4028  -12.7801   17.8021 H   0  0  0  0  0  0  0  0  0  0  0  0
  -27.7353  -14.2503   19.6136 H   0  0  0  0  0  0  0  0  0  0  0  0
  -28.5890  -11.9550   21.3832 H   0  0  0  0  0  0  0  0  0  0  0  0
  -28.5005  -13.6134   21.8562 H   0  0  0  0  0  0  0  0  0  0  0  0
  -25.2399   -9.5495   22.4318 H   0  0  0  0  0  0  0  0  0  0  0  0
  -23.9663   -7.5070   22.7297 H   0  0  0  0  0  0  0  0  0  0  0  0
  -21.1515   -8.8641   19.9162 H   0  0  0  0  0  0  0  0  0  0  0  0
  -22.4016  -10.9115   19.6476 H   0  0  0  0  0  0  0  0  0  0  0  0
  -21.2319   -7.5552   23.9750 H   0  0  0  0  0  0  0  0  0  0  0  0
  -21.1589   -6.0228   25.8556 H   0  0  0  0  0  0  0  0  0  0  0  0
  -22.0396   -2.8212   23.2809 H   0  0  0  0  0  0  0  0  0  0  0  0
  -22.4401  -11.9703   22.4008 H   0  0  0  0  0  0  0  0  0  0  0  0
  -21.1493  -13.0679   22.2082 H   0  0  0  0  0  0  0  0  0  0  0  0
  -24.6538  -15.7807   20.5848 H   0  0  0  0  0  0  0  0  0  0  0  0
  -26.2762  -15.5453   20.1156 H   0  0  0  0  0  0  0  0  0  0  0  0
  -26.6778  -32.4663   23.1464 H   0  0  0  0  0  0  0  0  0  0  0  0
  -25.0747  -34.0282   25.0566 H   0  0  0  0  0  0  0  0  0  0  0  0
  -22.7881  -31.3489   21.4131 H   0  0  0  0  0  0  0  0  0  0  0  0
  -23.3854  -35.9823   23.3648 H   0  0  0  0  0  0  0  0  0  0  0  0
  -24.3696  -36.8624   22.2204 H   0  0  0  0  0  0  0  0  0  0  0  0
  -23.7669  -37.6632   23.6516 H   0  0  0  0  0  0  0  0  0  0  0  0
  -25.9445  -31.6237   20.5691 H   0  0  0  0  0  0  0  0  0  0  0  0
  -26.7436  -31.0079   22.0108 H   0  0  0  0  0  0  0  0  0  0  0  0
  -28.0090  -29.1452   21.2057 H   0  0  0  0  0  0  0  0  0  0  0  0
  -26.1369  -26.0560   19.0719 H   0  0  0  0  0  0  0  0  0  0  0  0
  -24.0652  -27.2961   19.0997 H   0  0  0  0  0  0  0  0  0  0  0  0
  -23.6156  -30.5365   19.3930 H   0  0  0  0  0  0  0  0  0  0  0  0
  -22.7355  -29.1425   19.9945 H   0  0  0  0  0  0  0  0  0  0  0  0
  -25.1353  -36.2335   25.0565 H   0  0  0  0  0  0  0  0  0  0  0  0
  -21.0070  -28.3206   24.0793 H   0  0  0  0  0  0  0  0  0  0  0  0
  -20.5555  -26.2518   23.3550 H   0  0  0  0  0  0  0  0  0  0  0  0
  -21.5974  -26.8362   22.0454 H   0  0  0  0  0  0  0  0  0  0  0  0
  -19.6810  -25.6422   21.1488 H   0  0  0  0  0  0  0  0  0  0  0  0
  -19.6406  -27.3343   20.7034 H   0  0  0  0  0  0  0  0  0  0  0  0
  -17.4282  -26.6888   21.4113 H   0  0  0  0  0  0  0  0  0  0  0  0
  -18.0803  -26.0130   22.9049 H   0  0  0  0  0  0  0  0  0  0  0  0
  -19.7265  -30.6774   24.2204 H   0  0  0  0  0  0  0  0  0  0  0  0
  -17.5064  -31.5856   24.4483 H   0  0  0  0  0  0  0  0  0  0  0  0
  -15.5878  -30.2839   23.7407 H   0  0  0  0  0  0  0  0  0  0  0  0
  -15.9120  -28.0941   22.7766 H   0  0  0  0  0  0  0  0  0  0  0  0
  -24.5787  -30.7757   25.6817 H   0  0  0  0  0  0  0  0  0  0  0  0
  -25.0041  -32.2289   26.5536 H   0  0  0  0  0  0  0  0  0  0  0  0
  -25.8166  -30.7245   26.9138 H   0  0  0  0  0  0  0  0  0  0  0  0
  -26.2892  -29.7335   24.0803 H   0  0  0  0  0  0  0  0  0  0  0  0
  -27.4336  -29.7484   25.4006 H   0  0  0  0  0  0  0  0  0  0  0  0
  -27.8466  -30.4994   23.8779 H   0  0  0  0  0  0  0  0  0  0  0  0
  -27.2251  -33.3632   26.1242 H   0  0  0  0  0  0  0  0  0  0  0  0
  -28.3902  -32.6065   25.0645 H   0  0  0  0  0  0  0  0  0  0  0  0
  -27.9772  -31.8555   26.5872 H   0  0  0  0  0  0  0  0  0  0  0  0
  -28.2744  -38.0016   24.6863 H   0  0  0  0  0  0  0  0  0  0  0  0
  -28.0396  -36.2711   24.7461 H   0  0  0  0  0  0  0  0  0  0  0  0
  -27.1773  -37.3087   25.8564 H   0  0  0  0  0  0  0  0  0  0  0  0
  -20.9627  -29.9365   21.7352 H   0  0  0  0  0  0  0  0  0  0  0  0
  -26.0447  -38.2561   24.0273 H   0  0  0  0  0  0  0  0  0  0  0  0
  -32.5930  -17.0788   20.9684 H   0  0  0  0  0  0  0  0  0  0  0  0
  -28.9198  -17.7712   22.9276 H   0  0  0  0  0  0  0  0  0  0  0  0
  -32.4527  -20.6515   20.2529 H   0  0  0  0  0  0  0  0  0  0  0  0
  -33.7640  -19.5011   20.1532 H   0  0  0  0  0  0  0  0  0  0  0  0
  -34.0445  -21.0895   20.8251 H   0  0  0  0  0  0  0  0  0  0  0  0
  -34.0155  -18.8722   23.8069 H   0  0  0  0  0  0  0  0  0  0  0  0
  -34.9661  -20.0402   22.9208 H   0  0  0  0  0  0  0  0  0  0  0  0
  -34.6856  -18.4518   22.2489 H   0  0  0  0  0  0  0  0  0  0  0  0
  -29.4601  -19.9679   24.1456 H   0  0  0  0  0  0  0  0  0  0  0  0
  -31.1509  -20.4858   24.1291 H   0  0  0  0  0  0  0  0  0  0  0  0
  -29.1779  -20.8368   22.1316 H   0  0  0  0  0  0  0  0  0  0  0  0
  -30.8389  -21.8604   22.9902 H   0  0  0  0  0  0  0  0  0  0  0  0
  -32.5843  -20.5693   22.7199 H   0  0  0  0  0  0  0  0  0  0  0  0
  -29.1078  -15.5940   21.5659 H   0  0  0  0  0  0  0  0  0  0  0  0
  1 25  1  0
  1 30  2  0
  1 81  1  0
  2  3  1  0
  2 25  1  0
  2 82  1  0
  2 83  1  0
  3  4  1  0
  3 84  1  0
  3 85  1  0
  4  5  1  0
  4 86  1  0
  4 87  1  0
  5  6  1  0
  5 26  1  0
  5 88  1  6
  6 25  1  0
  6 89  1  0
  6 90  1  0
  7  8  2  0
  7 26  1  0
  7 29  1  0
  8  9  1  0
  8 22  1  0
  9 10  1  0
  9 27  2  0
 10 11  2  0
 10 15  1  0
 11 12  1  0
 11 91  1  0
 12 13  2  0
 12 92  1  0
 13 14  1  0
 13 31  1  0
 14 15  2  0
 14 93  1  0
 15 94  1  0
 16 17  2  0
 16 21  1  0
 16 31  1  0
 17 18  1  0
 17 95  1  0
 18 19  2  0
 18 96  1  0
 19 20  1  0
 19 24  1  0
 20 21  2  0
 20 97  1  0
 21 23  1  0
 22 28  1  0
 22 32  2  0
 26 27  1  0
 28 98  1  0
 28 99  1  0
 29100  1  0
 29101  1  0
 33 34  1  0
 33 66  1  0
 33 70  2  0
 34 36  1  0
 34 59  1  0
 34102  1  6
 35 44  2  0
 35 45  1  0
 35 68  1  0
 36 56  1  0
 36103  1  0
 37 39  1  0
 37 47  1  0
 37 66  1  0
 37104  1  6
 38 43  2  0
 38 46  1  0
 38 47  1  0
 39 64  1  0
 39 67  2  0
 40 52  1  0
 40 53  2  0
 40 58  1  0
 41105  1  0
 41106  1  0
 41107  1  0
 42 43  1  0
 42 66  1  0
 42108  1  0
 42109  1  0
 43 44  1  0
 44110  1  0
 45 46  2  0
 45111  1  0
 46112  1  0
 47113  1  0
 47114  1  0
 48 41  1  0
 48 56  1  0
 48 65  1  0
 48115  1  1
 49 50  1  0
 49 53  1  0
 49 64  1  0
 49116  1  1
 50 51  1  0
 50117  1  0
 50118  1  0
 51 52  1  0
 51119  1  0
 51120  1  0
 52121  1  0
 52122  1  0
 53 54  1  0
 54 55  2  0
 54123  1  0
 55 57  1  0
 55124  1  0
 56 69  2  0
 57 58  2  0
 57125  1  0
 58126  1  0
 59 60  1  0
 59 61  1  0
 59 62  1  0
 60127  1  0
 60128  1  0
 60129  1  0
 61130  1  0
 61131  1  0
 61132  1  0
 62133  1  0
 62134  1  0
 62135  1  0
 63 65  1  0
 63136  1  0
 63137  1  0
 63138  1  0
 64139  1  0
 65140  1  0
 68 78  1  0
 71 73  1  0
 71 74  2  0
 71141  1  0
 72 73  2  0
 72 80  1  0
 72142  1  0
 73 81  1  0
 74 79  1  0
 74 80  1  0
 75143  1  0
 75144  1  0
 75145  1  0
 76 79  1  0
 76146  1  0
 76147  1  0
 76148  1  0
 77 78  1  0
 77 80  1  0
 77149  1  0
 77150  1  0
 78151  1  0
 78152  1  0
 79 75  1  0
 79153  1  0
 81154  1  0
M  ISO  4   1 100  68 101  78 101  81 100
M  END
$$$$
61
     RDKit          3D

154162  0  0  0  0  0  0  0  0999 V2000
  -30.7652  -14.3608   20.6636 C   0  0  0  0  0  0  0  0  0100  0  0
  -30.4392  -12.2669   19.3775 C   0  0  0  0  0  0  0  0  0101  0  0
  -29.4791  -12.5281   18.1977 C   0  0  0  0  0  0  0  0  0102  0  0
  -27.9985  -12.3963   18.6038 C   0  0  0  0  0  0  0  0  0103  0  0
  -27.6639  -13.2170   19.8820 C   0  0  2  0  0  0  0  0  0104  0  0
  -28.6795  -12.9602   21.0279 C   0  0  0  0  0  0  0  0  0105  0  0
  -25.2633  -13.8245   20.5754 C   0  0  0  0  0  0  0  0  0106  0  0
  -24.1645  -13.0409   20.9408 C   0  0  0  0  0  0  0  0  0107  0  0
  -24.6400  -11.7009   20.8697 C   0  0  0  0  0  0  0  0  0108  0  0
  -23.9005  -10.4085   21.0420 C   0  0  0  0  0  0  0  0  0109  0  0
  -24.3588   -9.4123   21.9123 C   0  0  0  0  0  0  0  0  0110  0  0
  -23.6296   -8.2350   22.0803 C   0  0  0  0  0  0  0  0  0111  0  0
  -22.4385   -8.0419   21.3657 C   0  0  0  0  0  0  0  0  0112  0  0
  -22.0103   -9.0167   20.4678 C   0  0  0  0  0  0  0  0  0113  0  0
  -22.7317  -10.1925   20.3102 C   0  0  0  0  0  0  0  0  0114  0  0
  -21.6857   -6.0709   22.5391 C   0  0  0  0  0  0  0  0  0115  0  0
  -21.4064   -6.5490   23.8264 C   0  0  0  0  0  0  0  0  0116  0  0
  -21.3635   -5.6677   24.9085 C   0  0  0  0  0  0  0  0  0117  0  0
  -21.5973   -4.3067   24.7088 C   0  0  0  0  0  0  0  0  0118  0  0
  -21.8700   -3.8284   23.4282 C   0  0  0  0  0  0  0  0  0119  0  0
  -21.9144   -4.7056   22.3460 C   0  0  0  0  0  0  0  0  0120  0  0
  -22.8194  -13.5263   21.1763 C   0  0  0  0  0  0  0  0  0121  0  0
  -22.1559   -4.2206   21.1063 F   0  0  0  0  0  0  0  0  0122  0  0
  -21.5628   -3.4510   25.7555 F   0  0  0  0  0  0  0  0  0123  0  0
  -30.0261  -13.1803   20.4553 N   0  0  0  0  0  0  0  0  0124  0  0
  -26.2911  -12.9356   20.3443 N   0  0  0  0  0  0  0  0  0125  0  0
  -25.9236  -11.6675   20.5847 N   0  0  0  0  0  0  0  0  0126  0  0
  -22.0708  -12.7905   22.0005 N   0  0  0  0  0  0  0  0  0127  0  0
  -25.4117  -15.1773   20.4097 N   0  0  0  0  0  0  0  0  0128  0  0
  -31.7916  -14.6724   20.0536 O   0  0  0  0  0  0  0  0  0129  0  0
  -21.6670   -6.9022   21.4423 O   0  0  0  0  0  0  0  0  0130  0  0
  -22.3946  -14.5564   20.6568 O   0  0  0  0  0  0  0  0  0131  0  0
  -24.6048  -31.8614   23.2223 C   0  0  0  0  0  0  0  0  0100  0  0
  -25.8822  -32.4841   23.8616 C   0  0  1  0  0  0  0  0  0101  0  0
  -27.2536  -27.5042   20.1156 C   0  0  0  0  0  0  0  0  0102  0  0
  -25.5726  -33.8762   24.2210 N   0  0  0  0  0  0  0  0  0103  0  0
  -23.4066  -30.4859   21.5461 C   0  0  2  0  0  0  0  0  0104  0  0
  -24.8467  -28.9636   20.1247 C   0  0  0  0  0  0  0  0  0105  0  0
  -22.7412  -29.4652   22.5052 C   0  0  0  0  0  0  0  0  0106  0  0
  -18.0167  -28.1302   22.8626 C   0  0  0  0  0  0  0  0  0107  0  0
  -24.1342  -36.7390   23.2568 C   0  0  0  0  0  0  0  0  0108  0  0
  -25.9141  -30.8882   21.3456 C   0  0  0  0  0  0  0  0  0109  0  0
  -25.9930  -29.5029   20.7208 C   0  0  0  0  0  0  0  0  0110  0  0
  -27.1758  -28.7612   20.7331 C   0  0  0  0  0  0  0  0  0111  0  0
  -26.1032  -26.9836   19.5230 C   0  0  0  0  0  0  0  0  0112  0  0
  -24.9097  -27.7011   19.5331 C   0  0  0  0  0  0  0  0  0113  0  0
  -23.5715  -29.7899   20.1582 C   0  0  0  0  0  0  0  0  0114  0  0
  -25.3990  -36.3212   24.0232 C   0  0  1  0  0  0  0  0  0115  0  0
  -20.5793  -28.3813   23.1004 C   0  0  2  0  0  0  0  0  0116  0  0
  -20.6548  -26.9392   22.5411 C   0  0  0  0  0  0  0  0  0117  0  0
  -19.5615  -26.6407   21.5143 C   0  0  0  0  0  0  0  0  0118  0  0
  -18.1797  -26.7818   22.1673 C   0  0  0  0  0  0  0  0  0119  0  0
  -19.1385  -28.8769   23.2988 C   0  0  0  0  0  0  0  0  0120  0  0
  -18.9183  -30.1286   23.8878 C   0  0  0  0  0  0  0  0  0121  0  0
  -17.6396  -30.6493   24.0352 C   0  0  0  0  0  0  0  0  0122  0  0
  -25.9153  -34.9582   23.4993 C   0  0  0  0  0  0  0  0  0123  0  0
  -16.5415  -29.9068   23.6254 C   0  0  0  0  0  0  0  0  0124  0  0
  -16.7331  -28.6521   23.0586 C   0  0  0  0  0  0  0  0  0125  0  0
  -26.4583  -31.6439   25.0683 C   0  0  0  0  0  0  0  0  0126  0  0
  -25.3807  -31.3179   26.1374 C   0  0  0  0  0  0  0  0  0127  0  0
  -27.0530  -30.3024   24.5680 C   0  0  0  0  0  0  0  0  0128  0  0
  -27.6014  -32.4281   25.7651 C   0  0  0  0  0  0  0  0  0129  0  0
  -27.5629  -37.2220   24.8621 C   0  0  0  0  0  0  0  0  0130  0  0
  -21.4133  -29.3375   22.3735 N   0  0  0  0  0  0  0  0  0131  0  0
  -26.4706  -37.3372   23.9061 N   0  0  0  0  0  0  0  0  0132  0  0
  -24.6674  -31.0544   22.1178 N   0  0  0  0  0  0  0  0  0133  0  0
  -23.4259  -28.8150   23.2971 O   0  0  0  0  0  0  0  0  0134  0  0
  -28.3948  -26.7345   20.0089 O   0  0  0  0  0  0  0  0  0135  0  0
  -26.5870  -34.9065   22.4671 O   0  0  0  0  0  0  0  0  0136  0  0
  -23.5365  -32.1254   23.7833 O   0  0  0  0  0  0  0  0  0137  0  0
  -27.0476  -19.2210   20.9346 C   0  0  0  0  0  0  0  0  0  0  0  0
  -28.1433  -22.6005   19.8704 C   0  0  0  0  0  0  0  0  0  0  0  0
  -25.8020  -22.2542   20.7680 C   0  0  0  0  0  0  0  0  0  0  0  0
  -27.6372  -23.7525   19.0064 C   0  0  0  0  0  0  0  0  0  0  0  0
  -25.3035  -23.4080   19.9019 C   0  0  0  0  0  0  0  0  0  0  0  0
  -27.0326  -21.5842   20.1509 C   0  0  2  0  0  0  0  0  0  0  0  0
  -26.4107  -24.4224   19.6212 C   0  0  1  0  0  0  0  0  0  1  0  0
  -27.6954  -18.3419   21.9830 C   0  0  0  0  0  0  0  0  0  0  0  0
  -27.5136  -20.5266   21.0066 N   0  0  0  0  0  0  0  0  0  0  0  0
  -27.7951  -16.9871   21.4875 N   0  0  0  0  0  0  0  0  0  0  0  0
  -26.1903  -18.8175   20.1529 O   0  0  0  0  0  0  0  0  0  0  0  0
  -31.4485  -12.4701   19.0860 H   0  0  0  0  0  0  0  0  0  0  0  0
  -30.3970  -11.2460   19.6950 H   0  0  0  0  0  0  0  0  0  0  0  0
  -29.6870  -11.8204   17.4226 H   0  0  0  0  0  0  0  0  0  0  0  0
  -29.6375  -13.5326   17.8649 H   0  0  0  0  0  0  0  0  0  0  0  0
  -27.7830  -11.3650   18.7904 H   0  0  0  0  0  0  0  0  0  0  0  0
  -27.4028  -12.7801   17.8021 H   0  0  0  0  0  0  0  0  0  0  0  0
  -27.7353  -14.2503   19.6136 H   0  0  0  0  0  0  0  0  0  0  0  0
  -28.5890  -11.9550   21.3832 H   0  0  0  0  0  0  0  0  0  0  0  0
  -28.5005  -13.6134   21.8562 H   0  0  0  0  0  0  0  0  0  0  0  0
  -25.2399   -9.5495   22.4318 H   0  0  0  0  0  0  0  0  0  0  0  0
  -23.9663   -7.5070   22.7297 H   0  0  0  0  0  0  0  0  0  0  0  0
  -21.1515   -8.8641   19.9162 H   0  0  0  0  0  0  0  0  0  0  0  0
  -22.4016  -10.9115   19.6476 H   0  0  0  0  0  0  0  0  0  0  0  0
  -21.2319   -7.5552   23.9750 H   0  0  0  0  0  0  0  0  0  0  0  0
  -21.1589   -6.0228   25.8556 H   0  0  0  0  0  0  0  0  0  0  0  0
  -22.0396   -2.8212   23.2809 H   0  0  0  0  0  0  0  0  0  0  0  0
  -22.4401  -11.9703   22.4008 H   0  0  0  0  0  0  0  0  0  0  0  0
  -21.1493  -13.0679   22.2082 H   0  0  0  0  0  0  0  0  0  0  0  0
  -24.6538  -15.7807   20.5848 H   0  0  0  0  0  0  0  0  0  0  0  0
  -26.2762  -15.5453   20.1156 H   0  0  0  0  0  0  0  0  0  0  0  0
  -26.6778  -32.4663   23.1464 H   0  0  0  0  0  0  0  0  0  0  0  0
  -25.0747  -34.0282   25.0566 H   0  0  0  0  0  0  0  0  0  0  0  0
  -22.7881  -31.3489   21.4131 H   0  0  0  0  0  0  0  0  0  0  0  0
  -23.3854  -35.9823   23.3648 H   0  0  0  0  0  0  0  0  0  0  0  0
  -24.3696  -36.8624   22.2204 H   0  0  0  0  0  0  0  0  0  0  0  0
  -23.7669  -37.6632   23.6516 H   0  0  0  0  0  0  0  0  0  0  0  0
  -25.9445  -31.6237   20.5691 H   0  0  0  0  0  0  0  0  0  0  0  0
  -26.7436  -31.0079   22.0108 H   0  0  0  0  0  0  0  0  0  0  0  0
  -28.0090  -29.1452   21.2057 H   0  0  0  0  0  0  0  0  0  0  0  0
  -26.1369  -26.0560   19.0719 H   0  0  0  0  0  0  0  0  0  0  0  0
  -24.0652  -27.2961   19.0997 H   0  0  0  0  0  0  0  0  0  0  0  0
  -23.6156  -30.5365   19.3930 H   0  0  0  0  0  0  0  0  0  0  0  0
  -22.7355  -29.1425   19.9945 H   0  0  0  0  0  0  0  0  0  0  0  0
  -25.1353  -36.2335   25.0565 H   0  0  0  0  0  0  0  0  0  0  0  0
  -21.0070  -28.3206   24.0793 H   0  0  0  0  0  0  0  0  0  0  0  0
  -20.5555  -26.2518   23.3550 H   0  0  0  0  0  0  0  0  0  0  0  0
  -21.5974  -26.8362   22.0454 H   0  0  0  0  0  0  0  0  0  0  0  0
  -19.6810  -25.6422   21.1488 H   0  0  0  0  0  0  0  0  0  0  0  0
  -19.6406  -27.3343   20.7034 H   0  0  0  0  0  0  0  0  0  0  0  0
  -17.4282  -26.6888   21.4113 H   0  0  0  0  0  0  0  0  0  0  0  0
  -18.0803  -26.0130   22.9049 H   0  0  0  0  0  0  0  0  0  0  0  0
  -19.7265  -30.6774   24.2204 H   0  0  0  0  0  0  0  0  0  0  0  0
  -17.5064  -31.5856   24.4483 H   0  0  0  0  0  0  0  0  0  0  0  0
  -15.5878  -30.2839   23.7407 H   0  0  0  0  0  0  0  0  0  0  0  0
  -15.9120  -28.0941   22.7766 H   0  0  0  0  0  0  0  0  0  0  0  0
  -24.5787  -30.7757   25.6817 H   0  0  0  0  0  0  0  0  0  0  0  0
  -25.0041  -32.2289   26.5536 H   0  0  0  0  0  0  0  0  0  0  0  0
  -25.8166  -30.7245   26.9138 H   0  0  0  0  0  0  0  0  0  0  0  0
  -26.2892  -29.7335   24.0803 H   0  0  0  0  0  0  0  0  0  0  0  0
  -27.4336  -29.7484   25.4006 H   0  0  0  0  0  0  0  0  0  0  0  0
  -27.8466  -30.4994   23.8779 H   0  0  0  0  0  0  0  0  0  0  0  0
  -27.2251  -33.3632   26.1242 H   0  0  0  0  0  0  0  0  0  0  0  0
  -28.3902  -32.6065   25.0645 H   0  0  0  0  0  0  0  0  0  0  0  0
  -27.9772  -31.8555   26.5872 H   0  0  0  0  0  0  0  0  0  0  0  0
  -28.2744  -38.0016   24.6863 H   0  0  0  0  0  0  0  0  0  0  0  0
  -28.0396  -36.2711   24.7461 H   0  0  0  0  0  0  0  0  0  0  0  0
  -27.1773  -37.3087   25.8564 H   0  0  0  0  0  0  0  0  0  0  0  0
  -20.9627  -29.9365   21.7352 H   0  0  0  0  0  0  0  0  0  0  0  0
  -26.0447  -38.2561   24.0273 H   0  0  0  0  0  0  0  0  0  0  0  0
  -28.4995  -22.9927   20.8000 H   0  0  0  0  0  0  0  0  0  0  0  0
  -28.9300  -22.1032   19.3424 H   0  0  0  0  0  0  0  0  0  0  0  0
  -25.0217  -21.5284   20.8639 H   0  0  0  0  0  0  0  0  0  0  0  0
  -26.0760  -22.6455   21.7254 H   0  0  0  0  0  0  0  0  0  0  0  0
  -27.3775  -23.3733   18.0402 H   0  0  0  0  0  0  0  0  0  0  0  0
  -28.4157  -24.4830   18.9348 H   0  0  0  0  0  0  0  0  0  0  0  0
  -24.5015  -23.9016   20.4098 H   0  0  0  0  0  0  0  0  0  0  0  0
  -24.9747  -23.0054   18.9666 H   0  0  0  0  0  0  0  0  0  0  0  0
  -26.7388  -21.1596   19.2137 H   0  0  0  0  0  0  0  0  0  0  0  0
  -25.4535  -24.8847   19.7437 H   0  0  0  0  0  0  0  0  0  0  0  0
  -27.1013  -18.3526   22.8729 H   0  0  0  0  0  0  0  0  0  0  0  0
  -28.6750  -18.7129   22.2011 H   0  0  0  0  0  0  0  0  0  0  0  0
  -28.2054  -20.7412   21.6734 H   0  0  0  0  0  0  0  0  0  0  0  0
  -26.9082  -16.6022   21.3017 H   0  0  0  0  0  0  0  0  0  0  0  0
  1 25  1  0
  1 30  2  0
  1 80  1  0
  2  3  1  0
  2 25  1  0
  2 82  1  0
  2 83  1  0
  3  4  1  0
  3 84  1  0
  3 85  1  0
  4  5  1  0
  4 86  1  0
  4 87  1  0
  5  6  1  0
  5 26  1  0
  5 88  1  6
  6 25  1  0
  6 89  1  0
  6 90  1  0
  7  8  2  0
  7 26  1  0
  7 29  1  0
  8  9  1  0
  8 22  1  0
  9 10  1  0
  9 27  2  0
 10 11  2  0
 10 15  1  0
 11 12  1  0
 11 91  1  0
 12 13  2  0
 12 92  1  0
 13 14  1  0
 13 31  1  0
 14 15  2  0
 14 93  1  0
 15 94  1  0
 16 17  2  0
 16 21  1  0
 16 31  1  0
 17 18  1  0
 17 95  1  0
 18 19  2  0
 18 96  1  0
 19 20  1  0
 19 24  1  0
 20 21  2  0
 20 97  1  0
 21 23  1  0
 22 28  1  0
 22 32  2  0
 26 27  1  0
 28 98  1  0
 28 99  1  0
 29100  1  0
 29101  1  0
 33 34  1  0
 33 66  1  0
 33 70  2  0
 34 36  1  0
 34 59  1  0
 34102  1  6
 35 44  2  0
 35 45  1  0
 35 68  1  0
 36 56  1  0
 36103  1  0
 37 39  1  0
 37 47  1  0
 37 66  1  0
 37104  1  6
 38 43  2  0
 38 46  1  0
 38 47  1  0
 39 64  1  0
 39 67  2  0
 40 52  1  0
 40 53  2  0
 40 58  1  0
 41105  1  0
 41106  1  0
 41107  1  0
 42 43  1  0
 42 66  1  0
 42108  1  0
 42109  1  0
 43 44  1  0
 44110  1  0
 45 46  2  0
 45111  1  0
 46112  1  0
 47113  1  0
 47114  1  0
 48 41  1  0
 48 56  1  0
 48 65  1  0
 48115  1  1
 49 50  1  0
 49 53  1  0
 49 64  1  0
 49116  1  1
 50 51  1  0
 50117  1  0
 50118  1  0
 51 52  1  0
 51119  1  0
 51120  1  0
 52121  1  0
 52122  1  0
 53 54  1  0
 54 55  2  0
 54123  1  0
 55 57  1  0
 55124  1  0
 56 69  2  0
 57 58  2  0
 57125  1  0
 58126  1  0
 59 60  1  0
 59 61  1  0
 59 62  1  0
 60127  1  0
 60128  1  0
 60129  1  0
 61130  1  0
 61131  1  0
 61132  1  0
 62133  1  0
 62134  1  0
 62135  1  0
 63 65  1  0
 63136  1  0
 63137  1  0
 63138  1  0
 64139  1  0
 65140  1  0
 71 78  1  0
 71 79  1  0
 71 81  2  0
 72 74  1  0
 72 76  1  0
 72141  1  0
 72142  1  0
 73 75  1  0
 73 76  1  0
 73143  1  0
 73144  1  0
 74 77  1  0
 74145  1  0
 74146  1  0
 75 77  1  0
 75147  1  0
 75148  1  0
 76 79  1  0
 76149  1  6
 77 68  1  0
 77150  1  6
 78 80  1  0
 78151  1  0
 78152  1  0
 79153  1  0
 80154  1  0
M  ISO  4   1 100  68 101  77 101  80 100
M  END
$$$$
62
     RDKit          3D

171180  0  0  0  0  0  0  0  0999 V2000
  -30.7652  -14.3608   20.6636 C   0  0  0  0  0  0  0  0  0100  0  0
  -30.4392  -12.2669   19.3775 C   0  0  0  0  0  0  0  0  0101  0  0
  -29.4791  -12.5281   18.1977 C   0  0  0  0  0  0  0  0  0102  0  0
  -27.9985  -12.3963   18.6038 C   0  0  0  0  0  0  0  0  0103  0  0
  -27.6639  -13.2170   19.8820 C   0  0  2  0  0  0  0  0  0104  0  0
  -28.6795  -12.9602   21.0279 C   0  0  0  0  0  0  0  0  0105  0  0
  -25.2633  -13.8245   20.5754 C   0  0  0  0  0  0  0  0  0106  0  0
  -24.1645  -13.0409   20.9408 C   0  0  0  0  0  0  0  0  0107  0  0
  -24.6400  -11.7009   20.8697 C   0  0  0  0  0  0  0  0  0108  0  0
  -23.9005  -10.4085   21.0420 C   0  0  0  0  0  0  0  0  0109  0  0
  -24.3588   -9.4123   21.9123 C   0  0  0  0  0  0  0  0  0110  0  0
  -23.6296   -8.2350   22.0803 C   0  0  0  0  0  0  0  0  0111  0  0
  -22.4385   -8.0419   21.3657 C   0  0  0  0  0  0  0  0  0112  0  0
  -22.0103   -9.0167   20.4678 C   0  0  0  0  0  0  0  0  0113  0  0
  -22.7317  -10.1925   20.3102 C   0  0  0  0  0  0  0  0  0114  0  0
  -21.6857   -6.0709   22.5391 C   0  0  0  0  0  0  0  0  0115  0  0
  -21.4064   -6.5490   23.8264 C   0  0  0  0  0  0  0  0  0116  0  0
  -21.3635   -5.6677   24.9085 C   0  0  0  0  0  0  0  0  0117  0  0
  -21.5973   -4.3067   24.7088 C   0  0  0  0  0  0  0  0  0118  0  0
  -21.8700   -3.8284   23.4282 C   0  0  0  0  0  0  0  0  0119  0  0
  -21.9144   -4.7056   22.3460 C   0  0  0  0  0  0  0  0  0120  0  0
  -22.8194  -13.5263   21.1763 C   0  0  0  0  0  0  0  0  0121  0  0
  -22.1559   -4.2206   21.1063 F   0  0  0  0  0  0  0  0  0122  0  0
  -21.5628   -3.4510   25.7555 F   0  0  0  0  0  0  0  0  0123  0  0
  -30.0261  -13.1803   20.4553 N   0  0  0  0  0  0  0  0  0124  0  0
  -26.2911  -12.9356   20.3443 N   0  0  0  0  0  0  0  0  0125  0  0
  -25.9236  -11.6675   20.5847 N   0  0  0  0  0  0  0  0  0126  0  0
  -22.0708  -12.7905   22.0005 N   0  0  0  0  0  0  0  0  0127  0  0
  -25.4117  -15.1773   20.4097 N   0  0  0  0  0  0  0  0  0128  0  0
  -31.7916  -14.6724   20.0536 O   0  0  0  0  0  0  0  0  0129  0  0
  -21.6670   -6.9022   21.4423 O   0  0  0  0  0  0  0  0  0130  0  0
  -22.3946  -14.5564   20.6568 O   0  0  0  0  0  0  0  0  0131  0  0
  -24.6048  -31.8614   23.2223 C   0  0  0  0  0  0  0  0  0100  0  0
  -25.8822  -32.4841   23.8616 C   0  0  1  0  0  0  0  0  0101  0  0
  -27.2536  -27.5042   20.1156 C   0  0  0  0  0  0  0  0  0102  0  0
  -25.5726  -33.8762   24.2210 N   0  0  0  0  0  0  0  0  0103  0  0
  -23.4066  -30.4859   21.5461 C   0  0  2  0  0  0  0  0  0104  0  0
  -24.8467  -28.9636   20.1247 C   0  0  0  0  0  0  0  0  0105  0  0
  -22.7412  -29.4652   22.5052 C   0  0  0  0  0  0  0  0  0106  0  0
  -18.0167  -28.1302   22.8626 C   0  0  0  0  0  0  0  0  0107  0  0
  -24.1342  -36.7390   23.2568 C   0  0  0  0  0  0  0  0  0108  0  0
  -25.9141  -30.8882   21.3456 C   0  0  0  0  0  0  0  0  0109  0  0
  -25.9930  -29.5029   20.7208 C   0  0  0  0  0  0  0  0  0110  0  0
  -27.1758  -28.7612   20.7331 C   0  0  0  0  0  0  0  0  0111  0  0
  -26.1032  -26.9836   19.5230 C   0  0  0  0  0  0  0  0  0112  0  0
  -24.9097  -27.7011   19.5331 C   0  0  0  0  0  0  0  0  0113  0  0
  -23.5715  -29.7899   20.1582 C   0  0  0  0  0  0  0  0  0114  0  0
  -25.3990  -36.3212   24.0232 C   0  0  1  0  0  0  0  0  0115  0  0
  -20.5793  -28.3813   23.1004 C   0  0  2  0  0  0  0  0  0116  0  0
  -20.6548  -26.9392   22.5411 C   0  0  0  0  0  0  0  0  0117  0  0
  -19.5615  -26.6407   21.5143 C   0  0  0  0  0  0  0  0  0118  0  0
  -18.1797  -26.7818   22.1673 C   0  0  0  0  0  0  0  0  0119  0  0
  -19.1385  -28.8769   23.2988 C   0  0  0  0  0  0  0  0  0120  0  0
  -18.9183  -30.1286   23.8878 C   0  0  0  0  0  0  0  0  0121  0  0
  -17.6396  -30.6493   24.0352 C   0  0  0  0  0  0  0  0  0122  0  0
  -25.9153  -34.9582   23.4993 C   0  0  0  0  0  0  0  0  0123  0  0
  -16.5415  -29.9068   23.6254 C   0  0  0  0  0  0  0  0  0124  0  0
  -16.7331  -28.6521   23.0586 C   0  0  0  0  0  0  0  0  0125  0  0
  -26.4583  -31.6439   25.0683 C   0  0  0  0  0  0  0  0  0126  0  0
  -25.3807  -31.3179   26.1374 C   0  0  0  0  0  0  0  0  0127  0  0
  -27.0530  -30.3024   24.5680 C   0  0  0  0  0  0  0  0  0128  0  0
  -27.6014  -32.4281   25.7651 C   0  0  0  0  0  0  0  0  0129  0  0
  -27.5629  -37.2220   24.8621 C   0  0  0  0  0  0  0  0  0130  0  0
  -21.4133  -29.3375   22.3735 N   0  0  0  0  0  0  0  0  0131  0  0
  -26.4706  -37.3372   23.9061 N   0  0  0  0  0  0  0  0  0132  0  0
  -24.6674  -31.0544   22.1178 N   0  0  0  0  0  0  0  0  0133  0  0
  -23.4259  -28.8150   23.2971 O   0  0  0  0  0  0  0  0  0134  0  0
  -28.3948  -26.7345   20.0089 O   0  0  0  0  0  0  0  0  0135  0  0
  -26.5870  -34.9065   22.4671 O   0  0  0  0  0  0  0  0  0136  0  0
  -23.5365  -32.1254   23.7833 O   0  0  0  0  0  0  0  0  0137  0  0
  -23.5398  -18.4022   15.6566 C   0  0  0  0  0  0  0  0  0  0  0  0
  -26.8748  -19.0390   18.0032 C   0  0  0  0  0  0  0  0  0  0  0  0
  -23.2754  -17.0962   16.0055 C   0  0  0  0  0  0  0  0  0  0  0  0
  -24.6857  -18.8074   16.3843 C   0  0  0  0  0  0  0  0  0  0  0  0
  -25.0944  -17.7275   17.1645 C   0  0  0  0  0  0  0  0  0  0  0  0
  -26.2073  -17.8182   17.9991 C   0  0  0  0  0  0  0  0  0  0  0  0
  -26.4042  -20.0665   17.1969 C   0  0  0  0  0  0  0  0  0  0  0  0
  -23.7815  -13.5712   15.0206 C   0  0  0  0  0  0  0  0  0  0  0  0
  -27.1385  -21.3835   17.2125 C   0  0  0  0  0  0  0  0  0  0  0  0
  -26.6193  -22.3694   18.2651 C   0  0  0  0  0  0  0  0  0  0  0  0
  -27.3242  -23.7256   18.2142 C   0  0  0  0  0  0  0  0  0  0  0  0
  -25.2807  -14.4356   16.8623 C   0  0  0  0  0  0  0  0  0  0  0  0
  -24.2578  -15.3780   17.5088 C   0  0  0  0  0  0  0  0  0  0  0  0
  -26.8107  -24.6635   19.2983 C   0  0  0  0  0  0  0  0  0  1  0  0
  -25.1177  -14.2242   15.3517 C   0  0  1  0  0  0  0  0  0  0  0  0
  -25.3284  -20.0032   16.3799 N   0  0  0  0  0  0  0  0  0  0  0  0
  -24.2198  -16.6979   16.9167 N   0  0  0  0  0  0  0  0  0  0  0  0
  -26.6620  -16.7495   18.8108 N   0  0  0  0  0  0  0  0  0  0  0  0
  -26.1990  -13.3334   14.8462 N   0  0  0  0  0  0  0  0  0  0  0  0
  -31.4485  -12.4701   19.0860 H   0  0  0  0  0  0  0  0  0  0  0  0
  -30.3970  -11.2460   19.6950 H   0  0  0  0  0  0  0  0  0  0  0  0
  -29.6870  -11.8204   17.4226 H   0  0  0  0  0  0  0  0  0  0  0  0
  -29.6375  -13.5326   17.8649 H   0  0  0  0  0  0  0  0  0  0  0  0
  -27.7830  -11.3650   18.7904 H   0  0  0  0  0  0  0  0  0  0  0  0
  -27.4028  -12.7801   17.8021 H   0  0  0  0  0  0  0  0  0  0  0  0
  -27.7353  -14.2503   19.6136 H   0  0  0  0  0  0  0  0  0  0  0  0
  -28.5890  -11.9550   21.3832 H   0  0  0  0  0  0  0  0  0  0  0  0
  -28.5005  -13.6134   21.8562 H   0  0  0  0  0  0  0  0  0  0  0  0
  -25.2399   -9.5495   22.4318 H   0  0  0  0  0  0  0  0  0  0  0  0
  -23.9663   -7.5070   22.7297 H   0  0  0  0  0  0  0  0  0  0  0  0
  -21.1515   -8.8641   19.9162 H   0  0  0  0  0  0  0  0  0  0  0  0
  -22.4016  -10.9115   19.6476 H   0  0  0  0  0  0  0  0  0  0  0  0
  -21.2319   -7.5552   23.9750 H   0  0  0  0  0  0  0  0  0  0  0  0
  -21.1589   -6.0228   25.8556 H   0  0  0  0  0  0  0  0  0  0  0  0
  -22.0396   -2.8212   23.2809 H   0  0  0  0  0  0  0  0  0  0  0  0
  -22.4401  -11.9703   22.4008 H   0  0  0  0  0  0  0  0  0  0  0  0
  -21.1493  -13.0679   22.2082 H   0  0  0  0  0  0  0  0  0  0  0  0
  -24.6538  -15.7807   20.5848 H   0  0  0  0  0  0  0  0  0  0  0  0
  -26.2762  -15.5453   20.1156 H   0  0  0  0  0  0  0  0  0  0  0  0
  -26.6778  -32.4663   23.1464 H   0  0  0  0  0  0  0  0  0  0  0  0
  -25.0747  -34.0282   25.0566 H   0  0  0  0  0  0  0  0  0  0  0  0
  -22.7881  -31.3489   21.4131 H   0  0  0  0  0  0  0  0  0  0  0  0
  -23.3854  -35.9823   23.3648 H   0  0  0  0  0  0  0  0  0  0  0  0
  -24.3696  -36.8624   22.2204 H   0  0  0  0  0  0  0  0  0  0  0  0
  -23.7669  -37.6632   23.6516 H   0  0  0  0  0  0  0  0  0  0  0  0
  -25.9445  -31.6237   20.5691 H   0  0  0  0  0  0  0  0  0  0  0  0
  -26.7436  -31.0079   22.0108 H   0  0  0  0  0  0  0  0  0  0  0  0
  -28.0090  -29.1452   21.2057 H   0  0  0  0  0  0  0  0  0  0  0  0
  -26.1369  -26.0560   19.0719 H   0  0  0  0  0  0  0  0  0  0  0  0
  -24.0652  -27.2961   19.0997 H   0  0  0  0  0  0  0  0  0  0  0  0
  -23.6156  -30.5365   19.3930 H   0  0  0  0  0  0  0  0  0  0  0  0
  -22.7355  -29.1425   19.9945 H   0  0  0  0  0  0  0  0  0  0  0  0
  -25.1353  -36.2335   25.0565 H   0  0  0  0  0  0  0  0  0  0  0  0
  -21.0070  -28.3206   24.0793 H   0  0  0  0  0  0  0  0  0  0  0  0
  -20.5555  -26.2518   23.3550 H   0  0  0  0  0  0  0  0  0  0  0  0
  -21.5974  -26.8362   22.0454 H   0  0  0  0  0  0  0  0  0  0  0  0
  -19.6810  -25.6422   21.1488 H   0  0  0  0  0  0  0  0  0  0  0  0
  -19.6406  -27.3343   20.7034 H   0  0  0  0  0  0  0  0  0  0  0  0
  -17.4282  -26.6888   21.4113 H   0  0  0  0  0  0  0  0  0  0  0  0
  -18.0803  -26.0130   22.9049 H   0  0  0  0  0  0  0  0  0  0  0  0
  -19.7265  -30.6774   24.2204 H   0  0  0  0  0  0  0  0  0  0  0  0
  -17.5064  -31.5856   24.4483 H   0  0  0  0  0  0  0  0  0  0  0  0
  -15.5878  -30.2839   23.7407 H   0  0  0  0  0  0  0  0  0  0  0  0
  -15.9120  -28.0941   22.7766 H   0  0  0  0  0  0  0  0  0  0  0  0
  -24.5787  -30.7757   25.6817 H   0  0  0  0  0  0  0  0  0  0  0  0
  -25.0041  -32.2289   26.5536 H   0  0  0  0  0  0  0  0  0  0  0  0
  -25.8166  -30.7245   26.9138 H   0  0  0  0  0  0  0  0  0  0  0  0
  -26.2892  -29.7335   24.0803 H   0  0  0  0  0  0  0  0  0  0  0  0
  -27.4336  -29.7484   25.4006 H   0  0  0  0  0  0  0  0  0  0  0  0
  -27.8466  -30.4994   23.8779 H   0  0  0  0  0  0  0  0  0  0  0  0
  -27.2251  -33.3632   26.1242 H   0  0  0  0  0  0  0  0  0  0  0  0
  -28.3902  -32.6065   25.0645 H   0  0  0  0  0  0  0  0  0  0  0  0
  -27.9772  -31.8555   26.5872 H   0  0  0  0  0  0  0  0  0  0  0  0
  -28.2744  -38.0016   24.6863 H   0  0  0  0  0  0  0  0  0  0  0  0
  -28.0396  -36.2711   24.7461 H   0  0  0  0  0  0  0  0  0  0  0  0
  -27.1773  -37.3087   25.8564 H   0  0  0  0  0  0  0  0  0  0  0  0
  -20.9627  -29.9365   21.7352 H   0  0  0  0  0  0  0  0  0  0  0  0
  -26.0447  -38.2561   24.0273 H   0  0  0  0  0  0  0  0  0  0  0  0
  -23.0031  -18.9782   14.9894 H   0  0  0  0  0  0  0  0  0  0  0  0
  -27.7074  -19.1786   18.5968 H   0  0  0  0  0  0  0  0  0  0  0  0
  -22.5010  -16.5178   15.6439 H   0  0  0  0  0  0  0  0  0  0  0  0
  -22.9842  -14.1915   15.3734 H   0  0  0  0  0  0  0  0  0  0  0  0
  -23.7252  -12.6137   15.4950 H   0  0  0  0  0  0  0  0  0  0  0  0
  -23.6967  -13.4498   13.9609 H   0  0  0  0  0  0  0  0  0  0  0  0
  -27.0392  -21.8364   16.2482 H   0  0  0  0  0  0  0  0  0  0  0  0
  -28.1568  -21.1694   17.4618 H   0  0  0  0  0  0  0  0  0  0  0  0
  -26.7700  -21.9432   19.2349 H   0  0  0  0  0  0  0  0  0  0  0  0
  -25.5831  -22.5399   18.0598 H   0  0  0  0  0  0  0  0  0  0  0  0
  -27.1502  -24.1720   17.2575 H   0  0  0  0  0  0  0  0  0  0  0  0
  -28.3698  -23.5663   18.3763 H   0  0  0  0  0  0  0  0  0  0  0  0
  -25.1986  -13.4816   17.3399 H   0  0  0  0  0  0  0  0  0  0  0  0
  -26.2350  -14.9015   16.9935 H   0  0  0  0  0  0  0  0  0  0  0  0
  -24.5026  -15.4808   18.5453 H   0  0  0  0  0  0  0  0  0  0  0  0
  -23.2931  -14.9412   17.3556 H   0  0  0  0  0  0  0  0  0  0  0  0
  -26.6388  -24.0757   20.1757 H   0  0  0  0  0  0  0  0  0  0  0  0
  -25.9400  -25.1190   18.8748 H   0  0  0  0  0  0  0  0  0  0  0  0
  -25.1662  -15.1873   14.8879 H   0  0  0  0  0  0  0  0  0  0  0  0
  -25.8673  -16.2808   19.1544 H   0  0  0  0  0  0  0  0  0  0  0  0
  -26.1312  -12.4237   15.3025 H   0  0  0  0  0  0  0  0  0  0  0  0
  -27.1069  -13.7502   15.0520 H   0  0  0  0  0  0  0  0  0  0  0  0
  -26.0994  -13.2162   13.8379 H   0  0  0  0  0  0  0  0  0  0  0  0
  1 25  1  0
  1 30  2  0
  1 88  1  0
  2  3  1  0
  2 25  1  0
  2 90  1  0
  2 91  1  0
  3  4  1  0
  3 92  1  0
  3 93  1  0
  4  5  1  0
  4 94  1  0
  4 95  1  0
  5  6  1  0
  5 26  1  0
  5 96  1  6
  6 25  1  0
  6 97  1  0
  6 98  1  0
  7  8  2  0
  7 26  1  0
  7 29  1  0
  8  9  1  0
  8 22  1  0
  9 10  1  0
  9 27  2  0
 10 11  2  0
 10 15  1  0
 11 12  1  0
 11 99  1  0
 12 13  2  0
 12100  1  0
 13 14  1  0
 13 31  1  0
 14 15  2  0
 14101  1  0
 15102  1  0
 16 17  2  0
 16 21  1  0
 16 31  1  0
 17 18  1  0
 17103  1  0
 18 19  2  0
 18104  1  0
 19 20  1  0
 19 24  1  0
 20 21  2  0
 20105  1  0
 21 23  1  0
 22 28  1  0
 22 32  2  0
 26 27  1  0
 28106  1  0
 28107  1  0
 29108  1  0
 29109  1  0
 33 34  1  0
 33 66  1  0
 33 70  2  0
 34 36  1  0
 34 59  1  0
 34110  1  6
 35 44  2  0
 35 45  1  0
 35 68  1  0
 36 56  1  0
 36111  1  0
 37 39  1  0
 37 47  1  0
 37 66  1  0
 37112  1  6
 38 43  2  0
 38 46  1  0
 38 47  1  0
 39 64  1  0
 39 67  2  0
 40 52  1  0
 40 53  2  0
 40 58  1  0
 41113  1  0
 41114  1  0
 41115  1  0
 42 43  1  0
 42 66  1  0
 42116  1  0
 42117  1  0
 43 44  1  0
 44118  1  0
 45 46  2  0
 45119  1  0
 46120  1  0
 47121  1  0
 47122  1  0
 48 41  1  0
 48 56  1  0
 48 65  1  0
 48123  1  1
 49 50  1  0
 49 53  1  0
 49 64  1  0
 49124  1  1
 50 51  1  0
 50125  1  0
 50126  1  0
 51 52  1  0
 51127  1  0
 51128  1  0
 52129  1  0
 52130  1  0
 53 54  1  0
 54 55  2  0
 54131  1  0
 55 57  1  0
 55132  1  0
 56 69  2  0
 57 58  2  0
 57133  1  0
 58134  1  0
 59 60  1  0
 59 61  1  0
 59 62  1  0
 60135  1  0
 60136  1  0
 60137  1  0
 61138  1  0
 61139  1  0
 61140  1  0
 62141  1  0
 62142  1  0
 62143  1  0
 63 65  1  0
 63144  1  0
 63145  1  0
 63146  1  0
 64147  1  0
 65148  1  0
 68 84  1  0
 71 73  2  0
 71 74  1  0
 71149  1  0
 72 76  2  0
 72 77  1  0
 72150  1  0
 73 87  1  0
 73151  1  0
 74 75  2  0
 74 86  1  0
 75 76  1  0
 75 87  1  0
 76 88  1  0
 77 79  1  0
 77 86  2  0
 78152  1  0
 78153  1  0
 78154  1  0
 79 80  1  0
 79155  1  0
 79156  1  0
 80 81  1  0
 80157  1  0
 80158  1  0
 81 84  1  0
 81159  1  0
 81160  1  0
 82 83  1  0
 82 85  1  0
 82161  1  0
 82162  1  0
 83 87  1  0
 83163  1  0
 83164  1  0
 84165  1  0
 84166  1  0
 85 78  1  0
 85 89  1  0
 85167  1  6
 88168  1  0
 89169  1  0
 89170  1  0
 89171  1  0
M  CHG  1  89   1
M  ISO  4   1 100  68 101  84 101  88 100
M  END
$$$$
63
     RDKit          3D

164173  0  0  0  0  0  0  0  0999 V2000
  -30.7652  -14.3608   20.6636 C   0  0  0  0  0  0  0  0  0100  0  0
  -30.4392  -12.2669   19.3775 C   0  0  0  0  0  0  0  0  0101  0  0
  -29.4791  -12.5281   18.1977 C   0  0  0  0  0  0  0  0  0102  0  0
  -27.9985  -12.3963   18.6038 C   0  0  0  0  0  0  0  0  0103  0  0
  -27.6639  -13.2170   19.8820 C   0  0  2  0  0  0  0  0  0104  0  0
  -28.6795  -12.9602   21.0279 C   0  0  0  0  0  0  0  0  0105  0  0
  -25.2633  -13.8245   20.5754 C   0  0  0  0  0  0  0  0  0106  0  0
  -24.1645  -13.0409   20.9408 C   0  0  0  0  0  0  0  0  0107  0  0
  -24.6400  -11.7009   20.8697 C   0  0  0  0  0  0  0  0  0108  0  0
  -23.9005  -10.4085   21.0420 C   0  0  0  0  0  0  0  0  0109  0  0
  -24.3588   -9.4123   21.9123 C   0  0  0  0  0  0  0  0  0110  0  0
  -23.6296   -8.2350   22.0803 C   0  0  0  0  0  0  0  0  0111  0  0
  -22.4385   -8.0419   21.3657 C   0  0  0  0  0  0  0  0  0112  0  0
  -22.0103   -9.0167   20.4678 C   0  0  0  0  0  0  0  0  0113  0  0
  -22.7317  -10.1925   20.3102 C   0  0  0  0  0  0  0  0  0114  0  0
  -21.6857   -6.0709   22.5391 C   0  0  0  0  0  0  0  0  0115  0  0
  -21.4064   -6.5490   23.8264 C   0  0  0  0  0  0  0  0  0116  0  0
  -21.3635   -5.6677   24.9085 C   0  0  0  0  0  0  0  0  0117  0  0
  -21.5973   -4.3067   24.7088 C   0  0  0  0  0  0  0  0  0118  0  0
  -21.8700   -3.8284   23.4282 C   0  0  0  0  0  0  0  0  0119  0  0
  -21.9144   -4.7056   22.3460 C   0  0  0  0  0  0  0  0  0120  0  0
  -22.8194  -13.5263   21.1763 C   0  0  0  0  0  0  0  0  0121  0  0
  -22.1559   -4.2206   21.1063 F   0  0  0  0  0  0  0  0  0122  0  0
  -21.5628   -3.4510   25.7555 F   0  0  0  0  0  0  0  0  0123  0  0
  -30.0261  -13.1803   20.4553 N   0  0  0  0  0  0  0  0  0124  0  0
  -26.2911  -12.9356   20.3443 N   0  0  0  0  0  0  0  0  0125  0  0
  -25.9236  -11.6675   20.5847 N   0  0  0  0  0  0  0  0  0126  0  0
  -22.0708  -12.7905   22.0005 N   0  0  0  0  0  0  0  0  0127  0  0
  -25.4117  -15.1773   20.4097 N   0  0  0  0  0  0  0  0  0128  0  0
  -31.7916  -14.6724   20.0536 O   0  0  0  0  0  0  0  0  0129  0  0
  -21.6670   -6.9022   21.4423 O   0  0  0  0  0  0  0  0  0130  0  0
  -22.3946  -14.5564   20.6568 O   0  0  0  0  0  0  0  0  0131  0  0
  -24.6048  -31.8614   23.2223 C   0  0  0  0  0  0  0  0  0100  0  0
  -25.8822  -32.4841   23.8616 C   0  0  1  0  0  0  0  0  0101  0  0
  -27.2536  -27.5042   20.1156 C   0  0  0  0  0  0  0  0  0102  0  0
  -25.5726  -33.8762   24.2210 N   0  0  0  0  0  0  0  0  0103  0  0
  -23.4066  -30.4859   21.5461 C   0  0  2  0  0  0  0  0  0104  0  0
  -24.8467  -28.9636   20.1247 C   0  0  0  0  0  0  0  0  0105  0  0
  -22.7412  -29.4652   22.5052 C   0  0  0  0  0  0  0  0  0106  0  0
  -18.0167  -28.1302   22.8626 C   0  0  0  0  0  0  0  0  0107  0  0
  -24.1342  -36.7390   23.2568 C   0  0  0  0  0  0  0  0  0108  0  0
  -25.9141  -30.8882   21.3456 C   0  0  0  0  0  0  0  0  0109  0  0
  -25.9930  -29.5029   20.7208 C   0  0  0  0  0  0  0  0  0110  0  0
  -27.1758  -28.7612   20.7331 C   0  0  0  0  0  0  0  0  0111  0  0
  -26.1032  -26.9836   19.5230 C   0  0  0  0  0  0  0  0  0112  0  0
  -24.9097  -27.7011   19.5331 C   0  0  0  0  0  0  0  0  0113  0  0
  -23.5715  -29.7899   20.1582 C   0  0  0  0  0  0  0  0  0114  0  0
  -25.3990  -36.3212   24.0232 C   0  0  1  0  0  0  0  0  0115  0  0
  -20.5793  -28.3813   23.1004 C   0  0  2  0  0  0  0  0  0116  0  0
  -20.6548  -26.9392   22.5411 C   0  0  0  0  0  0  0  0  0117  0  0
  -19.5615  -26.6407   21.5143 C   0  0  0  0  0  0  0  0  0118  0  0
  -18.1797  -26.7818   22.1673 C   0  0  0  0  0  0  0  0  0119  0  0
  -19.1385  -28.8769   23.2988 C   0  0  0  0  0  0  0  0  0120  0  0
  -18.9183  -30.1286   23.8878 C   0  0  0  0  0  0  0  0  0121  0  0
  -17.6396  -30.6493   24.0352 C   0  0  0  0  0  0  0  0  0122  0  0
  -25.9153  -34.9582   23.4993 C   0  0  0  0  0  0  0  0  0123  0  0
  -16.5415  -29.9068   23.6254 C   0  0  0  0  0  0  0  0  0124  0  0
  -16.7331  -28.6521   23.0586 C   0  0  0  0  0  0  0  0  0125  0  0
  -26.4583  -31.6439   25.0683 C   0  0  0  0  0  0  0  0  0126  0  0
  -25.3807  -31.3179   26.1374 C   0  0  0  0  0  0  0  0  0127  0  0
  -27.0530  -30.3024   24.5680 C   0  0  0  0  0  0  0  0  0128  0  0
  -27.6014  -32.4281   25.7651 C   0  0  0  0  0  0  0  0  0129  0  0
  -27.5629  -37.2220   24.8621 C   0  0  0  0  0  0  0  0  0130  0  0
  -21.4133  -29.3375   22.3735 N   0  0  0  0  0  0  0  0  0131  0  0
  -26.4706  -37.3372   23.9061 N   0  0  0  0  0  0  0  0  0132  0  0
  -24.6674  -31.0544   22.1178 N   0  0  0  0  0  0  0  0  0133  0  0
  -23.4259  -28.8150   23.2971 O   0  0  0  0  0  0  0  0  0134  0  0
  -28.3948  -26.7345   20.0089 O   0  0  0  0  0  0  0  0  0135  0  0
  -26.5870  -34.9065   22.4671 O   0  0  0  0  0  0  0  0  0136  0  0
  -23.5365  -32.1254   23.7833 O   0  0  0  0  0  0  0  0  0137  0  0
  -28.9464  -18.7170   21.8587 C   0  0  0  0  0  0  0  0  0  0  0  0
  -29.7271  -19.9145   20.1191 C   0  0  0  0  0  0  0  0  0  0  0  0
  -28.7096  -19.8527   21.0455 C   0  0  0  0  0  0  0  0  0  0  0  0
  -30.1015  -18.1195   21.4045 C   0  0  0  0  0  0  0  0  0  0  0  0
  -35.4251  -19.1592   20.2971 C   0  0  0  0  0  0  0  0  0  0  0  0
  -34.8343  -20.5477   20.5485 C   0  0  0  0  0  0  0  0  0  0  0  0
  -34.2791  -18.2993   19.7729 C   0  0  0  0  0  0  0  0  0  0  0  0
  -33.3658  -20.4611   20.1458 C   0  0  0  0  0  0  0  0  0  0  0  0
  -33.0259  -18.9832   20.3105 C   0  0  0  0  0  0  0  0  0  0  0  0
  -26.3471  -20.3802   20.3502 C   0  0  0  0  0  0  0  0  0  0  0  0
  -30.7974  -16.9101   21.8904 C   0  0  0  0  0  0  0  0  0  0  0  0
  -31.7598  -18.5748   19.5780 C   0  0  0  0  0  0  0  0  0  0  0  0
  -27.5539  -20.8189   21.1700 C   0  0  2  0  0  0  0  0  0  1  0  0
  -30.5674  -18.8562   20.3471 N   0  0  0  0  0  0  0  0  0  0  0  0
  -30.1354  -15.6857   21.4988 N   0  0  0  0  0  0  0  0  0  0  0  0
  -31.4485  -12.4701   19.0860 H   0  0  0  0  0  0  0  0  0  0  0  0
  -30.3970  -11.2460   19.6950 H   0  0  0  0  0  0  0  0  0  0  0  0
  -29.6870  -11.8204   17.4226 H   0  0  0  0  0  0  0  0  0  0  0  0
  -29.6375  -13.5326   17.8649 H   0  0  0  0  0  0  0  0  0  0  0  0
  -27.7830  -11.3650   18.7904 H   0  0  0  0  0  0  0  0  0  0  0  0
  -27.4028  -12.7801   17.8021 H   0  0  0  0  0  0  0  0  0  0  0  0
  -27.7353  -14.2503   19.6136 H   0  0  0  0  0  0  0  0  0  0  0  0
  -28.5890  -11.9550   21.3832 H   0  0  0  0  0  0  0  0  0  0  0  0
  -28.5005  -13.6134   21.8562 H   0  0  0  0  0  0  0  0  0  0  0  0
  -25.2399   -9.5495   22.4318 H   0  0  0  0  0  0  0  0  0  0  0  0
  -23.9663   -7.5070   22.7297 H   0  0  0  0  0  0  0  0  0  0  0  0
  -21.1515   -8.8641   19.9162 H   0  0  0  0  0  0  0  0  0  0  0  0
  -22.4016  -10.9115   19.6476 H   0  0  0  0  0  0  0  0  0  0  0  0
  -21.2319   -7.5552   23.9750 H   0  0  0  0  0  0  0  0  0  0  0  0
  -21.1589   -6.0228   25.8556 H   0  0  0  0  0  0  0  0  0  0  0  0
  -22.0396   -2.8212   23.2809 H   0  0  0  0  0  0  0  0  0  0  0  0
  -22.4401  -11.9703   22.4008 H   0  0  0  0  0  0  0  0  0  0  0  0
  -21.1493  -13.0679   22.2082 H   0  0  0  0  0  0  0  0  0  0  0  0
  -24.6538  -15.7807   20.5848 H   0  0  0  0  0  0  0  0  0  0  0  0
  -26.2762  -15.5453   20.1156 H   0  0  0  0  0  0  0  0  0  0  0  0
  -26.6778  -32.4663   23.1464 H   0  0  0  0  0  0  0  0  0  0  0  0
  -25.0747  -34.0282   25.0566 H   0  0  0  0  0  0  0  0  0  0  0  0
  -22.7881  -31.3489   21.4131 H   0  0  0  0  0  0  0  0  0  0  0  0
  -23.3854  -35.9823   23.3648 H   0  0  0  0  0  0  0  0  0  0  0  0
  -24.3696  -36.8624   22.2204 H   0  0  0  0  0  0  0  0  0  0  0  0
  -23.7669  -37.6632   23.6516 H   0  0  0  0  0  0  0  0  0  0  0  0
  -25.9445  -31.6237   20.5691 H   0  0  0  0  0  0  0  0  0  0  0  0
  -26.7436  -31.0079   22.0108 H   0  0  0  0  0  0  0  0  0  0  0  0
  -28.0090  -29.1452   21.2057 H   0  0  0  0  0  0  0  0  0  0  0  0
  -26.1369  -26.0560   19.0719 H   0  0  0  0  0  0  0  0  0  0  0  0
  -24.0652  -27.2961   19.0997 H   0  0  0  0  0  0  0  0  0  0  0  0
  -23.6156  -30.5365   19.3930 H   0  0  0  0  0  0  0  0  0  0  0  0
  -22.7355  -29.1425   19.9945 H   0  0  0  0  0  0  0  0  0  0  0  0
  -25.1353  -36.2335   25.0565 H   0  0  0  0  0  0  0  0  0  0  0  0
  -21.0070  -28.3206   24.0793 H   0  0  0  0  0  0  0  0  0  0  0  0
  -20.5555  -26.2518   23.3550 H   0  0  0  0  0  0  0  0  0  0  0  0
  -21.5974  -26.8362   22.0454 H   0  0  0  0  0  0  0  0  0  0  0  0
  -19.6810  -25.6422   21.1488 H   0  0  0  0  0  0  0  0  0  0  0  0
  -19.6406  -27.3343   20.7034 H   0  0  0  0  0  0  0  0  0  0  0  0
  -17.4282  -26.6888   21.4113 H   0  0  0  0  0  0  0  0  0  0  0  0
  -18.0803  -26.0130   22.9049 H   0  0  0  0  0  0  0  0  0  0  0  0
  -19.7265  -30.6774   24.2204 H   0  0  0  0  0  0  0  0  0  0  0  0
  -17.5064  -31.5856   24.4483 H   0  0  0  0  0  0  0  0  0  0  0  0
  -15.5878  -30.2839   23.7407 H   0  0  0  0  0  0  0  0  0  0  0  0
  -15.9120  -28.0941   22.7766 H   0  0  0  0  0  0  0  0  0  0  0  0
  -24.5787  -30.7757   25.6817 H   0  0  0  0  0  0  0  0  0  0  0  0
  -25.0041  -32.2289   26.5536 H   0  0  0  0  0  0  0  0  0  0  0  0
  -25.8166  -30.7245   26.9138 H   0  0  0  0  0  0  0  0  0  0  0  0
  -26.2892  -29.7335   24.0803 H   0  0  0  0  0  0  0  0  0  0  0  0
  -27.4336  -29.7484   25.4006 H   0  0  0  0  0  0  0  0  0  0  0  0
  -27.8466  -30.4994   23.8779 H   0  0  0  0  0  0  0  0  0  0  0  0
  -27.2251  -33.3632   26.1242 H   0  0  0  0  0  0  0  0  0  0  0  0
  -28.3902  -32.6065   25.0645 H   0  0  0  0  0  0  0  0  0  0  0  0
  -27.9772  -31.8555   26.5872 H   0  0  0  0  0  0  0  0  0  0  0  0
  -28.2744  -38.0016   24.6863 H   0  0  0  0  0  0  0  0  0  0  0  0
  -28.0396  -36.2711   24.7461 H   0  0  0  0  0  0  0  0  0  0  0  0
  -27.1773  -37.3087   25.8564 H   0  0  0  0  0  0  0  0  0  0  0  0
  -20.9627  -29.9365   21.7352 H   0  0  0  0  0  0  0  0  0  0  0  0
  -26.0447  -38.2561   24.0273 H   0  0  0  0  0  0  0  0  0  0  0  0
  -28.3614  -18.3965   22.6461 H   0  0  0  0  0  0  0  0  0  0  0  0
  -29.8371  -20.6305   19.3840 H   0  0  0  0  0  0  0  0  0  0  0  0
  -35.8104  -18.7494   21.2073 H   0  0  0  0  0  0  0  0  0  0  0  0
  -36.2343  -19.1998   19.5982 H   0  0  0  0  0  0  0  0  0  0  0  0
  -35.3399  -21.2797   19.9540 H   0  0  0  0  0  0  0  0  0  0  0  0
  -34.9426  -20.8394   21.5723 H   0  0  0  0  0  0  0  0  0  0  0  0
  -34.3546  -17.2985   20.1438 H   0  0  0  0  0  0  0  0  0  0  0  0
  -34.2789  -18.2209   18.7058 H   0  0  0  0  0  0  0  0  0  0  0  0
  -33.2305  -20.7719   19.1309 H   0  0  0  0  0  0  0  0  0  0  0  0
  -32.7384  -21.0966   20.7352 H   0  0  0  0  0  0  0  0  0  0  0  0
  -32.8001  -18.7135   21.3210 H   0  0  0  0  0  0  0  0  0  0  0  0
  -26.1582  -19.3410   20.5216 H   0  0  0  0  0  0  0  0  0  0  0  0
  -26.5448  -20.5401   19.3108 H   0  0  0  0  0  0  0  0  0  0  0  0
  -25.4907  -20.9513   20.6424 H   0  0  0  0  0  0  0  0  0  0  0  0
  -30.8420  -16.9477   22.9588 H   0  0  0  0  0  0  0  0  0  0  0  0
  -31.7733  -16.9025   21.4517 H   0  0  0  0  0  0  0  0  0  0  0  0
  -31.8010  -17.5244   19.3785 H   0  0  0  0  0  0  0  0  0  0  0  0
  -31.7074  -19.1420   18.6722 H   0  0  0  0  0  0  0  0  0  0  0  0
  -27.4096  -20.7606   22.2286 H   0  0  0  0  0  0  0  0  0  0  0  0
  -29.1873  -15.6150   21.7543 H   0  0  0  0  0  0  0  0  0  0  0  0
  1 25  1  0
  1 30  2  0
  1 85  1  0
  2  3  1  0
  2 25  1  0
  2 86  1  0
  2 87  1  0
  3  4  1  0
  3 88  1  0
  3 89  1  0
  4  5  1  0
  4 90  1  0
  4 91  1  0
  5  6  1  0
  5 26  1  0
  5 92  1  6
  6 25  1  0
  6 93  1  0
  6 94  1  0
  7  8  2  0
  7 26  1  0
  7 29  1  0
  8  9  1  0
  8 22  1  0
  9 10  1  0
  9 27  2  0
 10 11  2  0
 10 15  1  0
 11 12  1  0
 11 95  1  0
 12 13  2  0
 12 96  1  0
 13 14  1  0
 13 31  1  0
 14 15  2  0
 14 97  1  0
 15 98  1  0
 16 17  2  0
 16 21  1  0
 16 31  1  0
 17 18  1  0
 17 99  1  0
 18 19  2  0
 18100  1  0
 19 20  1  0
 19 24  1  0
 20 21  2  0
 20101  1  0
 21 23  1  0
 22 28  1  0
 22 32  2  0
 26 27  1  0
 28102  1  0
 28103  1  0
 29104  1  0
 29105  1  0
 33 34  1  0
 33 66  1  0
 33 70  2  0
 34 36  1  0
 34 59  1  0
 34106  1  6
 35 44  2  0
 35 45  1  0
 35 68  1  0
 36 56  1  0
 36107  1  0
 37 39  1  0
 37 47  1  0
 37 66  1  0
 37108  1  6
 38 43  2  0
 38 46  1  0
 38 47  1  0
 39 64  1  0
 39 67  2  0
 40 52  1  0
 40 53  2  0
 40 58  1  0
 41109  1  0
 41110  1  0
 41111  1  0
 42 43  1  0
 42 66  1  0
 42112  1  0
 42113  1  0
 43 44  1  0
 44114  1  0
 45 46  2  0
 45115  1  0
 46116  1  0
 47117  1  0
 47118  1  0
 48 41  1  0
 48 56  1  0
 48 65  1  0
 48119  1  1
 49 50  1  0
 49 53  1  0
 49 64  1  0
 49120  1  1
 50 51  1  0
 50121  1  0
 50122  1  0
 51 52  1  0
 51123  1  0
 51124  1  0
 52125  1  0
 52126  1  0
 53 54  1  0
 54 55  2  0
 54127  1  0
 55 57  1  0
 55128  1  0
 56 69  2  0
 57 58  2  0
 57129  1  0
 58130  1  0
 59 60  1  0
 59 61  1  0
 59 62  1  0
 60131  1  0
 60132  1  0
 60133  1  0
 61134  1  0
 61135  1  0
 61136  1  0
 62137  1  0
 62138  1  0
 62139  1  0
 63 65  1  0
 63140  1  0
 63141  1  0
 63142  1  0
 64143  1  0
 65144  1  0
 68 83  1  0
 71 73  1  0
 71 74  2  0
 71145  1  0
 72 73  2  0
 72 84  1  0
 72146  1  0
 73 83  1  0
 74 81  1  0
 74 84  1  0
 75 76  1  0
 75 77  1  0
 75147  1  0
 75148  1  0
 76 78  1  0
 76149  1  0
 76150  1  0
 77 79  1  0
 77151  1  0
 77152  1  0
 78 79  1  0
 78153  1  0
 78154  1  0
 79 82  1  0
 79155  1  0
 80156  1  0
 80157  1  0
 80158  1  0
 81 85  1  0
 81159  1  0
 81160  1  0
 82 84  1  0
 82161  1  0
 82162  1  0
 83 80  1  0
 83163  1  1
 85164  1  0
M  ISO  4   1 100  68 101  83 101  85 100
M  END
$$$$
64
     RDKit          3D

189198  0  0  0  0  0  0  0  0999 V2000
  -30.7652  -14.3608   20.6636 C   0  0  0  0  0  0  0  0  0100  0  0
  -30.4392  -12.2669   19.3775 C   0  0  0  0  0  0  0  0  0101  0  0
  -29.4791  -12.5281   18.1977 C   0  0  0  0  0  0  0  0  0102  0  0
  -27.9985  -12.3963   18.6038 C   0  0  0  0  0  0  0  0  0103  0  0
  -27.6639  -13.2170   19.8820 C   0  0  2  0  0  0  0  0  0104  0  0
  -28.6795  -12.9602   21.0279 C   0  0  0  0  0  0  0  0  0105  0  0
  -25.2633  -13.8245   20.5754 C   0  0  0  0  0  0  0  0  0106  0  0
  -24.1645  -13.0409   20.9408 C   0  0  0  0  0  0  0  0  0107  0  0
  -24.6400  -11.7009   20.8697 C   0  0  0  0  0  0  0  0  0108  0  0
  -23.9005  -10.4085   21.0420 C   0  0  0  0  0  0  0  0  0109  0  0
  -24.3588   -9.4123   21.9123 C   0  0  0  0  0  0  0  0  0110  0  0
  -23.6296   -8.2350   22.0803 C   0  0  0  0  0  0  0  0  0111  0  0
  -22.4385   -8.0419   21.3657 C   0  0  0  0  0  0  0  0  0112  0  0
  -22.0103   -9.0167   20.4678 C   0  0  0  0  0  0  0  0  0113  0  0
  -22.7317  -10.1925   20.3102 C   0  0  0  0  0  0  0  0  0114  0  0
  -21.6857   -6.0709   22.5391 C   0  0  0  0  0  0  0  0  0115  0  0
  -21.4064   -6.5490   23.8264 C   0  0  0  0  0  0  0  0  0116  0  0
  -21.3635   -5.6677   24.9085 C   0  0  0  0  0  0  0  0  0117  0  0
  -21.5973   -4.3067   24.7088 C   0  0  0  0  0  0  0  0  0118  0  0
  -21.8700   -3.8284   23.4282 C   0  0  0  0  0  0  0  0  0119  0  0
  -21.9144   -4.7056   22.3460 C   0  0  0  0  0  0  0  0  0120  0  0
  -22.8194  -13.5263   21.1763 C   0  0  0  0  0  0  0  0  0121  0  0
  -22.1559   -4.2206   21.1063 F   0  0  0  0  0  0  0  0  0122  0  0
  -21.5628   -3.4510   25.7555 F   0  0  0  0  0  0  0  0  0123  0  0
  -30.0261  -13.1803   20.4553 N   0  0  0  0  0  0  0  0  0124  0  0
  -26.2911  -12.9356   20.3443 N   0  0  0  0  0  0  0  0  0125  0  0
  -25.9236  -11.6675   20.5847 N   0  0  0  0  0  0  0  0  0126  0  0
  -22.0708  -12.7905   22.0005 N   0  0  0  0  0  0  0  0  0127  0  0
  -25.4117  -15.1773   20.4097 N   0  0  0  0  0  0  0  0  0128  0  0
  -31.7916  -14.6724   20.0536 O   0  0  0  0  0  0  0  0  0129  0  0
  -21.6670   -6.9022   21.4423 O   0  0  0  0  0  0  0  0  0130  0  0
  -22.3946  -14.5564   20.6568 O   0  0  0  0  0  0  0  0  0131  0  0
  -24.6048  -31.8614   23.2223 C   0  0  0  0  0  0  0  0  0100  0  0
  -25.8822  -32.4841   23.8616 C   0  0  1  0  0  0  0  0  0101  0  0
  -27.2536  -27.5042   20.1156 C   0  0  0  0  0  0  0  0  0102  0  0
  -25.5726  -33.8762   24.2210 N   0  0  0  0  0  0  0  0  0103  0  0
  -23.4066  -30.4859   21.5461 C   0  0  2  0  0  0  0  0  0104  0  0
  -24.8467  -28.9636   20.1247 C   0  0  0  0  0  0  0  0  0105  0  0
  -22.7412  -29.4652   22.5052 C   0  0  0  0  0  0  0  0  0106  0  0
  -18.0167  -28.1302   22.8626 C   0  0  0  0  0  0  0  0  0107  0  0
  -24.1342  -36.7390   23.2568 C   0  0  0  0  0  0  0  0  0108  0  0
  -25.9141  -30.8882   21.3456 C   0  0  0  0  0  0  0  0  0109  0  0
  -25.9930  -29.5029   20.7208 C   0  0  0  0  0  0  0  0  0110  0  0
  -27.1758  -28.7612   20.7331 C   0  0  0  0  0  0  0  0  0111  0  0
  -26.1032  -26.9836   19.5230 C   0  0  0  0  0  0  0  0  0112  0  0
  -24.9097  -27.7011   19.5331 C   0  0  0  0  0  0  0  0  0113  0  0
  -23.5715  -29.7899   20.1582 C   0  0  0  0  0  0  0  0  0114  0  0
  -25.3990  -36.3212   24.0232 C   0  0  1  0  0  0  0  0  0115  0  0
  -20.5793  -28.3813   23.1004 C   0  0  2  0  0  0  0  0  0116  0  0
  -20.6548  -26.9392   22.5411 C   0  0  0  0  0  0  0  0  0117  0  0
  -19.5615  -26.6407   21.5143 C   0  0  0  0  0  0  0  0  0118  0  0
  -18.1797  -26.7818   22.1673 C   0  0  0  0  0  0  0  0  0119  0  0
  -19.1385  -28.8769   23.2988 C   0  0  0  0  0  0  0  0  0120  0  0
  -18.9183  -30.1286   23.8878 C   0  0  0  0  0  0  0  0  0121  0  0
  -17.6396  -30.6493   24.0352 C   0  0  0  0  0  0  0  0  0122  0  0
  -25.9153  -34.9582   23.4993 C   0  0  0  0  0  0  0  0  0123  0  0
  -16.5415  -29.9068   23.6254 C   0  0  0  0  0  0  0  0  0124  0  0
  -16.7331  -28.6521   23.0586 C   0  0  0  0  0  0  0  0  0125  0  0
  -26.4583  -31.6439   25.0683 C   0  0  0  0  0  0  0  0  0126  0  0
  -25.3807  -31.3179   26.1374 C   0  0  0  0  0  0  0  0  0127  0  0
  -27.0530  -30.3024   24.5680 C   0  0  0  0  0  0  0  0  0128  0  0
  -27.6014  -32.4281   25.7651 C   0  0  0  0  0  0  0  0  0129  0  0
  -27.5629  -37.2220   24.8621 C   0  0  0  0  0  0  0  0  0130  0  0
  -21.4133  -29.3375   22.3735 N   0  0  0  0  0  0  0  0  0131  0  0
  -26.4706  -37.3372   23.9061 N   0  0  0  0  0  0  0  0  0132  0  0
  -24.6674  -31.0544   22.1178 N   0  0  0  0  0  0  0  0  0133  0  0
  -23.4259  -28.8150   23.2971 O   0  0  0  0  0  0  0  0  0134  0  0
  -28.3948  -26.7345   20.0089 O   0  0  0  0  0  0  0  0  0135  0  0
  -26.5870  -34.9065   22.4671 O   0  0  0  0  0  0  0  0  0136  0  0
  -23.5365  -32.1254   23.7833 O   0  0  0  0  0  0  0  0  0137  0  0
  -24.5538  -13.9556   20.4543 C   0  0  0  0  0  0  0  0  0  0  0  0
  -23.4829  -13.0702   20.5045 C   0  0  0  0  0  0  0  0  0  0  0  0
  -23.7215  -11.7052   20.6190 C   0  0  0  0  0  0  0  0  0  0  0  0
  -25.0388  -11.2798   20.6792 C   0  0  0  0  0  0  0  0  0  0  0  0
  -25.8339  -13.4295   20.5220 C   0  0  0  0  0  0  0  0  0  0  0  0
  -21.8210  -14.5471   21.6198 C   0  0  0  0  0  0  0  0  0  0  0  0
  -21.8716  -14.3437   19.1013 C   0  0  0  0  0  0  0  0  0  0  0  0
  -20.4367  -15.1768   21.5315 C   0  0  0  0  0  0  0  0  0  0  0  0
  -20.4868  -14.9747   19.0323 C   0  0  0  0  0  0  0  0  0  0  0  0
  -22.0900  -13.6077   20.4331 C   0  0  1  0  0  0  0  0  0  0  0  0
  -26.1856   -9.5166   22.0438 C   0  0  0  0  0  0  0  0  0  0  0  0
  -16.5399  -17.7204   18.5790 C   0  0  0  0  0  0  0  0  0  0  0  0
  -23.2660   -9.4765   18.5615 C   0  0  0  0  0  0  0  0  0  0  0  0
  -20.9396   -9.2572   19.4579 C   0  0  0  0  0  0  0  0  0  0  0  0
  -22.5928  -10.7315   20.6762 C   0  0  0  0  0  0  0  0  0  0  0  0
  -25.3561   -9.8249   20.8012 C   0  0  0  0  0  0  0  0  0  0  0  0
  -17.7396  -18.5797   18.9511 C   0  0  0  0  0  0  0  0  0  0  0  0
  -18.9935  -16.6449   20.1256 C   0  0  0  0  0  0  0  0  0  0  0  0
  -20.2105  -18.7631   19.3673 C   0  0  0  0  0  0  0  0  0  1  0  0
  -22.1345  -10.2001   19.2959 C   0  0  0  0  0  0  0  0  0  0  0  0
  -19.0538  -17.7864   19.0962 C   0  0  2  0  0  0  0  0  0  0  0  0
  -26.1049  -12.1098   20.6335 N   0  0  0  0  0  0  0  0  0  0  0  0
  -26.9183  -14.3400   20.4699 N   0  0  0  0  0  0  0  0  0  0  0  0
  -20.2767  -15.9083   20.2109 N   0  0  1  0  0  0  0  0  0  0  0  0
  -31.4485  -12.4701   19.0860 H   0  0  0  0  0  0  0  0  0  0  0  0
  -30.3970  -11.2460   19.6950 H   0  0  0  0  0  0  0  0  0  0  0  0
  -29.6870  -11.8204   17.4226 H   0  0  0  0  0  0  0  0  0  0  0  0
  -29.6375  -13.5326   17.8649 H   0  0  0  0  0  0  0  0  0  0  0  0
  -27.7830  -11.3650   18.7904 H   0  0  0  0  0  0  0  0  0  0  0  0
  -27.4028  -12.7801   17.8021 H   0  0  0  0  0  0  0  0  0  0  0  0
  -27.7353  -14.2503   19.6136 H   0  0  0  0  0  0  0  0  0  0  0  0
  -28.5890  -11.9550   21.3832 H   0  0  0  0  0  0  0  0  0  0  0  0
  -28.5005  -13.6134   21.8562 H   0  0  0  0  0  0  0  0  0  0  0  0
  -25.2399   -9.5495   22.4318 H   0  0  0  0  0  0  0  0  0  0  0  0
  -23.9663   -7.5070   22.7297 H   0  0  0  0  0  0  0  0  0  0  0  0
  -21.1515   -8.8641   19.9162 H   0  0  0  0  0  0  0  0  0  0  0  0
  -22.4016  -10.9115   19.6476 H   0  0  0  0  0  0  0  0  0  0  0  0
  -21.2319   -7.5552   23.9750 H   0  0  0  0  0  0  0  0  0  0  0  0
  -21.1589   -6.0228   25.8556 H   0  0  0  0  0  0  0  0  0  0  0  0
  -22.0396   -2.8212   23.2809 H   0  0  0  0  0  0  0  0  0  0  0  0
  -22.4401  -11.9703   22.4008 H   0  0  0  0  0  0  0  0  0  0  0  0
  -21.1493  -13.0679   22.2082 H   0  0  0  0  0  0  0  0  0  0  0  0
  -24.6538  -15.7807   20.5848 H   0  0  0  0  0  0  0  0  0  0  0  0
  -26.2762  -15.5453   20.1156 H   0  0  0  0  0  0  0  0  0  0  0  0
  -26.6778  -32.4663   23.1464 H   0  0  0  0  0  0  0  0  0  0  0  0
  -25.0747  -34.0282   25.0566 H   0  0  0  0  0  0  0  0  0  0  0  0
  -22.7881  -31.3489   21.4131 H   0  0  0  0  0  0  0  0  0  0  0  0
  -23.3854  -35.9823   23.3648 H   0  0  0  0  0  0  0  0  0  0  0  0
  -24.3696  -36.8624   22.2204 H   0  0  0  0  0  0  0  0  0  0  0  0
  -23.7669  -37.6632   23.6516 H   0  0  0  0  0  0  0  0  0  0  0  0
  -25.9445  -31.6237   20.5691 H   0  0  0  0  0  0  0  0  0  0  0  0
  -26.7436  -31.0079   22.0108 H   0  0  0  0  0  0  0  0  0  0  0  0
  -28.0090  -29.1452   21.2057 H   0  0  0  0  0  0  0  0  0  0  0  0
  -26.1369  -26.0560   19.0719 H   0  0  0  0  0  0  0  0  0  0  0  0
  -24.0652  -27.2961   19.0997 H   0  0  0  0  0  0  0  0  0  0  0  0
  -23.6156  -30.5365   19.3930 H   0  0  0  0  0  0  0  0  0  0  0  0
  -22.7355  -29.1425   19.9945 H   0  0  0  0  0  0  0  0  0  0  0  0
  -25.1353  -36.2335   25.0565 H   0  0  0  0  0  0  0  0  0  0  0  0
  -21.0070  -28.3206   24.0793 H   0  0  0  0  0  0  0  0  0  0  0  0
  -20.5555  -26.2518   23.3550 H   0  0  0  0  0  0  0  0  0  0  0  0
  -21.5974  -26.8362   22.0454 H   0  0  0  0  0  0  0  0  0  0  0  0
  -19.6810  -25.6422   21.1488 H   0  0  0  0  0  0  0  0  0  0  0  0
  -19.6406  -27.3343   20.7034 H   0  0  0  0  0  0  0  0  0  0  0  0
  -17.4282  -26.6888   21.4113 H   0  0  0  0  0  0  0  0  0  0  0  0
  -18.0803  -26.0130   22.9049 H   0  0  0  0  0  0  0  0  0  0  0  0
  -19.7265  -30.6774   24.2204 H   0  0  0  0  0  0  0  0  0  0  0  0
  -17.5064  -31.5856   24.4483 H   0  0  0  0  0  0  0  0  0  0  0  0
  -15.5878  -30.2839   23.7407 H   0  0  0  0  0  0  0  0  0  0  0  0
  -15.9120  -28.0941   22.7766 H   0  0  0  0  0  0  0  0  0  0  0  0
  -24.5787  -30.7757   25.6817 H   0  0  0  0  0  0  0  0  0  0  0  0
  -25.0041  -32.2289   26.5536 H   0  0  0  0  0  0  0  0  0  0  0  0
  -25.8166  -30.7245   26.9138 H   0  0  0  0  0  0  0  0  0  0  0  0
  -26.2892  -29.7335   24.0803 H   0  0  0  0  0  0  0  0  0  0  0  0
  -27.4336  -29.7484   25.4006 H   0  0  0  0  0  0  0  0  0  0  0  0
  -27.8466  -30.4994   23.8779 H   0  0  0  0  0  0  0  0  0  0  0  0
  -27.2251  -33.3632   26.1242 H   0  0  0  0  0  0  0  0  0  0  0  0
  -28.3902  -32.6065   25.0645 H   0  0  0  0  0  0  0  0  0  0  0  0
  -27.9772  -31.8555   26.5872 H   0  0  0  0  0  0  0  0  0  0  0  0
  -28.2744  -38.0016   24.6863 H   0  0  0  0  0  0  0  0  0  0  0  0
  -28.0396  -36.2711   24.7461 H   0  0  0  0  0  0  0  0  0  0  0  0
  -27.1773  -37.3087   25.8564 H   0  0  0  0  0  0  0  0  0  0  0  0
  -20.9627  -29.9365   21.7352 H   0  0  0  0  0  0  0  0  0  0  0  0
  -26.0447  -38.2561   24.0273 H   0  0  0  0  0  0  0  0  0  0  0  0
  -24.4001  -14.9725   20.3693 H   0  0  0  0  0  0  0  0  0  0  0  0
  -21.8909  -13.9873   22.5290 H   0  0  0  0  0  0  0  0  0  0  0  0
  -22.5484  -15.3316   21.5983 H   0  0  0  0  0  0  0  0  0  0  0  0
  -22.6092  -15.1127   19.0041 H   0  0  0  0  0  0  0  0  0  0  0  0
  -21.9560  -13.6320   18.3068 H   0  0  0  0  0  0  0  0  0  0  0  0
  -20.3117  -15.8700   22.3369 H   0  0  0  0  0  0  0  0  0  0  0  0
  -19.6977  -14.4057   21.5952 H   0  0  0  0  0  0  0  0  0  0  0  0
  -19.7454  -14.2035   19.0558 H   0  0  0  0  0  0  0  0  0  0  0  0
  -20.4031  -15.5345   18.1243 H   0  0  0  0  0  0  0  0  0  0  0  0
  -21.4017  -12.7901   20.4853 H   0  0  0  0  0  0  0  0  0  0  0  0
  -26.3865   -8.4665   22.0870 H   0  0  0  0  0  0  0  0  0  0  0  0
  -25.6429   -9.8121   22.9173 H   0  0  0  0  0  0  0  0  0  0  0  0
  -27.1092  -10.0549   21.9987 H   0  0  0  0  0  0  0  0  0  0  0  0
  -15.6702  -18.3384   18.4971 H   0  0  0  0  0  0  0  0  0  0  0  0
  -16.3821  -16.9811   19.3363 H   0  0  0  0  0  0  0  0  0  0  0  0
  -16.7239  -17.2375   17.6420 H   0  0  0  0  0  0  0  0  0  0  0  0
  -22.9101   -9.1257   17.6154 H   0  0  0  0  0  0  0  0  0  0  0  0
  -23.5979   -8.6455   19.1482 H   0  0  0  0  0  0  0  0  0  0  0  0
  -24.0810  -10.1526   18.4076 H   0  0  0  0  0  0  0  0  0  0  0  0
  -20.6351   -8.8989   18.4967 H   0  0  0  0  0  0  0  0  0  0  0  0
  -20.1286   -9.7845   19.9153 H   0  0  0  0  0  0  0  0  0  0  0  0
  -21.2198   -8.4291   20.0749 H   0  0  0  0  0  0  0  0  0  0  0  0
  -21.7590  -11.2130   21.1429 H   0  0  0  0  0  0  0  0  0  0  0  0
  -22.9478   -9.8851   21.2262 H   0  0  0  0  0  0  0  0  0  0  0  0
  -25.9056   -9.5186   19.9357 H   0  0  0  0  0  0  0  0  0  0  0  0
  -24.4311   -9.2935   20.8844 H   0  0  0  0  0  0  0  0  0  0  0  0
  -17.5324  -19.0623   19.8833 H   0  0  0  0  0  0  0  0  0  0  0  0
  -17.8833  -19.2762   18.1517 H   0  0  0  0  0  0  0  0  0  0  0  0
  -18.2211  -15.9619   19.8397 H   0  0  0  0  0  0  0  0  0  0  0  0
  -18.7936  -17.0743   21.0851 H   0  0  0  0  0  0  0  0  0  0  0  0
  -20.9186  -17.9665   19.4616 H   0  0  0  0  0  0  0  0  0  0  0  0
  -19.4886  -19.5520   19.4044 H   0  0  0  0  0  0  0  0  0  0  0  0
  -21.8455  -11.0464   18.7084 H   0  0  0  0  0  0  0  0  0  0  0  0
  -19.2261  -17.2829   18.1679 H   0  0  0  0  0  0  0  0  0  0  0  0
  -26.5824  -15.2569   20.3446 H   0  0  0  0  0  0  0  0  0  0  0  0
  -21.0103  -16.6157   20.1684 H   0  0  0  0  0  0  0  0  0  0  0  0
  1 25  1  0
  1 30  2  0
  1 93  1  0
  2  3  1  0
  2 25  1  0
  2 95  1  0
  2 96  1  0
  3  4  1  0
  3 97  1  0
  3 98  1  0
  4  5  1  0
  4 99  1  0
  4100  1  0
  5  6  1  0
  5 26  1  0
  5101  1  6
  6 25  1  0
  6102  1  0
  6103  1  0
  7  8  2  0
  7 26  1  0
  7 29  1  0
  8  9  1  0
  8 22  1  0
  9 10  1  0
  9 27  2  0
 10 11  2  0
 10 15  1  0
 11 12  1  0
 11104  1  0
 12 13  2  0
 12105  1  0
 13 14  1  0
 13 31  1  0
 14 15  2  0
 14106  1  0
 15107  1  0
 16 17  2  0
 16 21  1  0
 16 31  1  0
 17 18  1  0
 17108  1  0
 18 19  2  0
 18109  1  0
 19 20  1  0
 19 24  1  0
 20 21  2  0
 20110  1  0
 21 23  1  0
 22 28  1  0
 22 32  2  0
 26 27  1  0
 28111  1  0
 28112  1  0
 29113  1  0
 29114  1  0
 33 34  1  0
 33 66  1  0
 33 70  2  0
 34 36  1  0
 34 59  1  0
 34115  1  6
 35 44  2  0
 35 45  1  0
 35 68  1  0
 36 56  1  0
 36116  1  0
 37 39  1  0
 37 47  1  0
 37 66  1  0
 37117  1  6
 38 43  2  0
 38 46  1  0
 38 47  1  0
 39 64  1  0
 39 67  2  0
 40 52  1  0
 40 53  2  0
 40 58  1  0
 41118  1  0
 41119  1  0
 41120  1  0
 42 43  1  0
 42 66  1  0
 42121  1  0
 42122  1  0
 43 44  1  0
 44123  1  0
 45 46  2  0
 45124  1  0
 46125  1  0
 47126  1  0
 47127  1  0
 48 41  1  0
 48 56  1  0
 48 65  1  0
 48128  1  1
 49 50  1  0
 49 53  1  0
 49 64  1  0
 49129  1  1
 50 51  1  0
 50130  1  0
 50131  1  0
 51 52  1  0
 51132  1  0
 51133  1  0
 52134  1  0
 52135  1  0
 53 54  1  0
 54 55  2  0
 54136  1  0
 55 57  1  0
 55137  1  0
 56 69  2  0
 57 58  2  0
 57138  1  0
 58139  1  0
 59 60  1  0
 59 61  1  0
 59 62  1  0
 60140  1  0
 60141  1  0
 60142  1  0
 61143  1  0
 61144  1  0
 61145  1  0
 62146  1  0
 62147  1  0
 62148  1  0
 63 65  1  0
 63149  1  0
 63150  1  0
 63151  1  0
 64152  1  0
 65153  1  0
 68 89  1  0
 71 72  2  0
 71 75  1  0
 71154  1  0
 72 73  1  0
 73 74  2  0
 73 85  1  0
 74 86  1  0
 74 92  1  0
 75 92  2  0
 75 93  1  0
 76 78  1  0
 76 80  1  0
 76155  1  0
 76156  1  0
 77 79  1  0
 77 80  1  0
 77157  1  0
 77158  1  0
 78 94  1  0
 78159  1  0
 78160  1  0
 79 94  1  0
 79161  1  0
 79162  1  0
 80 72  1  0
 80163  1  1
 81 86  1  0
 81164  1  0
 81165  1  0
 81166  1  0
 82 87  1  0
 82167  1  0
 82168  1  0
 82169  1  0
 83170  1  0
 83171  1  0
 83172  1  0
 84 90  1  0
 84173  1  0
 84174  1  0
 84175  1  0
 85 90  1  0
 85176  1  0
 85177  1  0
 86178  1  0
 86179  1  0
 87180  1  0
 87181  1  0
 88 91  1  0
 88182  1  0
 88183  1  0
 89 91  1  0
 89184  1  0
 89185  1  0
 90 83  1  0
 90186  1  0
 91 87  1  0
 91187  1  6
 93188  1  0
 94 88  1  0
 94189  1  1
M  CHG  1  94   1
M  ISO  4   1 100  68 101  89 101  93 100
M  END
$$$$
65
     RDKit          3D

162170  0  0  0  0  0  0  0  0999 V2000
  -30.7652  -14.3608   20.6636 C   0  0  0  0  0  0  0  0  0100  0  0
  -30.4392  -12.2669   19.3775 C   0  0  0  0  0  0  0  0  0101  0  0
  -29.4791  -12.5281   18.1977 C   0  0  0  0  0  0  0  0  0102  0  0
  -27.9985  -12.3963   18.6038 C   0  0  0  0  0  0  0  0  0103  0  0
  -27.6639  -13.2170   19.8820 C   0  0  2  0  0  0  0  0  0104  0  0
  -28.6795  -12.9602   21.0279 C   0  0  0  0  0  0  0  0  0105  0  0
  -25.2633  -13.8245   20.5754 C   0  0  0  0  0  0  0  0  0106  0  0
  -24.1645  -13.0409   20.9408 C   0  0  0  0  0  0  0  0  0107  0  0
  -24.6400  -11.7009   20.8697 C   0  0  0  0  0  0  0  0  0108  0  0
  -23.9005  -10.4085   21.0420 C   0  0  0  0  0  0  0  0  0109  0  0
  -24.3588   -9.4123   21.9123 C   0  0  0  0  0  0  0  0  0110  0  0
  -23.6296   -8.2350   22.0803 C   0  0  0  0  0  0  0  0  0111  0  0
  -22.4385   -8.0419   21.3657 C   0  0  0  0  0  0  0  0  0112  0  0
  -22.0103   -9.0167   20.4678 C   0  0  0  0  0  0  0  0  0113  0  0
  -22.7317  -10.1925   20.3102 C   0  0  0  0  0  0  0  0  0114  0  0
  -21.6857   -6.0709   22.5391 C   0  0  0  0  0  0  0  0  0115  0  0
  -21.4064   -6.5490   23.8264 C   0  0  0  0  0  0  0  0  0116  0  0
  -21.3635   -5.6677   24.9085 C   0  0  0  0  0  0  0  0  0117  0  0
  -21.5973   -4.3067   24.7088 C   0  0  0  0  0  0  0  0  0118  0  0
  -21.8700   -3.8284   23.4282 C   0  0  0  0  0  0  0  0  0119  0  0
  -21.9144   -4.7056   22.3460 C   0  0  0  0  0  0  0  0  0120  0  0
  -22.8194  -13.5263   21.1763 C   0  0  0  0  0  0  0  0  0121  0  0
  -22.1559   -4.2206   21.1063 F   0  0  0  0  0  0  0  0  0122  0  0
  -21.5628   -3.4510   25.7555 F   0  0  0  0  0  0  0  0  0123  0  0
  -30.0261  -13.1803   20.4553 N   0  0  0  0  0  0  0  0  0124  0  0
  -26.2911  -12.9356   20.3443 N   0  0  0  0  0  0  0  0  0125  0  0
  -25.9236  -11.6675   20.5847 N   0  0  0  0  0  0  0  0  0126  0  0
  -22.0708  -12.7905   22.0005 N   0  0  0  0  0  0  0  0  0127  0  0
  -25.4117  -15.1773   20.4097 N   0  0  0  0  0  0  0  0  0128  0  0
  -31.7916  -14.6724   20.0536 O   0  0  0  0  0  0  0  0  0129  0  0
  -21.6670   -6.9022   21.4423 O   0  0  0  0  0  0  0  0  0130  0  0
  -22.3946  -14.5564   20.6568 O   0  0  0  0  0  0  0  0  0131  0  0
  -24.6048  -31.8614   23.2223 C   0  0  0  0  0  0  0  0  0100  0  0
  -25.8822  -32.4841   23.8616 C   0  0  1  0  0  0  0  0  0101  0  0
  -27.2536  -27.5042   20.1156 C   0  0  0  0  0  0  0  0  0102  0  0
  -25.5726  -33.8762   24.2210 N   0  0  0  0  0  0  0  0  0103  0  0
  -23.4066  -30.4859   21.5461 C   0  0  2  0  0  0  0  0  0104  0  0
  -24.8467  -28.9636   20.1247 C   0  0  0  0  0  0  0  0  0105  0  0
  -22.7412  -29.4652   22.5052 C   0  0  0  0  0  0  0  0  0106  0  0
  -18.0167  -28.1302   22.8626 C   0  0  0  0  0  0  0  0  0107  0  0
  -24.1342  -36.7390   23.2568 C   0  0  0  0  0  0  0  0  0108  0  0
  -25.9141  -30.8882   21.3456 C   0  0  0  0  0  0  0  0  0109  0  0
  -25.9930  -29.5029   20.7208 C   0  0  0  0  0  0  0  0  0110  0  0
  -27.1758  -28.7612   20.7331 C   0  0  0  0  0  0  0  0  0111  0  0
  -26.1032  -26.9836   19.5230 C   0  0  0  0  0  0  0  0  0112  0  0
  -24.9097  -27.7011   19.5331 C   0  0  0  0  0  0  0  0  0113  0  0
  -23.5715  -29.7899   20.1582 C   0  0  0  0  0  0  0  0  0114  0  0
  -25.3990  -36.3212   24.0232 C   0  0  1  0  0  0  0  0  0115  0  0
  -20.5793  -28.3813   23.1004 C   0  0  2  0  0  0  0  0  0116  0  0
  -20.6548  -26.9392   22.5411 C   0  0  0  0  0  0  0  0  0117  0  0
  -19.5615  -26.6407   21.5143 C   0  0  0  0  0  0  0  0  0118  0  0
  -18.1797  -26.7818   22.1673 C   0  0  0  0  0  0  0  0  0119  0  0
  -19.1385  -28.8769   23.2988 C   0  0  0  0  0  0  0  0  0120  0  0
  -18.9183  -30.1286   23.8878 C   0  0  0  0  0  0  0  0  0121  0  0
  -17.6396  -30.6493   24.0352 C   0  0  0  0  0  0  0  0  0122  0  0
  -25.9153  -34.9582   23.4993 C   0  0  0  0  0  0  0  0  0123  0  0
  -16.5415  -29.9068   23.6254 C   0  0  0  0  0  0  0  0  0124  0  0
  -16.7331  -28.6521   23.0586 C   0  0  0  0  0  0  0  0  0125  0  0
  -26.4583  -31.6439   25.0683 C   0  0  0  0  0  0  0  0  0126  0  0
  -25.3807  -31.3179   26.1374 C   0  0  0  0  0  0  0  0  0127  0  0
  -27.0530  -30.3024   24.5680 C   0  0  0  0  0  0  0  0  0128  0  0
  -27.6014  -32.4281   25.7651 C   0  0  0  0  0  0  0  0  0129  0  0
  -27.5629  -37.2220   24.8621 C   0  0  0  0  0  0  0  0  0130  0  0
  -21.4133  -29.3375   22.3735 N   0  0  0  0  0  0  0  0  0131  0  0
  -26.4706  -37.3372   23.9061 N   0  0  0  0  0  0  0  0  0132  0  0
  -24.6674  -31.0544   22.1178 N   0  0  0  0  0  0  0  0  0133  0  0
  -23.4259  -28.8150   23.2971 O   0  0  0  0  0  0  0  0  0134  0  0
  -28.3948  -26.7345   20.0089 O   0  0  0  0  0  0  0  0  0135  0  0
  -26.5870  -34.9065   22.4671 O   0  0  0  0  0  0  0  0  0136  0  0
  -23.5365  -32.1254   23.7833 O   0  0  0  0  0  0  0  0  0137  0  0
  -25.4796  -11.8563   19.6956 C   0  0  0  0  0  0  0  0  0  0  0  0
  -26.5814  -11.8835   20.7520 C   0  0  0  0  0  0  0  0  0  0  0  0
  -24.1909  -12.4915   20.2066 C   0  0  0  0  0  0  0  0  0  0  0  0
  -25.4777  -13.9009   21.7807 C   0  0  0  0  0  0  0  0  0  0  0  0
  -26.8002  -13.3054   21.2857 C   0  0  1  0  0  0  0  0  0  0  0  0
  -29.7682  -11.9069   21.5260 C   0  0  0  0  0  0  0  0  0  0  0  0
  -30.1926  -13.7606   23.1340 C   0  0  0  0  0  0  0  0  0  0  0  0
  -27.8434  -13.3088   22.4009 C   0  0  0  0  0  0  0  0  0  0  0  0
  -29.5692  -14.2730   20.7302 C   0  0  0  0  0  0  0  0  0  0  0  0
  -29.1338  -15.7238   20.9240 C   0  0  0  0  0  0  0  0  0  1  0  0
  -29.3229  -13.3271   21.9350 C   0  0  0  0  0  0  0  0  0  0  0  0
  -24.4310  -13.8278   20.7506 N   0  0  0  0  0  0  0  0  0  0  0  0
  -31.4485  -12.4701   19.0860 H   0  0  0  0  0  0  0  0  0  0  0  0
  -30.3970  -11.2460   19.6950 H   0  0  0  0  0  0  0  0  0  0  0  0
  -29.6870  -11.8204   17.4226 H   0  0  0  0  0  0  0  0  0  0  0  0
  -29.6375  -13.5326   17.8649 H   0  0  0  0  0  0  0  0  0  0  0  0
  -27.7830  -11.3650   18.7904 H   0  0  0  0  0  0  0  0  0  0  0  0
  -27.4028  -12.7801   17.8021 H   0  0  0  0  0  0  0  0  0  0  0  0
  -27.7353  -14.2503   19.6136 H   0  0  0  0  0  0  0  0  0  0  0  0
  -28.5890  -11.9550   21.3832 H   0  0  0  0  0  0  0  0  0  0  0  0
  -28.5005  -13.6134   21.8562 H   0  0  0  0  0  0  0  0  0  0  0  0
  -25.2399   -9.5495   22.4318 H   0  0  0  0  0  0  0  0  0  0  0  0
  -23.9663   -7.5070   22.7297 H   0  0  0  0  0  0  0  0  0  0  0  0
  -21.1515   -8.8641   19.9162 H   0  0  0  0  0  0  0  0  0  0  0  0
  -22.4016  -10.9115   19.6476 H   0  0  0  0  0  0  0  0  0  0  0  0
  -21.2319   -7.5552   23.9750 H   0  0  0  0  0  0  0  0  0  0  0  0
  -21.1589   -6.0228   25.8556 H   0  0  0  0  0  0  0  0  0  0  0  0
  -22.0396   -2.8212   23.2809 H   0  0  0  0  0  0  0  0  0  0  0  0
  -22.4401  -11.9703   22.4008 H   0  0  0  0  0  0  0  0  0  0  0  0
  -21.1493  -13.0679   22.2082 H   0  0  0  0  0  0  0  0  0  0  0  0
  -24.6538  -15.7807   20.5848 H   0  0  0  0  0  0  0  0  0  0  0  0
  -26.2762  -15.5453   20.1156 H   0  0  0  0  0  0  0  0  0  0  0  0
  -26.6778  -32.4663   23.1464 H   0  0  0  0  0  0  0  0  0  0  0  0
  -25.0747  -34.0282   25.0566 H   0  0  0  0  0  0  0  0  0  0  0  0
  -22.7881  -31.3489   21.4131 H   0  0  0  0  0  0  0  0  0  0  0  0
  -23.3854  -35.9823   23.3648 H   0  0  0  0  0  0  0  0  0  0  0  0
  -24.3696  -36.8624   22.2204 H   0  0  0  0  0  0  0  0  0  0  0  0
  -23.7669  -37.6632   23.6516 H   0  0  0  0  0  0  0  0  0  0  0  0
  -25.9445  -31.6237   20.5691 H   0  0  0  0  0  0  0  0  0  0  0  0
  -26.7436  -31.0079   22.0108 H   0  0  0  0  0  0  0  0  0  0  0  0
  -28.0090  -29.1452   21.2057 H   0  0  0  0  0  0  0  0  0  0  0  0
  -26.1369  -26.0560   19.0719 H   0  0  0  0  0  0  0  0  0  0  0  0
  -24.0652  -27.2961   19.0997 H   0  0  0  0  0  0  0  0  0  0  0  0
  -23.6156  -30.5365   19.3930 H   0  0  0  0  0  0  0  0  0  0  0  0
  -22.7355  -29.1425   19.9945 H   0  0  0  0  0  0  0  0  0  0  0  0
  -25.1353  -36.2335   25.0565 H   0  0  0  0  0  0  0  0  0  0  0  0
  -21.0070  -28.3206   24.0793 H   0  0  0  0  0  0  0  0  0  0  0  0
  -20.5555  -26.2518   23.3550 H   0  0  0  0  0  0  0  0  0  0  0  0
  -21.5974  -26.8362   22.0454 H   0  0  0  0  0  0  0  0  0  0  0  0
  -19.6810  -25.6422   21.1488 H   0  0  0  0  0  0  0  0  0  0  0  0
  -19.6406  -27.3343   20.7034 H   0  0  0  0  0  0  0  0  0  0  0  0
  -17.4282  -26.6888   21.4113 H   0  0  0  0  0  0  0  0  0  0  0  0
  -18.0803  -26.0130   22.9049 H   0  0  0  0  0  0  0  0  0  0  0  0
  -19.7265  -30.6774   24.2204 H   0  0  0  0  0  0  0  0  0  0  0  0
  -17.5064  -31.5856   24.4483 H   0  0  0  0  0  0  0  0  0  0  0  0
  -15.5878  -30.2839   23.7407 H   0  0  0  0  0  0  0  0  0  0  0  0
  -15.9120  -28.0941   22.7766 H   0  0  0  0  0  0  0  0  0  0  0  0
  -24.5787  -30.7757   25.6817 H   0  0  0  0  0  0  0  0  0  0  0  0
  -25.0041  -32.2289   26.5536 H   0  0  0  0  0  0  0  0  0  0  0  0
  -25.8166  -30.7245   26.9138 H   0  0  0  0  0  0  0  0  0  0  0  0
  -26.2892  -29.7335   24.0803 H   0  0  0  0  0  0  0  0  0  0  0  0
  -27.4336  -29.7484   25.4006 H   0  0  0  0  0  0  0  0  0  0  0  0
  -27.8466  -30.4994   23.8779 H   0  0  0  0  0  0  0  0  0  0  0  0
  -27.2251  -33.3632   26.1242 H   0  0  0  0  0  0  0  0  0  0  0  0
  -28.3902  -32.6065   25.0645 H   0  0  0  0  0  0  0  0  0  0  0  0
  -27.9772  -31.8555   26.5872 H   0  0  0  0  0  0  0  0  0  0  0  0
  -28.2744  -38.0016   24.6863 H   0  0  0  0  0  0  0  0  0  0  0  0
  -28.0396  -36.2711   24.7461 H   0  0  0  0  0  0  0  0  0  0  0  0
  -27.1773  -37.3087   25.8564 H   0  0  0  0  0  0  0  0  0  0  0  0
  -20.9627  -29.9365   21.7352 H   0  0  0  0  0  0  0  0  0  0  0  0
  -26.0447  -38.2561   24.0273 H   0  0  0  0  0  0  0  0  0  0  0  0
  -25.2820  -10.8396   19.4270 H   0  0  0  0  0  0  0  0  0  0  0  0
  -25.8154  -12.4187   18.8495 H   0  0  0  0  0  0  0  0  0  0  0  0
  -27.4923  -11.5299   20.3160 H   0  0  0  0  0  0  0  0  0  0  0  0
  -26.2862  -11.2563   21.5671 H   0  0  0  0  0  0  0  0  0  0  0  0
  -23.7790  -11.8719   20.9756 H   0  0  0  0  0  0  0  0  0  0  0  0
  -23.5117  -12.5807   19.3846 H   0  0  0  0  0  0  0  0  0  0  0  0
  -25.6354  -14.9262   22.0431 H   0  0  0  0  0  0  0  0  0  0  0  0
  -25.1526  -13.3346   22.6284 H   0  0  0  0  0  0  0  0  0  0  0  0
  -27.1661  -13.9136   20.4850 H   0  0  0  0  0  0  0  0  0  0  0  0
  -29.6080  -11.2339   22.3423 H   0  0  0  0  0  0  0  0  0  0  0  0
  -30.8075  -11.9183   21.2719 H   0  0  0  0  0  0  0  0  0  0  0  0
  -29.1978  -11.5840   20.6803 H   0  0  0  0  0  0  0  0  0  0  0  0
  -30.0158  -13.1028   23.9592 H   0  0  0  0  0  0  0  0  0  0  0  0
  -29.9392  -14.7614   23.4151 H   0  0  0  0  0  0  0  0  0  0  0  0
  -31.2258  -13.7181   22.8590 H   0  0  0  0  0  0  0  0  0  0  0  0
  -27.6955  -12.4297   22.9926 H   0  0  0  0  0  0  0  0  0  0  0  0
  -27.6945  -14.2221   22.9381 H   0  0  0  0  0  0  0  0  0  0  0  0
  -30.6184  -14.2705   20.5200 H   0  0  0  0  0  0  0  0  0  0  0  0
  -28.9647  -13.8923   19.9337 H   0  0  0  0  0  0  0  0  0  0  0  0
  -29.2844  -15.7269   21.9833 H   0  0  0  0  0  0  0  0  0  0  0  0
  -28.6872  -15.6651   19.9534 H   0  0  0  0  0  0  0  0  0  0  0  0
  1 25  1  0
  1 30  2  0
  1 82  1  0
  2  3  1  0
  2 25  1  0
  2 83  1  0
  2 84  1  0
  3  4  1  0
  3 85  1  0
  3 86  1  0
  4  5  1  0
  4 87  1  0
  4 88  1  0
  5  6  1  0
  5 26  1  0
  5 89  1  6
  6 25  1  0
  6 90  1  0
  6 91  1  0
  7  8  2  0
  7 26  1  0
  7 29  1  0
  8  9  1  0
  8 22  1  0
  9 10  1  0
  9 27  2  0
 10 11  2  0
 10 15  1  0
 11 12  1  0
 11 92  1  0
 12 13  2  0
 12 93  1  0
 13 14  1  0
 13 31  1  0
 14 15  2  0
 14 94  1  0
 15 95  1  0
 16 17  2  0
 16 21  1  0
 16 31  1  0
 17 18  1  0
 17 96  1  0
 18 19  2  0
 18 97  1  0
 19 20  1  0
 19 24  1  0
 20 21  2  0
 20 98  1  0
 21 23  1  0
 22 28  1  0
 22 32  2  0
 26 27  1  0
 28 99  1  0
 28100  1  0
 29101  1  0
 29102  1  0
 33 34  1  0
 33 66  1  0
 33 70  2  0
 34 36  1  0
 34 59  1  0
 34103  1  6
 35 44  2  0
 35 45  1  0
 35 68  1  0
 36 56  1  0
 36104  1  0
 37 39  1  0
 37 47  1  0
 37 66  1  0
 37105  1  6
 38 43  2  0
 38 46  1  0
 38 47  1  0
 39 64  1  0
 39 67  2  0
 40 52  1  0
 40 53  2  0
 40 58  1  0
 41106  1  0
 41107  1  0
 41108  1  0
 42 43  1  0
 42 66  1  0
 42109  1  0
 42110  1  0
 43 44  1  0
 44111  1  0
 45 46  2  0
 45112  1  0
 46113  1  0
 47114  1  0
 47115  1  0
 48 41  1  0
 48 56  1  0
 48 65  1  0
 48116  1  1
 49 50  1  0
 49 53  1  0
 49 64  1  0
 49117  1  1
 50 51  1  0
 50118  1  0
 50119  1  0
 51 52  1  0
 51120  1  0
 51121  1  0
 52122  1  0
 52123  1  0
 53 54  1  0
 54 55  2  0
 54124  1  0
 55 57  1  0
 55125  1  0
 56 69  2  0
 57 58  2  0
 57126  1  0
 58127  1  0
 59 60  1  0
 59 61  1  0
 59 62  1  0
 60128  1  0
 60129  1  0
 60130  1  0
 61131  1  0
 61132  1  0
 61133  1  0
 62134  1  0
 62135  1  0
 62136  1  0
 63 65  1  0
 63137  1  0
 63138  1  0
 63139  1  0
 64140  1  0
 65141  1  0
 68 80  1  0
 71 72  1  0
 71 73  1  0
 71142  1  0
 71143  1  0
 72 75  1  0
 72144  1  0
 72145  1  0
 73 82  1  0
 73146  1  0
 73147  1  0
 74 75  1  0
 74 82  1  0
 74148  1  0
 74149  1  0
 75 78  1  0
 75150  1  6
 76151  1  0
 76152  1  0
 76153  1  0
 77 81  1  0
 77154  1  0
 77155  1  0
 77156  1  0
 78 81  1  0
 78157  1  0
 78158  1  0
 79 80  1  0
 79 81  1  0
 79159  1  0
 79160  1  0
 80161  1  0
 80162  1  0
 81 76  1  0
M  ISO  4   1 100  68 101  80 101  82 100
M  END
$$$$
66
     RDKit          3D

187195  0  0  0  0  0  0  0  0999 V2000
  -30.7652  -14.3608   20.6636 C   0  0  0  0  0  0  0  0  0100  0  0
  -30.4392  -12.2669   19.3775 C   0  0  0  0  0  0  0  0  0101  0  0
  -29.4791  -12.5281   18.1977 C   0  0  0  0  0  0  0  0  0102  0  0
  -27.9985  -12.3963   18.6038 C   0  0  0  0  0  0  0  0  0103  0  0
  -27.6639  -13.2170   19.8820 C   0  0  2  0  0  0  0  0  0104  0  0
  -28.6795  -12.9602   21.0279 C   0  0  0  0  0  0  0  0  0105  0  0
  -25.2633  -13.8245   20.5754 C   0  0  0  0  0  0  0  0  0106  0  0
  -24.1645  -13.0409   20.9408 C   0  0  0  0  0  0  0  0  0107  0  0
  -24.6400  -11.7009   20.8697 C   0  0  0  0  0  0  0  0  0108  0  0
  -23.9005  -10.4085   21.0420 C   0  0  0  0  0  0  0  0  0109  0  0
  -24.3588   -9.4123   21.9123 C   0  0  0  0  0  0  0  0  0110  0  0
  -23.6296   -8.2350   22.0803 C   0  0  0  0  0  0  0  0  0111  0  0
  -22.4385   -8.0419   21.3657 C   0  0  0  0  0  0  0  0  0112  0  0
  -22.0103   -9.0167   20.4678 C   0  0  0  0  0  0  0  0  0113  0  0
  -22.7317  -10.1925   20.3102 C   0  0  0  0  0  0  0  0  0114  0  0
  -21.6857   -6.0709   22.5391 C   0  0  0  0  0  0  0  0  0115  0  0
  -21.4064   -6.5490   23.8264 C   0  0  0  0  0  0  0  0  0116  0  0
  -21.3635   -5.6677   24.9085 C   0  0  0  0  0  0  0  0  0117  0  0
  -21.5973   -4.3067   24.7088 C   0  0  0  0  0  0  0  0  0118  0  0
  -21.8700   -3.8284   23.4282 C   0  0  0  0  0  0  0  0  0119  0  0
  -21.9144   -4.7056   22.3460 C   0  0  0  0  0  0  0  0  0120  0  0
  -22.8194  -13.5263   21.1763 C   0  0  0  0  0  0  0  0  0121  0  0
  -22.1559   -4.2206   21.1063 F   0  0  0  0  0  0  0  0  0122  0  0
  -21.5628   -3.4510   25.7555 F   0  0  0  0  0  0  0  0  0123  0  0
  -30.0261  -13.1803   20.4553 N   0  0  0  0  0  0  0  0  0124  0  0
  -26.2911  -12.9356   20.3443 N   0  0  0  0  0  0  0  0  0125  0  0
  -25.9236  -11.6675   20.5847 N   0  0  0  0  0  0  0  0  0126  0  0
  -22.0708  -12.7905   22.0005 N   0  0  0  0  0  0  0  0  0127  0  0
  -25.4117  -15.1773   20.4097 N   0  0  0  0  0  0  0  0  0128  0  0
  -31.7916  -14.6724   20.0536 O   0  0  0  0  0  0  0  0  0129  0  0
  -21.6670   -6.9022   21.4423 O   0  0  0  0  0  0  0  0  0130  0  0
  -22.3946  -14.5564   20.6568 O   0  0  0  0  0  0  0  0  0131  0  0
  -24.6048  -31.8614   23.2223 C   0  0  0  0  0  0  0  0  0100  0  0
  -25.8822  -32.4841   23.8616 C   0  0  1  0  0  0  0  0  0101  0  0
  -27.2536  -27.5042   20.1156 C   0  0  0  0  0  0  0  0  0102  0  0
  -25.5726  -33.8762   24.2210 N   0  0  0  0  0  0  0  0  0103  0  0
  -23.4066  -30.4859   21.5461 C   0  0  2  0  0  0  0  0  0104  0  0
  -24.8467  -28.9636   20.1247 C   0  0  0  0  0  0  0  0  0105  0  0
  -22.7412  -29.4652   22.5052 C   0  0  0  0  0  0  0  0  0106  0  0
  -18.0167  -28.1302   22.8626 C   0  0  0  0  0  0  0  0  0107  0  0
  -24.1342  -36.7390   23.2568 C   0  0  0  0  0  0  0  0  0108  0  0
  -25.9141  -30.8882   21.3456 C   0  0  0  0  0  0  0  0  0109  0  0
  -25.9930  -29.5029   20.7208 C   0  0  0  0  0  0  0  0  0110  0  0
  -27.1758  -28.7612   20.7331 C   0  0  0  0  0  0  0  0  0111  0  0
  -26.1032  -26.9836   19.5230 C   0  0  0  0  0  0  0  0  0112  0  0
  -24.9097  -27.7011   19.5331 C   0  0  0  0  0  0  0  0  0113  0  0
  -23.5715  -29.7899   20.1582 C   0  0  0  0  0  0  0  0  0114  0  0
  -25.3990  -36.3212   24.0232 C   0  0  1  0  0  0  0  0  0115  0  0
  -20.5793  -28.3813   23.1004 C   0  0  2  0  0  0  0  0  0116  0  0
  -20.6548  -26.9392   22.5411 C   0  0  0  0  0  0  0  0  0117  0  0
  -19.5615  -26.6407   21.5143 C   0  0  0  0  0  0  0  0  0118  0  0
  -18.1797  -26.7818   22.1673 C   0  0  0  0  0  0  0  0  0119  0  0
  -19.1385  -28.8769   23.2988 C   0  0  0  0  0  0  0  0  0120  0  0
  -18.9183  -30.1286   23.8878 C   0  0  0  0  0  0  0  0  0121  0  0
  -17.6396  -30.6493   24.0352 C   0  0  0  0  0  0  0  0  0122  0  0
  -25.9153  -34.9582   23.4993 C   0  0  0  0  0  0  0  0  0123  0  0
  -16.5415  -29.9068   23.6254 C   0  0  0  0  0  0  0  0  0124  0  0
  -16.7331  -28.6521   23.0586 C   0  0  0  0  0  0  0  0  0125  0  0
  -26.4583  -31.6439   25.0683 C   0  0  0  0  0  0  0  0  0126  0  0
  -25.3807  -31.3179   26.1374 C   0  0  0  0  0  0  0  0  0127  0  0
  -27.0530  -30.3024   24.5680 C   0  0  0  0  0  0  0  0  0128  0  0
  -27.6014  -32.4281   25.7651 C   0  0  0  0  0  0  0  0  0129  0  0
  -27.5629  -37.2220   24.8621 C   0  0  0  0  0  0  0  0  0130  0  0
  -21.4133  -29.3375   22.3735 N   0  0  0  0  0  0  0  0  0131  0  0
  -26.4706  -37.3372   23.9061 N   0  0  0  0  0  0  0  0  0132  0  0
  -24.6674  -31.0544   22.1178 N   0  0  0  0  0  0  0  0  0133  0  0
  -23.4259  -28.8150   23.2971 O   0  0  0  0  0  0  0  0  0134  0  0
  -28.3948  -26.7345   20.0089 O   0  0  0  0  0  0  0  0  0135  0  0
  -26.5870  -34.9065   22.4671 O   0  0  0  0  0  0  0  0  0136  0  0
  -23.5365  -32.1254   23.7833 O   0  0  0  0  0  0  0  0  0137  0  0
  -33.2653  -21.8426   22.7373 C   0  0  0  0  0  0  0  0  0  0  0  0
  -34.7841  -20.1758   23.4933 C   0  0  0  0  0  0  0  0  0  0  0  0
  -34.1561  -20.8178   22.4382 C   0  0  0  0  0  0  0  0  0  0  0  0
  -33.0331  -22.1892   24.0637 C   0  0  0  0  0  0  0  0  0  0  0  0
  -33.7112  -21.4857   25.0460 C   0  0  0  0  0  0  0  0  0  0  0  0
  -33.5033  -21.8119   26.4894 C   0  0  0  0  0  0  0  0  0  0  0  0
  -35.8997  -20.6692   20.6294 C   0  0  0  0  0  0  0  0  0  0  0  0
  -30.6858  -27.3901   26.2200 C   0  0  0  0  0  0  0  0  0  0  0  0
  -32.8791  -28.3398   25.4798 C   0  0  0  0  0  0  0  0  0  0  0  0
  -30.2117  -17.5135   22.3178 C   0  0  0  0  0  0  0  0  0  0  0  0
  -32.1063  -26.1623   24.4921 C   0  0  0  0  0  0  0  0  0  0  0  0
  -30.9445  -25.3013   23.9763 C   0  0  0  0  0  0  0  0  0  0  0  0
  -30.2273  -23.1408   22.8913 C   0  0  0  0  0  0  0  0  0  0  0  0
  -34.0593  -18.9542   20.7035 C   0  0  0  0  0  0  0  0  0  0  0  0
  -32.1345  -17.3638   20.6371 C   0  0  0  0  0  0  0  0  0  0  0  0
  -34.4328  -20.4134   20.9950 C   0  0  1  0  0  0  0  0  0  0  0  0
  -31.6563  -27.5275   25.0461 C   0  0  0  0  0  0  0  0  0  0  0  0
  -31.4199  -23.9662   23.3813 C   0  0  2  0  0  0  0  0  0  0  0  0
  -30.6346  -17.2334   20.8816 C   0  0  2  0  0  0  0  0  0  1  0  0
  -34.5840  -20.4844   24.7941 N   0  0  0  0  0  0  0  0  0  0  0  0
  -32.1333  -23.2238   24.3770 N   0  0  0  0  0  0  0  0  0  0  0  0
  -29.4706  -23.8361   21.8741 N   0  0  0  0  0  0  0  0  0  0  0  0
  -32.6118  -18.7299   20.9663 N   0  0  0  0  0  0  0  0  0  0  0  0
  -31.4485  -12.4701   19.0860 H   0  0  0  0  0  0  0  0  0  0  0  0
  -30.3970  -11.2460   19.6950 H   0  0  0  0  0  0  0  0  0  0  0  0
  -29.6870  -11.8204   17.4226 H   0  0  0  0  0  0  0  0  0  0  0  0
  -29.6375  -13.5326   17.8649 H   0  0  0  0  0  0  0  0  0  0  0  0
  -27.7830  -11.3650   18.7904 H   0  0  0  0  0  0  0  0  0  0  0  0
  -27.4028  -12.7801   17.8021 H   0  0  0  0  0  0  0  0  0  0  0  0
  -27.7353  -14.2503   19.6136 H   0  0  0  0  0  0  0  0  0  0  0  0
  -28.5890  -11.9550   21.3832 H   0  0  0  0  0  0  0  0  0  0  0  0
  -28.5005  -13.6134   21.8562 H   0  0  0  0  0  0  0  0  0  0  0  0
  -25.2399   -9.5495   22.4318 H   0  0  0  0  0  0  0  0  0  0  0  0
  -23.9663   -7.5070   22.7297 H   0  0  0  0  0  0  0  0  0  0  0  0
  -21.1515   -8.8641   19.9162 H   0  0  0  0  0  0  0  0  0  0  0  0
  -22.4016  -10.9115   19.6476 H   0  0  0  0  0  0  0  0  0  0  0  0
  -21.2319   -7.5552   23.9750 H   0  0  0  0  0  0  0  0  0  0  0  0
  -21.1589   -6.0228   25.8556 H   0  0  0  0  0  0  0  0  0  0  0  0
  -22.0396   -2.8212   23.2809 H   0  0  0  0  0  0  0  0  0  0  0  0
  -22.4401  -11.9703   22.4008 H   0  0  0  0  0  0  0  0  0  0  0  0
  -21.1493  -13.0679   22.2082 H   0  0  0  0  0  0  0  0  0  0  0  0
  -24.6538  -15.7807   20.5848 H   0  0  0  0  0  0  0  0  0  0  0  0
  -26.2762  -15.5453   20.1156 H   0  0  0  0  0  0  0  0  0  0  0  0
  -26.6778  -32.4663   23.1464 H   0  0  0  0  0  0  0  0  0  0  0  0
  -25.0747  -34.0282   25.0566 H   0  0  0  0  0  0  0  0  0  0  0  0
  -22.7881  -31.3489   21.4131 H   0  0  0  0  0  0  0  0  0  0  0  0
  -23.3854  -35.9823   23.3648 H   0  0  0  0  0  0  0  0  0  0  0  0
  -24.3696  -36.8624   22.2204 H   0  0  0  0  0  0  0  0  0  0  0  0
  -23.7669  -37.6632   23.6516 H   0  0  0  0  0  0  0  0  0  0  0  0
  -25.9445  -31.6237   20.5691 H   0  0  0  0  0  0  0  0  0  0  0  0
  -26.7436  -31.0079   22.0108 H   0  0  0  0  0  0  0  0  0  0  0  0
  -28.0090  -29.1452   21.2057 H   0  0  0  0  0  0  0  0  0  0  0  0
  -26.1369  -26.0560   19.0719 H   0  0  0  0  0  0  0  0  0  0  0  0
  -24.0652  -27.2961   19.0997 H   0  0  0  0  0  0  0  0  0  0  0  0
  -23.6156  -30.5365   19.3930 H   0  0  0  0  0  0  0  0  0  0  0  0
  -22.7355  -29.1425   19.9945 H   0  0  0  0  0  0  0  0  0  0  0  0
  -25.1353  -36.2335   25.0565 H   0  0  0  0  0  0  0  0  0  0  0  0
  -21.0070  -28.3206   24.0793 H   0  0  0  0  0  0  0  0  0  0  0  0
  -20.5555  -26.2518   23.3550 H   0  0  0  0  0  0  0  0  0  0  0  0
  -21.5974  -26.8362   22.0454 H   0  0  0  0  0  0  0  0  0  0  0  0
  -19.6810  -25.6422   21.1488 H   0  0  0  0  0  0  0  0  0  0  0  0
  -19.6406  -27.3343   20.7034 H   0  0  0  0  0  0  0  0  0  0  0  0
  -17.4282  -26.6888   21.4113 H   0  0  0  0  0  0  0  0  0  0  0  0
  -18.0803  -26.0130   22.9049 H   0  0  0  0  0  0  0  0  0  0  0  0
  -19.7265  -30.6774   24.2204 H   0  0  0  0  0  0  0  0  0  0  0  0
  -17.5064  -31.5856   24.4483 H   0  0  0  0  0  0  0  0  0  0  0  0
  -15.5878  -30.2839   23.7407 H   0  0  0  0  0  0  0  0  0  0  0  0
  -15.9120  -28.0941   22.7766 H   0  0  0  0  0  0  0  0  0  0  0  0
  -24.5787  -30.7757   25.6817 H   0  0  0  0  0  0  0  0  0  0  0  0
  -25.0041  -32.2289   26.5536 H   0  0  0  0  0  0  0  0  0  0  0  0
  -25.8166  -30.7245   26.9138 H   0  0  0  0  0  0  0  0  0  0  0  0
  -26.2892  -29.7335   24.0803 H   0  0  0  0  0  0  0  0  0  0  0  0
  -27.4336  -29.7484   25.4006 H   0  0  0  0  0  0  0  0  0  0  0  0
  -27.8466  -30.4994   23.8779 H   0  0  0  0  0  0  0  0  0  0  0  0
  -27.2251  -33.3632   26.1242 H   0  0  0  0  0  0  0  0  0  0  0  0
  -28.3902  -32.6065   25.0645 H   0  0  0  0  0  0  0  0  0  0  0  0
  -27.9772  -31.8555   26.5872 H   0  0  0  0  0  0  0  0  0  0  0  0
  -28.2744  -38.0016   24.6863 H   0  0  0  0  0  0  0  0  0  0  0  0
  -28.0396  -36.2711   24.7461 H   0  0  0  0  0  0  0  0  0  0  0  0
  -27.1773  -37.3087   25.8564 H   0  0  0  0  0  0  0  0  0  0  0  0
  -20.9627  -29.9365   21.7352 H   0  0  0  0  0  0  0  0  0  0  0  0
  -26.0447  -38.2561   24.0273 H   0  0  0  0  0  0  0  0  0  0  0  0
  -32.7784  -22.3440   21.9779 H   0  0  0  0  0  0  0  0  0  0  0  0
  -35.4455  -19.4150   23.2724 H   0  0  0  0  0  0  0  0  0  0  0  0
  -32.7989  -22.6126   26.5762 H   0  0  0  0  0  0  0  0  0  0  0  0
  -34.4345  -22.1071   26.9261 H   0  0  0  0  0  0  0  0  0  0  0  0
  -33.1277  -20.9495   26.9994 H   0  0  0  0  0  0  0  0  0  0  0  0
  -36.1465  -21.6894   20.8375 H   0  0  0  0  0  0  0  0  0  0  0  0
  -36.0474  -20.4717   19.5882 H   0  0  0  0  0  0  0  0  0  0  0  0
  -36.5289  -20.0250   21.2074 H   0  0  0  0  0  0  0  0  0  0  0  0
  -30.4051  -28.3628   26.5664 H   0  0  0  0  0  0  0  0  0  0  0  0
  -31.1602  -26.8519   27.0139 H   0  0  0  0  0  0  0  0  0  0  0  0
  -29.8131  -26.8595   25.9011 H   0  0  0  0  0  0  0  0  0  0  0  0
  -32.5606  -29.2865   25.8635 H   0  0  0  0  0  0  0  0  0  0  0  0
  -33.5217  -28.4940   24.6382 H   0  0  0  0  0  0  0  0  0  0  0  0
  -33.4098  -27.8068   26.2408 H   0  0  0  0  0  0  0  0  0  0  0  0
  -30.3014  -16.6183   22.8971 H   0  0  0  0  0  0  0  0  0  0  0  0
  -29.1951  -17.8469   22.3317 H   0  0  0  0  0  0  0  0  0  0  0  0
  -30.8415  -18.2720   22.7336 H   0  0  0  0  0  0  0  0  0  0  0  0
  -32.7876  -26.3317   23.6846 H   0  0  0  0  0  0  0  0  0  0  0  0
  -32.5615  -25.6279   25.2996 H   0  0  0  0  0  0  0  0  0  0  0  0
  -30.4223  -25.8478   23.2190 H   0  0  0  0  0  0  0  0  0  0  0  0
  -30.3104  -25.0786   24.8089 H   0  0  0  0  0  0  0  0  0  0  0  0
  -29.5840  -22.9362   23.7215 H   0  0  0  0  0  0  0  0  0  0  0  0
  -30.6046  -22.2358   22.4628 H   0  0  0  0  0  0  0  0  0  0  0  0
  -34.6365  -18.3095   21.3329 H   0  0  0  0  0  0  0  0  0  0  0  0
  -34.2637  -18.7411   19.6751 H   0  0  0  0  0  0  0  0  0  0  0  0
  -32.3398  -17.1605   19.6068 H   0  0  0  0  0  0  0  0  0  0  0  0
  -32.6439  -16.6645   21.2667 H   0  0  0  0  0  0  0  0  0  0  0  0
  -33.8048  -21.0263   20.3827 H   0  0  0  0  0  0  0  0  0  0  0  0
  -31.1371  -28.0342   24.2596 H   0  0  0  0  0  0  0  0  0  0  0  0
  -32.0628  -24.1719   22.5511 H   0  0  0  0  0  0  0  0  0  0  0  0
  -30.2937  -16.3484   20.3861 H   0  0  0  0  0  0  0  0  0  0  0  0
  -31.9871  -23.4480   25.3244 H   0  0  0  0  0  0  0  0  0  0  0  0
  -29.0910  -24.6810   21.5405 H   0  0  0  0  0  0  0  0  0  0  0  0
  -32.0790  -19.3972   20.4085 H   0  0  0  0  0  0  0  0  0  0  0  0
  -32.4752  -18.8525   21.9697 H   0  0  0  0  0  0  0  0  0  0  0  0
  1 25  1  0
  1 30  2  0
  1 92  1  0
  2  3  1  0
  2 25  1  0
  2 94  1  0
  2 95  1  0
  3  4  1  0
  3 96  1  0
  3 97  1  0
  4  5  1  0
  4 98  1  0
  4 99  1  0
  5  6  1  0
  5 26  1  0
  5100  1  6
  6 25  1  0
  6101  1  0
  6102  1  0
  7  8  2  0
  7 26  1  0
  7 29  1  0
  8  9  1  0
  8 22  1  0
  9 10  1  0
  9 27  2  0
 10 11  2  0
 10 15  1  0
 11 12  1  0
 11103  1  0
 12 13  2  0
 12104  1  0
 13 14  1  0
 13 31  1  0
 14 15  2  0
 14105  1  0
 15106  1  0
 16 17  2  0
 16 21  1  0
 16 31  1  0
 17 18  1  0
 17107  1  0
 18 19  2  0
 18108  1  0
 19 20  1  0
 19 24  1  0
 20 21  2  0
 20109  1  0
 21 23  1  0
 22 28  1  0
 22 32  2  0
 26 27  1  0
 28110  1  0
 28111  1  0
 29112  1  0
 29113  1  0
 33 34  1  0
 33 66  1  0
 33 70  2  0
 34 36  1  0
 34 59  1  0
 34114  1  6
 35 44  2  0
 35 45  1  0
 35 68  1  0
 36 56  1  0
 36115  1  0
 37 39  1  0
 37 47  1  0
 37 66  1  0
 37116  1  6
 38 43  2  0
 38 46  1  0
 38 47  1  0
 39 64  1  0
 39 67  2  0
 40 52  1  0
 40 53  2  0
 40 58  1  0
 41117  1  0
 41118  1  0
 41119  1  0
 42 43  1  0
 42 66  1  0
 42120  1  0
 42121  1  0
 43 44  1  0
 44122  1  0
 45 46  2  0
 45123  1  0
 46124  1  0
 47125  1  0
 47126  1  0
 48 41  1  0
 48 56  1  0
 48 65  1  0
 48127  1  1
 49 50  1  0
 49 53  1  0
 49 64  1  0
 49128  1  1
 50 51  1  0
 50129  1  0
 50130  1  0
 51 52  1  0
 51131  1  0
 51132  1  0
 52133  1  0
 52134  1  0
 53 54  1  0
 54 55  2  0
 54135  1  0
 55 57  1  0
 55136  1  0
 56 69  2  0
 57 58  2  0
 57137  1  0
 58138  1  0
 59 60  1  0
 59 61  1  0
 59 62  1  0
 60139  1  0
 60140  1  0
 60141  1  0
 61142  1  0
 61143  1  0
 61144  1  0
 62145  1  0
 62146  1  0
 62147  1  0
 63 65  1  0
 63148  1  0
 63149  1  0
 63150  1  0
 64151  1  0
 65152  1  0
 68 89  1  0
 71 73  2  0
 71 74  1  0
 71153  1  0
 72 73  1  0
 72 90  2  0
 72154  1  0
 73 86  1  0
 74 75  2  0
 74 91  1  0
 75 76  1  0
 75 90  1  0
 76155  1  0
 76156  1  0
 76157  1  0
 77158  1  0
 77159  1  0
 77160  1  0
 78161  1  0
 78162  1  0
 78163  1  0
 79 87  1  0
 79164  1  0
 79165  1  0
 79166  1  0
 80167  1  0
 80168  1  0
 80169  1  0
 81 82  1  0
 81 87  1  0
 81170  1  0
 81171  1  0
 82172  1  0
 82173  1  0
 83 88  1  0
 83 92  1  0
 83174  1  0
 83175  1  0
 84 86  1  0
 84 93  1  0
 84176  1  0
 84177  1  0
 85 89  1  0
 85 93  1  0
 85178  1  0
 85179  1  0
 86 77  1  0
 86180  1  6
 87 78  1  0
 87181  1  0
 88 82  1  0
 88 91  1  0
 88182  1  6
 89 80  1  0
 89183  1  6
 91184  1  0
 92185  1  0
 93186  1  0
 93187  1  0
M  CHG  1  93   1
M  ISO  4   1 100  68 101  89 101  92 100
M  END
$$$$
67
     RDKit          3D

153161  0  0  0  0  0  0  0  0999 V2000
  -30.7652  -14.3608   20.6636 C   0  0  0  0  0  0  0  0  0100  0  0
  -30.4392  -12.2669   19.3775 C   0  0  0  0  0  0  0  0  0101  0  0
  -29.4791  -12.5281   18.1977 C   0  0  0  0  0  0  0  0  0102  0  0
  -27.9985  -12.3963   18.6038 C   0  0  0  0  0  0  0  0  0103  0  0
  -27.6639  -13.2170   19.8820 C   0  0  2  0  0  0  0  0  0104  0  0
  -28.6795  -12.9602   21.0279 C   0  0  0  0  0  0  0  0  0105  0  0
  -25.2633  -13.8245   20.5754 C   0  0  0  0  0  0  0  0  0106  0  0
  -24.1645  -13.0409   20.9408 C   0  0  0  0  0  0  0  0  0107  0  0
  -24.6400  -11.7009   20.8697 C   0  0  0  0  0  0  0  0  0108  0  0
  -23.9005  -10.4085   21.0420 C   0  0  0  0  0  0  0  0  0109  0  0
  -24.3588   -9.4123   21.9123 C   0  0  0  0  0  0  0  0  0110  0  0
  -23.6296   -8.2350   22.0803 C   0  0  0  0  0  0  0  0  0111  0  0
  -22.4385   -8.0419   21.3657 C   0  0  0  0  0  0  0  0  0112  0  0
  -22.0103   -9.0167   20.4678 C   0  0  0  0  0  0  0  0  0113  0  0
  -22.7317  -10.1925   20.3102 C   0  0  0  0  0  0  0  0  0114  0  0
  -21.6857   -6.0709   22.5391 C   0  0  0  0  0  0  0  0  0115  0  0
  -21.4064   -6.5490   23.8264 C   0  0  0  0  0  0  0  0  0116  0  0
  -21.3635   -5.6677   24.9085 C   0  0  0  0  0  0  0  0  0117  0  0
  -21.5973   -4.3067   24.7088 C   0  0  0  0  0  0  0  0  0118  0  0
  -21.8700   -3.8284   23.4282 C   0  0  0  0  0  0  0  0  0119  0  0
  -21.9144   -4.7056   22.3460 C   0  0  0  0  0  0  0  0  0120  0  0
  -22.8194  -13.5263   21.1763 C   0  0  0  0  0  0  0  0  0121  0  0
  -22.1559   -4.2206   21.1063 F   0  0  0  0  0  0  0  0  0122  0  0
  -21.5628   -3.4510   25.7555 F   0  0  0  0  0  0  0  0  0123  0  0
  -30.0261  -13.1803   20.4553 N   0  0  0  0  0  0  0  0  0124  0  0
  -26.2911  -12.9356   20.3443 N   0  0  0  0  0  0  0  0  0125  0  0
  -25.9236  -11.6675   20.5847 N   0  0  0  0  0  0  0  0  0126  0  0
  -22.0708  -12.7905   22.0005 N   0  0  0  0  0  0  0  0  0127  0  0
  -25.4117  -15.1773   20.4097 N   0  0  0  0  0  0  0  0  0128  0  0
  -31.7916  -14.6724   20.0536 O   0  0  0  0  0  0  0  0  0129  0  0
  -21.6670   -6.9022   21.4423 O   0  0  0  0  0  0  0  0  0130  0  0
  -22.3946  -14.5564   20.6568 O   0  0  0  0  0  0  0  0  0131  0  0
  -24.6048  -31.8614   23.2223 C   0  0  0  0  0  0  0  0  0100  0  0
  -25.8822  -32.4841   23.8616 C   0  0  1  0  0  0  0  0  0101  0  0
  -27.2536  -27.5042   20.1156 C   0  0  0  0  0  0  0  0  0102  0  0
  -25.5726  -33.8762   24.2210 N   0  0  0  0  0  0  0  0  0103  0  0
  -23.4066  -30.4859   21.5461 C   0  0  2  0  0  0  0  0  0104  0  0
  -24.8467  -28.9636   20.1247 C   0  0  0  0  0  0  0  0  0105  0  0
  -22.7412  -29.4652   22.5052 C   0  0  0  0  0  0  0  0  0106  0  0
  -18.0167  -28.1302   22.8626 C   0  0  0  0  0  0  0  0  0107  0  0
  -24.1342  -36.7390   23.2568 C   0  0  0  0  0  0  0  0  0108  0  0
  -25.9141  -30.8882   21.3456 C   0  0  0  0  0  0  0  0  0109  0  0
  -25.9930  -29.5029   20.7208 C   0  0  0  0  0  0  0  0  0110  0  0
  -27.1758  -28.7612   20.7331 C   0  0  0  0  0  0  0  0  0111  0  0
  -26.1032  -26.9836   19.5230 C   0  0  0  0  0  0  0  0  0112  0  0
  -24.9097  -27.7011   19.5331 C   0  0  0  0  0  0  0  0  0113  0  0
  -23.5715  -29.7899   20.1582 C   0  0  0  0  0  0  0  0  0114  0  0
  -25.3990  -36.3212   24.0232 C   0  0  1  0  0  0  0  0  0115  0  0
  -20.5793  -28.3813   23.1004 C   0  0  2  0  0  0  0  0  0116  0  0
  -20.6548  -26.9392   22.5411 C   0  0  0  0  0  0  0  0  0117  0  0
  -19.5615  -26.6407   21.5143 C   0  0  0  0  0  0  0  0  0118  0  0
  -18.1797  -26.7818   22.1673 C   0  0  0  0  0  0  0  0  0119  0  0
  -19.1385  -28.8769   23.2988 C   0  0  0  0  0  0  0  0  0120  0  0
  -18.9183  -30.1286   23.8878 C   0  0  0  0  0  0  0  0  0121  0  0
  -17.6396  -30.6493   24.0352 C   0  0  0  0  0  0  0  0  0122  0  0
  -25.9153  -34.9582   23.4993 C   0  0  0  0  0  0  0  0  0123  0  0
  -16.5415  -29.9068   23.6254 C   0  0  0  0  0  0  0  0  0124  0  0
  -16.7331  -28.6521   23.0586 C   0  0  0  0  0  0  0  0  0125  0  0
  -26.4583  -31.6439   25.0683 C   0  0  0  0  0  0  0  0  0126  0  0
  -25.3807  -31.3179   26.1374 C   0  0  0  0  0  0  0  0  0127  0  0
  -27.0530  -30.3024   24.5680 C   0  0  0  0  0  0  0  0  0128  0  0
  -27.6014  -32.4281   25.7651 C   0  0  0  0  0  0  0  0  0129  0  0
  -27.5629  -37.2220   24.8621 C   0  0  0  0  0  0  0  0  0130  0  0
  -21.4133  -29.3375   22.3735 N   0  0  0  0  0  0  0  0  0131  0  0
  -26.4706  -37.3372   23.9061 N   0  0  0  0  0  0  0  0  0132  0  0
  -24.6674  -31.0544   22.1178 N   0  0  0  0  0  0  0  0  0133  0  0
  -23.4259  -28.8150   23.2971 O   0  0  0  0  0  0  0  0  0134  0  0
  -28.3948  -26.7345   20.0089 O   0  0  0  0  0  0  0  0  0135  0  0
  -26.5870  -34.9065   22.4671 O   0  0  0  0  0  0  0  0  0136  0  0
  -23.5365  -32.1254   23.7833 O   0  0  0  0  0  0  0  0  0137  0  0
  -18.9194  -23.9291   20.7773 C   0  0  0  0  0  0  0  0  0  0  0  0
  -19.8420  -24.5439   22.7371 C   0  0  0  0  0  0  0  0  0  0  0  0
  -19.8250  -23.5394   21.7947 C   0  0  0  0  0  0  0  0  0  0  0  0
  -18.4106  -25.1599   21.1288 C   0  0  0  0  0  0  0  0  0  0  0  0
  -20.6004  -22.3355   21.8719 C   0  0  0  0  0  0  0  0  0  0  0  0
  -17.4325  -26.0169   20.4273 C   0  0  0  0  0  0  0  0  0  0  0  0
  -21.5391  -22.0909   23.0717 C   0  0  0  0  0  0  0  0  0  0  0  0
  -18.7064  -26.8018   23.0775 C   0  0  0  0  0  0  0  0  0  0  0  0
  -19.8361  -27.8151   22.9292 C   0  0  0  0  0  0  0  0  0  1  0  0
  -18.9787  -25.5239   22.3217 N   0  0  0  0  0  0  0  0  0  0  0  0
  -22.6713  -21.2797   22.6834 N   0  0  0  0  0  0  0  0  0  0  0  0
  -20.5095  -21.4422   20.9927 O   0  0  0  0  0  0  0  0  0  0  0  0
  -31.4485  -12.4701   19.0860 H   0  0  0  0  0  0  0  0  0  0  0  0
  -30.3970  -11.2460   19.6950 H   0  0  0  0  0  0  0  0  0  0  0  0
  -29.6870  -11.8204   17.4226 H   0  0  0  0  0  0  0  0  0  0  0  0
  -29.6375  -13.5326   17.8649 H   0  0  0  0  0  0  0  0  0  0  0  0
  -27.7830  -11.3650   18.7904 H   0  0  0  0  0  0  0  0  0  0  0  0
  -27.4028  -12.7801   17.8021 H   0  0  0  0  0  0  0  0  0  0  0  0
  -27.7353  -14.2503   19.6136 H   0  0  0  0  0  0  0  0  0  0  0  0
  -28.5890  -11.9550   21.3832 H   0  0  0  0  0  0  0  0  0  0  0  0
  -28.5005  -13.6134   21.8562 H   0  0  0  0  0  0  0  0  0  0  0  0
  -25.2399   -9.5495   22.4318 H   0  0  0  0  0  0  0  0  0  0  0  0
  -23.9663   -7.5070   22.7297 H   0  0  0  0  0  0  0  0  0  0  0  0
  -21.1515   -8.8641   19.9162 H   0  0  0  0  0  0  0  0  0  0  0  0
  -22.4016  -10.9115   19.6476 H   0  0  0  0  0  0  0  0  0  0  0  0
  -21.2319   -7.5552   23.9750 H   0  0  0  0  0  0  0  0  0  0  0  0
  -21.1589   -6.0228   25.8556 H   0  0  0  0  0  0  0  0  0  0  0  0
  -22.0396   -2.8212   23.2809 H   0  0  0  0  0  0  0  0  0  0  0  0
  -22.4401  -11.9703   22.4008 H   0  0  0  0  0  0  0  0  0  0  0  0
  -21.1493  -13.0679   22.2082 H   0  0  0  0  0  0  0  0  0  0  0  0
  -24.6538  -15.7807   20.5848 H   0  0  0  0  0  0  0  0  0  0  0  0
  -26.2762  -15.5453   20.1156 H   0  0  0  0  0  0  0  0  0  0  0  0
  -26.6778  -32.4663   23.1464 H   0  0  0  0  0  0  0  0  0  0  0  0
  -25.0747  -34.0282   25.0566 H   0  0  0  0  0  0  0  0  0  0  0  0
  -22.7881  -31.3489   21.4131 H   0  0  0  0  0  0  0  0  0  0  0  0
  -23.3854  -35.9823   23.3648 H   0  0  0  0  0  0  0  0  0  0  0  0
  -24.3696  -36.8624   22.2204 H   0  0  0  0  0  0  0  0  0  0  0  0
  -23.7669  -37.6632   23.6516 H   0  0  0  0  0  0  0  0  0  0  0  0
  -25.9445  -31.6237   20.5691 H   0  0  0  0  0  0  0  0  0  0  0  0
  -26.7436  -31.0079   22.0108 H   0  0  0  0  0  0  0  0  0  0  0  0
  -28.0090  -29.1452   21.2057 H   0  0  0  0  0  0  0  0  0  0  0  0
  -26.1369  -26.0560   19.0719 H   0  0  0  0  0  0  0  0  0  0  0  0
  -24.0652  -27.2961   19.0997 H   0  0  0  0  0  0  0  0  0  0  0  0
  -23.6156  -30.5365   19.3930 H   0  0  0  0  0  0  0  0  0  0  0  0
  -22.7355  -29.1425   19.9945 H   0  0  0  0  0  0  0  0  0  0  0  0
  -25.1353  -36.2335   25.0565 H   0  0  0  0  0  0  0  0  0  0  0  0
  -21.0070  -28.3206   24.0793 H   0  0  0  0  0  0  0  0  0  0  0  0
  -20.5555  -26.2518   23.3550 H   0  0  0  0  0  0  0  0  0  0  0  0
  -21.5974  -26.8362   22.0454 H   0  0  0  0  0  0  0  0  0  0  0  0
  -19.6810  -25.6422   21.1488 H   0  0  0  0  0  0  0  0  0  0  0  0
  -19.6406  -27.3343   20.7034 H   0  0  0  0  0  0  0  0  0  0  0  0
  -17.4282  -26.6888   21.4113 H   0  0  0  0  0  0  0  0  0  0  0  0
  -18.0803  -26.0130   22.9049 H   0  0  0  0  0  0  0  0  0  0  0  0
  -19.7265  -30.6774   24.2204 H   0  0  0  0  0  0  0  0  0  0  0  0
  -17.5064  -31.5856   24.4483 H   0  0  0  0  0  0  0  0  0  0  0  0
  -15.5878  -30.2839   23.7407 H   0  0  0  0  0  0  0  0  0  0  0  0
  -15.9120  -28.0941   22.7766 H   0  0  0  0  0  0  0  0  0  0  0  0
  -24.5787  -30.7757   25.6817 H   0  0  0  0  0  0  0  0  0  0  0  0
  -25.0041  -32.2289   26.5536 H   0  0  0  0  0  0  0  0  0  0  0  0
  -25.8166  -30.7245   26.9138 H   0  0  0  0  0  0  0  0  0  0  0  0
  -26.2892  -29.7335   24.0803 H   0  0  0  0  0  0  0  0  0  0  0  0
  -27.4336  -29.7484   25.4006 H   0  0  0  0  0  0  0  0  0  0  0  0
  -27.8466  -30.4994   23.8779 H   0  0  0  0  0  0  0  0  0  0  0  0
  -27.2251  -33.3632   26.1242 H   0  0  0  0  0  0  0  0  0  0  0  0
  -28.3902  -32.6065   25.0645 H   0  0  0  0  0  0  0  0  0  0  0  0
  -27.9772  -31.8555   26.5872 H   0  0  0  0  0  0  0  0  0  0  0  0
  -28.2744  -38.0016   24.6863 H   0  0  0  0  0  0  0  0  0  0  0  0
  -28.0396  -36.2711   24.7461 H   0  0  0  0  0  0  0  0  0  0  0  0
  -27.1773  -37.3087   25.8564 H   0  0  0  0  0  0  0  0  0  0  0  0
  -20.9627  -29.9365   21.7352 H   0  0  0  0  0  0  0  0  0  0  0  0
  -26.0447  -38.2561   24.0273 H   0  0  0  0  0  0  0  0  0  0  0  0
  -18.6843  -23.3902   19.9292 H   0  0  0  0  0  0  0  0  0  0  0  0
  -20.4047  -24.5563   23.6021 H   0  0  0  0  0  0  0  0  0  0  0  0
  -17.1233  -25.5378   19.5219 H   0  0  0  0  0  0  0  0  0  0  0  0
  -17.8847  -26.9587   20.1960 H   0  0  0  0  0  0  0  0  0  0  0  0
  -16.5812  -26.1748   21.0560 H   0  0  0  0  0  0  0  0  0  0  0  0
  -20.9962  -21.5879   23.8445 H   0  0  0  0  0  0  0  0  0  0  0  0
  -21.8993  -23.0355   23.4224 H   0  0  0  0  0  0  0  0  0  0  0  0
  -17.8031  -27.2367   22.7036 H   0  0  0  0  0  0  0  0  0  0  0  0
  -18.6220  -26.5560   24.1155 H   0  0  0  0  0  0  0  0  0  0  0  0
  -19.9474  -28.2245   23.9115 H   0  0  0  0  0  0  0  0  0  0  0  0
  -19.4580  -28.3152   22.0621 H   0  0  0  0  0  0  0  0  0  0  0  0
  -22.9721  -21.9223   22.0008 H   0  0  0  0  0  0  0  0  0  0  0  0
  1 25  1  0
  1 30  2  0
  1 81  1  0
  2  3  1  0
  2 25  1  0
  2 83  1  0
  2 84  1  0
  3  4  1  0
  3 85  1  0
  3 86  1  0
  4  5  1  0
  4 87  1  0
  4 88  1  0
  5  6  1  0
  5 26  1  0
  5 89  1  6
  6 25  1  0
  6 90  1  0
  6 91  1  0
  7  8  2  0
  7 26  1  0
  7 29  1  0
  8  9  1  0
  8 22  1  0
  9 10  1  0
  9 27  2  0
 10 11  2  0
 10 15  1  0
 11 12  1  0
 11 92  1  0
 12 13  2  0
 12 93  1  0
 13 14  1  0
 13 31  1  0
 14 15  2  0
 14 94  1  0
 15 95  1  0
 16 17  2  0
 16 21  1  0
 16 31  1  0
 17 18  1  0
 17 96  1  0
 18 19  2  0
 18 97  1  0
 19 20  1  0
 19 24  1  0
 20 21  2  0
 20 98  1  0
 21 23  1  0
 22 28  1  0
 22 32  2  0
 26 27  1  0
 28 99  1  0
 28100  1  0
 29101  1  0
 29102  1  0
 33 34  1  0
 33 66  1  0
 33 70  2  0
 34 36  1  0
 34 59  1  0
 34103  1  6
 35 44  2  0
 35 45  1  0
 35 68  1  0
 36 56  1  0
 36104  1  0
 37 39  1  0
 37 47  1  0
 37 66  1  0
 37105  1  6
 38 43  2  0
 38 46  1  0
 38 47  1  0
 39 64  1  0
 39 67  2  0
 40 52  1  0
 40 53  2  0
 40 58  1  0
 41106  1  0
 41107  1  0
 41108  1  0
 42 43  1  0
 42 66  1  0
 42109  1  0
 42110  1  0
 43 44  1  0
 44111  1  0
 45 46  2  0
 45112  1  0
 46113  1  0
 47114  1  0
 47115  1  0
 48 41  1  0
 48 56  1  0
 48 65  1  0
 48116  1  1
 49 50  1  0
 49 53  1  0
 49 64  1  0
 49117  1  1
 50 51  1  0
 50118  1  0
 50119  1  0
 51 52  1  0
 51120  1  0
 51121  1  0
 52122  1  0
 52123  1  0
 53 54  1  0
 54 55  2  0
 54124  1  0
 55 57  1  0
 55125  1  0
 56 69  2  0
 57 58  2  0
 57126  1  0
 58127  1  0
 59 60  1  0
 59 61  1  0
 59 62  1  0
 60128  1  0
 60129  1  0
 60130  1  0
 61131  1  0
 61132  1  0
 61133  1  0
 62134  1  0
 62135  1  0
 62136  1  0
 63 65  1  0
 63137  1  0
 63138  1  0
 63139  1  0
 64140  1  0
 65141  1  0
 68 79  1  0
 71 73  1  0
 71 74  2  0
 71142  1  0
 72 73  2  0
 72 80  1  0
 72143  1  0
 73 75  1  0
 74 76  1  0
 74 80  1  0
 75 77  1  0
 75 82  2  0
 76144  1  0
 76145  1  0
 76146  1  0
 77 81  1  0
 77147  1  0
 77148  1  0
 78 79  1  0
 78 80  1  0
 78149  1  0
 78150  1  0
 79151  1  0
 79152  1  0
 81153  1  0
M  ISO  4   1 100  68 101  79 101  81 100
M  END
$$$$
68
     RDKit          3D

171179  0  0  0  0  0  0  0  0999 V2000
  -30.7652  -14.3608   20.6636 C   0  0  0  0  0  0  0  0  0100  0  0
  -30.4392  -12.2669   19.3775 C   0  0  0  0  0  0  0  0  0101  0  0
  -29.4791  -12.5281   18.1977 C   0  0  0  0  0  0  0  0  0102  0  0
  -27.9985  -12.3963   18.6038 C   0  0  0  0  0  0  0  0  0103  0  0
  -27.6639  -13.2170   19.8820 C   0  0  2  0  0  0  0  0  0104  0  0
  -28.6795  -12.9602   21.0279 C   0  0  0  0  0  0  0  0  0105  0  0
  -25.2633  -13.8245   20.5754 C   0  0  0  0  0  0  0  0  0106  0  0
  -24.1645  -13.0409   20.9408 C   0  0  0  0  0  0  0  0  0107  0  0
  -24.6400  -11.7009   20.8697 C   0  0  0  0  0  0  0  0  0108  0  0
  -23.9005  -10.4085   21.0420 C   0  0  0  0  0  0  0  0  0109  0  0
  -24.3588   -9.4123   21.9123 C   0  0  0  0  0  0  0  0  0110  0  0
  -23.6296   -8.2350   22.0803 C   0  0  0  0  0  0  0  0  0111  0  0
  -22.4385   -8.0419   21.3657 C   0  0  0  0  0  0  0  0  0112  0  0
  -22.0103   -9.0167   20.4678 C   0  0  0  0  0  0  0  0  0113  0  0
  -22.7317  -10.1925   20.3102 C   0  0  0  0  0  0  0  0  0114  0  0
  -21.6857   -6.0709   22.5391 C   0  0  0  0  0  0  0  0  0115  0  0
  -21.4064   -6.5490   23.8264 C   0  0  0  0  0  0  0  0  0116  0  0
  -21.3635   -5.6677   24.9085 C   0  0  0  0  0  0  0  0  0117  0  0
  -21.5973   -4.3067   24.7088 C   0  0  0  0  0  0  0  0  0118  0  0
  -21.8700   -3.8284   23.4282 C   0  0  0  0  0  0  0  0  0119  0  0
  -21.9144   -4.7056   22.3460 C   0  0  0  0  0  0  0  0  0120  0  0
  -22.8194  -13.5263   21.1763 C   0  0  0  0  0  0  0  0  0121  0  0
  -22.1559   -4.2206   21.1063 F   0  0  0  0  0  0  0  0  0122  0  0
  -21.5628   -3.4510   25.7555 F   0  0  0  0  0  0  0  0  0123  0  0
  -30.0261  -13.1803   20.4553 N   0  0  0  0  0  0  0  0  0124  0  0
  -26.2911  -12.9356   20.3443 N   0  0  0  0  0  0  0  0  0125  0  0
  -25.9236  -11.6675   20.5847 N   0  0  0  0  0  0  0  0  0126  0  0
  -22.0708  -12.7905   22.0005 N   0  0  0  0  0  0  0  0  0127  0  0
  -25.4117  -15.1773   20.4097 N   0  0  0  0  0  0  0  0  0128  0  0
  -31.7916  -14.6724   20.0536 O   0  0  0  0  0  0  0  0  0129  0  0
  -21.6670   -6.9022   21.4423 O   0  0  0  0  0  0  0  0  0130  0  0
  -22.3946  -14.5564   20.6568 O   0  0  0  0  0  0  0  0  0131  0  0
  -24.6048  -31.8614   23.2223 C   0  0  0  0  0  0  0  0  0100  0  0
  -25.8822  -32.4841   23.8616 C   0  0  1  0  0  0  0  0  0101  0  0
  -27.2536  -27.5042   20.1156 C   0  0  0  0  0  0  0  0  0102  0  0
  -25.5726  -33.8762   24.2210 N   0  0  0  0  0  0  0  0  0103  0  0
  -23.4066  -30.4859   21.5461 C   0  0  2  0  0  0  0  0  0104  0  0
  -24.8467  -28.9636   20.1247 C   0  0  0  0  0  0  0  0  0105  0  0
  -22.7412  -29.4652   22.5052 C   0  0  0  0  0  0  0  0  0106  0  0
  -18.0167  -28.1302   22.8626 C   0  0  0  0  0  0  0  0  0107  0  0
  -24.1342  -36.7390   23.2568 C   0  0  0  0  0  0  0  0  0108  0  0
  -25.9141  -30.8882   21.3456 C   0  0  0  0  0  0  0  0  0109  0  0
  -25.9930  -29.5029   20.7208 C   0  0  0  0  0  0  0  0  0110  0  0
  -27.1758  -28.7612   20.7331 C   0  0  0  0  0  0  0  0  0111  0  0
  -26.1032  -26.9836   19.5230 C   0  0  0  0  0  0  0  0  0112  0  0
  -24.9097  -27.7011   19.5331 C   0  0  0  0  0  0  0  0  0113  0  0
  -23.5715  -29.7899   20.1582 C   0  0  0  0  0  0  0  0  0114  0  0
  -25.3990  -36.3212   24.0232 C   0  0  1  0  0  0  0  0  0115  0  0
  -20.5793  -28.3813   23.1004 C   0  0  2  0  0  0  0  0  0116  0  0
  -20.6548  -26.9392   22.5411 C   0  0  0  0  0  0  0  0  0117  0  0
  -19.5615  -26.6407   21.5143 C   0  0  0  0  0  0  0  0  0118  0  0
  -18.1797  -26.7818   22.1673 C   0  0  0  0  0  0  0  0  0119  0  0
  -19.1385  -28.8769   23.2988 C   0  0  0  0  0  0  0  0  0120  0  0
  -18.9183  -30.1286   23.8878 C   0  0  0  0  0  0  0  0  0121  0  0
  -17.6396  -30.6493   24.0352 C   0  0  0  0  0  0  0  0  0122  0  0
  -25.9153  -34.9582   23.4993 C   0  0  0  0  0  0  0  0  0123  0  0
  -16.5415  -29.9068   23.6254 C   0  0  0  0  0  0  0  0  0124  0  0
  -16.7331  -28.6521   23.0586 C   0  0  0  0  0  0  0  0  0125  0  0
  -26.4583  -31.6439   25.0683 C   0  0  0  0  0  0  0  0  0126  0  0
  -25.3807  -31.3179   26.1374 C   0  0  0  0  0  0  0  0  0127  0  0
  -27.0530  -30.3024   24.5680 C   0  0  0  0  0  0  0  0  0128  0  0
  -27.6014  -32.4281   25.7651 C   0  0  0  0  0  0  0  0  0129  0  0
  -27.5629  -37.2220   24.8621 C   0  0  0  0  0  0  0  0  0130  0  0
  -21.4133  -29.3375   22.3735 N   0  0  0  0  0  0  0  0  0131  0  0
  -26.4706  -37.3372   23.9061 N   0  0  0  0  0  0  0  0  0132  0  0
  -24.6674  -31.0544   22.1178 N   0  0  0  0  0  0  0  0  0133  0  0
  -23.4259  -28.8150   23.2971 O   0  0  0  0  0  0  0  0  0134  0  0
  -28.3948  -26.7345   20.0089 O   0  0  0  0  0  0  0  0  0135  0  0
  -26.5870  -34.9065   22.4671 O   0  0  0  0  0  0  0  0  0136  0  0
  -23.5365  -32.1254   23.7833 O   0  0  0  0  0  0  0  0  0137  0  0
  -25.1573  -19.5012   21.9743 C   0  0  0  0  0  0  0  0  0  0  0  0
  -27.6377  -19.5722   22.4448 C   0  0  0  0  0  0  0  0  0  0  0  0
  -24.9804  -18.5139   23.1183 C   0  0  0  0  0  0  0  0  0  0  0  0
  -27.4379  -18.5840   23.5843 C   0  0  0  0  0  0  0  0  0  0  0  0
  -26.5620  -19.4120   21.3608 C   0  0  0  0  0  0  0  0  0  0  0  0
  -28.5785  -18.1496   17.9234 C   0  0  0  0  0  0  0  0  0  0  0  0
  -26.6103  -19.5658   17.2086 C   0  0  0  0  0  0  0  0  0  0  0  0
  -27.1339  -21.8194   20.8359 C   0  0  0  0  0  0  0  0  0  0  0  0
  -26.0656  -18.5804   16.1756 C   0  0  0  0  0  0  0  0  0  0  0  0
  -27.2492  -22.9183   19.7852 C   0  0  0  0  0  0  0  0  0  1  0  0
  -26.7406  -20.4569   20.2615 C   0  0  1  0  0  0  0  0  0  0  0  0
  -27.3499  -18.9212   18.3882 C   0  0  2  0  0  0  0  0  0  0  0  0
  -25.1491  -17.6216   16.7513 N   0  0  0  0  0  0  0  0  0  0  0  0
  -26.0564  -18.7345   24.1294 N   0  0  0  0  0  0  0  0  0  0  0  0
  -27.8023  -19.9726   19.3359 N   0  0  0  0  0  0  0  0  0  0  0  0
  -31.4485  -12.4701   19.0860 H   0  0  0  0  0  0  0  0  0  0  0  0
  -30.3970  -11.2460   19.6950 H   0  0  0  0  0  0  0  0  0  0  0  0
  -29.6870  -11.8204   17.4226 H   0  0  0  0  0  0  0  0  0  0  0  0
  -29.6375  -13.5326   17.8649 H   0  0  0  0  0  0  0  0  0  0  0  0
  -27.7830  -11.3650   18.7904 H   0  0  0  0  0  0  0  0  0  0  0  0
  -27.4028  -12.7801   17.8021 H   0  0  0  0  0  0  0  0  0  0  0  0
  -27.7353  -14.2503   19.6136 H   0  0  0  0  0  0  0  0  0  0  0  0
  -28.5890  -11.9550   21.3832 H   0  0  0  0  0  0  0  0  0  0  0  0
  -28.5005  -13.6134   21.8562 H   0  0  0  0  0  0  0  0  0  0  0  0
  -25.2399   -9.5495   22.4318 H   0  0  0  0  0  0  0  0  0  0  0  0
  -23.9663   -7.5070   22.7297 H   0  0  0  0  0  0  0  0  0  0  0  0
  -21.1515   -8.8641   19.9162 H   0  0  0  0  0  0  0  0  0  0  0  0
  -22.4016  -10.9115   19.6476 H   0  0  0  0  0  0  0  0  0  0  0  0
  -21.2319   -7.5552   23.9750 H   0  0  0  0  0  0  0  0  0  0  0  0
  -21.1589   -6.0228   25.8556 H   0  0  0  0  0  0  0  0  0  0  0  0
  -22.0396   -2.8212   23.2809 H   0  0  0  0  0  0  0  0  0  0  0  0
  -22.4401  -11.9703   22.4008 H   0  0  0  0  0  0  0  0  0  0  0  0
  -21.1493  -13.0679   22.2082 H   0  0  0  0  0  0  0  0  0  0  0  0
  -24.6538  -15.7807   20.5848 H   0  0  0  0  0  0  0  0  0  0  0  0
  -26.2762  -15.5453   20.1156 H   0  0  0  0  0  0  0  0  0  0  0  0
  -26.6778  -32.4663   23.1464 H   0  0  0  0  0  0  0  0  0  0  0  0
  -25.0747  -34.0282   25.0566 H   0  0  0  0  0  0  0  0  0  0  0  0
  -22.7881  -31.3489   21.4131 H   0  0  0  0  0  0  0  0  0  0  0  0
  -23.3854  -35.9823   23.3648 H   0  0  0  0  0  0  0  0  0  0  0  0
  -24.3696  -36.8624   22.2204 H   0  0  0  0  0  0  0  0  0  0  0  0
  -23.7669  -37.6632   23.6516 H   0  0  0  0  0  0  0  0  0  0  0  0
  -25.9445  -31.6237   20.5691 H   0  0  0  0  0  0  0  0  0  0  0  0
  -26.7436  -31.0079   22.0108 H   0  0  0  0  0  0  0  0  0  0  0  0
  -28.0090  -29.1452   21.2057 H   0  0  0  0  0  0  0  0  0  0  0  0
  -26.1369  -26.0560   19.0719 H   0  0  0  0  0  0  0  0  0  0  0  0
  -24.0652  -27.2961   19.0997 H   0  0  0  0  0  0  0  0  0  0  0  0
  -23.6156  -30.5365   19.3930 H   0  0  0  0  0  0  0  0  0  0  0  0
  -22.7355  -29.1425   19.9945 H   0  0  0  0  0  0  0  0  0  0  0  0
  -25.1353  -36.2335   25.0565 H   0  0  0  0  0  0  0  0  0  0  0  0
  -21.0070  -28.3206   24.0793 H   0  0  0  0  0  0  0  0  0  0  0  0
  -20.5555  -26.2518   23.3550 H   0  0  0  0  0  0  0  0  0  0  0  0
  -21.5974  -26.8362   22.0454 H   0  0  0  0  0  0  0  0  0  0  0  0
  -19.6810  -25.6422   21.1488 H   0  0  0  0  0  0  0  0  0  0  0  0
  -19.6406  -27.3343   20.7034 H   0  0  0  0  0  0  0  0  0  0  0  0
  -17.4282  -26.6888   21.4113 H   0  0  0  0  0  0  0  0  0  0  0  0
  -18.0803  -26.0130   22.9049 H   0  0  0  0  0  0  0  0  0  0  0  0
  -19.7265  -30.6774   24.2204 H   0  0  0  0  0  0  0  0  0  0  0  0
  -17.5064  -31.5856   24.4483 H   0  0  0  0  0  0  0  0  0  0  0  0
  -15.5878  -30.2839   23.7407 H   0  0  0  0  0  0  0  0  0  0  0  0
  -15.9120  -28.0941   22.7766 H   0  0  0  0  0  0  0  0  0  0  0  0
  -24.5787  -30.7757   25.6817 H   0  0  0  0  0  0  0  0  0  0  0  0
  -25.0041  -32.2289   26.5536 H   0  0  0  0  0  0  0  0  0  0  0  0
  -25.8166  -30.7245   26.9138 H   0  0  0  0  0  0  0  0  0  0  0  0
  -26.2892  -29.7335   24.0803 H   0  0  0  0  0  0  0  0  0  0  0  0
  -27.4336  -29.7484   25.4006 H   0  0  0  0  0  0  0  0  0  0  0  0
  -27.8466  -30.4994   23.8779 H   0  0  0  0  0  0  0  0  0  0  0  0
  -27.2251  -33.3632   26.1242 H   0  0  0  0  0  0  0  0  0  0  0  0
  -28.3902  -32.6065   25.0645 H   0  0  0  0  0  0  0  0  0  0  0  0
  -27.9772  -31.8555   26.5872 H   0  0  0  0  0  0  0  0  0  0  0  0
  -28.2744  -38.0016   24.6863 H   0  0  0  0  0  0  0  0  0  0  0  0
  -28.0396  -36.2711   24.7461 H   0  0  0  0  0  0  0  0  0  0  0  0
  -27.1773  -37.3087   25.8564 H   0  0  0  0  0  0  0  0  0  0  0  0
  -20.9627  -29.9365   21.7352 H   0  0  0  0  0  0  0  0  0  0  0  0
  -26.0447  -38.2561   24.0273 H   0  0  0  0  0  0  0  0  0  0  0  0
  -25.0029  -20.4930   22.3449 H   0  0  0  0  0  0  0  0  0  0  0  0
  -24.4445  -19.2616   21.2131 H   0  0  0  0  0  0  0  0  0  0  0  0
  -28.5996  -19.4064   22.0064 H   0  0  0  0  0  0  0  0  0  0  0  0
  -27.5646  -20.5621   22.8443 H   0  0  0  0  0  0  0  0  0  0  0  0
  -25.0434  -17.5145   22.7412 H   0  0  0  0  0  0  0  0  0  0  0  0
  -24.0236  -18.6605   23.5744 H   0  0  0  0  0  0  0  0  0  0  0  0
  -28.1509  -18.7807   24.3575 H   0  0  0  0  0  0  0  0  0  0  0  0
  -27.5744  -17.5863   23.2224 H   0  0  0  0  0  0  0  0  0  0  0  0
  -26.6734  -18.4436   20.9196 H   0  0  0  0  0  0  0  0  0  0  0  0
  -28.2806  -17.3839   17.2379 H   0  0  0  0  0  0  0  0  0  0  0  0
  -29.0606  -17.7040   18.7684 H   0  0  0  0  0  0  0  0  0  0  0  0
  -29.2573  -18.8189   17.4375 H   0  0  0  0  0  0  0  0  0  0  0  0
  -25.7872  -20.1271   17.5989 H   0  0  0  0  0  0  0  0  0  0  0  0
  -27.3300  -20.1701   16.6969 H   0  0  0  0  0  0  0  0  0  0  0  0
  -26.3926  -22.1115   21.5500 H   0  0  0  0  0  0  0  0  0  0  0  0
  -28.1025  -21.7051   21.2759 H   0  0  0  0  0  0  0  0  0  0  0  0
  -26.8873  -18.0507   15.7407 H   0  0  0  0  0  0  0  0  0  0  0  0
  -25.5271  -19.1439   15.4425 H   0  0  0  0  0  0  0  0  0  0  0  0
  -26.2625  -22.9770   19.3754 H   0  0  0  0  0  0  0  0  0  0  0  0
  -28.1450  -22.5522   19.3287 H   0  0  0  0  0  0  0  0  0  0  0  0
  -25.8121  -20.5863   19.7457 H   0  0  0  0  0  0  0  0  0  0  0  0
  -26.6673  -18.2469   18.8617 H   0  0  0  0  0  0  0  0  0  0  0  0
  -24.1819  -17.4577   16.6684 H   0  0  0  0  0  0  0  0  0  0  0  0
  -25.9329  -18.0581   24.8828 H   0  0  0  0  0  0  0  0  0  0  0  0
  -25.9680  -19.6985   24.4506 H   0  0  0  0  0  0  0  0  0  0  0  0
  -28.5655  -19.5921   19.8955 H   0  0  0  0  0  0  0  0  0  0  0  0
  -28.0874  -20.7732   18.7718 H   0  0  0  0  0  0  0  0  0  0  0  0
  1 25  1  0
  1 30  2  0
  1 83  1  0
  2  3  1  0
  2 25  1  0
  2 86  1  0
  2 87  1  0
  3  4  1  0
  3 88  1  0
  3 89  1  0
  4  5  1  0
  4 90  1  0
  4 91  1  0
  5  6  1  0
  5 26  1  0
  5 92  1  6
  6 25  1  0
  6 93  1  0
  6 94  1  0
  7  8  2  0
  7 26  1  0
  7 29  1  0
  8  9  1  0
  8 22  1  0
  9 10  1  0
  9 27  2  0
 10 11  2  0
 10 15  1  0
 11 12  1  0
 11 95  1  0
 12 13  2  0
 12 96  1  0
 13 14  1  0
 13 31  1  0
 14 15  2  0
 14 97  1  0
 15 98  1  0
 16 17  2  0
 16 21  1  0
 16 31  1  0
 17 18  1  0
 17 99  1  0
 18 19  2  0
 18100  1  0
 19 20  1  0
 19 24  1  0
 20 21  2  0
 20101  1  0
 21 23  1  0
 22 28  1  0
 22 32  2  0
 26 27  1  0
 28102  1  0
 28103  1  0
 29104  1  0
 29105  1  0
 33 34  1  0
 33 66  1  0
 33 70  2  0
 34 36  1  0
 34 59  1  0
 34106  1  6
 35 44  2  0
 35 45  1  0
 35 68  1  0
 36 56  1  0
 36107  1  0
 37 39  1  0
 37 47  1  0
 37 66  1  0
 37108  1  6
 38 43  2  0
 38 46  1  0
 38 47  1  0
 39 64  1  0
 39 67  2  0
 40 52  1  0
 40 53  2  0
 40 58  1  0
 41109  1  0
 41110  1  0
 41111  1  0
 42 43  1  0
 42 66  1  0
 42112  1  0
 42113  1  0
 43 44  1  0
 44114  1  0
 45 46  2  0
 45115  1  0
 46116  1  0
 47117  1  0
 47118  1  0
 48 41  1  0
 48 56  1  0
 48 65  1  0
 48119  1  1
 49 50  1  0
 49 53  1  0
 49 64  1  0
 49120  1  1
 50 51  1  0
 50121  1  0
 50122  1  0
 51 52  1  0
 51123  1  0
 51124  1  0
 52125  1  0
 52126  1  0
 53 54  1  0
 54 55  2  0
 54127  1  0
 55 57  1  0
 55128  1  0
 56 69  2  0
 57 58  2  0
 57129  1  0
 58130  1  0
 59 60  1  0
 59 61  1  0
 59 62  1  0
 60131  1  0
 60132  1  0
 60133  1  0
 61134  1  0
 61135  1  0
 61136  1  0
 62137  1  0
 62138  1  0
 62139  1  0
 63 65  1  0
 63140  1  0
 63141  1  0
 63142  1  0
 64143  1  0
 65144  1  0
 68 80  1  0
 71 73  1  0
 71145  1  0
 71146  1  0
 72 74  1  0
 72 75  1  0
 72147  1  0
 72148  1  0
 73 84  1  0
 73149  1  0
 73150  1  0
 74 84  1  0
 74151  1  0
 74152  1  0
 75 71  1  0
 75 81  1  0
 75153  1  0
 76154  1  0
 76155  1  0
 76156  1  0
 77 79  1  0
 77 82  1  0
 77157  1  0
 77158  1  0
 78 80  1  0
 78159  1  0
 78160  1  0
 79 83  1  0
 79161  1  0
 79162  1  0
 80163  1  0
 80164  1  0
 81 78  1  0
 81 85  1  0
 81165  1  6
 82 76  1  0
 82 85  1  0
 82166  1  1
 83167  1  0
 84168  1  0
 84169  1  0
 85170  1  0
 85171  1  0
M  CHG  2  84   1  85   1
M  ISO  4   1 100  68 101  80 101  83 100
M  END
$$$$
69
     RDKit          3D

176185  0  0  0  0  0  0  0  0999 V2000
  -30.7652  -14.3608   20.6636 C   0  0  0  0  0  0  0  0  0100  0  0
  -30.4392  -12.2669   19.3775 C   0  0  0  0  0  0  0  0  0101  0  0
  -29.4791  -12.5281   18.1977 C   0  0  0  0  0  0  0  0  0102  0  0
  -27.9985  -12.3963   18.6038 C   0  0  0  0  0  0  0  0  0103  0  0
  -27.6639  -13.2170   19.8820 C   0  0  2  0  0  0  0  0  0104  0  0
  -28.6795  -12.9602   21.0279 C   0  0  0  0  0  0  0  0  0105  0  0
  -25.2633  -13.8245   20.5754 C   0  0  0  0  0  0  0  0  0106  0  0
  -24.1645  -13.0409   20.9408 C   0  0  0  0  0  0  0  0  0107  0  0
  -24.6400  -11.7009   20.8697 C   0  0  0  0  0  0  0  0  0108  0  0
  -23.9005  -10.4085   21.0420 C   0  0  0  0  0  0  0  0  0109  0  0
  -24.3588   -9.4123   21.9123 C   0  0  0  0  0  0  0  0  0110  0  0
  -23.6296   -8.2350   22.0803 C   0  0  0  0  0  0  0  0  0111  0  0
  -22.4385   -8.0419   21.3657 C   0  0  0  0  0  0  0  0  0112  0  0
  -22.0103   -9.0167   20.4678 C   0  0  0  0  0  0  0  0  0113  0  0
  -22.7317  -10.1925   20.3102 C   0  0  0  0  0  0  0  0  0114  0  0
  -21.6857   -6.0709   22.5391 C   0  0  0  0  0  0  0  0  0115  0  0
  -21.4064   -6.5490   23.8264 C   0  0  0  0  0  0  0  0  0116  0  0
  -21.3635   -5.6677   24.9085 C   0  0  0  0  0  0  0  0  0117  0  0
  -21.5973   -4.3067   24.7088 C   0  0  0  0  0  0  0  0  0118  0  0
  -21.8700   -3.8284   23.4282 C   0  0  0  0  0  0  0  0  0119  0  0
  -21.9144   -4.7056   22.3460 C   0  0  0  0  0  0  0  0  0120  0  0
  -22.8194  -13.5263   21.1763 C   0  0  0  0  0  0  0  0  0121  0  0
  -22.1559   -4.2206   21.1063 F   0  0  0  0  0  0  0  0  0122  0  0
  -21.5628   -3.4510   25.7555 F   0  0  0  0  0  0  0  0  0123  0  0
  -30.0261  -13.1803   20.4553 N   0  0  0  0  0  0  0  0  0124  0  0
  -26.2911  -12.9356   20.3443 N   0  0  0  0  0  0  0  0  0125  0  0
  -25.9236  -11.6675   20.5847 N   0  0  0  0  0  0  0  0  0126  0  0
  -22.0708  -12.7905   22.0005 N   0  0  0  0  0  0  0  0  0127  0  0
  -25.4117  -15.1773   20.4097 N   0  0  0  0  0  0  0  0  0128  0  0
  -31.7916  -14.6724   20.0536 O   0  0  0  0  0  0  0  0  0129  0  0
  -21.6670   -6.9022   21.4423 O   0  0  0  0  0  0  0  0  0130  0  0
  -22.3946  -14.5564   20.6568 O   0  0  0  0  0  0  0  0  0131  0  0
  -24.6048  -31.8614   23.2223 C   0  0  0  0  0  0  0  0  0100  0  0
  -25.8822  -32.4841   23.8616 C   0  0  1  0  0  0  0  0  0101  0  0
  -27.2536  -27.5042   20.1156 C   0  0  0  0  0  0  0  0  0102  0  0
  -25.5726  -33.8762   24.2210 N   0  0  0  0  0  0  0  0  0103  0  0
  -23.4066  -30.4859   21.5461 C   0  0  2  0  0  0  0  0  0104  0  0
  -24.8467  -28.9636   20.1247 C   0  0  0  0  0  0  0  0  0105  0  0
  -22.7412  -29.4652   22.5052 C   0  0  0  0  0  0  0  0  0106  0  0
  -18.0167  -28.1302   22.8626 C   0  0  0  0  0  0  0  0  0107  0  0
  -24.1342  -36.7390   23.2568 C   0  0  0  0  0  0  0  0  0108  0  0
  -25.9141  -30.8882   21.3456 C   0  0  0  0  0  0  0  0  0109  0  0
  -25.9930  -29.5029   20.7208 C   0  0  0  0  0  0  0  0  0110  0  0
  -27.1758  -28.7612   20.7331 C   0  0  0  0  0  0  0  0  0111  0  0
  -26.1032  -26.9836   19.5230 C   0  0  0  0  0  0  0  0  0112  0  0
  -24.9097  -27.7011   19.5331 C   0  0  0  0  0  0  0  0  0113  0  0
  -23.5715  -29.7899   20.1582 C   0  0  0  0  0  0  0  0  0114  0  0
  -25.3990  -36.3212   24.0232 C   0  0  1  0  0  0  0  0  0115  0  0
  -20.5793  -28.3813   23.1004 C   0  0  2  0  0  0  0  0  0116  0  0
  -20.6548  -26.9392   22.5411 C   0  0  0  0  0  0  0  0  0117  0  0
  -19.5615  -26.6407   21.5143 C   0  0  0  0  0  0  0  0  0118  0  0
  -18.1797  -26.7818   22.1673 C   0  0  0  0  0  0  0  0  0119  0  0
  -19.1385  -28.8769   23.2988 C   0  0  0  0  0  0  0  0  0120  0  0
  -18.9183  -30.1286   23.8878 C   0  0  0  0  0  0  0  0  0121  0  0
  -17.6396  -30.6493   24.0352 C   0  0  0  0  0  0  0  0  0122  0  0
  -25.9153  -34.9582   23.4993 C   0  0  0  0  0  0  0  0  0123  0  0
  -16.5415  -29.9068   23.6254 C   0  0  0  0  0  0  0  0  0124  0  0
  -16.7331  -28.6521   23.0586 C   0  0  0  0  0  0  0  0  0125  0  0
  -26.4583  -31.6439   25.0683 C   0  0  0  0  0  0  0  0  0126  0  0
  -25.3807  -31.3179   26.1374 C   0  0  0  0  0  0  0  0  0127  0  0
  -27.0530  -30.3024   24.5680 C   0  0  0  0  0  0  0  0  0128  0  0
  -27.6014  -32.4281   25.7651 C   0  0  0  0  0  0  0  0  0129  0  0
  -27.5629  -37.2220   24.8621 C   0  0  0  0  0  0  0  0  0130  0  0
  -21.4133  -29.3375   22.3735 N   0  0  0  0  0  0  0  0  0131  0  0
  -26.4706  -37.3372   23.9061 N   0  0  0  0  0  0  0  0  0132  0  0
  -24.6674  -31.0544   22.1178 N   0  0  0  0  0  0  0  0  0133  0  0
  -23.4259  -28.8150   23.2971 O   0  0  0  0  0  0  0  0  0134  0  0
  -28.3948  -26.7345   20.0089 O   0  0  0  0  0  0  0  0  0135  0  0
  -26.5870  -34.9065   22.4671 O   0  0  0  0  0  0  0  0  0136  0  0
  -23.5365  -32.1254   23.7833 O   0  0  0  0  0  0  0  0  0137  0  0
  -26.5683  -12.6327   17.4050 C   0  0  0  0  0  0  0  0  0  0  0  0
  -24.6355  -13.4200   18.6881 C   0  0  0  0  0  0  0  0  0  0  0  0
  -27.9459  -12.4724   17.2872 C   0  0  0  0  0  0  0  0  0  0  0  0
  -24.1238  -14.0296   19.8245 C   0  0  0  0  0  0  0  0  0  0  0  0
  -28.2315  -13.5329   19.4361 C   0  0  0  0  0  0  0  0  0  0  0  0
  -26.0186  -13.2460   18.5436 C   0  0  0  0  0  0  0  0  0  0  0  0
  -28.7782  -12.9232   18.3042 C   0  0  0  0  0  0  0  0  0  0  0  0
  -26.8576  -13.7062   19.5800 C   0  0  0  0  0  0  0  0  0  0  0  0
  -25.0231  -14.4470   20.7846 C   0  0  0  0  0  0  0  0  0  0  0  0
  -31.0453  -15.1969   15.1897 C   0  0  0  0  0  0  0  0  0  0  0  0
  -25.9872  -13.1806   24.9719 C   0  0  0  0  0  0  0  0  0  0  0  0
  -32.5351  -13.5554   17.3506 C   0  0  0  0  0  0  0  0  0  0  0  0
  -30.4237  -14.0921   16.0387 C   0  0  0  0  0  0  0  0  0  0  0  0
  -25.0681  -13.4296   23.7961 C   0  0  0  0  0  0  0  0  0  0  0  0
  -24.4524  -16.6396   21.9144 C   0  0  0  0  0  0  0  0  0  1  0  0
  -30.2558  -12.7565   18.1892 C   0  0  2  0  0  0  0  0  0  0  0  0
  -24.5112  -15.1155   22.0394 C   0  0  2  0  0  0  0  0  0  0  0  0
  -31.0401  -13.9030   17.4537 C   0  0  1  0  0  0  0  0  0  0  0  0
  -26.3639  -14.2981   20.6841 N   0  0  0  0  0  0  0  0  0  0  0  0
  -30.8926  -15.1354   18.1954 N   0  0  0  0  0  0  0  0  0  0  0  0
  -25.3396  -14.7770   23.2410 N   0  0  0  0  0  0  0  0  0  0  0  0
  -30.5862  -11.5770   17.5564 F   0  0  0  0  0  0  0  0  0  0  0  0
  -31.4485  -12.4701   19.0860 H   0  0  0  0  0  0  0  0  0  0  0  0
  -30.3970  -11.2460   19.6950 H   0  0  0  0  0  0  0  0  0  0  0  0
  -29.6870  -11.8204   17.4226 H   0  0  0  0  0  0  0  0  0  0  0  0
  -29.6375  -13.5326   17.8649 H   0  0  0  0  0  0  0  0  0  0  0  0
  -27.7830  -11.3650   18.7904 H   0  0  0  0  0  0  0  0  0  0  0  0
  -27.4028  -12.7801   17.8021 H   0  0  0  0  0  0  0  0  0  0  0  0
  -27.7353  -14.2503   19.6136 H   0  0  0  0  0  0  0  0  0  0  0  0
  -28.5890  -11.9550   21.3832 H   0  0  0  0  0  0  0  0  0  0  0  0
  -28.5005  -13.6134   21.8562 H   0  0  0  0  0  0  0  0  0  0  0  0
  -25.2399   -9.5495   22.4318 H   0  0  0  0  0  0  0  0  0  0  0  0
  -23.9663   -7.5070   22.7297 H   0  0  0  0  0  0  0  0  0  0  0  0
  -21.1515   -8.8641   19.9162 H   0  0  0  0  0  0  0  0  0  0  0  0
  -22.4016  -10.9115   19.6476 H   0  0  0  0  0  0  0  0  0  0  0  0
  -21.2319   -7.5552   23.9750 H   0  0  0  0  0  0  0  0  0  0  0  0
  -21.1589   -6.0228   25.8556 H   0  0  0  0  0  0  0  0  0  0  0  0
  -22.0396   -2.8212   23.2809 H   0  0  0  0  0  0  0  0  0  0  0  0
  -22.4401  -11.9703   22.4008 H   0  0  0  0  0  0  0  0  0  0  0  0
  -21.1493  -13.0679   22.2082 H   0  0  0  0  0  0  0  0  0  0  0  0
  -24.6538  -15.7807   20.5848 H   0  0  0  0  0  0  0  0  0  0  0  0
  -26.2762  -15.5453   20.1156 H   0  0  0  0  0  0  0  0  0  0  0  0
  -26.6778  -32.4663   23.1464 H   0  0  0  0  0  0  0  0  0  0  0  0
  -25.0747  -34.0282   25.0566 H   0  0  0  0  0  0  0  0  0  0  0  0
  -22.7881  -31.3489   21.4131 H   0  0  0  0  0  0  0  0  0  0  0  0
  -23.3854  -35.9823   23.3648 H   0  0  0  0  0  0  0  0  0  0  0  0
  -24.3696  -36.8624   22.2204 H   0  0  0  0  0  0  0  0  0  0  0  0
  -23.7669  -37.6632   23.6516 H   0  0  0  0  0  0  0  0  0  0  0  0
  -25.9445  -31.6237   20.5691 H   0  0  0  0  0  0  0  0  0  0  0  0
  -26.7436  -31.0079   22.0108 H   0  0  0  0  0  0  0  0  0  0  0  0
  -28.0090  -29.1452   21.2057 H   0  0  0  0  0  0  0  0  0  0  0  0
  -26.1369  -26.0560   19.0719 H   0  0  0  0  0  0  0  0  0  0  0  0
  -24.0652  -27.2961   19.0997 H   0  0  0  0  0  0  0  0  0  0  0  0
  -23.6156  -30.5365   19.3930 H   0  0  0  0  0  0  0  0  0  0  0  0
  -22.7355  -29.1425   19.9945 H   0  0  0  0  0  0  0  0  0  0  0  0
  -25.1353  -36.2335   25.0565 H   0  0  0  0  0  0  0  0  0  0  0  0
  -21.0070  -28.3206   24.0793 H   0  0  0  0  0  0  0  0  0  0  0  0
  -20.5555  -26.2518   23.3550 H   0  0  0  0  0  0  0  0  0  0  0  0
  -21.5974  -26.8362   22.0454 H   0  0  0  0  0  0  0  0  0  0  0  0
  -19.6810  -25.6422   21.1488 H   0  0  0  0  0  0  0  0  0  0  0  0
  -19.6406  -27.3343   20.7034 H   0  0  0  0  0  0  0  0  0  0  0  0
  -17.4282  -26.6888   21.4113 H   0  0  0  0  0  0  0  0  0  0  0  0
  -18.0803  -26.0130   22.9049 H   0  0  0  0  0  0  0  0  0  0  0  0
  -19.7265  -30.6774   24.2204 H   0  0  0  0  0  0  0  0  0  0  0  0
  -17.5064  -31.5856   24.4483 H   0  0  0  0  0  0  0  0  0  0  0  0
  -15.5878  -30.2839   23.7407 H   0  0  0  0  0  0  0  0  0  0  0  0
  -15.9120  -28.0941   22.7766 H   0  0  0  0  0  0  0  0  0  0  0  0
  -24.5787  -30.7757   25.6817 H   0  0  0  0  0  0  0  0  0  0  0  0
  -25.0041  -32.2289   26.5536 H   0  0  0  0  0  0  0  0  0  0  0  0
  -25.8166  -30.7245   26.9138 H   0  0  0  0  0  0  0  0  0  0  0  0
  -26.2892  -29.7335   24.0803 H   0  0  0  0  0  0  0  0  0  0  0  0
  -27.4336  -29.7484   25.4006 H   0  0  0  0  0  0  0  0  0  0  0  0
  -27.8466  -30.4994   23.8779 H   0  0  0  0  0  0  0  0  0  0  0  0
  -27.2251  -33.3632   26.1242 H   0  0  0  0  0  0  0  0  0  0  0  0
  -28.3902  -32.6065   25.0645 H   0  0  0  0  0  0  0  0  0  0  0  0
  -27.9772  -31.8555   26.5872 H   0  0  0  0  0  0  0  0  0  0  0  0
  -28.2744  -38.0016   24.6863 H   0  0  0  0  0  0  0  0  0  0  0  0
  -28.0396  -36.2711   24.7461 H   0  0  0  0  0  0  0  0  0  0  0  0
  -27.1773  -37.3087   25.8564 H   0  0  0  0  0  0  0  0  0  0  0  0
  -20.9627  -29.9365   21.7352 H   0  0  0  0  0  0  0  0  0  0  0  0
  -26.0447  -38.2561   24.0273 H   0  0  0  0  0  0  0  0  0  0  0  0
  -25.9469  -12.2991   16.6516 H   0  0  0  0  0  0  0  0  0  0  0  0
  -23.9957  -13.0937   17.9470 H   0  0  0  0  0  0  0  0  0  0  0  0
  -28.3465  -12.0216   16.4498 H   0  0  0  0  0  0  0  0  0  0  0  0
  -23.1082  -14.1659   19.9473 H   0  0  0  0  0  0  0  0  0  0  0  0
  -28.8615  -13.8629   20.1839 H   0  0  0  0  0  0  0  0  0  0  0  0
  -30.5496  -15.2404   14.2425 H   0  0  0  0  0  0  0  0  0  0  0  0
  -32.0842  -14.9894   15.0394 H   0  0  0  0  0  0  0  0  0  0  0  0
  -30.9381  -16.1357   15.6918 H   0  0  0  0  0  0  0  0  0  0  0  0
  -25.7944  -12.2087   25.3757 H   0  0  0  0  0  0  0  0  0  0  0  0
  -25.8120  -13.9207   25.7245 H   0  0  0  0  0  0  0  0  0  0  0  0
  -27.0051  -13.2363   24.6470 H   0  0  0  0  0  0  0  0  0  0  0  0
  -32.6524  -12.6439   16.8026 H   0  0  0  0  0  0  0  0  0  0  0  0
  -32.9421  -13.4359   18.3329 H   0  0  0  0  0  0  0  0  0  0  0  0
  -33.0507  -14.3447   16.8445 H   0  0  0  0  0  0  0  0  0  0  0  0
  -30.5305  -13.1695   15.5074 H   0  0  0  0  0  0  0  0  0  0  0  0
  -29.4070  -14.3843   16.1996 H   0  0  0  0  0  0  0  0  0  0  0  0
  -24.0498  -13.3747   24.1201 H   0  0  0  0  0  0  0  0  0  0  0  0
  -25.2401  -12.6895   23.0428 H   0  0  0  0  0  0  0  0  0  0  0  0
  -24.0714  -16.8339   22.8952 H   0  0  0  0  0  0  0  0  0  0  0  0
  -24.4002  -16.5071   20.8539 H   0  0  0  0  0  0  0  0  0  0  0  0
  -30.5601  -12.7738   19.2149 H   0  0  0  0  0  0  0  0  0  0  0  0
  -23.5195  -14.7347   22.1673 H   0  0  0  0  0  0  0  0  0  0  0  0
  -30.8504  -16.0542   17.8443 H   0  0  0  0  0  0  0  0  0  0  0  0
  -26.3236  -14.8232   22.9763 H   0  0  0  0  0  0  0  0  0  0  0  0
  -25.0979  -15.4512   23.9673 H   0  0  0  0  0  0  0  0  0  0  0  0
  1 25  1  0
  1 30  2  0
  1 90  1  0
  2  3  1  0
  2 25  1  0
  2 93  1  0
  2 94  1  0
  3  4  1  0
  3 95  1  0
  3 96  1  0
  4  5  1  0
  4 97  1  0
  4 98  1  0
  5  6  1  0
  5 26  1  0
  5 99  1  6
  6 25  1  0
  6100  1  0
  6101  1  0
  7  8  2  0
  7 26  1  0
  7 29  1  0
  8  9  1  0
  8 22  1  0
  9 10  1  0
  9 27  2  0
 10 11  2  0
 10 15  1  0
 11 12  1  0
 11102  1  0
 12 13  2  0
 12103  1  0
 13 14  1  0
 13 31  1  0
 14 15  2  0
 14104  1  0
 15105  1  0
 16 17  2  0
 16 21  1  0
 16 31  1  0
 17 18  1  0
 17106  1  0
 18 19  2  0
 18107  1  0
 19 20  1  0
 19 24  1  0
 20 21  2  0
 20108  1  0
 21 23  1  0
 22 28  1  0
 22 32  2  0
 26 27  1  0
 28109  1  0
 28110  1  0
 29111  1  0
 29112  1  0
 33 34  1  0
 33 66  1  0
 33 70  2  0
 34 36  1  0
 34 59  1  0
 34113  1  6
 35 44  2  0
 35 45  1  0
 35 68  1  0
 36 56  1  0
 36114  1  0
 37 39  1  0
 37 47  1  0
 37 66  1  0
 37115  1  6
 38 43  2  0
 38 46  1  0
 38 47  1  0
 39 64  1  0
 39 67  2  0
 40 52  1  0
 40 53  2  0
 40 58  1  0
 41116  1  0
 41117  1  0
 41118  1  0
 42 43  1  0
 42 66  1  0
 42119  1  0
 42120  1  0
 43 44  1  0
 44121  1  0
 45 46  2  0
 45122  1  0
 46123  1  0
 47124  1  0
 47125  1  0
 48 41  1  0
 48 56  1  0
 48 65  1  0
 48126  1  1
 49 50  1  0
 49 53  1  0
 49 64  1  0
 49127  1  1
 50 51  1  0
 50128  1  0
 50129  1  0
 51 52  1  0
 51130  1  0
 51131  1  0
 52132  1  0
 52133  1  0
 53 54  1  0
 54 55  2  0
 54134  1  0
 55 57  1  0
 55135  1  0
 56 69  2  0
 57 58  2  0
 57136  1  0
 58137  1  0
 59 60  1  0
 59 61  1  0
 59 62  1  0
 60138  1  0
 60139  1  0
 60140  1  0
 61141  1  0
 61142  1  0
 61143  1  0
 62144  1  0
 62145  1  0
 62146  1  0
 63 65  1  0
 63147  1  0
 63148  1  0
 63149  1  0
 64150  1  0
 65151  1  0
 68 85  1  0
 71 73  2  0
 71 76  1  0
 71152  1  0
 72 74  1  0
 72 76  2  0
 72153  1  0
 73 77  1  0
 73154  1  0
 74 79  2  0
 74155  1  0
 75 77  2  0
 75 78  1  0
 75156  1  0
 76 78  1  0
 77 86  1  0
 78 89  2  0
 79 87  1  0
 79 89  1  0
 80 83  1  0
 80157  1  0
 80158  1  0
 80159  1  0
 81 84  1  0
 81160  1  0
 81161  1  0
 81162  1  0
 82163  1  0
 82164  1  0
 82165  1  0
 83 88  1  0
 83166  1  0
 83167  1  0
 84 91  1  0
 84168  1  0
 84169  1  0
 85170  1  0
 85171  1  0
 86 88  1  0
 86 92  1  0
 86172  1  1
 87 85  1  0
 87 91  1  0
 87173  1  1
 88 82  1  0
 88 90  1  1
 90174  1  0
 91175  1  0
 91176  1  0
M  CHG  1  91   1
M  ISO  4   1 100  68 101  85 101  90 100
M  END
$$$$
70
     RDKit          3D

167175  0  0  0  0  0  0  0  0999 V2000
  -30.7652  -14.3608   20.6636 C   0  0  0  0  0  0  0  0  0100  0  0
  -30.4392  -12.2669   19.3775 C   0  0  0  0  0  0  0  0  0101  0  0
  -29.4791  -12.5281   18.1977 C   0  0  0  0  0  0  0  0  0102  0  0
  -27.9985  -12.3963   18.6038 C   0  0  0  0  0  0  0  0  0103  0  0
  -27.6639  -13.2170   19.8820 C   0  0  2  0  0  0  0  0  0104  0  0
  -28.6795  -12.9602   21.0279 C   0  0  0  0  0  0  0  0  0105  0  0
  -25.2633  -13.8245   20.5754 C   0  0  0  0  0  0  0  0  0106  0  0
  -24.1645  -13.0409   20.9408 C   0  0  0  0  0  0  0  0  0107  0  0
  -24.6400  -11.7009   20.8697 C   0  0  0  0  0  0  0  0  0108  0  0
  -23.9005  -10.4085   21.0420 C   0  0  0  0  0  0  0  0  0109  0  0
  -24.3588   -9.4123   21.9123 C   0  0  0  0  0  0  0  0  0110  0  0
  -23.6296   -8.2350   22.0803 C   0  0  0  0  0  0  0  0  0111  0  0
  -22.4385   -8.0419   21.3657 C   0  0  0  0  0  0  0  0  0112  0  0
  -22.0103   -9.0167   20.4678 C   0  0  0  0  0  0  0  0  0113  0  0
  -22.7317  -10.1925   20.3102 C   0  0  0  0  0  0  0  0  0114  0  0
  -21.6857   -6.0709   22.5391 C   0  0  0  0  0  0  0  0  0115  0  0
  -21.4064   -6.5490   23.8264 C   0  0  0  0  0  0  0  0  0116  0  0
  -21.3635   -5.6677   24.9085 C   0  0  0  0  0  0  0  0  0117  0  0
  -21.5973   -4.3067   24.7088 C   0  0  0  0  0  0  0  0  0118  0  0
  -21.8700   -3.8284   23.4282 C   0  0  0  0  0  0  0  0  0119  0  0
  -21.9144   -4.7056   22.3460 C   0  0  0  0  0  0  0  0  0120  0  0
  -22.8194  -13.5263   21.1763 C   0  0  0  0  0  0  0  0  0121  0  0
  -22.1559   -4.2206   21.1063 F   0  0  0  0  0  0  0  0  0122  0  0
  -21.5628   -3.4510   25.7555 F   0  0  0  0  0  0  0  0  0123  0  0
  -30.0261  -13.1803   20.4553 N   0  0  0  0  0  0  0  0  0124  0  0
  -26.2911  -12.9356   20.3443 N   0  0  0  0  0  0  0  0  0125  0  0
  -25.9236  -11.6675   20.5847 N   0  0  0  0  0  0  0  0  0126  0  0
  -22.0708  -12.7905   22.0005 N   0  0  0  0  0  0  0  0  0127  0  0
  -25.4117  -15.1773   20.4097 N   0  0  0  0  0  0  0  0  0128  0  0
  -31.7916  -14.6724   20.0536 O   0  0  0  0  0  0  0  0  0129  0  0
  -21.6670   -6.9022   21.4423 O   0  0  0  0  0  0  0  0  0130  0  0
  -22.3946  -14.5564   20.6568 O   0  0  0  0  0  0  0  0  0131  0  0
  -24.6048  -31.8614   23.2223 C   0  0  0  0  0  0  0  0  0100  0  0
  -25.8822  -32.4841   23.8616 C   0  0  1  0  0  0  0  0  0101  0  0
  -27.2536  -27.5042   20.1156 C   0  0  0  0  0  0  0  0  0102  0  0
  -25.5726  -33.8762   24.2210 N   0  0  0  0  0  0  0  0  0103  0  0
  -23.4066  -30.4859   21.5461 C   0  0  2  0  0  0  0  0  0104  0  0
  -24.8467  -28.9636   20.1247 C   0  0  0  0  0  0  0  0  0105  0  0
  -22.7412  -29.4652   22.5052 C   0  0  0  0  0  0  0  0  0106  0  0
  -18.0167  -28.1302   22.8626 C   0  0  0  0  0  0  0  0  0107  0  0
  -24.1342  -36.7390   23.2568 C   0  0  0  0  0  0  0  0  0108  0  0
  -25.9141  -30.8882   21.3456 C   0  0  0  0  0  0  0  0  0109  0  0
  -25.9930  -29.5029   20.7208 C   0  0  0  0  0  0  0  0  0110  0  0
  -27.1758  -28.7612   20.7331 C   0  0  0  0  0  0  0  0  0111  0  0
  -26.1032  -26.9836   19.5230 C   0  0  0  0  0  0  0  0  0112  0  0
  -24.9097  -27.7011   19.5331 C   0  0  0  0  0  0  0  0  0113  0  0
  -23.5715  -29.7899   20.1582 C   0  0  0  0  0  0  0  0  0114  0  0
  -25.3990  -36.3212   24.0232 C   0  0  1  0  0  0  0  0  0115  0  0
  -20.5793  -28.3813   23.1004 C   0  0  2  0  0  0  0  0  0116  0  0
  -20.6548  -26.9392   22.5411 C   0  0  0  0  0  0  0  0  0117  0  0
  -19.5615  -26.6407   21.5143 C   0  0  0  0  0  0  0  0  0118  0  0
  -18.1797  -26.7818   22.1673 C   0  0  0  0  0  0  0  0  0119  0  0
  -19.1385  -28.8769   23.2988 C   0  0  0  0  0  0  0  0  0120  0  0
  -18.9183  -30.1286   23.8878 C   0  0  0  0  0  0  0  0  0121  0  0
  -17.6396  -30.6493   24.0352 C   0  0  0  0  0  0  0  0  0122  0  0
  -25.9153  -34.9582   23.4993 C   0  0  0  0  0  0  0  0  0123  0  0
  -16.5415  -29.9068   23.6254 C   0  0  0  0  0  0  0  0  0124  0  0
  -16.7331  -28.6521   23.0586 C   0  0  0  0  0  0  0  0  0125  0  0
  -26.4583  -31.6439   25.0683 C   0  0  0  0  0  0  0  0  0126  0  0
  -25.3807  -31.3179   26.1374 C   0  0  0  0  0  0  0  0  0127  0  0
  -27.0530  -30.3024   24.5680 C   0  0  0  0  0  0  0  0  0128  0  0
  -27.6014  -32.4281   25.7651 C   0  0  0  0  0  0  0  0  0129  0  0
  -27.5629  -37.2220   24.8621 C   0  0  0  0  0  0  0  0  0130  0  0
  -21.4133  -29.3375   22.3735 N   0  0  0  0  0  0  0  0  0131  0  0
  -26.4706  -37.3372   23.9061 N   0  0  0  0  0  0  0  0  0132  0  0
  -24.6674  -31.0544   22.1178 N   0  0  0  0  0  0  0  0  0133  0  0
  -23.4259  -28.8150   23.2971 O   0  0  0  0  0  0  0  0  0134  0  0
  -28.3948  -26.7345   20.0089 O   0  0  0  0  0  0  0  0  0135  0  0
  -26.5870  -34.9065   22.4671 O   0  0  0  0  0  0  0  0  0136  0  0
  -23.5365  -32.1254   23.7833 O   0  0  0  0  0  0  0  0  0137  0  0
  -28.9743  -18.5087   21.6596 C   0  0  0  0  0  0  0  0  0  0  0  0
  -30.9253  -19.7109   22.3896 C   0  0  0  0  0  0  0  0  0  0  0  0
  -29.0218  -19.2495   20.4897 C   0  0  0  0  0  0  0  0  0  0  0  0
  -29.9478  -18.7498   22.6226 C   0  0  0  0  0  0  0  0  0  0  0  0
  -30.8855  -20.3978   21.1869 C   0  0  0  0  0  0  0  0  0  0  0  0
  -33.1447  -20.8726   20.1800 C   0  0  0  0  0  0  0  0  0  0  0  0
  -28.6272  -18.0783   24.7140 C   0  0  0  0  0  0  0  0  0  0  0  0
  -31.7331  -14.7338   22.9631 C   0  0  0  0  0  0  0  0  0  0  0  0
  -28.2158  -19.4993   25.0932 C   0  0  0  0  0  0  0  0  0  0  0  0
  -31.5420  -16.2316   23.1122 C   0  0  0  0  0  0  0  0  0  0  0  0
  -29.9426  -17.9809   23.9000 C   0  0  1  0  0  0  0  0  0  0  0  0
  -31.9322  -21.4497   20.8994 C   0  0  1  0  0  0  0  0  0  1  0  0
  -29.9556  -20.1912   20.2276 N   0  0  0  0  0  0  0  0  0  0  0  0
  -30.7709  -14.1463   22.0577 N   0  0  0  0  0  0  0  0  0  0  0  0
  -29.2604  -20.1429   25.9236 N   0  0  0  0  0  0  0  0  0  0  0  0
  -30.2101  -16.5108   23.6890 N   0  0  0  0  0  0  0  0  0  0  0  0
  -31.4485  -12.4701   19.0860 H   0  0  0  0  0  0  0  0  0  0  0  0
  -30.3970  -11.2460   19.6950 H   0  0  0  0  0  0  0  0  0  0  0  0
  -29.6870  -11.8204   17.4226 H   0  0  0  0  0  0  0  0  0  0  0  0
  -29.6375  -13.5326   17.8649 H   0  0  0  0  0  0  0  0  0  0  0  0
  -27.7830  -11.3650   18.7904 H   0  0  0  0  0  0  0  0  0  0  0  0
  -27.4028  -12.7801   17.8021 H   0  0  0  0  0  0  0  0  0  0  0  0
  -27.7353  -14.2503   19.6136 H   0  0  0  0  0  0  0  0  0  0  0  0
  -28.5890  -11.9550   21.3832 H   0  0  0  0  0  0  0  0  0  0  0  0
  -28.5005  -13.6134   21.8562 H   0  0  0  0  0  0  0  0  0  0  0  0
  -25.2399   -9.5495   22.4318 H   0  0  0  0  0  0  0  0  0  0  0  0
  -23.9663   -7.5070   22.7297 H   0  0  0  0  0  0  0  0  0  0  0  0
  -21.1515   -8.8641   19.9162 H   0  0  0  0  0  0  0  0  0  0  0  0
  -22.4016  -10.9115   19.6476 H   0  0  0  0  0  0  0  0  0  0  0  0
  -21.2319   -7.5552   23.9750 H   0  0  0  0  0  0  0  0  0  0  0  0
  -21.1589   -6.0228   25.8556 H   0  0  0  0  0  0  0  0  0  0  0  0
  -22.0396   -2.8212   23.2809 H   0  0  0  0  0  0  0  0  0  0  0  0
  -22.4401  -11.9703   22.4008 H   0  0  0  0  0  0  0  0  0  0  0  0
  -21.1493  -13.0679   22.2082 H   0  0  0  0  0  0  0  0  0  0  0  0
  -24.6538  -15.7807   20.5848 H   0  0  0  0  0  0  0  0  0  0  0  0
  -26.2762  -15.5453   20.1156 H   0  0  0  0  0  0  0  0  0  0  0  0
  -26.6778  -32.4663   23.1464 H   0  0  0  0  0  0  0  0  0  0  0  0
  -25.0747  -34.0282   25.0566 H   0  0  0  0  0  0  0  0  0  0  0  0
  -22.7881  -31.3489   21.4131 H   0  0  0  0  0  0  0  0  0  0  0  0
  -23.3854  -35.9823   23.3648 H   0  0  0  0  0  0  0  0  0  0  0  0
  -24.3696  -36.8624   22.2204 H   0  0  0  0  0  0  0  0  0  0  0  0
  -23.7669  -37.6632   23.6516 H   0  0  0  0  0  0  0  0  0  0  0  0
  -25.9445  -31.6237   20.5691 H   0  0  0  0  0  0  0  0  0  0  0  0
  -26.7436  -31.0079   22.0108 H   0  0  0  0  0  0  0  0  0  0  0  0
  -28.0090  -29.1452   21.2057 H   0  0  0  0  0  0  0  0  0  0  0  0
  -26.1369  -26.0560   19.0719 H   0  0  0  0  0  0  0  0  0  0  0  0
  -24.0652  -27.2961   19.0997 H   0  0  0  0  0  0  0  0  0  0  0  0
  -23.6156  -30.5365   19.3930 H   0  0  0  0  0  0  0  0  0  0  0  0
  -22.7355  -29.1425   19.9945 H   0  0  0  0  0  0  0  0  0  0  0  0
  -25.1353  -36.2335   25.0565 H   0  0  0  0  0  0  0  0  0  0  0  0
  -21.0070  -28.3206   24.0793 H   0  0  0  0  0  0  0  0  0  0  0  0
  -20.5555  -26.2518   23.3550 H   0  0  0  0  0  0  0  0  0  0  0  0
  -21.5974  -26.8362   22.0454 H   0  0  0  0  0  0  0  0  0  0  0  0
  -19.6810  -25.6422   21.1488 H   0  0  0  0  0  0  0  0  0  0  0  0
  -19.6406  -27.3343   20.7034 H   0  0  0  0  0  0  0  0  0  0  0  0
  -17.4282  -26.6888   21.4113 H   0  0  0  0  0  0  0  0  0  0  0  0
  -18.0803  -26.0130   22.9049 H   0  0  0  0  0  0  0  0  0  0  0  0
  -19.7265  -30.6774   24.2204 H   0  0  0  0  0  0  0  0  0  0  0  0
  -17.5064  -31.5856   24.4483 H   0  0  0  0  0  0  0  0  0  0  0  0
  -15.5878  -30.2839   23.7407 H   0  0  0  0  0  0  0  0  0  0  0  0
  -15.9120  -28.0941   22.7766 H   0  0  0  0  0  0  0  0  0  0  0  0
  -24.5787  -30.7757   25.6817 H   0  0  0  0  0  0  0  0  0  0  0  0
  -25.0041  -32.2289   26.5536 H   0  0  0  0  0  0  0  0  0  0  0  0
  -25.8166  -30.7245   26.9138 H   0  0  0  0  0  0  0  0  0  0  0  0
  -26.2892  -29.7335   24.0803 H   0  0  0  0  0  0  0  0  0  0  0  0
  -27.4336  -29.7484   25.4006 H   0  0  0  0  0  0  0  0  0  0  0  0
  -27.8466  -30.4994   23.8779 H   0  0  0  0  0  0  0  0  0  0  0  0
  -27.2251  -33.3632   26.1242 H   0  0  0  0  0  0  0  0  0  0  0  0
  -28.3902  -32.6065   25.0645 H   0  0  0  0  0  0  0  0  0  0  0  0
  -27.9772  -31.8555   26.5872 H   0  0  0  0  0  0  0  0  0  0  0  0
  -28.2744  -38.0016   24.6863 H   0  0  0  0  0  0  0  0  0  0  0  0
  -28.0396  -36.2711   24.7461 H   0  0  0  0  0  0  0  0  0  0  0  0
  -27.1773  -37.3087   25.8564 H   0  0  0  0  0  0  0  0  0  0  0  0
  -20.9627  -29.9365   21.7352 H   0  0  0  0  0  0  0  0  0  0  0  0
  -26.0447  -38.2561   24.0273 H   0  0  0  0  0  0  0  0  0  0  0  0
  -28.2394  -17.8002   21.8114 H   0  0  0  0  0  0  0  0  0  0  0  0
  -31.6573  -19.9064   23.0903 H   0  0  0  0  0  0  0  0  0  0  0  0
  -28.2997  -19.0714   19.7742 H   0  0  0  0  0  0  0  0  0  0  0  0
  -33.4367  -19.9574   20.6511 H   0  0  0  0  0  0  0  0  0  0  0  0
  -33.9534  -21.5717   20.2269 H   0  0  0  0  0  0  0  0  0  0  0  0
  -32.8956  -20.6834   19.1567 H   0  0  0  0  0  0  0  0  0  0  0  0
  -27.8408  -17.6483   24.1295 H   0  0  0  0  0  0  0  0  0  0  0  0
  -28.8010  -17.5583   25.6329 H   0  0  0  0  0  0  0  0  0  0  0  0
  -31.6259  -14.2757   23.9241 H   0  0  0  0  0  0  0  0  0  0  0  0
  -32.7091  -14.5666   22.5578 H   0  0  0  0  0  0  0  0  0  0  0  0
  -27.3001  -19.4643   25.6456 H   0  0  0  0  0  0  0  0  0  0  0  0
  -28.0876  -20.0708   24.1978 H   0  0  0  0  0  0  0  0  0  0  0  0
  -31.6179  -16.6969   22.1516 H   0  0  0  0  0  0  0  0  0  0  0  0
  -32.2975  -16.6215   23.7620 H   0  0  0  0  0  0  0  0  0  0  0  0
  -30.7295  -18.4470   24.4554 H   0  0  0  0  0  0  0  0  0  0  0  0
  -32.6535  -21.8555   21.5776 H   0  0  0  0  0  0  0  0  0  0  0  0
  -30.0769  -13.5604   22.4377 H   0  0  0  0  0  0  0  0  0  0  0  0
  -29.3916  -19.6063   26.7810 H   0  0  0  0  0  0  0  0  0  0  0  0
  -28.9713  -21.0926   26.1578 H   0  0  0  0  0  0  0  0  0  0  0  0
  -30.1374  -20.1729   25.4037 H   0  0  0  0  0  0  0  0  0  0  0  0
  -30.1427  -16.0376   24.5901 H   0  0  0  0  0  0  0  0  0  0  0  0
  -29.5168  -16.1721   23.0219 H   0  0  0  0  0  0  0  0  0  0  0  0
  1 25  1  0
  1 30  2  0
  1 84  1  0
  2  3  1  0
  2 25  1  0
  2 87  1  0
  2 88  1  0
  3  4  1  0
  3 89  1  0
  3 90  1  0
  4  5  1  0
  4 91  1  0
  4 92  1  0
  5  6  1  0
  5 26  1  0
  5 93  1  6
  6 25  1  0
  6 94  1  0
  6 95  1  0
  7  8  2  0
  7 26  1  0
  7 29  1  0
  8  9  1  0
  8 22  1  0
  9 10  1  0
  9 27  2  0
 10 11  2  0
 10 15  1  0
 11 12  1  0
 11 96  1  0
 12 13  2  0
 12 97  1  0
 13 14  1  0
 13 31  1  0
 14 15  2  0
 14 98  1  0
 15 99  1  0
 16 17  2  0
 16 21  1  0
 16 31  1  0
 17 18  1  0
 17100  1  0
 18 19  2  0
 18101  1  0
 19 20  1  0
 19 24  1  0
 20 21  2  0
 20102  1  0
 21 23  1  0
 22 28  1  0
 22 32  2  0
 26 27  1  0
 28103  1  0
 28104  1  0
 29105  1  0
 29106  1  0
 33 34  1  0
 33 66  1  0
 33 70  2  0
 34 36  1  0
 34 59  1  0
 34107  1  6
 35 44  2  0
 35 45  1  0
 35 68  1  0
 36 56  1  0
 36108  1  0
 37 39  1  0
 37 47  1  0
 37 66  1  0
 37109  1  6
 38 43  2  0
 38 46  1  0
 38 47  1  0
 39 64  1  0
 39 67  2  0
 40 52  1  0
 40 53  2  0
 40 58  1  0
 41110  1  0
 41111  1  0
 41112  1  0
 42 43  1  0
 42 66  1  0
 42113  1  0
 42114  1  0
 43 44  1  0
 44115  1  0
 45 46  2  0
 45116  1  0
 46117  1  0
 47118  1  0
 47119  1  0
 48 41  1  0
 48 56  1  0
 48 65  1  0
 48120  1  1
 49 50  1  0
 49 53  1  0
 49 64  1  0
 49121  1  1
 50 51  1  0
 50122  1  0
 50123  1  0
 51 52  1  0
 51124  1  0
 51125  1  0
 52126  1  0
 52127  1  0
 53 54  1  0
 54 55  2  0
 54128  1  0
 55 57  1  0
 55129  1  0
 56 69  2  0
 57 58  2  0
 57130  1  0
 58131  1  0
 59 60  1  0
 59 61  1  0
 59 62  1  0
 60132  1  0
 60133  1  0
 60134  1  0
 61135  1  0
 61136  1  0
 61137  1  0
 62138  1  0
 62139  1  0
 62140  1  0
 63 65  1  0
 63141  1  0
 63142  1  0
 63143  1  0
 64144  1  0
 65145  1  0
 68 82  1  0
 71 73  2  0
 71 74  1  0
 71146  1  0
 72 74  2  0
 72 75  1  0
 72147  1  0
 73 83  1  0
 73148  1  0
 74 81  1  0
 75 82  1  0
 75 83  2  0
 76149  1  0
 76150  1  0
 76151  1  0
 77 79  1  0
 77152  1  0
 77153  1  0
 78 80  1  0
 78 84  1  0
 78154  1  0
 78155  1  0
 79 85  1  0
 79156  1  0
 79157  1  0
 80 86  1  0
 80158  1  0
 80159  1  0
 81 77  1  0
 81 86  1  0
 81160  1  1
 82 76  1  0
 82161  1  1
 84162  1  0
 85163  1  0
 85164  1  0
 85165  1  0
 86166  1  0
 86167  1  0
M  CHG  2  85   1  86   1
M  ISO  4   1 100  68 101  82 101  84 100
M  END
$$$$
71
     RDKit          3D

161169  0  0  0  0  0  0  0  0999 V2000
  -30.7652  -14.3608   20.6636 C   0  0  0  0  0  0  0  0  0100  0  0
  -30.4392  -12.2669   19.3775 C   0  0  0  0  0  0  0  0  0101  0  0
  -29.4791  -12.5281   18.1977 C   0  0  0  0  0  0  0  0  0102  0  0
  -27.9985  -12.3963   18.6038 C   0  0  0  0  0  0  0  0  0103  0  0
  -27.6639  -13.2170   19.8820 C   0  0  2  0  0  0  0  0  0104  0  0
  -28.6795  -12.9602   21.0279 C   0  0  0  0  0  0  0  0  0105  0  0
  -25.2633  -13.8245   20.5754 C   0  0  0  0  0  0  0  0  0106  0  0
  -24.1645  -13.0409   20.9408 C   0  0  0  0  0  0  0  0  0107  0  0
  -24.6400  -11.7009   20.8697 C   0  0  0  0  0  0  0  0  0108  0  0
  -23.9005  -10.4085   21.0420 C   0  0  0  0  0  0  0  0  0109  0  0
  -24.3588   -9.4123   21.9123 C   0  0  0  0  0  0  0  0  0110  0  0
  -23.6296   -8.2350   22.0803 C   0  0  0  0  0  0  0  0  0111  0  0
  -22.4385   -8.0419   21.3657 C   0  0  0  0  0  0  0  0  0112  0  0
  -22.0103   -9.0167   20.4678 C   0  0  0  0  0  0  0  0  0113  0  0
  -22.7317  -10.1925   20.3102 C   0  0  0  0  0  0  0  0  0114  0  0
  -21.6857   -6.0709   22.5391 C   0  0  0  0  0  0  0  0  0115  0  0
  -21.4064   -6.5490   23.8264 C   0  0  0  0  0  0  0  0  0116  0  0
  -21.3635   -5.6677   24.9085 C   0  0  0  0  0  0  0  0  0117  0  0
  -21.5973   -4.3067   24.7088 C   0  0  0  0  0  0  0  0  0118  0  0
  -21.8700   -3.8284   23.4282 C   0  0  0  0  0  0  0  0  0119  0  0
  -21.9144   -4.7056   22.3460 C   0  0  0  0  0  0  0  0  0120  0  0
  -22.8194  -13.5263   21.1763 C   0  0  0  0  0  0  0  0  0121  0  0
  -22.1559   -4.2206   21.1063 F   0  0  0  0  0  0  0  0  0122  0  0
  -21.5628   -3.4510   25.7555 F   0  0  0  0  0  0  0  0  0123  0  0
  -30.0261  -13.1803   20.4553 N   0  0  0  0  0  0  0  0  0124  0  0
  -26.2911  -12.9356   20.3443 N   0  0  0  0  0  0  0  0  0125  0  0
  -25.9236  -11.6675   20.5847 N   0  0  0  0  0  0  0  0  0126  0  0
  -22.0708  -12.7905   22.0005 N   0  0  0  0  0  0  0  0  0127  0  0
  -25.4117  -15.1773   20.4097 N   0  0  0  0  0  0  0  0  0128  0  0
  -31.7916  -14.6724   20.0536 O   0  0  0  0  0  0  0  0  0129  0  0
  -21.6670   -6.9022   21.4423 O   0  0  0  0  0  0  0  0  0130  0  0
  -22.3946  -14.5564   20.6568 O   0  0  0  0  0  0  0  0  0131  0  0
  -24.6048  -31.8614   23.2223 C   0  0  0  0  0  0  0  0  0100  0  0
  -25.8822  -32.4841   23.8616 C   0  0  1  0  0  0  0  0  0101  0  0
  -27.2536  -27.5042   20.1156 C   0  0  0  0  0  0  0  0  0102  0  0
  -25.5726  -33.8762   24.2210 N   0  0  0  0  0  0  0  0  0103  0  0
  -23.4066  -30.4859   21.5461 C   0  0  2  0  0  0  0  0  0104  0  0
  -24.8467  -28.9636   20.1247 C   0  0  0  0  0  0  0  0  0105  0  0
  -22.7412  -29.4652   22.5052 C   0  0  0  0  0  0  0  0  0106  0  0
  -18.0167  -28.1302   22.8626 C   0  0  0  0  0  0  0  0  0107  0  0
  -24.1342  -36.7390   23.2568 C   0  0  0  0  0  0  0  0  0108  0  0
  -25.9141  -30.8882   21.3456 C   0  0  0  0  0  0  0  0  0109  0  0
  -25.9930  -29.5029   20.7208 C   0  0  0  0  0  0  0  0  0110  0  0
  -27.1758  -28.7612   20.7331 C   0  0  0  0  0  0  0  0  0111  0  0
  -26.1032  -26.9836   19.5230 C   0  0  0  0  0  0  0  0  0112  0  0
  -24.9097  -27.7011   19.5331 C   0  0  0  0  0  0  0  0  0113  0  0
  -23.5715  -29.7899   20.1582 C   0  0  0  0  0  0  0  0  0114  0  0
  -25.3990  -36.3212   24.0232 C   0  0  1  0  0  0  0  0  0115  0  0
  -20.5793  -28.3813   23.1004 C   0  0  2  0  0  0  0  0  0116  0  0
  -20.6548  -26.9392   22.5411 C   0  0  0  0  0  0  0  0  0117  0  0
  -19.5615  -26.6407   21.5143 C   0  0  0  0  0  0  0  0  0118  0  0
  -18.1797  -26.7818   22.1673 C   0  0  0  0  0  0  0  0  0119  0  0
  -19.1385  -28.8769   23.2988 C   0  0  0  0  0  0  0  0  0120  0  0
  -18.9183  -30.1286   23.8878 C   0  0  0  0  0  0  0  0  0121  0  0
  -17.6396  -30.6493   24.0352 C   0  0  0  0  0  0  0  0  0122  0  0
  -25.9153  -34.9582   23.4993 C   0  0  0  0  0  0  0  0  0123  0  0
  -16.5415  -29.9068   23.6254 C   0  0  0  0  0  0  0  0  0124  0  0
  -16.7331  -28.6521   23.0586 C   0  0  0  0  0  0  0  0  0125  0  0
  -26.4583  -31.6439   25.0683 C   0  0  0  0  0  0  0  0  0126  0  0
  -25.3807  -31.3179   26.1374 C   0  0  0  0  0  0  0  0  0127  0  0
  -27.0530  -30.3024   24.5680 C   0  0  0  0  0  0  0  0  0128  0  0
  -27.6014  -32.4281   25.7651 C   0  0  0  0  0  0  0  0  0129  0  0
  -27.5629  -37.2220   24.8621 C   0  0  0  0  0  0  0  0  0130  0  0
  -21.4133  -29.3375   22.3735 N   0  0  0  0  0  0  0  0  0131  0  0
  -26.4706  -37.3372   23.9061 N   0  0  0  0  0  0  0  0  0132  0  0
  -24.6674  -31.0544   22.1178 N   0  0  0  0  0  0  0  0  0133  0  0
  -23.4259  -28.8150   23.2971 O   0  0  0  0  0  0  0  0  0134  0  0
  -28.3948  -26.7345   20.0089 O   0  0  0  0  0  0  0  0  0135  0  0
  -26.5870  -34.9065   22.4671 O   0  0  0  0  0  0  0  0  0136  0  0
  -23.5365  -32.1254   23.7833 O   0  0  0  0  0  0  0  0  0137  0  0
  -31.2058  -21.6445   18.8923 C   0  0  0  0  0  0  0  0  0  0  0  0
  -32.1195  -21.7346   20.9483 C   0  0  0  0  0  0  0  0  0  0  0  0
  -32.2799  -22.1707   19.6516 C   0  0  0  0  0  0  0  0  0  0  0  0
  -30.4215  -20.9030   19.7483 C   0  0  0  0  0  0  0  0  0  0  0  0
  -34.7658  -22.3765   19.2886 C   0  0  0  0  0  0  0  0  0  0  0  0
  -33.3938  -24.4265   19.8086 C   0  0  0  0  0  0  0  0  0  0  0  0
  -27.5245  -19.3224   18.1113 C   0  0  0  0  0  0  0  0  0  0  0  0
  -26.4194  -19.8223   19.0285 C   0  0  0  0  0  0  0  0  0  1  0  0
  -28.7687  -20.1928   18.1928 C   0  0  0  0  0  0  0  0  0  0  0  0
  -30.4574  -20.2988   22.2360 C   0  0  0  0  0  0  0  0  0  0  0  0
  -33.3700  -23.0280   19.1484 C   0  0  0  0  0  0  0  0  0  0  0  0
  -30.9864  -20.9651   20.9953 N   0  0  0  0  0  0  0  0  0  0  0  0
  -30.3519  -18.8578   22.0683 N   0  0  0  0  0  0  0  0  0  0  0  0
  -29.2719  -20.1919   19.5219 O   0  0  0  0  0  0  0  0  0  0  0  0
  -31.4485  -12.4701   19.0860 H   0  0  0  0  0  0  0  0  0  0  0  0
  -30.3970  -11.2460   19.6950 H   0  0  0  0  0  0  0  0  0  0  0  0
  -29.6870  -11.8204   17.4226 H   0  0  0  0  0  0  0  0  0  0  0  0
  -29.6375  -13.5326   17.8649 H   0  0  0  0  0  0  0  0  0  0  0  0
  -27.7830  -11.3650   18.7904 H   0  0  0  0  0  0  0  0  0  0  0  0
  -27.4028  -12.7801   17.8021 H   0  0  0  0  0  0  0  0  0  0  0  0
  -27.7353  -14.2503   19.6136 H   0  0  0  0  0  0  0  0  0  0  0  0
  -28.5890  -11.9550   21.3832 H   0  0  0  0  0  0  0  0  0  0  0  0
  -28.5005  -13.6134   21.8562 H   0  0  0  0  0  0  0  0  0  0  0  0
  -25.2399   -9.5495   22.4318 H   0  0  0  0  0  0  0  0  0  0  0  0
  -23.9663   -7.5070   22.7297 H   0  0  0  0  0  0  0  0  0  0  0  0
  -21.1515   -8.8641   19.9162 H   0  0  0  0  0  0  0  0  0  0  0  0
  -22.4016  -10.9115   19.6476 H   0  0  0  0  0  0  0  0  0  0  0  0
  -21.2319   -7.5552   23.9750 H   0  0  0  0  0  0  0  0  0  0  0  0
  -21.1589   -6.0228   25.8556 H   0  0  0  0  0  0  0  0  0  0  0  0
  -22.0396   -2.8212   23.2809 H   0  0  0  0  0  0  0  0  0  0  0  0
  -22.4401  -11.9703   22.4008 H   0  0  0  0  0  0  0  0  0  0  0  0
  -21.1493  -13.0679   22.2082 H   0  0  0  0  0  0  0  0  0  0  0  0
  -24.6538  -15.7807   20.5848 H   0  0  0  0  0  0  0  0  0  0  0  0
  -26.2762  -15.5453   20.1156 H   0  0  0  0  0  0  0  0  0  0  0  0
  -26.6778  -32.4663   23.1464 H   0  0  0  0  0  0  0  0  0  0  0  0
  -25.0747  -34.0282   25.0566 H   0  0  0  0  0  0  0  0  0  0  0  0
  -22.7881  -31.3489   21.4131 H   0  0  0  0  0  0  0  0  0  0  0  0
  -23.3854  -35.9823   23.3648 H   0  0  0  0  0  0  0  0  0  0  0  0
  -24.3696  -36.8624   22.2204 H   0  0  0  0  0  0  0  0  0  0  0  0
  -23.7669  -37.6632   23.6516 H   0  0  0  0  0  0  0  0  0  0  0  0
  -25.9445  -31.6237   20.5691 H   0  0  0  0  0  0  0  0  0  0  0  0
  -26.7436  -31.0079   22.0108 H   0  0  0  0  0  0  0  0  0  0  0  0
  -28.0090  -29.1452   21.2057 H   0  0  0  0  0  0  0  0  0  0  0  0
  -26.1369  -26.0560   19.0719 H   0  0  0  0  0  0  0  0  0  0  0  0
  -24.0652  -27.2961   19.0997 H   0  0  0  0  0  0  0  0  0  0  0  0
  -23.6156  -30.5365   19.3930 H   0  0  0  0  0  0  0  0  0  0  0  0
  -22.7355  -29.1425   19.9945 H   0  0  0  0  0  0  0  0  0  0  0  0
  -25.1353  -36.2335   25.0565 H   0  0  0  0  0  0  0  0  0  0  0  0
  -21.0070  -28.3206   24.0793 H   0  0  0  0  0  0  0  0  0  0  0  0
  -20.5555  -26.2518   23.3550 H   0  0  0  0  0  0  0  0  0  0  0  0
  -21.5974  -26.8362   22.0454 H   0  0  0  0  0  0  0  0  0  0  0  0
  -19.6810  -25.6422   21.1488 H   0  0  0  0  0  0  0  0  0  0  0  0
  -19.6406  -27.3343   20.7034 H   0  0  0  0  0  0  0  0  0  0  0  0
  -17.4282  -26.6888   21.4113 H   0  0  0  0  0  0  0  0  0  0  0  0
  -18.0803  -26.0130   22.9049 H   0  0  0  0  0  0  0  0  0  0  0  0
  -19.7265  -30.6774   24.2204 H   0  0  0  0  0  0  0  0  0  0  0  0
  -17.5064  -31.5856   24.4483 H   0  0  0  0  0  0  0  0  0  0  0  0
  -15.5878  -30.2839   23.7407 H   0  0  0  0  0  0  0  0  0  0  0  0
  -15.9120  -28.0941   22.7766 H   0  0  0  0  0  0  0  0  0  0  0  0
  -24.5787  -30.7757   25.6817 H   0  0  0  0  0  0  0  0  0  0  0  0
  -25.0041  -32.2289   26.5536 H   0  0  0  0  0  0  0  0  0  0  0  0
  -25.8166  -30.7245   26.9138 H   0  0  0  0  0  0  0  0  0  0  0  0
  -26.2892  -29.7335   24.0803 H   0  0  0  0  0  0  0  0  0  0  0  0
  -27.4336  -29.7484   25.4006 H   0  0  0  0  0  0  0  0  0  0  0  0
  -27.8466  -30.4994   23.8779 H   0  0  0  0  0  0  0  0  0  0  0  0
  -27.2251  -33.3632   26.1242 H   0  0  0  0  0  0  0  0  0  0  0  0
  -28.3902  -32.6065   25.0645 H   0  0  0  0  0  0  0  0  0  0  0  0
  -27.9772  -31.8555   26.5872 H   0  0  0  0  0  0  0  0  0  0  0  0
  -28.2744  -38.0016   24.6863 H   0  0  0  0  0  0  0  0  0  0  0  0
  -28.0396  -36.2711   24.7461 H   0  0  0  0  0  0  0  0  0  0  0  0
  -27.1773  -37.3087   25.8564 H   0  0  0  0  0  0  0  0  0  0  0  0
  -20.9627  -29.9365   21.7352 H   0  0  0  0  0  0  0  0  0  0  0  0
  -26.0447  -38.2561   24.0273 H   0  0  0  0  0  0  0  0  0  0  0  0
  -31.0413  -21.7899   17.8839 H   0  0  0  0  0  0  0  0  0  0  0  0
  -32.7419  -21.9492   21.7431 H   0  0  0  0  0  0  0  0  0  0  0  0
  -34.7548  -21.4083   18.8333 H   0  0  0  0  0  0  0  0  0  0  0  0
  -35.0120  -22.2803   20.3254 H   0  0  0  0  0  0  0  0  0  0  0  0
  -35.4962  -22.9902   18.8041 H   0  0  0  0  0  0  0  0  0  0  0  0
  -32.4301  -24.8818   19.7144 H   0  0  0  0  0  0  0  0  0  0  0  0
  -34.1260  -25.0376   19.3234 H   0  0  0  0  0  0  0  0  0  0  0  0
  -33.6418  -24.3276   20.8448 H   0  0  0  0  0  0  0  0  0  0  0  0
  -27.1653  -19.3264   17.1034 H   0  0  0  0  0  0  0  0  0  0  0  0
  -27.7912  -18.3341   18.4228 H   0  0  0  0  0  0  0  0  0  0  0  0
  -26.4049  -19.2843   19.9533 H   0  0  0  0  0  0  0  0  0  0  0  0
  -25.4331  -19.7010   18.6319 H   0  0  0  0  0  0  0  0  0  0  0  0
  -28.5209  -21.1939   17.9077 H   0  0  0  0  0  0  0  0  0  0  0  0
  -29.5154  -19.8036   17.5326 H   0  0  0  0  0  0  0  0  0  0  0  0
  -29.4878  -20.6944   22.4557 H   0  0  0  0  0  0  0  0  0  0  0  0
  -31.1405  -20.4928   23.0364 H   0  0  0  0  0  0  0  0  0  0  0  0
  -33.1531  -23.1470   18.1074 H   0  0  0  0  0  0  0  0  0  0  0  0
  -29.7101  -18.6980   22.7976 H   0  0  0  0  0  0  0  0  0  0  0  0
  1 25  1  0
  1 30  2  0
  1 83  1  0
  2  3  1  0
  2 25  1  0
  2 85  1  0
  2 86  1  0
  3  4  1  0
  3 87  1  0
  3 88  1  0
  4  5  1  0
  4 89  1  0
  4 90  1  0
  5  6  1  0
  5 26  1  0
  5 91  1  6
  6 25  1  0
  6 92  1  0
  6 93  1  0
  7  8  2  0
  7 26  1  0
  7 29  1  0
  8  9  1  0
  8 22  1  0
  9 10  1  0
  9 27  2  0
 10 11  2  0
 10 15  1  0
 11 12  1  0
 11 94  1  0
 12 13  2  0
 12 95  1  0
 13 14  1  0
 13 31  1  0
 14 15  2  0
 14 96  1  0
 15 97  1  0
 16 17  2  0
 16 21  1  0
 16 31  1  0
 17 18  1  0
 17 98  1  0
 18 19  2  0
 18 99  1  0
 19 20  1  0
 19 24  1  0
 20 21  2  0
 20100  1  0
 21 23  1  0
 22 28  1  0
 22 32  2  0
 26 27  1  0
 28101  1  0
 28102  1  0
 29103  1  0
 29104  1  0
 33 34  1  0
 33 66  1  0
 33 70  2  0
 34 36  1  0
 34 59  1  0
 34105  1  6
 35 44  2  0
 35 45  1  0
 35 68  1  0
 36 56  1  0
 36106  1  0
 37 39  1  0
 37 47  1  0
 37 66  1  0
 37107  1  6
 38 43  2  0
 38 46  1  0
 38 47  1  0
 39 64  1  0
 39 67  2  0
 40 52  1  0
 40 53  2  0
 40 58  1  0
 41108  1  0
 41109  1  0
 41110  1  0
 42 43  1  0
 42 66  1  0
 42111  1  0
 42112  1  0
 43 44  1  0
 44113  1  0
 45 46  2  0
 45114  1  0
 46115  1  0
 47116  1  0
 47117  1  0
 48 41  1  0
 48 56  1  0
 48 65  1  0
 48118  1  1
 49 50  1  0
 49 53  1  0
 49 64  1  0
 49119  1  1
 50 51  1  0
 50120  1  0
 50121  1  0
 51 52  1  0
 51122  1  0
 51123  1  0
 52124  1  0
 52125  1  0
 53 54  1  0
 54 55  2  0
 54126  1  0
 55 57  1  0
 55127  1  0
 56 69  2  0
 57 58  2  0
 57128  1  0
 58129  1  0
 59 60  1  0
 59 61  1  0
 59 62  1  0
 60130  1  0
 60131  1  0
 60132  1  0
 61133  1  0
 61134  1  0
 61135  1  0
 62136  1  0
 62137  1  0
 62138  1  0
 63 65  1  0
 63139  1  0
 63140  1  0
 63141  1  0
 64142  1  0
 65143  1  0
 68 78  1  0
 71 73  1  0
 71 74  2  0
 71144  1  0
 72 73  2  0
 72 82  1  0
 72145  1  0
 73 81  1  0
 74 82  1  0
 74 84  1  0
 75146  1  0
 75147  1  0
 75148  1  0
 76 81  1  0
 76149  1  0
 76150  1  0
 76151  1  0
 77 78  1  0
 77 79  1  0
 77152  1  0
 77153  1  0
 78154  1  0
 78155  1  0
 79 84  1  0
 79156  1  0
 79157  1  0
 80 82  1  0
 80 83  1  0
 80158  1  0
 80159  1  0
 81 75  1  0
 81160  1  0
 83161  1  0
M  ISO  4   1 100  68 101  78 101  83 100
M  END
$$$$
72
     RDKit          3D

177185  0  0  0  0  0  0  0  0999 V2000
  -30.7652  -14.3608   20.6636 C   0  0  0  0  0  0  0  0  0100  0  0
  -30.4392  -12.2669   19.3775 C   0  0  0  0  0  0  0  0  0101  0  0
  -29.4791  -12.5281   18.1977 C   0  0  0  0  0  0  0  0  0102  0  0
  -27.9985  -12.3963   18.6038 C   0  0  0  0  0  0  0  0  0103  0  0
  -27.6639  -13.2170   19.8820 C   0  0  2  0  0  0  0  0  0104  0  0
  -28.6795  -12.9602   21.0279 C   0  0  0  0  0  0  0  0  0105  0  0
  -25.2633  -13.8245   20.5754 C   0  0  0  0  0  0  0  0  0106  0  0
  -24.1645  -13.0409   20.9408 C   0  0  0  0  0  0  0  0  0107  0  0
  -24.6400  -11.7009   20.8697 C   0  0  0  0  0  0  0  0  0108  0  0
  -23.9005  -10.4085   21.0420 C   0  0  0  0  0  0  0  0  0109  0  0
  -24.3588   -9.4123   21.9123 C   0  0  0  0  0  0  0  0  0110  0  0
  -23.6296   -8.2350   22.0803 C   0  0  0  0  0  0  0  0  0111  0  0
  -22.4385   -8.0419   21.3657 C   0  0  0  0  0  0  0  0  0112  0  0
  -22.0103   -9.0167   20.4678 C   0  0  0  0  0  0  0  0  0113  0  0
  -22.7317  -10.1925   20.3102 C   0  0  0  0  0  0  0  0  0114  0  0
  -21.6857   -6.0709   22.5391 C   0  0  0  0  0  0  0  0  0115  0  0
  -21.4064   -6.5490   23.8264 C   0  0  0  0  0  0  0  0  0116  0  0
  -21.3635   -5.6677   24.9085 C   0  0  0  0  0  0  0  0  0117  0  0
  -21.5973   -4.3067   24.7088 C   0  0  0  0  0  0  0  0  0118  0  0
  -21.8700   -3.8284   23.4282 C   0  0  0  0  0  0  0  0  0119  0  0
  -21.9144   -4.7056   22.3460 C   0  0  0  0  0  0  0  0  0120  0  0
  -22.8194  -13.5263   21.1763 C   0  0  0  0  0  0  0  0  0121  0  0
  -22.1559   -4.2206   21.1063 F   0  0  0  0  0  0  0  0  0122  0  0
  -21.5628   -3.4510   25.7555 F   0  0  0  0  0  0  0  0  0123  0  0
  -30.0261  -13.1803   20.4553 N   0  0  0  0  0  0  0  0  0124  0  0
  -26.2911  -12.9356   20.3443 N   0  0  0  0  0  0  0  0  0125  0  0
  -25.9236  -11.6675   20.5847 N   0  0  0  0  0  0  0  0  0126  0  0
  -22.0708  -12.7905   22.0005 N   0  0  0  0  0  0  0  0  0127  0  0
  -25.4117  -15.1773   20.4097 N   0  0  0  0  0  0  0  0  0128  0  0
  -31.7916  -14.6724   20.0536 O   0  0  0  0  0  0  0  0  0129  0  0
  -21.6670   -6.9022   21.4423 O   0  0  0  0  0  0  0  0  0130  0  0
  -22.3946  -14.5564   20.6568 O   0  0  0  0  0  0  0  0  0131  0  0
  -24.6048  -31.8614   23.2223 C   0  0  0  0  0  0  0  0  0100  0  0
  -25.8822  -32.4841   23.8616 C   0  0  1  0  0  0  0  0  0101  0  0
  -27.2536  -27.5042   20.1156 C   0  0  0  0  0  0  0  0  0102  0  0
  -25.5726  -33.8762   24.2210 N   0  0  0  0  0  0  0  0  0103  0  0
  -23.4066  -30.4859   21.5461 C   0  0  2  0  0  0  0  0  0104  0  0
  -24.8467  -28.9636   20.1247 C   0  0  0  0  0  0  0  0  0105  0  0
  -22.7412  -29.4652   22.5052 C   0  0  0  0  0  0  0  0  0106  0  0
  -18.0167  -28.1302   22.8626 C   0  0  0  0  0  0  0  0  0107  0  0
  -24.1342  -36.7390   23.2568 C   0  0  0  0  0  0  0  0  0108  0  0
  -25.9141  -30.8882   21.3456 C   0  0  0  0  0  0  0  0  0109  0  0
  -25.9930  -29.5029   20.7208 C   0  0  0  0  0  0  0  0  0110  0  0
  -27.1758  -28.7612   20.7331 C   0  0  0  0  0  0  0  0  0111  0  0
  -26.1032  -26.9836   19.5230 C   0  0  0  0  0  0  0  0  0112  0  0
  -24.9097  -27.7011   19.5331 C   0  0  0  0  0  0  0  0  0113  0  0
  -23.5715  -29.7899   20.1582 C   0  0  0  0  0  0  0  0  0114  0  0
  -25.3990  -36.3212   24.0232 C   0  0  1  0  0  0  0  0  0115  0  0
  -20.5793  -28.3813   23.1004 C   0  0  2  0  0  0  0  0  0116  0  0
  -20.6548  -26.9392   22.5411 C   0  0  0  0  0  0  0  0  0117  0  0
  -19.5615  -26.6407   21.5143 C   0  0  0  0  0  0  0  0  0118  0  0
  -18.1797  -26.7818   22.1673 C   0  0  0  0  0  0  0  0  0119  0  0
  -19.1385  -28.8769   23.2988 C   0  0  0  0  0  0  0  0  0120  0  0
  -18.9183  -30.1286   23.8878 C   0  0  0  0  0  0  0  0  0121  0  0
  -17.6396  -30.6493   24.0352 C   0  0  0  0  0  0  0  0  0122  0  0
  -25.9153  -34.9582   23.4993 C   0  0  0  0  0  0  0  0  0123  0  0
  -16.5415  -29.9068   23.6254 C   0  0  0  0  0  0  0  0  0124  0  0
  -16.7331  -28.6521   23.0586 C   0  0  0  0  0  0  0  0  0125  0  0
  -26.4583  -31.6439   25.0683 C   0  0  0  0  0  0  0  0  0126  0  0
  -25.3807  -31.3179   26.1374 C   0  0  0  0  0  0  0  0  0127  0  0
  -27.0530  -30.3024   24.5680 C   0  0  0  0  0  0  0  0  0128  0  0
  -27.6014  -32.4281   25.7651 C   0  0  0  0  0  0  0  0  0129  0  0
  -27.5629  -37.2220   24.8621 C   0  0  0  0  0  0  0  0  0130  0  0
  -21.4133  -29.3375   22.3735 N   0  0  0  0  0  0  0  0  0131  0  0
  -26.4706  -37.3372   23.9061 N   0  0  0  0  0  0  0  0  0132  0  0
  -24.6674  -31.0544   22.1178 N   0  0  0  0  0  0  0  0  0133  0  0
  -23.4259  -28.8150   23.2971 O   0  0  0  0  0  0  0  0  0134  0  0
  -28.3948  -26.7345   20.0089 O   0  0  0  0  0  0  0  0  0135  0  0
  -26.5870  -34.9065   22.4671 O   0  0  0  0  0  0  0  0  0136  0  0
  -23.5365  -32.1254   23.7833 O   0  0  0  0  0  0  0  0  0137  0  0
  -17.5515  -27.2946   24.0159 C   0  0  0  0  0  0  0  0  0  0  0  0
  -18.1569  -28.6925   23.9447 C   0  0  0  0  0  0  0  0  0  0  0  0
  -18.5268  -26.2332   23.5135 C   0  0  0  0  0  0  0  0  0  0  0  0
  -18.6521  -29.0133   22.5400 C   0  0  0  0  0  0  0  0  0  0  0  0
  -19.0287  -26.5440   22.0966 C   0  0  1  0  0  0  0  0  0  0  0  0
  -19.6320  -27.9572   22.0261 C   0  0  2  0  0  0  0  0  0  1  0  0
  -19.3554  -24.1880   21.2507 C   0  0  0  0  0  0  0  0  0  0  0  0
  -25.1643  -21.6330   27.7613 C   0  0  0  0  0  0  0  0  0  0  0  0
  -23.1438  -24.4707   23.6103 C   0  0  0  0  0  0  0  0  0  0  0  0
  -24.4861  -23.8358   23.2483 C   0  0  0  0  0  0  0  0  0  0  0  0
  -24.8045  -22.8743   25.6013 C   0  0  0  0  0  0  0  0  0  0  0  0
  -22.2714  -24.6383   22.3741 C   0  0  0  0  0  0  0  0  0  0  0  0
  -20.0367  -25.4835   21.6457 C   0  0  2  0  0  0  0  0  0  0  0  0
  -25.8508  -22.3395   26.5943 C   0  0  2  0  0  0  0  0  0  0  0  0
  -25.4253  -23.6607   24.4426 C   0  0  2  0  0  0  0  0  0  0  0  0
  -26.7787  -21.4335   25.9547 N   0  0  0  0  0  0  0  0  0  0  0  0
  -20.9607  -25.2155   22.7770 N   0  0  0  0  0  0  0  0  0  0  0  0
  -25.7290  -24.9121   24.8996 F   0  0  0  0  0  0  0  0  0  0  0  0
  -31.4485  -12.4701   19.0860 H   0  0  0  0  0  0  0  0  0  0  0  0
  -30.3970  -11.2460   19.6950 H   0  0  0  0  0  0  0  0  0  0  0  0
  -29.6870  -11.8204   17.4226 H   0  0  0  0  0  0  0  0  0  0  0  0
  -29.6375  -13.5326   17.8649 H   0  0  0  0  0  0  0  0  0  0  0  0
  -27.7830  -11.3650   18.7904 H   0  0  0  0  0  0  0  0  0  0  0  0
  -27.4028  -12.7801   17.8021 H   0  0  0  0  0  0  0  0  0  0  0  0
  -27.7353  -14.2503   19.6136 H   0  0  0  0  0  0  0  0  0  0  0  0
  -28.5890  -11.9550   21.3832 H   0  0  0  0  0  0  0  0  0  0  0  0
  -28.5005  -13.6134   21.8562 H   0  0  0  0  0  0  0  0  0  0  0  0
  -25.2399   -9.5495   22.4318 H   0  0  0  0  0  0  0  0  0  0  0  0
  -23.9663   -7.5070   22.7297 H   0  0  0  0  0  0  0  0  0  0  0  0
  -21.1515   -8.8641   19.9162 H   0  0  0  0  0  0  0  0  0  0  0  0
  -22.4016  -10.9115   19.6476 H   0  0  0  0  0  0  0  0  0  0  0  0
  -21.2319   -7.5552   23.9750 H   0  0  0  0  0  0  0  0  0  0  0  0
  -21.1589   -6.0228   25.8556 H   0  0  0  0  0  0  0  0  0  0  0  0
  -22.0396   -2.8212   23.2809 H   0  0  0  0  0  0  0  0  0  0  0  0
  -22.4401  -11.9703   22.4008 H   0  0  0  0  0  0  0  0  0  0  0  0
  -21.1493  -13.0679   22.2082 H   0  0  0  0  0  0  0  0  0  0  0  0
  -24.6538  -15.7807   20.5848 H   0  0  0  0  0  0  0  0  0  0  0  0
  -26.2762  -15.5453   20.1156 H   0  0  0  0  0  0  0  0  0  0  0  0
  -26.6778  -32.4663   23.1464 H   0  0  0  0  0  0  0  0  0  0  0  0
  -25.0747  -34.0282   25.0566 H   0  0  0  0  0  0  0  0  0  0  0  0
  -22.7881  -31.3489   21.4131 H   0  0  0  0  0  0  0  0  0  0  0  0
  -23.3854  -35.9823   23.3648 H   0  0  0  0  0  0  0  0  0  0  0  0
  -24.3696  -36.8624   22.2204 H   0  0  0  0  0  0  0  0  0  0  0  0
  -23.7669  -37.6632   23.6516 H   0  0  0  0  0  0  0  0  0  0  0  0
  -25.9445  -31.6237   20.5691 H   0  0  0  0  0  0  0  0  0  0  0  0
  -26.7436  -31.0079   22.0108 H   0  0  0  0  0  0  0  0  0  0  0  0
  -28.0090  -29.1452   21.2057 H   0  0  0  0  0  0  0  0  0  0  0  0
  -26.1369  -26.0560   19.0719 H   0  0  0  0  0  0  0  0  0  0  0  0
  -24.0652  -27.2961   19.0997 H   0  0  0  0  0  0  0  0  0  0  0  0
  -23.6156  -30.5365   19.3930 H   0  0  0  0  0  0  0  0  0  0  0  0
  -22.7355  -29.1425   19.9945 H   0  0  0  0  0  0  0  0  0  0  0  0
  -25.1353  -36.2335   25.0565 H   0  0  0  0  0  0  0  0  0  0  0  0
  -21.0070  -28.3206   24.0793 H   0  0  0  0  0  0  0  0  0  0  0  0
  -20.5555  -26.2518   23.3550 H   0  0  0  0  0  0  0  0  0  0  0  0
  -21.5974  -26.8362   22.0454 H   0  0  0  0  0  0  0  0  0  0  0  0
  -19.6810  -25.6422   21.1488 H   0  0  0  0  0  0  0  0  0  0  0  0
  -19.6406  -27.3343   20.7034 H   0  0  0  0  0  0  0  0  0  0  0  0
  -17.4282  -26.6888   21.4113 H   0  0  0  0  0  0  0  0  0  0  0  0
  -18.0803  -26.0130   22.9049 H   0  0  0  0  0  0  0  0  0  0  0  0
  -19.7265  -30.6774   24.2204 H   0  0  0  0  0  0  0  0  0  0  0  0
  -17.5064  -31.5856   24.4483 H   0  0  0  0  0  0  0  0  0  0  0  0
  -15.5878  -30.2839   23.7407 H   0  0  0  0  0  0  0  0  0  0  0  0
  -15.9120  -28.0941   22.7766 H   0  0  0  0  0  0  0  0  0  0  0  0
  -24.5787  -30.7757   25.6817 H   0  0  0  0  0  0  0  0  0  0  0  0
  -25.0041  -32.2289   26.5536 H   0  0  0  0  0  0  0  0  0  0  0  0
  -25.8166  -30.7245   26.9138 H   0  0  0  0  0  0  0  0  0  0  0  0
  -26.2892  -29.7335   24.0803 H   0  0  0  0  0  0  0  0  0  0  0  0
  -27.4336  -29.7484   25.4006 H   0  0  0  0  0  0  0  0  0  0  0  0
  -27.8466  -30.4994   23.8779 H   0  0  0  0  0  0  0  0  0  0  0  0
  -27.2251  -33.3632   26.1242 H   0  0  0  0  0  0  0  0  0  0  0  0
  -28.3902  -32.6065   25.0645 H   0  0  0  0  0  0  0  0  0  0  0  0
  -27.9772  -31.8555   26.5872 H   0  0  0  0  0  0  0  0  0  0  0  0
  -28.2744  -38.0016   24.6863 H   0  0  0  0  0  0  0  0  0  0  0  0
  -28.0396  -36.2711   24.7461 H   0  0  0  0  0  0  0  0  0  0  0  0
  -27.1773  -37.3087   25.8564 H   0  0  0  0  0  0  0  0  0  0  0  0
  -20.9627  -29.9365   21.7352 H   0  0  0  0  0  0  0  0  0  0  0  0
  -26.0447  -38.2561   24.0273 H   0  0  0  0  0  0  0  0  0  0  0  0
  -16.6681  -27.2677   23.4127 H   0  0  0  0  0  0  0  0  0  0  0  0
  -17.3225  -27.0810   25.0390 H   0  0  0  0  0  0  0  0  0  0  0  0
  -18.9802  -28.7504   24.6257 H   0  0  0  0  0  0  0  0  0  0  0  0
  -17.3986  -29.4014   24.2044 H   0  0  0  0  0  0  0  0  0  0  0  0
  -18.0319  -25.2845   23.5052 H   0  0  0  0  0  0  0  0  0  0  0  0
  -19.3716  -26.2210   24.1700 H   0  0  0  0  0  0  0  0  0  0  0  0
  -19.1439  -29.9634   22.5551 H   0  0  0  0  0  0  0  0  0  0  0  0
  -17.8060  -29.0275   21.8851 H   0  0  0  0  0  0  0  0  0  0  0  0
  -18.1956  -26.5169   21.4257 H   0  0  0  0  0  0  0  0  0  0  0  0
  -19.8108  -28.9230   21.6017 H   0  0  0  0  0  0  0  0  0  0  0  0
  -18.6869  -24.3707   20.4355 H   0  0  0  0  0  0  0  0  0  0  0  0
  -18.8047  -23.8059   22.0848 H   0  0  0  0  0  0  0  0  0  0  0  0
  -20.0938  -23.4730   20.9531 H   0  0  0  0  0  0  0  0  0  0  0  0
  -24.4786  -22.3061   28.2322 H   0  0  0  0  0  0  0  0  0  0  0  0
  -25.9007  -21.3194   28.4714 H   0  0  0  0  0  0  0  0  0  0  0  0
  -24.6326  -20.7785   27.3980 H   0  0  0  0  0  0  0  0  0  0  0  0
  -23.3175  -25.4309   24.0494 H   0  0  0  0  0  0  0  0  0  0  0  0
  -22.6377  -23.8297   24.3016 H   0  0  0  0  0  0  0  0  0  0  0  0
  -24.9707  -24.4589   22.5260 H   0  0  0  0  0  0  0  0  0  0  0  0
  -24.2771  -22.8575   22.8688 H   0  0  0  0  0  0  0  0  0  0  0  0
  -24.1320  -23.5182   26.1286 H   0  0  0  0  0  0  0  0  0  0  0  0
  -24.3013  -22.0289   25.1807 H   0  0  0  0  0  0  0  0  0  0  0  0
  -22.1165  -23.6852   21.9131 H   0  0  0  0  0  0  0  0  0  0  0  0
  -22.7544  -25.2922   21.6784 H   0  0  0  0  0  0  0  0  0  0  0  0
  -20.5599  -25.8523   20.7883 H   0  0  0  0  0  0  0  0  0  0  0  0
  -26.4034  -23.1793   26.9608 H   0  0  0  0  0  0  0  0  0  0  0  0
  -26.2788  -23.1072   24.1107 H   0  0  0  0  0  0  0  0  0  0  0  0
  -27.6097  -21.8061   26.3287 H   0  0  0  0  0  0  0  0  0  0  0  0
  -21.1350  -26.0955   23.2624 H   0  0  0  0  0  0  0  0  0  0  0  0
  -20.5048  -24.5202   23.3678 H   0  0  0  0  0  0  0  0  0  0  0  0
  1 25  1  0
  1 30  2  0
  1 86  1  0
  2  3  1  0
  2 25  1  0
  2 89  1  0
  2 90  1  0
  3  4  1  0
  3 91  1  0
  3 92  1  0
  4  5  1  0
  4 93  1  0
  4 94  1  0
  5  6  1  0
  5 26  1  0
  5 95  1  6
  6 25  1  0
  6 96  1  0
  6 97  1  0
  7  8  2  0
  7 26  1  0
  7 29  1  0
  8  9  1  0
  8 22  1  0
  9 10  1  0
  9 27  2  0
 10 11  2  0
 10 15  1  0
 11 12  1  0
 11 98  1  0
 12 13  2  0
 12 99  1  0
 13 14  1  0
 13 31  1  0
 14 15  2  0
 14100  1  0
 15101  1  0
 16 17  2  0
 16 21  1  0
 16 31  1  0
 17 18  1  0
 17102  1  0
 18 19  2  0
 18103  1  0
 19 20  1  0
 19 24  1  0
 20 21  2  0
 20104  1  0
 21 23  1  0
 22 28  1  0
 22 32  2  0
 26 27  1  0
 28105  1  0
 28106  1  0
 29107  1  0
 29108  1  0
 33 34  1  0
 33 66  1  0
 33 70  2  0
 34 36  1  0
 34 59  1  0
 34109  1  6
 35 44  2  0
 35 45  1  0
 35 68  1  0
 36 56  1  0
 36110  1  0
 37 39  1  0
 37 47  1  0
 37 66  1  0
 37111  1  6
 38 43  2  0
 38 46  1  0
 38 47  1  0
 39 64  1  0
 39 67  2  0
 40 52  1  0
 40 53  2  0
 40 58  1  0
 41112  1  0
 41113  1  0
 41114  1  0
 42 43  1  0
 42 66  1  0
 42115  1  0
 42116  1  0
 43 44  1  0
 44117  1  0
 45 46  2  0
 45118  1  0
 46119  1  0
 47120  1  0
 47121  1  0
 48 41  1  0
 48 56  1  0
 48 65  1  0
 48122  1  1
 49 50  1  0
 49 53  1  0
 49 64  1  0
 49123  1  1
 50 51  1  0
 50124  1  0
 50125  1  0
 51 52  1  0
 51126  1  0
 51127  1  0
 52128  1  0
 52129  1  0
 53 54  1  0
 54 55  2  0
 54130  1  0
 55 57  1  0
 55131  1  0
 56 69  2  0
 57 58  2  0
 57132  1  0
 58133  1  0
 59 60  1  0
 59 61  1  0
 59 62  1  0
 60134  1  0
 60135  1  0
 60136  1  0
 61137  1  0
 61138  1  0
 61139  1  0
 62140  1  0
 62141  1  0
 62142  1  0
 63 65  1  0
 63143  1  0
 63144  1  0
 63145  1  0
 64146  1  0
 65147  1  0
 71 72  1  0
 71 73  1  0
 71148  1  0
 71149  1  0
 72 74  1  0
 72150  1  0
 72151  1  0
 73152  1  0
 73153  1  0
 74 76  1  0
 74154  1  0
 74155  1  0
 75 73  1  0
 75 76  1  0
 75 83  1  0
 75156  1  6
 76 68  1  0
 76157  1  6
 77158  1  0
 77159  1  0
 77160  1  0
 78161  1  0
 78162  1  0
 78163  1  0
 79 80  1  0
 79 82  1  0
 79164  1  0
 79165  1  0
 80 85  1  0
 80166  1  0
 80167  1  0
 81 84  1  0
 81 85  1  0
 81168  1  0
 81169  1  0
 82 87  1  0
 82170  1  0
 82171  1  0
 83 77  1  0
 83 87  1  0
 83172  1  6
 84 78  1  0
 84 86  1  0
 84173  1  1
 85 88  1  0
 85174  1  6
 86175  1  0
 87176  1  0
 87177  1  0
M  CHG  1  87   1
M  ISO  4   1 100  68 101  76 101  86 100
M  END
$$$$
73
     RDKit          3D

170178  0  0  0  0  0  0  0  0999 V2000
  -30.7652  -14.3608   20.6636 C   0  0  0  0  0  0  0  0  0100  0  0
  -30.4392  -12.2669   19.3775 C   0  0  0  0  0  0  0  0  0101  0  0
  -29.4791  -12.5281   18.1977 C   0  0  0  0  0  0  0  0  0102  0  0
  -27.9985  -12.3963   18.6038 C   0  0  0  0  0  0  0  0  0103  0  0
  -27.6639  -13.2170   19.8820 C   0  0  2  0  0  0  0  0  0104  0  0
  -28.6795  -12.9602   21.0279 C   0  0  0  0  0  0  0  0  0105  0  0
  -25.2633  -13.8245   20.5754 C   0  0  0  0  0  0  0  0  0106  0  0
  -24.1645  -13.0409   20.9408 C   0  0  0  0  0  0  0  0  0107  0  0
  -24.6400  -11.7009   20.8697 C   0  0  0  0  0  0  0  0  0108  0  0
  -23.9005  -10.4085   21.0420 C   0  0  0  0  0  0  0  0  0109  0  0
  -24.3588   -9.4123   21.9123 C   0  0  0  0  0  0  0  0  0110  0  0
  -23.6296   -8.2350   22.0803 C   0  0  0  0  0  0  0  0  0111  0  0
  -22.4385   -8.0419   21.3657 C   0  0  0  0  0  0  0  0  0112  0  0
  -22.0103   -9.0167   20.4678 C   0  0  0  0  0  0  0  0  0113  0  0
  -22.7317  -10.1925   20.3102 C   0  0  0  0  0  0  0  0  0114  0  0
  -21.6857   -6.0709   22.5391 C   0  0  0  0  0  0  0  0  0115  0  0
  -21.4064   -6.5490   23.8264 C   0  0  0  0  0  0  0  0  0116  0  0
  -21.3635   -5.6677   24.9085 C   0  0  0  0  0  0  0  0  0117  0  0
  -21.5973   -4.3067   24.7088 C   0  0  0  0  0  0  0  0  0118  0  0
  -21.8700   -3.8284   23.4282 C   0  0  0  0  0  0  0  0  0119  0  0
  -21.9144   -4.7056   22.3460 C   0  0  0  0  0  0  0  0  0120  0  0
  -22.8194  -13.5263   21.1763 C   0  0  0  0  0  0  0  0  0121  0  0
  -22.1559   -4.2206   21.1063 F   0  0  0  0  0  0  0  0  0122  0  0
  -21.5628   -3.4510   25.7555 F   0  0  0  0  0  0  0  0  0123  0  0
  -30.0261  -13.1803   20.4553 N   0  0  0  0  0  0  0  0  0124  0  0
  -26.2911  -12.9356   20.3443 N   0  0  0  0  0  0  0  0  0125  0  0
  -25.9236  -11.6675   20.5847 N   0  0  0  0  0  0  0  0  0126  0  0
  -22.0708  -12.7905   22.0005 N   0  0  0  0  0  0  0  0  0127  0  0
  -25.4117  -15.1773   20.4097 N   0  0  0  0  0  0  0  0  0128  0  0
  -31.7916  -14.6724   20.0536 O   0  0  0  0  0  0  0  0  0129  0  0
  -21.6670   -6.9022   21.4423 O   0  0  0  0  0  0  0  0  0130  0  0
  -22.3946  -14.5564   20.6568 O   0  0  0  0  0  0  0  0  0131  0  0
  -24.6048  -31.8614   23.2223 C   0  0  0  0  0  0  0  0  0100  0  0
  -25.8822  -32.4841   23.8616 C   0  0  1  0  0  0  0  0  0101  0  0
  -27.2536  -27.5042   20.1156 C   0  0  0  0  0  0  0  0  0102  0  0
  -25.5726  -33.8762   24.2210 N   0  0  0  0  0  0  0  0  0103  0  0
  -23.4066  -30.4859   21.5461 C   0  0  2  0  0  0  0  0  0104  0  0
  -24.8467  -28.9636   20.1247 C   0  0  0  0  0  0  0  0  0105  0  0
  -22.7412  -29.4652   22.5052 C   0  0  0  0  0  0  0  0  0106  0  0
  -18.0167  -28.1302   22.8626 C   0  0  0  0  0  0  0  0  0107  0  0
  -24.1342  -36.7390   23.2568 C   0  0  0  0  0  0  0  0  0108  0  0
  -25.9141  -30.8882   21.3456 C   0  0  0  0  0  0  0  0  0109  0  0
  -25.9930  -29.5029   20.7208 C   0  0  0  0  0  0  0  0  0110  0  0
  -27.1758  -28.7612   20.7331 C   0  0  0  0  0  0  0  0  0111  0  0
  -26.1032  -26.9836   19.5230 C   0  0  0  0  0  0  0  0  0112  0  0
  -24.9097  -27.7011   19.5331 C   0  0  0  0  0  0  0  0  0113  0  0
  -23.5715  -29.7899   20.1582 C   0  0  0  0  0  0  0  0  0114  0  0
  -25.3990  -36.3212   24.0232 C   0  0  1  0  0  0  0  0  0115  0  0
  -20.5793  -28.3813   23.1004 C   0  0  2  0  0  0  0  0  0116  0  0
  -20.6548  -26.9392   22.5411 C   0  0  0  0  0  0  0  0  0117  0  0
  -19.5615  -26.6407   21.5143 C   0  0  0  0  0  0  0  0  0118  0  0
  -18.1797  -26.7818   22.1673 C   0  0  0  0  0  0  0  0  0119  0  0
  -19.1385  -28.8769   23.2988 C   0  0  0  0  0  0  0  0  0120  0  0
  -18.9183  -30.1286   23.8878 C   0  0  0  0  0  0  0  0  0121  0  0
  -17.6396  -30.6493   24.0352 C   0  0  0  0  0  0  0  0  0122  0  0
  -25.9153  -34.9582   23.4993 C   0  0  0  0  0  0  0  0  0123  0  0
  -16.5415  -29.9068   23.6254 C   0  0  0  0  0  0  0  0  0124  0  0
  -16.7331  -28.6521   23.0586 C   0  0  0  0  0  0  0  0  0125  0  0
  -26.4583  -31.6439   25.0683 C   0  0  0  0  0  0  0  0  0126  0  0
  -25.3807  -31.3179   26.1374 C   0  0  0  0  0  0  0  0  0127  0  0
  -27.0530  -30.3024   24.5680 C   0  0  0  0  0  0  0  0  0128  0  0
  -27.6014  -32.4281   25.7651 C   0  0  0  0  0  0  0  0  0129  0  0
  -27.5629  -37.2220   24.8621 C   0  0  0  0  0  0  0  0  0130  0  0
  -21.4133  -29.3375   22.3735 N   0  0  0  0  0  0  0  0  0131  0  0
  -26.4706  -37.3372   23.9061 N   0  0  0  0  0  0  0  0  0132  0  0
  -24.6674  -31.0544   22.1178 N   0  0  0  0  0  0  0  0  0133  0  0
  -23.4259  -28.8150   23.2971 O   0  0  0  0  0  0  0  0  0134  0  0
  -28.3948  -26.7345   20.0089 O   0  0  0  0  0  0  0  0  0135  0  0
  -26.5870  -34.9065   22.4671 O   0  0  0  0  0  0  0  0  0136  0  0
  -23.5365  -32.1254   23.7833 O   0  0  0  0  0  0  0  0  0137  0  0
  -34.2108  -20.7342   27.7543 C   0  0  0  0  0  0  0  0  0  0  0  0
  -32.7314  -19.7165   26.1543 C   0  0  0  0  0  0  0  0  0  0  0  0
  -32.9473  -20.2643   27.4140 C   0  0  0  0  0  0  0  0  0  0  0  0
  -35.2169  -20.6343   26.8069 C   0  0  0  0  0  0  0  0  0  0  0  0
  -33.8036  -19.6623   25.2784 C   0  0  0  0  0  0  0  0  0  0  0  0
  -36.5855  -21.1293   27.1372 C   0  0  0  0  0  0  0  0  0  0  0  0
  -31.1885  -22.5625   30.7256 C   0  0  0  0  0  0  0  0  0  0  0  0
  -29.4802  -20.7955   30.2394 C   0  0  0  0  0  0  0  0  0  0  0  0
  -30.0975  -24.1335   26.6430 C   0  0  0  0  0  0  0  0  0  0  0  0
  -31.8125  -20.3486   28.4095 C   0  0  0  0  0  0  0  0  0  0  0  0
  -30.0474  -21.6218   27.0953 C   0  0  0  0  0  0  0  0  0  0  0  0
  -28.3655  -22.6660   25.5476 C   0  0  0  0  0  0  0  0  0  1  0  0
  -30.2481  -21.9860   29.6595 C   0  0  0  0  0  0  0  0  0  0  0  0
  -29.2172  -22.8904   26.8082 C   0  0  2  0  0  0  0  0  0  0  0  0
  -30.9947  -21.6672   28.3271 C   0  0  1  0  0  0  0  0  0  0  0  0
  -35.0452  -20.1086   25.5733 N   0  0  0  0  0  0  0  0  0  0  0  0
  -33.5733  -19.1028   23.9972 N   0  0  0  0  0  0  0  0  0  0  0  0
  -31.4485  -12.4701   19.0860 H   0  0  0  0  0  0  0  0  0  0  0  0
  -30.3970  -11.2460   19.6950 H   0  0  0  0  0  0  0  0  0  0  0  0
  -29.6870  -11.8204   17.4226 H   0  0  0  0  0  0  0  0  0  0  0  0
  -29.6375  -13.5326   17.8649 H   0  0  0  0  0  0  0  0  0  0  0  0
  -27.7830  -11.3650   18.7904 H   0  0  0  0  0  0  0  0  0  0  0  0
  -27.4028  -12.7801   17.8021 H   0  0  0  0  0  0  0  0  0  0  0  0
  -27.7353  -14.2503   19.6136 H   0  0  0  0  0  0  0  0  0  0  0  0
  -28.5890  -11.9550   21.3832 H   0  0  0  0  0  0  0  0  0  0  0  0
  -28.5005  -13.6134   21.8562 H   0  0  0  0  0  0  0  0  0  0  0  0
  -25.2399   -9.5495   22.4318 H   0  0  0  0  0  0  0  0  0  0  0  0
  -23.9663   -7.5070   22.7297 H   0  0  0  0  0  0  0  0  0  0  0  0
  -21.1515   -8.8641   19.9162 H   0  0  0  0  0  0  0  0  0  0  0  0
  -22.4016  -10.9115   19.6476 H   0  0  0  0  0  0  0  0  0  0  0  0
  -21.2319   -7.5552   23.9750 H   0  0  0  0  0  0  0  0  0  0  0  0
  -21.1589   -6.0228   25.8556 H   0  0  0  0  0  0  0  0  0  0  0  0
  -22.0396   -2.8212   23.2809 H   0  0  0  0  0  0  0  0  0  0  0  0
  -22.4401  -11.9703   22.4008 H   0  0  0  0  0  0  0  0  0  0  0  0
  -21.1493  -13.0679   22.2082 H   0  0  0  0  0  0  0  0  0  0  0  0
  -24.6538  -15.7807   20.5848 H   0  0  0  0  0  0  0  0  0  0  0  0
  -26.2762  -15.5453   20.1156 H   0  0  0  0  0  0  0  0  0  0  0  0
  -26.6778  -32.4663   23.1464 H   0  0  0  0  0  0  0  0  0  0  0  0
  -25.0747  -34.0282   25.0566 H   0  0  0  0  0  0  0  0  0  0  0  0
  -22.7881  -31.3489   21.4131 H   0  0  0  0  0  0  0  0  0  0  0  0
  -23.3854  -35.9823   23.3648 H   0  0  0  0  0  0  0  0  0  0  0  0
  -24.3696  -36.8624   22.2204 H   0  0  0  0  0  0  0  0  0  0  0  0
  -23.7669  -37.6632   23.6516 H   0  0  0  0  0  0  0  0  0  0  0  0
  -25.9445  -31.6237   20.5691 H   0  0  0  0  0  0  0  0  0  0  0  0
  -26.7436  -31.0079   22.0108 H   0  0  0  0  0  0  0  0  0  0  0  0
  -28.0090  -29.1452   21.2057 H   0  0  0  0  0  0  0  0  0  0  0  0
  -26.1369  -26.0560   19.0719 H   0  0  0  0  0  0  0  0  0  0  0  0
  -24.0652  -27.2961   19.0997 H   0  0  0  0  0  0  0  0  0  0  0  0
  -23.6156  -30.5365   19.3930 H   0  0  0  0  0  0  0  0  0  0  0  0
  -22.7355  -29.1425   19.9945 H   0  0  0  0  0  0  0  0  0  0  0  0
  -25.1353  -36.2335   25.0565 H   0  0  0  0  0  0  0  0  0  0  0  0
  -21.0070  -28.3206   24.0793 H   0  0  0  0  0  0  0  0  0  0  0  0
  -20.5555  -26.2518   23.3550 H   0  0  0  0  0  0  0  0  0  0  0  0
  -21.5974  -26.8362   22.0454 H   0  0  0  0  0  0  0  0  0  0  0  0
  -19.6810  -25.6422   21.1488 H   0  0  0  0  0  0  0  0  0  0  0  0
  -19.6406  -27.3343   20.7034 H   0  0  0  0  0  0  0  0  0  0  0  0
  -17.4282  -26.6888   21.4113 H   0  0  0  0  0  0  0  0  0  0  0  0
  -18.0803  -26.0130   22.9049 H   0  0  0  0  0  0  0  0  0  0  0  0
  -19.7265  -30.6774   24.2204 H   0  0  0  0  0  0  0  0  0  0  0  0
  -17.5064  -31.5856   24.4483 H   0  0  0  0  0  0  0  0  0  0  0  0
  -15.5878  -30.2839   23.7407 H   0  0  0  0  0  0  0  0  0  0  0  0
  -15.9120  -28.0941   22.7766 H   0  0  0  0  0  0  0  0  0  0  0  0
  -24.5787  -30.7757   25.6817 H   0  0  0  0  0  0  0  0  0  0  0  0
  -25.0041  -32.2289   26.5536 H   0  0  0  0  0  0  0  0  0  0  0  0
  -25.8166  -30.7245   26.9138 H   0  0  0  0  0  0  0  0  0  0  0  0
  -26.2892  -29.7335   24.0803 H   0  0  0  0  0  0  0  0  0  0  0  0
  -27.4336  -29.7484   25.4006 H   0  0  0  0  0  0  0  0  0  0  0  0
  -27.8466  -30.4994   23.8779 H   0  0  0  0  0  0  0  0  0  0  0  0
  -27.2251  -33.3632   26.1242 H   0  0  0  0  0  0  0  0  0  0  0  0
  -28.3902  -32.6065   25.0645 H   0  0  0  0  0  0  0  0  0  0  0  0
  -27.9772  -31.8555   26.5872 H   0  0  0  0  0  0  0  0  0  0  0  0
  -28.2744  -38.0016   24.6863 H   0  0  0  0  0  0  0  0  0  0  0  0
  -28.0396  -36.2711   24.7461 H   0  0  0  0  0  0  0  0  0  0  0  0
  -27.1773  -37.3087   25.8564 H   0  0  0  0  0  0  0  0  0  0  0  0
  -20.9627  -29.9365   21.7352 H   0  0  0  0  0  0  0  0  0  0  0  0
  -26.0447  -38.2561   24.0273 H   0  0  0  0  0  0  0  0  0  0  0  0
  -34.3936  -21.1445   28.6834 H   0  0  0  0  0  0  0  0  0  0  0  0
  -31.8019  -19.3615   25.8804 H   0  0  0  0  0  0  0  0  0  0  0  0
  -36.5930  -21.5188   28.1337 H   0  0  0  0  0  0  0  0  0  0  0  0
  -36.8608  -21.9020   26.4501 H   0  0  0  0  0  0  0  0  0  0  0  0
  -37.2840  -20.3220   27.0645 H   0  0  0  0  0  0  0  0  0  0  0  0
  -30.6343  -22.7648   31.6183 H   0  0  0  0  0  0  0  0  0  0  0  0
  -31.6248  -23.4699   30.3633 H   0  0  0  0  0  0  0  0  0  0  0  0
  -31.9623  -21.8550   30.9388 H   0  0  0  0  0  0  0  0  0  0  0  0
  -28.9973  -21.0907   31.1475 H   0  0  0  0  0  0  0  0  0  0  0  0
  -30.1617  -19.9957   30.4415 H   0  0  0  0  0  0  0  0  0  0  0  0
  -28.7448  -20.4679   29.5346 H   0  0  0  0  0  0  0  0  0  0  0  0
  -30.6831  -24.2759   27.5271 H   0  0  0  0  0  0  0  0  0  0  0  0
  -29.4776  -24.9910   26.4839 H   0  0  0  0  0  0  0  0  0  0  0  0
  -30.7466  -24.0018   25.8026 H   0  0  0  0  0  0  0  0  0  0  0  0
  -32.2226  -20.2683   29.3945 H   0  0  0  0  0  0  0  0  0  0  0  0
  -31.1377  -19.5513   28.1773 H   0  0  0  0  0  0  0  0  0  0  0  0
  -30.6484  -21.4261   26.2319 H   0  0  0  0  0  0  0  0  0  0  0  0
  -29.3285  -20.8627   27.3231 H   0  0  0  0  0  0  0  0  0  0  0  0
  -27.3508  -22.6524   25.8869 H   0  0  0  0  0  0  0  0  0  0  0  0
  -28.8359  -21.7917   25.1487 H   0  0  0  0  0  0  0  0  0  0  0  0
  -29.5259  -22.7282   29.3904 H   0  0  0  0  0  0  0  0  0  0  0  0
  -28.5823  -23.0685   27.6508 H   0  0  0  0  0  0  0  0  0  0  0  0
  -31.6741  -22.4821   28.1884 H   0  0  0  0  0  0  0  0  0  0  0  0
  -34.0344  -19.6785   23.3451 H   0  0  0  0  0  0  0  0  0  0  0  0
  1 25  1  0
  1 30  2  0
  1 87  1  0
  2  3  1  0
  2 25  1  0
  2 88  1  0
  2 89  1  0
  3  4  1  0
  3 90  1  0
  3 91  1  0
  4  5  1  0
  4 92  1  0
  4 93  1  0
  5  6  1  0
  5 26  1  0
  5 94  1  6
  6 25  1  0
  6 95  1  0
  6 96  1  0
  7  8  2  0
  7 26  1  0
  7 29  1  0
  8  9  1  0
  8 22  1  0
  9 10  1  0
  9 27  2  0
 10 11  2  0
 10 15  1  0
 11 12  1  0
 11 97  1  0
 12 13  2  0
 12 98  1  0
 13 14  1  0
 13 31  1  0
 14 15  2  0
 14 99  1  0
 15100  1  0
 16 17  2  0
 16 21  1  0
 16 31  1  0
 17 18  1  0
 17101  1  0
 18 19  2  0
 18102  1  0
 19 20  1  0
 19 24  1  0
 20 21  2  0
 20103  1  0
 21 23  1  0
 22 28  1  0
 22 32  2  0
 26 27  1  0
 28104  1  0
 28105  1  0
 29106  1  0
 29107  1  0
 33 34  1  0
 33 66  1  0
 33 70  2  0
 34 36  1  0
 34 59  1  0
 34108  1  6
 35 44  2  0
 35 45  1  0
 35 68  1  0
 36 56  1  0
 36109  1  0
 37 39  1  0
 37 47  1  0
 37 66  1  0
 37110  1  6
 38 43  2  0
 38 46  1  0
 38 47  1  0
 39 64  1  0
 39 67  2  0
 40 52  1  0
 40 53  2  0
 40 58  1  0
 41111  1  0
 41112  1  0
 41113  1  0
 42 43  1  0
 42 66  1  0
 42114  1  0
 42115  1  0
 43 44  1  0
 44116  1  0
 45 46  2  0
 45117  1  0
 46118  1  0
 47119  1  0
 47120  1  0
 48 41  1  0
 48 56  1  0
 48 65  1  0
 48121  1  1
 49 50  1  0
 49 53  1  0
 49 64  1  0
 49122  1  1
 50 51  1  0
 50123  1  0
 50124  1  0
 51 52  1  0
 51125  1  0
 51126  1  0
 52127  1  0
 52128  1  0
 53 54  1  0
 54 55  2  0
 54129  1  0
 55 57  1  0
 55130  1  0
 56 69  2  0
 57 58  2  0
 57131  1  0
 58132  1  0
 59 60  1  0
 59 61  1  0
 59 62  1  0
 60133  1  0
 60134  1  0
 60135  1  0
 61136  1  0
 61137  1  0
 61138  1  0
 62139  1  0
 62140  1  0
 62141  1  0
 63 65  1  0
 63142  1  0
 63143  1  0
 63144  1  0
 64145  1  0
 65146  1  0
 68 82  1  0
 71 73  2  0
 71 74  1  0
 71147  1  0
 72 73  1  0
 72 75  2  0
 72148  1  0
 73 80  1  0
 74 76  1  0
 74 86  2  0
 75 86  1  0
 75 87  1  0
 76149  1  0
 76150  1  0
 76151  1  0
 77152  1  0
 77153  1  0
 77154  1  0
 78 83  1  0
 78155  1  0
 78156  1  0
 78157  1  0
 79158  1  0
 79159  1  0
 79160  1  0
 80161  1  0
 80162  1  0
 81 84  1  0
 81 85  1  0
 81163  1  0
 81164  1  0
 82 84  1  0
 82165  1  0
 82166  1  0
 83 77  1  0
 83 85  1  0
 83167  1  0
 84 79  1  0
 84168  1  1
 85 80  1  0
 85169  1  6
 87170  1  0
M  ISO  4   1 100  68 101  82 101  87 100
M  END
$$$$
74
     RDKit          3D

171179  0  0  0  0  0  0  0  0999 V2000
  -30.7652  -14.3608   20.6636 C   0  0  0  0  0  0  0  0  0100  0  0
  -30.4392  -12.2669   19.3775 C   0  0  0  0  0  0  0  0  0101  0  0
  -29.4791  -12.5281   18.1977 C   0  0  0  0  0  0  0  0  0102  0  0
  -27.9985  -12.3963   18.6038 C   0  0  0  0  0  0  0  0  0103  0  0
  -27.6639  -13.2170   19.8820 C   0  0  2  0  0  0  0  0  0104  0  0
  -28.6795  -12.9602   21.0279 C   0  0  0  0  0  0  0  0  0105  0  0
  -25.2633  -13.8245   20.5754 C   0  0  0  0  0  0  0  0  0106  0  0
  -24.1645  -13.0409   20.9408 C   0  0  0  0  0  0  0  0  0107  0  0
  -24.6400  -11.7009   20.8697 C   0  0  0  0  0  0  0  0  0108  0  0
  -23.9005  -10.4085   21.0420 C   0  0  0  0  0  0  0  0  0109  0  0
  -24.3588   -9.4123   21.9123 C   0  0  0  0  0  0  0  0  0110  0  0
  -23.6296   -8.2350   22.0803 C   0  0  0  0  0  0  0  0  0111  0  0
  -22.4385   -8.0419   21.3657 C   0  0  0  0  0  0  0  0  0112  0  0
  -22.0103   -9.0167   20.4678 C   0  0  0  0  0  0  0  0  0113  0  0
  -22.7317  -10.1925   20.3102 C   0  0  0  0  0  0  0  0  0114  0  0
  -21.6857   -6.0709   22.5391 C   0  0  0  0  0  0  0  0  0115  0  0
  -21.4064   -6.5490   23.8264 C   0  0  0  0  0  0  0  0  0116  0  0
  -21.3635   -5.6677   24.9085 C   0  0  0  0  0  0  0  0  0117  0  0
  -21.5973   -4.3067   24.7088 C   0  0  0  0  0  0  0  0  0118  0  0
  -21.8700   -3.8284   23.4282 C   0  0  0  0  0  0  0  0  0119  0  0
  -21.9144   -4.7056   22.3460 C   0  0  0  0  0  0  0  0  0120  0  0
  -22.8194  -13.5263   21.1763 C   0  0  0  0  0  0  0  0  0121  0  0
  -22.1559   -4.2206   21.1063 F   0  0  0  0  0  0  0  0  0122  0  0
  -21.5628   -3.4510   25.7555 F   0  0  0  0  0  0  0  0  0123  0  0
  -30.0261  -13.1803   20.4553 N   0  0  0  0  0  0  0  0  0124  0  0
  -26.2911  -12.9356   20.3443 N   0  0  0  0  0  0  0  0  0125  0  0
  -25.9236  -11.6675   20.5847 N   0  0  0  0  0  0  0  0  0126  0  0
  -22.0708  -12.7905   22.0005 N   0  0  0  0  0  0  0  0  0127  0  0
  -25.4117  -15.1773   20.4097 N   0  0  0  0  0  0  0  0  0128  0  0
  -31.7916  -14.6724   20.0536 O   0  0  0  0  0  0  0  0  0129  0  0
  -21.6670   -6.9022   21.4423 O   0  0  0  0  0  0  0  0  0130  0  0
  -22.3946  -14.5564   20.6568 O   0  0  0  0  0  0  0  0  0131  0  0
  -24.6048  -31.8614   23.2223 C   0  0  0  0  0  0  0  0  0100  0  0
  -25.8822  -32.4841   23.8616 C   0  0  1  0  0  0  0  0  0101  0  0
  -27.2536  -27.5042   20.1156 C   0  0  0  0  0  0  0  0  0102  0  0
  -25.5726  -33.8762   24.2210 N   0  0  0  0  0  0  0  0  0103  0  0
  -23.4066  -30.4859   21.5461 C   0  0  2  0  0  0  0  0  0104  0  0
  -24.8467  -28.9636   20.1247 C   0  0  0  0  0  0  0  0  0105  0  0
  -22.7412  -29.4652   22.5052 C   0  0  0  0  0  0  0  0  0106  0  0
  -18.0167  -28.1302   22.8626 C   0  0  0  0  0  0  0  0  0107  0  0
  -24.1342  -36.7390   23.2568 C   0  0  0  0  0  0  0  0  0108  0  0
  -25.9141  -30.8882   21.3456 C   0  0  0  0  0  0  0  0  0109  0  0
  -25.9930  -29.5029   20.7208 C   0  0  0  0  0  0  0  0  0110  0  0
  -27.1758  -28.7612   20.7331 C   0  0  0  0  0  0  0  0  0111  0  0
  -26.1032  -26.9836   19.5230 C   0  0  0  0  0  0  0  0  0112  0  0
  -24.9097  -27.7011   19.5331 C   0  0  0  0  0  0  0  0  0113  0  0
  -23.5715  -29.7899   20.1582 C   0  0  0  0  0  0  0  0  0114  0  0
  -25.3990  -36.3212   24.0232 C   0  0  1  0  0  0  0  0  0115  0  0
  -20.5793  -28.3813   23.1004 C   0  0  2  0  0  0  0  0  0116  0  0
  -20.6548  -26.9392   22.5411 C   0  0  0  0  0  0  0  0  0117  0  0
  -19.5615  -26.6407   21.5143 C   0  0  0  0  0  0  0  0  0118  0  0
  -18.1797  -26.7818   22.1673 C   0  0  0  0  0  0  0  0  0119  0  0
  -19.1385  -28.8769   23.2988 C   0  0  0  0  0  0  0  0  0120  0  0
  -18.9183  -30.1286   23.8878 C   0  0  0  0  0  0  0  0  0121  0  0
  -17.6396  -30.6493   24.0352 C   0  0  0  0  0  0  0  0  0122  0  0
  -25.9153  -34.9582   23.4993 C   0  0  0  0  0  0  0  0  0123  0  0
  -16.5415  -29.9068   23.6254 C   0  0  0  0  0  0  0  0  0124  0  0
  -16.7331  -28.6521   23.0586 C   0  0  0  0  0  0  0  0  0125  0  0
  -26.4583  -31.6439   25.0683 C   0  0  0  0  0  0  0  0  0126  0  0
  -25.3807  -31.3179   26.1374 C   0  0  0  0  0  0  0  0  0127  0  0
  -27.0530  -30.3024   24.5680 C   0  0  0  0  0  0  0  0  0128  0  0
  -27.6014  -32.4281   25.7651 C   0  0  0  0  0  0  0  0  0129  0  0
  -27.5629  -37.2220   24.8621 C   0  0  0  0  0  0  0  0  0130  0  0
  -21.4133  -29.3375   22.3735 N   0  0  0  0  0  0  0  0  0131  0  0
  -26.4706  -37.3372   23.9061 N   0  0  0  0  0  0  0  0  0132  0  0
  -24.6674  -31.0544   22.1178 N   0  0  0  0  0  0  0  0  0133  0  0
  -23.4259  -28.8150   23.2971 O   0  0  0  0  0  0  0  0  0134  0  0
  -28.3948  -26.7345   20.0089 O   0  0  0  0  0  0  0  0  0135  0  0
  -26.5870  -34.9065   22.4671 O   0  0  0  0  0  0  0  0  0136  0  0
  -23.5365  -32.1254   23.7833 O   0  0  0  0  0  0  0  0  0137  0  0
  -29.3673  -21.4956   19.8311 C   0  0  0  0  0  0  0  0  0  0  0  0
  -27.1549  -21.5138   20.7036 C   0  0  0  0  0  0  0  0  0  0  0  0
  -27.2351  -20.1337   20.8530 C   0  0  0  0  0  0  0  0  0  0  0  0
  -28.2370  -22.2152   20.1836 C   0  0  0  0  0  0  0  0  0  0  0  0
  -28.4102  -19.5073   20.4702 C   0  0  0  0  0  0  0  0  0  0  0  0
  -26.0841  -19.3617   21.4092 C   0  0  0  0  0  0  0  0  0  0  0  0
  -25.2472  -22.9539   19.9035 C   0  0  0  0  0  0  0  0  0  0  0  0
  -26.1669  -23.2591   22.2307 C   0  0  0  0  0  0  0  0  0  0  0  0
  -29.1807  -25.6743   20.6327 C   0  0  0  0  0  0  0  0  0  0  0  0
  -30.4731  -26.4583   20.7828 C   0  0  0  0  0  0  0  0  0  0  0  0
  -31.3464  -28.6923   21.4794 C   0  0  0  0  0  0  0  0  0  0  0  0
  -29.4432  -24.2639   20.1247 C   0  0  0  0  0  0  0  0  0  0  0  0
  -30.8931  -30.0748   21.9053 C   0  0  0  0  0  0  0  0  0  1  0  0
  -25.9140  -22.2485   21.0978 C   0  0  0  0  0  0  0  0  0  0  0  0
  -29.4823  -20.1550   19.9614 N   0  0  0  0  0  0  0  0  0  0  0  0
  -28.5052  -18.1012   20.6173 N   0  0  0  0  0  0  0  0  0  0  0  0
  -30.1558  -27.8392   21.2370 N   0  0  0  0  0  0  0  0  0  0  0  0
  -28.2048  -23.5755   20.0179 O   0  0  0  0  0  0  0  0  0  0  0  0
  -31.4485  -12.4701   19.0860 H   0  0  0  0  0  0  0  0  0  0  0  0
  -30.3970  -11.2460   19.6950 H   0  0  0  0  0  0  0  0  0  0  0  0
  -29.6870  -11.8204   17.4226 H   0  0  0  0  0  0  0  0  0  0  0  0
  -29.6375  -13.5326   17.8649 H   0  0  0  0  0  0  0  0  0  0  0  0
  -27.7830  -11.3650   18.7904 H   0  0  0  0  0  0  0  0  0  0  0  0
  -27.4028  -12.7801   17.8021 H   0  0  0  0  0  0  0  0  0  0  0  0
  -27.7353  -14.2503   19.6136 H   0  0  0  0  0  0  0  0  0  0  0  0
  -28.5890  -11.9550   21.3832 H   0  0  0  0  0  0  0  0  0  0  0  0
  -28.5005  -13.6134   21.8562 H   0  0  0  0  0  0  0  0  0  0  0  0
  -25.2399   -9.5495   22.4318 H   0  0  0  0  0  0  0  0  0  0  0  0
  -23.9663   -7.5070   22.7297 H   0  0  0  0  0  0  0  0  0  0  0  0
  -21.1515   -8.8641   19.9162 H   0  0  0  0  0  0  0  0  0  0  0  0
  -22.4016  -10.9115   19.6476 H   0  0  0  0  0  0  0  0  0  0  0  0
  -21.2319   -7.5552   23.9750 H   0  0  0  0  0  0  0  0  0  0  0  0
  -21.1589   -6.0228   25.8556 H   0  0  0  0  0  0  0  0  0  0  0  0
  -22.0396   -2.8212   23.2809 H   0  0  0  0  0  0  0  0  0  0  0  0
  -22.4401  -11.9703   22.4008 H   0  0  0  0  0  0  0  0  0  0  0  0
  -21.1493  -13.0679   22.2082 H   0  0  0  0  0  0  0  0  0  0  0  0
  -24.6538  -15.7807   20.5848 H   0  0  0  0  0  0  0  0  0  0  0  0
  -26.2762  -15.5453   20.1156 H   0  0  0  0  0  0  0  0  0  0  0  0
  -26.6778  -32.4663   23.1464 H   0  0  0  0  0  0  0  0  0  0  0  0
  -25.0747  -34.0282   25.0566 H   0  0  0  0  0  0  0  0  0  0  0  0
  -22.7881  -31.3489   21.4131 H   0  0  0  0  0  0  0  0  0  0  0  0
  -23.3854  -35.9823   23.3648 H   0  0  0  0  0  0  0  0  0  0  0  0
  -24.3696  -36.8624   22.2204 H   0  0  0  0  0  0  0  0  0  0  0  0
  -23.7669  -37.6632   23.6516 H   0  0  0  0  0  0  0  0  0  0  0  0
  -25.9445  -31.6237   20.5691 H   0  0  0  0  0  0  0  0  0  0  0  0
  -26.7436  -31.0079   22.0108 H   0  0  0  0  0  0  0  0  0  0  0  0
  -28.0090  -29.1452   21.2057 H   0  0  0  0  0  0  0  0  0  0  0  0
  -26.1369  -26.0560   19.0719 H   0  0  0  0  0  0  0  0  0  0  0  0
  -24.0652  -27.2961   19.0997 H   0  0  0  0  0  0  0  0  0  0  0  0
  -23.6156  -30.5365   19.3930 H   0  0  0  0  0  0  0  0  0  0  0  0
  -22.7355  -29.1425   19.9945 H   0  0  0  0  0  0  0  0  0  0  0  0
  -25.1353  -36.2335   25.0565 H   0  0  0  0  0  0  0  0  0  0  0  0
  -21.0070  -28.3206   24.0793 H   0  0  0  0  0  0  0  0  0  0  0  0
  -20.5555  -26.2518   23.3550 H   0  0  0  0  0  0  0  0  0  0  0  0
  -21.5974  -26.8362   22.0454 H   0  0  0  0  0  0  0  0  0  0  0  0
  -19.6810  -25.6422   21.1488 H   0  0  0  0  0  0  0  0  0  0  0  0
  -19.6406  -27.3343   20.7034 H   0  0  0  0  0  0  0  0  0  0  0  0
  -17.4282  -26.6888   21.4113 H   0  0  0  0  0  0  0  0  0  0  0  0
  -18.0803  -26.0130   22.9049 H   0  0  0  0  0  0  0  0  0  0  0  0
  -19.7265  -30.6774   24.2204 H   0  0  0  0  0  0  0  0  0  0  0  0
  -17.5064  -31.5856   24.4483 H   0  0  0  0  0  0  0  0  0  0  0  0
  -15.5878  -30.2839   23.7407 H   0  0  0  0  0  0  0  0  0  0  0  0
  -15.9120  -28.0941   22.7766 H   0  0  0  0  0  0  0  0  0  0  0  0
  -24.5787  -30.7757   25.6817 H   0  0  0  0  0  0  0  0  0  0  0  0
  -25.0041  -32.2289   26.5536 H   0  0  0  0  0  0  0  0  0  0  0  0
  -25.8166  -30.7245   26.9138 H   0  0  0  0  0  0  0  0  0  0  0  0
  -26.2892  -29.7335   24.0803 H   0  0  0  0  0  0  0  0  0  0  0  0
  -27.4336  -29.7484   25.4006 H   0  0  0  0  0  0  0  0  0  0  0  0
  -27.8466  -30.4994   23.8779 H   0  0  0  0  0  0  0  0  0  0  0  0
  -27.2251  -33.3632   26.1242 H   0  0  0  0  0  0  0  0  0  0  0  0
  -28.3902  -32.6065   25.0645 H   0  0  0  0  0  0  0  0  0  0  0  0
  -27.9772  -31.8555   26.5872 H   0  0  0  0  0  0  0  0  0  0  0  0
  -28.2744  -38.0016   24.6863 H   0  0  0  0  0  0  0  0  0  0  0  0
  -28.0396  -36.2711   24.7461 H   0  0  0  0  0  0  0  0  0  0  0  0
  -27.1773  -37.3087   25.8564 H   0  0  0  0  0  0  0  0  0  0  0  0
  -20.9627  -29.9365   21.7352 H   0  0  0  0  0  0  0  0  0  0  0  0
  -26.0447  -38.2561   24.0273 H   0  0  0  0  0  0  0  0  0  0  0  0
  -30.1711  -22.0152   19.4452 H   0  0  0  0  0  0  0  0  0  0  0  0
  -25.2824  -20.0322   21.6385 H   0  0  0  0  0  0  0  0  0  0  0  0
  -26.3915  -18.8554   22.3003 H   0  0  0  0  0  0  0  0  0  0  0  0
  -25.7536  -18.6444   20.6873 H   0  0  0  0  0  0  0  0  0  0  0  0
  -25.0751  -22.2446   19.1211 H   0  0  0  0  0  0  0  0  0  0  0  0
  -25.8887  -23.7317   19.5451 H   0  0  0  0  0  0  0  0  0  0  0  0
  -24.3142  -23.3758   20.2140 H   0  0  0  0  0  0  0  0  0  0  0  0
  -26.6303  -22.7607   23.0564 H   0  0  0  0  0  0  0  0  0  0  0  0
  -25.2359  -23.6817   22.5461 H   0  0  0  0  0  0  0  0  0  0  0  0
  -26.8103  -24.0375   21.8772 H   0  0  0  0  0  0  0  0  0  0  0  0
  -28.5442  -26.1817   19.9382 H   0  0  0  0  0  0  0  0  0  0  0  0
  -28.7150  -25.6051   21.5936 H   0  0  0  0  0  0  0  0  0  0  0  0
  -30.9791  -26.4985   19.8409 H   0  0  0  0  0  0  0  0  0  0  0  0
  -31.1039  -25.9787   21.5018 H   0  0  0  0  0  0  0  0  0  0  0  0
  -31.9456  -28.2586   22.2525 H   0  0  0  0  0  0  0  0  0  0  0  0
  -31.9243  -28.7650   20.5818 H   0  0  0  0  0  0  0  0  0  0  0  0
  -30.0828  -23.7484   20.8103 H   0  0  0  0  0  0  0  0  0  0  0  0
  -29.9185  -24.3060   19.1670 H   0  0  0  0  0  0  0  0  0  0  0  0
  -31.1695  -30.9461   21.3491 H   0  0  0  0  0  0  0  0  0  0  0  0
  -30.8843  -30.6768   22.7898 H   0  0  0  0  0  0  0  0  0  0  0  0
  -25.2410  -21.5006   21.4620 H   0  0  0  0  0  0  0  0  0  0  0  0
  -27.5810  -17.8209   20.8087 H   0  0  0  0  0  0  0  0  0  0  0  0
  -29.6263  -27.7756   22.1064 H   0  0  0  0  0  0  0  0  0  0  0  0
  -29.6293  -28.2805   20.4830 H   0  0  0  0  0  0  0  0  0  0  0  0
  1 25  1  0
  1 30  2  0
  1 86  1  0
  2  3  1  0
  2 25  1  0
  2 89  1  0
  2 90  1  0
  3  4  1  0
  3 91  1  0
  3 92  1  0
  4  5  1  0
  4 93  1  0
  4 94  1  0
  5  6  1  0
  5 26  1  0
  5 95  1  6
  6 25  1  0
  6 96  1  0
  6 97  1  0
  7  8  2  0
  7 26  1  0
  7 29  1  0
  8  9  1  0
  8 22  1  0
  9 10  1  0
  9 27  2  0
 10 11  2  0
 10 15  1  0
 11 12  1  0
 11 98  1  0
 12 13  2  0
 12 99  1  0
 13 14  1  0
 13 31  1  0
 14 15  2  0
 14100  1  0
 15101  1  0
 16 17  2  0
 16 21  1  0
 16 31  1  0
 17 18  1  0
 17102  1  0
 18 19  2  0
 18103  1  0
 19 20  1  0
 19 24  1  0
 20 21  2  0
 20104  1  0
 21 23  1  0
 22 28  1  0
 22 32  2  0
 26 27  1  0
 28105  1  0
 28106  1  0
 29107  1  0
 29108  1  0
 33 34  1  0
 33 66  1  0
 33 70  2  0
 34 36  1  0
 34 59  1  0
 34109  1  6
 35 44  2  0
 35 45  1  0
 35 68  1  0
 36 56  1  0
 36110  1  0
 37 39  1  0
 37 47  1  0
 37 66  1  0
 37111  1  6
 38 43  2  0
 38 46  1  0
 38 47  1  0
 39 64  1  0
 39 67  2  0
 40 52  1  0
 40 53  2  0
 40 58  1  0
 41112  1  0
 41113  1  0
 41114  1  0
 42 43  1  0
 42 66  1  0
 42115  1  0
 42116  1  0
 43 44  1  0
 44117  1  0
 45 46  2  0
 45118  1  0
 46119  1  0
 47120  1  0
 47121  1  0
 48 41  1  0
 48 56  1  0
 48 65  1  0
 48122  1  1
 49 50  1  0
 49 53  1  0
 49 64  1  0
 49123  1  1
 50 51  1  0
 50124  1  0
 50125  1  0
 51 52  1  0
 51126  1  0
 51127  1  0
 52128  1  0
 52129  1  0
 53 54  1  0
 54 55  2  0
 54130  1  0
 55 57  1  0
 55131  1  0
 56 69  2  0
 57 58  2  0
 57132  1  0
 58133  1  0
 59 60  1  0
 59 61  1  0
 59 62  1  0
 60134  1  0
 60135  1  0
 60136  1  0
 61137  1  0
 61138  1  0
 61139  1  0
 62140  1  0
 62141  1  0
 62142  1  0
 63 65  1  0
 63143  1  0
 63144  1  0
 63145  1  0
 64146  1  0
 65147  1  0
 68 83  1  0
 71 74  2  0
 71 85  1  0
 71148  1  0
 72 73  2  0
 72 74  1  0
 72 84  1  0
 73 75  1  0
 73 76  1  0
 74 88  1  0
 75 85  2  0
 75 86  1  0
 76149  1  0
 76150  1  0
 76151  1  0
 77152  1  0
 77153  1  0
 77154  1  0
 78 84  1  0
 78155  1  0
 78156  1  0
 78157  1  0
 79 80  1  0
 79 82  1  0
 79158  1  0
 79159  1  0
 80 87  1  0
 80160  1  0
 80161  1  0
 81 83  1  0
 81 87  1  0
 81162  1  0
 81163  1  0
 82 88  1  0
 82164  1  0
 82165  1  0
 83166  1  0
 83167  1  0
 84 77  1  0
 84168  1  0
 86169  1  0
 87170  1  0
 87171  1  0
M  CHG  1  87   1
M  ISO  4   1 100  68 101  83 101  86 100
M  END
$$$$
75
     RDKit          3D

169177  0  0  0  0  0  0  0  0999 V2000
  -30.7652  -14.3608   20.6636 C   0  0  0  0  0  0  0  0  0100  0  0
  -30.4392  -12.2669   19.3775 C   0  0  0  0  0  0  0  0  0101  0  0
  -29.4791  -12.5281   18.1977 C   0  0  0  0  0  0  0  0  0102  0  0
  -27.9985  -12.3963   18.6038 C   0  0  0  0  0  0  0  0  0103  0  0
  -27.6639  -13.2170   19.8820 C   0  0  2  0  0  0  0  0  0104  0  0
  -28.6795  -12.9602   21.0279 C   0  0  0  0  0  0  0  0  0105  0  0
  -25.2633  -13.8245   20.5754 C   0  0  0  0  0  0  0  0  0106  0  0
  -24.1645  -13.0409   20.9408 C   0  0  0  0  0  0  0  0  0107  0  0
  -24.6400  -11.7009   20.8697 C   0  0  0  0  0  0  0  0  0108  0  0
  -23.9005  -10.4085   21.0420 C   0  0  0  0  0  0  0  0  0109  0  0
  -24.3588   -9.4123   21.9123 C   0  0  0  0  0  0  0  0  0110  0  0
  -23.6296   -8.2350   22.0803 C   0  0  0  0  0  0  0  0  0111  0  0
  -22.4385   -8.0419   21.3657 C   0  0  0  0  0  0  0  0  0112  0  0
  -22.0103   -9.0167   20.4678 C   0  0  0  0  0  0  0  0  0113  0  0
  -22.7317  -10.1925   20.3102 C   0  0  0  0  0  0  0  0  0114  0  0
  -21.6857   -6.0709   22.5391 C   0  0  0  0  0  0  0  0  0115  0  0
  -21.4064   -6.5490   23.8264 C   0  0  0  0  0  0  0  0  0116  0  0
  -21.3635   -5.6677   24.9085 C   0  0  0  0  0  0  0  0  0117  0  0
  -21.5973   -4.3067   24.7088 C   0  0  0  0  0  0  0  0  0118  0  0
  -21.8700   -3.8284   23.4282 C   0  0  0  0  0  0  0  0  0119  0  0
  -21.9144   -4.7056   22.3460 C   0  0  0  0  0  0  0  0  0120  0  0
  -22.8194  -13.5263   21.1763 C   0  0  0  0  0  0  0  0  0121  0  0
  -22.1559   -4.2206   21.1063 F   0  0  0  0  0  0  0  0  0122  0  0
  -21.5628   -3.4510   25.7555 F   0  0  0  0  0  0  0  0  0123  0  0
  -30.0261  -13.1803   20.4553 N   0  0  0  0  0  0  0  0  0124  0  0
  -26.2911  -12.9356   20.3443 N   0  0  0  0  0  0  0  0  0125  0  0
  -25.9236  -11.6675   20.5847 N   0  0  0  0  0  0  0  0  0126  0  0
  -22.0708  -12.7905   22.0005 N   0  0  0  0  0  0  0  0  0127  0  0
  -25.4117  -15.1773   20.4097 N   0  0  0  0  0  0  0  0  0128  0  0
  -31.7916  -14.6724   20.0536 O   0  0  0  0  0  0  0  0  0129  0  0
  -21.6670   -6.9022   21.4423 O   0  0  0  0  0  0  0  0  0130  0  0
  -22.3946  -14.5564   20.6568 O   0  0  0  0  0  0  0  0  0131  0  0
  -24.6048  -31.8614   23.2223 C   0  0  0  0  0  0  0  0  0100  0  0
  -25.8822  -32.4841   23.8616 C   0  0  1  0  0  0  0  0  0101  0  0
  -27.2536  -27.5042   20.1156 C   0  0  0  0  0  0  0  0  0102  0  0
  -25.5726  -33.8762   24.2210 N   0  0  0  0  0  0  0  0  0103  0  0
  -23.4066  -30.4859   21.5461 C   0  0  2  0  0  0  0  0  0104  0  0
  -24.8467  -28.9636   20.1247 C   0  0  0  0  0  0  0  0  0105  0  0
  -22.7412  -29.4652   22.5052 C   0  0  0  0  0  0  0  0  0106  0  0
  -18.0167  -28.1302   22.8626 C   0  0  0  0  0  0  0  0  0107  0  0
  -24.1342  -36.7390   23.2568 C   0  0  0  0  0  0  0  0  0108  0  0
  -25.9141  -30.8882   21.3456 C   0  0  0  0  0  0  0  0  0109  0  0
  -25.9930  -29.5029   20.7208 C   0  0  0  0  0  0  0  0  0110  0  0
  -27.1758  -28.7612   20.7331 C   0  0  0  0  0  0  0  0  0111  0  0
  -26.1032  -26.9836   19.5230 C   0  0  0  0  0  0  0  0  0112  0  0
  -24.9097  -27.7011   19.5331 C   0  0  0  0  0  0  0  0  0113  0  0
  -23.5715  -29.7899   20.1582 C   0  0  0  0  0  0  0  0  0114  0  0
  -25.3990  -36.3212   24.0232 C   0  0  1  0  0  0  0  0  0115  0  0
  -20.5793  -28.3813   23.1004 C   0  0  2  0  0  0  0  0  0116  0  0
  -20.6548  -26.9392   22.5411 C   0  0  0  0  0  0  0  0  0117  0  0
  -19.5615  -26.6407   21.5143 C   0  0  0  0  0  0  0  0  0118  0  0
  -18.1797  -26.7818   22.1673 C   0  0  0  0  0  0  0  0  0119  0  0
  -19.1385  -28.8769   23.2988 C   0  0  0  0  0  0  0  0  0120  0  0
  -18.9183  -30.1286   23.8878 C   0  0  0  0  0  0  0  0  0121  0  0
  -17.6396  -30.6493   24.0352 C   0  0  0  0  0  0  0  0  0122  0  0
  -25.9153  -34.9582   23.4993 C   0  0  0  0  0  0  0  0  0123  0  0
  -16.5415  -29.9068   23.6254 C   0  0  0  0  0  0  0  0  0124  0  0
  -16.7331  -28.6521   23.0586 C   0  0  0  0  0  0  0  0  0125  0  0
  -26.4583  -31.6439   25.0683 C   0  0  0  0  0  0  0  0  0126  0  0
  -25.3807  -31.3179   26.1374 C   0  0  0  0  0  0  0  0  0127  0  0
  -27.0530  -30.3024   24.5680 C   0  0  0  0  0  0  0  0  0128  0  0
  -27.6014  -32.4281   25.7651 C   0  0  0  0  0  0  0  0  0129  0  0
  -27.5629  -37.2220   24.8621 C   0  0  0  0  0  0  0  0  0130  0  0
  -21.4133  -29.3375   22.3735 N   0  0  0  0  0  0  0  0  0131  0  0
  -26.4706  -37.3372   23.9061 N   0  0  0  0  0  0  0  0  0132  0  0
  -24.6674  -31.0544   22.1178 N   0  0  0  0  0  0  0  0  0133  0  0
  -23.4259  -28.8150   23.2971 O   0  0  0  0  0  0  0  0  0134  0  0
  -28.3948  -26.7345   20.0089 O   0  0  0  0  0  0  0  0  0135  0  0
  -26.5870  -34.9065   22.4671 O   0  0  0  0  0  0  0  0  0136  0  0
  -23.5365  -32.1254   23.7833 O   0  0  0  0  0  0  0  0  0137  0  0
  -27.3032  -19.8962   19.5209 C   0  0  0  0  0  0  0  0  0  0  0  0
  -29.0103  -20.8557   20.6322 C   0  0  0  0  0  0  0  0  0  0  0  0
  -27.7226  -20.3899   20.7808 C   0  0  0  0  0  0  0  0  0  0  0  0
  -28.3475  -20.0751   18.6407 C   0  0  0  0  0  0  0  0  0  0  0  0
  -28.4458  -19.7385   17.2053 C   0  0  0  0  0  0  0  0  0  0  0  0
  -25.6006  -16.7300   22.3664 C   0  0  0  0  0  0  0  0  0  0  0  0
  -30.5878  -22.0398   17.6141 C   0  0  0  0  0  0  0  0  0  0  0  0
  -31.5164  -21.6832   19.8870 C   0  0  0  0  0  0  0  0  0  0  0  0
  -26.6053  -17.8579   22.1866 C   0  0  0  0  0  0  0  0  0  0  0  0
  -25.9104  -19.2233   22.1482 C   0  0  0  0  0  0  0  0  0  0  0  0
  -31.4259  -19.7618   18.2702 C   0  0  0  0  0  0  0  0  0  0  0  0
  -26.1530  -21.7381   22.2216 C   0  0  0  0  0  0  0  0  0  1  0  0
  -26.9022  -20.4042   22.0633 C   0  0  2  0  0  0  0  0  0  0  0  0
  -30.6678  -21.0194   18.7760 C   0  0  0  0  0  0  0  0  0  0  0  0
  -29.3799  -20.6589   19.3273 N   0  0  0  0  0  0  0  0  0  0  0  0
  -31.1799  -18.5818   19.0688 N   0  0  0  0  0  0  0  0  0  0  0  0
  -31.4485  -12.4701   19.0860 H   0  0  0  0  0  0  0  0  0  0  0  0
  -30.3970  -11.2460   19.6950 H   0  0  0  0  0  0  0  0  0  0  0  0
  -29.6870  -11.8204   17.4226 H   0  0  0  0  0  0  0  0  0  0  0  0
  -29.6375  -13.5326   17.8649 H   0  0  0  0  0  0  0  0  0  0  0  0
  -27.7830  -11.3650   18.7904 H   0  0  0  0  0  0  0  0  0  0  0  0
  -27.4028  -12.7801   17.8021 H   0  0  0  0  0  0  0  0  0  0  0  0
  -27.7353  -14.2503   19.6136 H   0  0  0  0  0  0  0  0  0  0  0  0
  -28.5890  -11.9550   21.3832 H   0  0  0  0  0  0  0  0  0  0  0  0
  -28.5005  -13.6134   21.8562 H   0  0  0  0  0  0  0  0  0  0  0  0
  -25.2399   -9.5495   22.4318 H   0  0  0  0  0  0  0  0  0  0  0  0
  -23.9663   -7.5070   22.7297 H   0  0  0  0  0  0  0  0  0  0  0  0
  -21.1515   -8.8641   19.9162 H   0  0  0  0  0  0  0  0  0  0  0  0
  -22.4016  -10.9115   19.6476 H   0  0  0  0  0  0  0  0  0  0  0  0
  -21.2319   -7.5552   23.9750 H   0  0  0  0  0  0  0  0  0  0  0  0
  -21.1589   -6.0228   25.8556 H   0  0  0  0  0  0  0  0  0  0  0  0
  -22.0396   -2.8212   23.2809 H   0  0  0  0  0  0  0  0  0  0  0  0
  -22.4401  -11.9703   22.4008 H   0  0  0  0  0  0  0  0  0  0  0  0
  -21.1493  -13.0679   22.2082 H   0  0  0  0  0  0  0  0  0  0  0  0
  -24.6538  -15.7807   20.5848 H   0  0  0  0  0  0  0  0  0  0  0  0
  -26.2762  -15.5453   20.1156 H   0  0  0  0  0  0  0  0  0  0  0  0
  -26.6778  -32.4663   23.1464 H   0  0  0  0  0  0  0  0  0  0  0  0
  -25.0747  -34.0282   25.0566 H   0  0  0  0  0  0  0  0  0  0  0  0
  -22.7881  -31.3489   21.4131 H   0  0  0  0  0  0  0  0  0  0  0  0
  -23.3854  -35.9823   23.3648 H   0  0  0  0  0  0  0  0  0  0  0  0
  -24.3696  -36.8624   22.2204 H   0  0  0  0  0  0  0  0  0  0  0  0
  -23.7669  -37.6632   23.6516 H   0  0  0  0  0  0  0  0  0  0  0  0
  -25.9445  -31.6237   20.5691 H   0  0  0  0  0  0  0  0  0  0  0  0
  -26.7436  -31.0079   22.0108 H   0  0  0  0  0  0  0  0  0  0  0  0
  -28.0090  -29.1452   21.2057 H   0  0  0  0  0  0  0  0  0  0  0  0
  -26.1369  -26.0560   19.0719 H   0  0  0  0  0  0  0  0  0  0  0  0
  -24.0652  -27.2961   19.0997 H   0  0  0  0  0  0  0  0  0  0  0  0
  -23.6156  -30.5365   19.3930 H   0  0  0  0  0  0  0  0  0  0  0  0
  -22.7355  -29.1425   19.9945 H   0  0  0  0  0  0  0  0  0  0  0  0
  -25.1353  -36.2335   25.0565 H   0  0  0  0  0  0  0  0  0  0  0  0
  -21.0070  -28.3206   24.0793 H   0  0  0  0  0  0  0  0  0  0  0  0
  -20.5555  -26.2518   23.3550 H   0  0  0  0  0  0  0  0  0  0  0  0
  -21.5974  -26.8362   22.0454 H   0  0  0  0  0  0  0  0  0  0  0  0
  -19.6810  -25.6422   21.1488 H   0  0  0  0  0  0  0  0  0  0  0  0
  -19.6406  -27.3343   20.7034 H   0  0  0  0  0  0  0  0  0  0  0  0
  -17.4282  -26.6888   21.4113 H   0  0  0  0  0  0  0  0  0  0  0  0
  -18.0803  -26.0130   22.9049 H   0  0  0  0  0  0  0  0  0  0  0  0
  -19.7265  -30.6774   24.2204 H   0  0  0  0  0  0  0  0  0  0  0  0
  -17.5064  -31.5856   24.4483 H   0  0  0  0  0  0  0  0  0  0  0  0
  -15.5878  -30.2839   23.7407 H   0  0  0  0  0  0  0  0  0  0  0  0
  -15.9120  -28.0941   22.7766 H   0  0  0  0  0  0  0  0  0  0  0  0
  -24.5787  -30.7757   25.6817 H   0  0  0  0  0  0  0  0  0  0  0  0
  -25.0041  -32.2289   26.5536 H   0  0  0  0  0  0  0  0  0  0  0  0
  -25.8166  -30.7245   26.9138 H   0  0  0  0  0  0  0  0  0  0  0  0
  -26.2892  -29.7335   24.0803 H   0  0  0  0  0  0  0  0  0  0  0  0
  -27.4336  -29.7484   25.4006 H   0  0  0  0  0  0  0  0  0  0  0  0
  -27.8466  -30.4994   23.8779 H   0  0  0  0  0  0  0  0  0  0  0  0
  -27.2251  -33.3632   26.1242 H   0  0  0  0  0  0  0  0  0  0  0  0
  -28.3902  -32.6065   25.0645 H   0  0  0  0  0  0  0  0  0  0  0  0
  -27.9772  -31.8555   26.5872 H   0  0  0  0  0  0  0  0  0  0  0  0
  -28.2744  -38.0016   24.6863 H   0  0  0  0  0  0  0  0  0  0  0  0
  -28.0396  -36.2711   24.7461 H   0  0  0  0  0  0  0  0  0  0  0  0
  -27.1773  -37.3087   25.8564 H   0  0  0  0  0  0  0  0  0  0  0  0
  -20.9627  -29.9365   21.7352 H   0  0  0  0  0  0  0  0  0  0  0  0
  -26.0447  -38.2561   24.0273 H   0  0  0  0  0  0  0  0  0  0  0  0
  -26.3847  -19.4794   19.3028 H   0  0  0  0  0  0  0  0  0  0  0  0
  -29.5931  -21.2778   21.3719 H   0  0  0  0  0  0  0  0  0  0  0  0
  -27.5286  -19.2941   16.8795 H   0  0  0  0  0  0  0  0  0  0  0  0
  -29.2496  -19.0484   17.0550 H   0  0  0  0  0  0  0  0  0  0  0  0
  -28.6304  -20.6292   16.6419 H   0  0  0  0  0  0  0  0  0  0  0  0
  -26.1166  -15.7929   22.3891 H   0  0  0  0  0  0  0  0  0  0  0  0
  -24.9079  -16.7360   21.5509 H   0  0  0  0  0  0  0  0  0  0  0  0
  -25.0706  -16.8676   23.2857 H   0  0  0  0  0  0  0  0  0  0  0  0
  -31.5743  -22.2559   17.2607 H   0  0  0  0  0  0  0  0  0  0  0  0
  -30.1282  -22.9412   17.9621 H   0  0  0  0  0  0  0  0  0  0  0  0
  -30.0056  -21.6274   16.8167 H   0  0  0  0  0  0  0  0  0  0  0  0
  -32.4727  -21.9548   19.4912 H   0  0  0  0  0  0  0  0  0  0  0  0
  -31.6475  -20.9944   20.6952 H   0  0  0  0  0  0  0  0  0  0  0  0
  -31.0157  -22.5594   20.2427 H   0  0  0  0  0  0  0  0  0  0  0  0
  -27.1341  -17.7102   21.2682 H   0  0  0  0  0  0  0  0  0  0  0  0
  -27.2787  -17.8455   23.0181 H   0  0  0  0  0  0  0  0  0  0  0  0
  -25.3252  -19.3330   23.0373 H   0  0  0  0  0  0  0  0  0  0  0  0
  -25.3059  -19.2496   21.2657 H   0  0  0  0  0  0  0  0  0  0  0  0
  -32.4755  -19.9693   18.2865 H   0  0  0  0  0  0  0  0  0  0  0  0
  -31.0693  -19.5544   17.2829 H   0  0  0  0  0  0  0  0  0  0  0  0
  -26.0305  -21.8971   23.2726 H   0  0  0  0  0  0  0  0  0  0  0  0
  -25.2731  -21.5892   21.6312 H   0  0  0  0  0  0  0  0  0  0  0  0
  -27.5974  -20.2944   22.8692 H   0  0  0  0  0  0  0  0  0  0  0  0
  -30.8630  -19.0471   19.8764 H   0  0  0  0  0  0  0  0  0  0  0  0
  1 25  1  0
  1 30  2  0
  1 86  1  0
  2  3  1  0
  2 25  1  0
  2 87  1  0
  2 88  1  0
  3  4  1  0
  3 89  1  0
  3 90  1  0
  4  5  1  0
  4 91  1  0
  4 92  1  0
  5  6  1  0
  5 26  1  0
  5 93  1  6
  6 25  1  0
  6 94  1  0
  6 95  1  0
  7  8  2  0
  7 26  1  0
  7 29  1  0
  8  9  1  0
  8 22  1  0
  9 10  1  0
  9 27  2  0
 10 11  2  0
 10 15  1  0
 11 12  1  0
 11 96  1  0
 12 13  2  0
 12 97  1  0
 13 14  1  0
 13 31  1  0
 14 15  2  0
 14 98  1  0
 15 99  1  0
 16 17  2  0
 16 21  1  0
 16 31  1  0
 17 18  1  0
 17100  1  0
 18 19  2  0
 18101  1  0
 19 20  1  0
 19 24  1  0
 20 21  2  0
 20102  1  0
 21 23  1  0
 22 28  1  0
 22 32  2  0
 26 27  1  0
 28103  1  0
 28104  1  0
 29105  1  0
 29106  1  0
 33 34  1  0
 33 66  1  0
 33 70  2  0
 34 36  1  0
 34 59  1  0
 34107  1  6
 35 44  2  0
 35 45  1  0
 35 68  1  0
 36 56  1  0
 36108  1  0
 37 39  1  0
 37 47  1  0
 37 66  1  0
 37109  1  6
 38 43  2  0
 38 46  1  0
 38 47  1  0
 39 64  1  0
 39 67  2  0
 40 52  1  0
 40 53  2  0
 40 58  1  0
 41110  1  0
 41111  1  0
 41112  1  0
 42 43  1  0
 42 66  1  0
 42113  1  0
 42114  1  0
 43 44  1  0
 44115  1  0
 45 46  2  0
 45116  1  0
 46117  1  0
 47118  1  0
 47119  1  0
 48 41  1  0
 48 56  1  0
 48 65  1  0
 48120  1  1
 49 50  1  0
 49 53  1  0
 49 64  1  0
 49121  1  1
 50 51  1  0
 50122  1  0
 50123  1  0
 51 52  1  0
 51124  1  0
 51125  1  0
 52126  1  0
 52127  1  0
 53 54  1  0
 54 55  2  0
 54128  1  0
 55 57  1  0
 55129  1  0
 56 69  2  0
 57 58  2  0
 57130  1  0
 58131  1  0
 59 60  1  0
 59 61  1  0
 59 62  1  0
 60132  1  0
 60133  1  0
 60134  1  0
 61135  1  0
 61136  1  0
 61137  1  0
 62138  1  0
 62139  1  0
 62140  1  0
 63 65  1  0
 63141  1  0
 63142  1  0
 63143  1  0
 64144  1  0
 65145  1  0
 68 82  1  0
 71 73  1  0
 71 74  2  0
 71146  1  0
 72 73  2  0
 72 85  1  0
 72147  1  0
 73 83  1  0
 74 75  1  0
 74 85  1  0
 75148  1  0
 75149  1  0
 75150  1  0
 76 79  1  0
 76151  1  0
 76152  1  0
 76153  1  0
 77154  1  0
 77155  1  0
 77156  1  0
 78 84  1  0
 78157  1  0
 78158  1  0
 78159  1  0
 79 80  1  0
 79160  1  0
 79161  1  0
 80162  1  0
 80163  1  0
 81 84  1  0
 81 86  1  0
 81164  1  0
 81165  1  0
 82 83  1  0
 82166  1  0
 82167  1  0
 83 80  1  0
 83168  1  1
 84 77  1  0
 84 85  1  0
 86169  1  0
M  ISO  4   1 100  68 101  82 101  86 100
M  END
$$$$
76
     RDKit          3D

159167  0  0  0  0  0  0  0  0999 V2000
  -30.7652  -14.3608   20.6636 C   0  0  0  0  0  0  0  0  0100  0  0
  -30.4392  -12.2669   19.3775 C   0  0  0  0  0  0  0  0  0101  0  0
  -29.4791  -12.5281   18.1977 C   0  0  0  0  0  0  0  0  0102  0  0
  -27.9985  -12.3963   18.6038 C   0  0  0  0  0  0  0  0  0103  0  0
  -27.6639  -13.2170   19.8820 C   0  0  2  0  0  0  0  0  0104  0  0
  -28.6795  -12.9602   21.0279 C   0  0  0  0  0  0  0  0  0105  0  0
  -25.2633  -13.8245   20.5754 C   0  0  0  0  0  0  0  0  0106  0  0
  -24.1645  -13.0409   20.9408 C   0  0  0  0  0  0  0  0  0107  0  0
  -24.6400  -11.7009   20.8697 C   0  0  0  0  0  0  0  0  0108  0  0
  -23.9005  -10.4085   21.0420 C   0  0  0  0  0  0  0  0  0109  0  0
  -24.3588   -9.4123   21.9123 C   0  0  0  0  0  0  0  0  0110  0  0
  -23.6296   -8.2350   22.0803 C   0  0  0  0  0  0  0  0  0111  0  0
  -22.4385   -8.0419   21.3657 C   0  0  0  0  0  0  0  0  0112  0  0
  -22.0103   -9.0167   20.4678 C   0  0  0  0  0  0  0  0  0113  0  0
  -22.7317  -10.1925   20.3102 C   0  0  0  0  0  0  0  0  0114  0  0
  -21.6857   -6.0709   22.5391 C   0  0  0  0  0  0  0  0  0115  0  0
  -21.4064   -6.5490   23.8264 C   0  0  0  0  0  0  0  0  0116  0  0
  -21.3635   -5.6677   24.9085 C   0  0  0  0  0  0  0  0  0117  0  0
  -21.5973   -4.3067   24.7088 C   0  0  0  0  0  0  0  0  0118  0  0
  -21.8700   -3.8284   23.4282 C   0  0  0  0  0  0  0  0  0119  0  0
  -21.9144   -4.7056   22.3460 C   0  0  0  0  0  0  0  0  0120  0  0
  -22.8194  -13.5263   21.1763 C   0  0  0  0  0  0  0  0  0121  0  0
  -22.1559   -4.2206   21.1063 F   0  0  0  0  0  0  0  0  0122  0  0
  -21.5628   -3.4510   25.7555 F   0  0  0  0  0  0  0  0  0123  0  0
  -30.0261  -13.1803   20.4553 N   0  0  0  0  0  0  0  0  0124  0  0
  -26.2911  -12.9356   20.3443 N   0  0  0  0  0  0  0  0  0125  0  0
  -25.9236  -11.6675   20.5847 N   0  0  0  0  0  0  0  0  0126  0  0
  -22.0708  -12.7905   22.0005 N   0  0  0  0  0  0  0  0  0127  0  0
  -25.4117  -15.1773   20.4097 N   0  0  0  0  0  0  0  0  0128  0  0
  -31.7916  -14.6724   20.0536 O   0  0  0  0  0  0  0  0  0129  0  0
  -21.6670   -6.9022   21.4423 O   0  0  0  0  0  0  0  0  0130  0  0
  -22.3946  -14.5564   20.6568 O   0  0  0  0  0  0  0  0  0131  0  0
  -24.6048  -31.8614   23.2223 C   0  0  0  0  0  0  0  0  0100  0  0
  -25.8822  -32.4841   23.8616 C   0  0  1  0  0  0  0  0  0101  0  0
  -27.2536  -27.5042   20.1156 C   0  0  0  0  0  0  0  0  0102  0  0
  -25.5726  -33.8762   24.2210 N   0  0  0  0  0  0  0  0  0103  0  0
  -23.4066  -30.4859   21.5461 C   0  0  2  0  0  0  0  0  0104  0  0
  -24.8467  -28.9636   20.1247 C   0  0  0  0  0  0  0  0  0105  0  0
  -22.7412  -29.4652   22.5052 C   0  0  0  0  0  0  0  0  0106  0  0
  -18.0167  -28.1302   22.8626 C   0  0  0  0  0  0  0  0  0107  0  0
  -24.1342  -36.7390   23.2568 C   0  0  0  0  0  0  0  0  0108  0  0
  -25.9141  -30.8882   21.3456 C   0  0  0  0  0  0  0  0  0109  0  0
  -25.9930  -29.5029   20.7208 C   0  0  0  0  0  0  0  0  0110  0  0
  -27.1758  -28.7612   20.7331 C   0  0  0  0  0  0  0  0  0111  0  0
  -26.1032  -26.9836   19.5230 C   0  0  0  0  0  0  0  0  0112  0  0
  -24.9097  -27.7011   19.5331 C   0  0  0  0  0  0  0  0  0113  0  0
  -23.5715  -29.7899   20.1582 C   0  0  0  0  0  0  0  0  0114  0  0
  -25.3990  -36.3212   24.0232 C   0  0  1  0  0  0  0  0  0115  0  0
  -20.5793  -28.3813   23.1004 C   0  0  2  0  0  0  0  0  0116  0  0
  -20.6548  -26.9392   22.5411 C   0  0  0  0  0  0  0  0  0117  0  0
  -19.5615  -26.6407   21.5143 C   0  0  0  0  0  0  0  0  0118  0  0
  -18.1797  -26.7818   22.1673 C   0  0  0  0  0  0  0  0  0119  0  0
  -19.1385  -28.8769   23.2988 C   0  0  0  0  0  0  0  0  0120  0  0
  -18.9183  -30.1286   23.8878 C   0  0  0  0  0  0  0  0  0121  0  0
  -17.6396  -30.6493   24.0352 C   0  0  0  0  0  0  0  0  0122  0  0
  -25.9153  -34.9582   23.4993 C   0  0  0  0  0  0  0  0  0123  0  0
  -16.5415  -29.9068   23.6254 C   0  0  0  0  0  0  0  0  0124  0  0
  -16.7331  -28.6521   23.0586 C   0  0  0  0  0  0  0  0  0125  0  0
  -26.4583  -31.6439   25.0683 C   0  0  0  0  0  0  0  0  0126  0  0
  -25.3807  -31.3179   26.1374 C   0  0  0  0  0  0  0  0  0127  0  0
  -27.0530  -30.3024   24.5680 C   0  0  0  0  0  0  0  0  0128  0  0
  -27.6014  -32.4281   25.7651 C   0  0  0  0  0  0  0  0  0129  0  0
  -27.5629  -37.2220   24.8621 C   0  0  0  0  0  0  0  0  0130  0  0
  -21.4133  -29.3375   22.3735 N   0  0  0  0  0  0  0  0  0131  0  0
  -26.4706  -37.3372   23.9061 N   0  0  0  0  0  0  0  0  0132  0  0
  -24.6674  -31.0544   22.1178 N   0  0  0  0  0  0  0  0  0133  0  0
  -23.4259  -28.8150   23.2971 O   0  0  0  0  0  0  0  0  0134  0  0
  -28.3948  -26.7345   20.0089 O   0  0  0  0  0  0  0  0  0135  0  0
  -26.5870  -34.9065   22.4671 O   0  0  0  0  0  0  0  0  0136  0  0
  -23.5365  -32.1254   23.7833 O   0  0  0  0  0  0  0  0  0137  0  0
  -28.8313  -18.6553   23.4787 C   0  0  0  0  0  0  0  0  0  0  0  0
  -28.6005  -18.1550   22.0642 C   0  0  0  0  0  0  0  0  0  0  0  0
  -29.9614  -19.6660   23.3674 C   0  0  0  0  0  0  0  0  0  0  0  0
  -30.0010  -18.1300   21.4442 C   0  0  2  0  0  0  0  0  0  0  0  0
  -29.9428  -18.2202   19.9193 C   0  0  0  0  0  0  0  0  0  0  0  0
  -33.9337  -21.2782   22.4485 C   0  0  0  0  0  0  0  0  0  0  0  0
  -30.8037  -16.9013   21.8900 C   0  0  0  0  0  0  0  0  0  0  0  0
  -32.0900  -19.5607   22.0070 C   0  0  0  0  0  0  0  0  0  0  0  0
  -32.5012  -21.0294   21.9949 C   0  0  0  0  0  0  0  0  0  1  0  0
  -30.1398  -15.6781   21.4979 N   0  0  0  0  0  0  0  0  0  0  0  0
  -30.5989  -19.4192   22.0100 N   0  0  2  0  0  0  0  0  0  0  0  0
  -31.4485  -12.4701   19.0860 H   0  0  0  0  0  0  0  0  0  0  0  0
  -30.3970  -11.2460   19.6950 H   0  0  0  0  0  0  0  0  0  0  0  0
  -29.6870  -11.8204   17.4226 H   0  0  0  0  0  0  0  0  0  0  0  0
  -29.6375  -13.5326   17.8649 H   0  0  0  0  0  0  0  0  0  0  0  0
  -27.7830  -11.3650   18.7904 H   0  0  0  0  0  0  0  0  0  0  0  0
  -27.4028  -12.7801   17.8021 H   0  0  0  0  0  0  0  0  0  0  0  0
  -27.7353  -14.2503   19.6136 H   0  0  0  0  0  0  0  0  0  0  0  0
  -28.5890  -11.9550   21.3832 H   0  0  0  0  0  0  0  0  0  0  0  0
  -28.5005  -13.6134   21.8562 H   0  0  0  0  0  0  0  0  0  0  0  0
  -25.2399   -9.5495   22.4318 H   0  0  0  0  0  0  0  0  0  0  0  0
  -23.9663   -7.5070   22.7297 H   0  0  0  0  0  0  0  0  0  0  0  0
  -21.1515   -8.8641   19.9162 H   0  0  0  0  0  0  0  0  0  0  0  0
  -22.4016  -10.9115   19.6476 H   0  0  0  0  0  0  0  0  0  0  0  0
  -21.2319   -7.5552   23.9750 H   0  0  0  0  0  0  0  0  0  0  0  0
  -21.1589   -6.0228   25.8556 H   0  0  0  0  0  0  0  0  0  0  0  0
  -22.0396   -2.8212   23.2809 H   0  0  0  0  0  0  0  0  0  0  0  0
  -22.4401  -11.9703   22.4008 H   0  0  0  0  0  0  0  0  0  0  0  0
  -21.1493  -13.0679   22.2082 H   0  0  0  0  0  0  0  0  0  0  0  0
  -24.6538  -15.7807   20.5848 H   0  0  0  0  0  0  0  0  0  0  0  0
  -26.2762  -15.5453   20.1156 H   0  0  0  0  0  0  0  0  0  0  0  0
  -26.6778  -32.4663   23.1464 H   0  0  0  0  0  0  0  0  0  0  0  0
  -25.0747  -34.0282   25.0566 H   0  0  0  0  0  0  0  0  0  0  0  0
  -22.7881  -31.3489   21.4131 H   0  0  0  0  0  0  0  0  0  0  0  0
  -23.3854  -35.9823   23.3648 H   0  0  0  0  0  0  0  0  0  0  0  0
  -24.3696  -36.8624   22.2204 H   0  0  0  0  0  0  0  0  0  0  0  0
  -23.7669  -37.6632   23.6516 H   0  0  0  0  0  0  0  0  0  0  0  0
  -25.9445  -31.6237   20.5691 H   0  0  0  0  0  0  0  0  0  0  0  0
  -26.7436  -31.0079   22.0108 H   0  0  0  0  0  0  0  0  0  0  0  0
  -28.0090  -29.1452   21.2057 H   0  0  0  0  0  0  0  0  0  0  0  0
  -26.1369  -26.0560   19.0719 H   0  0  0  0  0  0  0  0  0  0  0  0
  -24.0652  -27.2961   19.0997 H   0  0  0  0  0  0  0  0  0  0  0  0
  -23.6156  -30.5365   19.3930 H   0  0  0  0  0  0  0  0  0  0  0  0
  -22.7355  -29.1425   19.9945 H   0  0  0  0  0  0  0  0  0  0  0  0
  -25.1353  -36.2335   25.0565 H   0  0  0  0  0  0  0  0  0  0  0  0
  -21.0070  -28.3206   24.0793 H   0  0  0  0  0  0  0  0  0  0  0  0
  -20.5555  -26.2518   23.3550 H   0  0  0  0  0  0  0  0  0  0  0  0
  -21.5974  -26.8362   22.0454 H   0  0  0  0  0  0  0  0  0  0  0  0
  -19.6810  -25.6422   21.1488 H   0  0  0  0  0  0  0  0  0  0  0  0
  -19.6406  -27.3343   20.7034 H   0  0  0  0  0  0  0  0  0  0  0  0
  -17.4282  -26.6888   21.4113 H   0  0  0  0  0  0  0  0  0  0  0  0
  -18.0803  -26.0130   22.9049 H   0  0  0  0  0  0  0  0  0  0  0  0
  -19.7265  -30.6774   24.2204 H   0  0  0  0  0  0  0  0  0  0  0  0
  -17.5064  -31.5856   24.4483 H   0  0  0  0  0  0  0  0  0  0  0  0
  -15.5878  -30.2839   23.7407 H   0  0  0  0  0  0  0  0  0  0  0  0
  -15.9120  -28.0941   22.7766 H   0  0  0  0  0  0  0  0  0  0  0  0
  -24.5787  -30.7757   25.6817 H   0  0  0  0  0  0  0  0  0  0  0  0
  -25.0041  -32.2289   26.5536 H   0  0  0  0  0  0  0  0  0  0  0  0
  -25.8166  -30.7245   26.9138 H   0  0  0  0  0  0  0  0  0  0  0  0
  -26.2892  -29.7335   24.0803 H   0  0  0  0  0  0  0  0  0  0  0  0
  -27.4336  -29.7484   25.4006 H   0  0  0  0  0  0  0  0  0  0  0  0
  -27.8466  -30.4994   23.8779 H   0  0  0  0  0  0  0  0  0  0  0  0
  -27.2251  -33.3632   26.1242 H   0  0  0  0  0  0  0  0  0  0  0  0
  -28.3902  -32.6065   25.0645 H   0  0  0  0  0  0  0  0  0  0  0  0
  -27.9772  -31.8555   26.5872 H   0  0  0  0  0  0  0  0  0  0  0  0
  -28.2744  -38.0016   24.6863 H   0  0  0  0  0  0  0  0  0  0  0  0
  -28.0396  -36.2711   24.7461 H   0  0  0  0  0  0  0  0  0  0  0  0
  -27.1773  -37.3087   25.8564 H   0  0  0  0  0  0  0  0  0  0  0  0
  -20.9627  -29.9365   21.7352 H   0  0  0  0  0  0  0  0  0  0  0  0
  -26.0447  -38.2561   24.0273 H   0  0  0  0  0  0  0  0  0  0  0  0
  -29.1132  -17.8471   24.1208 H   0  0  0  0  0  0  0  0  0  0  0  0
  -27.9476  -19.0896   23.8974 H   0  0  0  0  0  0  0  0  0  0  0  0
  -27.9585  -18.8205   21.5258 H   0  0  0  0  0  0  0  0  0  0  0  0
  -28.1232  -17.1977   22.0397 H   0  0  0  0  0  0  0  0  0  0  0  0
  -30.6764  -19.5143   24.1489 H   0  0  0  0  0  0  0  0  0  0  0  0
  -29.6045  -20.6705   23.4602 H   0  0  0  0  0  0  0  0  0  0  0  0
  -29.5245  -17.3180   19.5244 H   0  0  0  0  0  0  0  0  0  0  0  0
  -30.9312  -18.3545   19.5320 H   0  0  0  0  0  0  0  0  0  0  0  0
  -29.3320  -19.0512   19.6342 H   0  0  0  0  0  0  0  0  0  0  0  0
  -34.3943  -20.3464   22.7025 H   0  0  0  0  0  0  0  0  0  0  0  0
  -33.9303  -21.9195   23.3050 H   0  0  0  0  0  0  0  0  0  0  0  0
  -34.4828  -21.7434   21.6567 H   0  0  0  0  0  0  0  0  0  0  0  0
  -30.9062  -16.9179   22.9550 H   0  0  0  0  0  0  0  0  0  0  0  0
  -31.7646  -16.9332   21.4203 H   0  0  0  0  0  0  0  0  0  0  0  0
  -32.4873  -19.0936   22.8839 H   0  0  0  0  0  0  0  0  0  0  0  0
  -32.4744  -19.0925   21.1250 H   0  0  0  0  0  0  0  0  0  0  0  0
  -31.4928  -21.2013   21.6809 H   0  0  0  0  0  0  0  0  0  0  0  0
  -29.1920  -15.6076   21.7549 H   0  0  0  0  0  0  0  0  0  0  0  0
  -30.3645  -20.1609   21.3502 H   0  0  0  0  0  0  0  0  0  0  0  0
  1 25  1  0
  1 30  2  0
  1 80  1  0
  2  3  1  0
  2 25  1  0
  2 82  1  0
  2 83  1  0
  3  4  1  0
  3 84  1  0
  3 85  1  0
  4  5  1  0
  4 86  1  0
  4 87  1  0
  5  6  1  0
  5 26  1  0
  5 88  1  6
  6 25  1  0
  6 89  1  0
  6 90  1  0
  7  8  2  0
  7 26  1  0
  7 29  1  0
  8  9  1  0
  8 22  1  0
  9 10  1  0
  9 27  2  0
 10 11  2  0
 10 15  1  0
 11 12  1  0
 11 91  1  0
 12 13  2  0
 12 92  1  0
 13 14  1  0
 13 31  1  0
 14 15  2  0
 14 93  1  0
 15 94  1  0
 16 17  2  0
 16 21  1  0
 16 31  1  0
 17 18  1  0
 17 95  1  0
 18 19  2  0
 18 96  1  0
 19 20  1  0
 19 24  1  0
 20 21  2  0
 20 97  1  0
 21 23  1  0
 22 28  1  0
 22 32  2  0
 26 27  1  0
 28 98  1  0
 28 99  1  0
 29100  1  0
 29101  1  0
 33 34  1  0
 33 66  1  0
 33 70  2  0
 34 36  1  0
 34 59  1  0
 34102  1  6
 35 44  2  0
 35 45  1  0
 35 68  1  0
 36 56  1  0
 36103  1  0
 37 39  1  0
 37 47  1  0
 37 66  1  0
 37104  1  6
 38 43  2  0
 38 46  1  0
 38 47  1  0
 39 64  1  0
 39 67  2  0
 40 52  1  0
 40 53  2  0
 40 58  1  0
 41105  1  0
 41106  1  0
 41107  1  0
 42 43  1  0
 42 66  1  0
 42108  1  0
 42109  1  0
 43 44  1  0
 44110  1  0
 45 46  2  0
 45111  1  0
 46112  1  0
 47113  1  0
 47114  1  0
 48 41  1  0
 48 56  1  0
 48 65  1  0
 48115  1  1
 49 50  1  0
 49 53  1  0
 49 64  1  0
 49116  1  1
 50 51  1  0
 50117  1  0
 50118  1  0
 51 52  1  0
 51119  1  0
 51120  1  0
 52121  1  0
 52122  1  0
 53 54  1  0
 54 55  2  0
 54123  1  0
 55 57  1  0
 55124  1  0
 56 69  2  0
 57 58  2  0
 57125  1  0
 58126  1  0
 59 60  1  0
 59 61  1  0
 59 62  1  0
 60127  1  0
 60128  1  0
 60129  1  0
 61130  1  0
 61131  1  0
 61132  1  0
 62133  1  0
 62134  1  0
 62135  1  0
 63 65  1  0
 63136  1  0
 63137  1  0
 63138  1  0
 64139  1  0
 65140  1  0
 68 79  1  0
 71 72  1  0
 71 73  1  0
 71141  1  0
 71142  1  0
 72 74  1  0
 72143  1  0
 72144  1  0
 73 81  1  0
 73145  1  0
 73146  1  0
 74 75  1  6
 74 77  1  0
 74 81  1  0
 75147  1  0
 75148  1  0
 75149  1  0
 76150  1  0
 76151  1  0
 76152  1  0
 77 80  1  0
 77153  1  0
 77154  1  0
 78 79  1  0
 78155  1  0
 78156  1  0
 79 76  1  0
 79157  1  0
 80158  1  0
 81 78  1  0
 81159  1  6
M  CHG  1  81   1
M  ISO  4   1 100  68 101  79 101  80 100
M  END
$$$$
77
     RDKit          3D

169177  0  0  0  0  0  0  0  0999 V2000
  -30.7652  -14.3608   20.6636 C   0  0  0  0  0  0  0  0  0100  0  0
  -30.4392  -12.2669   19.3775 C   0  0  0  0  0  0  0  0  0101  0  0
  -29.4791  -12.5281   18.1977 C   0  0  0  0  0  0  0  0  0102  0  0
  -27.9985  -12.3963   18.6038 C   0  0  0  0  0  0  0  0  0103  0  0
  -27.6639  -13.2170   19.8820 C   0  0  2  0  0  0  0  0  0104  0  0
  -28.6795  -12.9602   21.0279 C   0  0  0  0  0  0  0  0  0105  0  0
  -25.2633  -13.8245   20.5754 C   0  0  0  0  0  0  0  0  0106  0  0
  -24.1645  -13.0409   20.9408 C   0  0  0  0  0  0  0  0  0107  0  0
  -24.6400  -11.7009   20.8697 C   0  0  0  0  0  0  0  0  0108  0  0
  -23.9005  -10.4085   21.0420 C   0  0  0  0  0  0  0  0  0109  0  0
  -24.3588   -9.4123   21.9123 C   0  0  0  0  0  0  0  0  0110  0  0
  -23.6296   -8.2350   22.0803 C   0  0  0  0  0  0  0  0  0111  0  0
  -22.4385   -8.0419   21.3657 C   0  0  0  0  0  0  0  0  0112  0  0
  -22.0103   -9.0167   20.4678 C   0  0  0  0  0  0  0  0  0113  0  0
  -22.7317  -10.1925   20.3102 C   0  0  0  0  0  0  0  0  0114  0  0
  -21.6857   -6.0709   22.5391 C   0  0  0  0  0  0  0  0  0115  0  0
  -21.4064   -6.5490   23.8264 C   0  0  0  0  0  0  0  0  0116  0  0
  -21.3635   -5.6677   24.9085 C   0  0  0  0  0  0  0  0  0117  0  0
  -21.5973   -4.3067   24.7088 C   0  0  0  0  0  0  0  0  0118  0  0
  -21.8700   -3.8284   23.4282 C   0  0  0  0  0  0  0  0  0119  0  0
  -21.9144   -4.7056   22.3460 C   0  0  0  0  0  0  0  0  0120  0  0
  -22.8194  -13.5263   21.1763 C   0  0  0  0  0  0  0  0  0121  0  0
  -22.1559   -4.2206   21.1063 F   0  0  0  0  0  0  0  0  0122  0  0
  -21.5628   -3.4510   25.7555 F   0  0  0  0  0  0  0  0  0123  0  0
  -30.0261  -13.1803   20.4553 N   0  0  0  0  0  0  0  0  0124  0  0
  -26.2911  -12.9356   20.3443 N   0  0  0  0  0  0  0  0  0125  0  0
  -25.9236  -11.6675   20.5847 N   0  0  0  0  0  0  0  0  0126  0  0
  -22.0708  -12.7905   22.0005 N   0  0  0  0  0  0  0  0  0127  0  0
  -25.4117  -15.1773   20.4097 N   0  0  0  0  0  0  0  0  0128  0  0
  -31.7916  -14.6724   20.0536 O   0  0  0  0  0  0  0  0  0129  0  0
  -21.6670   -6.9022   21.4423 O   0  0  0  0  0  0  0  0  0130  0  0
  -22.3946  -14.5564   20.6568 O   0  0  0  0  0  0  0  0  0131  0  0
  -24.6048  -31.8614   23.2223 C   0  0  0  0  0  0  0  0  0100  0  0
  -25.8822  -32.4841   23.8616 C   0  0  1  0  0  0  0  0  0101  0  0
  -27.2536  -27.5042   20.1156 C   0  0  0  0  0  0  0  0  0102  0  0
  -25.5726  -33.8762   24.2210 N   0  0  0  0  0  0  0  0  0103  0  0
  -23.4066  -30.4859   21.5461 C   0  0  2  0  0  0  0  0  0104  0  0
  -24.8467  -28.9636   20.1247 C   0  0  0  0  0  0  0  0  0105  0  0
  -22.7412  -29.4652   22.5052 C   0  0  0  0  0  0  0  0  0106  0  0
  -18.0167  -28.1302   22.8626 C   0  0  0  0  0  0  0  0  0107  0  0
  -24.1342  -36.7390   23.2568 C   0  0  0  0  0  0  0  0  0108  0  0
  -25.9141  -30.8882   21.3456 C   0  0  0  0  0  0  0  0  0109  0  0
  -25.9930  -29.5029   20.7208 C   0  0  0  0  0  0  0  0  0110  0  0
  -27.1758  -28.7612   20.7331 C   0  0  0  0  0  0  0  0  0111  0  0
  -26.1032  -26.9836   19.5230 C   0  0  0  0  0  0  0  0  0112  0  0
  -24.9097  -27.7011   19.5331 C   0  0  0  0  0  0  0  0  0113  0  0
  -23.5715  -29.7899   20.1582 C   0  0  0  0  0  0  0  0  0114  0  0
  -25.3990  -36.3212   24.0232 C   0  0  1  0  0  0  0  0  0115  0  0
  -20.5793  -28.3813   23.1004 C   0  0  2  0  0  0  0  0  0116  0  0
  -20.6548  -26.9392   22.5411 C   0  0  0  0  0  0  0  0  0117  0  0
  -19.5615  -26.6407   21.5143 C   0  0  0  0  0  0  0  0  0118  0  0
  -18.1797  -26.7818   22.1673 C   0  0  0  0  0  0  0  0  0119  0  0
  -19.1385  -28.8769   23.2988 C   0  0  0  0  0  0  0  0  0120  0  0
  -18.9183  -30.1286   23.8878 C   0  0  0  0  0  0  0  0  0121  0  0
  -17.6396  -30.6493   24.0352 C   0  0  0  0  0  0  0  0  0122  0  0
  -25.9153  -34.9582   23.4993 C   0  0  0  0  0  0  0  0  0123  0  0
  -16.5415  -29.9068   23.6254 C   0  0  0  0  0  0  0  0  0124  0  0
  -16.7331  -28.6521   23.0586 C   0  0  0  0  0  0  0  0  0125  0  0
  -26.4583  -31.6439   25.0683 C   0  0  0  0  0  0  0  0  0126  0  0
  -25.3807  -31.3179   26.1374 C   0  0  0  0  0  0  0  0  0127  0  0
  -27.0530  -30.3024   24.5680 C   0  0  0  0  0  0  0  0  0128  0  0
  -27.6014  -32.4281   25.7651 C   0  0  0  0  0  0  0  0  0129  0  0
  -27.5629  -37.2220   24.8621 C   0  0  0  0  0  0  0  0  0130  0  0
  -21.4133  -29.3375   22.3735 N   0  0  0  0  0  0  0  0  0131  0  0
  -26.4706  -37.3372   23.9061 N   0  0  0  0  0  0  0  0  0132  0  0
  -24.6674  -31.0544   22.1178 N   0  0  0  0  0  0  0  0  0133  0  0
  -23.4259  -28.8150   23.2971 O   0  0  0  0  0  0  0  0  0134  0  0
  -28.3948  -26.7345   20.0089 O   0  0  0  0  0  0  0  0  0135  0  0
  -26.5870  -34.9065   22.4671 O   0  0  0  0  0  0  0  0  0136  0  0
  -23.5365  -32.1254   23.7833 O   0  0  0  0  0  0  0  0  0137  0  0
  -27.7947  -18.9607   22.2264 C   0  0  0  0  0  0  0  0  0  0  0  0
  -28.7642  -17.9072   20.4886 C   0  0  0  0  0  0  0  0  0  0  0  0
  -27.5750  -18.4492   20.9236 C   0  0  0  0  0  0  0  0  0  0  0  0
  -29.1116  -18.7158   22.5478 C   0  0  0  0  0  0  0  0  0  0  0  0
  -30.6432  -22.8499   23.3036 C   0  0  0  0  0  0  0  0  0  0  0  0
  -29.2947  -18.2977   25.0136 C   0  0  0  0  0  0  0  0  0  0  0  0
  -30.6141  -21.3633   22.9824 C   0  0  0  0  0  0  0  0  0  0  0  0
  -29.9478  -20.5622   24.1060 C   0  0  0  0  0  0  0  0  0  0  0  0
  -31.0673  -17.6363   21.4062 C   0  0  0  0  0  0  0  0  0  0  0  0
  -31.3249  -16.3422   22.1736 C   0  0  0  0  0  0  0  0  0  0  0  0
  -26.1112  -19.7764   19.3406 C   0  0  0  0  0  0  0  0  0  1  0  0
  -26.2761  -18.4897   20.1525 C   0  0  2  0  0  0  0  0  0  0  0  0
  -29.8629  -19.0389   23.7783 C   0  0  2  0  0  0  0  0  0  0  0  0
  -29.6912  -18.0752   21.4839 N   0  0  0  0  0  0  0  0  0  0  0  0
  -30.5048  -15.2494   21.7003 N   0  0  0  0  0  0  0  0  0  0  0  0
  -25.0816  -18.3444   21.0452 N   0  0  0  0  0  0  0  0  0  0  0  0
  -31.4485  -12.4701   19.0860 H   0  0  0  0  0  0  0  0  0  0  0  0
  -30.3970  -11.2460   19.6950 H   0  0  0  0  0  0  0  0  0  0  0  0
  -29.6870  -11.8204   17.4226 H   0  0  0  0  0  0  0  0  0  0  0  0
  -29.6375  -13.5326   17.8649 H   0  0  0  0  0  0  0  0  0  0  0  0
  -27.7830  -11.3650   18.7904 H   0  0  0  0  0  0  0  0  0  0  0  0
  -27.4028  -12.7801   17.8021 H   0  0  0  0  0  0  0  0  0  0  0  0
  -27.7353  -14.2503   19.6136 H   0  0  0  0  0  0  0  0  0  0  0  0
  -28.5890  -11.9550   21.3832 H   0  0  0  0  0  0  0  0  0  0  0  0
  -28.5005  -13.6134   21.8562 H   0  0  0  0  0  0  0  0  0  0  0  0
  -25.2399   -9.5495   22.4318 H   0  0  0  0  0  0  0  0  0  0  0  0
  -23.9663   -7.5070   22.7297 H   0  0  0  0  0  0  0  0  0  0  0  0
  -21.1515   -8.8641   19.9162 H   0  0  0  0  0  0  0  0  0  0  0  0
  -22.4016  -10.9115   19.6476 H   0  0  0  0  0  0  0  0  0  0  0  0
  -21.2319   -7.5552   23.9750 H   0  0  0  0  0  0  0  0  0  0  0  0
  -21.1589   -6.0228   25.8556 H   0  0  0  0  0  0  0  0  0  0  0  0
  -22.0396   -2.8212   23.2809 H   0  0  0  0  0  0  0  0  0  0  0  0
  -22.4401  -11.9703   22.4008 H   0  0  0  0  0  0  0  0  0  0  0  0
  -21.1493  -13.0679   22.2082 H   0  0  0  0  0  0  0  0  0  0  0  0
  -24.6538  -15.7807   20.5848 H   0  0  0  0  0  0  0  0  0  0  0  0
  -26.2762  -15.5453   20.1156 H   0  0  0  0  0  0  0  0  0  0  0  0
  -26.6778  -32.4663   23.1464 H   0  0  0  0  0  0  0  0  0  0  0  0
  -25.0747  -34.0282   25.0566 H   0  0  0  0  0  0  0  0  0  0  0  0
  -22.7881  -31.3489   21.4131 H   0  0  0  0  0  0  0  0  0  0  0  0
  -23.3854  -35.9823   23.3648 H   0  0  0  0  0  0  0  0  0  0  0  0
  -24.3696  -36.8624   22.2204 H   0  0  0  0  0  0  0  0  0  0  0  0
  -23.7669  -37.6632   23.6516 H   0  0  0  0  0  0  0  0  0  0  0  0
  -25.9445  -31.6237   20.5691 H   0  0  0  0  0  0  0  0  0  0  0  0
  -26.7436  -31.0079   22.0108 H   0  0  0  0  0  0  0  0  0  0  0  0
  -28.0090  -29.1452   21.2057 H   0  0  0  0  0  0  0  0  0  0  0  0
  -26.1369  -26.0560   19.0719 H   0  0  0  0  0  0  0  0  0  0  0  0
  -24.0652  -27.2961   19.0997 H   0  0  0  0  0  0  0  0  0  0  0  0
  -23.6156  -30.5365   19.3930 H   0  0  0  0  0  0  0  0  0  0  0  0
  -22.7355  -29.1425   19.9945 H   0  0  0  0  0  0  0  0  0  0  0  0
  -25.1353  -36.2335   25.0565 H   0  0  0  0  0  0  0  0  0  0  0  0
  -21.0070  -28.3206   24.0793 H   0  0  0  0  0  0  0  0  0  0  0  0
  -20.5555  -26.2518   23.3550 H   0  0  0  0  0  0  0  0  0  0  0  0
  -21.5974  -26.8362   22.0454 H   0  0  0  0  0  0  0  0  0  0  0  0
  -19.6810  -25.6422   21.1488 H   0  0  0  0  0  0  0  0  0  0  0  0
  -19.6406  -27.3343   20.7034 H   0  0  0  0  0  0  0  0  0  0  0  0
  -17.4282  -26.6888   21.4113 H   0  0  0  0  0  0  0  0  0  0  0  0
  -18.0803  -26.0130   22.9049 H   0  0  0  0  0  0  0  0  0  0  0  0
  -19.7265  -30.6774   24.2204 H   0  0  0  0  0  0  0  0  0  0  0  0
  -17.5064  -31.5856   24.4483 H   0  0  0  0  0  0  0  0  0  0  0  0
  -15.5878  -30.2839   23.7407 H   0  0  0  0  0  0  0  0  0  0  0  0
  -15.9120  -28.0941   22.7766 H   0  0  0  0  0  0  0  0  0  0  0  0
  -24.5787  -30.7757   25.6817 H   0  0  0  0  0  0  0  0  0  0  0  0
  -25.0041  -32.2289   26.5536 H   0  0  0  0  0  0  0  0  0  0  0  0
  -25.8166  -30.7245   26.9138 H   0  0  0  0  0  0  0  0  0  0  0  0
  -26.2892  -29.7335   24.0803 H   0  0  0  0  0  0  0  0  0  0  0  0
  -27.4336  -29.7484   25.4006 H   0  0  0  0  0  0  0  0  0  0  0  0
  -27.8466  -30.4994   23.8779 H   0  0  0  0  0  0  0  0  0  0  0  0
  -27.2251  -33.3632   26.1242 H   0  0  0  0  0  0  0  0  0  0  0  0
  -28.3902  -32.6065   25.0645 H   0  0  0  0  0  0  0  0  0  0  0  0
  -27.9772  -31.8555   26.5872 H   0  0  0  0  0  0  0  0  0  0  0  0
  -28.2744  -38.0016   24.6863 H   0  0  0  0  0  0  0  0  0  0  0  0
  -28.0396  -36.2711   24.7461 H   0  0  0  0  0  0  0  0  0  0  0  0
  -27.1773  -37.3087   25.8564 H   0  0  0  0  0  0  0  0  0  0  0  0
  -20.9627  -29.9365   21.7352 H   0  0  0  0  0  0  0  0  0  0  0  0
  -26.0447  -38.2561   24.0273 H   0  0  0  0  0  0  0  0  0  0  0  0
  -27.0968  -19.4302   22.8244 H   0  0  0  0  0  0  0  0  0  0  0  0
  -28.9280  -17.4550   19.5755 H   0  0  0  0  0  0  0  0  0  0  0  0
  -31.1135  -23.3790   22.5013 H   0  0  0  0  0  0  0  0  0  0  0  0
  -31.1941  -23.0089   24.2070 H   0  0  0  0  0  0  0  0  0  0  0  0
  -29.6425  -23.2075   23.4285 H   0  0  0  0  0  0  0  0  0  0  0  0
  -29.2308  -17.2506   24.8030 H   0  0  0  0  0  0  0  0  0  0  0  0
  -28.3197  -18.6763   25.2394 H   0  0  0  0  0  0  0  0  0  0  0  0
  -29.9410  -18.4541   25.8519 H   0  0  0  0  0  0  0  0  0  0  0  0
  -31.6177  -21.0150   22.8542 H   0  0  0  0  0  0  0  0  0  0  0  0
  -30.0465  -21.2231   22.0862 H   0  0  0  0  0  0  0  0  0  0  0  0
  -28.9570  -20.9377   24.2552 H   0  0  0  0  0  0  0  0  0  0  0  0
  -30.5454  -20.6745   24.9864 H   0  0  0  0  0  0  0  0  0  0  0  0
  -31.3173  -17.4784   20.3779 H   0  0  0  0  0  0  0  0  0  0  0  0
  -31.6719  -18.3984   21.8518 H   0  0  0  0  0  0  0  0  0  0  0  0
  -31.1122  -16.5083   23.2090 H   0  0  0  0  0  0  0  0  0  0  0  0
  -32.3490  -16.0713   22.0228 H   0  0  0  0  0  0  0  0  0  0  0  0
  -25.0480  -19.8836   19.2861 H   0  0  0  0  0  0  0  0  0  0  0  0
  -26.8477  -19.5132   18.6104 H   0  0  0  0  0  0  0  0  0  0  0  0
  -26.3289  -17.6563   19.4835 H   0  0  0  0  0  0  0  0  0  0  0  0
  -30.8561  -18.7015   23.5668 H   0  0  0  0  0  0  0  0  0  0  0  0
  -29.6516  -15.1177   22.1735 H   0  0  0  0  0  0  0  0  0  0  0  0
  -25.0340  -19.1401   21.6816 H   0  0  0  0  0  0  0  0  0  0  0  0
  -25.1628  -17.4823   21.5842 H   0  0  0  0  0  0  0  0  0  0  0  0
  -24.2348  -18.3119   20.4775 H   0  0  0  0  0  0  0  0  0  0  0  0
  1 25  1  0
  1 30  2  0
  1 85  1  0
  2  3  1  0
  2 25  1  0
  2 87  1  0
  2 88  1  0
  3  4  1  0
  3 89  1  0
  3 90  1  0
  4  5  1  0
  4 91  1  0
  4 92  1  0
  5  6  1  0
  5 26  1  0
  5 93  1  6
  6 25  1  0
  6 94  1  0
  6 95  1  0
  7  8  2  0
  7 26  1  0
  7 29  1  0
  8  9  1  0
  8 22  1  0
  9 10  1  0
  9 27  2  0
 10 11  2  0
 10 15  1  0
 11 12  1  0
 11 96  1  0
 12 13  2  0
 12 97  1  0
 13 14  1  0
 13 31  1  0
 14 15  2  0
 14 98  1  0
 15 99  1  0
 16 17  2  0
 16 21  1  0
 16 31  1  0
 17 18  1  0
 17100  1  0
 18 19  2  0
 18101  1  0
 19 20  1  0
 19 24  1  0
 20 21  2  0
 20102  1  0
 21 23  1  0
 22 28  1  0
 22 32  2  0
 26 27  1  0
 28103  1  0
 28104  1  0
 29105  1  0
 29106  1  0
 33 34  1  0
 33 66  1  0
 33 70  2  0
 34 36  1  0
 34 59  1  0
 34107  1  6
 35 44  2  0
 35 45  1  0
 35 68  1  0
 36 56  1  0
 36108  1  0
 37 39  1  0
 37 47  1  0
 37 66  1  0
 37109  1  6
 38 43  2  0
 38 46  1  0
 38 47  1  0
 39 64  1  0
 39 67  2  0
 40 52  1  0
 40 53  2  0
 40 58  1  0
 41110  1  0
 41111  1  0
 41112  1  0
 42 43  1  0
 42 66  1  0
 42113  1  0
 42114  1  0
 43 44  1  0
 44115  1  0
 45 46  2  0
 45116  1  0
 46117  1  0
 47118  1  0
 47119  1  0
 48 41  1  0
 48 56  1  0
 48 65  1  0
 48120  1  1
 49 50  1  0
 49 53  1  0
 49 64  1  0
 49121  1  1
 50 51  1  0
 50122  1  0
 50123  1  0
 51 52  1  0
 51124  1  0
 51125  1  0
 52126  1  0
 52127  1  0
 53 54  1  0
 54 55  2  0
 54128  1  0
 55 57  1  0
 55129  1  0
 56 69  2  0
 57 58  2  0
 57130  1  0
 58131  1  0
 59 60  1  0
 59 61  1  0
 59 62  1  0
 60132  1  0
 60133  1  0
 60134  1  0
 61135  1  0
 61136  1  0
 61137  1  0
 62138  1  0
 62139  1  0
 62140  1  0
 63 65  1  0
 63141  1  0
 63142  1  0
 63143  1  0
 64144  1  0
 65145  1  0
 68 81  1  0
 71 73  1  0
 71 74  2  0
 71146  1  0
 72 73  2  0
 72 84  1  0
 72147  1  0
 73 82  1  0
 74 83  1  0
 74 84  1  0
 75 77  1  0
 75148  1  0
 75149  1  0
 75150  1  0
 76151  1  0
 76152  1  0
 76153  1  0
 77 78  1  0
 77154  1  0
 77155  1  0
 78 83  1  0
 78156  1  0
 78157  1  0
 79 80  1  0
 79 84  1  0
 79158  1  0
 79159  1  0
 80 85  1  0
 80160  1  0
 80161  1  0
 81 82  1  0
 81162  1  0
 81163  1  0
 82 86  1  0
 82164  1  6
 83 76  1  0
 83165  1  6
 85166  1  0
 86167  1  0
 86168  1  0
 86169  1  0
M  CHG  1  86   1
M  ISO  4   1 100  68 101  81 101  85 100
M  END
$$$$
78
     RDKit          3D

161169  0  0  0  0  0  0  0  0999 V2000
  -30.7652  -14.3608   20.6636 C   0  0  0  0  0  0  0  0  0100  0  0
  -30.4392  -12.2669   19.3775 C   0  0  0  0  0  0  0  0  0101  0  0
  -29.4791  -12.5281   18.1977 C   0  0  0  0  0  0  0  0  0102  0  0
  -27.9985  -12.3963   18.6038 C   0  0  0  0  0  0  0  0  0103  0  0
  -27.6639  -13.2170   19.8820 C   0  0  2  0  0  0  0  0  0104  0  0
  -28.6795  -12.9602   21.0279 C   0  0  0  0  0  0  0  0  0105  0  0
  -25.2633  -13.8245   20.5754 C   0  0  0  0  0  0  0  0  0106  0  0
  -24.1645  -13.0409   20.9408 C   0  0  0  0  0  0  0  0  0107  0  0
  -24.6400  -11.7009   20.8697 C   0  0  0  0  0  0  0  0  0108  0  0
  -23.9005  -10.4085   21.0420 C   0  0  0  0  0  0  0  0  0109  0  0
  -24.3588   -9.4123   21.9123 C   0  0  0  0  0  0  0  0  0110  0  0
  -23.6296   -8.2350   22.0803 C   0  0  0  0  0  0  0  0  0111  0  0
  -22.4385   -8.0419   21.3657 C   0  0  0  0  0  0  0  0  0112  0  0
  -22.0103   -9.0167   20.4678 C   0  0  0  0  0  0  0  0  0113  0  0
  -22.7317  -10.1925   20.3102 C   0  0  0  0  0  0  0  0  0114  0  0
  -21.6857   -6.0709   22.5391 C   0  0  0  0  0  0  0  0  0115  0  0
  -21.4064   -6.5490   23.8264 C   0  0  0  0  0  0  0  0  0116  0  0
  -21.3635   -5.6677   24.9085 C   0  0  0  0  0  0  0  0  0117  0  0
  -21.5973   -4.3067   24.7088 C   0  0  0  0  0  0  0  0  0118  0  0
  -21.8700   -3.8284   23.4282 C   0  0  0  0  0  0  0  0  0119  0  0
  -21.9144   -4.7056   22.3460 C   0  0  0  0  0  0  0  0  0120  0  0
  -22.8194  -13.5263   21.1763 C   0  0  0  0  0  0  0  0  0121  0  0
  -22.1559   -4.2206   21.1063 F   0  0  0  0  0  0  0  0  0122  0  0
  -21.5628   -3.4510   25.7555 F   0  0  0  0  0  0  0  0  0123  0  0
  -30.0261  -13.1803   20.4553 N   0  0  0  0  0  0  0  0  0124  0  0
  -26.2911  -12.9356   20.3443 N   0  0  0  0  0  0  0  0  0125  0  0
  -25.9236  -11.6675   20.5847 N   0  0  0  0  0  0  0  0  0126  0  0
  -22.0708  -12.7905   22.0005 N   0  0  0  0  0  0  0  0  0127  0  0
  -25.4117  -15.1773   20.4097 N   0  0  0  0  0  0  0  0  0128  0  0
  -31.7916  -14.6724   20.0536 O   0  0  0  0  0  0  0  0  0129  0  0
  -21.6670   -6.9022   21.4423 O   0  0  0  0  0  0  0  0  0130  0  0
  -22.3946  -14.5564   20.6568 O   0  0  0  0  0  0  0  0  0131  0  0
  -24.6048  -31.8614   23.2223 C   0  0  0  0  0  0  0  0  0100  0  0
  -25.8822  -32.4841   23.8616 C   0  0  1  0  0  0  0  0  0101  0  0
  -27.2536  -27.5042   20.1156 C   0  0  0  0  0  0  0  0  0102  0  0
  -25.5726  -33.8762   24.2210 N   0  0  0  0  0  0  0  0  0103  0  0
  -23.4066  -30.4859   21.5461 C   0  0  2  0  0  0  0  0  0104  0  0
  -24.8467  -28.9636   20.1247 C   0  0  0  0  0  0  0  0  0105  0  0
  -22.7412  -29.4652   22.5052 C   0  0  0  0  0  0  0  0  0106  0  0
  -18.0167  -28.1302   22.8626 C   0  0  0  0  0  0  0  0  0107  0  0
  -24.1342  -36.7390   23.2568 C   0  0  0  0  0  0  0  0  0108  0  0
  -25.9141  -30.8882   21.3456 C   0  0  0  0  0  0  0  0  0109  0  0
  -25.9930  -29.5029   20.7208 C   0  0  0  0  0  0  0  0  0110  0  0
  -27.1758  -28.7612   20.7331 C   0  0  0  0  0  0  0  0  0111  0  0
  -26.1032  -26.9836   19.5230 C   0  0  0  0  0  0  0  0  0112  0  0
  -24.9097  -27.7011   19.5331 C   0  0  0  0  0  0  0  0  0113  0  0
  -23.5715  -29.7899   20.1582 C   0  0  0  0  0  0  0  0  0114  0  0
  -25.3990  -36.3212   24.0232 C   0  0  1  0  0  0  0  0  0115  0  0
  -20.5793  -28.3813   23.1004 C   0  0  2  0  0  0  0  0  0116  0  0
  -20.6548  -26.9392   22.5411 C   0  0  0  0  0  0  0  0  0117  0  0
  -19.5615  -26.6407   21.5143 C   0  0  0  0  0  0  0  0  0118  0  0
  -18.1797  -26.7818   22.1673 C   0  0  0  0  0  0  0  0  0119  0  0
  -19.1385  -28.8769   23.2988 C   0  0  0  0  0  0  0  0  0120  0  0
  -18.9183  -30.1286   23.8878 C   0  0  0  0  0  0  0  0  0121  0  0
  -17.6396  -30.6493   24.0352 C   0  0  0  0  0  0  0  0  0122  0  0
  -25.9153  -34.9582   23.4993 C   0  0  0  0  0  0  0  0  0123  0  0
  -16.5415  -29.9068   23.6254 C   0  0  0  0  0  0  0  0  0124  0  0
  -16.7331  -28.6521   23.0586 C   0  0  0  0  0  0  0  0  0125  0  0
  -26.4583  -31.6439   25.0683 C   0  0  0  0  0  0  0  0  0126  0  0
  -25.3807  -31.3179   26.1374 C   0  0  0  0  0  0  0  0  0127  0  0
  -27.0530  -30.3024   24.5680 C   0  0  0  0  0  0  0  0  0128  0  0
  -27.6014  -32.4281   25.7651 C   0  0  0  0  0  0  0  0  0129  0  0
  -27.5629  -37.2220   24.8621 C   0  0  0  0  0  0  0  0  0130  0  0
  -21.4133  -29.3375   22.3735 N   0  0  0  0  0  0  0  0  0131  0  0
  -26.4706  -37.3372   23.9061 N   0  0  0  0  0  0  0  0  0132  0  0
  -24.6674  -31.0544   22.1178 N   0  0  0  0  0  0  0  0  0133  0  0
  -23.4259  -28.8150   23.2971 O   0  0  0  0  0  0  0  0  0134  0  0
  -28.3948  -26.7345   20.0089 O   0  0  0  0  0  0  0  0  0135  0  0
  -26.5870  -34.9065   22.4671 O   0  0  0  0  0  0  0  0  0136  0  0
  -23.5365  -32.1254   23.7833 O   0  0  0  0  0  0  0  0  0137  0  0
  -31.3440  -15.9912   23.9149 C   0  0  0  0  0  0  0  0  0  0  0  0
  -29.1930  -20.5826   19.4699 C   0  0  0  0  0  0  0  0  0  0  0  0
  -28.4133  -21.4285   21.7119 C   0  0  0  0  0  0  0  0  0  0  0  0
  -29.2710  -19.1717   20.0364 C   0  0  0  0  0  0  0  0  0  0  0  0
  -28.4948  -20.0132   22.2671 C   0  0  0  0  0  0  0  0  0  0  0  0
  -28.1496  -21.4339   20.2020 C   0  0  1  0  0  0  0  0  0  0  0  0
  -28.1369  -22.8612   19.6589 C   0  0  0  0  0  0  0  0  0  1  0  0
  -31.1673  -17.3928   21.7730 C   0  0  0  0  0  0  0  0  0  0  0  0
  -29.7576  -17.8702   22.1056 C   0  0  0  0  0  0  0  0  0  0  0  0
  -31.4746  -16.0193   22.3809 C   0  0  2  0  0  0  0  0  0  0  0  0
  -30.6387  -14.9961   21.7935 N   0  0  0  0  0  0  0  0  0  0  0  0
  -29.5515  -19.2391   21.5177 N   0  0  1  0  0  0  0  0  0  0  0  0
  -30.9901  -14.8718   24.3876 O   0  0  0  0  0  0  0  0  0  0  0  0
  -31.5920  -17.0702   24.5210 O   0  0  0  0  0  0  0  0  0  0  0  0
  -31.4485  -12.4701   19.0860 H   0  0  0  0  0  0  0  0  0  0  0  0
  -30.3970  -11.2460   19.6950 H   0  0  0  0  0  0  0  0  0  0  0  0
  -29.6870  -11.8204   17.4226 H   0  0  0  0  0  0  0  0  0  0  0  0
  -29.6375  -13.5326   17.8649 H   0  0  0  0  0  0  0  0  0  0  0  0
  -27.7830  -11.3650   18.7904 H   0  0  0  0  0  0  0  0  0  0  0  0
  -27.4028  -12.7801   17.8021 H   0  0  0  0  0  0  0  0  0  0  0  0
  -27.7353  -14.2503   19.6136 H   0  0  0  0  0  0  0  0  0  0  0  0
  -28.5890  -11.9550   21.3832 H   0  0  0  0  0  0  0  0  0  0  0  0
  -28.5005  -13.6134   21.8562 H   0  0  0  0  0  0  0  0  0  0  0  0
  -25.2399   -9.5495   22.4318 H   0  0  0  0  0  0  0  0  0  0  0  0
  -23.9663   -7.5070   22.7297 H   0  0  0  0  0  0  0  0  0  0  0  0
  -21.1515   -8.8641   19.9162 H   0  0  0  0  0  0  0  0  0  0  0  0
  -22.4016  -10.9115   19.6476 H   0  0  0  0  0  0  0  0  0  0  0  0
  -21.2319   -7.5552   23.9750 H   0  0  0  0  0  0  0  0  0  0  0  0
  -21.1589   -6.0228   25.8556 H   0  0  0  0  0  0  0  0  0  0  0  0
  -22.0396   -2.8212   23.2809 H   0  0  0  0  0  0  0  0  0  0  0  0
  -22.4401  -11.9703   22.4008 H   0  0  0  0  0  0  0  0  0  0  0  0
  -21.1493  -13.0679   22.2082 H   0  0  0  0  0  0  0  0  0  0  0  0
  -24.6538  -15.7807   20.5848 H   0  0  0  0  0  0  0  0  0  0  0  0
  -26.2762  -15.5453   20.1156 H   0  0  0  0  0  0  0  0  0  0  0  0
  -26.6778  -32.4663   23.1464 H   0  0  0  0  0  0  0  0  0  0  0  0
  -25.0747  -34.0282   25.0566 H   0  0  0  0  0  0  0  0  0  0  0  0
  -22.7881  -31.3489   21.4131 H   0  0  0  0  0  0  0  0  0  0  0  0
  -23.3854  -35.9823   23.3648 H   0  0  0  0  0  0  0  0  0  0  0  0
  -24.3696  -36.8624   22.2204 H   0  0  0  0  0  0  0  0  0  0  0  0
  -23.7669  -37.6632   23.6516 H   0  0  0  0  0  0  0  0  0  0  0  0
  -25.9445  -31.6237   20.5691 H   0  0  0  0  0  0  0  0  0  0  0  0
  -26.7436  -31.0079   22.0108 H   0  0  0  0  0  0  0  0  0  0  0  0
  -28.0090  -29.1452   21.2057 H   0  0  0  0  0  0  0  0  0  0  0  0
  -26.1369  -26.0560   19.0719 H   0  0  0  0  0  0  0  0  0  0  0  0
  -24.0652  -27.2961   19.0997 H   0  0  0  0  0  0  0  0  0  0  0  0
  -23.6156  -30.5365   19.3930 H   0  0  0  0  0  0  0  0  0  0  0  0
  -22.7355  -29.1425   19.9945 H   0  0  0  0  0  0  0  0  0  0  0  0
  -25.1353  -36.2335   25.0565 H   0  0  0  0  0  0  0  0  0  0  0  0
  -21.0070  -28.3206   24.0793 H   0  0  0  0  0  0  0  0  0  0  0  0
  -20.5555  -26.2518   23.3550 H   0  0  0  0  0  0  0  0  0  0  0  0
  -21.5974  -26.8362   22.0454 H   0  0  0  0  0  0  0  0  0  0  0  0
  -19.6810  -25.6422   21.1488 H   0  0  0  0  0  0  0  0  0  0  0  0
  -19.6406  -27.3343   20.7034 H   0  0  0  0  0  0  0  0  0  0  0  0
  -17.4282  -26.6888   21.4113 H   0  0  0  0  0  0  0  0  0  0  0  0
  -18.0803  -26.0130   22.9049 H   0  0  0  0  0  0  0  0  0  0  0  0
  -19.7265  -30.6774   24.2204 H   0  0  0  0  0  0  0  0  0  0  0  0
  -17.5064  -31.5856   24.4483 H   0  0  0  0  0  0  0  0  0  0  0  0
  -15.5878  -30.2839   23.7407 H   0  0  0  0  0  0  0  0  0  0  0  0
  -15.9120  -28.0941   22.7766 H   0  0  0  0  0  0  0  0  0  0  0  0
  -24.5787  -30.7757   25.6817 H   0  0  0  0  0  0  0  0  0  0  0  0
  -25.0041  -32.2289   26.5536 H   0  0  0  0  0  0  0  0  0  0  0  0
  -25.8166  -30.7245   26.9138 H   0  0  0  0  0  0  0  0  0  0  0  0
  -26.2892  -29.7335   24.0803 H   0  0  0  0  0  0  0  0  0  0  0  0
  -27.4336  -29.7484   25.4006 H   0  0  0  0  0  0  0  0  0  0  0  0
  -27.8466  -30.4994   23.8779 H   0  0  0  0  0  0  0  0  0  0  0  0
  -27.2251  -33.3632   26.1242 H   0  0  0  0  0  0  0  0  0  0  0  0
  -28.3902  -32.6065   25.0645 H   0  0  0  0  0  0  0  0  0  0  0  0
  -27.9772  -31.8555   26.5872 H   0  0  0  0  0  0  0  0  0  0  0  0
  -28.2744  -38.0016   24.6863 H   0  0  0  0  0  0  0  0  0  0  0  0
  -28.0396  -36.2711   24.7461 H   0  0  0  0  0  0  0  0  0  0  0  0
  -27.1773  -37.3087   25.8564 H   0  0  0  0  0  0  0  0  0  0  0  0
  -20.9627  -29.9365   21.7352 H   0  0  0  0  0  0  0  0  0  0  0  0
  -26.0447  -38.2561   24.0273 H   0  0  0  0  0  0  0  0  0  0  0  0
  -28.9288  -20.5259   18.4346 H   0  0  0  0  0  0  0  0  0  0  0  0
  -30.1490  -21.0456   19.5985 H   0  0  0  0  0  0  0  0  0  0  0  0
  -29.3392  -21.9294   21.9035 H   0  0  0  0  0  0  0  0  0  0  0  0
  -27.5987  -21.9280   22.1934 H   0  0  0  0  0  0  0  0  0  0  0  0
  -30.0573  -18.6345   19.5486 H   0  0  0  0  0  0  0  0  0  0  0  0
  -28.3406  -18.6695   19.8721 H   0  0  0  0  0  0  0  0  0  0  0  0
  -27.5478  -19.5291   22.1501 H   0  0  0  0  0  0  0  0  0  0  0  0
  -28.7499  -20.0515   23.3055 H   0  0  0  0  0  0  0  0  0  0  0  0
  -27.1849  -21.0047   20.0286 H   0  0  0  0  0  0  0  0  0  0  0  0
  -27.1744  -22.8258   19.1929 H   0  0  0  0  0  0  0  0  0  0  0  0
  -29.2063  -22.8274   19.6461 H   0  0  0  0  0  0  0  0  0  0  0  0
  -31.8703  -18.1033   22.1549 H   0  0  0  0  0  0  0  0  0  0  0  0
  -31.2405  -17.3039   20.7092 H   0  0  0  0  0  0  0  0  0  0  0  0
  -29.6351  -17.9140   23.1677 H   0  0  0  0  0  0  0  0  0  0  0  0
  -29.0401  -17.1899   21.6966 H   0  0  0  0  0  0  0  0  0  0  0  0
  -32.5000  -15.8174   22.1511 H   0  0  0  0  0  0  0  0  0  0  0  0
  -29.8537  -14.7405   22.3298 H   0  0  0  0  0  0  0  0  0  0  0  0
  -30.4249  -19.7544   21.6274 H   0  0  0  0  0  0  0  0  0  0  0  0
  1 25  1  0
  1 30  2  0
  1 81  1  0
  2  3  1  0
  2 25  1  0
  2 85  1  0
  2 86  1  0
  3  4  1  0
  3 87  1  0
  3 88  1  0
  4  5  1  0
  4 89  1  0
  4 90  1  0
  5  6  1  0
  5 26  1  0
  5 91  1  6
  6 25  1  0
  6 92  1  0
  6 93  1  0
  7  8  2  0
  7 26  1  0
  7 29  1  0
  8  9  1  0
  8 22  1  0
  9 10  1  0
  9 27  2  0
 10 11  2  0
 10 15  1  0
 11 12  1  0
 11 94  1  0
 12 13  2  0
 12 95  1  0
 13 14  1  0
 13 31  1  0
 14 15  2  0
 14 96  1  0
 15 97  1  0
 16 17  2  0
 16 21  1  0
 16 31  1  0
 17 18  1  0
 17 98  1  0
 18 19  2  0
 18 99  1  0
 19 20  1  0
 19 24  1  0
 20 21  2  0
 20100  1  0
 21 23  1  0
 22 28  1  0
 22 32  2  0
 26 27  1  0
 28101  1  0
 28102  1  0
 29103  1  0
 29104  1  0
 33 34  1  0
 33 66  1  0
 33 70  2  0
 34 36  1  0
 34 59  1  0
 34105  1  6
 35 44  2  0
 35 45  1  0
 35 68  1  0
 36 56  1  0
 36106  1  0
 37 39  1  0
 37 47  1  0
 37 66  1  0
 37107  1  6
 38 43  2  0
 38 46  1  0
 38 47  1  0
 39 64  1  0
 39 67  2  0
 40 52  1  0
 40 53  2  0
 40 58  1  0
 41108  1  0
 41109  1  0
 41110  1  0
 42 43  1  0
 42 66  1  0
 42111  1  0
 42112  1  0
 43 44  1  0
 44113  1  0
 45 46  2  0
 45114  1  0
 46115  1  0
 47116  1  0
 47117  1  0
 48 41  1  0
 48 56  1  0
 48 65  1  0
 48118  1  1
 49 50  1  0
 49 53  1  0
 49 64  1  0
 49119  1  1
 50 51  1  0
 50120  1  0
 50121  1  0
 51 52  1  0
 51122  1  0
 51123  1  0
 52124  1  0
 52125  1  0
 53 54  1  0
 54 55  2  0
 54126  1  0
 55 57  1  0
 55127  1  0
 56 69  2  0
 57 58  2  0
 57128  1  0
 58129  1  0
 59 60  1  0
 59 61  1  0
 59 62  1  0
 60130  1  0
 60131  1  0
 60132  1  0
 61133  1  0
 61134  1  0
 61135  1  0
 62136  1  0
 62137  1  0
 62138  1  0
 63 65  1  0
 63139  1  0
 63140  1  0
 63141  1  0
 64142  1  0
 65143  1  0
 68 77  1  0
 71 80  1  0
 71 83  1  0
 71 84  2  0
 72 74  1  0
 72 76  1  0
 72144  1  0
 72145  1  0
 73 75  1  0
 73 76  1  0
 73146  1  0
 73147  1  0
 74 82  1  0
 74148  1  0
 74149  1  0
 75 82  1  0
 75150  1  0
 75151  1  0
 76 77  1  0
 76152  1  1
 77153  1  0
 77154  1  0
 78 79  1  0
 78155  1  0
 78156  1  0
 79157  1  0
 79158  1  0
 80 78  1  0
 80 81  1  0
 80159  1  1
 81160  1  0
 82 79  1  0
 82161  1  6
M  CHG  2  82   1  83  -1
M  ISO  4   1 100  68 101  77 101  81 100
M  END
$$$$
79
     RDKit          3D

167175  0  0  0  0  0  0  0  0999 V2000
  -30.7652  -14.3608   20.6636 C   0  0  0  0  0  0  0  0  0100  0  0
  -30.4392  -12.2669   19.3775 C   0  0  0  0  0  0  0  0  0101  0  0
  -29.4791  -12.5281   18.1977 C   0  0  0  0  0  0  0  0  0102  0  0
  -27.9985  -12.3963   18.6038 C   0  0  0  0  0  0  0  0  0103  0  0
  -27.6639  -13.2170   19.8820 C   0  0  2  0  0  0  0  0  0104  0  0
  -28.6795  -12.9602   21.0279 C   0  0  0  0  0  0  0  0  0105  0  0
  -25.2633  -13.8245   20.5754 C   0  0  0  0  0  0  0  0  0106  0  0
  -24.1645  -13.0409   20.9408 C   0  0  0  0  0  0  0  0  0107  0  0
  -24.6400  -11.7009   20.8697 C   0  0  0  0  0  0  0  0  0108  0  0
  -23.9005  -10.4085   21.0420 C   0  0  0  0  0  0  0  0  0109  0  0
  -24.3588   -9.4123   21.9123 C   0  0  0  0  0  0  0  0  0110  0  0
  -23.6296   -8.2350   22.0803 C   0  0  0  0  0  0  0  0  0111  0  0
  -22.4385   -8.0419   21.3657 C   0  0  0  0  0  0  0  0  0112  0  0
  -22.0103   -9.0167   20.4678 C   0  0  0  0  0  0  0  0  0113  0  0
  -22.7317  -10.1925   20.3102 C   0  0  0  0  0  0  0  0  0114  0  0
  -21.6857   -6.0709   22.5391 C   0  0  0  0  0  0  0  0  0115  0  0
  -21.4064   -6.5490   23.8264 C   0  0  0  0  0  0  0  0  0116  0  0
  -21.3635   -5.6677   24.9085 C   0  0  0  0  0  0  0  0  0117  0  0
  -21.5973   -4.3067   24.7088 C   0  0  0  0  0  0  0  0  0118  0  0
  -21.8700   -3.8284   23.4282 C   0  0  0  0  0  0  0  0  0119  0  0
  -21.9144   -4.7056   22.3460 C   0  0  0  0  0  0  0  0  0120  0  0
  -22.8194  -13.5263   21.1763 C   0  0  0  0  0  0  0  0  0121  0  0
  -22.1559   -4.2206   21.1063 F   0  0  0  0  0  0  0  0  0122  0  0
  -21.5628   -3.4510   25.7555 F   0  0  0  0  0  0  0  0  0123  0  0
  -30.0261  -13.1803   20.4553 N   0  0  0  0  0  0  0  0  0124  0  0
  -26.2911  -12.9356   20.3443 N   0  0  0  0  0  0  0  0  0125  0  0
  -25.9236  -11.6675   20.5847 N   0  0  0  0  0  0  0  0  0126  0  0
  -22.0708  -12.7905   22.0005 N   0  0  0  0  0  0  0  0  0127  0  0
  -25.4117  -15.1773   20.4097 N   0  0  0  0  0  0  0  0  0128  0  0
  -31.7916  -14.6724   20.0536 O   0  0  0  0  0  0  0  0  0129  0  0
  -21.6670   -6.9022   21.4423 O   0  0  0  0  0  0  0  0  0130  0  0
  -22.3946  -14.5564   20.6568 O   0  0  0  0  0  0  0  0  0131  0  0
  -24.6048  -31.8614   23.2223 C   0  0  0  0  0  0  0  0  0100  0  0
  -25.8822  -32.4841   23.8616 C   0  0  1  0  0  0  0  0  0101  0  0
  -27.2536  -27.5042   20.1156 C   0  0  0  0  0  0  0  0  0102  0  0
  -25.5726  -33.8762   24.2210 N   0  0  0  0  0  0  0  0  0103  0  0
  -23.4066  -30.4859   21.5461 C   0  0  2  0  0  0  0  0  0104  0  0
  -24.8467  -28.9636   20.1247 C   0  0  0  0  0  0  0  0  0105  0  0
  -22.7412  -29.4652   22.5052 C   0  0  0  0  0  0  0  0  0106  0  0
  -18.0167  -28.1302   22.8626 C   0  0  0  0  0  0  0  0  0107  0  0
  -24.1342  -36.7390   23.2568 C   0  0  0  0  0  0  0  0  0108  0  0
  -25.9141  -30.8882   21.3456 C   0  0  0  0  0  0  0  0  0109  0  0
  -25.9930  -29.5029   20.7208 C   0  0  0  0  0  0  0  0  0110  0  0
  -27.1758  -28.7612   20.7331 C   0  0  0  0  0  0  0  0  0111  0  0
  -26.1032  -26.9836   19.5230 C   0  0  0  0  0  0  0  0  0112  0  0
  -24.9097  -27.7011   19.5331 C   0  0  0  0  0  0  0  0  0113  0  0
  -23.5715  -29.7899   20.1582 C   0  0  0  0  0  0  0  0  0114  0  0
  -25.3990  -36.3212   24.0232 C   0  0  1  0  0  0  0  0  0115  0  0
  -20.5793  -28.3813   23.1004 C   0  0  2  0  0  0  0  0  0116  0  0
  -20.6548  -26.9392   22.5411 C   0  0  0  0  0  0  0  0  0117  0  0
  -19.5615  -26.6407   21.5143 C   0  0  0  0  0  0  0  0  0118  0  0
  -18.1797  -26.7818   22.1673 C   0  0  0  0  0  0  0  0  0119  0  0
  -19.1385  -28.8769   23.2988 C   0  0  0  0  0  0  0  0  0120  0  0
  -18.9183  -30.1286   23.8878 C   0  0  0  0  0  0  0  0  0121  0  0
  -17.6396  -30.6493   24.0352 C   0  0  0  0  0  0  0  0  0122  0  0
  -25.9153  -34.9582   23.4993 C   0  0  0  0  0  0  0  0  0123  0  0
  -16.5415  -29.9068   23.6254 C   0  0  0  0  0  0  0  0  0124  0  0
  -16.7331  -28.6521   23.0586 C   0  0  0  0  0  0  0  0  0125  0  0
  -26.4583  -31.6439   25.0683 C   0  0  0  0  0  0  0  0  0126  0  0
  -25.3807  -31.3179   26.1374 C   0  0  0  0  0  0  0  0  0127  0  0
  -27.0530  -30.3024   24.5680 C   0  0  0  0  0  0  0  0  0128  0  0
  -27.6014  -32.4281   25.7651 C   0  0  0  0  0  0  0  0  0129  0  0
  -27.5629  -37.2220   24.8621 C   0  0  0  0  0  0  0  0  0130  0  0
  -21.4133  -29.3375   22.3735 N   0  0  0  0  0  0  0  0  0131  0  0
  -26.4706  -37.3372   23.9061 N   0  0  0  0  0  0  0  0  0132  0  0
  -24.6674  -31.0544   22.1178 N   0  0  0  0  0  0  0  0  0133  0  0
  -23.4259  -28.8150   23.2971 O   0  0  0  0  0  0  0  0  0134  0  0
  -28.3948  -26.7345   20.0089 O   0  0  0  0  0  0  0  0  0135  0  0
  -26.5870  -34.9065   22.4671 O   0  0  0  0  0  0  0  0  0136  0  0
  -23.5365  -32.1254   23.7833 O   0  0  0  0  0  0  0  0  0137  0  0
  -29.9506  -22.8483   19.2896 C   0  0  0  0  0  0  0  0  0  0  0  0
  -28.7630  -20.9971   18.0475 C   0  0  0  0  0  0  0  0  0  0  0  0
  -27.6527  -19.9944   18.3250 C   0  0  0  0  0  0  0  0  0  0  0  0
  -29.1390  -19.3092   20.2044 C   0  0  0  0  0  0  0  0  0  0  0  0
  -29.2497  -20.8100   20.5051 C   0  0  2  0  0  0  0  0  0  0  0  0
  -30.0722  -23.5658   17.9678 C   0  0  0  0  0  0  0  0  0  0  0  0
  -28.1176  -21.2905   21.4192 C   0  0  0  0  0  0  0  0  0  0  0  0
  -28.4315  -20.9846   22.8705 C   0  0  0  0  0  0  0  0  0  0  0  0
  -30.7870  -24.8960   18.1121 C   0  0  0  0  0  0  0  0  0  0  0  0
  -29.8569  -27.8721   20.0653 C   0  0  0  0  0  0  0  0  0  1  0  0
  -30.6870  -27.0097   19.1342 C   0  0  0  0  0  0  0  0  0  0  0  0
  -29.3050  -21.6073   19.2675 N   0  0  0  0  0  0  0  0  0  0  0  0
  -28.0065  -18.9901   19.3257 N   0  0  0  0  0  0  0  0  0  0  0  0
  -27.2881  -21.4228   23.7064 N   0  0  0  0  0  0  0  0  0  0  0  0
  -30.4098  -23.3706   20.3084 O   0  0  0  0  0  0  0  0  0  0  0  0
  -30.0474  -25.7509   18.9740 O   0  0  0  0  0  0  0  0  0  0  0  0
  -31.4485  -12.4701   19.0860 H   0  0  0  0  0  0  0  0  0  0  0  0
  -30.3970  -11.2460   19.6950 H   0  0  0  0  0  0  0  0  0  0  0  0
  -29.6870  -11.8204   17.4226 H   0  0  0  0  0  0  0  0  0  0  0  0
  -29.6375  -13.5326   17.8649 H   0  0  0  0  0  0  0  0  0  0  0  0
  -27.7830  -11.3650   18.7904 H   0  0  0  0  0  0  0  0  0  0  0  0
  -27.4028  -12.7801   17.8021 H   0  0  0  0  0  0  0  0  0  0  0  0
  -27.7353  -14.2503   19.6136 H   0  0  0  0  0  0  0  0  0  0  0  0
  -28.5890  -11.9550   21.3832 H   0  0  0  0  0  0  0  0  0  0  0  0
  -28.5005  -13.6134   21.8562 H   0  0  0  0  0  0  0  0  0  0  0  0
  -25.2399   -9.5495   22.4318 H   0  0  0  0  0  0  0  0  0  0  0  0
  -23.9663   -7.5070   22.7297 H   0  0  0  0  0  0  0  0  0  0  0  0
  -21.1515   -8.8641   19.9162 H   0  0  0  0  0  0  0  0  0  0  0  0
  -22.4016  -10.9115   19.6476 H   0  0  0  0  0  0  0  0  0  0  0  0
  -21.2319   -7.5552   23.9750 H   0  0  0  0  0  0  0  0  0  0  0  0
  -21.1589   -6.0228   25.8556 H   0  0  0  0  0  0  0  0  0  0  0  0
  -22.0396   -2.8212   23.2809 H   0  0  0  0  0  0  0  0  0  0  0  0
  -22.4401  -11.9703   22.4008 H   0  0  0  0  0  0  0  0  0  0  0  0
  -21.1493  -13.0679   22.2082 H   0  0  0  0  0  0  0  0  0  0  0  0
  -24.6538  -15.7807   20.5848 H   0  0  0  0  0  0  0  0  0  0  0  0
  -26.2762  -15.5453   20.1156 H   0  0  0  0  0  0  0  0  0  0  0  0
  -26.6778  -32.4663   23.1464 H   0  0  0  0  0  0  0  0  0  0  0  0
  -25.0747  -34.0282   25.0566 H   0  0  0  0  0  0  0  0  0  0  0  0
  -22.7881  -31.3489   21.4131 H   0  0  0  0  0  0  0  0  0  0  0  0
  -23.3854  -35.9823   23.3648 H   0  0  0  0  0  0  0  0  0  0  0  0
  -24.3696  -36.8624   22.2204 H   0  0  0  0  0  0  0  0  0  0  0  0
  -23.7669  -37.6632   23.6516 H   0  0  0  0  0  0  0  0  0  0  0  0
  -25.9445  -31.6237   20.5691 H   0  0  0  0  0  0  0  0  0  0  0  0
  -26.7436  -31.0079   22.0108 H   0  0  0  0  0  0  0  0  0  0  0  0
  -28.0090  -29.1452   21.2057 H   0  0  0  0  0  0  0  0  0  0  0  0
  -26.1369  -26.0560   19.0719 H   0  0  0  0  0  0  0  0  0  0  0  0
  -24.0652  -27.2961   19.0997 H   0  0  0  0  0  0  0  0  0  0  0  0
  -23.6156  -30.5365   19.3930 H   0  0  0  0  0  0  0  0  0  0  0  0
  -22.7355  -29.1425   19.9945 H   0  0  0  0  0  0  0  0  0  0  0  0
  -25.1353  -36.2335   25.0565 H   0  0  0  0  0  0  0  0  0  0  0  0
  -21.0070  -28.3206   24.0793 H   0  0  0  0  0  0  0  0  0  0  0  0
  -20.5555  -26.2518   23.3550 H   0  0  0  0  0  0  0  0  0  0  0  0
  -21.5974  -26.8362   22.0454 H   0  0  0  0  0  0  0  0  0  0  0  0
  -19.6810  -25.6422   21.1488 H   0  0  0  0  0  0  0  0  0  0  0  0
  -19.6406  -27.3343   20.7034 H   0  0  0  0  0  0  0  0  0  0  0  0
  -17.4282  -26.6888   21.4113 H   0  0  0  0  0  0  0  0  0  0  0  0
  -18.0803  -26.0130   22.9049 H   0  0  0  0  0  0  0  0  0  0  0  0
  -19.7265  -30.6774   24.2204 H   0  0  0  0  0  0  0  0  0  0  0  0
  -17.5064  -31.5856   24.4483 H   0  0  0  0  0  0  0  0  0  0  0  0
  -15.5878  -30.2839   23.7407 H   0  0  0  0  0  0  0  0  0  0  0  0
  -15.9120  -28.0941   22.7766 H   0  0  0  0  0  0  0  0  0  0  0  0
  -24.5787  -30.7757   25.6817 H   0  0  0  0  0  0  0  0  0  0  0  0
  -25.0041  -32.2289   26.5536 H   0  0  0  0  0  0  0  0  0  0  0  0
  -25.8166  -30.7245   26.9138 H   0  0  0  0  0  0  0  0  0  0  0  0
  -26.2892  -29.7335   24.0803 H   0  0  0  0  0  0  0  0  0  0  0  0
  -27.4336  -29.7484   25.4006 H   0  0  0  0  0  0  0  0  0  0  0  0
  -27.8466  -30.4994   23.8779 H   0  0  0  0  0  0  0  0  0  0  0  0
  -27.2251  -33.3632   26.1242 H   0  0  0  0  0  0  0  0  0  0  0  0
  -28.3902  -32.6065   25.0645 H   0  0  0  0  0  0  0  0  0  0  0  0
  -27.9772  -31.8555   26.5872 H   0  0  0  0  0  0  0  0  0  0  0  0
  -28.2744  -38.0016   24.6863 H   0  0  0  0  0  0  0  0  0  0  0  0
  -28.0396  -36.2711   24.7461 H   0  0  0  0  0  0  0  0  0  0  0  0
  -27.1773  -37.3087   25.8564 H   0  0  0  0  0  0  0  0  0  0  0  0
  -20.9627  -29.9365   21.7352 H   0  0  0  0  0  0  0  0  0  0  0  0
  -26.0447  -38.2561   24.0273 H   0  0  0  0  0  0  0  0  0  0  0  0
  -28.3728  -21.7732   17.4228 H   0  0  0  0  0  0  0  0  0  0  0  0
  -29.5621  -20.4659   17.5740 H   0  0  0  0  0  0  0  0  0  0  0  0
  -27.4150  -19.4916   17.4109 H   0  0  0  0  0  0  0  0  0  0  0  0
  -26.8227  -20.5460   18.7146 H   0  0  0  0  0  0  0  0  0  0  0  0
  -29.0148  -18.7832   21.1278 H   0  0  0  0  0  0  0  0  0  0  0  0
  -30.0343  -19.0137   19.6985 H   0  0  0  0  0  0  0  0  0  0  0  0
  -30.1712  -20.9568   21.0287 H   0  0  0  0  0  0  0  0  0  0  0  0
  -29.0915  -23.7403   17.5770 H   0  0  0  0  0  0  0  0  0  0  0  0
  -30.6458  -22.9501   17.3069 H   0  0  0  0  0  0  0  0  0  0  0  0
  -27.2102  -20.7945   21.1444 H   0  0  0  0  0  0  0  0  0  0  0  0
  -28.0118  -22.3493   21.3068 H   0  0  0  0  0  0  0  0  0  0  0  0
  -29.3157  -21.5096   23.1661 H   0  0  0  0  0  0  0  0  0  0  0  0
  -28.5930  -19.9342   22.9951 H   0  0  0  0  0  0  0  0  0  0  0  0
  -30.8793  -25.3555   17.1502 H   0  0  0  0  0  0  0  0  0  0  0  0
  -31.7588  -24.7307   18.5284 H   0  0  0  0  0  0  0  0  0  0  0  0
  -29.6512  -28.8446   19.6694 H   0  0  0  0  0  0  0  0  0  0  0  0
  -30.2652  -28.1296   21.0202 H   0  0  0  0  0  0  0  0  0  0  0  0
  -31.6615  -26.8660   19.5522 H   0  0  0  0  0  0  0  0  0  0  0  0
  -30.7795  -27.4911   18.1831 H   0  0  0  0  0  0  0  0  0  0  0  0
  -27.1404  -22.4244   23.5824 H   0  0  0  0  0  0  0  0  0  0  0  0
  -27.4894  -21.2277   24.6871 H   0  0  0  0  0  0  0  0  0  0  0  0
  -26.4478  -20.9178   23.4248 H   0  0  0  0  0  0  0  0  0  0  0  0
  1 25  1  0
  1 30  2  0
  1 83  1  0
  2  3  1  0
  2 25  1  0
  2 87  1  0
  2 88  1  0
  3  4  1  0
  3 89  1  0
  3 90  1  0
  4  5  1  0
  4 91  1  0
  4 92  1  0
  5  6  1  0
  5 26  1  0
  5 93  1  6
  6 25  1  0
  6 94  1  0
  6 95  1  0
  7  8  2  0
  7 26  1  0
  7 29  1  0
  8  9  1  0
  8 22  1  0
  9 10  1  0
  9 27  2  0
 10 11  2  0
 10 15  1  0
 11 12  1  0
 11 96  1  0
 12 13  2  0
 12 97  1  0
 13 14  1  0
 13 31  1  0
 14 15  2  0
 14 98  1  0
 15 99  1  0
 16 17  2  0
 16 21  1  0
 16 31  1  0
 17 18  1  0
 17100  1  0
 18 19  2  0
 18101  1  0
 19 20  1  0
 19 24  1  0
 20 21  2  0
 20102  1  0
 21 23  1  0
 22 28  1  0
 22 32  2  0
 26 27  1  0
 28103  1  0
 28104  1  0
 29105  1  0
 29106  1  0
 33 34  1  0
 33 66  1  0
 33 70  2  0
 34 36  1  0
 34 59  1  0
 34107  1  6
 35 44  2  0
 35 45  1  0
 35 68  1  0
 36 56  1  0
 36108  1  0
 37 39  1  0
 37 47  1  0
 37 66  1  0
 37109  1  6
 38 43  2  0
 38 46  1  0
 38 47  1  0
 39 64  1  0
 39 67  2  0
 40 52  1  0
 40 53  2  0
 40 58  1  0
 41110  1  0
 41111  1  0
 41112  1  0
 42 43  1  0
 42 66  1  0
 42113  1  0
 42114  1  0
 43 44  1  0
 44115  1  0
 45 46  2  0
 45116  1  0
 46117  1  0
 47118  1  0
 47119  1  0
 48 41  1  0
 48 56  1  0
 48 65  1  0
 48120  1  1
 49 50  1  0
 49 53  1  0
 49 64  1  0
 49121  1  1
 50 51  1  0
 50122  1  0
 50123  1  0
 51 52  1  0
 51124  1  0
 51125  1  0
 52126  1  0
 52127  1  0
 53 54  1  0
 54 55  2  0
 54128  1  0
 55 57  1  0
 55129  1  0
 56 69  2  0
 57 58  2  0
 57130  1  0
 58131  1  0
 59 60  1  0
 59 61  1  0
 59 62  1  0
 60132  1  0
 60133  1  0
 60134  1  0
 61135  1  0
 61136  1  0
 61137  1  0
 62138  1  0
 62139  1  0
 62140  1  0
 63 65  1  0
 63141  1  0
 63142  1  0
 63143  1  0
 64144  1  0
 65145  1  0
 68 80  1  0
 71 76  1  0
 71 82  1  0
 71 85  2  0
 72 73  1  0
 72 82  1  0
 72146  1  0
 72147  1  0
 73 83  1  0
 73148  1  0
 73149  1  0
 74 75  1  0
 74 83  1  0
 74150  1  0
 74151  1  0
 75 77  1  0
 75 82  1  0
 75152  1  1
 76 79  1  0
 76153  1  0
 76154  1  0
 77 78  1  0
 77155  1  0
 77156  1  0
 78 84  1  0
 78157  1  0
 78158  1  0
 79 86  1  0
 79159  1  0
 79160  1  0
 80 81  1  0
 80161  1  0
 80162  1  0
 81 86  1  0
 81163  1  0
 81164  1  0
 84165  1  0
 84166  1  0
 84167  1  0
M  CHG  1  84   1
M  ISO  4   1 100  68 101  80 101  83 100
M  END
$$$$
80
     RDKit          3D

161170  0  0  0  0  0  0  0  0999 V2000
  -30.7652  -14.3608   20.6636 C   0  0  0  0  0  0  0  0  0100  0  0
  -30.4392  -12.2669   19.3775 C   0  0  0  0  0  0  0  0  0101  0  0
  -29.4791  -12.5281   18.1977 C   0  0  0  0  0  0  0  0  0102  0  0
  -27.9985  -12.3963   18.6038 C   0  0  0  0  0  0  0  0  0103  0  0
  -27.6639  -13.2170   19.8820 C   0  0  2  0  0  0  0  0  0104  0  0
  -28.6795  -12.9602   21.0279 C   0  0  0  0  0  0  0  0  0105  0  0
  -25.2633  -13.8245   20.5754 C   0  0  0  0  0  0  0  0  0106  0  0
  -24.1645  -13.0409   20.9408 C   0  0  0  0  0  0  0  0  0107  0  0
  -24.6400  -11.7009   20.8697 C   0  0  0  0  0  0  0  0  0108  0  0
  -23.9005  -10.4085   21.0420 C   0  0  0  0  0  0  0  0  0109  0  0
  -24.3588   -9.4123   21.9123 C   0  0  0  0  0  0  0  0  0110  0  0
  -23.6296   -8.2350   22.0803 C   0  0  0  0  0  0  0  0  0111  0  0
  -22.4385   -8.0419   21.3657 C   0  0  0  0  0  0  0  0  0112  0  0
  -22.0103   -9.0167   20.4678 C   0  0  0  0  0  0  0  0  0113  0  0
  -22.7317  -10.1925   20.3102 C   0  0  0  0  0  0  0  0  0114  0  0
  -21.6857   -6.0709   22.5391 C   0  0  0  0  0  0  0  0  0115  0  0
  -21.4064   -6.5490   23.8264 C   0  0  0  0  0  0  0  0  0116  0  0
  -21.3635   -5.6677   24.9085 C   0  0  0  0  0  0  0  0  0117  0  0
  -21.5973   -4.3067   24.7088 C   0  0  0  0  0  0  0  0  0118  0  0
  -21.8700   -3.8284   23.4282 C   0  0  0  0  0  0  0  0  0119  0  0
  -21.9144   -4.7056   22.3460 C   0  0  0  0  0  0  0  0  0120  0  0
  -22.8194  -13.5263   21.1763 C   0  0  0  0  0  0  0  0  0121  0  0
  -22.1559   -4.2206   21.1063 F   0  0  0  0  0  0  0  0  0122  0  0
  -21.5628   -3.4510   25.7555 F   0  0  0  0  0  0  0  0  0123  0  0
  -30.0261  -13.1803   20.4553 N   0  0  0  0  0  0  0  0  0124  0  0
  -26.2911  -12.9356   20.3443 N   0  0  0  0  0  0  0  0  0125  0  0
  -25.9236  -11.6675   20.5847 N   0  0  0  0  0  0  0  0  0126  0  0
  -22.0708  -12.7905   22.0005 N   0  0  0  0  0  0  0  0  0127  0  0
  -25.4117  -15.1773   20.4097 N   0  0  0  0  0  0  0  0  0128  0  0
  -31.7916  -14.6724   20.0536 O   0  0  0  0  0  0  0  0  0129  0  0
  -21.6670   -6.9022   21.4423 O   0  0  0  0  0  0  0  0  0130  0  0
  -22.3946  -14.5564   20.6568 O   0  0  0  0  0  0  0  0  0131  0  0
  -24.6048  -31.8614   23.2223 C   0  0  0  0  0  0  0  0  0100  0  0
  -25.8822  -32.4841   23.8616 C   0  0  1  0  0  0  0  0  0101  0  0
  -27.2536  -27.5042   20.1156 C   0  0  0  0  0  0  0  0  0102  0  0
  -25.5726  -33.8762   24.2210 N   0  0  0  0  0  0  0  0  0103  0  0
  -23.4066  -30.4859   21.5461 C   0  0  2  0  0  0  0  0  0104  0  0
  -24.8467  -28.9636   20.1247 C   0  0  0  0  0  0  0  0  0105  0  0
  -22.7412  -29.4652   22.5052 C   0  0  0  0  0  0  0  0  0106  0  0
  -18.0167  -28.1302   22.8626 C   0  0  0  0  0  0  0  0  0107  0  0
  -24.1342  -36.7390   23.2568 C   0  0  0  0  0  0  0  0  0108  0  0
  -25.9141  -30.8882   21.3456 C   0  0  0  0  0  0  0  0  0109  0  0
  -25.9930  -29.5029   20.7208 C   0  0  0  0  0  0  0  0  0110  0  0
  -27.1758  -28.7612   20.7331 C   0  0  0  0  0  0  0  0  0111  0  0
  -26.1032  -26.9836   19.5230 C   0  0  0  0  0  0  0  0  0112  0  0
  -24.9097  -27.7011   19.5331 C   0  0  0  0  0  0  0  0  0113  0  0
  -23.5715  -29.7899   20.1582 C   0  0  0  0  0  0  0  0  0114  0  0
  -25.3990  -36.3212   24.0232 C   0  0  1  0  0  0  0  0  0115  0  0
  -20.5793  -28.3813   23.1004 C   0  0  2  0  0  0  0  0  0116  0  0
  -20.6548  -26.9392   22.5411 C   0  0  0  0  0  0  0  0  0117  0  0
  -19.5615  -26.6407   21.5143 C   0  0  0  0  0  0  0  0  0118  0  0
  -18.1797  -26.7818   22.1673 C   0  0  0  0  0  0  0  0  0119  0  0
  -19.1385  -28.8769   23.2988 C   0  0  0  0  0  0  0  0  0120  0  0
  -18.9183  -30.1286   23.8878 C   0  0  0  0  0  0  0  0  0121  0  0
  -17.6396  -30.6493   24.0352 C   0  0  0  0  0  0  0  0  0122  0  0
  -25.9153  -34.9582   23.4993 C   0  0  0  0  0  0  0  0  0123  0  0
  -16.5415  -29.9068   23.6254 C   0  0  0  0  0  0  0  0  0124  0  0
  -16.7331  -28.6521   23.0586 C   0  0  0  0  0  0  0  0  0125  0  0
  -26.4583  -31.6439   25.0683 C   0  0  0  0  0  0  0  0  0126  0  0
  -25.3807  -31.3179   26.1374 C   0  0  0  0  0  0  0  0  0127  0  0
  -27.0530  -30.3024   24.5680 C   0  0  0  0  0  0  0  0  0128  0  0
  -27.6014  -32.4281   25.7651 C   0  0  0  0  0  0  0  0  0129  0  0
  -27.5629  -37.2220   24.8621 C   0  0  0  0  0  0  0  0  0130  0  0
  -21.4133  -29.3375   22.3735 N   0  0  0  0  0  0  0  0  0131  0  0
  -26.4706  -37.3372   23.9061 N   0  0  0  0  0  0  0  0  0132  0  0
  -24.6674  -31.0544   22.1178 N   0  0  0  0  0  0  0  0  0133  0  0
  -23.4259  -28.8150   23.2971 O   0  0  0  0  0  0  0  0  0134  0  0
  -28.3948  -26.7345   20.0089 O   0  0  0  0  0  0  0  0  0135  0  0
  -26.5870  -34.9065   22.4671 O   0  0  0  0  0  0  0  0  0136  0  0
  -23.5365  -32.1254   23.7833 O   0  0  0  0  0  0  0  0  0137  0  0
  -26.0224  -22.6266   17.6409 C   0  0  0  0  0  0  0  0  0  0  0  0
  -24.9105  -23.1470   15.7681 C   0  0  0  0  0  0  0  0  0  0  0  0
  -25.6328  -21.4440   17.0518 C   0  0  0  0  0  0  0  0  0  0  0  0
  -24.9292  -21.7732   15.8671 C   0  0  0  0  0  0  0  0  0  0  0  0
  -25.2519  -19.8158   18.9524 C   0  0  0  0  0  0  0  0  0  0  0  0
  -27.4215  -19.7531   17.6432 C   0  0  0  0  0  0  0  0  0  0  0  0
  -25.5282  -18.4047   19.4725 C   0  0  0  0  0  0  0  0  0  0  0  0
  -27.6939  -18.3426   18.1670 C   0  0  0  0  0  0  0  0  0  0  0  0
  -25.9132  -20.0501   17.5834 C   0  0  2  0  0  0  0  0  0  0  0  0
  -27.0297  -18.1124   19.5261 C   0  0  2  0  0  0  0  0  0  0  0  0
  -24.3236  -20.8283   14.9082 C   0  0  0  0  0  0  0  0  0  0  0  0
  -25.7927  -25.1189   17.1310 C   0  0  0  0  0  0  0  0  0  1  0  0
  -25.5782  -23.6551   16.8516 N   0  0  0  0  0  0  0  0  0  0  0  0
  -27.2705  -16.7620   19.9837 N   0  0  0  0  0  0  0  0  0  0  0  0
  -31.4485  -12.4701   19.0860 H   0  0  0  0  0  0  0  0  0  0  0  0
  -30.3970  -11.2460   19.6950 H   0  0  0  0  0  0  0  0  0  0  0  0
  -29.6870  -11.8204   17.4226 H   0  0  0  0  0  0  0  0  0  0  0  0
  -29.6375  -13.5326   17.8649 H   0  0  0  0  0  0  0  0  0  0  0  0
  -27.7830  -11.3650   18.7904 H   0  0  0  0  0  0  0  0  0  0  0  0
  -27.4028  -12.7801   17.8021 H   0  0  0  0  0  0  0  0  0  0  0  0
  -27.7353  -14.2503   19.6136 H   0  0  0  0  0  0  0  0  0  0  0  0
  -28.5890  -11.9550   21.3832 H   0  0  0  0  0  0  0  0  0  0  0  0
  -28.5005  -13.6134   21.8562 H   0  0  0  0  0  0  0  0  0  0  0  0
  -25.2399   -9.5495   22.4318 H   0  0  0  0  0  0  0  0  0  0  0  0
  -23.9663   -7.5070   22.7297 H   0  0  0  0  0  0  0  0  0  0  0  0
  -21.1515   -8.8641   19.9162 H   0  0  0  0  0  0  0  0  0  0  0  0
  -22.4016  -10.9115   19.6476 H   0  0  0  0  0  0  0  0  0  0  0  0
  -21.2319   -7.5552   23.9750 H   0  0  0  0  0  0  0  0  0  0  0  0
  -21.1589   -6.0228   25.8556 H   0  0  0  0  0  0  0  0  0  0  0  0
  -22.0396   -2.8212   23.2809 H   0  0  0  0  0  0  0  0  0  0  0  0
  -22.4401  -11.9703   22.4008 H   0  0  0  0  0  0  0  0  0  0  0  0
  -21.1493  -13.0679   22.2082 H   0  0  0  0  0  0  0  0  0  0  0  0
  -24.6538  -15.7807   20.5848 H   0  0  0  0  0  0  0  0  0  0  0  0
  -26.2762  -15.5453   20.1156 H   0  0  0  0  0  0  0  0  0  0  0  0
  -26.6778  -32.4663   23.1464 H   0  0  0  0  0  0  0  0  0  0  0  0
  -25.0747  -34.0282   25.0566 H   0  0  0  0  0  0  0  0  0  0  0  0
  -22.7881  -31.3489   21.4131 H   0  0  0  0  0  0  0  0  0  0  0  0
  -23.3854  -35.9823   23.3648 H   0  0  0  0  0  0  0  0  0  0  0  0
  -24.3696  -36.8624   22.2204 H   0  0  0  0  0  0  0  0  0  0  0  0
  -23.7669  -37.6632   23.6516 H   0  0  0  0  0  0  0  0  0  0  0  0
  -25.9445  -31.6237   20.5691 H   0  0  0  0  0  0  0  0  0  0  0  0
  -26.7436  -31.0079   22.0108 H   0  0  0  0  0  0  0  0  0  0  0  0
  -28.0090  -29.1452   21.2057 H   0  0  0  0  0  0  0  0  0  0  0  0
  -26.1369  -26.0560   19.0719 H   0  0  0  0  0  0  0  0  0  0  0  0
  -24.0652  -27.2961   19.0997 H   0  0  0  0  0  0  0  0  0  0  0  0
  -23.6156  -30.5365   19.3930 H   0  0  0  0  0  0  0  0  0  0  0  0
  -22.7355  -29.1425   19.9945 H   0  0  0  0  0  0  0  0  0  0  0  0
  -25.1353  -36.2335   25.0565 H   0  0  0  0  0  0  0  0  0  0  0  0
  -21.0070  -28.3206   24.0793 H   0  0  0  0  0  0  0  0  0  0  0  0
  -20.5555  -26.2518   23.3550 H   0  0  0  0  0  0  0  0  0  0  0  0
  -21.5974  -26.8362   22.0454 H   0  0  0  0  0  0  0  0  0  0  0  0
  -19.6810  -25.6422   21.1488 H   0  0  0  0  0  0  0  0  0  0  0  0
  -19.6406  -27.3343   20.7034 H   0  0  0  0  0  0  0  0  0  0  0  0
  -17.4282  -26.6888   21.4113 H   0  0  0  0  0  0  0  0  0  0  0  0
  -18.0803  -26.0130   22.9049 H   0  0  0  0  0  0  0  0  0  0  0  0
  -19.7265  -30.6774   24.2204 H   0  0  0  0  0  0  0  0  0  0  0  0
  -17.5064  -31.5856   24.4483 H   0  0  0  0  0  0  0  0  0  0  0  0
  -15.5878  -30.2839   23.7407 H   0  0  0  0  0  0  0  0  0  0  0  0
  -15.9120  -28.0941   22.7766 H   0  0  0  0  0  0  0  0  0  0  0  0
  -24.5787  -30.7757   25.6817 H   0  0  0  0  0  0  0  0  0  0  0  0
  -25.0041  -32.2289   26.5536 H   0  0  0  0  0  0  0  0  0  0  0  0
  -25.8166  -30.7245   26.9138 H   0  0  0  0  0  0  0  0  0  0  0  0
  -26.2892  -29.7335   24.0803 H   0  0  0  0  0  0  0  0  0  0  0  0
  -27.4336  -29.7484   25.4006 H   0  0  0  0  0  0  0  0  0  0  0  0
  -27.8466  -30.4994   23.8779 H   0  0  0  0  0  0  0  0  0  0  0  0
  -27.2251  -33.3632   26.1242 H   0  0  0  0  0  0  0  0  0  0  0  0
  -28.3902  -32.6065   25.0645 H   0  0  0  0  0  0  0  0  0  0  0  0
  -27.9772  -31.8555   26.5872 H   0  0  0  0  0  0  0  0  0  0  0  0
  -28.2744  -38.0016   24.6863 H   0  0  0  0  0  0  0  0  0  0  0  0
  -28.0396  -36.2711   24.7461 H   0  0  0  0  0  0  0  0  0  0  0  0
  -27.1773  -37.3087   25.8564 H   0  0  0  0  0  0  0  0  0  0  0  0
  -20.9627  -29.9365   21.7352 H   0  0  0  0  0  0  0  0  0  0  0  0
  -26.0447  -38.2561   24.0273 H   0  0  0  0  0  0  0  0  0  0  0  0
  -26.5542  -22.7213   18.5202 H   0  0  0  0  0  0  0  0  0  0  0  0
  -24.4717  -23.6960   15.0124 H   0  0  0  0  0  0  0  0  0  0  0  0
  -25.6393  -20.5266   19.6521 H   0  0  0  0  0  0  0  0  0  0  0  0
  -24.1942  -19.9314   18.8391 H   0  0  0  0  0  0  0  0  0  0  0  0
  -27.8332  -19.8445   16.6598 H   0  0  0  0  0  0  0  0  0  0  0  0
  -27.8756  -20.4536   18.3125 H   0  0  0  0  0  0  0  0  0  0  0  0
  -25.0587  -17.6961   18.8225 H   0  0  0  0  0  0  0  0  0  0  0  0
  -25.1351  -18.3289   20.4648 H   0  0  0  0  0  0  0  0  0  0  0  0
  -28.7504  -18.2073   18.2687 H   0  0  0  0  0  0  0  0  0  0  0  0
  -27.2859  -17.6406   17.4702 H   0  0  0  0  0  0  0  0  0  0  0  0
  -25.4747  -19.3634   16.8898 H   0  0  0  0  0  0  0  0  0  0  0  0
  -27.4676  -18.7945   20.2246 H   0  0  0  0  0  0  0  0  0  0  0  0
  -23.8610  -21.3746   14.1130 H   0  0  0  0  0  0  0  0  0  0  0  0
  -23.5872  -20.2350   15.4088 H   0  0  0  0  0  0  0  0  0  0  0  0
  -25.0836  -20.1904   14.5078 H   0  0  0  0  0  0  0  0  0  0  0  0
  -24.8253  -25.5007   17.3824 H   0  0  0  0  0  0  0  0  0  0  0  0
  -26.3122  -25.3997   16.2387 H   0  0  0  0  0  0  0  0  0  0  0  0
  -26.4369  -16.2794   20.1873 H   0  0  0  0  0  0  0  0  0  0  0  0
  1 25  1  0
  1 30  2  0
  1 84  1  0
  2  3  1  0
  2 25  1  0
  2 85  1  0
  2 86  1  0
  3  4  1  0
  3 87  1  0
  3 88  1  0
  4  5  1  0
  4 89  1  0
  4 90  1  0
  5  6  1  0
  5 26  1  0
  5 91  1  6
  6 25  1  0
  6 92  1  0
  6 93  1  0
  7  8  2  0
  7 26  1  0
  7 29  1  0
  8  9  1  0
  8 22  1  0
  9 10  1  0
  9 27  2  0
 10 11  2  0
 10 15  1  0
 11 12  1  0
 11 94  1  0
 12 13  2  0
 12 95  1  0
 13 14  1  0
 13 31  1  0
 14 15  2  0
 14 96  1  0
 15 97  1  0
 16 17  2  0
 16 21  1  0
 16 31  1  0
 17 18  1  0
 17 98  1  0
 18 19  2  0
 18 99  1  0
 19 20  1  0
 19 24  1  0
 20 21  2  0
 20100  1  0
 21 23  1  0
 22 28  1  0
 22 32  2  0
 26 27  1  0
 28101  1  0
 28102  1  0
 29103  1  0
 29104  1  0
 33 34  1  0
 33 66  1  0
 33 70  2  0
 34 36  1  0
 34 59  1  0
 34105  1  6
 35 44  2  0
 35 45  1  0
 35 68  1  0
 36 56  1  0
 36106  1  0
 37 39  1  0
 37 47  1  0
 37 66  1  0
 37107  1  6
 38 43  2  0
 38 46  1  0
 38 47  1  0
 39 64  1  0
 39 67  2  0
 40 52  1  0
 40 53  2  0
 40 58  1  0
 41108  1  0
 41109  1  0
 41110  1  0
 42 43  1  0
 42 66  1  0
 42111  1  0
 42112  1  0
 43 44  1  0
 44113  1  0
 45 46  2  0
 45114  1  0
 46115  1  0
 47116  1  0
 47117  1  0
 48 41  1  0
 48 56  1  0
 48 65  1  0
 48118  1  1
 49 50  1  0
 49 53  1  0
 49 64  1  0
 49119  1  1
 50 51  1  0
 50120  1  0
 50121  1  0
 51 52  1  0
 51122  1  0
 51123  1  0
 52124  1  0
 52125  1  0
 53 54  1  0
 54 55  2  0
 54126  1  0
 55 57  1  0
 55127  1  0
 56 69  2  0
 57 58  2  0
 57128  1  0
 58129  1  0
 59 60  1  0
 59 61  1  0
 59 62  1  0
 60130  1  0
 60131  1  0
 60132  1  0
 61133  1  0
 61134  1  0
 61135  1  0
 62136  1  0
 62137  1  0
 62138  1  0
 63 65  1  0
 63139  1  0
 63140  1  0
 63141  1  0
 64142  1  0
 65143  1  0
 68 82  1  0
 71 73  2  0
 71 83  1  0
 71144  1  0
 72 74  2  0
 72 83  1  0
 72145  1  0
 73 74  1  0
 74 81  1  0
 75 77  1  0
 75 79  1  0
 75146  1  0
 75147  1  0
 76 78  1  0
 76 79  1  0
 76148  1  0
 76149  1  0
 77 80  1  0
 77150  1  0
 77151  1  0
 78 80  1  0
 78152  1  0
 78153  1  0
 79 73  1  0
 79154  1  6
 80 84  1  0
 80155  1  1
 81156  1  0
 81157  1  0
 81158  1  0
 82 83  1  0
 82159  1  0
 82160  1  0
 84161  1  0
M  ISO  4   1 100  68 101  82 101  84 100
M  END
$$$$
81
     RDKit          3D

165173  0  0  0  0  0  0  0  0999 V2000
  -30.7652  -14.3608   20.6636 C   0  0  0  0  0  0  0  0  0100  0  0
  -30.4392  -12.2669   19.3775 C   0  0  0  0  0  0  0  0  0101  0  0
  -29.4791  -12.5281   18.1977 C   0  0  0  0  0  0  0  0  0102  0  0
  -27.9985  -12.3963   18.6038 C   0  0  0  0  0  0  0  0  0103  0  0
  -27.6639  -13.2170   19.8820 C   0  0  2  0  0  0  0  0  0104  0  0
  -28.6795  -12.9602   21.0279 C   0  0  0  0  0  0  0  0  0105  0  0
  -25.2633  -13.8245   20.5754 C   0  0  0  0  0  0  0  0  0106  0  0
  -24.1645  -13.0409   20.9408 C   0  0  0  0  0  0  0  0  0107  0  0
  -24.6400  -11.7009   20.8697 C   0  0  0  0  0  0  0  0  0108  0  0
  -23.9005  -10.4085   21.0420 C   0  0  0  0  0  0  0  0  0109  0  0
  -24.3588   -9.4123   21.9123 C   0  0  0  0  0  0  0  0  0110  0  0
  -23.6296   -8.2350   22.0803 C   0  0  0  0  0  0  0  0  0111  0  0
  -22.4385   -8.0419   21.3657 C   0  0  0  0  0  0  0  0  0112  0  0
  -22.0103   -9.0167   20.4678 C   0  0  0  0  0  0  0  0  0113  0  0
  -22.7317  -10.1925   20.3102 C   0  0  0  0  0  0  0  0  0114  0  0
  -21.6857   -6.0709   22.5391 C   0  0  0  0  0  0  0  0  0115  0  0
  -21.4064   -6.5490   23.8264 C   0  0  0  0  0  0  0  0  0116  0  0
  -21.3635   -5.6677   24.9085 C   0  0  0  0  0  0  0  0  0117  0  0
  -21.5973   -4.3067   24.7088 C   0  0  0  0  0  0  0  0  0118  0  0
  -21.8700   -3.8284   23.4282 C   0  0  0  0  0  0  0  0  0119  0  0
  -21.9144   -4.7056   22.3460 C   0  0  0  0  0  0  0  0  0120  0  0
  -22.8194  -13.5263   21.1763 C   0  0  0  0  0  0  0  0  0121  0  0
  -22.1559   -4.2206   21.1063 F   0  0  0  0  0  0  0  0  0122  0  0
  -21.5628   -3.4510   25.7555 F   0  0  0  0  0  0  0  0  0123  0  0
  -30.0261  -13.1803   20.4553 N   0  0  0  0  0  0  0  0  0124  0  0
  -26.2911  -12.9356   20.3443 N   0  0  0  0  0  0  0  0  0125  0  0
  -25.9236  -11.6675   20.5847 N   0  0  0  0  0  0  0  0  0126  0  0
  -22.0708  -12.7905   22.0005 N   0  0  0  0  0  0  0  0  0127  0  0
  -25.4117  -15.1773   20.4097 N   0  0  0  0  0  0  0  0  0128  0  0
  -31.7916  -14.6724   20.0536 O   0  0  0  0  0  0  0  0  0129  0  0
  -21.6670   -6.9022   21.4423 O   0  0  0  0  0  0  0  0  0130  0  0
  -22.3946  -14.5564   20.6568 O   0  0  0  0  0  0  0  0  0131  0  0
  -24.6048  -31.8614   23.2223 C   0  0  0  0  0  0  0  0  0100  0  0
  -25.8822  -32.4841   23.8616 C   0  0  1  0  0  0  0  0  0101  0  0
  -27.2536  -27.5042   20.1156 C   0  0  0  0  0  0  0  0  0102  0  0
  -25.5726  -33.8762   24.2210 N   0  0  0  0  0  0  0  0  0103  0  0
  -23.4066  -30.4859   21.5461 C   0  0  2  0  0  0  0  0  0104  0  0
  -24.8467  -28.9636   20.1247 C   0  0  0  0  0  0  0  0  0105  0  0
  -22.7412  -29.4652   22.5052 C   0  0  0  0  0  0  0  0  0106  0  0
  -18.0167  -28.1302   22.8626 C   0  0  0  0  0  0  0  0  0107  0  0
  -24.1342  -36.7390   23.2568 C   0  0  0  0  0  0  0  0  0108  0  0
  -25.9141  -30.8882   21.3456 C   0  0  0  0  0  0  0  0  0109  0  0
  -25.9930  -29.5029   20.7208 C   0  0  0  0  0  0  0  0  0110  0  0
  -27.1758  -28.7612   20.7331 C   0  0  0  0  0  0  0  0  0111  0  0
  -26.1032  -26.9836   19.5230 C   0  0  0  0  0  0  0  0  0112  0  0
  -24.9097  -27.7011   19.5331 C   0  0  0  0  0  0  0  0  0113  0  0
  -23.5715  -29.7899   20.1582 C   0  0  0  0  0  0  0  0  0114  0  0
  -25.3990  -36.3212   24.0232 C   0  0  1  0  0  0  0  0  0115  0  0
  -20.5793  -28.3813   23.1004 C   0  0  2  0  0  0  0  0  0116  0  0
  -20.6548  -26.9392   22.5411 C   0  0  0  0  0  0  0  0  0117  0  0
  -19.5615  -26.6407   21.5143 C   0  0  0  0  0  0  0  0  0118  0  0
  -18.1797  -26.7818   22.1673 C   0  0  0  0  0  0  0  0  0119  0  0
  -19.1385  -28.8769   23.2988 C   0  0  0  0  0  0  0  0  0120  0  0
  -18.9183  -30.1286   23.8878 C   0  0  0  0  0  0  0  0  0121  0  0
  -17.6396  -30.6493   24.0352 C   0  0  0  0  0  0  0  0  0122  0  0
  -25.9153  -34.9582   23.4993 C   0  0  0  0  0  0  0  0  0123  0  0
  -16.5415  -29.9068   23.6254 C   0  0  0  0  0  0  0  0  0124  0  0
  -16.7331  -28.6521   23.0586 C   0  0  0  0  0  0  0  0  0125  0  0
  -26.4583  -31.6439   25.0683 C   0  0  0  0  0  0  0  0  0126  0  0
  -25.3807  -31.3179   26.1374 C   0  0  0  0  0  0  0  0  0127  0  0
  -27.0530  -30.3024   24.5680 C   0  0  0  0  0  0  0  0  0128  0  0
  -27.6014  -32.4281   25.7651 C   0  0  0  0  0  0  0  0  0129  0  0
  -27.5629  -37.2220   24.8621 C   0  0  0  0  0  0  0  0  0130  0  0
  -21.4133  -29.3375   22.3735 N   0  0  0  0  0  0  0  0  0131  0  0
  -26.4706  -37.3372   23.9061 N   0  0  0  0  0  0  0  0  0132  0  0
  -24.6674  -31.0544   22.1178 N   0  0  0  0  0  0  0  0  0133  0  0
  -23.4259  -28.8150   23.2971 O   0  0  0  0  0  0  0  0  0134  0  0
  -28.3948  -26.7345   20.0089 O   0  0  0  0  0  0  0  0  0135  0  0
  -26.5870  -34.9065   22.4671 O   0  0  0  0  0  0  0  0  0136  0  0
  -23.5365  -32.1254   23.7833 O   0  0  0  0  0  0  0  0  0137  0  0
  -20.3877  -25.0851   24.1707 C   0  0  0  0  0  0  0  0  0  0  0  0
  -19.1675  -25.6668   23.8265 C   0  0  0  0  0  0  0  0  0  0  0  0
  -21.2022  -25.4668   21.9284 C   0  0  0  0  0  0  0  0  0  0  0  0
  -21.4050  -24.9852   23.2216 C   0  0  0  0  0  0  0  0  0  0  0  0
  -18.9646  -26.1484   22.5332 C   0  0  0  0  0  0  0  0  0  0  0  0
  -19.9820  -26.0484   21.5841 C   0  0  0  0  0  0  0  0  0  0  0  0
  -17.3572  -28.0279   23.0202 C   0  0  0  0  0  0  0  0  0  0  0  0
  -16.4818  -25.7710   22.3166 C   0  0  0  0  0  0  0  0  0  0  0  0
  -19.9857  -28.4961   18.5755 C   0  0  0  0  0  0  0  0  0  0  0  0
  -22.7251  -24.3552   23.5942 C   0  0  0  0  0  0  0  0  0  0  0  0
  -19.7874  -26.5568   20.1933 C   0  0  0  0  0  0  0  0  0  0  0  0
  -22.7409  -22.8511   23.3444 C   0  0  0  0  0  0  0  0  0  1  0  0
  -17.6495  -26.7661   22.1877 C   0  0  0  0  0  0  0  0  0  0  0  0
  -20.1993  -28.0333   20.0132 C   0  0  1  0  0  0  0  0  0  0  0  0
  -21.5803  -28.2380   20.3899 N   0  0  0  0  0  0  0  0  0  0  0  0
  -31.4485  -12.4701   19.0860 H   0  0  0  0  0  0  0  0  0  0  0  0
  -30.3970  -11.2460   19.6950 H   0  0  0  0  0  0  0  0  0  0  0  0
  -29.6870  -11.8204   17.4226 H   0  0  0  0  0  0  0  0  0  0  0  0
  -29.6375  -13.5326   17.8649 H   0  0  0  0  0  0  0  0  0  0  0  0
  -27.7830  -11.3650   18.7904 H   0  0  0  0  0  0  0  0  0  0  0  0
  -27.4028  -12.7801   17.8021 H   0  0  0  0  0  0  0  0  0  0  0  0
  -27.7353  -14.2503   19.6136 H   0  0  0  0  0  0  0  0  0  0  0  0
  -28.5890  -11.9550   21.3832 H   0  0  0  0  0  0  0  0  0  0  0  0
  -28.5005  -13.6134   21.8562 H   0  0  0  0  0  0  0  0  0  0  0  0
  -25.2399   -9.5495   22.4318 H   0  0  0  0  0  0  0  0  0  0  0  0
  -23.9663   -7.5070   22.7297 H   0  0  0  0  0  0  0  0  0  0  0  0
  -21.1515   -8.8641   19.9162 H   0  0  0  0  0  0  0  0  0  0  0  0
  -22.4016  -10.9115   19.6476 H   0  0  0  0  0  0  0  0  0  0  0  0
  -21.2319   -7.5552   23.9750 H   0  0  0  0  0  0  0  0  0  0  0  0
  -21.1589   -6.0228   25.8556 H   0  0  0  0  0  0  0  0  0  0  0  0
  -22.0396   -2.8212   23.2809 H   0  0  0  0  0  0  0  0  0  0  0  0
  -22.4401  -11.9703   22.4008 H   0  0  0  0  0  0  0  0  0  0  0  0
  -21.1493  -13.0679   22.2082 H   0  0  0  0  0  0  0  0  0  0  0  0
  -24.6538  -15.7807   20.5848 H   0  0  0  0  0  0  0  0  0  0  0  0
  -26.2762  -15.5453   20.1156 H   0  0  0  0  0  0  0  0  0  0  0  0
  -26.6778  -32.4663   23.1464 H   0  0  0  0  0  0  0  0  0  0  0  0
  -25.0747  -34.0282   25.0566 H   0  0  0  0  0  0  0  0  0  0  0  0
  -22.7881  -31.3489   21.4131 H   0  0  0  0  0  0  0  0  0  0  0  0
  -23.3854  -35.9823   23.3648 H   0  0  0  0  0  0  0  0  0  0  0  0
  -24.3696  -36.8624   22.2204 H   0  0  0  0  0  0  0  0  0  0  0  0
  -23.7669  -37.6632   23.6516 H   0  0  0  0  0  0  0  0  0  0  0  0
  -25.9445  -31.6237   20.5691 H   0  0  0  0  0  0  0  0  0  0  0  0
  -26.7436  -31.0079   22.0108 H   0  0  0  0  0  0  0  0  0  0  0  0
  -28.0090  -29.1452   21.2057 H   0  0  0  0  0  0  0  0  0  0  0  0
  -26.1369  -26.0560   19.0719 H   0  0  0  0  0  0  0  0  0  0  0  0
  -24.0652  -27.2961   19.0997 H   0  0  0  0  0  0  0  0  0  0  0  0
  -23.6156  -30.5365   19.3930 H   0  0  0  0  0  0  0  0  0  0  0  0
  -22.7355  -29.1425   19.9945 H   0  0  0  0  0  0  0  0  0  0  0  0
  -25.1353  -36.2335   25.0565 H   0  0  0  0  0  0  0  0  0  0  0  0
  -21.0070  -28.3206   24.0793 H   0  0  0  0  0  0  0  0  0  0  0  0
  -20.5555  -26.2518   23.3550 H   0  0  0  0  0  0  0  0  0  0  0  0
  -21.5974  -26.8362   22.0454 H   0  0  0  0  0  0  0  0  0  0  0  0
  -19.6810  -25.6422   21.1488 H   0  0  0  0  0  0  0  0  0  0  0  0
  -19.6406  -27.3343   20.7034 H   0  0  0  0  0  0  0  0  0  0  0  0
  -17.4282  -26.6888   21.4113 H   0  0  0  0  0  0  0  0  0  0  0  0
  -18.0803  -26.0130   22.9049 H   0  0  0  0  0  0  0  0  0  0  0  0
  -19.7265  -30.6774   24.2204 H   0  0  0  0  0  0  0  0  0  0  0  0
  -17.5064  -31.5856   24.4483 H   0  0  0  0  0  0  0  0  0  0  0  0
  -15.5878  -30.2839   23.7407 H   0  0  0  0  0  0  0  0  0  0  0  0
  -15.9120  -28.0941   22.7766 H   0  0  0  0  0  0  0  0  0  0  0  0
  -24.5787  -30.7757   25.6817 H   0  0  0  0  0  0  0  0  0  0  0  0
  -25.0041  -32.2289   26.5536 H   0  0  0  0  0  0  0  0  0  0  0  0
  -25.8166  -30.7245   26.9138 H   0  0  0  0  0  0  0  0  0  0  0  0
  -26.2892  -29.7335   24.0803 H   0  0  0  0  0  0  0  0  0  0  0  0
  -27.4336  -29.7484   25.4006 H   0  0  0  0  0  0  0  0  0  0  0  0
  -27.8466  -30.4994   23.8779 H   0  0  0  0  0  0  0  0  0  0  0  0
  -27.2251  -33.3632   26.1242 H   0  0  0  0  0  0  0  0  0  0  0  0
  -28.3902  -32.6065   25.0645 H   0  0  0  0  0  0  0  0  0  0  0  0
  -27.9772  -31.8555   26.5872 H   0  0  0  0  0  0  0  0  0  0  0  0
  -28.2744  -38.0016   24.6863 H   0  0  0  0  0  0  0  0  0  0  0  0
  -28.0396  -36.2711   24.7461 H   0  0  0  0  0  0  0  0  0  0  0  0
  -27.1773  -37.3087   25.8564 H   0  0  0  0  0  0  0  0  0  0  0  0
  -20.9627  -29.9365   21.7352 H   0  0  0  0  0  0  0  0  0  0  0  0
  -26.0447  -38.2561   24.0273 H   0  0  0  0  0  0  0  0  0  0  0  0
  -20.5378  -24.7287   25.1275 H   0  0  0  0  0  0  0  0  0  0  0  0
  -18.4149  -25.7409   24.5287 H   0  0  0  0  0  0  0  0  0  0  0  0
  -21.9549  -25.3928   21.2263 H   0  0  0  0  0  0  0  0  0  0  0  0
  -18.1726  -28.7143   22.9257 H   0  0  0  0  0  0  0  0  0  0  0  0
  -17.2364  -27.7569   24.0482 H   0  0  0  0  0  0  0  0  0  0  0  0
  -16.4595  -28.4894   22.6652 H   0  0  0  0  0  0  0  0  0  0  0  0
  -16.6920  -24.8973   21.7358 H   0  0  0  0  0  0  0  0  0  0  0  0
  -15.5825  -26.2283   21.9603 H   0  0  0  0  0  0  0  0  0  0  0  0
  -16.3594  -25.4958   23.3433 H   0  0  0  0  0  0  0  0  0  0  0  0
  -18.9632  -28.3434   18.2998 H   0  0  0  0  0  0  0  0  0  0  0  0
  -20.6192  -27.9336   17.9219 H   0  0  0  0  0  0  0  0  0  0  0  0
  -20.2250  -29.5360   18.4963 H   0  0  0  0  0  0  0  0  0  0  0  0
  -22.9101  -24.5332   24.6329 H   0  0  0  0  0  0  0  0  0  0  0  0
  -23.4825  -24.7964   22.9805 H   0  0  0  0  0  0  0  0  0  0  0  0
  -18.7524  -26.4607   19.9395 H   0  0  0  0  0  0  0  0  0  0  0  0
  -20.4181  -25.9744   19.5546 H   0  0  0  0  0  0  0  0  0  0  0  0
  -21.9769  -22.4161   22.7345 H   0  0  0  0  0  0  0  0  0  0  0  0
  -22.7278  -22.0052   23.9996 H   0  0  0  0  0  0  0  0  0  0  0  0
  -17.7308  -27.0547   21.1606 H   0  0  0  0  0  0  0  0  0  0  0  0
  -19.5747  -28.6163   20.6573 H   0  0  0  0  0  0  0  0  0  0  0  0
  -21.9467  -29.1244   20.6117 H   0  0  0  0  0  0  0  0  0  0  0  0
  1 25  1  0
  1 30  2  0
  1 85  1  0
  2  3  1  0
  2 25  1  0
  2 86  1  0
  2 87  1  0
  3  4  1  0
  3 88  1  0
  3 89  1  0
  4  5  1  0
  4 90  1  0
  4 91  1  0
  5  6  1  0
  5 26  1  0
  5 92  1  6
  6 25  1  0
  6 93  1  0
  6 94  1  0
  7  8  2  0
  7 26  1  0
  7 29  1  0
  8  9  1  0
  8 22  1  0
  9 10  1  0
  9 27  2  0
 10 11  2  0
 10 15  1  0
 11 12  1  0
 11 95  1  0
 12 13  2  0
 12 96  1  0
 13 14  1  0
 13 31  1  0
 14 15  2  0
 14 97  1  0
 15 98  1  0
 16 17  2  0
 16 21  1  0
 16 31  1  0
 17 18  1  0
 17 99  1  0
 18 19  2  0
 18100  1  0
 19 20  1  0
 19 24  1  0
 20 21  2  0
 20101  1  0
 21 23  1  0
 22 28  1  0
 22 32  2  0
 26 27  1  0
 28102  1  0
 28103  1  0
 29104  1  0
 29105  1  0
 33 34  1  0
 33 66  1  0
 33 70  2  0
 34 36  1  0
 34 59  1  0
 34106  1  6
 35 44  2  0
 35 45  1  0
 35 68  1  0
 36 56  1  0
 36107  1  0
 37 39  1  0
 37 47  1  0
 37 66  1  0
 37108  1  6
 38 43  2  0
 38 46  1  0
 38 47  1  0
 39 64  1  0
 39 67  2  0
 40 52  1  0
 40 53  2  0
 40 58  1  0
 41109  1  0
 41110  1  0
 41111  1  0
 42 43  1  0
 42 66  1  0
 42112  1  0
 42113  1  0
 43 44  1  0
 44114  1  0
 45 46  2  0
 45115  1  0
 46116  1  0
 47117  1  0
 47118  1  0
 48 41  1  0
 48 56  1  0
 48 65  1  0
 48119  1  1
 49 50  1  0
 49 53  1  0
 49 64  1  0
 49120  1  1
 50 51  1  0
 50121  1  0
 50122  1  0
 51 52  1  0
 51123  1  0
 51124  1  0
 52125  1  0
 52126  1  0
 53 54  1  0
 54 55  2  0
 54127  1  0
 55 57  1  0
 55128  1  0
 56 69  2  0
 57 58  2  0
 57129  1  0
 58130  1  0
 59 60  1  0
 59 61  1  0
 59 62  1  0
 60131  1  0
 60132  1  0
 60133  1  0
 61134  1  0
 61135  1  0
 61136  1  0
 62137  1  0
 62138  1  0
 62139  1  0
 63 65  1  0
 63140  1  0
 63141  1  0
 63142  1  0
 64143  1  0
 65144  1  0
 68 82  1  0
 71 72  2  0
 71 74  1  0
 71145  1  0
 72 75  1  0
 72146  1  0
 73 74  2  0
 73 76  1  0
 73147  1  0
 74 80  1  0
 75 76  2  0
 75 83  1  0
 76 81  1  0
 77148  1  0
 77149  1  0
 77150  1  0
 78 83  1  0
 78151  1  0
 78152  1  0
 78153  1  0
 79154  1  0
 79155  1  0
 79156  1  0
 80 82  1  0
 80157  1  0
 80158  1  0
 81 84  1  0
 81159  1  0
 81160  1  0
 82161  1  0
 82162  1  0
 83 77  1  0
 83163  1  0
 84 79  1  0
 84 85  1  0
 84164  1  1
 85165  1  0
M  ISO  4   1 100  68 101  82 101  85 100
M  END
$$$$
82
     RDKit          3D

183191  0  0  0  0  0  0  0  0999 V2000
  -30.7652  -14.3608   20.6636 C   0  0  0  0  0  0  0  0  0100  0  0
  -30.4392  -12.2669   19.3775 C   0  0  0  0  0  0  0  0  0101  0  0
  -29.4791  -12.5281   18.1977 C   0  0  0  0  0  0  0  0  0102  0  0
  -27.9985  -12.3963   18.6038 C   0  0  0  0  0  0  0  0  0103  0  0
  -27.6639  -13.2170   19.8820 C   0  0  2  0  0  0  0  0  0104  0  0
  -28.6795  -12.9602   21.0279 C   0  0  0  0  0  0  0  0  0105  0  0
  -25.2633  -13.8245   20.5754 C   0  0  0  0  0  0  0  0  0106  0  0
  -24.1645  -13.0409   20.9408 C   0  0  0  0  0  0  0  0  0107  0  0
  -24.6400  -11.7009   20.8697 C   0  0  0  0  0  0  0  0  0108  0  0
  -23.9005  -10.4085   21.0420 C   0  0  0  0  0  0  0  0  0109  0  0
  -24.3588   -9.4123   21.9123 C   0  0  0  0  0  0  0  0  0110  0  0
  -23.6296   -8.2350   22.0803 C   0  0  0  0  0  0  0  0  0111  0  0
  -22.4385   -8.0419   21.3657 C   0  0  0  0  0  0  0  0  0112  0  0
  -22.0103   -9.0167   20.4678 C   0  0  0  0  0  0  0  0  0113  0  0
  -22.7317  -10.1925   20.3102 C   0  0  0  0  0  0  0  0  0114  0  0
  -21.6857   -6.0709   22.5391 C   0  0  0  0  0  0  0  0  0115  0  0
  -21.4064   -6.5490   23.8264 C   0  0  0  0  0  0  0  0  0116  0  0
  -21.3635   -5.6677   24.9085 C   0  0  0  0  0  0  0  0  0117  0  0
  -21.5973   -4.3067   24.7088 C   0  0  0  0  0  0  0  0  0118  0  0
  -21.8700   -3.8284   23.4282 C   0  0  0  0  0  0  0  0  0119  0  0
  -21.9144   -4.7056   22.3460 C   0  0  0  0  0  0  0  0  0120  0  0
  -22.8194  -13.5263   21.1763 C   0  0  0  0  0  0  0  0  0121  0  0
  -22.1559   -4.2206   21.1063 F   0  0  0  0  0  0  0  0  0122  0  0
  -21.5628   -3.4510   25.7555 F   0  0  0  0  0  0  0  0  0123  0  0
  -30.0261  -13.1803   20.4553 N   0  0  0  0  0  0  0  0  0124  0  0
  -26.2911  -12.9356   20.3443 N   0  0  0  0  0  0  0  0  0125  0  0
  -25.9236  -11.6675   20.5847 N   0  0  0  0  0  0  0  0  0126  0  0
  -22.0708  -12.7905   22.0005 N   0  0  0  0  0  0  0  0  0127  0  0
  -25.4117  -15.1773   20.4097 N   0  0  0  0  0  0  0  0  0128  0  0
  -31.7916  -14.6724   20.0536 O   0  0  0  0  0  0  0  0  0129  0  0
  -21.6670   -6.9022   21.4423 O   0  0  0  0  0  0  0  0  0130  0  0
  -22.3946  -14.5564   20.6568 O   0  0  0  0  0  0  0  0  0131  0  0
  -24.6048  -31.8614   23.2223 C   0  0  0  0  0  0  0  0  0100  0  0
  -25.8822  -32.4841   23.8616 C   0  0  1  0  0  0  0  0  0101  0  0
  -27.2536  -27.5042   20.1156 C   0  0  0  0  0  0  0  0  0102  0  0
  -25.5726  -33.8762   24.2210 N   0  0  0  0  0  0  0  0  0103  0  0
  -23.4066  -30.4859   21.5461 C   0  0  2  0  0  0  0  0  0104  0  0
  -24.8467  -28.9636   20.1247 C   0  0  0  0  0  0  0  0  0105  0  0
  -22.7412  -29.4652   22.5052 C   0  0  0  0  0  0  0  0  0106  0  0
  -18.0167  -28.1302   22.8626 C   0  0  0  0  0  0  0  0  0107  0  0
  -24.1342  -36.7390   23.2568 C   0  0  0  0  0  0  0  0  0108  0  0
  -25.9141  -30.8882   21.3456 C   0  0  0  0  0  0  0  0  0109  0  0
  -25.9930  -29.5029   20.7208 C   0  0  0  0  0  0  0  0  0110  0  0
  -27.1758  -28.7612   20.7331 C   0  0  0  0  0  0  0  0  0111  0  0
  -26.1032  -26.9836   19.5230 C   0  0  0  0  0  0  0  0  0112  0  0
  -24.9097  -27.7011   19.5331 C   0  0  0  0  0  0  0  0  0113  0  0
  -23.5715  -29.7899   20.1582 C   0  0  0  0  0  0  0  0  0114  0  0
  -25.3990  -36.3212   24.0232 C   0  0  1  0  0  0  0  0  0115  0  0
  -20.5793  -28.3813   23.1004 C   0  0  2  0  0  0  0  0  0116  0  0
  -20.6548  -26.9392   22.5411 C   0  0  0  0  0  0  0  0  0117  0  0
  -19.5615  -26.6407   21.5143 C   0  0  0  0  0  0  0  0  0118  0  0
  -18.1797  -26.7818   22.1673 C   0  0  0  0  0  0  0  0  0119  0  0
  -19.1385  -28.8769   23.2988 C   0  0  0  0  0  0  0  0  0120  0  0
  -18.9183  -30.1286   23.8878 C   0  0  0  0  0  0  0  0  0121  0  0
  -17.6396  -30.6493   24.0352 C   0  0  0  0  0  0  0  0  0122  0  0
  -25.9153  -34.9582   23.4993 C   0  0  0  0  0  0  0  0  0123  0  0
  -16.5415  -29.9068   23.6254 C   0  0  0  0  0  0  0  0  0124  0  0
  -16.7331  -28.6521   23.0586 C   0  0  0  0  0  0  0  0  0125  0  0
  -26.4583  -31.6439   25.0683 C   0  0  0  0  0  0  0  0  0126  0  0
  -25.3807  -31.3179   26.1374 C   0  0  0  0  0  0  0  0  0127  0  0
  -27.0530  -30.3024   24.5680 C   0  0  0  0  0  0  0  0  0128  0  0
  -27.6014  -32.4281   25.7651 C   0  0  0  0  0  0  0  0  0129  0  0
  -27.5629  -37.2220   24.8621 C   0  0  0  0  0  0  0  0  0130  0  0
  -21.4133  -29.3375   22.3735 N   0  0  0  0  0  0  0  0  0131  0  0
  -26.4706  -37.3372   23.9061 N   0  0  0  0  0  0  0  0  0132  0  0
  -24.6674  -31.0544   22.1178 N   0  0  0  0  0  0  0  0  0133  0  0
  -23.4259  -28.8150   23.2971 O   0  0  0  0  0  0  0  0  0134  0  0
  -28.3948  -26.7345   20.0089 O   0  0  0  0  0  0  0  0  0135  0  0
  -26.5870  -34.9065   22.4671 O   0  0  0  0  0  0  0  0  0136  0  0
  -23.5365  -32.1254   23.7833 O   0  0  0  0  0  0  0  0  0137  0  0
  -32.6662  -20.9111   21.5536 C   0  0  0  0  0  0  0  0  0  0  0  0
  -31.4227  -21.4002   22.0243 C   0  0  0  0  0  0  0  0  0  0  0  0
  -32.4534  -19.6359   21.0784 C   0  0  0  0  0  0  0  0  0  0  0  0
  -30.4878  -20.4088   21.8226 C   0  0  0  0  0  0  0  0  0  0  0  0
  -33.4052  -18.6779   20.4790 C   0  0  0  0  0  0  0  0  0  0  0  0
  -32.2975  -21.2899   26.4091 C   0  0  0  0  0  0  0  0  0  0  0  0
  -31.3899  -23.3973   27.4081 C   0  0  0  0  0  0  0  0  0  0  0  0
  -27.3801  -17.1071   24.1776 C   0  0  0  0  0  0  0  0  0  0  0  0
  -29.0118  -20.3933   22.1375 C   0  0  0  0  0  0  0  0  0  0  0  0
  -29.7914  -21.5531   26.8120 C   0  0  0  0  0  0  0  0  0  0  0  0
  -30.4937  -18.0928   20.8749 C   0  0  0  0  0  0  0  0  0  0  0  0
  -30.7555  -16.9699   21.8753 C   0  0  0  0  0  0  0  0  0  0  0  0
  -29.3461  -20.4208   25.8920 C   0  0  0  0  0  0  0  0  0  0  0  0
  -26.2088  -20.4667   23.1804 C   0  0  0  0  0  0  0  0  0  1  0  0
  -31.1103  -22.2532   26.4292 C   0  0  0  0  0  0  0  0  0  0  0  0
  -27.2091  -19.4685   23.7836 C   0  0  2  0  0  0  0  0  0  0  0  0
  -28.6899  -19.8632   23.5474 C   0  0  2  0  0  0  0  0  0  0  0  0
  -31.1257  -19.3410   21.2473 N   0  0  0  0  0  0  0  0  0  0  0  0
  -30.0950  -15.7381   21.5048 N   0  0  0  0  0  0  0  0  0  0  0  0
  -26.9007  -18.1332   23.2662 N   0  0  0  0  0  0  0  0  0  0  0  0
  -29.0898  -20.9269   24.5219 N   0  0  0  0  0  0  0  0  0  0  0  0
  -31.4485  -12.4701   19.0860 H   0  0  0  0  0  0  0  0  0  0  0  0
  -30.3970  -11.2460   19.6950 H   0  0  0  0  0  0  0  0  0  0  0  0
  -29.6870  -11.8204   17.4226 H   0  0  0  0  0  0  0  0  0  0  0  0
  -29.6375  -13.5326   17.8649 H   0  0  0  0  0  0  0  0  0  0  0  0
  -27.7830  -11.3650   18.7904 H   0  0  0  0  0  0  0  0  0  0  0  0
  -27.4028  -12.7801   17.8021 H   0  0  0  0  0  0  0  0  0  0  0  0
  -27.7353  -14.2503   19.6136 H   0  0  0  0  0  0  0  0  0  0  0  0
  -28.5890  -11.9550   21.3832 H   0  0  0  0  0  0  0  0  0  0  0  0
  -28.5005  -13.6134   21.8562 H   0  0  0  0  0  0  0  0  0  0  0  0
  -25.2399   -9.5495   22.4318 H   0  0  0  0  0  0  0  0  0  0  0  0
  -23.9663   -7.5070   22.7297 H   0  0  0  0  0  0  0  0  0  0  0  0
  -21.1515   -8.8641   19.9162 H   0  0  0  0  0  0  0  0  0  0  0  0
  -22.4016  -10.9115   19.6476 H   0  0  0  0  0  0  0  0  0  0  0  0
  -21.2319   -7.5552   23.9750 H   0  0  0  0  0  0  0  0  0  0  0  0
  -21.1589   -6.0228   25.8556 H   0  0  0  0  0  0  0  0  0  0  0  0
  -22.0396   -2.8212   23.2809 H   0  0  0  0  0  0  0  0  0  0  0  0
  -22.4401  -11.9703   22.4008 H   0  0  0  0  0  0  0  0  0  0  0  0
  -21.1493  -13.0679   22.2082 H   0  0  0  0  0  0  0  0  0  0  0  0
  -24.6538  -15.7807   20.5848 H   0  0  0  0  0  0  0  0  0  0  0  0
  -26.2762  -15.5453   20.1156 H   0  0  0  0  0  0  0  0  0  0  0  0
  -26.6778  -32.4663   23.1464 H   0  0  0  0  0  0  0  0  0  0  0  0
  -25.0747  -34.0282   25.0566 H   0  0  0  0  0  0  0  0  0  0  0  0
  -22.7881  -31.3489   21.4131 H   0  0  0  0  0  0  0  0  0  0  0  0
  -23.3854  -35.9823   23.3648 H   0  0  0  0  0  0  0  0  0  0  0  0
  -24.3696  -36.8624   22.2204 H   0  0  0  0  0  0  0  0  0  0  0  0
  -23.7669  -37.6632   23.6516 H   0  0  0  0  0  0  0  0  0  0  0  0
  -25.9445  -31.6237   20.5691 H   0  0  0  0  0  0  0  0  0  0  0  0
  -26.7436  -31.0079   22.0108 H   0  0  0  0  0  0  0  0  0  0  0  0
  -28.0090  -29.1452   21.2057 H   0  0  0  0  0  0  0  0  0  0  0  0
  -26.1369  -26.0560   19.0719 H   0  0  0  0  0  0  0  0  0  0  0  0
  -24.0652  -27.2961   19.0997 H   0  0  0  0  0  0  0  0  0  0  0  0
  -23.6156  -30.5365   19.3930 H   0  0  0  0  0  0  0  0  0  0  0  0
  -22.7355  -29.1425   19.9945 H   0  0  0  0  0  0  0  0  0  0  0  0
  -25.1353  -36.2335   25.0565 H   0  0  0  0  0  0  0  0  0  0  0  0
  -21.0070  -28.3206   24.0793 H   0  0  0  0  0  0  0  0  0  0  0  0
  -20.5555  -26.2518   23.3550 H   0  0  0  0  0  0  0  0  0  0  0  0
  -21.5974  -26.8362   22.0454 H   0  0  0  0  0  0  0  0  0  0  0  0
  -19.6810  -25.6422   21.1488 H   0  0  0  0  0  0  0  0  0  0  0  0
  -19.6406  -27.3343   20.7034 H   0  0  0  0  0  0  0  0  0  0  0  0
  -17.4282  -26.6888   21.4113 H   0  0  0  0  0  0  0  0  0  0  0  0
  -18.0803  -26.0130   22.9049 H   0  0  0  0  0  0  0  0  0  0  0  0
  -19.7265  -30.6774   24.2204 H   0  0  0  0  0  0  0  0  0  0  0  0
  -17.5064  -31.5856   24.4483 H   0  0  0  0  0  0  0  0  0  0  0  0
  -15.5878  -30.2839   23.7407 H   0  0  0  0  0  0  0  0  0  0  0  0
  -15.9120  -28.0941   22.7766 H   0  0  0  0  0  0  0  0  0  0  0  0
  -24.5787  -30.7757   25.6817 H   0  0  0  0  0  0  0  0  0  0  0  0
  -25.0041  -32.2289   26.5536 H   0  0  0  0  0  0  0  0  0  0  0  0
  -25.8166  -30.7245   26.9138 H   0  0  0  0  0  0  0  0  0  0  0  0
  -26.2892  -29.7335   24.0803 H   0  0  0  0  0  0  0  0  0  0  0  0
  -27.4336  -29.7484   25.4006 H   0  0  0  0  0  0  0  0  0  0  0  0
  -27.8466  -30.4994   23.8779 H   0  0  0  0  0  0  0  0  0  0  0  0
  -27.2251  -33.3632   26.1242 H   0  0  0  0  0  0  0  0  0  0  0  0
  -28.3902  -32.6065   25.0645 H   0  0  0  0  0  0  0  0  0  0  0  0
  -27.9772  -31.8555   26.5872 H   0  0  0  0  0  0  0  0  0  0  0  0
  -28.2744  -38.0016   24.6863 H   0  0  0  0  0  0  0  0  0  0  0  0
  -28.0396  -36.2711   24.7461 H   0  0  0  0  0  0  0  0  0  0  0  0
  -27.1773  -37.3087   25.8564 H   0  0  0  0  0  0  0  0  0  0  0  0
  -20.9627  -29.9365   21.7352 H   0  0  0  0  0  0  0  0  0  0  0  0
  -26.0447  -38.2561   24.0273 H   0  0  0  0  0  0  0  0  0  0  0  0
  -33.5656  -21.4170   21.5647 H   0  0  0  0  0  0  0  0  0  0  0  0
  -31.2493  -22.3281   22.4414 H   0  0  0  0  0  0  0  0  0  0  0  0
  -34.3803  -19.1172   20.4461 H   0  0  0  0  0  0  0  0  0  0  0  0
  -33.0895  -18.4356   19.4858 H   0  0  0  0  0  0  0  0  0  0  0  0
  -33.4351  -17.7871   21.0711 H   0  0  0  0  0  0  0  0  0  0  0  0
  -33.1849  -21.8231   26.1389 H   0  0  0  0  0  0  0  0  0  0  0  0
  -32.1157  -20.5146   25.6944 H   0  0  0  0  0  0  0  0  0  0  0  0
  -32.4227  -20.8578   27.3799 H   0  0  0  0  0  0  0  0  0  0  0  0
  -32.3058  -23.8808   27.1394 H   0  0  0  0  0  0  0  0  0  0  0  0
  -31.4711  -23.0057   28.4006 H   0  0  0  0  0  0  0  0  0  0  0  0
  -30.5881  -24.1047   27.3683 H   0  0  0  0  0  0  0  0  0  0  0  0
  -27.1454  -16.1409   23.7822 H   0  0  0  0  0  0  0  0  0  0  0  0
  -26.9076  -17.2270   25.1301 H   0  0  0  0  0  0  0  0  0  0  0  0
  -28.4401  -17.1981   24.2914 H   0  0  0  0  0  0  0  0  0  0  0  0
  -28.5191  -19.7701   21.4207 H   0  0  0  0  0  0  0  0  0  0  0  0
  -28.6706  -21.4066   22.0968 H   0  0  0  0  0  0  0  0  0  0  0  0
  -29.9083  -21.1492   27.7959 H   0  0  0  0  0  0  0  0  0  0  0  0
  -29.0326  -22.3036   26.7352 H   0  0  0  0  0  0  0  0  0  0  0  0
  -29.4376  -18.2516   20.8093 H   0  0  0  0  0  0  0  0  0  0  0  0
  -30.9111  -17.7899   19.9374 H   0  0  0  0  0  0  0  0  0  0  0  0
  -30.3987  -17.2757   22.8366 H   0  0  0  0  0  0  0  0  0  0  0  0
  -31.8092  -16.7842   21.8897 H   0  0  0  0  0  0  0  0  0  0  0  0
  -28.4483  -19.9863   26.2794 H   0  0  0  0  0  0  0  0  0  0  0  0
  -30.1247  -19.6882   25.8474 H   0  0  0  0  0  0  0  0  0  0  0  0
  -25.5491  -20.7470   23.9748 H   0  0  0  0  0  0  0  0  0  0  0  0
  -25.8172  -19.9185   22.3491 H   0  0  0  0  0  0  0  0  0  0  0  0
  -30.9929  -22.6358   25.4369 H   0  0  0  0  0  0  0  0  0  0  0  0
  -27.0984  -19.4772   24.8478 H   0  0  0  0  0  0  0  0  0  0  0  0
  -29.2354  -18.9516   23.6751 H   0  0  0  0  0  0  0  0  0  0  0  0
  -29.1466  -15.6662   21.7589 H   0  0  0  0  0  0  0  0  0  0  0  0
  -25.8906  -18.0405   23.1587 H   0  0  0  0  0  0  0  0  0  0  0  0
  -29.9411  -21.3724   24.1796 H   0  0  0  0  0  0  0  0  0  0  0  0
  -28.3069  -21.5773   24.5881 H   0  0  0  0  0  0  0  0  0  0  0  0
  1 25  1  0
  1 30  2  0
  1 89  1  0
  2  3  1  0
  2 25  1  0
  2 92  1  0
  2 93  1  0
  3  4  1  0
  3 94  1  0
  3 95  1  0
  4  5  1  0
  4 96  1  0
  4 97  1  0
  5  6  1  0
  5 26  1  0
  5 98  1  6
  6 25  1  0
  6 99  1  0
  6100  1  0
  7  8  2  0
  7 26  1  0
  7 29  1  0
  8  9  1  0
  8 22  1  0
  9 10  1  0
  9 27  2  0
 10 11  2  0
 10 15  1  0
 11 12  1  0
 11101  1  0
 12 13  2  0
 12102  1  0
 13 14  1  0
 13 31  1  0
 14 15  2  0
 14103  1  0
 15104  1  0
 16 17  2  0
 16 21  1  0
 16 31  1  0
 17 18  1  0
 17105  1  0
 18 19  2  0
 18106  1  0
 19 20  1  0
 19 24  1  0
 20 21  2  0
 20107  1  0
 21 23  1  0
 22 28  1  0
 22 32  2  0
 26 27  1  0
 28108  1  0
 28109  1  0
 29110  1  0
 29111  1  0
 33 34  1  0
 33 66  1  0
 33 70  2  0
 34 36  1  0
 34 59  1  0
 34112  1  6
 35 44  2  0
 35 45  1  0
 35 68  1  0
 36 56  1  0
 36113  1  0
 37 39  1  0
 37 47  1  0
 37 66  1  0
 37114  1  6
 38 43  2  0
 38 46  1  0
 38 47  1  0
 39 64  1  0
 39 67  2  0
 40 52  1  0
 40 53  2  0
 40 58  1  0
 41115  1  0
 41116  1  0
 41117  1  0
 42 43  1  0
 42 66  1  0
 42118  1  0
 42119  1  0
 43 44  1  0
 44120  1  0
 45 46  2  0
 45121  1  0
 46122  1  0
 47123  1  0
 47124  1  0
 48 41  1  0
 48 56  1  0
 48 65  1  0
 48125  1  1
 49 50  1  0
 49 53  1  0
 49 64  1  0
 49126  1  1
 50 51  1  0
 50127  1  0
 50128  1  0
 51 52  1  0
 51129  1  0
 51130  1  0
 52131  1  0
 52132  1  0
 53 54  1  0
 54 55  2  0
 54133  1  0
 55 57  1  0
 55134  1  0
 56 69  2  0
 57 58  2  0
 57135  1  0
 58136  1  0
 59 60  1  0
 59 61  1  0
 59 62  1  0
 60137  1  0
 60138  1  0
 60139  1  0
 61140  1  0
 61141  1  0
 61142  1  0
 62143  1  0
 62144  1  0
 62145  1  0
 63 65  1  0
 63146  1  0
 63147  1  0
 63148  1  0
 64149  1  0
 65150  1  0
 68 84  1  0
 71 72  1  0
 71 73  2  0
 71151  1  0
 72 74  2  0
 72152  1  0
 73 75  1  0
 73 88  1  0
 74 79  1  0
 74 88  1  0
 75153  1  0
 75154  1  0
 75155  1  0
 76156  1  0
 76157  1  0
 76158  1  0
 77 85  1  0
 77159  1  0
 77160  1  0
 77161  1  0
 78 90  1  0
 78162  1  0
 78163  1  0
 78164  1  0
 79165  1  0
 79166  1  0
 80 83  1  0
 80 85  1  0
 80167  1  0
 80168  1  0
 81 82  1  0
 81 88  1  0
 81169  1  0
 81170  1  0
 82 89  1  0
 82171  1  0
 82172  1  0
 83 91  1  0
 83173  1  0
 83174  1  0
 84175  1  0
 84176  1  0
 85 76  1  0
 85177  1  0
 86 84  1  0
 86 87  1  0
 86 90  1  0
 86178  1  1
 87 79  1  0
 87 91  1  0
 87179  1  1
 89180  1  0
 90181  1  0
 91182  1  0
 91183  1  0
M  CHG  1  91   1
M  ISO  4   1 100  68 101  84 101  89 100
M  END
$$$$
83
     RDKit          3D

160167  0  0  0  0  0  0  0  0999 V2000
  -30.7652  -14.3608   20.6636 C   0  0  0  0  0  0  0  0  0100  0  0
  -30.4392  -12.2669   19.3775 C   0  0  0  0  0  0  0  0  0101  0  0
  -29.4791  -12.5281   18.1977 C   0  0  0  0  0  0  0  0  0102  0  0
  -27.9985  -12.3963   18.6038 C   0  0  0  0  0  0  0  0  0103  0  0
  -27.6639  -13.2170   19.8820 C   0  0  2  0  0  0  0  0  0104  0  0
  -28.6795  -12.9602   21.0279 C   0  0  0  0  0  0  0  0  0105  0  0
  -25.2633  -13.8245   20.5754 C   0  0  0  0  0  0  0  0  0106  0  0
  -24.1645  -13.0409   20.9408 C   0  0  0  0  0  0  0  0  0107  0  0
  -24.6400  -11.7009   20.8697 C   0  0  0  0  0  0  0  0  0108  0  0
  -23.9005  -10.4085   21.0420 C   0  0  0  0  0  0  0  0  0109  0  0
  -24.3588   -9.4123   21.9123 C   0  0  0  0  0  0  0  0  0110  0  0
  -23.6296   -8.2350   22.0803 C   0  0  0  0  0  0  0  0  0111  0  0
  -22.4385   -8.0419   21.3657 C   0  0  0  0  0  0  0  0  0112  0  0
  -22.0103   -9.0167   20.4678 C   0  0  0  0  0  0  0  0  0113  0  0
  -22.7317  -10.1925   20.3102 C   0  0  0  0  0  0  0  0  0114  0  0
  -21.6857   -6.0709   22.5391 C   0  0  0  0  0  0  0  0  0115  0  0
  -21.4064   -6.5490   23.8264 C   0  0  0  0  0  0  0  0  0116  0  0
  -21.3635   -5.6677   24.9085 C   0  0  0  0  0  0  0  0  0117  0  0
  -21.5973   -4.3067   24.7088 C   0  0  0  0  0  0  0  0  0118  0  0
  -21.8700   -3.8284   23.4282 C   0  0  0  0  0  0  0  0  0119  0  0
  -21.9144   -4.7056   22.3460 C   0  0  0  0  0  0  0  0  0120  0  0
  -22.8194  -13.5263   21.1763 C   0  0  0  0  0  0  0  0  0121  0  0
  -22.1559   -4.2206   21.1063 F   0  0  0  0  0  0  0  0  0122  0  0
  -21.5628   -3.4510   25.7555 F   0  0  0  0  0  0  0  0  0123  0  0
  -30.0261  -13.1803   20.4553 N   0  0  0  0  0  0  0  0  0124  0  0
  -26.2911  -12.9356   20.3443 N   0  0  0  0  0  0  0  0  0125  0  0
  -25.9236  -11.6675   20.5847 N   0  0  0  0  0  0  0  0  0126  0  0
  -22.0708  -12.7905   22.0005 N   0  0  0  0  0  0  0  0  0127  0  0
  -25.4117  -15.1773   20.4097 N   0  0  0  0  0  0  0  0  0128  0  0
  -31.7916  -14.6724   20.0536 O   0  0  0  0  0  0  0  0  0129  0  0
  -21.6670   -6.9022   21.4423 O   0  0  0  0  0  0  0  0  0130  0  0
  -22.3946  -14.5564   20.6568 O   0  0  0  0  0  0  0  0  0131  0  0
  -24.6048  -31.8614   23.2223 C   0  0  0  0  0  0  0  0  0100  0  0
  -25.8822  -32.4841   23.8616 C   0  0  1  0  0  0  0  0  0101  0  0
  -27.2536  -27.5042   20.1156 C   0  0  0  0  0  0  0  0  0102  0  0
  -25.5726  -33.8762   24.2210 N   0  0  0  0  0  0  0  0  0103  0  0
  -23.4066  -30.4859   21.5461 C   0  0  2  0  0  0  0  0  0104  0  0
  -24.8467  -28.9636   20.1247 C   0  0  0  0  0  0  0  0  0105  0  0
  -22.7412  -29.4652   22.5052 C   0  0  0  0  0  0  0  0  0106  0  0
  -18.0167  -28.1302   22.8626 C   0  0  0  0  0  0  0  0  0107  0  0
  -24.1342  -36.7390   23.2568 C   0  0  0  0  0  0  0  0  0108  0  0
  -25.9141  -30.8882   21.3456 C   0  0  0  0  0  0  0  0  0109  0  0
  -25.9930  -29.5029   20.7208 C   0  0  0  0  0  0  0  0  0110  0  0
  -27.1758  -28.7612   20.7331 C   0  0  0  0  0  0  0  0  0111  0  0
  -26.1032  -26.9836   19.5230 C   0  0  0  0  0  0  0  0  0112  0  0
  -24.9097  -27.7011   19.5331 C   0  0  0  0  0  0  0  0  0113  0  0
  -23.5715  -29.7899   20.1582 C   0  0  0  0  0  0  0  0  0114  0  0
  -25.3990  -36.3212   24.0232 C   0  0  1  0  0  0  0  0  0115  0  0
  -20.5793  -28.3813   23.1004 C   0  0  2  0  0  0  0  0  0116  0  0
  -20.6548  -26.9392   22.5411 C   0  0  0  0  0  0  0  0  0117  0  0
  -19.5615  -26.6407   21.5143 C   0  0  0  0  0  0  0  0  0118  0  0
  -18.1797  -26.7818   22.1673 C   0  0  0  0  0  0  0  0  0119  0  0
  -19.1385  -28.8769   23.2988 C   0  0  0  0  0  0  0  0  0120  0  0
  -18.9183  -30.1286   23.8878 C   0  0  0  0  0  0  0  0  0121  0  0
  -17.6396  -30.6493   24.0352 C   0  0  0  0  0  0  0  0  0122  0  0
  -25.9153  -34.9582   23.4993 C   0  0  0  0  0  0  0  0  0123  0  0
  -16.5415  -29.9068   23.6254 C   0  0  0  0  0  0  0  0  0124  0  0
  -16.7331  -28.6521   23.0586 C   0  0  0  0  0  0  0  0  0125  0  0
  -26.4583  -31.6439   25.0683 C   0  0  0  0  0  0  0  0  0126  0  0
  -25.3807  -31.3179   26.1374 C   0  0  0  0  0  0  0  0  0127  0  0
  -27.0530  -30.3024   24.5680 C   0  0  0  0  0  0  0  0  0128  0  0
  -27.6014  -32.4281   25.7651 C   0  0  0  0  0  0  0  0  0129  0  0
  -27.5629  -37.2220   24.8621 C   0  0  0  0  0  0  0  0  0130  0  0
  -21.4133  -29.3375   22.3735 N   0  0  0  0  0  0  0  0  0131  0  0
  -26.4706  -37.3372   23.9061 N   0  0  0  0  0  0  0  0  0132  0  0
  -24.6674  -31.0544   22.1178 N   0  0  0  0  0  0  0  0  0133  0  0
  -23.4259  -28.8150   23.2971 O   0  0  0  0  0  0  0  0  0134  0  0
  -28.3948  -26.7345   20.0089 O   0  0  0  0  0  0  0  0  0135  0  0
  -26.5870  -34.9065   22.4671 O   0  0  0  0  0  0  0  0  0136  0  0
  -23.5365  -32.1254   23.7833 O   0  0  0  0  0  0  0  0  0137  0  0
  -26.4609  -15.7613   17.5119 C   0  0  0  0  0  0  0  0  0  0  0  0
  -24.2454  -14.5842   17.3815 C   0  0  0  0  0  0  0  0  0  0  0  0
  -28.9681  -16.0387   15.2828 C   0  0  0  0  0  0  0  0  0  0  0  0
  -27.2468  -14.8497   16.5901 C   0  0  0  0  0  0  0  0  0  0  0  0
  -23.8014  -19.2168   18.6944 C   0  0  0  0  0  0  0  0  0  0  0  0
  -23.9078  -20.6808   18.2739 C   0  0  0  0  0  0  0  0  0  0  0  0
  -24.5263  -18.3115   17.7097 C   0  0  0  0  0  0  0  0  0  0  0  0
  -23.2237  -21.6036   19.2726 C   0  0  0  0  0  0  0  0  0  1  0  0
  -24.9769  -15.9050   17.2149 C   0  0  1  0  0  0  0  0  0  0  0  0
  -28.6272  -15.3212   16.5030 N   0  0  0  0  0  0  0  0  0  0  0  0
  -24.3581  -16.9004   18.1329 N   0  0  0  0  0  0  0  0  0  0  0  0
  -26.9885  -16.3184   18.4753 O   0  0  0  0  0  0  0  0  0  0  0  0
  -31.4485  -12.4701   19.0860 H   0  0  0  0  0  0  0  0  0  0  0  0
  -30.3970  -11.2460   19.6950 H   0  0  0  0  0  0  0  0  0  0  0  0
  -29.6870  -11.8204   17.4226 H   0  0  0  0  0  0  0  0  0  0  0  0
  -29.6375  -13.5326   17.8649 H   0  0  0  0  0  0  0  0  0  0  0  0
  -27.7830  -11.3650   18.7904 H   0  0  0  0  0  0  0  0  0  0  0  0
  -27.4028  -12.7801   17.8021 H   0  0  0  0  0  0  0  0  0  0  0  0
  -27.7353  -14.2503   19.6136 H   0  0  0  0  0  0  0  0  0  0  0  0
  -28.5890  -11.9550   21.3832 H   0  0  0  0  0  0  0  0  0  0  0  0
  -28.5005  -13.6134   21.8562 H   0  0  0  0  0  0  0  0  0  0  0  0
  -25.2399   -9.5495   22.4318 H   0  0  0  0  0  0  0  0  0  0  0  0
  -23.9663   -7.5070   22.7297 H   0  0  0  0  0  0  0  0  0  0  0  0
  -21.1515   -8.8641   19.9162 H   0  0  0  0  0  0  0  0  0  0  0  0
  -22.4016  -10.9115   19.6476 H   0  0  0  0  0  0  0  0  0  0  0  0
  -21.2319   -7.5552   23.9750 H   0  0  0  0  0  0  0  0  0  0  0  0
  -21.1589   -6.0228   25.8556 H   0  0  0  0  0  0  0  0  0  0  0  0
  -22.0396   -2.8212   23.2809 H   0  0  0  0  0  0  0  0  0  0  0  0
  -22.4401  -11.9703   22.4008 H   0  0  0  0  0  0  0  0  0  0  0  0
  -21.1493  -13.0679   22.2082 H   0  0  0  0  0  0  0  0  0  0  0  0
  -24.6538  -15.7807   20.5848 H   0  0  0  0  0  0  0  0  0  0  0  0
  -26.2762  -15.5453   20.1156 H   0  0  0  0  0  0  0  0  0  0  0  0
  -26.6778  -32.4663   23.1464 H   0  0  0  0  0  0  0  0  0  0  0  0
  -25.0747  -34.0282   25.0566 H   0  0  0  0  0  0  0  0  0  0  0  0
  -22.7881  -31.3489   21.4131 H   0  0  0  0  0  0  0  0  0  0  0  0
  -23.3854  -35.9823   23.3648 H   0  0  0  0  0  0  0  0  0  0  0  0
  -24.3696  -36.8624   22.2204 H   0  0  0  0  0  0  0  0  0  0  0  0
  -23.7669  -37.6632   23.6516 H   0  0  0  0  0  0  0  0  0  0  0  0
  -25.9445  -31.6237   20.5691 H   0  0  0  0  0  0  0  0  0  0  0  0
  -26.7436  -31.0079   22.0108 H   0  0  0  0  0  0  0  0  0  0  0  0
  -28.0090  -29.1452   21.2057 H   0  0  0  0  0  0  0  0  0  0  0  0
  -26.1369  -26.0560   19.0719 H   0  0  0  0  0  0  0  0  0  0  0  0
  -24.0652  -27.2961   19.0997 H   0  0  0  0  0  0  0  0  0  0  0  0
  -23.6156  -30.5365   19.3930 H   0  0  0  0  0  0  0  0  0  0  0  0
  -22.7355  -29.1425   19.9945 H   0  0  0  0  0  0  0  0  0  0  0  0
  -25.1353  -36.2335   25.0565 H   0  0  0  0  0  0  0  0  0  0  0  0
  -21.0070  -28.3206   24.0793 H   0  0  0  0  0  0  0  0  0  0  0  0
  -20.5555  -26.2518   23.3550 H   0  0  0  0  0  0  0  0  0  0  0  0
  -21.5974  -26.8362   22.0454 H   0  0  0  0  0  0  0  0  0  0  0  0
  -19.6810  -25.6422   21.1488 H   0  0  0  0  0  0  0  0  0  0  0  0
  -19.6406  -27.3343   20.7034 H   0  0  0  0  0  0  0  0  0  0  0  0
  -17.4282  -26.6888   21.4113 H   0  0  0  0  0  0  0  0  0  0  0  0
  -18.0803  -26.0130   22.9049 H   0  0  0  0  0  0  0  0  0  0  0  0
  -19.7265  -30.6774   24.2204 H   0  0  0  0  0  0  0  0  0  0  0  0
  -17.5064  -31.5856   24.4483 H   0  0  0  0  0  0  0  0  0  0  0  0
  -15.5878  -30.2839   23.7407 H   0  0  0  0  0  0  0  0  0  0  0  0
  -15.9120  -28.0941   22.7766 H   0  0  0  0  0  0  0  0  0  0  0  0
  -24.5787  -30.7757   25.6817 H   0  0  0  0  0  0  0  0  0  0  0  0
  -25.0041  -32.2289   26.5536 H   0  0  0  0  0  0  0  0  0  0  0  0
  -25.8166  -30.7245   26.9138 H   0  0  0  0  0  0  0  0  0  0  0  0
  -26.2892  -29.7335   24.0803 H   0  0  0  0  0  0  0  0  0  0  0  0
  -27.4336  -29.7484   25.4006 H   0  0  0  0  0  0  0  0  0  0  0  0
  -27.8466  -30.4994   23.8779 H   0  0  0  0  0  0  0  0  0  0  0  0
  -27.2251  -33.3632   26.1242 H   0  0  0  0  0  0  0  0  0  0  0  0
  -28.3902  -32.6065   25.0645 H   0  0  0  0  0  0  0  0  0  0  0  0
  -27.9772  -31.8555   26.5872 H   0  0  0  0  0  0  0  0  0  0  0  0
  -28.2744  -38.0016   24.6863 H   0  0  0  0  0  0  0  0  0  0  0  0
  -28.0396  -36.2711   24.7461 H   0  0  0  0  0  0  0  0  0  0  0  0
  -27.1773  -37.3087   25.8564 H   0  0  0  0  0  0  0  0  0  0  0  0
  -20.9627  -29.9365   21.7352 H   0  0  0  0  0  0  0  0  0  0  0  0
  -26.0447  -38.2561   24.0273 H   0  0  0  0  0  0  0  0  0  0  0  0
  -24.6756  -13.8534   16.7290 H   0  0  0  0  0  0  0  0  0  0  0  0
  -23.2119  -14.7157   17.1377 H   0  0  0  0  0  0  0  0  0  0  0  0
  -24.3334  -14.2531   18.3952 H   0  0  0  0  0  0  0  0  0  0  0  0
  -28.1482  -15.9863   14.5973 H   0  0  0  0  0  0  0  0  0  0  0  0
  -29.8339  -15.5944   14.8379 H   0  0  0  0  0  0  0  0  0  0  0  0
  -29.1728  -17.0626   15.5165 H   0  0  0  0  0  0  0  0  0  0  0  0
  -26.8041  -14.8592   15.6160 H   0  0  0  0  0  0  0  0  0  0  0  0
  -27.2334  -13.8522   16.9771 H   0  0  0  0  0  0  0  0  0  0  0  0
  -22.7691  -18.9377   18.7314 H   0  0  0  0  0  0  0  0  0  0  0  0
  -24.2551  -19.1052   19.6570 H   0  0  0  0  0  0  0  0  0  0  0  0
  -23.4450  -20.8013   17.3167 H   0  0  0  0  0  0  0  0  0  0  0  0
  -24.9446  -20.9422   18.2336 H   0  0  0  0  0  0  0  0  0  0  0  0
  -25.5671  -18.5593   17.6946 H   0  0  0  0  0  0  0  0  0  0  0  0
  -24.1179  -18.4449   16.7297 H   0  0  0  0  0  0  0  0  0  0  0  0
  -23.0222  -21.1070   20.1987 H   0  0  0  0  0  0  0  0  0  0  0  0
  -22.2661  -21.9694   18.9658 H   0  0  0  0  0  0  0  0  0  0  0  0
  -24.8899  -16.2305   16.1993 H   0  0  0  0  0  0  0  0  0  0  0  0
  -23.3593  -16.7020   18.1921 H   0  0  0  0  0  0  0  0  0  0  0  0
  -24.8360  -16.8064   19.0291 H   0  0  0  0  0  0  0  0  0  0  0  0
  1 25  1  0
  1 30  2  0
  1 80  1  0
  2  3  1  0
  2 25  1  0
  2 83  1  0
  2 84  1  0
  3  4  1  0
  3 85  1  0
  3 86  1  0
  4  5  1  0
  4 87  1  0
  4 88  1  0
  5  6  1  0
  5 26  1  0
  5 89  1  6
  6 25  1  0
  6 90  1  0
  6 91  1  0
  7  8  2  0
  7 26  1  0
  7 29  1  0
  8  9  1  0
  8 22  1  0
  9 10  1  0
  9 27  2  0
 10 11  2  0
 10 15  1  0
 11 12  1  0
 11 92  1  0
 12 13  2  0
 12 93  1  0
 13 14  1  0
 13 31  1  0
 14 15  2  0
 14 94  1  0
 15 95  1  0
 16 17  2  0
 16 21  1  0
 16 31  1  0
 17 18  1  0
 17 96  1  0
 18 19  2  0
 18 97  1  0
 19 20  1  0
 19 24  1  0
 20 21  2  0
 20 98  1  0
 21 23  1  0
 22 28  1  0
 22 32  2  0
 26 27  1  0
 28 99  1  0
 28100  1  0
 29101  1  0
 29102  1  0
 33 34  1  0
 33 66  1  0
 33 70  2  0
 34 36  1  0
 34 59  1  0
 34103  1  6
 35 44  2  0
 35 45  1  0
 35 68  1  0
 36 56  1  0
 36104  1  0
 37 39  1  0
 37 47  1  0
 37 66  1  0
 37105  1  6
 38 43  2  0
 38 46  1  0
 38 47  1  0
 39 64  1  0
 39 67  2  0
 40 52  1  0
 40 53  2  0
 40 58  1  0
 41106  1  0
 41107  1  0
 41108  1  0
 42 43  1  0
 42 66  1  0
 42109  1  0
 42110  1  0
 43 44  1  0
 44111  1  0
 45 46  2  0
 45112  1  0
 46113  1  0
 47114  1  0
 47115  1  0
 48 41  1  0
 48 56  1  0
 48 65  1  0
 48116  1  1
 49 50  1  0
 49 53  1  0
 49 64  1  0
 49117  1  1
 50 51  1  0
 50118  1  0
 50119  1  0
 51 52  1  0
 51120  1  0
 51121  1  0
 52122  1  0
 52123  1  0
 53 54  1  0
 54 55  2  0
 54124  1  0
 55 57  1  0
 55125  1  0
 56 69  2  0
 57 58  2  0
 57126  1  0
 58127  1  0
 59 60  1  0
 59 61  1  0
 59 62  1  0
 60128  1  0
 60129  1  0
 60130  1  0
 61131  1  0
 61132  1  0
 61133  1  0
 62134  1  0
 62135  1  0
 62136  1  0
 63 65  1  0
 63137  1  0
 63138  1  0
 63139  1  0
 64140  1  0
 65141  1  0
 68 78  1  0
 71 74  1  0
 71 79  1  0
 71 82  2  0
 72142  1  0
 72143  1  0
 72144  1  0
 73 80  1  0
 73145  1  0
 73146  1  0
 73147  1  0
 74 80  1  0
 74148  1  0
 74149  1  0
 75 76  1  0
 75 77  1  0
 75150  1  0
 75151  1  0
 76 78  1  0
 76152  1  0
 76153  1  0
 77 81  1  0
 77154  1  0
 77155  1  0
 78156  1  0
 78157  1  0
 79 72  1  0
 79 81  1  0
 79158  1  6
 81159  1  0
 81160  1  0
M  CHG  1  81   1
M  ISO  4   1 100  68 101  78 101  80 100
M  END
$$$$
84
     RDKit          3D

161168  0  0  0  0  0  0  0  0999 V2000
  -30.7652  -14.3608   20.6636 C   0  0  0  0  0  0  0  0  0100  0  0
  -30.4392  -12.2669   19.3775 C   0  0  0  0  0  0  0  0  0101  0  0
  -29.4791  -12.5281   18.1977 C   0  0  0  0  0  0  0  0  0102  0  0
  -27.9985  -12.3963   18.6038 C   0  0  0  0  0  0  0  0  0103  0  0
  -27.6639  -13.2170   19.8820 C   0  0  2  0  0  0  0  0  0104  0  0
  -28.6795  -12.9602   21.0279 C   0  0  0  0  0  0  0  0  0105  0  0
  -25.2633  -13.8245   20.5754 C   0  0  0  0  0  0  0  0  0106  0  0
  -24.1645  -13.0409   20.9408 C   0  0  0  0  0  0  0  0  0107  0  0
  -24.6400  -11.7009   20.8697 C   0  0  0  0  0  0  0  0  0108  0  0
  -23.9005  -10.4085   21.0420 C   0  0  0  0  0  0  0  0  0109  0  0
  -24.3588   -9.4123   21.9123 C   0  0  0  0  0  0  0  0  0110  0  0
  -23.6296   -8.2350   22.0803 C   0  0  0  0  0  0  0  0  0111  0  0
  -22.4385   -8.0419   21.3657 C   0  0  0  0  0  0  0  0  0112  0  0
  -22.0103   -9.0167   20.4678 C   0  0  0  0  0  0  0  0  0113  0  0
  -22.7317  -10.1925   20.3102 C   0  0  0  0  0  0  0  0  0114  0  0
  -21.6857   -6.0709   22.5391 C   0  0  0  0  0  0  0  0  0115  0  0
  -21.4064   -6.5490   23.8264 C   0  0  0  0  0  0  0  0  0116  0  0
  -21.3635   -5.6677   24.9085 C   0  0  0  0  0  0  0  0  0117  0  0
  -21.5973   -4.3067   24.7088 C   0  0  0  0  0  0  0  0  0118  0  0
  -21.8700   -3.8284   23.4282 C   0  0  0  0  0  0  0  0  0119  0  0
  -21.9144   -4.7056   22.3460 C   0  0  0  0  0  0  0  0  0120  0  0
  -22.8194  -13.5263   21.1763 C   0  0  0  0  0  0  0  0  0121  0  0
  -22.1559   -4.2206   21.1063 F   0  0  0  0  0  0  0  0  0122  0  0
  -21.5628   -3.4510   25.7555 F   0  0  0  0  0  0  0  0  0123  0  0
  -30.0261  -13.1803   20.4553 N   0  0  0  0  0  0  0  0  0124  0  0
  -26.2911  -12.9356   20.3443 N   0  0  0  0  0  0  0  0  0125  0  0
  -25.9236  -11.6675   20.5847 N   0  0  0  0  0  0  0  0  0126  0  0
  -22.0708  -12.7905   22.0005 N   0  0  0  0  0  0  0  0  0127  0  0
  -25.4117  -15.1773   20.4097 N   0  0  0  0  0  0  0  0  0128  0  0
  -31.7916  -14.6724   20.0536 O   0  0  0  0  0  0  0  0  0129  0  0
  -21.6670   -6.9022   21.4423 O   0  0  0  0  0  0  0  0  0130  0  0
  -22.3946  -14.5564   20.6568 O   0  0  0  0  0  0  0  0  0131  0  0
  -24.6048  -31.8614   23.2223 C   0  0  0  0  0  0  0  0  0100  0  0
  -25.8822  -32.4841   23.8616 C   0  0  1  0  0  0  0  0  0101  0  0
  -27.2536  -27.5042   20.1156 C   0  0  0  0  0  0  0  0  0102  0  0
  -25.5726  -33.8762   24.2210 N   0  0  0  0  0  0  0  0  0103  0  0
  -23.4066  -30.4859   21.5461 C   0  0  2  0  0  0  0  0  0104  0  0
  -24.8467  -28.9636   20.1247 C   0  0  0  0  0  0  0  0  0105  0  0
  -22.7412  -29.4652   22.5052 C   0  0  0  0  0  0  0  0  0106  0  0
  -18.0167  -28.1302   22.8626 C   0  0  0  0  0  0  0  0  0107  0  0
  -24.1342  -36.7390   23.2568 C   0  0  0  0  0  0  0  0  0108  0  0
  -25.9141  -30.8882   21.3456 C   0  0  0  0  0  0  0  0  0109  0  0
  -25.9930  -29.5029   20.7208 C   0  0  0  0  0  0  0  0  0110  0  0
  -27.1758  -28.7612   20.7331 C   0  0  0  0  0  0  0  0  0111  0  0
  -26.1032  -26.9836   19.5230 C   0  0  0  0  0  0  0  0  0112  0  0
  -24.9097  -27.7011   19.5331 C   0  0  0  0  0  0  0  0  0113  0  0
  -23.5715  -29.7899   20.1582 C   0  0  0  0  0  0  0  0  0114  0  0
  -25.3990  -36.3212   24.0232 C   0  0  1  0  0  0  0  0  0115  0  0
  -20.5793  -28.3813   23.1004 C   0  0  2  0  0  0  0  0  0116  0  0
  -20.6548  -26.9392   22.5411 C   0  0  0  0  0  0  0  0  0117  0  0
  -19.5615  -26.6407   21.5143 C   0  0  0  0  0  0  0  0  0118  0  0
  -18.1797  -26.7818   22.1673 C   0  0  0  0  0  0  0  0  0119  0  0
  -19.1385  -28.8769   23.2988 C   0  0  0  0  0  0  0  0  0120  0  0
  -18.9183  -30.1286   23.8878 C   0  0  0  0  0  0  0  0  0121  0  0
  -17.6396  -30.6493   24.0352 C   0  0  0  0  0  0  0  0  0122  0  0
  -25.9153  -34.9582   23.4993 C   0  0  0  0  0  0  0  0  0123  0  0
  -16.5415  -29.9068   23.6254 C   0  0  0  0  0  0  0  0  0124  0  0
  -16.7331  -28.6521   23.0586 C   0  0  0  0  0  0  0  0  0125  0  0
  -26.4583  -31.6439   25.0683 C   0  0  0  0  0  0  0  0  0126  0  0
  -25.3807  -31.3179   26.1374 C   0  0  0  0  0  0  0  0  0127  0  0
  -27.0530  -30.3024   24.5680 C   0  0  0  0  0  0  0  0  0128  0  0
  -27.6014  -32.4281   25.7651 C   0  0  0  0  0  0  0  0  0129  0  0
  -27.5629  -37.2220   24.8621 C   0  0  0  0  0  0  0  0  0130  0  0
  -21.4133  -29.3375   22.3735 N   0  0  0  0  0  0  0  0  0131  0  0
  -26.4706  -37.3372   23.9061 N   0  0  0  0  0  0  0  0  0132  0  0
  -24.6674  -31.0544   22.1178 N   0  0  0  0  0  0  0  0  0133  0  0
  -23.4259  -28.8150   23.2971 O   0  0  0  0  0  0  0  0  0134  0  0
  -28.3948  -26.7345   20.0089 O   0  0  0  0  0  0  0  0  0135  0  0
  -26.5870  -34.9065   22.4671 O   0  0  0  0  0  0  0  0  0136  0  0
  -23.5365  -32.1254   23.7833 O   0  0  0  0  0  0  0  0  0137  0  0
  -33.7781  -18.7181   20.1515 C   0  0  0  0  0  0  0  0  0  0  0  0
  -29.3293  -23.0217   22.7524 C   0  0  0  0  0  0  0  0  0  0  0  0
  -30.2374  -20.8852   21.8057 C   0  0  0  0  0  0  0  0  0  0  0  0
  -32.2955  -16.6897   20.4128 C   0  0  0  0  0  0  0  0  0  0  0  0
  -28.5457  -22.2473   20.4629 C   0  0  0  0  0  0  0  0  0  0  0  0
  -31.0670  -20.2570   20.6916 C   0  0  0  0  0  0  0  0  0  0  0  0
  -30.8941  -16.0964   20.3188 C   0  0  0  0  0  0  0  0  0  1  0  0
  -32.3496  -18.1908   20.1220 C   0  0  1  0  0  0  0  0  0  0  0  0
  -29.7070  -22.2899   21.4626 C   0  0  1  0  0  0  0  0  0  0  0  0
  -28.1279  -23.5631   20.0331 N   0  0  0  0  0  0  0  0  0  0  0  0
  -31.5650  -18.9333   21.1475 N   0  0  0  0  0  0  0  0  0  0  0  0
  -30.7326  -22.9875   20.8866 F   0  0  0  0  0  0  0  0  0  0  0  0
  -31.4485  -12.4701   19.0860 H   0  0  0  0  0  0  0  0  0  0  0  0
  -30.3970  -11.2460   19.6950 H   0  0  0  0  0  0  0  0  0  0  0  0
  -29.6870  -11.8204   17.4226 H   0  0  0  0  0  0  0  0  0  0  0  0
  -29.6375  -13.5326   17.8649 H   0  0  0  0  0  0  0  0  0  0  0  0
  -27.7830  -11.3650   18.7904 H   0  0  0  0  0  0  0  0  0  0  0  0
  -27.4028  -12.7801   17.8021 H   0  0  0  0  0  0  0  0  0  0  0  0
  -27.7353  -14.2503   19.6136 H   0  0  0  0  0  0  0  0  0  0  0  0
  -28.5890  -11.9550   21.3832 H   0  0  0  0  0  0  0  0  0  0  0  0
  -28.5005  -13.6134   21.8562 H   0  0  0  0  0  0  0  0  0  0  0  0
  -25.2399   -9.5495   22.4318 H   0  0  0  0  0  0  0  0  0  0  0  0
  -23.9663   -7.5070   22.7297 H   0  0  0  0  0  0  0  0  0  0  0  0
  -21.1515   -8.8641   19.9162 H   0  0  0  0  0  0  0  0  0  0  0  0
  -22.4016  -10.9115   19.6476 H   0  0  0  0  0  0  0  0  0  0  0  0
  -21.2319   -7.5552   23.9750 H   0  0  0  0  0  0  0  0  0  0  0  0
  -21.1589   -6.0228   25.8556 H   0  0  0  0  0  0  0  0  0  0  0  0
  -22.0396   -2.8212   23.2809 H   0  0  0  0  0  0  0  0  0  0  0  0
  -22.4401  -11.9703   22.4008 H   0  0  0  0  0  0  0  0  0  0  0  0
  -21.1493  -13.0679   22.2082 H   0  0  0  0  0  0  0  0  0  0  0  0
  -24.6538  -15.7807   20.5848 H   0  0  0  0  0  0  0  0  0  0  0  0
  -26.2762  -15.5453   20.1156 H   0  0  0  0  0  0  0  0  0  0  0  0
  -26.6778  -32.4663   23.1464 H   0  0  0  0  0  0  0  0  0  0  0  0
  -25.0747  -34.0282   25.0566 H   0  0  0  0  0  0  0  0  0  0  0  0
  -22.7881  -31.3489   21.4131 H   0  0  0  0  0  0  0  0  0  0  0  0
  -23.3854  -35.9823   23.3648 H   0  0  0  0  0  0  0  0  0  0  0  0
  -24.3696  -36.8624   22.2204 H   0  0  0  0  0  0  0  0  0  0  0  0
  -23.7669  -37.6632   23.6516 H   0  0  0  0  0  0  0  0  0  0  0  0
  -25.9445  -31.6237   20.5691 H   0  0  0  0  0  0  0  0  0  0  0  0
  -26.7436  -31.0079   22.0108 H   0  0  0  0  0  0  0  0  0  0  0  0
  -28.0090  -29.1452   21.2057 H   0  0  0  0  0  0  0  0  0  0  0  0
  -26.1369  -26.0560   19.0719 H   0  0  0  0  0  0  0  0  0  0  0  0
  -24.0652  -27.2961   19.0997 H   0  0  0  0  0  0  0  0  0  0  0  0
  -23.6156  -30.5365   19.3930 H   0  0  0  0  0  0  0  0  0  0  0  0
  -22.7355  -29.1425   19.9945 H   0  0  0  0  0  0  0  0  0  0  0  0
  -25.1353  -36.2335   25.0565 H   0  0  0  0  0  0  0  0  0  0  0  0
  -21.0070  -28.3206   24.0793 H   0  0  0  0  0  0  0  0  0  0  0  0
  -20.5555  -26.2518   23.3550 H   0  0  0  0  0  0  0  0  0  0  0  0
  -21.5974  -26.8362   22.0454 H   0  0  0  0  0  0  0  0  0  0  0  0
  -19.6810  -25.6422   21.1488 H   0  0  0  0  0  0  0  0  0  0  0  0
  -19.6406  -27.3343   20.7034 H   0  0  0  0  0  0  0  0  0  0  0  0
  -17.4282  -26.6888   21.4113 H   0  0  0  0  0  0  0  0  0  0  0  0
  -18.0803  -26.0130   22.9049 H   0  0  0  0  0  0  0  0  0  0  0  0
  -19.7265  -30.6774   24.2204 H   0  0  0  0  0  0  0  0  0  0  0  0
  -17.5064  -31.5856   24.4483 H   0  0  0  0  0  0  0  0  0  0  0  0
  -15.5878  -30.2839   23.7407 H   0  0  0  0  0  0  0  0  0  0  0  0
  -15.9120  -28.0941   22.7766 H   0  0  0  0  0  0  0  0  0  0  0  0
  -24.5787  -30.7757   25.6817 H   0  0  0  0  0  0  0  0  0  0  0  0
  -25.0041  -32.2289   26.5536 H   0  0  0  0  0  0  0  0  0  0  0  0
  -25.8166  -30.7245   26.9138 H   0  0  0  0  0  0  0  0  0  0  0  0
  -26.2892  -29.7335   24.0803 H   0  0  0  0  0  0  0  0  0  0  0  0
  -27.4336  -29.7484   25.4006 H   0  0  0  0  0  0  0  0  0  0  0  0
  -27.8466  -30.4994   23.8779 H   0  0  0  0  0  0  0  0  0  0  0  0
  -27.2251  -33.3632   26.1242 H   0  0  0  0  0  0  0  0  0  0  0  0
  -28.3902  -32.6065   25.0645 H   0  0  0  0  0  0  0  0  0  0  0  0
  -27.9772  -31.8555   26.5872 H   0  0  0  0  0  0  0  0  0  0  0  0
  -28.2744  -38.0016   24.6863 H   0  0  0  0  0  0  0  0  0  0  0  0
  -28.0396  -36.2711   24.7461 H   0  0  0  0  0  0  0  0  0  0  0  0
  -27.1773  -37.3087   25.8564 H   0  0  0  0  0  0  0  0  0  0  0  0
  -20.9627  -29.9365   21.7352 H   0  0  0  0  0  0  0  0  0  0  0  0
  -26.0447  -38.2561   24.0273 H   0  0  0  0  0  0  0  0  0  0  0  0
  -34.3647  -18.1998   19.4220 H   0  0  0  0  0  0  0  0  0  0  0  0
  -34.1966  -18.5600   21.1235 H   0  0  0  0  0  0  0  0  0  0  0  0
  -33.7766  -19.7649   19.9297 H   0  0  0  0  0  0  0  0  0  0  0  0
  -28.5264  -22.5039   23.2342 H   0  0  0  0  0  0  0  0  0  0  0  0
  -29.0212  -24.0195   22.5192 H   0  0  0  0  0  0  0  0  0  0  0  0
  -30.1762  -23.0534   23.4056 H   0  0  0  0  0  0  0  0  0  0  0  0
  -30.8477  -20.9587   22.6815 H   0  0  0  0  0  0  0  0  0  0  0  0
  -29.3850  -20.2559   21.9551 H   0  0  0  0  0  0  0  0  0  0  0  0
  -32.9233  -16.1863   19.7075 H   0  0  0  0  0  0  0  0  0  0  0  0
  -32.6246  -16.5550   21.4220 H   0  0  0  0  0  0  0  0  0  0  0  0
  -27.7139  -21.7587   20.9258 H   0  0  0  0  0  0  0  0  0  0  0  0
  -28.8852  -21.7182   19.5970 H   0  0  0  0  0  0  0  0  0  0  0  0
  -31.8964  -20.8921   20.4601 H   0  0  0  0  0  0  0  0  0  0  0  0
  -30.4637  -20.1346   19.8164 H   0  0  0  0  0  0  0  0  0  0  0  0
  -30.5519  -15.5561   21.1766 H   0  0  0  0  0  0  0  0  0  0  0  0
  -30.5775  -15.3642   19.6056 H   0  0  0  0  0  0  0  0  0  0  0  0
  -31.9405  -18.3393   19.1445 H   0  0  0  0  0  0  0  0  0  0  0  0
  -27.8484  -24.4898   19.8532 H   0  0  0  0  0  0  0  0  0  0  0  0
  -30.7617  -18.3626   21.4110 H   0  0  0  0  0  0  0  0  0  0  0  0
  -32.1966  -19.1105   21.9286 H   0  0  0  0  0  0  0  0  0  0  0  0
  1 25  1  0
  1 30  2  0
  1 80  1  0
  2  3  1  0
  2 25  1  0
  2 83  1  0
  2 84  1  0
  3  4  1  0
  3 85  1  0
  3 86  1  0
  4  5  1  0
  4 87  1  0
  4 88  1  0
  5  6  1  0
  5 26  1  0
  5 89  1  6
  6 25  1  0
  6 90  1  0
  6 91  1  0
  7  8  2  0
  7 26  1  0
  7 29  1  0
  8  9  1  0
  8 22  1  0
  9 10  1  0
  9 27  2  0
 10 11  2  0
 10 15  1  0
 11 12  1  0
 11 92  1  0
 12 13  2  0
 12 93  1  0
 13 14  1  0
 13 31  1  0
 14 15  2  0
 14 94  1  0
 15 95  1  0
 16 17  2  0
 16 21  1  0
 16 31  1  0
 17 18  1  0
 17 96  1  0
 18 19  2  0
 18 97  1  0
 19 20  1  0
 19 24  1  0
 20 21  2  0
 20 98  1  0
 21 23  1  0
 22 28  1  0
 22 32  2  0
 26 27  1  0
 28 99  1  0
 28100  1  0
 29101  1  0
 29102  1  0
 33 34  1  0
 33 66  1  0
 33 70  2  0
 34 36  1  0
 34 59  1  0
 34103  1  6
 35 44  2  0
 35 45  1  0
 35 68  1  0
 36 56  1  0
 36104  1  0
 37 39  1  0
 37 47  1  0
 37 66  1  0
 37105  1  6
 38 43  2  0
 38 46  1  0
 38 47  1  0
 39 64  1  0
 39 67  2  0
 40 52  1  0
 40 53  2  0
 40 58  1  0
 41106  1  0
 41107  1  0
 41108  1  0
 42 43  1  0
 42 66  1  0
 42109  1  0
 42110  1  0
 43 44  1  0
 44111  1  0
 45 46  2  0
 45112  1  0
 46113  1  0
 47114  1  0
 47115  1  0
 48 41  1  0
 48 56  1  0
 48 65  1  0
 48116  1  1
 49 50  1  0
 49 53  1  0
 49 64  1  0
 49117  1  1
 50 51  1  0
 50118  1  0
 50119  1  0
 51 52  1  0
 51120  1  0
 51121  1  0
 52122  1  0
 52123  1  0
 53 54  1  0
 54 55  2  0
 54124  1  0
 55 57  1  0
 55125  1  0
 56 69  2  0
 57 58  2  0
 57126  1  0
 58127  1  0
 59 60  1  0
 59 61  1  0
 59 62  1  0
 60128  1  0
 60129  1  0
 60130  1  0
 61131  1  0
 61132  1  0
 61133  1  0
 62134  1  0
 62135  1  0
 62136  1  0
 63 65  1  0
 63137  1  0
 63138  1  0
 63139  1  0
 64140  1  0
 65141  1  0
 68 77  1  0
 71142  1  0
 71143  1  0
 71144  1  0
 72145  1  0
 72146  1  0
 72147  1  0
 73 76  1  0
 73 79  1  0
 73148  1  0
 73149  1  0
 74 77  1  0
 74 78  1  0
 74150  1  0
 74151  1  0
 75 79  1  0
 75 80  1  0
 75152  1  0
 75153  1  0
 76 81  1  0
 76154  1  0
 76155  1  0
 77156  1  0
 77157  1  0
 78 71  1  0
 78 81  1  0
 78158  1  6
 79 72  1  0
 79 82  1  6
 80159  1  0
 81160  1  0
 81161  1  0
M  CHG  1  81   1
M  ISO  4   1 100  68 101  77 101  80 100
M  END
$$$$
85
     RDKit          3D

165173  0  0  0  0  0  0  0  0999 V2000
  -30.7652  -14.3608   20.6636 C   0  0  0  0  0  0  0  0  0100  0  0
  -30.4392  -12.2669   19.3775 C   0  0  0  0  0  0  0  0  0101  0  0
  -29.4791  -12.5281   18.1977 C   0  0  0  0  0  0  0  0  0102  0  0
  -27.9985  -12.3963   18.6038 C   0  0  0  0  0  0  0  0  0103  0  0
  -27.6639  -13.2170   19.8820 C   0  0  2  0  0  0  0  0  0104  0  0
  -28.6795  -12.9602   21.0279 C   0  0  0  0  0  0  0  0  0105  0  0
  -25.2633  -13.8245   20.5754 C   0  0  0  0  0  0  0  0  0106  0  0
  -24.1645  -13.0409   20.9408 C   0  0  0  0  0  0  0  0  0107  0  0
  -24.6400  -11.7009   20.8697 C   0  0  0  0  0  0  0  0  0108  0  0
  -23.9005  -10.4085   21.0420 C   0  0  0  0  0  0  0  0  0109  0  0
  -24.3588   -9.4123   21.9123 C   0  0  0  0  0  0  0  0  0110  0  0
  -23.6296   -8.2350   22.0803 C   0  0  0  0  0  0  0  0  0111  0  0
  -22.4385   -8.0419   21.3657 C   0  0  0  0  0  0  0  0  0112  0  0
  -22.0103   -9.0167   20.4678 C   0  0  0  0  0  0  0  0  0113  0  0
  -22.7317  -10.1925   20.3102 C   0  0  0  0  0  0  0  0  0114  0  0
  -21.6857   -6.0709   22.5391 C   0  0  0  0  0  0  0  0  0115  0  0
  -21.4064   -6.5490   23.8264 C   0  0  0  0  0  0  0  0  0116  0  0
  -21.3635   -5.6677   24.9085 C   0  0  0  0  0  0  0  0  0117  0  0
  -21.5973   -4.3067   24.7088 C   0  0  0  0  0  0  0  0  0118  0  0
  -21.8700   -3.8284   23.4282 C   0  0  0  0  0  0  0  0  0119  0  0
  -21.9144   -4.7056   22.3460 C   0  0  0  0  0  0  0  0  0120  0  0
  -22.8194  -13.5263   21.1763 C   0  0  0  0  0  0  0  0  0121  0  0
  -22.1559   -4.2206   21.1063 F   0  0  0  0  0  0  0  0  0122  0  0
  -21.5628   -3.4510   25.7555 F   0  0  0  0  0  0  0  0  0123  0  0
  -30.0261  -13.1803   20.4553 N   0  0  0  0  0  0  0  0  0124  0  0
  -26.2911  -12.9356   20.3443 N   0  0  0  0  0  0  0  0  0125  0  0
  -25.9236  -11.6675   20.5847 N   0  0  0  0  0  0  0  0  0126  0  0
  -22.0708  -12.7905   22.0005 N   0  0  0  0  0  0  0  0  0127  0  0
  -25.4117  -15.1773   20.4097 N   0  0  0  0  0  0  0  0  0128  0  0
  -31.7916  -14.6724   20.0536 O   0  0  0  0  0  0  0  0  0129  0  0
  -21.6670   -6.9022   21.4423 O   0  0  0  0  0  0  0  0  0130  0  0
  -22.3946  -14.5564   20.6568 O   0  0  0  0  0  0  0  0  0131  0  0
  -24.6048  -31.8614   23.2223 C   0  0  0  0  0  0  0  0  0100  0  0
  -25.8822  -32.4841   23.8616 C   0  0  1  0  0  0  0  0  0101  0  0
  -27.2536  -27.5042   20.1156 C   0  0  0  0  0  0  0  0  0102  0  0
  -25.5726  -33.8762   24.2210 N   0  0  0  0  0  0  0  0  0103  0  0
  -23.4066  -30.4859   21.5461 C   0  0  2  0  0  0  0  0  0104  0  0
  -24.8467  -28.9636   20.1247 C   0  0  0  0  0  0  0  0  0105  0  0
  -22.7412  -29.4652   22.5052 C   0  0  0  0  0  0  0  0  0106  0  0
  -18.0167  -28.1302   22.8626 C   0  0  0  0  0  0  0  0  0107  0  0
  -24.1342  -36.7390   23.2568 C   0  0  0  0  0  0  0  0  0108  0  0
  -25.9141  -30.8882   21.3456 C   0  0  0  0  0  0  0  0  0109  0  0
  -25.9930  -29.5029   20.7208 C   0  0  0  0  0  0  0  0  0110  0  0
  -27.1758  -28.7612   20.7331 C   0  0  0  0  0  0  0  0  0111  0  0
  -26.1032  -26.9836   19.5230 C   0  0  0  0  0  0  0  0  0112  0  0
  -24.9097  -27.7011   19.5331 C   0  0  0  0  0  0  0  0  0113  0  0
  -23.5715  -29.7899   20.1582 C   0  0  0  0  0  0  0  0  0114  0  0
  -25.3990  -36.3212   24.0232 C   0  0  1  0  0  0  0  0  0115  0  0
  -20.5793  -28.3813   23.1004 C   0  0  2  0  0  0  0  0  0116  0  0
  -20.6548  -26.9392   22.5411 C   0  0  0  0  0  0  0  0  0117  0  0
  -19.5615  -26.6407   21.5143 C   0  0  0  0  0  0  0  0  0118  0  0
  -18.1797  -26.7818   22.1673 C   0  0  0  0  0  0  0  0  0119  0  0
  -19.1385  -28.8769   23.2988 C   0  0  0  0  0  0  0  0  0120  0  0
  -18.9183  -30.1286   23.8878 C   0  0  0  0  0  0  0  0  0121  0  0
  -17.6396  -30.6493   24.0352 C   0  0  0  0  0  0  0  0  0122  0  0
  -25.9153  -34.9582   23.4993 C   0  0  0  0  0  0  0  0  0123  0  0
  -16.5415  -29.9068   23.6254 C   0  0  0  0  0  0  0  0  0124  0  0
  -16.7331  -28.6521   23.0586 C   0  0  0  0  0  0  0  0  0125  0  0
  -26.4583  -31.6439   25.0683 C   0  0  0  0  0  0  0  0  0126  0  0
  -25.3807  -31.3179   26.1374 C   0  0  0  0  0  0  0  0  0127  0  0
  -27.0530  -30.3024   24.5680 C   0  0  0  0  0  0  0  0  0128  0  0
  -27.6014  -32.4281   25.7651 C   0  0  0  0  0  0  0  0  0129  0  0
  -27.5629  -37.2220   24.8621 C   0  0  0  0  0  0  0  0  0130  0  0
  -21.4133  -29.3375   22.3735 N   0  0  0  0  0  0  0  0  0131  0  0
  -26.4706  -37.3372   23.9061 N   0  0  0  0  0  0  0  0  0132  0  0
  -24.6674  -31.0544   22.1178 N   0  0  0  0  0  0  0  0  0133  0  0
  -23.4259  -28.8150   23.2971 O   0  0  0  0  0  0  0  0  0134  0  0
  -28.3948  -26.7345   20.0089 O   0  0  0  0  0  0  0  0  0135  0  0
  -26.5870  -34.9065   22.4671 O   0  0  0  0  0  0  0  0  0136  0  0
  -23.5365  -32.1254   23.7833 O   0  0  0  0  0  0  0  0  0137  0  0
  -27.2862  -18.7730   22.0243 C   0  0  0  0  0  0  0  0  0  0  0  0
  -27.3587  -19.6866   20.9440 C   0  0  0  0  0  0  0  0  0  0  0  0
  -27.1550  -19.5116   23.1795 C   0  0  0  0  0  0  0  0  0  0  0  0
  -27.2697  -20.9557   21.4719 C   0  0  0  0  0  0  0  0  0  0  0  0
  -27.0375  -19.0623   24.5821 C   0  0  0  0  0  0  0  0  0  0  0  0
  -29.1192  -23.0560   17.6843 C   0  0  0  0  0  0  0  0  0  0  0  0
  -27.2926  -22.2943   20.7781 C   0  0  0  0  0  0  0  0  0  0  0  0
  -28.6990  -22.8907   20.6219 C   0  0  0  0  0  0  0  0  0  0  0  0
  -27.0256  -21.9428   23.7585 C   0  0  0  0  0  0  0  0  0  0  0  0
  -27.8766  -25.2804   20.5108 C   0  0  0  0  0  0  0  0  0  1  0  0
  -25.5867  -22.1399   24.2282 C   0  0  2  0  0  0  0  0  0  0  0  0
  -28.7696  -24.2235   19.8646 C   0  0  2  0  0  0  0  0  0  0  0  0
  -27.1465  -20.8372   22.8317 N   0  0  0  0  0  0  0  0  0  0  0  0
  -28.3050  -24.0253   18.4599 N   0  0  0  0  0  0  0  0  0  0  0  0
  -25.5588  -22.9952   25.3603 O   0  0  0  0  0  0  0  0  0  0  0  0
  -31.4485  -12.4701   19.0860 H   0  0  0  0  0  0  0  0  0  0  0  0
  -30.3970  -11.2460   19.6950 H   0  0  0  0  0  0  0  0  0  0  0  0
  -29.6870  -11.8204   17.4226 H   0  0  0  0  0  0  0  0  0  0  0  0
  -29.6375  -13.5326   17.8649 H   0  0  0  0  0  0  0  0  0  0  0  0
  -27.7830  -11.3650   18.7904 H   0  0  0  0  0  0  0  0  0  0  0  0
  -27.4028  -12.7801   17.8021 H   0  0  0  0  0  0  0  0  0  0  0  0
  -27.7353  -14.2503   19.6136 H   0  0  0  0  0  0  0  0  0  0  0  0
  -28.5890  -11.9550   21.3832 H   0  0  0  0  0  0  0  0  0  0  0  0
  -28.5005  -13.6134   21.8562 H   0  0  0  0  0  0  0  0  0  0  0  0
  -25.2399   -9.5495   22.4318 H   0  0  0  0  0  0  0  0  0  0  0  0
  -23.9663   -7.5070   22.7297 H   0  0  0  0  0  0  0  0  0  0  0  0
  -21.1515   -8.8641   19.9162 H   0  0  0  0  0  0  0  0  0  0  0  0
  -22.4016  -10.9115   19.6476 H   0  0  0  0  0  0  0  0  0  0  0  0
  -21.2319   -7.5552   23.9750 H   0  0  0  0  0  0  0  0  0  0  0  0
  -21.1589   -6.0228   25.8556 H   0  0  0  0  0  0  0  0  0  0  0  0
  -22.0396   -2.8212   23.2809 H   0  0  0  0  0  0  0  0  0  0  0  0
  -22.4401  -11.9703   22.4008 H   0  0  0  0  0  0  0  0  0  0  0  0
  -21.1493  -13.0679   22.2082 H   0  0  0  0  0  0  0  0  0  0  0  0
  -24.6538  -15.7807   20.5848 H   0  0  0  0  0  0  0  0  0  0  0  0
  -26.2762  -15.5453   20.1156 H   0  0  0  0  0  0  0  0  0  0  0  0
  -26.6778  -32.4663   23.1464 H   0  0  0  0  0  0  0  0  0  0  0  0
  -25.0747  -34.0282   25.0566 H   0  0  0  0  0  0  0  0  0  0  0  0
  -22.7881  -31.3489   21.4131 H   0  0  0  0  0  0  0  0  0  0  0  0
  -23.3854  -35.9823   23.3648 H   0  0  0  0  0  0  0  0  0  0  0  0
  -24.3696  -36.8624   22.2204 H   0  0  0  0  0  0  0  0  0  0  0  0
  -23.7669  -37.6632   23.6516 H   0  0  0  0  0  0  0  0  0  0  0  0
  -25.9445  -31.6237   20.5691 H   0  0  0  0  0  0  0  0  0  0  0  0
  -26.7436  -31.0079   22.0108 H   0  0  0  0  0  0  0  0  0  0  0  0
  -28.0090  -29.1452   21.2057 H   0  0  0  0  0  0  0  0  0  0  0  0
  -26.1369  -26.0560   19.0719 H   0  0  0  0  0  0  0  0  0  0  0  0
  -24.0652  -27.2961   19.0997 H   0  0  0  0  0  0  0  0  0  0  0  0
  -23.6156  -30.5365   19.3930 H   0  0  0  0  0  0  0  0  0  0  0  0
  -22.7355  -29.1425   19.9945 H   0  0  0  0  0  0  0  0  0  0  0  0
  -25.1353  -36.2335   25.0565 H   0  0  0  0  0  0  0  0  0  0  0  0
  -21.0070  -28.3206   24.0793 H   0  0  0  0  0  0  0  0  0  0  0  0
  -20.5555  -26.2518   23.3550 H   0  0  0  0  0  0  0  0  0  0  0  0
  -21.5974  -26.8362   22.0454 H   0  0  0  0  0  0  0  0  0  0  0  0
  -19.6810  -25.6422   21.1488 H   0  0  0  0  0  0  0  0  0  0  0  0
  -19.6406  -27.3343   20.7034 H   0  0  0  0  0  0  0  0  0  0  0  0
  -17.4282  -26.6888   21.4113 H   0  0  0  0  0  0  0  0  0  0  0  0
  -18.0803  -26.0130   22.9049 H   0  0  0  0  0  0  0  0  0  0  0  0
  -19.7265  -30.6774   24.2204 H   0  0  0  0  0  0  0  0  0  0  0  0
  -17.5064  -31.5856   24.4483 H   0  0  0  0  0  0  0  0  0  0  0  0
  -15.5878  -30.2839   23.7407 H   0  0  0  0  0  0  0  0  0  0  0  0
  -15.9120  -28.0941   22.7766 H   0  0  0  0  0  0  0  0  0  0  0  0
  -24.5787  -30.7757   25.6817 H   0  0  0  0  0  0  0  0  0  0  0  0
  -25.0041  -32.2289   26.5536 H   0  0  0  0  0  0  0  0  0  0  0  0
  -25.8166  -30.7245   26.9138 H   0  0  0  0  0  0  0  0  0  0  0  0
  -26.2892  -29.7335   24.0803 H   0  0  0  0  0  0  0  0  0  0  0  0
  -27.4336  -29.7484   25.4006 H   0  0  0  0  0  0  0  0  0  0  0  0
  -27.8466  -30.4994   23.8779 H   0  0  0  0  0  0  0  0  0  0  0  0
  -27.2251  -33.3632   26.1242 H   0  0  0  0  0  0  0  0  0  0  0  0
  -28.3902  -32.6065   25.0645 H   0  0  0  0  0  0  0  0  0  0  0  0
  -27.9772  -31.8555   26.5872 H   0  0  0  0  0  0  0  0  0  0  0  0
  -28.2744  -38.0016   24.6863 H   0  0  0  0  0  0  0  0  0  0  0  0
  -28.0396  -36.2711   24.7461 H   0  0  0  0  0  0  0  0  0  0  0  0
  -27.1773  -37.3087   25.8564 H   0  0  0  0  0  0  0  0  0  0  0  0
  -20.9627  -29.9365   21.7352 H   0  0  0  0  0  0  0  0  0  0  0  0
  -26.0447  -38.2561   24.0273 H   0  0  0  0  0  0  0  0  0  0  0  0
  -27.3246  -17.7438   21.9580 H   0  0  0  0  0  0  0  0  0  0  0  0
  -27.4596  -19.4457   19.9456 H   0  0  0  0  0  0  0  0  0  0  0  0
  -27.0673  -17.9933   24.6179 H   0  0  0  0  0  0  0  0  0  0  0  0
  -26.1106  -19.4072   24.9906 H   0  0  0  0  0  0  0  0  0  0  0  0
  -27.8495  -19.4611   25.1536 H   0  0  0  0  0  0  0  0  0  0  0  0
  -28.7240  -22.9705   16.6936 H   0  0  0  0  0  0  0  0  0  0  0  0
  -29.0888  -22.1001   18.1642 H   0  0  0  0  0  0  0  0  0  0  0  0
  -30.1317  -23.3988   17.6360 H   0  0  0  0  0  0  0  0  0  0  0  0
  -26.6978  -22.9785   21.3465 H   0  0  0  0  0  0  0  0  0  0  0  0
  -26.9100  -22.1389   19.7910 H   0  0  0  0  0  0  0  0  0  0  0  0
  -29.3021  -22.1802   20.0962 H   0  0  0  0  0  0  0  0  0  0  0  0
  -29.0430  -23.0972   21.6138 H   0  0  0  0  0  0  0  0  0  0  0  0
  -27.6436  -21.7489   24.6102 H   0  0  0  0  0  0  0  0  0  0  0  0
  -27.3332  -22.8339   23.2522 H   0  0  0  0  0  0  0  0  0  0  0  0
  -27.9474  -25.2158   21.5765 H   0  0  0  0  0  0  0  0  0  0  0  0
  -26.8544  -25.1294   20.2330 H   0  0  0  0  0  0  0  0  0  0  0  0
  -24.5441  -22.3600   24.1315 H   0  0  0  0  0  0  0  0  0  0  0  0
  -29.7859  -24.5571   19.8909 H   0  0  0  0  0  0  0  0  0  0  0  0
  -27.3428  -23.6877   18.4852 H   0  0  0  0  0  0  0  0  0  0  0  0
  -28.3936  -24.9265   17.9904 H   0  0  0  0  0  0  0  0  0  0  0  0
  -26.4446  -23.0407   25.7531 H   0  0  0  0  0  0  0  0  0  0  0  0
  1 25  1  0
  1 30  2  0
  1 81  1  0
  2  3  1  0
  2 25  1  0
  2 86  1  0
  2 87  1  0
  3  4  1  0
  3 88  1  0
  3 89  1  0
  4  5  1  0
  4 90  1  0
  4 91  1  0
  5  6  1  0
  5 26  1  0
  5 92  1  6
  6 25  1  0
  6 93  1  0
  6 94  1  0
  7  8  2  0
  7 26  1  0
  7 29  1  0
  8  9  1  0
  8 22  1  0
  9 10  1  0
  9 27  2  0
 10 11  2  0
 10 15  1  0
 11 12  1  0
 11 95  1  0
 12 13  2  0
 12 96  1  0
 13 14  1  0
 13 31  1  0
 14 15  2  0
 14 97  1  0
 15 98  1  0
 16 17  2  0
 16 21  1  0
 16 31  1  0
 17 18  1  0
 17 99  1  0
 18 19  2  0
 18100  1  0
 19 20  1  0
 19 24  1  0
 20 21  2  0
 20101  1  0
 21 23  1  0
 22 28  1  0
 22 32  2  0
 26 27  1  0
 28102  1  0
 28103  1  0
 29104  1  0
 29105  1  0
 33 34  1  0
 33 66  1  0
 33 70  2  0
 34 36  1  0
 34 59  1  0
 34106  1  6
 35 44  2  0
 35 45  1  0
 35 68  1  0
 36 56  1  0
 36107  1  0
 37 39  1  0
 37 47  1  0
 37 66  1  0
 37108  1  6
 38 43  2  0
 38 46  1  0
 38 47  1  0
 39 64  1  0
 39 67  2  0
 40 52  1  0
 40 53  2  0
 40 58  1  0
 41109  1  0
 41110  1  0
 41111  1  0
 42 43  1  0
 42 66  1  0
 42112  1  0
 42113  1  0
 43 44  1  0
 44114  1  0
 45 46  2  0
 45115  1  0
 46116  1  0
 47117  1  0
 47118  1  0
 48 41  1  0
 48 56  1  0
 48 65  1  0
 48119  1  1
 49 50  1  0
 49 53  1  0
 49 64  1  0
 49120  1  1
 50 51  1  0
 50121  1  0
 50122  1  0
 51 52  1  0
 51123  1  0
 51124  1  0
 52125  1  0
 52126  1  0
 53 54  1  0
 54 55  2  0
 54127  1  0
 55 57  1  0
 55128  1  0
 56 69  2  0
 57 58  2  0
 57129  1  0
 58130  1  0
 59 60  1  0
 59 61  1  0
 59 62  1  0
 60131  1  0
 60132  1  0
 60133  1  0
 61134  1  0
 61135  1  0
 61136  1  0
 62137  1  0
 62138  1  0
 62139  1  0
 63 65  1  0
 63140  1  0
 63141  1  0
 63142  1  0
 64143  1  0
 65144  1  0
 68 80  1  0
 71 72  1  0
 71 73  2  0
 71145  1  0
 72 74  2  0
 72146  1  0
 73 75  1  0
 73 83  1  0
 74 77  1  0
 74 83  1  0
 75147  1  0
 75148  1  0
 75149  1  0
 76 84  1  0
 76150  1  0
 76151  1  0
 76152  1  0
 77 78  1  0
 77153  1  0
 77154  1  0
 78155  1  0
 78156  1  0
 79 81  1  0
 79 83  1  0
 79157  1  0
 79158  1  0
 80 82  1  0
 80159  1  0
 80160  1  0
 81 85  1  0
 81161  1  6
 82 78  1  0
 82 84  1  0
 82162  1  6
 84163  1  0
 84164  1  0
 85165  1  0
M  CHG  1  84   1
M  ISO  4   1 100  68 101  80 101  81 100
M  END
$$$$
86
     RDKit          3D

148156  0  0  0  0  0  0  0  0999 V2000
  -30.7652  -14.3608   20.6636 C   0  0  0  0  0  0  0  0  0100  0  0
  -30.4392  -12.2669   19.3775 C   0  0  0  0  0  0  0  0  0101  0  0
  -29.4791  -12.5281   18.1977 C   0  0  0  0  0  0  0  0  0102  0  0
  -27.9985  -12.3963   18.6038 C   0  0  0  0  0  0  0  0  0103  0  0
  -27.6639  -13.2170   19.8820 C   0  0  2  0  0  0  0  0  0104  0  0
  -28.6795  -12.9602   21.0279 C   0  0  0  0  0  0  0  0  0105  0  0
  -25.2633  -13.8245   20.5754 C   0  0  0  0  0  0  0  0  0106  0  0
  -24.1645  -13.0409   20.9408 C   0  0  0  0  0  0  0  0  0107  0  0
  -24.6400  -11.7009   20.8697 C   0  0  0  0  0  0  0  0  0108  0  0
  -23.9005  -10.4085   21.0420 C   0  0  0  0  0  0  0  0  0109  0  0
  -24.3588   -9.4123   21.9123 C   0  0  0  0  0  0  0  0  0110  0  0
  -23.6296   -8.2350   22.0803 C   0  0  0  0  0  0  0  0  0111  0  0
  -22.4385   -8.0419   21.3657 C   0  0  0  0  0  0  0  0  0112  0  0
  -22.0103   -9.0167   20.4678 C   0  0  0  0  0  0  0  0  0113  0  0
  -22.7317  -10.1925   20.3102 C   0  0  0  0  0  0  0  0  0114  0  0
  -21.6857   -6.0709   22.5391 C   0  0  0  0  0  0  0  0  0115  0  0
  -21.4064   -6.5490   23.8264 C   0  0  0  0  0  0  0  0  0116  0  0
  -21.3635   -5.6677   24.9085 C   0  0  0  0  0  0  0  0  0117  0  0
  -21.5973   -4.3067   24.7088 C   0  0  0  0  0  0  0  0  0118  0  0
  -21.8700   -3.8284   23.4282 C   0  0  0  0  0  0  0  0  0119  0  0
  -21.9144   -4.7056   22.3460 C   0  0  0  0  0  0  0  0  0120  0  0
  -22.8194  -13.5263   21.1763 C   0  0  0  0  0  0  0  0  0121  0  0
  -22.1559   -4.2206   21.1063 F   0  0  0  0  0  0  0  0  0122  0  0
  -21.5628   -3.4510   25.7555 F   0  0  0  0  0  0  0  0  0123  0  0
  -30.0261  -13.1803   20.4553 N   0  0  0  0  0  0  0  0  0124  0  0
  -26.2911  -12.9356   20.3443 N   0  0  0  0  0  0  0  0  0125  0  0
  -25.9236  -11.6675   20.5847 N   0  0  0  0  0  0  0  0  0126  0  0
  -22.0708  -12.7905   22.0005 N   0  0  0  0  0  0  0  0  0127  0  0
  -25.4117  -15.1773   20.4097 N   0  0  0  0  0  0  0  0  0128  0  0
  -31.7916  -14.6724   20.0536 O   0  0  0  0  0  0  0  0  0129  0  0
  -21.6670   -6.9022   21.4423 O   0  0  0  0  0  0  0  0  0130  0  0
  -22.3946  -14.5564   20.6568 O   0  0  0  0  0  0  0  0  0131  0  0
  -24.6048  -31.8614   23.2223 C   0  0  0  0  0  0  0  0  0100  0  0
  -25.8822  -32.4841   23.8616 C   0  0  1  0  0  0  0  0  0101  0  0
  -27.2536  -27.5042   20.1156 C   0  0  0  0  0  0  0  0  0102  0  0
  -25.5726  -33.8762   24.2210 N   0  0  0  0  0  0  0  0  0103  0  0
  -23.4066  -30.4859   21.5461 C   0  0  2  0  0  0  0  0  0104  0  0
  -24.8467  -28.9636   20.1247 C   0  0  0  0  0  0  0  0  0105  0  0
  -22.7412  -29.4652   22.5052 C   0  0  0  0  0  0  0  0  0106  0  0
  -18.0167  -28.1302   22.8626 C   0  0  0  0  0  0  0  0  0107  0  0
  -24.1342  -36.7390   23.2568 C   0  0  0  0  0  0  0  0  0108  0  0
  -25.9141  -30.8882   21.3456 C   0  0  0  0  0  0  0  0  0109  0  0
  -25.9930  -29.5029   20.7208 C   0  0  0  0  0  0  0  0  0110  0  0
  -27.1758  -28.7612   20.7331 C   0  0  0  0  0  0  0  0  0111  0  0
  -26.1032  -26.9836   19.5230 C   0  0  0  0  0  0  0  0  0112  0  0
  -24.9097  -27.7011   19.5331 C   0  0  0  0  0  0  0  0  0113  0  0
  -23.5715  -29.7899   20.1582 C   0  0  0  0  0  0  0  0  0114  0  0
  -25.3990  -36.3212   24.0232 C   0  0  1  0  0  0  0  0  0115  0  0
  -20.5793  -28.3813   23.1004 C   0  0  2  0  0  0  0  0  0116  0  0
  -20.6548  -26.9392   22.5411 C   0  0  0  0  0  0  0  0  0117  0  0
  -19.5615  -26.6407   21.5143 C   0  0  0  0  0  0  0  0  0118  0  0
  -18.1797  -26.7818   22.1673 C   0  0  0  0  0  0  0  0  0119  0  0
  -19.1385  -28.8769   23.2988 C   0  0  0  0  0  0  0  0  0120  0  0
  -18.9183  -30.1286   23.8878 C   0  0  0  0  0  0  0  0  0121  0  0
  -17.6396  -30.6493   24.0352 C   0  0  0  0  0  0  0  0  0122  0  0
  -25.9153  -34.9582   23.4993 C   0  0  0  0  0  0  0  0  0123  0  0
  -16.5415  -29.9068   23.6254 C   0  0  0  0  0  0  0  0  0124  0  0
  -16.7331  -28.6521   23.0586 C   0  0  0  0  0  0  0  0  0125  0  0
  -26.4583  -31.6439   25.0683 C   0  0  0  0  0  0  0  0  0126  0  0
  -25.3807  -31.3179   26.1374 C   0  0  0  0  0  0  0  0  0127  0  0
  -27.0530  -30.3024   24.5680 C   0  0  0  0  0  0  0  0  0128  0  0
  -27.6014  -32.4281   25.7651 C   0  0  0  0  0  0  0  0  0129  0  0
  -27.5629  -37.2220   24.8621 C   0  0  0  0  0  0  0  0  0130  0  0
  -21.4133  -29.3375   22.3735 N   0  0  0  0  0  0  0  0  0131  0  0
  -26.4706  -37.3372   23.9061 N   0  0  0  0  0  0  0  0  0132  0  0
  -24.6674  -31.0544   22.1178 N   0  0  0  0  0  0  0  0  0133  0  0
  -23.4259  -28.8150   23.2971 O   0  0  0  0  0  0  0  0  0134  0  0
  -28.3948  -26.7345   20.0089 O   0  0  0  0  0  0  0  0  0135  0  0
  -26.5870  -34.9065   22.4671 O   0  0  0  0  0  0  0  0  0136  0  0
  -23.5365  -32.1254   23.7833 O   0  0  0  0  0  0  0  0  0137  0  0
  -31.8439  -17.5170   21.4796 C   0  0  0  0  0  0  0  0  0  0  0  0
  -29.8786  -17.8932   22.5119 C   0  0  0  0  0  0  0  0  0  0  0  0
  -30.5696  -16.9666   21.7628 C   0  0  0  0  0  0  0  0  0  0  0  0
  -31.8929  -18.7632   22.0645 C   0  0  0  0  0  0  0  0  0  0  0  0
  -32.9819  -19.7613   22.0785 C   0  0  0  0  0  0  0  0  0  0  0  0
  -30.3077  -20.2211   23.4590 C   0  0  0  0  0  0  0  0  0  0  0  0
  -29.9581  -21.3878   22.5415 C   0  0  0  0  0  0  0  0  0  1  0  0
  -30.6929  -18.9811   22.6895 N   0  0  0  0  0  0  0  0  0  0  0  0
  -30.0704  -15.7020   21.3636 N   0  0  0  0  0  0  0  0  0  0  0  0
  -31.4485  -12.4701   19.0860 H   0  0  0  0  0  0  0  0  0  0  0  0
  -30.3970  -11.2460   19.6950 H   0  0  0  0  0  0  0  0  0  0  0  0
  -29.6870  -11.8204   17.4226 H   0  0  0  0  0  0  0  0  0  0  0  0
  -29.6375  -13.5326   17.8649 H   0  0  0  0  0  0  0  0  0  0  0  0
  -27.7830  -11.3650   18.7904 H   0  0  0  0  0  0  0  0  0  0  0  0
  -27.4028  -12.7801   17.8021 H   0  0  0  0  0  0  0  0  0  0  0  0
  -27.7353  -14.2503   19.6136 H   0  0  0  0  0  0  0  0  0  0  0  0
  -28.5890  -11.9550   21.3832 H   0  0  0  0  0  0  0  0  0  0  0  0
  -28.5005  -13.6134   21.8562 H   0  0  0  0  0  0  0  0  0  0  0  0
  -25.2399   -9.5495   22.4318 H   0  0  0  0  0  0  0  0  0  0  0  0
  -23.9663   -7.5070   22.7297 H   0  0  0  0  0  0  0  0  0  0  0  0
  -21.1515   -8.8641   19.9162 H   0  0  0  0  0  0  0  0  0  0  0  0
  -22.4016  -10.9115   19.6476 H   0  0  0  0  0  0  0  0  0  0  0  0
  -21.2319   -7.5552   23.9750 H   0  0  0  0  0  0  0  0  0  0  0  0
  -21.1589   -6.0228   25.8556 H   0  0  0  0  0  0  0  0  0  0  0  0
  -22.0396   -2.8212   23.2809 H   0  0  0  0  0  0  0  0  0  0  0  0
  -22.4401  -11.9703   22.4008 H   0  0  0  0  0  0  0  0  0  0  0  0
  -21.1493  -13.0679   22.2082 H   0  0  0  0  0  0  0  0  0  0  0  0
  -24.6538  -15.7807   20.5848 H   0  0  0  0  0  0  0  0  0  0  0  0
  -26.2762  -15.5453   20.1156 H   0  0  0  0  0  0  0  0  0  0  0  0
  -26.6778  -32.4663   23.1464 H   0  0  0  0  0  0  0  0  0  0  0  0
  -25.0747  -34.0282   25.0566 H   0  0  0  0  0  0  0  0  0  0  0  0
  -22.7881  -31.3489   21.4131 H   0  0  0  0  0  0  0  0  0  0  0  0
  -23.3854  -35.9823   23.3648 H   0  0  0  0  0  0  0  0  0  0  0  0
  -24.3696  -36.8624   22.2204 H   0  0  0  0  0  0  0  0  0  0  0  0
  -23.7669  -37.6632   23.6516 H   0  0  0  0  0  0  0  0  0  0  0  0
  -25.9445  -31.6237   20.5691 H   0  0  0  0  0  0  0  0  0  0  0  0
  -26.7436  -31.0079   22.0108 H   0  0  0  0  0  0  0  0  0  0  0  0
  -28.0090  -29.1452   21.2057 H   0  0  0  0  0  0  0  0  0  0  0  0
  -26.1369  -26.0560   19.0719 H   0  0  0  0  0  0  0  0  0  0  0  0
  -24.0652  -27.2961   19.0997 H   0  0  0  0  0  0  0  0  0  0  0  0
  -23.6156  -30.5365   19.3930 H   0  0  0  0  0  0  0  0  0  0  0  0
  -22.7355  -29.1425   19.9945 H   0  0  0  0  0  0  0  0  0  0  0  0
  -25.1353  -36.2335   25.0565 H   0  0  0  0  0  0  0  0  0  0  0  0
  -21.0070  -28.3206   24.0793 H   0  0  0  0  0  0  0  0  0  0  0  0
  -20.5555  -26.2518   23.3550 H   0  0  0  0  0  0  0  0  0  0  0  0
  -21.5974  -26.8362   22.0454 H   0  0  0  0  0  0  0  0  0  0  0  0
  -19.6810  -25.6422   21.1488 H   0  0  0  0  0  0  0  0  0  0  0  0
  -19.6406  -27.3343   20.7034 H   0  0  0  0  0  0  0  0  0  0  0  0
  -17.4282  -26.6888   21.4113 H   0  0  0  0  0  0  0  0  0  0  0  0
  -18.0803  -26.0130   22.9049 H   0  0  0  0  0  0  0  0  0  0  0  0
  -19.7265  -30.6774   24.2204 H   0  0  0  0  0  0  0  0  0  0  0  0
  -17.5064  -31.5856   24.4483 H   0  0  0  0  0  0  0  0  0  0  0  0
  -15.5878  -30.2839   23.7407 H   0  0  0  0  0  0  0  0  0  0  0  0
  -15.9120  -28.0941   22.7766 H   0  0  0  0  0  0  0  0  0  0  0  0
  -24.5787  -30.7757   25.6817 H   0  0  0  0  0  0  0  0  0  0  0  0
  -25.0041  -32.2289   26.5536 H   0  0  0  0  0  0  0  0  0  0  0  0
  -25.8166  -30.7245   26.9138 H   0  0  0  0  0  0  0  0  0  0  0  0
  -26.2892  -29.7335   24.0803 H   0  0  0  0  0  0  0  0  0  0  0  0
  -27.4336  -29.7484   25.4006 H   0  0  0  0  0  0  0  0  0  0  0  0
  -27.8466  -30.4994   23.8779 H   0  0  0  0  0  0  0  0  0  0  0  0
  -27.2251  -33.3632   26.1242 H   0  0  0  0  0  0  0  0  0  0  0  0
  -28.3902  -32.6065   25.0645 H   0  0  0  0  0  0  0  0  0  0  0  0
  -27.9772  -31.8555   26.5872 H   0  0  0  0  0  0  0  0  0  0  0  0
  -28.2744  -38.0016   24.6863 H   0  0  0  0  0  0  0  0  0  0  0  0
  -28.0396  -36.2711   24.7461 H   0  0  0  0  0  0  0  0  0  0  0  0
  -27.1773  -37.3087   25.8564 H   0  0  0  0  0  0  0  0  0  0  0  0
  -20.9627  -29.9365   21.7352 H   0  0  0  0  0  0  0  0  0  0  0  0
  -26.0447  -38.2561   24.0273 H   0  0  0  0  0  0  0  0  0  0  0  0
  -32.5967  -17.0673   20.9354 H   0  0  0  0  0  0  0  0  0  0  0  0
  -28.9184  -17.7871   22.8749 H   0  0  0  0  0  0  0  0  0  0  0  0
  -33.8200  -19.3824   21.5318 H   0  0  0  0  0  0  0  0  0  0  0  0
  -33.2740  -19.9563   23.0892 H   0  0  0  0  0  0  0  0  0  0  0  0
  -32.6404  -20.6681   21.6246 H   0  0  0  0  0  0  0  0  0  0  0  0
  -29.4579  -19.9969   24.0693 H   0  0  0  0  0  0  0  0  0  0  0  0
  -31.1494  -20.5124   24.0519 H   0  0  0  0  0  0  0  0  0  0  0  0
  -29.1914  -20.8441   22.0301 H   0  0  0  0  0  0  0  0  0  0  0  0
  -30.8492  -21.8670   22.8895 H   0  0  0  0  0  0  0  0  0  0  0  0
  -29.1074  -15.5933   21.5372 H   0  0  0  0  0  0  0  0  0  0  0  0
  1 25  1  0
  1 30  2  0
  1 79  1  0
  2  3  1  0
  2 25  1  0
  2 80  1  0
  2 81  1  0
  3  4  1  0
  3 82  1  0
  3 83  1  0
  4  5  1  0
  4 84  1  0
  4 85  1  0
  5  6  1  0
  5 26  1  0
  5 86  1  6
  6 25  1  0
  6 87  1  0
  6 88  1  0
  7  8  2  0
  7 26  1  0
  7 29  1  0
  8  9  1  0
  8 22  1  0
  9 10  1  0
  9 27  2  0
 10 11  2  0
 10 15  1  0
 11 12  1  0
 11 89  1  0
 12 13  2  0
 12 90  1  0
 13 14  1  0
 13 31  1  0
 14 15  2  0
 14 91  1  0
 15 92  1  0
 16 17  2  0
 16 21  1  0
 16 31  1  0
 17 18  1  0
 17 93  1  0
 18 19  2  0
 18 94  1  0
 19 20  1  0
 19 24  1  0
 20 21  2  0
 20 95  1  0
 21 23  1  0
 22 28  1  0
 22 32  2  0
 26 27  1  0
 28 96  1  0
 28 97  1  0
 29 98  1  0
 29 99  1  0
 33 34  1  0
 33 66  1  0
 33 70  2  0
 34 36  1  0
 34 59  1  0
 34100  1  6
 35 44  2  0
 35 45  1  0
 35 68  1  0
 36 56  1  0
 36101  1  0
 37 39  1  0
 37 47  1  0
 37 66  1  0
 37102  1  6
 38 43  2  0
 38 46  1  0
 38 47  1  0
 39 64  1  0
 39 67  2  0
 40 52  1  0
 40 53  2  0
 40 58  1  0
 41103  1  0
 41104  1  0
 41105  1  0
 42 43  1  0
 42 66  1  0
 42106  1  0
 42107  1  0
 43 44  1  0
 44108  1  0
 45 46  2  0
 45109  1  0
 46110  1  0
 47111  1  0
 47112  1  0
 48 41  1  0
 48 56  1  0
 48 65  1  0
 48113  1  1
 49 50  1  0
 49 53  1  0
 49 64  1  0
 49114  1  1
 50 51  1  0
 50115  1  0
 50116  1  0
 51 52  1  0
 51117  1  0
 51118  1  0
 52119  1  0
 52120  1  0
 53 54  1  0
 54 55  2  0
 54121  1  0
 55 57  1  0
 55122  1  0
 56 69  2  0
 57 58  2  0
 57123  1  0
 58124  1  0
 59 60  1  0
 59 61  1  0
 59 62  1  0
 60125  1  0
 60126  1  0
 60127  1  0
 61128  1  0
 61129  1  0
 61130  1  0
 62131  1  0
 62132  1  0
 62133  1  0
 63 65  1  0
 63134  1  0
 63135  1  0
 63136  1  0
 64137  1  0
 65138  1  0
 68 77  1  0
 71 73  1  0
 71 74  2  0
 71139  1  0
 72 73  2  0
 72 78  1  0
 72140  1  0
 73 79  1  0
 74 75  1  0
 74 78  1  0
 75141  1  0
 75142  1  0
 75143  1  0
 76 77  1  0
 76 78  1  0
 76144  1  0
 76145  1  0
 77146  1  0
 77147  1  0
 79148  1  0
M  ISO  4   1 100  68 101  77 101  79 100
M  END
$$$$
87
     RDKit          3D

164171  0  0  0  0  0  0  0  0999 V2000
  -30.7652  -14.3608   20.6636 C   0  0  0  0  0  0  0  0  0100  0  0
  -30.4392  -12.2669   19.3775 C   0  0  0  0  0  0  0  0  0101  0  0
  -29.4791  -12.5281   18.1977 C   0  0  0  0  0  0  0  0  0102  0  0
  -27.9985  -12.3963   18.6038 C   0  0  0  0  0  0  0  0  0103  0  0
  -27.6639  -13.2170   19.8820 C   0  0  2  0  0  0  0  0  0104  0  0
  -28.6795  -12.9602   21.0279 C   0  0  0  0  0  0  0  0  0105  0  0
  -25.2633  -13.8245   20.5754 C   0  0  0  0  0  0  0  0  0106  0  0
  -24.1645  -13.0409   20.9408 C   0  0  0  0  0  0  0  0  0107  0  0
  -24.6400  -11.7009   20.8697 C   0  0  0  0  0  0  0  0  0108  0  0
  -23.9005  -10.4085   21.0420 C   0  0  0  0  0  0  0  0  0109  0  0
  -24.3588   -9.4123   21.9123 C   0  0  0  0  0  0  0  0  0110  0  0
  -23.6296   -8.2350   22.0803 C   0  0  0  0  0  0  0  0  0111  0  0
  -22.4385   -8.0419   21.3657 C   0  0  0  0  0  0  0  0  0112  0  0
  -22.0103   -9.0167   20.4678 C   0  0  0  0  0  0  0  0  0113  0  0
  -22.7317  -10.1925   20.3102 C   0  0  0  0  0  0  0  0  0114  0  0
  -21.6857   -6.0709   22.5391 C   0  0  0  0  0  0  0  0  0115  0  0
  -21.4064   -6.5490   23.8264 C   0  0  0  0  0  0  0  0  0116  0  0
  -21.3635   -5.6677   24.9085 C   0  0  0  0  0  0  0  0  0117  0  0
  -21.5973   -4.3067   24.7088 C   0  0  0  0  0  0  0  0  0118  0  0
  -21.8700   -3.8284   23.4282 C   0  0  0  0  0  0  0  0  0119  0  0
  -21.9144   -4.7056   22.3460 C   0  0  0  0  0  0  0  0  0120  0  0
  -22.8194  -13.5263   21.1763 C   0  0  0  0  0  0  0  0  0121  0  0
  -22.1559   -4.2206   21.1063 F   0  0  0  0  0  0  0  0  0122  0  0
  -21.5628   -3.4510   25.7555 F   0  0  0  0  0  0  0  0  0123  0  0
  -30.0261  -13.1803   20.4553 N   0  0  0  0  0  0  0  0  0124  0  0
  -26.2911  -12.9356   20.3443 N   0  0  0  0  0  0  0  0  0125  0  0
  -25.9236  -11.6675   20.5847 N   0  0  0  0  0  0  0  0  0126  0  0
  -22.0708  -12.7905   22.0005 N   0  0  0  0  0  0  0  0  0127  0  0
  -25.4117  -15.1773   20.4097 N   0  0  0  0  0  0  0  0  0128  0  0
  -31.7916  -14.6724   20.0536 O   0  0  0  0  0  0  0  0  0129  0  0
  -21.6670   -6.9022   21.4423 O   0  0  0  0  0  0  0  0  0130  0  0
  -22.3946  -14.5564   20.6568 O   0  0  0  0  0  0  0  0  0131  0  0
  -24.6048  -31.8614   23.2223 C   0  0  0  0  0  0  0  0  0100  0  0
  -25.8822  -32.4841   23.8616 C   0  0  1  0  0  0  0  0  0101  0  0
  -27.2536  -27.5042   20.1156 C   0  0  0  0  0  0  0  0  0102  0  0
  -25.5726  -33.8762   24.2210 N   0  0  0  0  0  0  0  0  0103  0  0
  -23.4066  -30.4859   21.5461 C   0  0  2  0  0  0  0  0  0104  0  0
  -24.8467  -28.9636   20.1247 C   0  0  0  0  0  0  0  0  0105  0  0
  -22.7412  -29.4652   22.5052 C   0  0  0  0  0  0  0  0  0106  0  0
  -18.0167  -28.1302   22.8626 C   0  0  0  0  0  0  0  0  0107  0  0
  -24.1342  -36.7390   23.2568 C   0  0  0  0  0  0  0  0  0108  0  0
  -25.9141  -30.8882   21.3456 C   0  0  0  0  0  0  0  0  0109  0  0
  -25.9930  -29.5029   20.7208 C   0  0  0  0  0  0  0  0  0110  0  0
  -27.1758  -28.7612   20.7331 C   0  0  0  0  0  0  0  0  0111  0  0
  -26.1032  -26.9836   19.5230 C   0  0  0  0  0  0  0  0  0112  0  0
  -24.9097  -27.7011   19.5331 C   0  0  0  0  0  0  0  0  0113  0  0
  -23.5715  -29.7899   20.1582 C   0  0  0  0  0  0  0  0  0114  0  0
  -25.3990  -36.3212   24.0232 C   0  0  1  0  0  0  0  0  0115  0  0
  -20.5793  -28.3813   23.1004 C   0  0  2  0  0  0  0  0  0116  0  0
  -20.6548  -26.9392   22.5411 C   0  0  0  0  0  0  0  0  0117  0  0
  -19.5615  -26.6407   21.5143 C   0  0  0  0  0  0  0  0  0118  0  0
  -18.1797  -26.7818   22.1673 C   0  0  0  0  0  0  0  0  0119  0  0
  -19.1385  -28.8769   23.2988 C   0  0  0  0  0  0  0  0  0120  0  0
  -18.9183  -30.1286   23.8878 C   0  0  0  0  0  0  0  0  0121  0  0
  -17.6396  -30.6493   24.0352 C   0  0  0  0  0  0  0  0  0122  0  0
  -25.9153  -34.9582   23.4993 C   0  0  0  0  0  0  0  0  0123  0  0
  -16.5415  -29.9068   23.6254 C   0  0  0  0  0  0  0  0  0124  0  0
  -16.7331  -28.6521   23.0586 C   0  0  0  0  0  0  0  0  0125  0  0
  -26.4583  -31.6439   25.0683 C   0  0  0  0  0  0  0  0  0126  0  0
  -25.3807  -31.3179   26.1374 C   0  0  0  0  0  0  0  0  0127  0  0
  -27.0530  -30.3024   24.5680 C   0  0  0  0  0  0  0  0  0128  0  0
  -27.6014  -32.4281   25.7651 C   0  0  0  0  0  0  0  0  0129  0  0
  -27.5629  -37.2220   24.8621 C   0  0  0  0  0  0  0  0  0130  0  0
  -21.4133  -29.3375   22.3735 N   0  0  0  0  0  0  0  0  0131  0  0
  -26.4706  -37.3372   23.9061 N   0  0  0  0  0  0  0  0  0132  0  0
  -24.6674  -31.0544   22.1178 N   0  0  0  0  0  0  0  0  0133  0  0
  -23.4259  -28.8150   23.2971 O   0  0  0  0  0  0  0  0  0134  0  0
  -28.3948  -26.7345   20.0089 O   0  0  0  0  0  0  0  0  0135  0  0
  -26.5870  -34.9065   22.4671 O   0  0  0  0  0  0  0  0  0136  0  0
  -23.5365  -32.1254   23.7833 O   0  0  0  0  0  0  0  0  0137  0  0
  -35.1721  -19.2084   20.9337 C   0  0  0  0  0  0  0  0  0  0  0  0
  -31.6301  -18.8236   22.1396 C   0  0  0  0  0  0  0  0  0  0  0  0
  -34.4478  -22.9975   22.9591 C   0  0  0  0  0  0  0  0  0  0  0  0
  -32.8838  -20.1953   20.3826 C   0  0  0  0  0  0  0  0  0  0  0  0
  -33.6106  -24.1658   19.4510 C   0  0  0  0  0  0  0  0  0  0  0  0
  -34.3754  -24.1662   20.7615 C   0  0  0  0  0  0  0  0  0  0  0  0
  -34.8679  -21.7272   20.8588 C   0  0  0  0  0  0  0  0  0  0  0  0
  -30.8682  -18.7938   19.7567 C   0  0  0  0  0  0  0  0  0  1  0  0
  -34.2050  -20.3734   21.1644 C   0  0  2  0  0  0  0  0  0  0  0  0
  -32.0905  -18.9016   20.6832 C   0  0  2  0  0  0  0  0  0  0  0  0
  -32.1832  -24.0589   19.6503 N   0  0  0  0  0  0  0  0  0  0  0  0
  -34.1484  -22.8610   21.4857 N   0  0  1  0  0  0  0  0  0  0  0  0
  -31.4485  -12.4701   19.0860 H   0  0  0  0  0  0  0  0  0  0  0  0
  -30.3970  -11.2460   19.6950 H   0  0  0  0  0  0  0  0  0  0  0  0
  -29.6870  -11.8204   17.4226 H   0  0  0  0  0  0  0  0  0  0  0  0
  -29.6375  -13.5326   17.8649 H   0  0  0  0  0  0  0  0  0  0  0  0
  -27.7830  -11.3650   18.7904 H   0  0  0  0  0  0  0  0  0  0  0  0
  -27.4028  -12.7801   17.8021 H   0  0  0  0  0  0  0  0  0  0  0  0
  -27.7353  -14.2503   19.6136 H   0  0  0  0  0  0  0  0  0  0  0  0
  -28.5890  -11.9550   21.3832 H   0  0  0  0  0  0  0  0  0  0  0  0
  -28.5005  -13.6134   21.8562 H   0  0  0  0  0  0  0  0  0  0  0  0
  -25.2399   -9.5495   22.4318 H   0  0  0  0  0  0  0  0  0  0  0  0
  -23.9663   -7.5070   22.7297 H   0  0  0  0  0  0  0  0  0  0  0  0
  -21.1515   -8.8641   19.9162 H   0  0  0  0  0  0  0  0  0  0  0  0
  -22.4016  -10.9115   19.6476 H   0  0  0  0  0  0  0  0  0  0  0  0
  -21.2319   -7.5552   23.9750 H   0  0  0  0  0  0  0  0  0  0  0  0
  -21.1589   -6.0228   25.8556 H   0  0  0  0  0  0  0  0  0  0  0  0
  -22.0396   -2.8212   23.2809 H   0  0  0  0  0  0  0  0  0  0  0  0
  -22.4401  -11.9703   22.4008 H   0  0  0  0  0  0  0  0  0  0  0  0
  -21.1493  -13.0679   22.2082 H   0  0  0  0  0  0  0  0  0  0  0  0
  -24.6538  -15.7807   20.5848 H   0  0  0  0  0  0  0  0  0  0  0  0
  -26.2762  -15.5453   20.1156 H   0  0  0  0  0  0  0  0  0  0  0  0
  -26.6778  -32.4663   23.1464 H   0  0  0  0  0  0  0  0  0  0  0  0
  -25.0747  -34.0282   25.0566 H   0  0  0  0  0  0  0  0  0  0  0  0
  -22.7881  -31.3489   21.4131 H   0  0  0  0  0  0  0  0  0  0  0  0
  -23.3854  -35.9823   23.3648 H   0  0  0  0  0  0  0  0  0  0  0  0
  -24.3696  -36.8624   22.2204 H   0  0  0  0  0  0  0  0  0  0  0  0
  -23.7669  -37.6632   23.6516 H   0  0  0  0  0  0  0  0  0  0  0  0
  -25.9445  -31.6237   20.5691 H   0  0  0  0  0  0  0  0  0  0  0  0
  -26.7436  -31.0079   22.0108 H   0  0  0  0  0  0  0  0  0  0  0  0
  -28.0090  -29.1452   21.2057 H   0  0  0  0  0  0  0  0  0  0  0  0
  -26.1369  -26.0560   19.0719 H   0  0  0  0  0  0  0  0  0  0  0  0
  -24.0652  -27.2961   19.0997 H   0  0  0  0  0  0  0  0  0  0  0  0
  -23.6156  -30.5365   19.3930 H   0  0  0  0  0  0  0  0  0  0  0  0
  -22.7355  -29.1425   19.9945 H   0  0  0  0  0  0  0  0  0  0  0  0
  -25.1353  -36.2335   25.0565 H   0  0  0  0  0  0  0  0  0  0  0  0
  -21.0070  -28.3206   24.0793 H   0  0  0  0  0  0  0  0  0  0  0  0
  -20.5555  -26.2518   23.3550 H   0  0  0  0  0  0  0  0  0  0  0  0
  -21.5974  -26.8362   22.0454 H   0  0  0  0  0  0  0  0  0  0  0  0
  -19.6810  -25.6422   21.1488 H   0  0  0  0  0  0  0  0  0  0  0  0
  -19.6406  -27.3343   20.7034 H   0  0  0  0  0  0  0  0  0  0  0  0
  -17.4282  -26.6888   21.4113 H   0  0  0  0  0  0  0  0  0  0  0  0
  -18.0803  -26.0130   22.9049 H   0  0  0  0  0  0  0  0  0  0  0  0
  -19.7265  -30.6774   24.2204 H   0  0  0  0  0  0  0  0  0  0  0  0
  -17.5064  -31.5856   24.4483 H   0  0  0  0  0  0  0  0  0  0  0  0
  -15.5878  -30.2839   23.7407 H   0  0  0  0  0  0  0  0  0  0  0  0
  -15.9120  -28.0941   22.7766 H   0  0  0  0  0  0  0  0  0  0  0  0
  -24.5787  -30.7757   25.6817 H   0  0  0  0  0  0  0  0  0  0  0  0
  -25.0041  -32.2289   26.5536 H   0  0  0  0  0  0  0  0  0  0  0  0
  -25.8166  -30.7245   26.9138 H   0  0  0  0  0  0  0  0  0  0  0  0
  -26.2892  -29.7335   24.0803 H   0  0  0  0  0  0  0  0  0  0  0  0
  -27.4336  -29.7484   25.4006 H   0  0  0  0  0  0  0  0  0  0  0  0
  -27.8466  -30.4994   23.8779 H   0  0  0  0  0  0  0  0  0  0  0  0
  -27.2251  -33.3632   26.1242 H   0  0  0  0  0  0  0  0  0  0  0  0
  -28.3902  -32.6065   25.0645 H   0  0  0  0  0  0  0  0  0  0  0  0
  -27.9772  -31.8555   26.5872 H   0  0  0  0  0  0  0  0  0  0  0  0
  -28.2744  -38.0016   24.6863 H   0  0  0  0  0  0  0  0  0  0  0  0
  -28.0396  -36.2711   24.7461 H   0  0  0  0  0  0  0  0  0  0  0  0
  -27.1773  -37.3087   25.8564 H   0  0  0  0  0  0  0  0  0  0  0  0
  -20.9627  -29.9365   21.7352 H   0  0  0  0  0  0  0  0  0  0  0  0
  -26.0447  -38.2561   24.0273 H   0  0  0  0  0  0  0  0  0  0  0  0
  -34.6781  -18.2855   21.1555 H   0  0  0  0  0  0  0  0  0  0  0  0
  -36.0234  -19.3198   21.5723 H   0  0  0  0  0  0  0  0  0  0  0  0
  -35.4904  -19.2060   19.9121 H   0  0  0  0  0  0  0  0  0  0  0  0
  -32.4791  -18.8984   22.7865 H   0  0  0  0  0  0  0  0  0  0  0  0
  -31.1348  -17.8901   22.3076 H   0  0  0  0  0  0  0  0  0  0  0  0
  -30.9543  -19.6277   22.3436 H   0  0  0  0  0  0  0  0  0  0  0  0
  -33.9040  -23.8282   23.3581 H   0  0  0  0  0  0  0  0  0  0  0  0
  -35.4966  -23.1587   23.0965 H   0  0  0  0  0  0  0  0  0  0  0  0
  -34.1550  -22.1024   23.4670 H   0  0  0  0  0  0  0  0  0  0  0  0
  -33.1172  -20.2017   19.3384 H   0  0  0  0  0  0  0  0  0  0  0  0
  -32.2523  -21.0012   20.6934 H   0  0  0  0  0  0  0  0  0  0  0  0
  -33.9390  -23.3358   18.8610 H   0  0  0  0  0  0  0  0  0  0  0  0
  -33.8041  -25.0957   18.9582 H   0  0  0  0  0  0  0  0  0  0  0  0
  -34.0335  -24.9756   21.3722 H   0  0  0  0  0  0  0  0  0  0  0  0
  -35.4200  -24.2824   20.5612 H   0  0  0  0  0  0  0  0  0  0  0  0
  -34.8811  -21.8722   19.7987 H   0  0  0  0  0  0  0  0  0  0  0  0
  -35.8584  -21.7049   21.2630 H   0  0  0  0  0  0  0  0  0  0  0  0
  -30.1259  -18.1285   20.1456 H   0  0  0  0  0  0  0  0  0  0  0  0
  -31.0602  -18.3994   18.7808 H   0  0  0  0  0  0  0  0  0  0  0  0
  -33.9526  -20.3682   22.2042 H   0  0  0  0  0  0  0  0  0  0  0  0
  -32.7574  -18.0839   20.5056 H   0  0  0  0  0  0  0  0  0  0  0  0
  -31.5142  -24.7806   19.6781 H   0  0  0  0  0  0  0  0  0  0  0  0
  -33.1575  -22.6355   21.3987 H   0  0  0  0  0  0  0  0  0  0  0  0
  1 25  1  0
  1 30  2  0
  1 81  1  0
  2  3  1  0
  2 25  1  0
  2 83  1  0
  2 84  1  0
  3  4  1  0
  3 85  1  0
  3 86  1  0
  4  5  1  0
  4 87  1  0
  4 88  1  0
  5  6  1  0
  5 26  1  0
  5 89  1  6
  6 25  1  0
  6 90  1  0
  6 91  1  0
  7  8  2  0
  7 26  1  0
  7 29  1  0
  8  9  1  0
  8 22  1  0
  9 10  1  0
  9 27  2  0
 10 11  2  0
 10 15  1  0
 11 12  1  0
 11 92  1  0
 12 13  2  0
 12 93  1  0
 13 14  1  0
 13 31  1  0
 14 15  2  0
 14 94  1  0
 15 95  1  0
 16 17  2  0
 16 21  1  0
 16 31  1  0
 17 18  1  0
 17 96  1  0
 18 19  2  0
 18 97  1  0
 19 20  1  0
 19 24  1  0
 20 21  2  0
 20 98  1  0
 21 23  1  0
 22 28  1  0
 22 32  2  0
 26 27  1  0
 28 99  1  0
 28100  1  0
 29101  1  0
 29102  1  0
 33 34  1  0
 33 66  1  0
 33 70  2  0
 34 36  1  0
 34 59  1  0
 34103  1  6
 35 44  2  0
 35 45  1  0
 35 68  1  0
 36 56  1  0
 36104  1  0
 37 39  1  0
 37 47  1  0
 37 66  1  0
 37105  1  6
 38 43  2  0
 38 46  1  0
 38 47  1  0
 39 64  1  0
 39 67  2  0
 40 52  1  0
 40 53  2  0
 40 58  1  0
 41106  1  0
 41107  1  0
 41108  1  0
 42 43  1  0
 42 66  1  0
 42109  1  0
 42110  1  0
 43 44  1  0
 44111  1  0
 45 46  2  0
 45112  1  0
 46113  1  0
 47114  1  0
 47115  1  0
 48 41  1  0
 48 56  1  0
 48 65  1  0
 48116  1  1
 49 50  1  0
 49 53  1  0
 49 64  1  0
 49117  1  1
 50 51  1  0
 50118  1  0
 50119  1  0
 51 52  1  0
 51120  1  0
 51121  1  0
 52122  1  0
 52123  1  0
 53 54  1  0
 54 55  2  0
 54124  1  0
 55 57  1  0
 55125  1  0
 56 69  2  0
 57 58  2  0
 57126  1  0
 58127  1  0
 59 60  1  0
 59 61  1  0
 59 62  1  0
 60128  1  0
 60129  1  0
 60130  1  0
 61131  1  0
 61132  1  0
 61133  1  0
 62134  1  0
 62135  1  0
 62136  1  0
 63 65  1  0
 63137  1  0
 63138  1  0
 63139  1  0
 64140  1  0
 65141  1  0
 68 78  1  0
 71142  1  0
 71143  1  0
 71144  1  0
 72145  1  0
 72146  1  0
 72147  1  0
 73148  1  0
 73149  1  0
 73150  1  0
 74 79  1  0
 74 80  1  0
 74151  1  0
 74152  1  0
 75 76  1  0
 75 81  1  0
 75153  1  0
 75154  1  0
 76 82  1  0
 76155  1  0
 76156  1  0
 77 79  1  0
 77 82  1  0
 77157  1  0
 77158  1  0
 78 80  1  0
 78159  1  0
 78160  1  0
 79 71  1  0
 79161  1  1
 80 72  1  0
 80162  1  6
 81163  1  0
 82 73  1  0
 82164  1  1
M  CHG  1  82   1
M  ISO  4   1 100  68 101  78 101  81 100
M  END
$$$$
88
     RDKit          3D

169177  0  0  0  0  0  0  0  0999 V2000
  -30.7652  -14.3608   20.6636 C   0  0  0  0  0  0  0  0  0100  0  0
  -30.4392  -12.2669   19.3775 C   0  0  0  0  0  0  0  0  0101  0  0
  -29.4791  -12.5281   18.1977 C   0  0  0  0  0  0  0  0  0102  0  0
  -27.9985  -12.3963   18.6038 C   0  0  0  0  0  0  0  0  0103  0  0
  -27.6639  -13.2170   19.8820 C   0  0  2  0  0  0  0  0  0104  0  0
  -28.6795  -12.9602   21.0279 C   0  0  0  0  0  0  0  0  0105  0  0
  -25.2633  -13.8245   20.5754 C   0  0  0  0  0  0  0  0  0106  0  0
  -24.1645  -13.0409   20.9408 C   0  0  0  0  0  0  0  0  0107  0  0
  -24.6400  -11.7009   20.8697 C   0  0  0  0  0  0  0  0  0108  0  0
  -23.9005  -10.4085   21.0420 C   0  0  0  0  0  0  0  0  0109  0  0
  -24.3588   -9.4123   21.9123 C   0  0  0  0  0  0  0  0  0110  0  0
  -23.6296   -8.2350   22.0803 C   0  0  0  0  0  0  0  0  0111  0  0
  -22.4385   -8.0419   21.3657 C   0  0  0  0  0  0  0  0  0112  0  0
  -22.0103   -9.0167   20.4678 C   0  0  0  0  0  0  0  0  0113  0  0
  -22.7317  -10.1925   20.3102 C   0  0  0  0  0  0  0  0  0114  0  0
  -21.6857   -6.0709   22.5391 C   0  0  0  0  0  0  0  0  0115  0  0
  -21.4064   -6.5490   23.8264 C   0  0  0  0  0  0  0  0  0116  0  0
  -21.3635   -5.6677   24.9085 C   0  0  0  0  0  0  0  0  0117  0  0
  -21.5973   -4.3067   24.7088 C   0  0  0  0  0  0  0  0  0118  0  0
  -21.8700   -3.8284   23.4282 C   0  0  0  0  0  0  0  0  0119  0  0
  -21.9144   -4.7056   22.3460 C   0  0  0  0  0  0  0  0  0120  0  0
  -22.8194  -13.5263   21.1763 C   0  0  0  0  0  0  0  0  0121  0  0
  -22.1559   -4.2206   21.1063 F   0  0  0  0  0  0  0  0  0122  0  0
  -21.5628   -3.4510   25.7555 F   0  0  0  0  0  0  0  0  0123  0  0
  -30.0261  -13.1803   20.4553 N   0  0  0  0  0  0  0  0  0124  0  0
  -26.2911  -12.9356   20.3443 N   0  0  0  0  0  0  0  0  0125  0  0
  -25.9236  -11.6675   20.5847 N   0  0  0  0  0  0  0  0  0126  0  0
  -22.0708  -12.7905   22.0005 N   0  0  0  0  0  0  0  0  0127  0  0
  -25.4117  -15.1773   20.4097 N   0  0  0  0  0  0  0  0  0128  0  0
  -31.7916  -14.6724   20.0536 O   0  0  0  0  0  0  0  0  0129  0  0
  -21.6670   -6.9022   21.4423 O   0  0  0  0  0  0  0  0  0130  0  0
  -22.3946  -14.5564   20.6568 O   0  0  0  0  0  0  0  0  0131  0  0
  -24.6048  -31.8614   23.2223 C   0  0  0  0  0  0  0  0  0100  0  0
  -25.8822  -32.4841   23.8616 C   0  0  1  0  0  0  0  0  0101  0  0
  -27.2536  -27.5042   20.1156 C   0  0  0  0  0  0  0  0  0102  0  0
  -25.5726  -33.8762   24.2210 N   0  0  0  0  0  0  0  0  0103  0  0
  -23.4066  -30.4859   21.5461 C   0  0  2  0  0  0  0  0  0104  0  0
  -24.8467  -28.9636   20.1247 C   0  0  0  0  0  0  0  0  0105  0  0
  -22.7412  -29.4652   22.5052 C   0  0  0  0  0  0  0  0  0106  0  0
  -18.0167  -28.1302   22.8626 C   0  0  0  0  0  0  0  0  0107  0  0
  -24.1342  -36.7390   23.2568 C   0  0  0  0  0  0  0  0  0108  0  0
  -25.9141  -30.8882   21.3456 C   0  0  0  0  0  0  0  0  0109  0  0
  -25.9930  -29.5029   20.7208 C   0  0  0  0  0  0  0  0  0110  0  0
  -27.1758  -28.7612   20.7331 C   0  0  0  0  0  0  0  0  0111  0  0
  -26.1032  -26.9836   19.5230 C   0  0  0  0  0  0  0  0  0112  0  0
  -24.9097  -27.7011   19.5331 C   0  0  0  0  0  0  0  0  0113  0  0
  -23.5715  -29.7899   20.1582 C   0  0  0  0  0  0  0  0  0114  0  0
  -25.3990  -36.3212   24.0232 C   0  0  1  0  0  0  0  0  0115  0  0
  -20.5793  -28.3813   23.1004 C   0  0  2  0  0  0  0  0  0116  0  0
  -20.6548  -26.9392   22.5411 C   0  0  0  0  0  0  0  0  0117  0  0
  -19.5615  -26.6407   21.5143 C   0  0  0  0  0  0  0  0  0118  0  0
  -18.1797  -26.7818   22.1673 C   0  0  0  0  0  0  0  0  0119  0  0
  -19.1385  -28.8769   23.2988 C   0  0  0  0  0  0  0  0  0120  0  0
  -18.9183  -30.1286   23.8878 C   0  0  0  0  0  0  0  0  0121  0  0
  -17.6396  -30.6493   24.0352 C   0  0  0  0  0  0  0  0  0122  0  0
  -25.9153  -34.9582   23.4993 C   0  0  0  0  0  0  0  0  0123  0  0
  -16.5415  -29.9068   23.6254 C   0  0  0  0  0  0  0  0  0124  0  0
  -16.7331  -28.6521   23.0586 C   0  0  0  0  0  0  0  0  0125  0  0
  -26.4583  -31.6439   25.0683 C   0  0  0  0  0  0  0  0  0126  0  0
  -25.3807  -31.3179   26.1374 C   0  0  0  0  0  0  0  0  0127  0  0
  -27.0530  -30.3024   24.5680 C   0  0  0  0  0  0  0  0  0128  0  0
  -27.6014  -32.4281   25.7651 C   0  0  0  0  0  0  0  0  0129  0  0
  -27.5629  -37.2220   24.8621 C   0  0  0  0  0  0  0  0  0130  0  0
  -21.4133  -29.3375   22.3735 N   0  0  0  0  0  0  0  0  0131  0  0
  -26.4706  -37.3372   23.9061 N   0  0  0  0  0  0  0  0  0132  0  0
  -24.6674  -31.0544   22.1178 N   0  0  0  0  0  0  0  0  0133  0  0
  -23.4259  -28.8150   23.2971 O   0  0  0  0  0  0  0  0  0134  0  0
  -28.3948  -26.7345   20.0089 O   0  0  0  0  0  0  0  0  0135  0  0
  -26.5870  -34.9065   22.4671 O   0  0  0  0  0  0  0  0  0136  0  0
  -23.5365  -32.1254   23.7833 O   0  0  0  0  0  0  0  0  0137  0  0
  -25.7917  -22.4260   23.3803 C   0  0  0  0  0  0  0  0  0  0  0  0
  -24.6937  -21.6585   23.8414 C   0  0  0  0  0  0  0  0  0  0  0  0
  -26.2005  -21.8810   22.1832 C   0  0  0  0  0  0  0  0  0  0  0  0
  -24.4652  -20.6678   22.9121 C   0  0  0  0  0  0  0  0  0  0  0  0
  -22.0001  -20.1444   22.8542 C   0  0  0  0  0  0  0  0  0  0  0  0
  -23.5837  -18.6204   24.0890 C   0  0  0  0  0  0  0  0  0  0  0  0
  -27.3141  -22.2973   21.2679 C   0  0  0  0  0  0  0  0  0  0  0  0
  -30.7550  -20.7758   20.5564 C   0  0  0  0  0  0  0  0  0  0  0  0
  -25.4867  -19.9667   20.7379 C   0  0  0  0  0  0  0  0  0  0  0  0
  -24.4425  -20.2953   19.6741 C   0  0  0  0  0  0  0  0  0  0  0  0
  -29.5895  -21.7411   20.4009 C   0  0  0  0  0  0  0  0  0  0  0  0
  -30.3773  -19.3171   20.3299 C   0  0  0  0  0  0  0  0  0  1  0  0
  -23.4457  -19.5985   22.9000 C   0  0  0  0  0  0  0  0  0  0  0  0
  -25.3872  -20.8126   21.9087 N   0  0  0  0  0  0  0  0  0  0  0  0
  -24.5353  -21.6638   19.2165 N   0  0  0  0  0  0  0  0  0  0  0  0
  -28.4962  -21.3946   21.3391 N   0  0  0  0  0  0  0  0  0  0  0  0
  -31.4485  -12.4701   19.0860 H   0  0  0  0  0  0  0  0  0  0  0  0
  -30.3970  -11.2460   19.6950 H   0  0  0  0  0  0  0  0  0  0  0  0
  -29.6870  -11.8204   17.4226 H   0  0  0  0  0  0  0  0  0  0  0  0
  -29.6375  -13.5326   17.8649 H   0  0  0  0  0  0  0  0  0  0  0  0
  -27.7830  -11.3650   18.7904 H   0  0  0  0  0  0  0  0  0  0  0  0
  -27.4028  -12.7801   17.8021 H   0  0  0  0  0  0  0  0  0  0  0  0
  -27.7353  -14.2503   19.6136 H   0  0  0  0  0  0  0  0  0  0  0  0
  -28.5890  -11.9550   21.3832 H   0  0  0  0  0  0  0  0  0  0  0  0
  -28.5005  -13.6134   21.8562 H   0  0  0  0  0  0  0  0  0  0  0  0
  -25.2399   -9.5495   22.4318 H   0  0  0  0  0  0  0  0  0  0  0  0
  -23.9663   -7.5070   22.7297 H   0  0  0  0  0  0  0  0  0  0  0  0
  -21.1515   -8.8641   19.9162 H   0  0  0  0  0  0  0  0  0  0  0  0
  -22.4016  -10.9115   19.6476 H   0  0  0  0  0  0  0  0  0  0  0  0
  -21.2319   -7.5552   23.9750 H   0  0  0  0  0  0  0  0  0  0  0  0
  -21.1589   -6.0228   25.8556 H   0  0  0  0  0  0  0  0  0  0  0  0
  -22.0396   -2.8212   23.2809 H   0  0  0  0  0  0  0  0  0  0  0  0
  -22.4401  -11.9703   22.4008 H   0  0  0  0  0  0  0  0  0  0  0  0
  -21.1493  -13.0679   22.2082 H   0  0  0  0  0  0  0  0  0  0  0  0
  -24.6538  -15.7807   20.5848 H   0  0  0  0  0  0  0  0  0  0  0  0
  -26.2762  -15.5453   20.1156 H   0  0  0  0  0  0  0  0  0  0  0  0
  -26.6778  -32.4663   23.1464 H   0  0  0  0  0  0  0  0  0  0  0  0
  -25.0747  -34.0282   25.0566 H   0  0  0  0  0  0  0  0  0  0  0  0
  -22.7881  -31.3489   21.4131 H   0  0  0  0  0  0  0  0  0  0  0  0
  -23.3854  -35.9823   23.3648 H   0  0  0  0  0  0  0  0  0  0  0  0
  -24.3696  -36.8624   22.2204 H   0  0  0  0  0  0  0  0  0  0  0  0
  -23.7669  -37.6632   23.6516 H   0  0  0  0  0  0  0  0  0  0  0  0
  -25.9445  -31.6237   20.5691 H   0  0  0  0  0  0  0  0  0  0  0  0
  -26.7436  -31.0079   22.0108 H   0  0  0  0  0  0  0  0  0  0  0  0
  -28.0090  -29.1452   21.2057 H   0  0  0  0  0  0  0  0  0  0  0  0
  -26.1369  -26.0560   19.0719 H   0  0  0  0  0  0  0  0  0  0  0  0
  -24.0652  -27.2961   19.0997 H   0  0  0  0  0  0  0  0  0  0  0  0
  -23.6156  -30.5365   19.3930 H   0  0  0  0  0  0  0  0  0  0  0  0
  -22.7355  -29.1425   19.9945 H   0  0  0  0  0  0  0  0  0  0  0  0
  -25.1353  -36.2335   25.0565 H   0  0  0  0  0  0  0  0  0  0  0  0
  -21.0070  -28.3206   24.0793 H   0  0  0  0  0  0  0  0  0  0  0  0
  -20.5555  -26.2518   23.3550 H   0  0  0  0  0  0  0  0  0  0  0  0
  -21.5974  -26.8362   22.0454 H   0  0  0  0  0  0  0  0  0  0  0  0
  -19.6810  -25.6422   21.1488 H   0  0  0  0  0  0  0  0  0  0  0  0
  -19.6406  -27.3343   20.7034 H   0  0  0  0  0  0  0  0  0  0  0  0
  -17.4282  -26.6888   21.4113 H   0  0  0  0  0  0  0  0  0  0  0  0
  -18.0803  -26.0130   22.9049 H   0  0  0  0  0  0  0  0  0  0  0  0
  -19.7265  -30.6774   24.2204 H   0  0  0  0  0  0  0  0  0  0  0  0
  -17.5064  -31.5856   24.4483 H   0  0  0  0  0  0  0  0  0  0  0  0
  -15.5878  -30.2839   23.7407 H   0  0  0  0  0  0  0  0  0  0  0  0
  -15.9120  -28.0941   22.7766 H   0  0  0  0  0  0  0  0  0  0  0  0
  -24.5787  -30.7757   25.6817 H   0  0  0  0  0  0  0  0  0  0  0  0
  -25.0041  -32.2289   26.5536 H   0  0  0  0  0  0  0  0  0  0  0  0
  -25.8166  -30.7245   26.9138 H   0  0  0  0  0  0  0  0  0  0  0  0
  -26.2892  -29.7335   24.0803 H   0  0  0  0  0  0  0  0  0  0  0  0
  -27.4336  -29.7484   25.4006 H   0  0  0  0  0  0  0  0  0  0  0  0
  -27.8466  -30.4994   23.8779 H   0  0  0  0  0  0  0  0  0  0  0  0
  -27.2251  -33.3632   26.1242 H   0  0  0  0  0  0  0  0  0  0  0  0
  -28.3902  -32.6065   25.0645 H   0  0  0  0  0  0  0  0  0  0  0  0
  -27.9772  -31.8555   26.5872 H   0  0  0  0  0  0  0  0  0  0  0  0
  -28.2744  -38.0016   24.6863 H   0  0  0  0  0  0  0  0  0  0  0  0
  -28.0396  -36.2711   24.7461 H   0  0  0  0  0  0  0  0  0  0  0  0
  -27.1773  -37.3087   25.8564 H   0  0  0  0  0  0  0  0  0  0  0  0
  -20.9627  -29.9365   21.7352 H   0  0  0  0  0  0  0  0  0  0  0  0
  -26.0447  -38.2561   24.0273 H   0  0  0  0  0  0  0  0  0  0  0  0
  -26.2083  -23.2427   23.8540 H   0  0  0  0  0  0  0  0  0  0  0  0
  -24.1630  -21.8132   24.7128 H   0  0  0  0  0  0  0  0  0  0  0  0
  -21.9006  -20.8221   22.0321 H   0  0  0  0  0  0  0  0  0  0  0  0
  -21.7836  -20.6577   23.7678 H   0  0  0  0  0  0  0  0  0  0  0  0
  -21.3155  -19.3313   22.7310 H   0  0  0  0  0  0  0  0  0  0  0  0
  -24.5833  -18.2403   24.1240 H   0  0  0  0  0  0  0  0  0  0  0  0
  -22.8977  -17.8088   23.9646 H   0  0  0  0  0  0  0  0  0  0  0  0
  -23.3657  -19.1351   25.0014 H   0  0  0  0  0  0  0  0  0  0  0  0
  -27.6237  -23.2859   21.5358 H   0  0  0  0  0  0  0  0  0  0  0  0
  -26.9383  -22.2530   20.2670 H   0  0  0  0  0  0  0  0  0  0  0  0
  -31.1446  -20.8737   21.5481 H   0  0  0  0  0  0  0  0  0  0  0  0
  -31.4750  -21.0320   19.8075 H   0  0  0  0  0  0  0  0  0  0  0  0
  -26.4597  -20.0897   20.3101 H   0  0  0  0  0  0  0  0  0  0  0  0
  -25.3143  -18.9595   21.0552 H   0  0  0  0  0  0  0  0  0  0  0  0
  -23.4685  -20.1363   20.0876 H   0  0  0  0  0  0  0  0  0  0  0  0
  -24.6200  -19.6570   18.8339 H   0  0  0  0  0  0  0  0  0  0  0  0
  -29.2214  -21.6892   19.3975 H   0  0  0  0  0  0  0  0  0  0  0  0
  -29.9305  -22.7315   20.6195 H   0  0  0  0  0  0  0  0  0  0  0  0
  -30.0726  -18.6533   21.1118 H   0  0  0  0  0  0  0  0  0  0  0  0
  -30.5775  -18.4331   19.7613 H   0  0  0  0  0  0  0  0  0  0  0  0
  -23.6344  -19.0607   21.9944 H   0  0  0  0  0  0  0  0  0  0  0  0
  -24.2285  -22.5660   18.9692 H   0  0  0  0  0  0  0  0  0  0  0  0
  -28.1858  -20.4457   21.1304 H   0  0  0  0  0  0  0  0  0  0  0  0
  -28.8790  -21.4905   22.2797 H   0  0  0  0  0  0  0  0  0  0  0  0
  1 25  1  0
  1 30  2  0
  1 85  1  0
  2  3  1  0
  2 25  1  0
  2 87  1  0
  2 88  1  0
  3  4  1  0
  3 89  1  0
  3 90  1  0
  4  5  1  0
  4 91  1  0
  4 92  1  0
  5  6  1  0
  5 26  1  0
  5 93  1  6
  6 25  1  0
  6 94  1  0
  6 95  1  0
  7  8  2  0
  7 26  1  0
  7 29  1  0
  8  9  1  0
  8 22  1  0
  9 10  1  0
  9 27  2  0
 10 11  2  0
 10 15  1  0
 11 12  1  0
 11 96  1  0
 12 13  2  0
 12 97  1  0
 13 14  1  0
 13 31  1  0
 14 15  2  0
 14 98  1  0
 15 99  1  0
 16 17  2  0
 16 21  1  0
 16 31  1  0
 17 18  1  0
 17100  1  0
 18 19  2  0
 18101  1  0
 19 20  1  0
 19 24  1  0
 20 21  2  0
 20102  1  0
 21 23  1  0
 22 28  1  0
 22 32  2  0
 26 27  1  0
 28103  1  0
 28104  1  0
 29105  1  0
 29106  1  0
 33 34  1  0
 33 66  1  0
 33 70  2  0
 34 36  1  0
 34 59  1  0
 34107  1  6
 35 44  2  0
 35 45  1  0
 35 68  1  0
 36 56  1  0
 36108  1  0
 37 39  1  0
 37 47  1  0
 37 66  1  0
 37109  1  6
 38 43  2  0
 38 46  1  0
 38 47  1  0
 39 64  1  0
 39 67  2  0
 40 52  1  0
 40 53  2  0
 40 58  1  0
 41110  1  0
 41111  1  0
 41112  1  0
 42 43  1  0
 42 66  1  0
 42113  1  0
 42114  1  0
 43 44  1  0
 44115  1  0
 45 46  2  0
 45116  1  0
 46117  1  0
 47118  1  0
 47119  1  0
 48 41  1  0
 48 56  1  0
 48 65  1  0
 48120  1  1
 49 50  1  0
 49 53  1  0
 49 64  1  0
 49121  1  1
 50 51  1  0
 50122  1  0
 50123  1  0
 51 52  1  0
 51124  1  0
 51125  1  0
 52126  1  0
 52127  1  0
 53 54  1  0
 54 55  2  0
 54128  1  0
 55 57  1  0
 55129  1  0
 56 69  2  0
 57 58  2  0
 57130  1  0
 58131  1  0
 59 60  1  0
 59 61  1  0
 59 62  1  0
 60132  1  0
 60133  1  0
 60134  1  0
 61135  1  0
 61136  1  0
 61137  1  0
 62138  1  0
 62139  1  0
 62140  1  0
 63 65  1  0
 63141  1  0
 63142  1  0
 63143  1  0
 64144  1  0
 65145  1  0
 68 82  1  0
 71 72  1  0
 71 73  2  0
 71146  1  0
 72 74  2  0
 72147  1  0
 73 77  1  0
 73 84  1  0
 74 83  1  0
 74 84  1  0
 75148  1  0
 75149  1  0
 75150  1  0
 76 83  1  0
 76151  1  0
 76152  1  0
 76153  1  0
 77 86  1  0
 77154  1  0
 77155  1  0
 78 81  1  0
 78 82  1  0
 78156  1  0
 78157  1  0
 79 80  1  0
 79 84  1  0
 79158  1  0
 79159  1  0
 80 85  1  0
 80160  1  0
 80161  1  0
 81 86  1  0
 81162  1  0
 81163  1  0
 82164  1  0
 82165  1  0
 83 75  1  0
 83166  1  0
 85167  1  0
 86168  1  0
 86169  1  0
M  CHG  1  86   1
M  ISO  4   1 100  68 101  82 101  85 100
M  END
$$$$
89
     RDKit          3D

155162  0  0  0  0  0  0  0  0999 V2000
  -30.7652  -14.3608   20.6636 C   0  0  0  0  0  0  0  0  0100  0  0
  -30.4392  -12.2669   19.3775 C   0  0  0  0  0  0  0  0  0101  0  0
  -29.4791  -12.5281   18.1977 C   0  0  0  0  0  0  0  0  0102  0  0
  -27.9985  -12.3963   18.6038 C   0  0  0  0  0  0  0  0  0103  0  0
  -27.6639  -13.2170   19.8820 C   0  0  2  0  0  0  0  0  0104  0  0
  -28.6795  -12.9602   21.0279 C   0  0  0  0  0  0  0  0  0105  0  0
  -25.2633  -13.8245   20.5754 C   0  0  0  0  0  0  0  0  0106  0  0
  -24.1645  -13.0409   20.9408 C   0  0  0  0  0  0  0  0  0107  0  0
  -24.6400  -11.7009   20.8697 C   0  0  0  0  0  0  0  0  0108  0  0
  -23.9005  -10.4085   21.0420 C   0  0  0  0  0  0  0  0  0109  0  0
  -24.3588   -9.4123   21.9123 C   0  0  0  0  0  0  0  0  0110  0  0
  -23.6296   -8.2350   22.0803 C   0  0  0  0  0  0  0  0  0111  0  0
  -22.4385   -8.0419   21.3657 C   0  0  0  0  0  0  0  0  0112  0  0
  -22.0103   -9.0167   20.4678 C   0  0  0  0  0  0  0  0  0113  0  0
  -22.7317  -10.1925   20.3102 C   0  0  0  0  0  0  0  0  0114  0  0
  -21.6857   -6.0709   22.5391 C   0  0  0  0  0  0  0  0  0115  0  0
  -21.4064   -6.5490   23.8264 C   0  0  0  0  0  0  0  0  0116  0  0
  -21.3635   -5.6677   24.9085 C   0  0  0  0  0  0  0  0  0117  0  0
  -21.5973   -4.3067   24.7088 C   0  0  0  0  0  0  0  0  0118  0  0
  -21.8700   -3.8284   23.4282 C   0  0  0  0  0  0  0  0  0119  0  0
  -21.9144   -4.7056   22.3460 C   0  0  0  0  0  0  0  0  0120  0  0
  -22.8194  -13.5263   21.1763 C   0  0  0  0  0  0  0  0  0121  0  0
  -22.1559   -4.2206   21.1063 F   0  0  0  0  0  0  0  0  0122  0  0
  -21.5628   -3.4510   25.7555 F   0  0  0  0  0  0  0  0  0123  0  0
  -30.0261  -13.1803   20.4553 N   0  0  0  0  0  0  0  0  0124  0  0
  -26.2911  -12.9356   20.3443 N   0  0  0  0  0  0  0  0  0125  0  0
  -25.9236  -11.6675   20.5847 N   0  0  0  0  0  0  0  0  0126  0  0
  -22.0708  -12.7905   22.0005 N   0  0  0  0  0  0  0  0  0127  0  0
  -25.4117  -15.1773   20.4097 N   0  0  0  0  0  0  0  0  0128  0  0
  -31.7916  -14.6724   20.0536 O   0  0  0  0  0  0  0  0  0129  0  0
  -21.6670   -6.9022   21.4423 O   0  0  0  0  0  0  0  0  0130  0  0
  -22.3946  -14.5564   20.6568 O   0  0  0  0  0  0  0  0  0131  0  0
  -24.6048  -31.8614   23.2223 C   0  0  0  0  0  0  0  0  0100  0  0
  -25.8822  -32.4841   23.8616 C   0  0  1  0  0  0  0  0  0101  0  0
  -27.2536  -27.5042   20.1156 C   0  0  0  0  0  0  0  0  0102  0  0
  -25.5726  -33.8762   24.2210 N   0  0  0  0  0  0  0  0  0103  0  0
  -23.4066  -30.4859   21.5461 C   0  0  2  0  0  0  0  0  0104  0  0
  -24.8467  -28.9636   20.1247 C   0  0  0  0  0  0  0  0  0105  0  0
  -22.7412  -29.4652   22.5052 C   0  0  0  0  0  0  0  0  0106  0  0
  -18.0167  -28.1302   22.8626 C   0  0  0  0  0  0  0  0  0107  0  0
  -24.1342  -36.7390   23.2568 C   0  0  0  0  0  0  0  0  0108  0  0
  -25.9141  -30.8882   21.3456 C   0  0  0  0  0  0  0  0  0109  0  0
  -25.9930  -29.5029   20.7208 C   0  0  0  0  0  0  0  0  0110  0  0
  -27.1758  -28.7612   20.7331 C   0  0  0  0  0  0  0  0  0111  0  0
  -26.1032  -26.9836   19.5230 C   0  0  0  0  0  0  0  0  0112  0  0
  -24.9097  -27.7011   19.5331 C   0  0  0  0  0  0  0  0  0113  0  0
  -23.5715  -29.7899   20.1582 C   0  0  0  0  0  0  0  0  0114  0  0
  -25.3990  -36.3212   24.0232 C   0  0  1  0  0  0  0  0  0115  0  0
  -20.5793  -28.3813   23.1004 C   0  0  2  0  0  0  0  0  0116  0  0
  -20.6548  -26.9392   22.5411 C   0  0  0  0  0  0  0  0  0117  0  0
  -19.5615  -26.6407   21.5143 C   0  0  0  0  0  0  0  0  0118  0  0
  -18.1797  -26.7818   22.1673 C   0  0  0  0  0  0  0  0  0119  0  0
  -19.1385  -28.8769   23.2988 C   0  0  0  0  0  0  0  0  0120  0  0
  -18.9183  -30.1286   23.8878 C   0  0  0  0  0  0  0  0  0121  0  0
  -17.6396  -30.6493   24.0352 C   0  0  0  0  0  0  0  0  0122  0  0
  -25.9153  -34.9582   23.4993 C   0  0  0  0  0  0  0  0  0123  0  0
  -16.5415  -29.9068   23.6254 C   0  0  0  0  0  0  0  0  0124  0  0
  -16.7331  -28.6521   23.0586 C   0  0  0  0  0  0  0  0  0125  0  0
  -26.4583  -31.6439   25.0683 C   0  0  0  0  0  0  0  0  0126  0  0
  -25.3807  -31.3179   26.1374 C   0  0  0  0  0  0  0  0  0127  0  0
  -27.0530  -30.3024   24.5680 C   0  0  0  0  0  0  0  0  0128  0  0
  -27.6014  -32.4281   25.7651 C   0  0  0  0  0  0  0  0  0129  0  0
  -27.5629  -37.2220   24.8621 C   0  0  0  0  0  0  0  0  0130  0  0
  -21.4133  -29.3375   22.3735 N   0  0  0  0  0  0  0  0  0131  0  0
  -26.4706  -37.3372   23.9061 N   0  0  0  0  0  0  0  0  0132  0  0
  -24.6674  -31.0544   22.1178 N   0  0  0  0  0  0  0  0  0133  0  0
  -23.4259  -28.8150   23.2971 O   0  0  0  0  0  0  0  0  0134  0  0
  -28.3948  -26.7345   20.0089 O   0  0  0  0  0  0  0  0  0135  0  0
  -26.5870  -34.9065   22.4671 O   0  0  0  0  0  0  0  0  0136  0  0
  -23.5365  -32.1254   23.7833 O   0  0  0  0  0  0  0  0  0137  0  0
  -24.6256  -18.3301   19.5130 C   0  0  0  0  0  0  0  0  0  0  0  0
  -22.3699  -21.7862   24.1094 C   0  0  0  0  0  0  0  0  0  0  0  0
  -22.5887  -21.6518   21.6022 C   0  0  0  0  0  0  0  0  0  0  0  0
  -26.4278  -20.0613   18.9905 C   0  0  0  0  0  0  0  0  0  0  0  0
  -22.9953  -20.8472   20.3707 C   0  0  0  0  0  0  0  0  0  0  0  0
  -24.9423  -19.7898   19.2174 C   0  0  2  0  0  0  0  0  0  0  0  0
  -22.8824  -20.9583   22.9375 C   0  0  1  0  0  0  0  0  0  1  0  0
  -26.7279  -21.4502   18.7229 N   0  0  0  0  0  0  0  0  0  0  0  0
  -24.4592  -20.6179   20.3568 N   0  0  0  0  0  0  0  0  0  0  0  0
  -31.4485  -12.4701   19.0860 H   0  0  0  0  0  0  0  0  0  0  0  0
  -30.3970  -11.2460   19.6950 H   0  0  0  0  0  0  0  0  0  0  0  0
  -29.6870  -11.8204   17.4226 H   0  0  0  0  0  0  0  0  0  0  0  0
  -29.6375  -13.5326   17.8649 H   0  0  0  0  0  0  0  0  0  0  0  0
  -27.7830  -11.3650   18.7904 H   0  0  0  0  0  0  0  0  0  0  0  0
  -27.4028  -12.7801   17.8021 H   0  0  0  0  0  0  0  0  0  0  0  0
  -27.7353  -14.2503   19.6136 H   0  0  0  0  0  0  0  0  0  0  0  0
  -28.5890  -11.9550   21.3832 H   0  0  0  0  0  0  0  0  0  0  0  0
  -28.5005  -13.6134   21.8562 H   0  0  0  0  0  0  0  0  0  0  0  0
  -25.2399   -9.5495   22.4318 H   0  0  0  0  0  0  0  0  0  0  0  0
  -23.9663   -7.5070   22.7297 H   0  0  0  0  0  0  0  0  0  0  0  0
  -21.1515   -8.8641   19.9162 H   0  0  0  0  0  0  0  0  0  0  0  0
  -22.4016  -10.9115   19.6476 H   0  0  0  0  0  0  0  0  0  0  0  0
  -21.2319   -7.5552   23.9750 H   0  0  0  0  0  0  0  0  0  0  0  0
  -21.1589   -6.0228   25.8556 H   0  0  0  0  0  0  0  0  0  0  0  0
  -22.0396   -2.8212   23.2809 H   0  0  0  0  0  0  0  0  0  0  0  0
  -22.4401  -11.9703   22.4008 H   0  0  0  0  0  0  0  0  0  0  0  0
  -21.1493  -13.0679   22.2082 H   0  0  0  0  0  0  0  0  0  0  0  0
  -24.6538  -15.7807   20.5848 H   0  0  0  0  0  0  0  0  0  0  0  0
  -26.2762  -15.5453   20.1156 H   0  0  0  0  0  0  0  0  0  0  0  0
  -26.6778  -32.4663   23.1464 H   0  0  0  0  0  0  0  0  0  0  0  0
  -25.0747  -34.0282   25.0566 H   0  0  0  0  0  0  0  0  0  0  0  0
  -22.7881  -31.3489   21.4131 H   0  0  0  0  0  0  0  0  0  0  0  0
  -23.3854  -35.9823   23.3648 H   0  0  0  0  0  0  0  0  0  0  0  0
  -24.3696  -36.8624   22.2204 H   0  0  0  0  0  0  0  0  0  0  0  0
  -23.7669  -37.6632   23.6516 H   0  0  0  0  0  0  0  0  0  0  0  0
  -25.9445  -31.6237   20.5691 H   0  0  0  0  0  0  0  0  0  0  0  0
  -26.7436  -31.0079   22.0108 H   0  0  0  0  0  0  0  0  0  0  0  0
  -28.0090  -29.1452   21.2057 H   0  0  0  0  0  0  0  0  0  0  0  0
  -26.1369  -26.0560   19.0719 H   0  0  0  0  0  0  0  0  0  0  0  0
  -24.0652  -27.2961   19.0997 H   0  0  0  0  0  0  0  0  0  0  0  0
  -23.6156  -30.5365   19.3930 H   0  0  0  0  0  0  0  0  0  0  0  0
  -22.7355  -29.1425   19.9945 H   0  0  0  0  0  0  0  0  0  0  0  0
  -25.1353  -36.2335   25.0565 H   0  0  0  0  0  0  0  0  0  0  0  0
  -21.0070  -28.3206   24.0793 H   0  0  0  0  0  0  0  0  0  0  0  0
  -20.5555  -26.2518   23.3550 H   0  0  0  0  0  0  0  0  0  0  0  0
  -21.5974  -26.8362   22.0454 H   0  0  0  0  0  0  0  0  0  0  0  0
  -19.6810  -25.6422   21.1488 H   0  0  0  0  0  0  0  0  0  0  0  0
  -19.6406  -27.3343   20.7034 H   0  0  0  0  0  0  0  0  0  0  0  0
  -17.4282  -26.6888   21.4113 H   0  0  0  0  0  0  0  0  0  0  0  0
  -18.0803  -26.0130   22.9049 H   0  0  0  0  0  0  0  0  0  0  0  0
  -19.7265  -30.6774   24.2204 H   0  0  0  0  0  0  0  0  0  0  0  0
  -17.5064  -31.5856   24.4483 H   0  0  0  0  0  0  0  0  0  0  0  0
  -15.5878  -30.2839   23.7407 H   0  0  0  0  0  0  0  0  0  0  0  0
  -15.9120  -28.0941   22.7766 H   0  0  0  0  0  0  0  0  0  0  0  0
  -24.5787  -30.7757   25.6817 H   0  0  0  0  0  0  0  0  0  0  0  0
  -25.0041  -32.2289   26.5536 H   0  0  0  0  0  0  0  0  0  0  0  0
  -25.8166  -30.7245   26.9138 H   0  0  0  0  0  0  0  0  0  0  0  0
  -26.2892  -29.7335   24.0803 H   0  0  0  0  0  0  0  0  0  0  0  0
  -27.4336  -29.7484   25.4006 H   0  0  0  0  0  0  0  0  0  0  0  0
  -27.8466  -30.4994   23.8779 H   0  0  0  0  0  0  0  0  0  0  0  0
  -27.2251  -33.3632   26.1242 H   0  0  0  0  0  0  0  0  0  0  0  0
  -28.3902  -32.6065   25.0645 H   0  0  0  0  0  0  0  0  0  0  0  0
  -27.9772  -31.8555   26.5872 H   0  0  0  0  0  0  0  0  0  0  0  0
  -28.2744  -38.0016   24.6863 H   0  0  0  0  0  0  0  0  0  0  0  0
  -28.0396  -36.2711   24.7461 H   0  0  0  0  0  0  0  0  0  0  0  0
  -27.1773  -37.3087   25.8564 H   0  0  0  0  0  0  0  0  0  0  0  0
  -20.9627  -29.9365   21.7352 H   0  0  0  0  0  0  0  0  0  0  0  0
  -26.0447  -38.2561   24.0273 H   0  0  0  0  0  0  0  0  0  0  0  0
  -24.9667  -17.7200   18.7028 H   0  0  0  0  0  0  0  0  0  0  0  0
  -23.5686  -18.2109   19.6289 H   0  0  0  0  0  0  0  0  0  0  0  0
  -25.1190  -18.0337   20.4150 H   0  0  0  0  0  0  0  0  0  0  0  0
  -21.6307  -21.2275   24.6445 H   0  0  0  0  0  0  0  0  0  0  0  0
  -21.9356  -22.6928   23.7427 H   0  0  0  0  0  0  0  0  0  0  0  0
  -23.1835  -22.0197   24.7640 H   0  0  0  0  0  0  0  0  0  0  0  0
  -21.5367  -21.8395   21.5469 H   0  0  0  0  0  0  0  0  0  0  0  0
  -23.1737  -22.5476   21.5883 H   0  0  0  0  0  0  0  0  0  0  0  0
  -26.7547  -19.4776   18.1555 H   0  0  0  0  0  0  0  0  0  0  0  0
  -26.9365  -19.7988   19.8945 H   0  0  0  0  0  0  0  0  0  0  0  0
  -22.7156  -21.3869   19.4901 H   0  0  0  0  0  0  0  0  0  0  0  0
  -22.4983  -19.9000   20.3982 H   0  0  0  0  0  0  0  0  0  0  0  0
  -24.4461  -20.0431   18.3039 H   0  0  0  0  0  0  0  0  0  0  0  0
  -22.8084  -19.9268   23.2123 H   0  0  0  0  0  0  0  0  0  0  0  0
  -26.5840  -22.3992   18.5040 H   0  0  0  0  0  0  0  0  0  0  0  0
  -24.7165  -20.1475   21.2245 H   0  0  0  0  0  0  0  0  0  0  0  0
  -24.8960  -21.5341   20.2560 H   0  0  0  0  0  0  0  0  0  0  0  0
  1 25  1  0
  1 30  2  0
  1 78  1  0
  2  3  1  0
  2 25  1  0
  2 80  1  0
  2 81  1  0
  3  4  1  0
  3 82  1  0
  3 83  1  0
  4  5  1  0
  4 84  1  0
  4 85  1  0
  5  6  1  0
  5 26  1  0
  5 86  1  6
  6 25  1  0
  6 87  1  0
  6 88  1  0
  7  8  2  0
  7 26  1  0
  7 29  1  0
  8  9  1  0
  8 22  1  0
  9 10  1  0
  9 27  2  0
 10 11  2  0
 10 15  1  0
 11 12  1  0
 11 89  1  0
 12 13  2  0
 12 90  1  0
 13 14  1  0
 13 31  1  0
 14 15  2  0
 14 91  1  0
 15 92  1  0
 16 17  2  0
 16 21  1  0
 16 31  1  0
 17 18  1  0
 17 93  1  0
 18 19  2  0
 18 94  1  0
 19 20  1  0
 19 24  1  0
 20 21  2  0
 20 95  1  0
 21 23  1  0
 22 28  1  0
 22 32  2  0
 26 27  1  0
 28 96  1  0
 28 97  1  0
 29 98  1  0
 29 99  1  0
 33 34  1  0
 33 66  1  0
 33 70  2  0
 34 36  1  0
 34 59  1  0
 34100  1  6
 35 44  2  0
 35 45  1  0
 35 68  1  0
 36 56  1  0
 36101  1  0
 37 39  1  0
 37 47  1  0
 37 66  1  0
 37102  1  6
 38 43  2  0
 38 46  1  0
 38 47  1  0
 39 64  1  0
 39 67  2  0
 40 52  1  0
 40 53  2  0
 40 58  1  0
 41103  1  0
 41104  1  0
 41105  1  0
 42 43  1  0
 42 66  1  0
 42106  1  0
 42107  1  0
 43 44  1  0
 44108  1  0
 45 46  2  0
 45109  1  0
 46110  1  0
 47111  1  0
 47112  1  0
 48 41  1  0
 48 56  1  0
 48 65  1  0
 48113  1  1
 49 50  1  0
 49 53  1  0
 49 64  1  0
 49114  1  1
 50 51  1  0
 50115  1  0
 50116  1  0
 51 52  1  0
 51117  1  0
 51118  1  0
 52119  1  0
 52120  1  0
 53 54  1  0
 54 55  2  0
 54121  1  0
 55 57  1  0
 55122  1  0
 56 69  2  0
 57 58  2  0
 57123  1  0
 58124  1  0
 59 60  1  0
 59 61  1  0
 59 62  1  0
 60125  1  0
 60126  1  0
 60127  1  0
 61128  1  0
 61129  1  0
 61130  1  0
 62131  1  0
 62132  1  0
 62133  1  0
 63 65  1  0
 63134  1  0
 63135  1  0
 63136  1  0
 64137  1  0
 65138  1  0
 68 77  1  0
 71139  1  0
 71140  1  0
 71141  1  0
 72142  1  0
 72143  1  0
 72144  1  0
 73 75  1  0
 73 77  1  0
 73145  1  0
 73146  1  0
 74 76  1  0
 74 78  1  0
 74147  1  0
 74148  1  0
 75 79  1  0
 75149  1  0
 75150  1  0
 76 71  1  0
 76 79  1  0
 76151  1  6
 77 72  1  0
 77152  1  6
 78153  1  0
 79154  1  0
 79155  1  0
M  CHG  1  79   1
M  ISO  4   1 100  68 101  77 101  78 100
M  END
$$$$
90
     RDKit          3D

165173  0  0  0  0  0  0  0  0999 V2000
  -30.7652  -14.3608   20.6636 C   0  0  0  0  0  0  0  0  0100  0  0
  -30.4392  -12.2669   19.3775 C   0  0  0  0  0  0  0  0  0101  0  0
  -29.4791  -12.5281   18.1977 C   0  0  0  0  0  0  0  0  0102  0  0
  -27.9985  -12.3963   18.6038 C   0  0  0  0  0  0  0  0  0103  0  0
  -27.6639  -13.2170   19.8820 C   0  0  2  0  0  0  0  0  0104  0  0
  -28.6795  -12.9602   21.0279 C   0  0  0  0  0  0  0  0  0105  0  0
  -25.2633  -13.8245   20.5754 C   0  0  0  0  0  0  0  0  0106  0  0
  -24.1645  -13.0409   20.9408 C   0  0  0  0  0  0  0  0  0107  0  0
  -24.6400  -11.7009   20.8697 C   0  0  0  0  0  0  0  0  0108  0  0
  -23.9005  -10.4085   21.0420 C   0  0  0  0  0  0  0  0  0109  0  0
  -24.3588   -9.4123   21.9123 C   0  0  0  0  0  0  0  0  0110  0  0
  -23.6296   -8.2350   22.0803 C   0  0  0  0  0  0  0  0  0111  0  0
  -22.4385   -8.0419   21.3657 C   0  0  0  0  0  0  0  0  0112  0  0
  -22.0103   -9.0167   20.4678 C   0  0  0  0  0  0  0  0  0113  0  0
  -22.7317  -10.1925   20.3102 C   0  0  0  0  0  0  0  0  0114  0  0
  -21.6857   -6.0709   22.5391 C   0  0  0  0  0  0  0  0  0115  0  0
  -21.4064   -6.5490   23.8264 C   0  0  0  0  0  0  0  0  0116  0  0
  -21.3635   -5.6677   24.9085 C   0  0  0  0  0  0  0  0  0117  0  0
  -21.5973   -4.3067   24.7088 C   0  0  0  0  0  0  0  0  0118  0  0
  -21.8700   -3.8284   23.4282 C   0  0  0  0  0  0  0  0  0119  0  0
  -21.9144   -4.7056   22.3460 C   0  0  0  0  0  0  0  0  0120  0  0
  -22.8194  -13.5263   21.1763 C   0  0  0  0  0  0  0  0  0121  0  0
  -22.1559   -4.2206   21.1063 F   0  0  0  0  0  0  0  0  0122  0  0
  -21.5628   -3.4510   25.7555 F   0  0  0  0  0  0  0  0  0123  0  0
  -30.0261  -13.1803   20.4553 N   0  0  0  0  0  0  0  0  0124  0  0
  -26.2911  -12.9356   20.3443 N   0  0  0  0  0  0  0  0  0125  0  0
  -25.9236  -11.6675   20.5847 N   0  0  0  0  0  0  0  0  0126  0  0
  -22.0708  -12.7905   22.0005 N   0  0  0  0  0  0  0  0  0127  0  0
  -25.4117  -15.1773   20.4097 N   0  0  0  0  0  0  0  0  0128  0  0
  -31.7916  -14.6724   20.0536 O   0  0  0  0  0  0  0  0  0129  0  0
  -21.6670   -6.9022   21.4423 O   0  0  0  0  0  0  0  0  0130  0  0
  -22.3946  -14.5564   20.6568 O   0  0  0  0  0  0  0  0  0131  0  0
  -24.6048  -31.8614   23.2223 C   0  0  0  0  0  0  0  0  0100  0  0
  -25.8822  -32.4841   23.8616 C   0  0  1  0  0  0  0  0  0101  0  0
  -27.2536  -27.5042   20.1156 C   0  0  0  0  0  0  0  0  0102  0  0
  -25.5726  -33.8762   24.2210 N   0  0  0  0  0  0  0  0  0103  0  0
  -23.4066  -30.4859   21.5461 C   0  0  2  0  0  0  0  0  0104  0  0
  -24.8467  -28.9636   20.1247 C   0  0  0  0  0  0  0  0  0105  0  0
  -22.7412  -29.4652   22.5052 C   0  0  0  0  0  0  0  0  0106  0  0
  -18.0167  -28.1302   22.8626 C   0  0  0  0  0  0  0  0  0107  0  0
  -24.1342  -36.7390   23.2568 C   0  0  0  0  0  0  0  0  0108  0  0
  -25.9141  -30.8882   21.3456 C   0  0  0  0  0  0  0  0  0109  0  0
  -25.9930  -29.5029   20.7208 C   0  0  0  0  0  0  0  0  0110  0  0
  -27.1758  -28.7612   20.7331 C   0  0  0  0  0  0  0  0  0111  0  0
  -26.1032  -26.9836   19.5230 C   0  0  0  0  0  0  0  0  0112  0  0
  -24.9097  -27.7011   19.5331 C   0  0  0  0  0  0  0  0  0113  0  0
  -23.5715  -29.7899   20.1582 C   0  0  0  0  0  0  0  0  0114  0  0
  -25.3990  -36.3212   24.0232 C   0  0  1  0  0  0  0  0  0115  0  0
  -20.5793  -28.3813   23.1004 C   0  0  2  0  0  0  0  0  0116  0  0
  -20.6548  -26.9392   22.5411 C   0  0  0  0  0  0  0  0  0117  0  0
  -19.5615  -26.6407   21.5143 C   0  0  0  0  0  0  0  0  0118  0  0
  -18.1797  -26.7818   22.1673 C   0  0  0  0  0  0  0  0  0119  0  0
  -19.1385  -28.8769   23.2988 C   0  0  0  0  0  0  0  0  0120  0  0
  -18.9183  -30.1286   23.8878 C   0  0  0  0  0  0  0  0  0121  0  0
  -17.6396  -30.6493   24.0352 C   0  0  0  0  0  0  0  0  0122  0  0
  -25.9153  -34.9582   23.4993 C   0  0  0  0  0  0  0  0  0123  0  0
  -16.5415  -29.9068   23.6254 C   0  0  0  0  0  0  0  0  0124  0  0
  -16.7331  -28.6521   23.0586 C   0  0  0  0  0  0  0  0  0125  0  0
  -26.4583  -31.6439   25.0683 C   0  0  0  0  0  0  0  0  0126  0  0
  -25.3807  -31.3179   26.1374 C   0  0  0  0  0  0  0  0  0127  0  0
  -27.0530  -30.3024   24.5680 C   0  0  0  0  0  0  0  0  0128  0  0
  -27.6014  -32.4281   25.7651 C   0  0  0  0  0  0  0  0  0129  0  0
  -27.5629  -37.2220   24.8621 C   0  0  0  0  0  0  0  0  0130  0  0
  -21.4133  -29.3375   22.3735 N   0  0  0  0  0  0  0  0  0131  0  0
  -26.4706  -37.3372   23.9061 N   0  0  0  0  0  0  0  0  0132  0  0
  -24.6674  -31.0544   22.1178 N   0  0  0  0  0  0  0  0  0133  0  0
  -23.4259  -28.8150   23.2971 O   0  0  0  0  0  0  0  0  0134  0  0
  -28.3948  -26.7345   20.0089 O   0  0  0  0  0  0  0  0  0135  0  0
  -26.5870  -34.9065   22.4671 O   0  0  0  0  0  0  0  0  0136  0  0
  -23.5365  -32.1254   23.7833 O   0  0  0  0  0  0  0  0  0137  0  0
  -29.0319  -23.6267   21.0802 C   0  0  0  0  0  0  0  0  0  0  0  0
  -30.1932  -24.2479   20.3252 C   0  0  0  0  0  0  0  0  0  0  0  0
  -28.1655  -23.0755   19.9702 C   0  0  0  0  0  0  0  0  0  0  0  0
  -29.5640  -24.8780   19.0828 C   0  0  2  0  0  0  0  0  0  0  0  0
  -25.9908  -25.9258   16.6468 C   0  0  0  0  0  0  0  0  0  0  0  0
  -24.0723  -24.4989   17.3579 C   0  0  0  0  0  0  0  0  0  0  0  0
  -26.2616  -22.9637   15.8092 C   0  0  0  0  0  0  0  0  0  0  0  0
  -29.3039  -26.3701   19.2329 C   0  0  0  0  0  0  0  0  0  1  0  0
  -27.9581  -23.6686   17.5324 C   0  0  0  0  0  0  0  0  0  0  0  0
  -25.5823  -24.7298   17.5229 C   0  0  0  0  0  0  0  0  0  0  0  0
  -26.4511  -23.4463   17.2642 C   0  0  1  0  0  0  0  0  0  0  0  0
  -26.0272  -22.3734   18.1361 N   0  0  0  0  0  0  0  0  0  0  0  0
  -28.2269  -24.1595   18.9196 N   0  0  1  0  0  0  0  0  0  0  0  0
  -31.4485  -12.4701   19.0860 H   0  0  0  0  0  0  0  0  0  0  0  0
  -30.3970  -11.2460   19.6950 H   0  0  0  0  0  0  0  0  0  0  0  0
  -29.6870  -11.8204   17.4226 H   0  0  0  0  0  0  0  0  0  0  0  0
  -29.6375  -13.5326   17.8649 H   0  0  0  0  0  0  0  0  0  0  0  0
  -27.7830  -11.3650   18.7904 H   0  0  0  0  0  0  0  0  0  0  0  0
  -27.4028  -12.7801   17.8021 H   0  0  0  0  0  0  0  0  0  0  0  0
  -27.7353  -14.2503   19.6136 H   0  0  0  0  0  0  0  0  0  0  0  0
  -28.5890  -11.9550   21.3832 H   0  0  0  0  0  0  0  0  0  0  0  0
  -28.5005  -13.6134   21.8562 H   0  0  0  0  0  0  0  0  0  0  0  0
  -25.2399   -9.5495   22.4318 H   0  0  0  0  0  0  0  0  0  0  0  0
  -23.9663   -7.5070   22.7297 H   0  0  0  0  0  0  0  0  0  0  0  0
  -21.1515   -8.8641   19.9162 H   0  0  0  0  0  0  0  0  0  0  0  0
  -22.4016  -10.9115   19.6476 H   0  0  0  0  0  0  0  0  0  0  0  0
  -21.2319   -7.5552   23.9750 H   0  0  0  0  0  0  0  0  0  0  0  0
  -21.1589   -6.0228   25.8556 H   0  0  0  0  0  0  0  0  0  0  0  0
  -22.0396   -2.8212   23.2809 H   0  0  0  0  0  0  0  0  0  0  0  0
  -22.4401  -11.9703   22.4008 H   0  0  0  0  0  0  0  0  0  0  0  0
  -21.1493  -13.0679   22.2082 H   0  0  0  0  0  0  0  0  0  0  0  0
  -24.6538  -15.7807   20.5848 H   0  0  0  0  0  0  0  0  0  0  0  0
  -26.2762  -15.5453   20.1156 H   0  0  0  0  0  0  0  0  0  0  0  0
  -26.6778  -32.4663   23.1464 H   0  0  0  0  0  0  0  0  0  0  0  0
  -25.0747  -34.0282   25.0566 H   0  0  0  0  0  0  0  0  0  0  0  0
  -22.7881  -31.3489   21.4131 H   0  0  0  0  0  0  0  0  0  0  0  0
  -23.3854  -35.9823   23.3648 H   0  0  0  0  0  0  0  0  0  0  0  0
  -24.3696  -36.8624   22.2204 H   0  0  0  0  0  0  0  0  0  0  0  0
  -23.7669  -37.6632   23.6516 H   0  0  0  0  0  0  0  0  0  0  0  0
  -25.9445  -31.6237   20.5691 H   0  0  0  0  0  0  0  0  0  0  0  0
  -26.7436  -31.0079   22.0108 H   0  0  0  0  0  0  0  0  0  0  0  0
  -28.0090  -29.1452   21.2057 H   0  0  0  0  0  0  0  0  0  0  0  0
  -26.1369  -26.0560   19.0719 H   0  0  0  0  0  0  0  0  0  0  0  0
  -24.0652  -27.2961   19.0997 H   0  0  0  0  0  0  0  0  0  0  0  0
  -23.6156  -30.5365   19.3930 H   0  0  0  0  0  0  0  0  0  0  0  0
  -22.7355  -29.1425   19.9945 H   0  0  0  0  0  0  0  0  0  0  0  0
  -25.1353  -36.2335   25.0565 H   0  0  0  0  0  0  0  0  0  0  0  0
  -21.0070  -28.3206   24.0793 H   0  0  0  0  0  0  0  0  0  0  0  0
  -20.5555  -26.2518   23.3550 H   0  0  0  0  0  0  0  0  0  0  0  0
  -21.5974  -26.8362   22.0454 H   0  0  0  0  0  0  0  0  0  0  0  0
  -19.6810  -25.6422   21.1488 H   0  0  0  0  0  0  0  0  0  0  0  0
  -19.6406  -27.3343   20.7034 H   0  0  0  0  0  0  0  0  0  0  0  0
  -17.4282  -26.6888   21.4113 H   0  0  0  0  0  0  0  0  0  0  0  0
  -18.0803  -26.0130   22.9049 H   0  0  0  0  0  0  0  0  0  0  0  0
  -19.7265  -30.6774   24.2204 H   0  0  0  0  0  0  0  0  0  0  0  0
  -17.5064  -31.5856   24.4483 H   0  0  0  0  0  0  0  0  0  0  0  0
  -15.5878  -30.2839   23.7407 H   0  0  0  0  0  0  0  0  0  0  0  0
  -15.9120  -28.0941   22.7766 H   0  0  0  0  0  0  0  0  0  0  0  0
  -24.5787  -30.7757   25.6817 H   0  0  0  0  0  0  0  0  0  0  0  0
  -25.0041  -32.2289   26.5536 H   0  0  0  0  0  0  0  0  0  0  0  0
  -25.8166  -30.7245   26.9138 H   0  0  0  0  0  0  0  0  0  0  0  0
  -26.2892  -29.7335   24.0803 H   0  0  0  0  0  0  0  0  0  0  0  0
  -27.4336  -29.7484   25.4006 H   0  0  0  0  0  0  0  0  0  0  0  0
  -27.8466  -30.4994   23.8779 H   0  0  0  0  0  0  0  0  0  0  0  0
  -27.2251  -33.3632   26.1242 H   0  0  0  0  0  0  0  0  0  0  0  0
  -28.3902  -32.6065   25.0645 H   0  0  0  0  0  0  0  0  0  0  0  0
  -27.9772  -31.8555   26.5872 H   0  0  0  0  0  0  0  0  0  0  0  0
  -28.2744  -38.0016   24.6863 H   0  0  0  0  0  0  0  0  0  0  0  0
  -28.0396  -36.2711   24.7461 H   0  0  0  0  0  0  0  0  0  0  0  0
  -27.1773  -37.3087   25.8564 H   0  0  0  0  0  0  0  0  0  0  0  0
  -20.9627  -29.9365   21.7352 H   0  0  0  0  0  0  0  0  0  0  0  0
  -26.0447  -38.2561   24.0273 H   0  0  0  0  0  0  0  0  0  0  0  0
  -28.5052  -24.3631   21.6504 H   0  0  0  0  0  0  0  0  0  0  0  0
  -29.3361  -22.8841   21.7879 H   0  0  0  0  0  0  0  0  0  0  0  0
  -30.9053  -23.4990   20.0477 H   0  0  0  0  0  0  0  0  0  0  0  0
  -30.7201  -24.9663   20.9178 H   0  0  0  0  0  0  0  0  0  0  0  0
  -27.1613  -22.9224   20.3064 H   0  0  0  0  0  0  0  0  0  0  0  0
  -28.4952  -22.1226   19.6121 H   0  0  0  0  0  0  0  0  0  0  0  0
  -30.2240  -24.7767   18.2467 H   0  0  0  0  0  0  0  0  0  0  0  0
  -25.3634  -26.7630   16.8712 H   0  0  0  0  0  0  0  0  0  0  0  0
  -25.8824  -25.6654   15.6147 H   0  0  0  0  0  0  0  0  0  0  0  0
  -27.0108  -26.1812   16.8450 H   0  0  0  0  0  0  0  0  0  0  0  0
  -23.5489  -25.4124   17.5488 H   0  0  0  0  0  0  0  0  0  0  0  0
  -23.7481  -23.7506   18.0506 H   0  0  0  0  0  0  0  0  0  0  0  0
  -23.8683  -24.1729   16.3594 H   0  0  0  0  0  0  0  0  0  0  0  0
  -26.5668  -23.7361   15.1346 H   0  0  0  0  0  0  0  0  0  0  0  0
  -25.2307  -22.7310   15.6420 H   0  0  0  0  0  0  0  0  0  0  0  0
  -26.8560  -22.0897   15.6431 H   0  0  0  0  0  0  0  0  0  0  0  0
  -29.0637  -26.7499   18.2618 H   0  0  0  0  0  0  0  0  0  0  0  0
  -30.2000  -26.7530   19.6748 H   0  0  0  0  0  0  0  0  0  0  0  0
  -28.3278  -24.3911   16.8351 H   0  0  0  0  0  0  0  0  0  0  0  0
  -28.4508  -22.7254   17.4202 H   0  0  0  0  0  0  0  0  0  0  0  0
  -25.7824  -24.9605   18.5484 H   0  0  0  0  0  0  0  0  0  0  0  0
  -25.1291  -22.4750   18.5265 H   0  0  0  0  0  0  0  0  0  0  0  0
  -27.4679  -24.8253   19.0644 H   0  0  0  0  0  0  0  0  0  0  0  0
  1 25  1  0
  1 30  2  0
  1 82  1  0
  2  3  1  0
  2 25  1  0
  2 84  1  0
  2 85  1  0
  3  4  1  0
  3 86  1  0
  3 87  1  0
  4  5  1  0
  4 88  1  0
  4 89  1  0
  5  6  1  0
  5 26  1  0
  5 90  1  6
  6 25  1  0
  6 91  1  0
  6 92  1  0
  7  8  2  0
  7 26  1  0
  7 29  1  0
  8  9  1  0
  8 22  1  0
  9 10  1  0
  9 27  2  0
 10 11  2  0
 10 15  1  0
 11 12  1  0
 11 93  1  0
 12 13  2  0
 12 94  1  0
 13 14  1  0
 13 31  1  0
 14 15  2  0
 14 95  1  0
 15 96  1  0
 16 17  2  0
 16 21  1  0
 16 31  1  0
 17 18  1  0
 17 97  1  0
 18 19  2  0
 18 98  1  0
 19 20  1  0
 19 24  1  0
 20 21  2  0
 20 99  1  0
 21 23  1  0
 22 28  1  0
 22 32  2  0
 26 27  1  0
 28100  1  0
 28101  1  0
 29102  1  0
 29103  1  0
 33 34  1  0
 33 66  1  0
 33 70  2  0
 34 36  1  0
 34 59  1  0
 34104  1  6
 35 44  2  0
 35 45  1  0
 35 68  1  0
 36 56  1  0
 36105  1  0
 37 39  1  0
 37 47  1  0
 37 66  1  0
 37106  1  6
 38 43  2  0
 38 46  1  0
 38 47  1  0
 39 64  1  0
 39 67  2  0
 40 52  1  0
 40 53  2  0
 40 58  1  0
 41107  1  0
 41108  1  0
 41109  1  0
 42 43  1  0
 42 66  1  0
 42110  1  0
 42111  1  0
 43 44  1  0
 44112  1  0
 45 46  2  0
 45113  1  0
 46114  1  0
 47115  1  0
 47116  1  0
 48 41  1  0
 48 56  1  0
 48 65  1  0
 48117  1  1
 49 50  1  0
 49 53  1  0
 49 64  1  0
 49118  1  1
 50 51  1  0
 50119  1  0
 50120  1  0
 51 52  1  0
 51121  1  0
 51122  1  0
 52123  1  0
 52124  1  0
 53 54  1  0
 54 55  2  0
 54125  1  0
 55 57  1  0
 55126  1  0
 56 69  2  0
 57 58  2  0
 57127  1  0
 58128  1  0
 59 60  1  0
 59 61  1  0
 59 62  1  0
 60129  1  0
 60130  1  0
 60131  1  0
 61132  1  0
 61133  1  0
 61134  1  0
 62135  1  0
 62136  1  0
 62137  1  0
 63 65  1  0
 63138  1  0
 63139  1  0
 63140  1  0
 64141  1  0
 65142  1  0
 68 78  1  0
 71 72  1  0
 71 73  1  0
 71143  1  0
 71144  1  0
 72 74  1  0
 72145  1  0
 72146  1  0
 73 83  1  0
 73147  1  0
 73148  1  0
 74 78  1  0
 74 83  1  0
 74149  1  6
 75150  1  0
 75151  1  0
 75152  1  0
 76 80  1  0
 76153  1  0
 76154  1  0
 76155  1  0
 77156  1  0
 77157  1  0
 77158  1  0
 78159  1  0
 78160  1  0
 79 81  1  0
 79161  1  0
 79162  1  0
 80 75  1  0
 80 81  1  0
 80163  1  0
 81 77  1  0
 81 82  1  1
 82164  1  0
 83 79  1  0
 83165  1  1
M  CHG  1  83   1
M  ISO  4   1 100  68 101  78 101  82 100
M  END
$$$$
91
     RDKit          3D

169177  0  0  0  0  0  0  0  0999 V2000
  -30.7652  -14.3608   20.6636 C   0  0  0  0  0  0  0  0  0100  0  0
  -30.4392  -12.2669   19.3775 C   0  0  0  0  0  0  0  0  0101  0  0
  -29.4791  -12.5281   18.1977 C   0  0  0  0  0  0  0  0  0102  0  0
  -27.9985  -12.3963   18.6038 C   0  0  0  0  0  0  0  0  0103  0  0
  -27.6639  -13.2170   19.8820 C   0  0  2  0  0  0  0  0  0104  0  0
  -28.6795  -12.9602   21.0279 C   0  0  0  0  0  0  0  0  0105  0  0
  -25.2633  -13.8245   20.5754 C   0  0  0  0  0  0  0  0  0106  0  0
  -24.1645  -13.0409   20.9408 C   0  0  0  0  0  0  0  0  0107  0  0
  -24.6400  -11.7009   20.8697 C   0  0  0  0  0  0  0  0  0108  0  0
  -23.9005  -10.4085   21.0420 C   0  0  0  0  0  0  0  0  0109  0  0
  -24.3588   -9.4123   21.9123 C   0  0  0  0  0  0  0  0  0110  0  0
  -23.6296   -8.2350   22.0803 C   0  0  0  0  0  0  0  0  0111  0  0
  -22.4385   -8.0419   21.3657 C   0  0  0  0  0  0  0  0  0112  0  0
  -22.0103   -9.0167   20.4678 C   0  0  0  0  0  0  0  0  0113  0  0
  -22.7317  -10.1925   20.3102 C   0  0  0  0  0  0  0  0  0114  0  0
  -21.6857   -6.0709   22.5391 C   0  0  0  0  0  0  0  0  0115  0  0
  -21.4064   -6.5490   23.8264 C   0  0  0  0  0  0  0  0  0116  0  0
  -21.3635   -5.6677   24.9085 C   0  0  0  0  0  0  0  0  0117  0  0
  -21.5973   -4.3067   24.7088 C   0  0  0  0  0  0  0  0  0118  0  0
  -21.8700   -3.8284   23.4282 C   0  0  0  0  0  0  0  0  0119  0  0
  -21.9144   -4.7056   22.3460 C   0  0  0  0  0  0  0  0  0120  0  0
  -22.8194  -13.5263   21.1763 C   0  0  0  0  0  0  0  0  0121  0  0
  -22.1559   -4.2206   21.1063 F   0  0  0  0  0  0  0  0  0122  0  0
  -21.5628   -3.4510   25.7555 F   0  0  0  0  0  0  0  0  0123  0  0
  -30.0261  -13.1803   20.4553 N   0  0  0  0  0  0  0  0  0124  0  0
  -26.2911  -12.9356   20.3443 N   0  0  0  0  0  0  0  0  0125  0  0
  -25.9236  -11.6675   20.5847 N   0  0  0  0  0  0  0  0  0126  0  0
  -22.0708  -12.7905   22.0005 N   0  0  0  0  0  0  0  0  0127  0  0
  -25.4117  -15.1773   20.4097 N   0  0  0  0  0  0  0  0  0128  0  0
  -31.7916  -14.6724   20.0536 O   0  0  0  0  0  0  0  0  0129  0  0
  -21.6670   -6.9022   21.4423 O   0  0  0  0  0  0  0  0  0130  0  0
  -22.3946  -14.5564   20.6568 O   0  0  0  0  0  0  0  0  0131  0  0
  -24.6048  -31.8614   23.2223 C   0  0  0  0  0  0  0  0  0100  0  0
  -25.8822  -32.4841   23.8616 C   0  0  1  0  0  0  0  0  0101  0  0
  -27.2536  -27.5042   20.1156 C   0  0  0  0  0  0  0  0  0102  0  0
  -25.5726  -33.8762   24.2210 N   0  0  0  0  0  0  0  0  0103  0  0
  -23.4066  -30.4859   21.5461 C   0  0  2  0  0  0  0  0  0104  0  0
  -24.8467  -28.9636   20.1247 C   0  0  0  0  0  0  0  0  0105  0  0
  -22.7412  -29.4652   22.5052 C   0  0  0  0  0  0  0  0  0106  0  0
  -18.0167  -28.1302   22.8626 C   0  0  0  0  0  0  0  0  0107  0  0
  -24.1342  -36.7390   23.2568 C   0  0  0  0  0  0  0  0  0108  0  0
  -25.9141  -30.8882   21.3456 C   0  0  0  0  0  0  0  0  0109  0  0
  -25.9930  -29.5029   20.7208 C   0  0  0  0  0  0  0  0  0110  0  0
  -27.1758  -28.7612   20.7331 C   0  0  0  0  0  0  0  0  0111  0  0
  -26.1032  -26.9836   19.5230 C   0  0  0  0  0  0  0  0  0112  0  0
  -24.9097  -27.7011   19.5331 C   0  0  0  0  0  0  0  0  0113  0  0
  -23.5715  -29.7899   20.1582 C   0  0  0  0  0  0  0  0  0114  0  0
  -25.3990  -36.3212   24.0232 C   0  0  1  0  0  0  0  0  0115  0  0
  -20.5793  -28.3813   23.1004 C   0  0  2  0  0  0  0  0  0116  0  0
  -20.6548  -26.9392   22.5411 C   0  0  0  0  0  0  0  0  0117  0  0
  -19.5615  -26.6407   21.5143 C   0  0  0  0  0  0  0  0  0118  0  0
  -18.1797  -26.7818   22.1673 C   0  0  0  0  0  0  0  0  0119  0  0
  -19.1385  -28.8769   23.2988 C   0  0  0  0  0  0  0  0  0120  0  0
  -18.9183  -30.1286   23.8878 C   0  0  0  0  0  0  0  0  0121  0  0
  -17.6396  -30.6493   24.0352 C   0  0  0  0  0  0  0  0  0122  0  0
  -25.9153  -34.9582   23.4993 C   0  0  0  0  0  0  0  0  0123  0  0
  -16.5415  -29.9068   23.6254 C   0  0  0  0  0  0  0  0  0124  0  0
  -16.7331  -28.6521   23.0586 C   0  0  0  0  0  0  0  0  0125  0  0
  -26.4583  -31.6439   25.0683 C   0  0  0  0  0  0  0  0  0126  0  0
  -25.3807  -31.3179   26.1374 C   0  0  0  0  0  0  0  0  0127  0  0
  -27.0530  -30.3024   24.5680 C   0  0  0  0  0  0  0  0  0128  0  0
  -27.6014  -32.4281   25.7651 C   0  0  0  0  0  0  0  0  0129  0  0
  -27.5629  -37.2220   24.8621 C   0  0  0  0  0  0  0  0  0130  0  0
  -21.4133  -29.3375   22.3735 N   0  0  0  0  0  0  0  0  0131  0  0
  -26.4706  -37.3372   23.9061 N   0  0  0  0  0  0  0  0  0132  0  0
  -24.6674  -31.0544   22.1178 N   0  0  0  0  0  0  0  0  0133  0  0
  -23.4259  -28.8150   23.2971 O   0  0  0  0  0  0  0  0  0134  0  0
  -28.3948  -26.7345   20.0089 O   0  0  0  0  0  0  0  0  0135  0  0
  -26.5870  -34.9065   22.4671 O   0  0  0  0  0  0  0  0  0136  0  0
  -23.5365  -32.1254   23.7833 O   0  0  0  0  0  0  0  0  0137  0  0
  -30.5015  -14.0626   26.1103 C   0  0  0  0  0  0  0  0  0  0  0  0
  -29.8828  -13.5228   27.2648 C   0  0  0  0  0  0  0  0  0  0  0  0
  -30.8625  -13.0053   25.3046 C   0  0  0  0  0  0  0  0  0  0  0  0
  -29.8847  -12.1520   27.1296 C   0  0  0  0  0  0  0  0  0  0  0  0
  -27.8396  -11.2089   28.2617 C   0  0  0  0  0  0  0  0  0  0  0  0
  -30.0804  -11.0983   29.4111 C   0  0  0  0  0  0  0  0  0  0  0  0
  -30.3639   -8.4503   23.0319 C   0  0  0  0  0  0  0  0  0  0  0  0
  -31.5364  -13.0041   23.9898 C   0  0  0  0  0  0  0  0  0  0  0  0
  -30.6847  -10.5013   25.4125 C   0  0  0  0  0  0  0  0  0  0  0  0
  -29.4197   -9.8684   24.8479 C   0  0  0  0  0  0  0  0  0  0  0  0
  -28.4968   -7.5921   24.4388 C   0  0  0  0  0  0  0  0  0  0  0  0
  -28.2009   -7.2326   25.8815 C   0  0  0  0  0  0  0  0  0  1  0  0
  -29.3663  -11.1104   28.0402 C   0  0  0  0  0  0  0  0  0  0  0  0
  -30.4830  -11.8488   25.9344 N   0  0  0  0  0  0  0  0  0  0  0  0
  -30.6324  -12.7275   22.8957 N   0  0  0  0  0  0  0  0  0  0  0  0
  -29.7006   -8.4596   24.3869 N   0  0  1  0  0  0  0  0  0  0  0  0
  -31.4485  -12.4701   19.0860 H   0  0  0  0  0  0  0  0  0  0  0  0
  -30.3970  -11.2460   19.6950 H   0  0  0  0  0  0  0  0  0  0  0  0
  -29.6870  -11.8204   17.4226 H   0  0  0  0  0  0  0  0  0  0  0  0
  -29.6375  -13.5326   17.8649 H   0  0  0  0  0  0  0  0  0  0  0  0
  -27.7830  -11.3650   18.7904 H   0  0  0  0  0  0  0  0  0  0  0  0
  -27.4028  -12.7801   17.8021 H   0  0  0  0  0  0  0  0  0  0  0  0
  -27.7353  -14.2503   19.6136 H   0  0  0  0  0  0  0  0  0  0  0  0
  -28.5890  -11.9550   21.3832 H   0  0  0  0  0  0  0  0  0  0  0  0
  -28.5005  -13.6134   21.8562 H   0  0  0  0  0  0  0  0  0  0  0  0
  -25.2399   -9.5495   22.4318 H   0  0  0  0  0  0  0  0  0  0  0  0
  -23.9663   -7.5070   22.7297 H   0  0  0  0  0  0  0  0  0  0  0  0
  -21.1515   -8.8641   19.9162 H   0  0  0  0  0  0  0  0  0  0  0  0
  -22.4016  -10.9115   19.6476 H   0  0  0  0  0  0  0  0  0  0  0  0
  -21.2319   -7.5552   23.9750 H   0  0  0  0  0  0  0  0  0  0  0  0
  -21.1589   -6.0228   25.8556 H   0  0  0  0  0  0  0  0  0  0  0  0
  -22.0396   -2.8212   23.2809 H   0  0  0  0  0  0  0  0  0  0  0  0
  -22.4401  -11.9703   22.4008 H   0  0  0  0  0  0  0  0  0  0  0  0
  -21.1493  -13.0679   22.2082 H   0  0  0  0  0  0  0  0  0  0  0  0
  -24.6538  -15.7807   20.5848 H   0  0  0  0  0  0  0  0  0  0  0  0
  -26.2762  -15.5453   20.1156 H   0  0  0  0  0  0  0  0  0  0  0  0
  -26.6778  -32.4663   23.1464 H   0  0  0  0  0  0  0  0  0  0  0  0
  -25.0747  -34.0282   25.0566 H   0  0  0  0  0  0  0  0  0  0  0  0
  -22.7881  -31.3489   21.4131 H   0  0  0  0  0  0  0  0  0  0  0  0
  -23.3854  -35.9823   23.3648 H   0  0  0  0  0  0  0  0  0  0  0  0
  -24.3696  -36.8624   22.2204 H   0  0  0  0  0  0  0  0  0  0  0  0
  -23.7669  -37.6632   23.6516 H   0  0  0  0  0  0  0  0  0  0  0  0
  -25.9445  -31.6237   20.5691 H   0  0  0  0  0  0  0  0  0  0  0  0
  -26.7436  -31.0079   22.0108 H   0  0  0  0  0  0  0  0  0  0  0  0
  -28.0090  -29.1452   21.2057 H   0  0  0  0  0  0  0  0  0  0  0  0
  -26.1369  -26.0560   19.0719 H   0  0  0  0  0  0  0  0  0  0  0  0
  -24.0652  -27.2961   19.0997 H   0  0  0  0  0  0  0  0  0  0  0  0
  -23.6156  -30.5365   19.3930 H   0  0  0  0  0  0  0  0  0  0  0  0
  -22.7355  -29.1425   19.9945 H   0  0  0  0  0  0  0  0  0  0  0  0
  -25.1353  -36.2335   25.0565 H   0  0  0  0  0  0  0  0  0  0  0  0
  -21.0070  -28.3206   24.0793 H   0  0  0  0  0  0  0  0  0  0  0  0
  -20.5555  -26.2518   23.3550 H   0  0  0  0  0  0  0  0  0  0  0  0
  -21.5974  -26.8362   22.0454 H   0  0  0  0  0  0  0  0  0  0  0  0
  -19.6810  -25.6422   21.1488 H   0  0  0  0  0  0  0  0  0  0  0  0
  -19.6406  -27.3343   20.7034 H   0  0  0  0  0  0  0  0  0  0  0  0
  -17.4282  -26.6888   21.4113 H   0  0  0  0  0  0  0  0  0  0  0  0
  -18.0803  -26.0130   22.9049 H   0  0  0  0  0  0  0  0  0  0  0  0
  -19.7265  -30.6774   24.2204 H   0  0  0  0  0  0  0  0  0  0  0  0
  -17.5064  -31.5856   24.4483 H   0  0  0  0  0  0  0  0  0  0  0  0
  -15.5878  -30.2839   23.7407 H   0  0  0  0  0  0  0  0  0  0  0  0
  -15.9120  -28.0941   22.7766 H   0  0  0  0  0  0  0  0  0  0  0  0
  -24.5787  -30.7757   25.6817 H   0  0  0  0  0  0  0  0  0  0  0  0
  -25.0041  -32.2289   26.5536 H   0  0  0  0  0  0  0  0  0  0  0  0
  -25.8166  -30.7245   26.9138 H   0  0  0  0  0  0  0  0  0  0  0  0
  -26.2892  -29.7335   24.0803 H   0  0  0  0  0  0  0  0  0  0  0  0
  -27.4336  -29.7484   25.4006 H   0  0  0  0  0  0  0  0  0  0  0  0
  -27.8466  -30.4994   23.8779 H   0  0  0  0  0  0  0  0  0  0  0  0
  -27.2251  -33.3632   26.1242 H   0  0  0  0  0  0  0  0  0  0  0  0
  -28.3902  -32.6065   25.0645 H   0  0  0  0  0  0  0  0  0  0  0  0
  -27.9772  -31.8555   26.5872 H   0  0  0  0  0  0  0  0  0  0  0  0
  -28.2744  -38.0016   24.6863 H   0  0  0  0  0  0  0  0  0  0  0  0
  -28.0396  -36.2711   24.7461 H   0  0  0  0  0  0  0  0  0  0  0  0
  -27.1773  -37.3087   25.8564 H   0  0  0  0  0  0  0  0  0  0  0  0
  -20.9627  -29.9365   21.7352 H   0  0  0  0  0  0  0  0  0  0  0  0
  -26.0447  -38.2561   24.0273 H   0  0  0  0  0  0  0  0  0  0  0  0
  -30.6537  -15.0635   25.9099 H   0  0  0  0  0  0  0  0  0  0  0  0
  -29.5011  -14.0579   28.0604 H   0  0  0  0  0  0  0  0  0  0  0  0
  -27.3416  -11.2175   27.3147 H   0  0  0  0  0  0  0  0  0  0  0  0
  -27.6135  -12.1105   28.7918 H   0  0  0  0  0  0  0  0  0  0  0  0
  -27.5069  -10.3669   28.8320 H   0  0  0  0  0  0  0  0  0  0  0  0
  -31.1378  -11.0302   29.2619 H   0  0  0  0  0  0  0  0  0  0  0  0
  -29.7455  -10.2564   29.9803 H   0  0  0  0  0  0  0  0  0  0  0  0
  -29.8522  -12.0000   29.9401 H   0  0  0  0  0  0  0  0  0  0  0  0
  -31.2221   -9.0891   23.0505 H   0  0  0  0  0  0  0  0  0  0  0  0
  -29.6732   -8.8021   22.2943 H   0  0  0  0  0  0  0  0  0  0  0  0
  -30.6668   -7.4530   22.7899 H   0  0  0  0  0  0  0  0  0  0  0  0
  -32.3012  -12.2558   23.9986 H   0  0  0  0  0  0  0  0  0  0  0  0
  -31.9396  -13.9829   23.8342 H   0  0  0  0  0  0  0  0  0  0  0  0
  -31.4166  -10.5468   24.6333 H   0  0  0  0  0  0  0  0  0  0  0  0
  -31.0001   -9.8917   26.2334 H   0  0  0  0  0  0  0  0  0  0  0  0
  -29.0744  -10.4492   24.0182 H   0  0  0  0  0  0  0  0  0  0  0  0
  -28.6721   -9.8420   25.6130 H   0  0  0  0  0  0  0  0  0  0  0  0
  -27.6613   -8.1147   24.0220 H   0  0  0  0  0  0  0  0  0  0  0  0
  -28.6733   -6.6996   23.8757 H   0  0  0  0  0  0  0  0  0  0  0  0
  -28.9801   -6.8547   26.5099 H   0  0  0  0  0  0  0  0  0  0  0  0
  -27.4958   -6.5966   26.3748 H   0  0  0  0  0  0  0  0  0  0  0  0
  -29.5780  -10.1890   27.5391 H   0  0  0  0  0  0  0  0  0  0  0  0
  -29.9905  -11.9826   22.9428 H   0  0  0  0  0  0  0  0  0  0  0  0
  -30.3617   -8.0523   25.0483 H   0  0  0  0  0  0  0  0  0  0  0  0
  1 25  1  0
  1 30  2  0
  1 85  1  0
  2  3  1  0
  2 25  1  0
  2 87  1  0
  2 88  1  0
  3  4  1  0
  3 89  1  0
  3 90  1  0
  4  5  1  0
  4 91  1  0
  4 92  1  0
  5  6  1  0
  5 26  1  0
  5 93  1  6
  6 25  1  0
  6 94  1  0
  6 95  1  0
  7  8  2  0
  7 26  1  0
  7 29  1  0
  8  9  1  0
  8 22  1  0
  9 10  1  0
  9 27  2  0
 10 11  2  0
 10 15  1  0
 11 12  1  0
 11 96  1  0
 12 13  2  0
 12 97  1  0
 13 14  1  0
 13 31  1  0
 14 15  2  0
 14 98  1  0
 15 99  1  0
 16 17  2  0
 16 21  1  0
 16 31  1  0
 17 18  1  0
 17100  1  0
 18 19  2  0
 18101  1  0
 19 20  1  0
 19 24  1  0
 20 21  2  0
 20102  1  0
 21 23  1  0
 22 28  1  0
 22 32  2  0
 26 27  1  0
 28103  1  0
 28104  1  0
 29105  1  0
 29106  1  0
 33 34  1  0
 33 66  1  0
 33 70  2  0
 34 36  1  0
 34 59  1  0
 34107  1  6
 35 44  2  0
 35 45  1  0
 35 68  1  0
 36 56  1  0
 36108  1  0
 37 39  1  0
 37 47  1  0
 37 66  1  0
 37109  1  6
 38 43  2  0
 38 46  1  0
 38 47  1  0
 39 64  1  0
 39 67  2  0
 40 52  1  0
 40 53  2  0
 40 58  1  0
 41110  1  0
 41111  1  0
 41112  1  0
 42 43  1  0
 42 66  1  0
 42113  1  0
 42114  1  0
 43 44  1  0
 44115  1  0
 45 46  2  0
 45116  1  0
 46117  1  0
 47118  1  0
 47119  1  0
 48 41  1  0
 48 56  1  0
 48 65  1  0
 48120  1  1
 49 50  1  0
 49 53  1  0
 49 64  1  0
 49121  1  1
 50 51  1  0
 50122  1  0
 50123  1  0
 51 52  1  0
 51124  1  0
 51125  1  0
 52126  1  0
 52127  1  0
 53 54  1  0
 54 55  2  0
 54128  1  0
 55 57  1  0
 55129  1  0
 56 69  2  0
 57 58  2  0
 57130  1  0
 58131  1  0
 59 60  1  0
 59 61  1  0
 59 62  1  0
 60132  1  0
 60133  1  0
 60134  1  0
 61135  1  0
 61136  1  0
 61137  1  0
 62138  1  0
 62139  1  0
 62140  1  0
 63 65  1  0
 63141  1  0
 63142  1  0
 63143  1  0
 64144  1  0
 65145  1  0
 68 82  1  0
 71 72  1  0
 71 73  2  0
 71146  1  0
 72 74  2  0
 72147  1  0
 73 78  1  0
 73 84  1  0
 74 83  1  0
 74 84  1  0
 75148  1  0
 75149  1  0
 75150  1  0
 76 83  1  0
 76151  1  0
 76152  1  0
 76153  1  0
 77154  1  0
 77155  1  0
 77156  1  0
 78 85  1  0
 78157  1  0
 78158  1  0
 79 80  1  0
 79 84  1  0
 79159  1  0
 79160  1  0
 80 86  1  0
 80161  1  0
 80162  1  0
 81 82  1  0
 81 86  1  0
 81163  1  0
 81164  1  0
 82165  1  0
 82166  1  0
 83 75  1  0
 83167  1  0
 85168  1  0
 86 77  1  0
 86169  1  1
M  CHG  1  86   1
M  ISO  4   1 100  68 101  82 101  85 100
M  END
$$$$
92
     RDKit          3D

161168  0  0  0  0  0  0  0  0999 V2000
  -30.7652  -14.3608   20.6636 C   0  0  0  0  0  0  0  0  0100  0  0
  -30.4392  -12.2669   19.3775 C   0  0  0  0  0  0  0  0  0101  0  0
  -29.4791  -12.5281   18.1977 C   0  0  0  0  0  0  0  0  0102  0  0
  -27.9985  -12.3963   18.6038 C   0  0  0  0  0  0  0  0  0103  0  0
  -27.6639  -13.2170   19.8820 C   0  0  2  0  0  0  0  0  0104  0  0
  -28.6795  -12.9602   21.0279 C   0  0  0  0  0  0  0  0  0105  0  0
  -25.2633  -13.8245   20.5754 C   0  0  0  0  0  0  0  0  0106  0  0
  -24.1645  -13.0409   20.9408 C   0  0  0  0  0  0  0  0  0107  0  0
  -24.6400  -11.7009   20.8697 C   0  0  0  0  0  0  0  0  0108  0  0
  -23.9005  -10.4085   21.0420 C   0  0  0  0  0  0  0  0  0109  0  0
  -24.3588   -9.4123   21.9123 C   0  0  0  0  0  0  0  0  0110  0  0
  -23.6296   -8.2350   22.0803 C   0  0  0  0  0  0  0  0  0111  0  0
  -22.4385   -8.0419   21.3657 C   0  0  0  0  0  0  0  0  0112  0  0
  -22.0103   -9.0167   20.4678 C   0  0  0  0  0  0  0  0  0113  0  0
  -22.7317  -10.1925   20.3102 C   0  0  0  0  0  0  0  0  0114  0  0
  -21.6857   -6.0709   22.5391 C   0  0  0  0  0  0  0  0  0115  0  0
  -21.4064   -6.5490   23.8264 C   0  0  0  0  0  0  0  0  0116  0  0
  -21.3635   -5.6677   24.9085 C   0  0  0  0  0  0  0  0  0117  0  0
  -21.5973   -4.3067   24.7088 C   0  0  0  0  0  0  0  0  0118  0  0
  -21.8700   -3.8284   23.4282 C   0  0  0  0  0  0  0  0  0119  0  0
  -21.9144   -4.7056   22.3460 C   0  0  0  0  0  0  0  0  0120  0  0
  -22.8194  -13.5263   21.1763 C   0  0  0  0  0  0  0  0  0121  0  0
  -22.1559   -4.2206   21.1063 F   0  0  0  0  0  0  0  0  0122  0  0
  -21.5628   -3.4510   25.7555 F   0  0  0  0  0  0  0  0  0123  0  0
  -30.0261  -13.1803   20.4553 N   0  0  0  0  0  0  0  0  0124  0  0
  -26.2911  -12.9356   20.3443 N   0  0  0  0  0  0  0  0  0125  0  0
  -25.9236  -11.6675   20.5847 N   0  0  0  0  0  0  0  0  0126  0  0
  -22.0708  -12.7905   22.0005 N   0  0  0  0  0  0  0  0  0127  0  0
  -25.4117  -15.1773   20.4097 N   0  0  0  0  0  0  0  0  0128  0  0
  -31.7916  -14.6724   20.0536 O   0  0  0  0  0  0  0  0  0129  0  0
  -21.6670   -6.9022   21.4423 O   0  0  0  0  0  0  0  0  0130  0  0
  -22.3946  -14.5564   20.6568 O   0  0  0  0  0  0  0  0  0131  0  0
  -24.6048  -31.8614   23.2223 C   0  0  0  0  0  0  0  0  0100  0  0
  -25.8822  -32.4841   23.8616 C   0  0  1  0  0  0  0  0  0101  0  0
  -27.2536  -27.5042   20.1156 C   0  0  0  0  0  0  0  0  0102  0  0
  -25.5726  -33.8762   24.2210 N   0  0  0  0  0  0  0  0  0103  0  0
  -23.4066  -30.4859   21.5461 C   0  0  2  0  0  0  0  0  0104  0  0
  -24.8467  -28.9636   20.1247 C   0  0  0  0  0  0  0  0  0105  0  0
  -22.7412  -29.4652   22.5052 C   0  0  0  0  0  0  0  0  0106  0  0
  -18.0167  -28.1302   22.8626 C   0  0  0  0  0  0  0  0  0107  0  0
  -24.1342  -36.7390   23.2568 C   0  0  0  0  0  0  0  0  0108  0  0
  -25.9141  -30.8882   21.3456 C   0  0  0  0  0  0  0  0  0109  0  0
  -25.9930  -29.5029   20.7208 C   0  0  0  0  0  0  0  0  0110  0  0
  -27.1758  -28.7612   20.7331 C   0  0  0  0  0  0  0  0  0111  0  0
  -26.1032  -26.9836   19.5230 C   0  0  0  0  0  0  0  0  0112  0  0
  -24.9097  -27.7011   19.5331 C   0  0  0  0  0  0  0  0  0113  0  0
  -23.5715  -29.7899   20.1582 C   0  0  0  0  0  0  0  0  0114  0  0
  -25.3990  -36.3212   24.0232 C   0  0  1  0  0  0  0  0  0115  0  0
  -20.5793  -28.3813   23.1004 C   0  0  2  0  0  0  0  0  0116  0  0
  -20.6548  -26.9392   22.5411 C   0  0  0  0  0  0  0  0  0117  0  0
  -19.5615  -26.6407   21.5143 C   0  0  0  0  0  0  0  0  0118  0  0
  -18.1797  -26.7818   22.1673 C   0  0  0  0  0  0  0  0  0119  0  0
  -19.1385  -28.8769   23.2988 C   0  0  0  0  0  0  0  0  0120  0  0
  -18.9183  -30.1286   23.8878 C   0  0  0  0  0  0  0  0  0121  0  0
  -17.6396  -30.6493   24.0352 C   0  0  0  0  0  0  0  0  0122  0  0
  -25.9153  -34.9582   23.4993 C   0  0  0  0  0  0  0  0  0123  0  0
  -16.5415  -29.9068   23.6254 C   0  0  0  0  0  0  0  0  0124  0  0
  -16.7331  -28.6521   23.0586 C   0  0  0  0  0  0  0  0  0125  0  0
  -26.4583  -31.6439   25.0683 C   0  0  0  0  0  0  0  0  0126  0  0
  -25.3807  -31.3179   26.1374 C   0  0  0  0  0  0  0  0  0127  0  0
  -27.0530  -30.3024   24.5680 C   0  0  0  0  0  0  0  0  0128  0  0
  -27.6014  -32.4281   25.7651 C   0  0  0  0  0  0  0  0  0129  0  0
  -27.5629  -37.2220   24.8621 C   0  0  0  0  0  0  0  0  0130  0  0
  -21.4133  -29.3375   22.3735 N   0  0  0  0  0  0  0  0  0131  0  0
  -26.4706  -37.3372   23.9061 N   0  0  0  0  0  0  0  0  0132  0  0
  -24.6674  -31.0544   22.1178 N   0  0  0  0  0  0  0  0  0133  0  0
  -23.4259  -28.8150   23.2971 O   0  0  0  0  0  0  0  0  0134  0  0
  -28.3948  -26.7345   20.0089 O   0  0  0  0  0  0  0  0  0135  0  0
  -26.5870  -34.9065   22.4671 O   0  0  0  0  0  0  0  0  0136  0  0
  -23.5365  -32.1254   23.7833 O   0  0  0  0  0  0  0  0  0137  0  0
  -31.9399  -25.4731   16.2929 C   0  0  0  0  0  0  0  0  0  0  0  0
  -30.4360  -22.7305   18.6696 C   0  0  0  0  0  0  0  0  0  0  0  0
  -31.5905  -23.0605   20.8552 C   0  0  0  0  0  0  0  0  0  0  0  0
  -30.8961  -27.4282   18.4123 C   0  0  0  0  0  0  0  0  0  0  0  0
  -30.5101  -25.5185   16.8202 C   0  0  0  0  0  0  0  0  0  0  0  0
  -31.1045  -25.1236   19.3495 C   0  0  0  0  0  0  0  0  0  0  0  0
  -29.2657  -23.8797   20.5713 C   0  0  0  0  0  0  0  0  0  0  0  0
  -28.8088  -26.0682   18.5771 C   0  0  0  0  0  0  0  0  0  1  0  0
  -30.6358  -23.7119   19.8441 C   0  0  0  0  0  0  0  0  0  0  0  0
  -30.3266  -25.9844   18.2957 C   0  0  1  0  0  0  0  0  0  0  0  0
  -28.7347  -22.6513   21.1188 N   0  0  0  0  0  0  0  0  0  0  0  0
  -31.4485  -12.4701   19.0860 H   0  0  0  0  0  0  0  0  0  0  0  0
  -30.3970  -11.2460   19.6950 H   0  0  0  0  0  0  0  0  0  0  0  0
  -29.6870  -11.8204   17.4226 H   0  0  0  0  0  0  0  0  0  0  0  0
  -29.6375  -13.5326   17.8649 H   0  0  0  0  0  0  0  0  0  0  0  0
  -27.7830  -11.3650   18.7904 H   0  0  0  0  0  0  0  0  0  0  0  0
  -27.4028  -12.7801   17.8021 H   0  0  0  0  0  0  0  0  0  0  0  0
  -27.7353  -14.2503   19.6136 H   0  0  0  0  0  0  0  0  0  0  0  0
  -28.5890  -11.9550   21.3832 H   0  0  0  0  0  0  0  0  0  0  0  0
  -28.5005  -13.6134   21.8562 H   0  0  0  0  0  0  0  0  0  0  0  0
  -25.2399   -9.5495   22.4318 H   0  0  0  0  0  0  0  0  0  0  0  0
  -23.9663   -7.5070   22.7297 H   0  0  0  0  0  0  0  0  0  0  0  0
  -21.1515   -8.8641   19.9162 H   0  0  0  0  0  0  0  0  0  0  0  0
  -22.4016  -10.9115   19.6476 H   0  0  0  0  0  0  0  0  0  0  0  0
  -21.2319   -7.5552   23.9750 H   0  0  0  0  0  0  0  0  0  0  0  0
  -21.1589   -6.0228   25.8556 H   0  0  0  0  0  0  0  0  0  0  0  0
  -22.0396   -2.8212   23.2809 H   0  0  0  0  0  0  0  0  0  0  0  0
  -22.4401  -11.9703   22.4008 H   0  0  0  0  0  0  0  0  0  0  0  0
  -21.1493  -13.0679   22.2082 H   0  0  0  0  0  0  0  0  0  0  0  0
  -24.6538  -15.7807   20.5848 H   0  0  0  0  0  0  0  0  0  0  0  0
  -26.2762  -15.5453   20.1156 H   0  0  0  0  0  0  0  0  0  0  0  0
  -26.6778  -32.4663   23.1464 H   0  0  0  0  0  0  0  0  0  0  0  0
  -25.0747  -34.0282   25.0566 H   0  0  0  0  0  0  0  0  0  0  0  0
  -22.7881  -31.3489   21.4131 H   0  0  0  0  0  0  0  0  0  0  0  0
  -23.3854  -35.9823   23.3648 H   0  0  0  0  0  0  0  0  0  0  0  0
  -24.3696  -36.8624   22.2204 H   0  0  0  0  0  0  0  0  0  0  0  0
  -23.7669  -37.6632   23.6516 H   0  0  0  0  0  0  0  0  0  0  0  0
  -25.9445  -31.6237   20.5691 H   0  0  0  0  0  0  0  0  0  0  0  0
  -26.7436  -31.0079   22.0108 H   0  0  0  0  0  0  0  0  0  0  0  0
  -28.0090  -29.1452   21.2057 H   0  0  0  0  0  0  0  0  0  0  0  0
  -26.1369  -26.0560   19.0719 H   0  0  0  0  0  0  0  0  0  0  0  0
  -24.0652  -27.2961   19.0997 H   0  0  0  0  0  0  0  0  0  0  0  0
  -23.6156  -30.5365   19.3930 H   0  0  0  0  0  0  0  0  0  0  0  0
  -22.7355  -29.1425   19.9945 H   0  0  0  0  0  0  0  0  0  0  0  0
  -25.1353  -36.2335   25.0565 H   0  0  0  0  0  0  0  0  0  0  0  0
  -21.0070  -28.3206   24.0793 H   0  0  0  0  0  0  0  0  0  0  0  0
  -20.5555  -26.2518   23.3550 H   0  0  0  0  0  0  0  0  0  0  0  0
  -21.5974  -26.8362   22.0454 H   0  0  0  0  0  0  0  0  0  0  0  0
  -19.6810  -25.6422   21.1488 H   0  0  0  0  0  0  0  0  0  0  0  0
  -19.6406  -27.3343   20.7034 H   0  0  0  0  0  0  0  0  0  0  0  0
  -17.4282  -26.6888   21.4113 H   0  0  0  0  0  0  0  0  0  0  0  0
  -18.0803  -26.0130   22.9049 H   0  0  0  0  0  0  0  0  0  0  0  0
  -19.7265  -30.6774   24.2204 H   0  0  0  0  0  0  0  0  0  0  0  0
  -17.5064  -31.5856   24.4483 H   0  0  0  0  0  0  0  0  0  0  0  0
  -15.5878  -30.2839   23.7407 H   0  0  0  0  0  0  0  0  0  0  0  0
  -15.9120  -28.0941   22.7766 H   0  0  0  0  0  0  0  0  0  0  0  0
  -24.5787  -30.7757   25.6817 H   0  0  0  0  0  0  0  0  0  0  0  0
  -25.0041  -32.2289   26.5536 H   0  0  0  0  0  0  0  0  0  0  0  0
  -25.8166  -30.7245   26.9138 H   0  0  0  0  0  0  0  0  0  0  0  0
  -26.2892  -29.7335   24.0803 H   0  0  0  0  0  0  0  0  0  0  0  0
  -27.4336  -29.7484   25.4006 H   0  0  0  0  0  0  0  0  0  0  0  0
  -27.8466  -30.4994   23.8779 H   0  0  0  0  0  0  0  0  0  0  0  0
  -27.2251  -33.3632   26.1242 H   0  0  0  0  0  0  0  0  0  0  0  0
  -28.3902  -32.6065   25.0645 H   0  0  0  0  0  0  0  0  0  0  0  0
  -27.9772  -31.8555   26.5872 H   0  0  0  0  0  0  0  0  0  0  0  0
  -28.2744  -38.0016   24.6863 H   0  0  0  0  0  0  0  0  0  0  0  0
  -28.0396  -36.2711   24.7461 H   0  0  0  0  0  0  0  0  0  0  0  0
  -27.1773  -37.3087   25.8564 H   0  0  0  0  0  0  0  0  0  0  0  0
  -20.9627  -29.9365   21.7352 H   0  0  0  0  0  0  0  0  0  0  0  0
  -26.0447  -38.2561   24.0273 H   0  0  0  0  0  0  0  0  0  0  0  0
  -31.9346  -25.1403   15.2760 H   0  0  0  0  0  0  0  0  0  0  0  0
  -32.5177  -24.7961   16.8867 H   0  0  0  0  0  0  0  0  0  0  0  0
  -32.3708  -26.4511   16.3459 H   0  0  0  0  0  0  0  0  0  0  0  0
  -31.3639  -22.5983   18.1535 H   0  0  0  0  0  0  0  0  0  0  0  0
  -29.7057  -23.1258   17.9948 H   0  0  0  0  0  0  0  0  0  0  0  0
  -30.0999  -21.7871   19.0463 H   0  0  0  0  0  0  0  0  0  0  0  0
  -32.5501  -22.9231   20.4023 H   0  0  0  0  0  0  0  0  0  0  0  0
  -31.1986  -22.1112   21.1554 H   0  0  0  0  0  0  0  0  0  0  0  0
  -31.6880  -23.6933   21.7125 H   0  0  0  0  0  0  0  0  0  0  0  0
  -31.9492  -27.4126   18.2235 H   0  0  0  0  0  0  0  0  0  0  0  0
  -30.7160  -27.8041   19.3978 H   0  0  0  0  0  0  0  0  0  0  0  0
  -30.4146  -28.0605   17.6958 H   0  0  0  0  0  0  0  0  0  0  0  0
  -30.1019  -24.5329   16.7376 H   0  0  0  0  0  0  0  0  0  0  0  0
  -30.0132  -26.2572   16.2266 H   0  0  0  0  0  0  0  0  0  0  0  0
  -32.0824  -24.9779   18.9404 H   0  0  0  0  0  0  0  0  0  0  0  0
  -30.9624  -25.7075   20.2348 H   0  0  0  0  0  0  0  0  0  0  0  0
  -28.5579  -24.2685   19.8694 H   0  0  0  0  0  0  0  0  0  0  0  0
  -29.4329  -24.5392   21.3971 H   0  0  0  0  0  0  0  0  0  0  0  0
  -28.4131  -25.0744   18.5493 H   0  0  0  0  0  0  0  0  0  0  0  0
  -28.4060  -26.7142   17.8252 H   0  0  0  0  0  0  0  0  0  0  0  0
  -27.9438  -22.8087   21.6836 H   0  0  0  0  0  0  0  0  0  0  0  0
  1 25  1  0
  1 30  2  0
  1 81  1  0
  2  3  1  0
  2 25  1  0
  2 82  1  0
  2 83  1  0
  3  4  1  0
  3 84  1  0
  3 85  1  0
  4  5  1  0
  4 86  1  0
  4 87  1  0
  5  6  1  0
  5 26  1  0
  5 88  1  6
  6 25  1  0
  6 89  1  0
  6 90  1  0
  7  8  2  0
  7 26  1  0
  7 29  1  0
  8  9  1  0
  8 22  1  0
  9 10  1  0
  9 27  2  0
 10 11  2  0
 10 15  1  0
 11 12  1  0
 11 91  1  0
 12 13  2  0
 12 92  1  0
 13 14  1  0
 13 31  1  0
 14 15  2  0
 14 93  1  0
 15 94  1  0
 16 17  2  0
 16 21  1  0
 16 31  1  0
 17 18  1  0
 17 95  1  0
 18 19  2  0
 18 96  1  0
 19 20  1  0
 19 24  1  0
 20 21  2  0
 20 97  1  0
 21 23  1  0
 22 28  1  0
 22 32  2  0
 26 27  1  0
 28 98  1  0
 28 99  1  0
 29100  1  0
 29101  1  0
 33 34  1  0
 33 66  1  0
 33 70  2  0
 34 36  1  0
 34 59  1  0
 34102  1  6
 35 44  2  0
 35 45  1  0
 35 68  1  0
 36 56  1  0
 36103  1  0
 37 39  1  0
 37 47  1  0
 37 66  1  0
 37104  1  6
 38 43  2  0
 38 46  1  0
 38 47  1  0
 39 64  1  0
 39 67  2  0
 40 52  1  0
 40 53  2  0
 40 58  1  0
 41105  1  0
 41106  1  0
 41107  1  0
 42 43  1  0
 42 66  1  0
 42108  1  0
 42109  1  0
 43 44  1  0
 44110  1  0
 45 46  2  0
 45111  1  0
 46112  1  0
 47113  1  0
 47114  1  0
 48 41  1  0
 48 56  1  0
 48 65  1  0
 48115  1  1
 49 50  1  0
 49 53  1  0
 49 64  1  0
 49116  1  1
 50 51  1  0
 50117  1  0
 50118  1  0
 51 52  1  0
 51119  1  0
 51120  1  0
 52121  1  0
 52122  1  0
 53 54  1  0
 54 55  2  0
 54123  1  0
 55 57  1  0
 55124  1  0
 56 69  2  0
 57 58  2  0
 57125  1  0
 58126  1  0
 59 60  1  0
 59 61  1  0
 59 62  1  0
 60127  1  0
 60128  1  0
 60129  1  0
 61130  1  0
 61131  1  0
 61132  1  0
 62133  1  0
 62134  1  0
 62135  1  0
 63 65  1  0
 63136  1  0
 63137  1  0
 63138  1  0
 64139  1  0
 65140  1  0
 68 78  1  0
 71 75  1  0
 71141  1  0
 71142  1  0
 71143  1  0
 72144  1  0
 72145  1  0
 72146  1  0
 73 79  1  0
 73147  1  0
 73148  1  0
 73149  1  0
 74150  1  0
 74151  1  0
 74152  1  0
 80 75  1  6
 75153  1  0
 75154  1  0
 76 79  1  0
 76 80  1  0
 76155  1  0
 76156  1  0
 77 79  1  0
 77 81  1  0
 77157  1  0
 77158  1  0
 78 80  1  0
 78159  1  0
 78160  1  0
 79 72  1  0
 80 74  1  0
 81161  1  0
M  ISO  4   1 100  68 101  78 101  81 100
M  END
$$$$
93
     RDKit          3D

159167  0  0  0  0  0  0  0  0999 V2000
  -30.7652  -14.3608   20.6636 C   0  0  0  0  0  0  0  0  0100  0  0
  -30.4392  -12.2669   19.3775 C   0  0  0  0  0  0  0  0  0101  0  0
  -29.4791  -12.5281   18.1977 C   0  0  0  0  0  0  0  0  0102  0  0
  -27.9985  -12.3963   18.6038 C   0  0  0  0  0  0  0  0  0103  0  0
  -27.6639  -13.2170   19.8820 C   0  0  2  0  0  0  0  0  0104  0  0
  -28.6795  -12.9602   21.0279 C   0  0  0  0  0  0  0  0  0105  0  0
  -25.2633  -13.8245   20.5754 C   0  0  0  0  0  0  0  0  0106  0  0
  -24.1645  -13.0409   20.9408 C   0  0  0  0  0  0  0  0  0107  0  0
  -24.6400  -11.7009   20.8697 C   0  0  0  0  0  0  0  0  0108  0  0
  -23.9005  -10.4085   21.0420 C   0  0  0  0  0  0  0  0  0109  0  0
  -24.3588   -9.4123   21.9123 C   0  0  0  0  0  0  0  0  0110  0  0
  -23.6296   -8.2350   22.0803 C   0  0  0  0  0  0  0  0  0111  0  0
  -22.4385   -8.0419   21.3657 C   0  0  0  0  0  0  0  0  0112  0  0
  -22.0103   -9.0167   20.4678 C   0  0  0  0  0  0  0  0  0113  0  0
  -22.7317  -10.1925   20.3102 C   0  0  0  0  0  0  0  0  0114  0  0
  -21.6857   -6.0709   22.5391 C   0  0  0  0  0  0  0  0  0115  0  0
  -21.4064   -6.5490   23.8264 C   0  0  0  0  0  0  0  0  0116  0  0
  -21.3635   -5.6677   24.9085 C   0  0  0  0  0  0  0  0  0117  0  0
  -21.5973   -4.3067   24.7088 C   0  0  0  0  0  0  0  0  0118  0  0
  -21.8700   -3.8284   23.4282 C   0  0  0  0  0  0  0  0  0119  0  0
  -21.9144   -4.7056   22.3460 C   0  0  0  0  0  0  0  0  0120  0  0
  -22.8194  -13.5263   21.1763 C   0  0  0  0  0  0  0  0  0121  0  0
  -22.1559   -4.2206   21.1063 F   0  0  0  0  0  0  0  0  0122  0  0
  -21.5628   -3.4510   25.7555 F   0  0  0  0  0  0  0  0  0123  0  0
  -30.0261  -13.1803   20.4553 N   0  0  0  0  0  0  0  0  0124  0  0
  -26.2911  -12.9356   20.3443 N   0  0  0  0  0  0  0  0  0125  0  0
  -25.9236  -11.6675   20.5847 N   0  0  0  0  0  0  0  0  0126  0  0
  -22.0708  -12.7905   22.0005 N   0  0  0  0  0  0  0  0  0127  0  0
  -25.4117  -15.1773   20.4097 N   0  0  0  0  0  0  0  0  0128  0  0
  -31.7916  -14.6724   20.0536 O   0  0  0  0  0  0  0  0  0129  0  0
  -21.6670   -6.9022   21.4423 O   0  0  0  0  0  0  0  0  0130  0  0
  -22.3946  -14.5564   20.6568 O   0  0  0  0  0  0  0  0  0131  0  0
  -24.6048  -31.8614   23.2223 C   0  0  0  0  0  0  0  0  0100  0  0
  -25.8822  -32.4841   23.8616 C   0  0  1  0  0  0  0  0  0101  0  0
  -27.2536  -27.5042   20.1156 C   0  0  0  0  0  0  0  0  0102  0  0
  -25.5726  -33.8762   24.2210 N   0  0  0  0  0  0  0  0  0103  0  0
  -23.4066  -30.4859   21.5461 C   0  0  2  0  0  0  0  0  0104  0  0
  -24.8467  -28.9636   20.1247 C   0  0  0  0  0  0  0  0  0105  0  0
  -22.7412  -29.4652   22.5052 C   0  0  0  0  0  0  0  0  0106  0  0
  -18.0167  -28.1302   22.8626 C   0  0  0  0  0  0  0  0  0107  0  0
  -24.1342  -36.7390   23.2568 C   0  0  0  0  0  0  0  0  0108  0  0
  -25.9141  -30.8882   21.3456 C   0  0  0  0  0  0  0  0  0109  0  0
  -25.9930  -29.5029   20.7208 C   0  0  0  0  0  0  0  0  0110  0  0
  -27.1758  -28.7612   20.7331 C   0  0  0  0  0  0  0  0  0111  0  0
  -26.1032  -26.9836   19.5230 C   0  0  0  0  0  0  0  0  0112  0  0
  -24.9097  -27.7011   19.5331 C   0  0  0  0  0  0  0  0  0113  0  0
  -23.5715  -29.7899   20.1582 C   0  0  0  0  0  0  0  0  0114  0  0
  -25.3990  -36.3212   24.0232 C   0  0  1  0  0  0  0  0  0115  0  0
  -20.5793  -28.3813   23.1004 C   0  0  2  0  0  0  0  0  0116  0  0
  -20.6548  -26.9392   22.5411 C   0  0  0  0  0  0  0  0  0117  0  0
  -19.5615  -26.6407   21.5143 C   0  0  0  0  0  0  0  0  0118  0  0
  -18.1797  -26.7818   22.1673 C   0  0  0  0  0  0  0  0  0119  0  0
  -19.1385  -28.8769   23.2988 C   0  0  0  0  0  0  0  0  0120  0  0
  -18.9183  -30.1286   23.8878 C   0  0  0  0  0  0  0  0  0121  0  0
  -17.6396  -30.6493   24.0352 C   0  0  0  0  0  0  0  0  0122  0  0
  -25.9153  -34.9582   23.4993 C   0  0  0  0  0  0  0  0  0123  0  0
  -16.5415  -29.9068   23.6254 C   0  0  0  0  0  0  0  0  0124  0  0
  -16.7331  -28.6521   23.0586 C   0  0  0  0  0  0  0  0  0125  0  0
  -26.4583  -31.6439   25.0683 C   0  0  0  0  0  0  0  0  0126  0  0
  -25.3807  -31.3179   26.1374 C   0  0  0  0  0  0  0  0  0127  0  0
  -27.0530  -30.3024   24.5680 C   0  0  0  0  0  0  0  0  0128  0  0
  -27.6014  -32.4281   25.7651 C   0  0  0  0  0  0  0  0  0129  0  0
  -27.5629  -37.2220   24.8621 C   0  0  0  0  0  0  0  0  0130  0  0
  -21.4133  -29.3375   22.3735 N   0  0  0  0  0  0  0  0  0131  0  0
  -26.4706  -37.3372   23.9061 N   0  0  0  0  0  0  0  0  0132  0  0
  -24.6674  -31.0544   22.1178 N   0  0  0  0  0  0  0  0  0133  0  0
  -23.4259  -28.8150   23.2971 O   0  0  0  0  0  0  0  0  0134  0  0
  -28.3948  -26.7345   20.0089 O   0  0  0  0  0  0  0  0  0135  0  0
  -26.5870  -34.9065   22.4671 O   0  0  0  0  0  0  0  0  0136  0  0
  -23.5365  -32.1254   23.7833 O   0  0  0  0  0  0  0  0  0137  0  0
  -29.2098  -18.3281   22.0420 C   0  0  0  0  0  0  0  0  0  0  0  0
  -30.2708  -19.6529   19.9055 C   0  0  0  0  0  0  0  0  0  0  0  0
  -29.1359  -20.1758   20.5042 C   0  0  0  0  0  0  0  0  0  0  0  0
  -28.6015  -19.4947   21.5922 C   0  0  0  0  0  0  0  0  0  0  0  0
  -30.3413  -17.8878   21.3744 C   0  0  0  0  0  0  0  0  0  0  0  0
  -28.0215  -21.2864   18.5348 C   0  0  0  0  0  0  0  0  0  0  0  0
  -29.4674  -22.6407   20.0938 C   0  0  0  0  0  0  0  0  0  0  0  0
  -31.0206  -16.6397   21.8300 C   0  0  0  0  0  0  0  0  0  0  0  0
  -25.0874  -19.9312   22.2743 C   0  0  0  0  0  0  0  0  0  1  0  0
  -26.3517  -19.0941   22.2506 C   0  0  0  0  0  0  0  0  0  0  0  0
  -28.5209  -21.4289   19.9861 C   0  0  0  0  0  0  0  0  0  0  0  0
  -30.8895  -18.5225   20.3141 N   0  0  0  0  0  0  0  0  0  0  0  0
  -30.2999  -15.4485   21.4396 N   0  0  0  0  0  0  0  0  0  0  0  0
  -27.4810  -19.9587   22.2295 O   0  0  0  0  0  0  0  0  0  0  0  0
  -31.4485  -12.4701   19.0860 H   0  0  0  0  0  0  0  0  0  0  0  0
  -30.3970  -11.2460   19.6950 H   0  0  0  0  0  0  0  0  0  0  0  0
  -29.6870  -11.8204   17.4226 H   0  0  0  0  0  0  0  0  0  0  0  0
  -29.6375  -13.5326   17.8649 H   0  0  0  0  0  0  0  0  0  0  0  0
  -27.7830  -11.3650   18.7904 H   0  0  0  0  0  0  0  0  0  0  0  0
  -27.4028  -12.7801   17.8021 H   0  0  0  0  0  0  0  0  0  0  0  0
  -27.7353  -14.2503   19.6136 H   0  0  0  0  0  0  0  0  0  0  0  0
  -28.5890  -11.9550   21.3832 H   0  0  0  0  0  0  0  0  0  0  0  0
  -28.5005  -13.6134   21.8562 H   0  0  0  0  0  0  0  0  0  0  0  0
  -25.2399   -9.5495   22.4318 H   0  0  0  0  0  0  0  0  0  0  0  0
  -23.9663   -7.5070   22.7297 H   0  0  0  0  0  0  0  0  0  0  0  0
  -21.1515   -8.8641   19.9162 H   0  0  0  0  0  0  0  0  0  0  0  0
  -22.4016  -10.9115   19.6476 H   0  0  0  0  0  0  0  0  0  0  0  0
  -21.2319   -7.5552   23.9750 H   0  0  0  0  0  0  0  0  0  0  0  0
  -21.1589   -6.0228   25.8556 H   0  0  0  0  0  0  0  0  0  0  0  0
  -22.0396   -2.8212   23.2809 H   0  0  0  0  0  0  0  0  0  0  0  0
  -22.4401  -11.9703   22.4008 H   0  0  0  0  0  0  0  0  0  0  0  0
  -21.1493  -13.0679   22.2082 H   0  0  0  0  0  0  0  0  0  0  0  0
  -24.6538  -15.7807   20.5848 H   0  0  0  0  0  0  0  0  0  0  0  0
  -26.2762  -15.5453   20.1156 H   0  0  0  0  0  0  0  0  0  0  0  0
  -26.6778  -32.4663   23.1464 H   0  0  0  0  0  0  0  0  0  0  0  0
  -25.0747  -34.0282   25.0566 H   0  0  0  0  0  0  0  0  0  0  0  0
  -22.7881  -31.3489   21.4131 H   0  0  0  0  0  0  0  0  0  0  0  0
  -23.3854  -35.9823   23.3648 H   0  0  0  0  0  0  0  0  0  0  0  0
  -24.3696  -36.8624   22.2204 H   0  0  0  0  0  0  0  0  0  0  0  0
  -23.7669  -37.6632   23.6516 H   0  0  0  0  0  0  0  0  0  0  0  0
  -25.9445  -31.6237   20.5691 H   0  0  0  0  0  0  0  0  0  0  0  0
  -26.7436  -31.0079   22.0108 H   0  0  0  0  0  0  0  0  0  0  0  0
  -28.0090  -29.1452   21.2057 H   0  0  0  0  0  0  0  0  0  0  0  0
  -26.1369  -26.0560   19.0719 H   0  0  0  0  0  0  0  0  0  0  0  0
  -24.0652  -27.2961   19.0997 H   0  0  0  0  0  0  0  0  0  0  0  0
  -23.6156  -30.5365   19.3930 H   0  0  0  0  0  0  0  0  0  0  0  0
  -22.7355  -29.1425   19.9945 H   0  0  0  0  0  0  0  0  0  0  0  0
  -25.1353  -36.2335   25.0565 H   0  0  0  0  0  0  0  0  0  0  0  0
  -21.0070  -28.3206   24.0793 H   0  0  0  0  0  0  0  0  0  0  0  0
  -20.5555  -26.2518   23.3550 H   0  0  0  0  0  0  0  0  0  0  0  0
  -21.5974  -26.8362   22.0454 H   0  0  0  0  0  0  0  0  0  0  0  0
  -19.6810  -25.6422   21.1488 H   0  0  0  0  0  0  0  0  0  0  0  0
  -19.6406  -27.3343   20.7034 H   0  0  0  0  0  0  0  0  0  0  0  0
  -17.4282  -26.6888   21.4113 H   0  0  0  0  0  0  0  0  0  0  0  0
  -18.0803  -26.0130   22.9049 H   0  0  0  0  0  0  0  0  0  0  0  0
  -19.7265  -30.6774   24.2204 H   0  0  0  0  0  0  0  0  0  0  0  0
  -17.5064  -31.5856   24.4483 H   0  0  0  0  0  0  0  0  0  0  0  0
  -15.5878  -30.2839   23.7407 H   0  0  0  0  0  0  0  0  0  0  0  0
  -15.9120  -28.0941   22.7766 H   0  0  0  0  0  0  0  0  0  0  0  0
  -24.5787  -30.7757   25.6817 H   0  0  0  0  0  0  0  0  0  0  0  0
  -25.0041  -32.2289   26.5536 H   0  0  0  0  0  0  0  0  0  0  0  0
  -25.8166  -30.7245   26.9138 H   0  0  0  0  0  0  0  0  0  0  0  0
  -26.2892  -29.7335   24.0803 H   0  0  0  0  0  0  0  0  0  0  0  0
  -27.4336  -29.7484   25.4006 H   0  0  0  0  0  0  0  0  0  0  0  0
  -27.8466  -30.4994   23.8779 H   0  0  0  0  0  0  0  0  0  0  0  0
  -27.2251  -33.3632   26.1242 H   0  0  0  0  0  0  0  0  0  0  0  0
  -28.3902  -32.6065   25.0645 H   0  0  0  0  0  0  0  0  0  0  0  0
  -27.9772  -31.8555   26.5872 H   0  0  0  0  0  0  0  0  0  0  0  0
  -28.2744  -38.0016   24.6863 H   0  0  0  0  0  0  0  0  0  0  0  0
  -28.0396  -36.2711   24.7461 H   0  0  0  0  0  0  0  0  0  0  0  0
  -27.1773  -37.3087   25.8564 H   0  0  0  0  0  0  0  0  0  0  0  0
  -20.9627  -29.9365   21.7352 H   0  0  0  0  0  0  0  0  0  0  0  0
  -26.0447  -38.2561   24.0273 H   0  0  0  0  0  0  0  0  0  0  0  0
  -28.8305  -17.8066   22.8477 H   0  0  0  0  0  0  0  0  0  0  0  0
  -30.6683  -20.1575   19.0978 H   0  0  0  0  0  0  0  0  0  0  0  0
  -27.3650  -20.4444   18.4646 H   0  0  0  0  0  0  0  0  0  0  0  0
  -28.8574  -21.1424   17.8825 H   0  0  0  0  0  0  0  0  0  0  0  0
  -27.4954  -22.1735   18.2499 H   0  0  0  0  0  0  0  0  0  0  0  0
  -29.8116  -22.7359   21.1025 H   0  0  0  0  0  0  0  0  0  0  0  0
  -28.9429  -23.5293   19.8106 H   0  0  0  0  0  0  0  0  0  0  0  0
  -30.3048  -22.4981   19.4432 H   0  0  0  0  0  0  0  0  0  0  0  0
  -31.0987  -16.6604   22.8969 H   0  0  0  0  0  0  0  0  0  0  0  0
  -31.9851  -16.6048   21.3680 H   0  0  0  0  0  0  0  0  0  0  0  0
  -24.6548  -19.9917   23.2511 H   0  0  0  0  0  0  0  0  0  0  0  0
  -24.2677  -19.5774   21.6845 H   0  0  0  0  0  0  0  0  0  0  0  0
  -26.3565  -18.4767   21.3767 H   0  0  0  0  0  0  0  0  0  0  0  0
  -26.3893  -18.4725   23.1207 H   0  0  0  0  0  0  0  0  0  0  0  0
  -27.6747  -21.6069   20.6163 H   0  0  0  0  0  0  0  0  0  0  0  0
  -29.3687  -15.3865   21.7531 H   0  0  0  0  0  0  0  0  0  0  0  0
  1 25  1  0
  1 30  2  0
  1 83  1  0
  2  3  1  0
  2 25  1  0
  2 85  1  0
  2 86  1  0
  3  4  1  0
  3 87  1  0
  3 88  1  0
  4  5  1  0
  4 89  1  0
  4 90  1  0
  5  6  1  0
  5 26  1  0
  5 91  1  6
  6 25  1  0
  6 92  1  0
  6 93  1  0
  7  8  2  0
  7 26  1  0
  7 29  1  0
  8  9  1  0
  8 22  1  0
  9 10  1  0
  9 27  2  0
 10 11  2  0
 10 15  1  0
 11 12  1  0
 11 94  1  0
 12 13  2  0
 12 95  1  0
 13 14  1  0
 13 31  1  0
 14 15  2  0
 14 96  1  0
 15 97  1  0
 16 17  2  0
 16 21  1  0
 16 31  1  0
 17 18  1  0
 17 98  1  0
 18 19  2  0
 18 99  1  0
 19 20  1  0
 19 24  1  0
 20 21  2  0
 20100  1  0
 21 23  1  0
 22 28  1  0
 22 32  2  0
 26 27  1  0
 28101  1  0
 28102  1  0
 29103  1  0
 29104  1  0
 33 34  1  0
 33 66  1  0
 33 70  2  0
 34 36  1  0
 34 59  1  0
 34105  1  6
 35 44  2  0
 35 45  1  0
 35 68  1  0
 36 56  1  0
 36106  1  0
 37 39  1  0
 37 47  1  0
 37 66  1  0
 37107  1  6
 38 43  2  0
 38 46  1  0
 38 47  1  0
 39 64  1  0
 39 67  2  0
 40 52  1  0
 40 53  2  0
 40 58  1  0
 41108  1  0
 41109  1  0
 41110  1  0
 42 43  1  0
 42 66  1  0
 42111  1  0
 42112  1  0
 43 44  1  0
 44113  1  0
 45 46  2  0
 45114  1  0
 46115  1  0
 47116  1  0
 47117  1  0
 48 41  1  0
 48 56  1  0
 48 65  1  0
 48118  1  1
 49 50  1  0
 49 53  1  0
 49 64  1  0
 49119  1  1
 50 51  1  0
 50120  1  0
 50121  1  0
 51 52  1  0
 51122  1  0
 51123  1  0
 52124  1  0
 52125  1  0
 53 54  1  0
 54 55  2  0
 54126  1  0
 55 57  1  0
 55127  1  0
 56 69  2  0
 57 58  2  0
 57128  1  0
 58129  1  0
 59 60  1  0
 59 61  1  0
 59 62  1  0
 60130  1  0
 60131  1  0
 60132  1  0
 61133  1  0
 61134  1  0
 61135  1  0
 62136  1  0
 62137  1  0
 62138  1  0
 63 65  1  0
 63139  1  0
 63140  1  0
 63141  1  0
 64142  1  0
 65143  1  0
 68 79  1  0
 71 74  2  0
 71 75  1  0
 71144  1  0
 72 73  2  0
 72 82  1  0
 72145  1  0
 73 74  1  0
 73 81  1  0
 74 84  1  0
 75 78  1  0
 75 82  2  0
 76146  1  0
 76147  1  0
 76148  1  0
 77 81  1  0
 77149  1  0
 77150  1  0
 77151  1  0
 78 83  1  0
 78152  1  0
 78153  1  0
 79 80  1  0
 79154  1  0
 79155  1  0
 80 84  1  0
 80156  1  0
 80157  1  0
 81 76  1  0
 81158  1  0
 83159  1  0
M  ISO  4   1 100  68 101  79 101  83 100
M  END
$$$$
94
     RDKit          3D

175183  0  0  0  0  0  0  0  0999 V2000
  -30.7652  -14.3608   20.6636 C   0  0  0  0  0  0  0  0  0100  0  0
  -30.4392  -12.2669   19.3775 C   0  0  0  0  0  0  0  0  0101  0  0
  -29.4791  -12.5281   18.1977 C   0  0  0  0  0  0  0  0  0102  0  0
  -27.9985  -12.3963   18.6038 C   0  0  0  0  0  0  0  0  0103  0  0
  -27.6639  -13.2170   19.8820 C   0  0  2  0  0  0  0  0  0104  0  0
  -28.6795  -12.9602   21.0279 C   0  0  0  0  0  0  0  0  0105  0  0
  -25.2633  -13.8245   20.5754 C   0  0  0  0  0  0  0  0  0106  0  0
  -24.1645  -13.0409   20.9408 C   0  0  0  0  0  0  0  0  0107  0  0
  -24.6400  -11.7009   20.8697 C   0  0  0  0  0  0  0  0  0108  0  0
  -23.9005  -10.4085   21.0420 C   0  0  0  0  0  0  0  0  0109  0  0
  -24.3588   -9.4123   21.9123 C   0  0  0  0  0  0  0  0  0110  0  0
  -23.6296   -8.2350   22.0803 C   0  0  0  0  0  0  0  0  0111  0  0
  -22.4385   -8.0419   21.3657 C   0  0  0  0  0  0  0  0  0112  0  0
  -22.0103   -9.0167   20.4678 C   0  0  0  0  0  0  0  0  0113  0  0
  -22.7317  -10.1925   20.3102 C   0  0  0  0  0  0  0  0  0114  0  0
  -21.6857   -6.0709   22.5391 C   0  0  0  0  0  0  0  0  0115  0  0
  -21.4064   -6.5490   23.8264 C   0  0  0  0  0  0  0  0  0116  0  0
  -21.3635   -5.6677   24.9085 C   0  0  0  0  0  0  0  0  0117  0  0
  -21.5973   -4.3067   24.7088 C   0  0  0  0  0  0  0  0  0118  0  0
  -21.8700   -3.8284   23.4282 C   0  0  0  0  0  0  0  0  0119  0  0
  -21.9144   -4.7056   22.3460 C   0  0  0  0  0  0  0  0  0120  0  0
  -22.8194  -13.5263   21.1763 C   0  0  0  0  0  0  0  0  0121  0  0
  -22.1559   -4.2206   21.1063 F   0  0  0  0  0  0  0  0  0122  0  0
  -21.5628   -3.4510   25.7555 F   0  0  0  0  0  0  0  0  0123  0  0
  -30.0261  -13.1803   20.4553 N   0  0  0  0  0  0  0  0  0124  0  0
  -26.2911  -12.9356   20.3443 N   0  0  0  0  0  0  0  0  0125  0  0
  -25.9236  -11.6675   20.5847 N   0  0  0  0  0  0  0  0  0126  0  0
  -22.0708  -12.7905   22.0005 N   0  0  0  0  0  0  0  0  0127  0  0
  -25.4117  -15.1773   20.4097 N   0  0  0  0  0  0  0  0  0128  0  0
  -31.7916  -14.6724   20.0536 O   0  0  0  0  0  0  0  0  0129  0  0
  -21.6670   -6.9022   21.4423 O   0  0  0  0  0  0  0  0  0130  0  0
  -22.3946  -14.5564   20.6568 O   0  0  0  0  0  0  0  0  0131  0  0
  -24.6048  -31.8614   23.2223 C   0  0  0  0  0  0  0  0  0100  0  0
  -25.8822  -32.4841   23.8616 C   0  0  1  0  0  0  0  0  0101  0  0
  -27.2536  -27.5042   20.1156 C   0  0  0  0  0  0  0  0  0102  0  0
  -25.5726  -33.8762   24.2210 N   0  0  0  0  0  0  0  0  0103  0  0
  -23.4066  -30.4859   21.5461 C   0  0  2  0  0  0  0  0  0104  0  0
  -24.8467  -28.9636   20.1247 C   0  0  0  0  0  0  0  0  0105  0  0
  -22.7412  -29.4652   22.5052 C   0  0  0  0  0  0  0  0  0106  0  0
  -18.0167  -28.1302   22.8626 C   0  0  0  0  0  0  0  0  0107  0  0
  -24.1342  -36.7390   23.2568 C   0  0  0  0  0  0  0  0  0108  0  0
  -25.9141  -30.8882   21.3456 C   0  0  0  0  0  0  0  0  0109  0  0
  -25.9930  -29.5029   20.7208 C   0  0  0  0  0  0  0  0  0110  0  0
  -27.1758  -28.7612   20.7331 C   0  0  0  0  0  0  0  0  0111  0  0
  -26.1032  -26.9836   19.5230 C   0  0  0  0  0  0  0  0  0112  0  0
  -24.9097  -27.7011   19.5331 C   0  0  0  0  0  0  0  0  0113  0  0
  -23.5715  -29.7899   20.1582 C   0  0  0  0  0  0  0  0  0114  0  0
  -25.3990  -36.3212   24.0232 C   0  0  1  0  0  0  0  0  0115  0  0
  -20.5793  -28.3813   23.1004 C   0  0  2  0  0  0  0  0  0116  0  0
  -20.6548  -26.9392   22.5411 C   0  0  0  0  0  0  0  0  0117  0  0
  -19.5615  -26.6407   21.5143 C   0  0  0  0  0  0  0  0  0118  0  0
  -18.1797  -26.7818   22.1673 C   0  0  0  0  0  0  0  0  0119  0  0
  -19.1385  -28.8769   23.2988 C   0  0  0  0  0  0  0  0  0120  0  0
  -18.9183  -30.1286   23.8878 C   0  0  0  0  0  0  0  0  0121  0  0
  -17.6396  -30.6493   24.0352 C   0  0  0  0  0  0  0  0  0122  0  0
  -25.9153  -34.9582   23.4993 C   0  0  0  0  0  0  0  0  0123  0  0
  -16.5415  -29.9068   23.6254 C   0  0  0  0  0  0  0  0  0124  0  0
  -16.7331  -28.6521   23.0586 C   0  0  0  0  0  0  0  0  0125  0  0
  -26.4583  -31.6439   25.0683 C   0  0  0  0  0  0  0  0  0126  0  0
  -25.3807  -31.3179   26.1374 C   0  0  0  0  0  0  0  0  0127  0  0
  -27.0530  -30.3024   24.5680 C   0  0  0  0  0  0  0  0  0128  0  0
  -27.6014  -32.4281   25.7651 C   0  0  0  0  0  0  0  0  0129  0  0
  -27.5629  -37.2220   24.8621 C   0  0  0  0  0  0  0  0  0130  0  0
  -21.4133  -29.3375   22.3735 N   0  0  0  0  0  0  0  0  0131  0  0
  -26.4706  -37.3372   23.9061 N   0  0  0  0  0  0  0  0  0132  0  0
  -24.6674  -31.0544   22.1178 N   0  0  0  0  0  0  0  0  0133  0  0
  -23.4259  -28.8150   23.2971 O   0  0  0  0  0  0  0  0  0134  0  0
  -28.3948  -26.7345   20.0089 O   0  0  0  0  0  0  0  0  0135  0  0
  -26.5870  -34.9065   22.4671 O   0  0  0  0  0  0  0  0  0136  0  0
  -23.5365  -32.1254   23.7833 O   0  0  0  0  0  0  0  0  0137  0  0
  -27.0849  -25.1268   22.2885 C   0  0  0  0  0  0  0  0  0  0  0  0
  -29.0228  -26.1207   21.7172 C   0  0  0  0  0  0  0  0  0  0  0  0
  -27.9545  -25.4159   21.2081 C   0  0  0  0  0  0  0  0  0  0  0  0
  -27.6483  -25.6639   23.4250 C   0  0  0  0  0  0  0  0  0  0  0  0
  -27.7098  -26.2283   18.8263 C   0  0  0  0  0  0  0  0  0  0  0  0
  -27.0444  -24.2272   25.4061 C   0  0  0  0  0  0  0  0  0  0  0  0
  -25.8140  -26.3886   24.9948 C   0  0  0  0  0  0  0  0  0  0  0  0
  -30.2665  -22.2075   19.7778 C   0  0  0  0  0  0  0  0  0  0  0  0
  -30.2584  -29.0871   25.2943 C   0  0  0  0  0  0  0  0  0  0  0  0
  -29.7738  -26.9829   23.9978 C   0  0  0  0  0  0  0  0  0  0  0  0
  -27.7328  -21.9133   19.6687 C   0  0  0  0  0  0  0  0  0  0  0  0
  -27.7542  -25.0329   19.7975 C   0  0  1  0  0  0  0  0  0  0  0  0
  -27.1621  -25.6528   24.8202 C   0  0  0  0  0  0  0  0  0  0  0  0
  -28.8999  -22.8265   20.0377 C   0  0  2  0  0  0  0  0  0  0  0  0
  -29.2712  -28.3811   24.3732 C   0  0  2  0  0  0  0  0  0  1  0  0
  -28.8258  -26.2659   23.0656 N   0  0  0  0  0  0  0  0  0  0  0  0
  -27.7152  -20.6698   20.4064 N   0  0  0  0  0  0  0  0  0  0  0  0
  -28.7999  -24.0827   19.2658 N   0  0  0  0  0  0  0  0  0  0  0  0
  -31.4485  -12.4701   19.0860 H   0  0  0  0  0  0  0  0  0  0  0  0
  -30.3970  -11.2460   19.6950 H   0  0  0  0  0  0  0  0  0  0  0  0
  -29.6870  -11.8204   17.4226 H   0  0  0  0  0  0  0  0  0  0  0  0
  -29.6375  -13.5326   17.8649 H   0  0  0  0  0  0  0  0  0  0  0  0
  -27.7830  -11.3650   18.7904 H   0  0  0  0  0  0  0  0  0  0  0  0
  -27.4028  -12.7801   17.8021 H   0  0  0  0  0  0  0  0  0  0  0  0
  -27.7353  -14.2503   19.6136 H   0  0  0  0  0  0  0  0  0  0  0  0
  -28.5890  -11.9550   21.3832 H   0  0  0  0  0  0  0  0  0  0  0  0
  -28.5005  -13.6134   21.8562 H   0  0  0  0  0  0  0  0  0  0  0  0
  -25.2399   -9.5495   22.4318 H   0  0  0  0  0  0  0  0  0  0  0  0
  -23.9663   -7.5070   22.7297 H   0  0  0  0  0  0  0  0  0  0  0  0
  -21.1515   -8.8641   19.9162 H   0  0  0  0  0  0  0  0  0  0  0  0
  -22.4016  -10.9115   19.6476 H   0  0  0  0  0  0  0  0  0  0  0  0
  -21.2319   -7.5552   23.9750 H   0  0  0  0  0  0  0  0  0  0  0  0
  -21.1589   -6.0228   25.8556 H   0  0  0  0  0  0  0  0  0  0  0  0
  -22.0396   -2.8212   23.2809 H   0  0  0  0  0  0  0  0  0  0  0  0
  -22.4401  -11.9703   22.4008 H   0  0  0  0  0  0  0  0  0  0  0  0
  -21.1493  -13.0679   22.2082 H   0  0  0  0  0  0  0  0  0  0  0  0
  -24.6538  -15.7807   20.5848 H   0  0  0  0  0  0  0  0  0  0  0  0
  -26.2762  -15.5453   20.1156 H   0  0  0  0  0  0  0  0  0  0  0  0
  -26.6778  -32.4663   23.1464 H   0  0  0  0  0  0  0  0  0  0  0  0
  -25.0747  -34.0282   25.0566 H   0  0  0  0  0  0  0  0  0  0  0  0
  -22.7881  -31.3489   21.4131 H   0  0  0  0  0  0  0  0  0  0  0  0
  -23.3854  -35.9823   23.3648 H   0  0  0  0  0  0  0  0  0  0  0  0
  -24.3696  -36.8624   22.2204 H   0  0  0  0  0  0  0  0  0  0  0  0
  -23.7669  -37.6632   23.6516 H   0  0  0  0  0  0  0  0  0  0  0  0
  -25.9445  -31.6237   20.5691 H   0  0  0  0  0  0  0  0  0  0  0  0
  -26.7436  -31.0079   22.0108 H   0  0  0  0  0  0  0  0  0  0  0  0
  -28.0090  -29.1452   21.2057 H   0  0  0  0  0  0  0  0  0  0  0  0
  -26.1369  -26.0560   19.0719 H   0  0  0  0  0  0  0  0  0  0  0  0
  -24.0652  -27.2961   19.0997 H   0  0  0  0  0  0  0  0  0  0  0  0
  -23.6156  -30.5365   19.3930 H   0  0  0  0  0  0  0  0  0  0  0  0
  -22.7355  -29.1425   19.9945 H   0  0  0  0  0  0  0  0  0  0  0  0
  -25.1353  -36.2335   25.0565 H   0  0  0  0  0  0  0  0  0  0  0  0
  -21.0070  -28.3206   24.0793 H   0  0  0  0  0  0  0  0  0  0  0  0
  -20.5555  -26.2518   23.3550 H   0  0  0  0  0  0  0  0  0  0  0  0
  -21.5974  -26.8362   22.0454 H   0  0  0  0  0  0  0  0  0  0  0  0
  -19.6810  -25.6422   21.1488 H   0  0  0  0  0  0  0  0  0  0  0  0
  -19.6406  -27.3343   20.7034 H   0  0  0  0  0  0  0  0  0  0  0  0
  -17.4282  -26.6888   21.4113 H   0  0  0  0  0  0  0  0  0  0  0  0
  -18.0803  -26.0130   22.9049 H   0  0  0  0  0  0  0  0  0  0  0  0
  -19.7265  -30.6774   24.2204 H   0  0  0  0  0  0  0  0  0  0  0  0
  -17.5064  -31.5856   24.4483 H   0  0  0  0  0  0  0  0  0  0  0  0
  -15.5878  -30.2839   23.7407 H   0  0  0  0  0  0  0  0  0  0  0  0
  -15.9120  -28.0941   22.7766 H   0  0  0  0  0  0  0  0  0  0  0  0
  -24.5787  -30.7757   25.6817 H   0  0  0  0  0  0  0  0  0  0  0  0
  -25.0041  -32.2289   26.5536 H   0  0  0  0  0  0  0  0  0  0  0  0
  -25.8166  -30.7245   26.9138 H   0  0  0  0  0  0  0  0  0  0  0  0
  -26.2892  -29.7335   24.0803 H   0  0  0  0  0  0  0  0  0  0  0  0
  -27.4336  -29.7484   25.4006 H   0  0  0  0  0  0  0  0  0  0  0  0
  -27.8466  -30.4994   23.8779 H   0  0  0  0  0  0  0  0  0  0  0  0
  -27.2251  -33.3632   26.1242 H   0  0  0  0  0  0  0  0  0  0  0  0
  -28.3902  -32.6065   25.0645 H   0  0  0  0  0  0  0  0  0  0  0  0
  -27.9772  -31.8555   26.5872 H   0  0  0  0  0  0  0  0  0  0  0  0
  -28.2744  -38.0016   24.6863 H   0  0  0  0  0  0  0  0  0  0  0  0
  -28.0396  -36.2711   24.7461 H   0  0  0  0  0  0  0  0  0  0  0  0
  -27.1773  -37.3087   25.8564 H   0  0  0  0  0  0  0  0  0  0  0  0
  -20.9627  -29.9365   21.7352 H   0  0  0  0  0  0  0  0  0  0  0  0
  -26.0447  -38.2561   24.0273 H   0  0  0  0  0  0  0  0  0  0  0  0
  -26.1937  -24.6093   22.2341 H   0  0  0  0  0  0  0  0  0  0  0  0
  -29.8283  -26.4762   21.1789 H   0  0  0  0  0  0  0  0  0  0  0  0
  -26.9789  -26.9339   19.1623 H   0  0  0  0  0  0  0  0  0  0  0  0
  -27.4489  -25.8832   17.8476 H   0  0  0  0  0  0  0  0  0  0  0  0
  -28.6707  -26.6979   18.7945 H   0  0  0  0  0  0  0  0  0  0  0  0
  -27.9760  -23.7146   25.2870 H   0  0  0  0  0  0  0  0  0  0  0  0
  -26.2745  -23.6921   24.8905 H   0  0  0  0  0  0  0  0  0  0  0  0
  -26.8012  -24.2881   26.4463 H   0  0  0  0  0  0  0  0  0  0  0  0
  -25.8917  -27.3761   24.5903 H   0  0  0  0  0  0  0  0  0  0  0  0
  -25.5720  -26.4475   26.0354 H   0  0  0  0  0  0  0  0  0  0  0  0
  -25.0452  -25.8516   24.4796 H   0  0  0  0  0  0  0  0  0  0  0  0
  -30.3558  -21.2954   20.3301 H   0  0  0  0  0  0  0  0  0  0  0  0
  -31.0313  -22.8886   20.0878 H   0  0  0  0  0  0  0  0  0  0  0  0
  -30.3728  -22.0035   18.7328 H   0  0  0  0  0  0  0  0  0  0  0  0
  -29.8322  -29.1777   26.2716 H   0  0  0  0  0  0  0  0  0  0  0  0
  -30.4734  -30.0612   24.9072 H   0  0  0  0  0  0  0  0  0  0  0  0
  -31.1629  -28.5182   25.3509 H   0  0  0  0  0  0  0  0  0  0  0  0
  -29.8815  -26.4042   24.8914 H   0  0  0  0  0  0  0  0  0  0  0  0
  -30.7094  -27.0957   23.4911 H   0  0  0  0  0  0  0  0  0  0  0  0
  -27.7975  -21.6866   18.6250 H   0  0  0  0  0  0  0  0  0  0  0  0
  -26.8336  -22.4377   19.9162 H   0  0  0  0  0  0  0  0  0  0  0  0
  -26.8005  -24.5487   19.8290 H   0  0  0  0  0  0  0  0  0  0  0  0
  -27.9121  -26.1842   25.3680 H   0  0  0  0  0  0  0  0  0  0  0  0
  -28.8259  -23.0005   21.0909 H   0  0  0  0  0  0  0  0  0  0  0  0
  -28.5962  -29.0601   24.8509 H   0  0  0  0  0  0  0  0  0  0  0  0
  -27.0405  -20.7297   21.1209 H   0  0  0  0  0  0  0  0  0  0  0  0
  -29.7056  -24.5512   19.2923 H   0  0  0  0  0  0  0  0  0  0  0  0
  -28.5229  -23.8312   18.3169 H   0  0  0  0  0  0  0  0  0  0  0  0
  1 25  1  0
  1 30  2  0
  1 87  1  0
  2  3  1  0
  2 25  1  0
  2 89  1  0
  2 90  1  0
  3  4  1  0
  3 91  1  0
  3 92  1  0
  4  5  1  0
  4 93  1  0
  4 94  1  0
  5  6  1  0
  5 26  1  0
  5 95  1  6
  6 25  1  0
  6 96  1  0
  6 97  1  0
  7  8  2  0
  7 26  1  0
  7 29  1  0
  8  9  1  0
  8 22  1  0
  9 10  1  0
  9 27  2  0
 10 11  2  0
 10 15  1  0
 11 12  1  0
 11 98  1  0
 12 13  2  0
 12 99  1  0
 13 14  1  0
 13 31  1  0
 14 15  2  0
 14100  1  0
 15101  1  0
 16 17  2  0
 16 21  1  0
 16 31  1  0
 17 18  1  0
 17102  1  0
 18 19  2  0
 18103  1  0
 19 20  1  0
 19 24  1  0
 20 21  2  0
 20104  1  0
 21 23  1  0
 22 28  1  0
 22 32  2  0
 26 27  1  0
 28105  1  0
 28106  1  0
 29107  1  0
 29108  1  0
 33 34  1  0
 33 66  1  0
 33 70  2  0
 34 36  1  0
 34 59  1  0
 34109  1  6
 35 44  2  0
 35 45  1  0
 35 68  1  0
 36 56  1  0
 36110  1  0
 37 39  1  0
 37 47  1  0
 37 66  1  0
 37111  1  6
 38 43  2  0
 38 46  1  0
 38 47  1  0
 39 64  1  0
 39 67  2  0
 40 52  1  0
 40 53  2  0
 40 58  1  0
 41112  1  0
 41113  1  0
 41114  1  0
 42 43  1  0
 42 66  1  0
 42115  1  0
 42116  1  0
 43 44  1  0
 44117  1  0
 45 46  2  0
 45118  1  0
 46119  1  0
 47120  1  0
 47121  1  0
 48 41  1  0
 48 56  1  0
 48 65  1  0
 48122  1  1
 49 50  1  0
 49 53  1  0
 49 64  1  0
 49123  1  1
 50 51  1  0
 50124  1  0
 50125  1  0
 51 52  1  0
 51126  1  0
 51127  1  0
 52128  1  0
 52129  1  0
 53 54  1  0
 54 55  2  0
 54130  1  0
 55 57  1  0
 55131  1  0
 56 69  2  0
 57 58  2  0
 57132  1  0
 58133  1  0
 59 60  1  0
 59 61  1  0
 59 62  1  0
 60134  1  0
 60135  1  0
 60136  1  0
 61137  1  0
 61138  1  0
 61139  1  0
 62140  1  0
 62141  1  0
 62142  1  0
 63 65  1  0
 63143  1  0
 63144  1  0
 63145  1  0
 64146  1  0
 65147  1  0
 68 85  1  0
 71 73  1  0
 71 74  2  0
 71148  1  0
 72 73  2  0
 72 86  1  0
 72149  1  0
 73 82  1  0
 74 83  1  0
 74 86  1  0
 75150  1  0
 75151  1  0
 75152  1  0
 76153  1  0
 76154  1  0
 76155  1  0
 77 83  1  0
 77156  1  0
 77157  1  0
 77158  1  0
 78159  1  0
 78160  1  0
 78161  1  0
 79162  1  0
 79163  1  0
 79164  1  0
 80 85  1  0
 80 86  1  0
 80165  1  0
 80166  1  0
 81 84  1  0
 81 87  1  0
 81167  1  0
 81168  1  0
 82 75  1  0
 82 88  1  0
 82169  1  1
 83 76  1  0
 83170  1  0
 84 78  1  0
 84 88  1  0
 84171  1  1
 85 79  1  0
 85172  1  1
 87173  1  0
 88174  1  0
 88175  1  0
M  CHG  1  88   1
M  ISO  4   1 100  68 101  85 101  87 100
M  END
$$$$
95
     RDKit          3D

170178  0  0  0  0  0  0  0  0999 V2000
  -30.7652  -14.3608   20.6636 C   0  0  0  0  0  0  0  0  0100  0  0
  -30.4392  -12.2669   19.3775 C   0  0  0  0  0  0  0  0  0101  0  0
  -29.4791  -12.5281   18.1977 C   0  0  0  0  0  0  0  0  0102  0  0
  -27.9985  -12.3963   18.6038 C   0  0  0  0  0  0  0  0  0103  0  0
  -27.6639  -13.2170   19.8820 C   0  0  2  0  0  0  0  0  0104  0  0
  -28.6795  -12.9602   21.0279 C   0  0  0  0  0  0  0  0  0105  0  0
  -25.2633  -13.8245   20.5754 C   0  0  0  0  0  0  0  0  0106  0  0
  -24.1645  -13.0409   20.9408 C   0  0  0  0  0  0  0  0  0107  0  0
  -24.6400  -11.7009   20.8697 C   0  0  0  0  0  0  0  0  0108  0  0
  -23.9005  -10.4085   21.0420 C   0  0  0  0  0  0  0  0  0109  0  0
  -24.3588   -9.4123   21.9123 C   0  0  0  0  0  0  0  0  0110  0  0
  -23.6296   -8.2350   22.0803 C   0  0  0  0  0  0  0  0  0111  0  0
  -22.4385   -8.0419   21.3657 C   0  0  0  0  0  0  0  0  0112  0  0
  -22.0103   -9.0167   20.4678 C   0  0  0  0  0  0  0  0  0113  0  0
  -22.7317  -10.1925   20.3102 C   0  0  0  0  0  0  0  0  0114  0  0
  -21.6857   -6.0709   22.5391 C   0  0  0  0  0  0  0  0  0115  0  0
  -21.4064   -6.5490   23.8264 C   0  0  0  0  0  0  0  0  0116  0  0
  -21.3635   -5.6677   24.9085 C   0  0  0  0  0  0  0  0  0117  0  0
  -21.5973   -4.3067   24.7088 C   0  0  0  0  0  0  0  0  0118  0  0
  -21.8700   -3.8284   23.4282 C   0  0  0  0  0  0  0  0  0119  0  0
  -21.9144   -4.7056   22.3460 C   0  0  0  0  0  0  0  0  0120  0  0
  -22.8194  -13.5263   21.1763 C   0  0  0  0  0  0  0  0  0121  0  0
  -22.1559   -4.2206   21.1063 F   0  0  0  0  0  0  0  0  0122  0  0
  -21.5628   -3.4510   25.7555 F   0  0  0  0  0  0  0  0  0123  0  0
  -30.0261  -13.1803   20.4553 N   0  0  0  0  0  0  0  0  0124  0  0
  -26.2911  -12.9356   20.3443 N   0  0  0  0  0  0  0  0  0125  0  0
  -25.9236  -11.6675   20.5847 N   0  0  0  0  0  0  0  0  0126  0  0
  -22.0708  -12.7905   22.0005 N   0  0  0  0  0  0  0  0  0127  0  0
  -25.4117  -15.1773   20.4097 N   0  0  0  0  0  0  0  0  0128  0  0
  -31.7916  -14.6724   20.0536 O   0  0  0  0  0  0  0  0  0129  0  0
  -21.6670   -6.9022   21.4423 O   0  0  0  0  0  0  0  0  0130  0  0
  -22.3946  -14.5564   20.6568 O   0  0  0  0  0  0  0  0  0131  0  0
  -24.6048  -31.8614   23.2223 C   0  0  0  0  0  0  0  0  0100  0  0
  -25.8822  -32.4841   23.8616 C   0  0  1  0  0  0  0  0  0101  0  0
  -27.2536  -27.5042   20.1156 C   0  0  0  0  0  0  0  0  0102  0  0
  -25.5726  -33.8762   24.2210 N   0  0  0  0  0  0  0  0  0103  0  0
  -23.4066  -30.4859   21.5461 C   0  0  2  0  0  0  0  0  0104  0  0
  -24.8467  -28.9636   20.1247 C   0  0  0  0  0  0  0  0  0105  0  0
  -22.7412  -29.4652   22.5052 C   0  0  0  0  0  0  0  0  0106  0  0
  -18.0167  -28.1302   22.8626 C   0  0  0  0  0  0  0  0  0107  0  0
  -24.1342  -36.7390   23.2568 C   0  0  0  0  0  0  0  0  0108  0  0
  -25.9141  -30.8882   21.3456 C   0  0  0  0  0  0  0  0  0109  0  0
  -25.9930  -29.5029   20.7208 C   0  0  0  0  0  0  0  0  0110  0  0
  -27.1758  -28.7612   20.7331 C   0  0  0  0  0  0  0  0  0111  0  0
  -26.1032  -26.9836   19.5230 C   0  0  0  0  0  0  0  0  0112  0  0
  -24.9097  -27.7011   19.5331 C   0  0  0  0  0  0  0  0  0113  0  0
  -23.5715  -29.7899   20.1582 C   0  0  0  0  0  0  0  0  0114  0  0
  -25.3990  -36.3212   24.0232 C   0  0  1  0  0  0  0  0  0115  0  0
  -20.5793  -28.3813   23.1004 C   0  0  2  0  0  0  0  0  0116  0  0
  -20.6548  -26.9392   22.5411 C   0  0  0  0  0  0  0  0  0117  0  0
  -19.5615  -26.6407   21.5143 C   0  0  0  0  0  0  0  0  0118  0  0
  -18.1797  -26.7818   22.1673 C   0  0  0  0  0  0  0  0  0119  0  0
  -19.1385  -28.8769   23.2988 C   0  0  0  0  0  0  0  0  0120  0  0
  -18.9183  -30.1286   23.8878 C   0  0  0  0  0  0  0  0  0121  0  0
  -17.6396  -30.6493   24.0352 C   0  0  0  0  0  0  0  0  0122  0  0
  -25.9153  -34.9582   23.4993 C   0  0  0  0  0  0  0  0  0123  0  0
  -16.5415  -29.9068   23.6254 C   0  0  0  0  0  0  0  0  0124  0  0
  -16.7331  -28.6521   23.0586 C   0  0  0  0  0  0  0  0  0125  0  0
  -26.4583  -31.6439   25.0683 C   0  0  0  0  0  0  0  0  0126  0  0
  -25.3807  -31.3179   26.1374 C   0  0  0  0  0  0  0  0  0127  0  0
  -27.0530  -30.3024   24.5680 C   0  0  0  0  0  0  0  0  0128  0  0
  -27.6014  -32.4281   25.7651 C   0  0  0  0  0  0  0  0  0129  0  0
  -27.5629  -37.2220   24.8621 C   0  0  0  0  0  0  0  0  0130  0  0
  -21.4133  -29.3375   22.3735 N   0  0  0  0  0  0  0  0  0131  0  0
  -26.4706  -37.3372   23.9061 N   0  0  0  0  0  0  0  0  0132  0  0
  -24.6674  -31.0544   22.1178 N   0  0  0  0  0  0  0  0  0133  0  0
  -23.4259  -28.8150   23.2971 O   0  0  0  0  0  0  0  0  0134  0  0
  -28.3948  -26.7345   20.0089 O   0  0  0  0  0  0  0  0  0135  0  0
  -26.5870  -34.9065   22.4671 O   0  0  0  0  0  0  0  0  0136  0  0
  -23.5365  -32.1254   23.7833 O   0  0  0  0  0  0  0  0  0137  0  0
  -21.1491  -28.1504   23.7749 C   0  0  0  0  0  0  0  0  0  0  0  0
  -22.2129  -28.7414   22.9215 C   0  0  0  0  0  0  0  0  0  0  0  0
  -19.8289  -28.1734   23.0918 C   0  0  0  0  0  0  0  0  0  0  0  0
  -20.1237  -29.0456   21.8672 C   0  0  2  0  0  0  0  0  0  0  0  0
  -20.0301  -27.0872   20.2987 C   0  0  0  0  0  0  0  0  0  0  0  0
  -17.9582  -28.4295   20.7560 C   0  0  0  0  0  0  0  0  0  0  0  0
  -21.3396  -24.2283   26.0059 C   0  0  0  0  0  0  0  0  0  0  0  0
  -21.7130  -25.4287   26.8811 C   0  0  0  0  0  0  0  0  0  0  0  0
  -22.4055  -23.1310   25.9898 C   0  0  0  0  0  0  0  0  0  0  0  0
  -20.6603  -26.5397   26.9768 C   0  0  0  0  0  0  0  0  0  0  0  0
  -21.9717  -21.9509   25.1218 C   0  0  0  0  0  0  0  0  0  0  0  0
  -20.2350  -27.1378   25.6402 C   0  0  0  0  0  0  0  0  0  0  0  0
  -23.0437  -20.8719   25.0647 C   0  0  0  0  0  0  0  0  0  1  0  0
  -19.4776  -28.4775   20.6070 C   0  0  0  0  0  0  0  0  0  0  0  0
  -21.3972  -27.6776   24.9453 N   0  0  0  0  0  0  0  0  0  0  0  0
  -21.5834  -29.1438   21.7433 N   0  0  0  0  0  0  0  0  0  0  0  0
  -23.3670  -28.7991   23.2921 O   0  0  0  0  0  0  0  0  0  0  0  0
  -31.4485  -12.4701   19.0860 H   0  0  0  0  0  0  0  0  0  0  0  0
  -30.3970  -11.2460   19.6950 H   0  0  0  0  0  0  0  0  0  0  0  0
  -29.6870  -11.8204   17.4226 H   0  0  0  0  0  0  0  0  0  0  0  0
  -29.6375  -13.5326   17.8649 H   0  0  0  0  0  0  0  0  0  0  0  0
  -27.7830  -11.3650   18.7904 H   0  0  0  0  0  0  0  0  0  0  0  0
  -27.4028  -12.7801   17.8021 H   0  0  0  0  0  0  0  0  0  0  0  0
  -27.7353  -14.2503   19.6136 H   0  0  0  0  0  0  0  0  0  0  0  0
  -28.5890  -11.9550   21.3832 H   0  0  0  0  0  0  0  0  0  0  0  0
  -28.5005  -13.6134   21.8562 H   0  0  0  0  0  0  0  0  0  0  0  0
  -25.2399   -9.5495   22.4318 H   0  0  0  0  0  0  0  0  0  0  0  0
  -23.9663   -7.5070   22.7297 H   0  0  0  0  0  0  0  0  0  0  0  0
  -21.1515   -8.8641   19.9162 H   0  0  0  0  0  0  0  0  0  0  0  0
  -22.4016  -10.9115   19.6476 H   0  0  0  0  0  0  0  0  0  0  0  0
  -21.2319   -7.5552   23.9750 H   0  0  0  0  0  0  0  0  0  0  0  0
  -21.1589   -6.0228   25.8556 H   0  0  0  0  0  0  0  0  0  0  0  0
  -22.0396   -2.8212   23.2809 H   0  0  0  0  0  0  0  0  0  0  0  0
  -22.4401  -11.9703   22.4008 H   0  0  0  0  0  0  0  0  0  0  0  0
  -21.1493  -13.0679   22.2082 H   0  0  0  0  0  0  0  0  0  0  0  0
  -24.6538  -15.7807   20.5848 H   0  0  0  0  0  0  0  0  0  0  0  0
  -26.2762  -15.5453   20.1156 H   0  0  0  0  0  0  0  0  0  0  0  0
  -26.6778  -32.4663   23.1464 H   0  0  0  0  0  0  0  0  0  0  0  0
  -25.0747  -34.0282   25.0566 H   0  0  0  0  0  0  0  0  0  0  0  0
  -22.7881  -31.3489   21.4131 H   0  0  0  0  0  0  0  0  0  0  0  0
  -23.3854  -35.9823   23.3648 H   0  0  0  0  0  0  0  0  0  0  0  0
  -24.3696  -36.8624   22.2204 H   0  0  0  0  0  0  0  0  0  0  0  0
  -23.7669  -37.6632   23.6516 H   0  0  0  0  0  0  0  0  0  0  0  0
  -25.9445  -31.6237   20.5691 H   0  0  0  0  0  0  0  0  0  0  0  0
  -26.7436  -31.0079   22.0108 H   0  0  0  0  0  0  0  0  0  0  0  0
  -28.0090  -29.1452   21.2057 H   0  0  0  0  0  0  0  0  0  0  0  0
  -26.1369  -26.0560   19.0719 H   0  0  0  0  0  0  0  0  0  0  0  0
  -24.0652  -27.2961   19.0997 H   0  0  0  0  0  0  0  0  0  0  0  0
  -23.6156  -30.5365   19.3930 H   0  0  0  0  0  0  0  0  0  0  0  0
  -22.7355  -29.1425   19.9945 H   0  0  0  0  0  0  0  0  0  0  0  0
  -25.1353  -36.2335   25.0565 H   0  0  0  0  0  0  0  0  0  0  0  0
  -21.0070  -28.3206   24.0793 H   0  0  0  0  0  0  0  0  0  0  0  0
  -20.5555  -26.2518   23.3550 H   0  0  0  0  0  0  0  0  0  0  0  0
  -21.5974  -26.8362   22.0454 H   0  0  0  0  0  0  0  0  0  0  0  0
  -19.6810  -25.6422   21.1488 H   0  0  0  0  0  0  0  0  0  0  0  0
  -19.6406  -27.3343   20.7034 H   0  0  0  0  0  0  0  0  0  0  0  0
  -17.4282  -26.6888   21.4113 H   0  0  0  0  0  0  0  0  0  0  0  0
  -18.0803  -26.0130   22.9049 H   0  0  0  0  0  0  0  0  0  0  0  0
  -19.7265  -30.6774   24.2204 H   0  0  0  0  0  0  0  0  0  0  0  0
  -17.5064  -31.5856   24.4483 H   0  0  0  0  0  0  0  0  0  0  0  0
  -15.5878  -30.2839   23.7407 H   0  0  0  0  0  0  0  0  0  0  0  0
  -15.9120  -28.0941   22.7766 H   0  0  0  0  0  0  0  0  0  0  0  0
  -24.5787  -30.7757   25.6817 H   0  0  0  0  0  0  0  0  0  0  0  0
  -25.0041  -32.2289   26.5536 H   0  0  0  0  0  0  0  0  0  0  0  0
  -25.8166  -30.7245   26.9138 H   0  0  0  0  0  0  0  0  0  0  0  0
  -26.2892  -29.7335   24.0803 H   0  0  0  0  0  0  0  0  0  0  0  0
  -27.4336  -29.7484   25.4006 H   0  0  0  0  0  0  0  0  0  0  0  0
  -27.8466  -30.4994   23.8779 H   0  0  0  0  0  0  0  0  0  0  0  0
  -27.2251  -33.3632   26.1242 H   0  0  0  0  0  0  0  0  0  0  0  0
  -28.3902  -32.6065   25.0645 H   0  0  0  0  0  0  0  0  0  0  0  0
  -27.9772  -31.8555   26.5872 H   0  0  0  0  0  0  0  0  0  0  0  0
  -28.2744  -38.0016   24.6863 H   0  0  0  0  0  0  0  0  0  0  0  0
  -28.0396  -36.2711   24.7461 H   0  0  0  0  0  0  0  0  0  0  0  0
  -27.1773  -37.3087   25.8564 H   0  0  0  0  0  0  0  0  0  0  0  0
  -20.9627  -29.9365   21.7352 H   0  0  0  0  0  0  0  0  0  0  0  0
  -26.0447  -38.2561   24.0273 H   0  0  0  0  0  0  0  0  0  0  0  0
  -19.0770  -28.6146   23.7122 H   0  0  0  0  0  0  0  0  0  0  0  0
  -19.4493  -27.2025   22.8506 H   0  0  0  0  0  0  0  0  0  0  0  0
  -19.7018  -30.0211   21.9910 H   0  0  0  0  0  0  0  0  0  0  0  0
  -21.0940  -27.1405   20.1979 H   0  0  0  0  0  0  0  0  0  0  0  0
  -19.6029  -26.7280   19.3858 H   0  0  0  0  0  0  0  0  0  0  0  0
  -19.7804  -26.4192   21.0964 H   0  0  0  0  0  0  0  0  0  0  0  0
  -17.5898  -29.4107   20.9714 H   0  0  0  0  0  0  0  0  0  0  0  0
  -17.6990  -27.7677   21.5558 H   0  0  0  0  0  0  0  0  0  0  0  0
  -17.5215  -28.0765   19.8452 H   0  0  0  0  0  0  0  0  0  0  0  0
  -21.1925  -24.5725   25.0035 H   0  0  0  0  0  0  0  0  0  0  0  0
  -20.4519  -23.7993   26.4216 H   0  0  0  0  0  0  0  0  0  0  0  0
  -22.6085  -25.8587   26.4834 H   0  0  0  0  0  0  0  0  0  0  0  0
  -21.8182  -25.0426   27.8734 H   0  0  0  0  0  0  0  0  0  0  0  0
  -22.5676  -22.7874   26.9901 H   0  0  0  0  0  0  0  0  0  0  0  0
  -23.3057  -23.5395   25.5803 H   0  0  0  0  0  0  0  0  0  0  0  0
  -21.0616  -27.3267   27.5805 H   0  0  0  0  0  0  0  0  0  0  0  0
  -19.7852  -26.0887   27.3959 H   0  0  0  0  0  0  0  0  0  0  0  0
  -21.7796  -22.3021   24.1295 H   0  0  0  0  0  0  0  0  0  0  0  0
  -21.0908  -21.5242   25.5540 H   0  0  0  0  0  0  0  0  0  0  0  0
  -19.5281  -27.9226   25.8117 H   0  0  0  0  0  0  0  0  0  0  0  0
  -19.7887  -26.3737   25.0387 H   0  0  0  0  0  0  0  0  0  0  0  0
  -22.7491  -19.9841   24.5451 H   0  0  0  0  0  0  0  0  0  0  0  0
  -23.4164  -20.4165   25.9583 H   0  0  0  0  0  0  0  0  0  0  0  0
  -19.7155  -29.1237   19.7880 H   0  0  0  0  0  0  0  0  0  0  0  0
  1 25  1  0
  1 30  2  0
  1 86  1  0
  2  3  1  0
  2 25  1  0
  2 88  1  0
  2 89  1  0
  3  4  1  0
  3 90  1  0
  3 91  1  0
  4  5  1  0
  4 92  1  0
  4 93  1  0
  5  6  1  0
  5 26  1  0
  5 94  1  6
  6 25  1  0
  6 95  1  0
  6 96  1  0
  7  8  2  0
  7 26  1  0
  7 29  1  0
  8  9  1  0
  8 22  1  0
  9 10  1  0
  9 27  2  0
 10 11  2  0
 10 15  1  0
 11 12  1  0
 11 97  1  0
 12 13  2  0
 12 98  1  0
 13 14  1  0
 13 31  1  0
 14 15  2  0
 14 99  1  0
 15100  1  0
 16 17  2  0
 16 21  1  0
 16 31  1  0
 17 18  1  0
 17101  1  0
 18 19  2  0
 18102  1  0
 19 20  1  0
 19 24  1  0
 20 21  2  0
 20103  1  0
 21 23  1  0
 22 28  1  0
 22 32  2  0
 26 27  1  0
 28104  1  0
 28105  1  0
 29106  1  0
 29107  1  0
 33 34  1  0
 33 66  1  0
 33 70  2  0
 34 36  1  0
 34 59  1  0
 34108  1  6
 35 44  2  0
 35 45  1  0
 35 68  1  0
 36 56  1  0
 36109  1  0
 37 39  1  0
 37 47  1  0
 37 66  1  0
 37110  1  6
 38 43  2  0
 38 46  1  0
 38 47  1  0
 39 64  1  0
 39 67  2  0
 40 52  1  0
 40 53  2  0
 40 58  1  0
 41111  1  0
 41112  1  0
 41113  1  0
 42 43  1  0
 42 66  1  0
 42114  1  0
 42115  1  0
 43 44  1  0
 44116  1  0
 45 46  2  0
 45117  1  0
 46118  1  0
 47119  1  0
 47120  1  0
 48 41  1  0
 48 56  1  0
 48 65  1  0
 48121  1  1
 49 50  1  0
 49 53  1  0
 49 64  1  0
 49122  1  1
 50 51  1  0
 50123  1  0
 50124  1  0
 51 52  1  0
 51125  1  0
 51126  1  0
 52127  1  0
 52128  1  0
 53 54  1  0
 54 55  2  0
 54129  1  0
 55 57  1  0
 55130  1  0
 56 69  2  0
 57 58  2  0
 57131  1  0
 58132  1  0
 59 60  1  0
 59 61  1  0
 59 62  1  0
 60133  1  0
 60134  1  0
 60135  1  0
 61136  1  0
 61137  1  0
 61138  1  0
 62139  1  0
 62140  1  0
 62141  1  0
 63 65  1  0
 63142  1  0
 63143  1  0
 63144  1  0
 64145  1  0
 65146  1  0
 68 83  1  0
 71 72  1  0
 71 73  1  0
 71 85  2  0
 72 86  1  0
 72 87  2  0
 73147  1  0
 73148  1  0
 74 73  1  0
 74 84  1  0
 74 86  1  0
 74149  1  1
 75150  1  0
 75151  1  0
 75152  1  0
 76 84  1  0
 76153  1  0
 76154  1  0
 76155  1  0
 77 78  1  0
 77 79  1  0
 77156  1  0
 77157  1  0
 78 80  1  0
 78158  1  0
 78159  1  0
 79 81  1  0
 79160  1  0
 79161  1  0
 80 82  1  0
 80162  1  0
 80163  1  0
 81 83  1  0
 81164  1  0
 81165  1  0
 82 85  1  0
 82166  1  0
 82167  1  0
 83168  1  0
 83169  1  0
 84 75  1  0
 84170  1  0
M  ISO  4   1 100  68 101  83 101  86 100
M  END
$$$$
96
     RDKit          3D

159167  0  0  0  0  0  0  0  0999 V2000
  -30.7652  -14.3608   20.6636 C   0  0  0  0  0  0  0  0  0100  0  0
  -30.4392  -12.2669   19.3775 C   0  0  0  0  0  0  0  0  0101  0  0
  -29.4791  -12.5281   18.1977 C   0  0  0  0  0  0  0  0  0102  0  0
  -27.9985  -12.3963   18.6038 C   0  0  0  0  0  0  0  0  0103  0  0
  -27.6639  -13.2170   19.8820 C   0  0  2  0  0  0  0  0  0104  0  0
  -28.6795  -12.9602   21.0279 C   0  0  0  0  0  0  0  0  0105  0  0
  -25.2633  -13.8245   20.5754 C   0  0  0  0  0  0  0  0  0106  0  0
  -24.1645  -13.0409   20.9408 C   0  0  0  0  0  0  0  0  0107  0  0
  -24.6400  -11.7009   20.8697 C   0  0  0  0  0  0  0  0  0108  0  0
  -23.9005  -10.4085   21.0420 C   0  0  0  0  0  0  0  0  0109  0  0
  -24.3588   -9.4123   21.9123 C   0  0  0  0  0  0  0  0  0110  0  0
  -23.6296   -8.2350   22.0803 C   0  0  0  0  0  0  0  0  0111  0  0
  -22.4385   -8.0419   21.3657 C   0  0  0  0  0  0  0  0  0112  0  0
  -22.0103   -9.0167   20.4678 C   0  0  0  0  0  0  0  0  0113  0  0
  -22.7317  -10.1925   20.3102 C   0  0  0  0  0  0  0  0  0114  0  0
  -21.6857   -6.0709   22.5391 C   0  0  0  0  0  0  0  0  0115  0  0
  -21.4064   -6.5490   23.8264 C   0  0  0  0  0  0  0  0  0116  0  0
  -21.3635   -5.6677   24.9085 C   0  0  0  0  0  0  0  0  0117  0  0
  -21.5973   -4.3067   24.7088 C   0  0  0  0  0  0  0  0  0118  0  0
  -21.8700   -3.8284   23.4282 C   0  0  0  0  0  0  0  0  0119  0  0
  -21.9144   -4.7056   22.3460 C   0  0  0  0  0  0  0  0  0120  0  0
  -22.8194  -13.5263   21.1763 C   0  0  0  0  0  0  0  0  0121  0  0
  -22.1559   -4.2206   21.1063 F   0  0  0  0  0  0  0  0  0122  0  0
  -21.5628   -3.4510   25.7555 F   0  0  0  0  0  0  0  0  0123  0  0
  -30.0261  -13.1803   20.4553 N   0  0  0  0  0  0  0  0  0124  0  0
  -26.2911  -12.9356   20.3443 N   0  0  0  0  0  0  0  0  0125  0  0
  -25.9236  -11.6675   20.5847 N   0  0  0  0  0  0  0  0  0126  0  0
  -22.0708  -12.7905   22.0005 N   0  0  0  0  0  0  0  0  0127  0  0
  -25.4117  -15.1773   20.4097 N   0  0  0  0  0  0  0  0  0128  0  0
  -31.7916  -14.6724   20.0536 O   0  0  0  0  0  0  0  0  0129  0  0
  -21.6670   -6.9022   21.4423 O   0  0  0  0  0  0  0  0  0130  0  0
  -22.3946  -14.5564   20.6568 O   0  0  0  0  0  0  0  0  0131  0  0
  -24.6048  -31.8614   23.2223 C   0  0  0  0  0  0  0  0  0100  0  0
  -25.8822  -32.4841   23.8616 C   0  0  1  0  0  0  0  0  0101  0  0
  -27.2536  -27.5042   20.1156 C   0  0  0  0  0  0  0  0  0102  0  0
  -25.5726  -33.8762   24.2210 N   0  0  0  0  0  0  0  0  0103  0  0
  -23.4066  -30.4859   21.5461 C   0  0  2  0  0  0  0  0  0104  0  0
  -24.8467  -28.9636   20.1247 C   0  0  0  0  0  0  0  0  0105  0  0
  -22.7412  -29.4652   22.5052 C   0  0  0  0  0  0  0  0  0106  0  0
  -18.0167  -28.1302   22.8626 C   0  0  0  0  0  0  0  0  0107  0  0
  -24.1342  -36.7390   23.2568 C   0  0  0  0  0  0  0  0  0108  0  0
  -25.9141  -30.8882   21.3456 C   0  0  0  0  0  0  0  0  0109  0  0
  -25.9930  -29.5029   20.7208 C   0  0  0  0  0  0  0  0  0110  0  0
  -27.1758  -28.7612   20.7331 C   0  0  0  0  0  0  0  0  0111  0  0
  -26.1032  -26.9836   19.5230 C   0  0  0  0  0  0  0  0  0112  0  0
  -24.9097  -27.7011   19.5331 C   0  0  0  0  0  0  0  0  0113  0  0
  -23.5715  -29.7899   20.1582 C   0  0  0  0  0  0  0  0  0114  0  0
  -25.3990  -36.3212   24.0232 C   0  0  1  0  0  0  0  0  0115  0  0
  -20.5793  -28.3813   23.1004 C   0  0  2  0  0  0  0  0  0116  0  0
  -20.6548  -26.9392   22.5411 C   0  0  0  0  0  0  0  0  0117  0  0
  -19.5615  -26.6407   21.5143 C   0  0  0  0  0  0  0  0  0118  0  0
  -18.1797  -26.7818   22.1673 C   0  0  0  0  0  0  0  0  0119  0  0
  -19.1385  -28.8769   23.2988 C   0  0  0  0  0  0  0  0  0120  0  0
  -18.9183  -30.1286   23.8878 C   0  0  0  0  0  0  0  0  0121  0  0
  -17.6396  -30.6493   24.0352 C   0  0  0  0  0  0  0  0  0122  0  0
  -25.9153  -34.9582   23.4993 C   0  0  0  0  0  0  0  0  0123  0  0
  -16.5415  -29.9068   23.6254 C   0  0  0  0  0  0  0  0  0124  0  0
  -16.7331  -28.6521   23.0586 C   0  0  0  0  0  0  0  0  0125  0  0
  -26.4583  -31.6439   25.0683 C   0  0  0  0  0  0  0  0  0126  0  0
  -25.3807  -31.3179   26.1374 C   0  0  0  0  0  0  0  0  0127  0  0
  -27.0530  -30.3024   24.5680 C   0  0  0  0  0  0  0  0  0128  0  0
  -27.6014  -32.4281   25.7651 C   0  0  0  0  0  0  0  0  0129  0  0
  -27.5629  -37.2220   24.8621 C   0  0  0  0  0  0  0  0  0130  0  0
  -21.4133  -29.3375   22.3735 N   0  0  0  0  0  0  0  0  0131  0  0
  -26.4706  -37.3372   23.9061 N   0  0  0  0  0  0  0  0  0132  0  0
  -24.6674  -31.0544   22.1178 N   0  0  0  0  0  0  0  0  0133  0  0
  -23.4259  -28.8150   23.2971 O   0  0  0  0  0  0  0  0  0134  0  0
  -28.3948  -26.7345   20.0089 O   0  0  0  0  0  0  0  0  0135  0  0
  -26.5870  -34.9065   22.4671 O   0  0  0  0  0  0  0  0  0136  0  0
  -23.5365  -32.1254   23.7833 O   0  0  0  0  0  0  0  0  0137  0  0
  -23.6698  -11.7978   20.9456 C   0  0  0  0  0  0  0  0  0  0  0  0
  -25.0617  -13.7565   20.8417 C   0  0  0  0  0  0  0  0  0  0  0  0
  -23.8289  -13.1699   21.1050 C   0  0  0  0  0  0  0  0  0  0  0  0
  -24.7659  -11.0626   20.5240 C   0  0  0  0  0  0  0  0  0  0  0  0
  -26.0955  -12.9335   20.4249 C   0  0  0  0  0  0  0  0  0  0  0  0
  -25.5519   -8.7907   21.2821 C   0  0  0  0  0  0  0  0  0  0  0  0
  -24.8714   -9.1530   18.8819 C   0  0  0  0  0  0  0  0  0  0  0  0
  -21.9399  -15.4462   23.2054 C   0  0  0  0  0  0  0  0  0  0  0  0
  -22.2252  -16.6915   24.0301 C   0  0  0  0  0  0  0  0  0  1  0  0
  -23.0906  -15.1067   22.2711 C   0  0  0  0  0  0  0  0  0  0  0  0
  -24.6309   -9.5879   20.3396 C   0  0  0  0  0  0  0  0  0  0  0  0
  -25.9790  -11.5969   20.2586 N   0  0  0  0  0  0  0  0  0  0  0  0
  -27.3476  -13.5407   20.1578 N   0  0  0  0  0  0  0  0  0  0  0  0
  -22.7752  -13.9415   21.5209 O   0  0  0  0  0  0  0  0  0  0  0  0
  -31.4485  -12.4701   19.0860 H   0  0  0  0  0  0  0  0  0  0  0  0
  -30.3970  -11.2460   19.6950 H   0  0  0  0  0  0  0  0  0  0  0  0
  -29.6870  -11.8204   17.4226 H   0  0  0  0  0  0  0  0  0  0  0  0
  -29.6375  -13.5326   17.8649 H   0  0  0  0  0  0  0  0  0  0  0  0
  -27.7830  -11.3650   18.7904 H   0  0  0  0  0  0  0  0  0  0  0  0
  -27.4028  -12.7801   17.8021 H   0  0  0  0  0  0  0  0  0  0  0  0
  -27.7353  -14.2503   19.6136 H   0  0  0  0  0  0  0  0  0  0  0  0
  -28.5890  -11.9550   21.3832 H   0  0  0  0  0  0  0  0  0  0  0  0
  -28.5005  -13.6134   21.8562 H   0  0  0  0  0  0  0  0  0  0  0  0
  -25.2399   -9.5495   22.4318 H   0  0  0  0  0  0  0  0  0  0  0  0
  -23.9663   -7.5070   22.7297 H   0  0  0  0  0  0  0  0  0  0  0  0
  -21.1515   -8.8641   19.9162 H   0  0  0  0  0  0  0  0  0  0  0  0
  -22.4016  -10.9115   19.6476 H   0  0  0  0  0  0  0  0  0  0  0  0
  -21.2319   -7.5552   23.9750 H   0  0  0  0  0  0  0  0  0  0  0  0
  -21.1589   -6.0228   25.8556 H   0  0  0  0  0  0  0  0  0  0  0  0
  -22.0396   -2.8212   23.2809 H   0  0  0  0  0  0  0  0  0  0  0  0
  -22.4401  -11.9703   22.4008 H   0  0  0  0  0  0  0  0  0  0  0  0
  -21.1493  -13.0679   22.2082 H   0  0  0  0  0  0  0  0  0  0  0  0
  -24.6538  -15.7807   20.5848 H   0  0  0  0  0  0  0  0  0  0  0  0
  -26.2762  -15.5453   20.1156 H   0  0  0  0  0  0  0  0  0  0  0  0
  -26.6778  -32.4663   23.1464 H   0  0  0  0  0  0  0  0  0  0  0  0
  -25.0747  -34.0282   25.0566 H   0  0  0  0  0  0  0  0  0  0  0  0
  -22.7881  -31.3489   21.4131 H   0  0  0  0  0  0  0  0  0  0  0  0
  -23.3854  -35.9823   23.3648 H   0  0  0  0  0  0  0  0  0  0  0  0
  -24.3696  -36.8624   22.2204 H   0  0  0  0  0  0  0  0  0  0  0  0
  -23.7669  -37.6632   23.6516 H   0  0  0  0  0  0  0  0  0  0  0  0
  -25.9445  -31.6237   20.5691 H   0  0  0  0  0  0  0  0  0  0  0  0
  -26.7436  -31.0079   22.0108 H   0  0  0  0  0  0  0  0  0  0  0  0
  -28.0090  -29.1452   21.2057 H   0  0  0  0  0  0  0  0  0  0  0  0
  -26.1369  -26.0560   19.0719 H   0  0  0  0  0  0  0  0  0  0  0  0
  -24.0652  -27.2961   19.0997 H   0  0  0  0  0  0  0  0  0  0  0  0
  -23.6156  -30.5365   19.3930 H   0  0  0  0  0  0  0  0  0  0  0  0
  -22.7355  -29.1425   19.9945 H   0  0  0  0  0  0  0  0  0  0  0  0
  -25.1353  -36.2335   25.0565 H   0  0  0  0  0  0  0  0  0  0  0  0
  -21.0070  -28.3206   24.0793 H   0  0  0  0  0  0  0  0  0  0  0  0
  -20.5555  -26.2518   23.3550 H   0  0  0  0  0  0  0  0  0  0  0  0
  -21.5974  -26.8362   22.0454 H   0  0  0  0  0  0  0  0  0  0  0  0
  -19.6810  -25.6422   21.1488 H   0  0  0  0  0  0  0  0  0  0  0  0
  -19.6406  -27.3343   20.7034 H   0  0  0  0  0  0  0  0  0  0  0  0
  -17.4282  -26.6888   21.4113 H   0  0  0  0  0  0  0  0  0  0  0  0
  -18.0803  -26.0130   22.9049 H   0  0  0  0  0  0  0  0  0  0  0  0
  -19.7265  -30.6774   24.2204 H   0  0  0  0  0  0  0  0  0  0  0  0
  -17.5064  -31.5856   24.4483 H   0  0  0  0  0  0  0  0  0  0  0  0
  -15.5878  -30.2839   23.7407 H   0  0  0  0  0  0  0  0  0  0  0  0
  -15.9120  -28.0941   22.7766 H   0  0  0  0  0  0  0  0  0  0  0  0
  -24.5787  -30.7757   25.6817 H   0  0  0  0  0  0  0  0  0  0  0  0
  -25.0041  -32.2289   26.5536 H   0  0  0  0  0  0  0  0  0  0  0  0
  -25.8166  -30.7245   26.9138 H   0  0  0  0  0  0  0  0  0  0  0  0
  -26.2892  -29.7335   24.0803 H   0  0  0  0  0  0  0  0  0  0  0  0
  -27.4336  -29.7484   25.4006 H   0  0  0  0  0  0  0  0  0  0  0  0
  -27.8466  -30.4994   23.8779 H   0  0  0  0  0  0  0  0  0  0  0  0
  -27.2251  -33.3632   26.1242 H   0  0  0  0  0  0  0  0  0  0  0  0
  -28.3902  -32.6065   25.0645 H   0  0  0  0  0  0  0  0  0  0  0  0
  -27.9772  -31.8555   26.5872 H   0  0  0  0  0  0  0  0  0  0  0  0
  -28.2744  -38.0016   24.6863 H   0  0  0  0  0  0  0  0  0  0  0  0
  -28.0396  -36.2711   24.7461 H   0  0  0  0  0  0  0  0  0  0  0  0
  -27.1773  -37.3087   25.8564 H   0  0  0  0  0  0  0  0  0  0  0  0
  -20.9627  -29.9365   21.7352 H   0  0  0  0  0  0  0  0  0  0  0  0
  -26.0447  -38.2561   24.0273 H   0  0  0  0  0  0  0  0  0  0  0  0
  -22.7639  -11.3414   21.1353 H   0  0  0  0  0  0  0  0  0  0  0  0
  -25.2023  -14.7728   20.9532 H   0  0  0  0  0  0  0  0  0  0  0  0
  -25.3798   -9.0975   22.2926 H   0  0  0  0  0  0  0  0  0  0  0  0
  -26.5735   -8.9749   21.0225 H   0  0  0  0  0  0  0  0  0  0  0  0
  -25.3423   -7.7458   21.1860 H   0  0  0  0  0  0  0  0  0  0  0  0
  -24.2288   -9.7103   18.2328 H   0  0  0  0  0  0  0  0  0  0  0  0
  -24.6606   -8.1087   18.7819 H   0  0  0  0  0  0  0  0  0  0  0  0
  -25.8918   -9.3378   18.6183 H   0  0  0  0  0  0  0  0  0  0  0  0
  -21.0585  -15.6125   22.6219 H   0  0  0  0  0  0  0  0  0  0  0  0
  -21.8081  -14.6259   23.8797 H   0  0  0  0  0  0  0  0  0  0  0  0
  -22.7697  -16.3473   24.8845 H   0  0  0  0  0  0  0  0  0  0  0  0
  -21.2377  -17.0956   24.1108 H   0  0  0  0  0  0  0  0  0  0  0  0
  -23.9750  -14.9297   22.8468 H   0  0  0  0  0  0  0  0  0  0  0  0
  -23.2539  -15.9245   21.6007 H   0  0  0  0  0  0  0  0  0  0  0  0
  -23.6162   -9.3618   20.5931 H   0  0  0  0  0  0  0  0  0  0  0  0
  -27.1503  -14.0351   19.3296 H   0  0  0  0  0  0  0  0  0  0  0  0
  1 25  1  0
  1 30  2  0
  1 83  1  0
  2  3  1  0
  2 25  1  0
  2 85  1  0
  2 86  1  0
  3  4  1  0
  3 87  1  0
  3 88  1  0
  4  5  1  0
  4 89  1  0
  4 90  1  0
  5  6  1  0
  5 26  1  0
  5 91  1  6
  6 25  1  0
  6 92  1  0
  6 93  1  0
  7  8  2  0
  7 26  1  0
  7 29  1  0
  8  9  1  0
  8 22  1  0
  9 10  1  0
  9 27  2  0
 10 11  2  0
 10 15  1  0
 11 12  1  0
 11 94  1  0
 12 13  2  0
 12 95  1  0
 13 14  1  0
 13 31  1  0
 14 15  2  0
 14 96  1  0
 15 97  1  0
 16 17  2  0
 16 21  1  0
 16 31  1  0
 17 18  1  0
 17 98  1  0
 18 19  2  0
 18 99  1  0
 19 20  1  0
 19 24  1  0
 20 21  2  0
 20100  1  0
 21 23  1  0
 22 28  1  0
 22 32  2  0
 26 27  1  0
 28101  1  0
 28102  1  0
 29103  1  0
 29104  1  0
 33 34  1  0
 33 66  1  0
 33 70  2  0
 34 36  1  0
 34 59  1  0
 34105  1  6
 35 44  2  0
 35 45  1  0
 35 68  1  0
 36 56  1  0
 36106  1  0
 37 39  1  0
 37 47  1  0
 37 66  1  0
 37107  1  6
 38 43  2  0
 38 46  1  0
 38 47  1  0
 39 64  1  0
 39 67  2  0
 40 52  1  0
 40 53  2  0
 40 58  1  0
 41108  1  0
 41109  1  0
 41110  1  0
 42 43  1  0
 42 66  1  0
 42111  1  0
 42112  1  0
 43 44  1  0
 44113  1  0
 45 46  2  0
 45114  1  0
 46115  1  0
 47116  1  0
 47117  1  0
 48 41  1  0
 48 56  1  0
 48 65  1  0
 48118  1  1
 49 50  1  0
 49 53  1  0
 49 64  1  0
 49119  1  1
 50 51  1  0
 50120  1  0
 50121  1  0
 51 52  1  0
 51122  1  0
 51123  1  0
 52124  1  0
 52125  1  0
 53 54  1  0
 54 55  2  0
 54126  1  0
 55 57  1  0
 55127  1  0
 56 69  2  0
 57 58  2  0
 57128  1  0
 58129  1  0
 59 60  1  0
 59 61  1  0
 59 62  1  0
 60130  1  0
 60131  1  0
 60132  1  0
 61133  1  0
 61134  1  0
 61135  1  0
 62136  1  0
 62137  1  0
 62138  1  0
 63 65  1  0
 63139  1  0
 63140  1  0
 63141  1  0
 64142  1  0
 65143  1  0
 68 79  1  0
 71 73  2  0
 71 74  1  0
 71144  1  0
 72 73  1  0
 72 75  2  0
 72145  1  0
 73 84  1  0
 74 81  1  0
 74 82  2  0
 75 82  1  0
 75 83  1  0
 76146  1  0
 76147  1  0
 76148  1  0
 77 81  1  0
 77149  1  0
 77150  1  0
 77151  1  0
 78 79  1  0
 78 80  1  0
 78152  1  0
 78153  1  0
 79154  1  0
 79155  1  0
 80 84  1  0
 80156  1  0
 80157  1  0
 81 76  1  0
 81158  1  0
 83159  1  0
M  ISO  4   1 100  68 101  79 101  83 100
M  END
$$$$
97
     RDKit          3D

150158  0  0  0  0  0  0  0  0999 V2000
  -30.7652  -14.3608   20.6636 C   0  0  0  0  0  0  0  0  0100  0  0
  -30.4392  -12.2669   19.3775 C   0  0  0  0  0  0  0  0  0101  0  0
  -29.4791  -12.5281   18.1977 C   0  0  0  0  0  0  0  0  0102  0  0
  -27.9985  -12.3963   18.6038 C   0  0  0  0  0  0  0  0  0103  0  0
  -27.6639  -13.2170   19.8820 C   0  0  2  0  0  0  0  0  0104  0  0
  -28.6795  -12.9602   21.0279 C   0  0  0  0  0  0  0  0  0105  0  0
  -25.2633  -13.8245   20.5754 C   0  0  0  0  0  0  0  0  0106  0  0
  -24.1645  -13.0409   20.9408 C   0  0  0  0  0  0  0  0  0107  0  0
  -24.6400  -11.7009   20.8697 C   0  0  0  0  0  0  0  0  0108  0  0
  -23.9005  -10.4085   21.0420 C   0  0  0  0  0  0  0  0  0109  0  0
  -24.3588   -9.4123   21.9123 C   0  0  0  0  0  0  0  0  0110  0  0
  -23.6296   -8.2350   22.0803 C   0  0  0  0  0  0  0  0  0111  0  0
  -22.4385   -8.0419   21.3657 C   0  0  0  0  0  0  0  0  0112  0  0
  -22.0103   -9.0167   20.4678 C   0  0  0  0  0  0  0  0  0113  0  0
  -22.7317  -10.1925   20.3102 C   0  0  0  0  0  0  0  0  0114  0  0
  -21.6857   -6.0709   22.5391 C   0  0  0  0  0  0  0  0  0115  0  0
  -21.4064   -6.5490   23.8264 C   0  0  0  0  0  0  0  0  0116  0  0
  -21.3635   -5.6677   24.9085 C   0  0  0  0  0  0  0  0  0117  0  0
  -21.5973   -4.3067   24.7088 C   0  0  0  0  0  0  0  0  0118  0  0
  -21.8700   -3.8284   23.4282 C   0  0  0  0  0  0  0  0  0119  0  0
  -21.9144   -4.7056   22.3460 C   0  0  0  0  0  0  0  0  0120  0  0
  -22.8194  -13.5263   21.1763 C   0  0  0  0  0  0  0  0  0121  0  0
  -22.1559   -4.2206   21.1063 F   0  0  0  0  0  0  0  0  0122  0  0
  -21.5628   -3.4510   25.7555 F   0  0  0  0  0  0  0  0  0123  0  0
  -30.0261  -13.1803   20.4553 N   0  0  0  0  0  0  0  0  0124  0  0
  -26.2911  -12.9356   20.3443 N   0  0  0  0  0  0  0  0  0125  0  0
  -25.9236  -11.6675   20.5847 N   0  0  0  0  0  0  0  0  0126  0  0
  -22.0708  -12.7905   22.0005 N   0  0  0  0  0  0  0  0  0127  0  0
  -25.4117  -15.1773   20.4097 N   0  0  0  0  0  0  0  0  0128  0  0
  -31.7916  -14.6724   20.0536 O   0  0  0  0  0  0  0  0  0129  0  0
  -21.6670   -6.9022   21.4423 O   0  0  0  0  0  0  0  0  0130  0  0
  -22.3946  -14.5564   20.6568 O   0  0  0  0  0  0  0  0  0131  0  0
  -24.6048  -31.8614   23.2223 C   0  0  0  0  0  0  0  0  0100  0  0
  -25.8822  -32.4841   23.8616 C   0  0  1  0  0  0  0  0  0101  0  0
  -27.2536  -27.5042   20.1156 C   0  0  0  0  0  0  0  0  0102  0  0
  -25.5726  -33.8762   24.2210 N   0  0  0  0  0  0  0  0  0103  0  0
  -23.4066  -30.4859   21.5461 C   0  0  2  0  0  0  0  0  0104  0  0
  -24.8467  -28.9636   20.1247 C   0  0  0  0  0  0  0  0  0105  0  0
  -22.7412  -29.4652   22.5052 C   0  0  0  0  0  0  0  0  0106  0  0
  -18.0167  -28.1302   22.8626 C   0  0  0  0  0  0  0  0  0107  0  0
  -24.1342  -36.7390   23.2568 C   0  0  0  0  0  0  0  0  0108  0  0
  -25.9141  -30.8882   21.3456 C   0  0  0  0  0  0  0  0  0109  0  0
  -25.9930  -29.5029   20.7208 C   0  0  0  0  0  0  0  0  0110  0  0
  -27.1758  -28.7612   20.7331 C   0  0  0  0  0  0  0  0  0111  0  0
  -26.1032  -26.9836   19.5230 C   0  0  0  0  0  0  0  0  0112  0  0
  -24.9097  -27.7011   19.5331 C   0  0  0  0  0  0  0  0  0113  0  0
  -23.5715  -29.7899   20.1582 C   0  0  0  0  0  0  0  0  0114  0  0
  -25.3990  -36.3212   24.0232 C   0  0  1  0  0  0  0  0  0115  0  0
  -20.5793  -28.3813   23.1004 C   0  0  2  0  0  0  0  0  0116  0  0
  -20.6548  -26.9392   22.5411 C   0  0  0  0  0  0  0  0  0117  0  0
  -19.5615  -26.6407   21.5143 C   0  0  0  0  0  0  0  0  0118  0  0
  -18.1797  -26.7818   22.1673 C   0  0  0  0  0  0  0  0  0119  0  0
  -19.1385  -28.8769   23.2988 C   0  0  0  0  0  0  0  0  0120  0  0
  -18.9183  -30.1286   23.8878 C   0  0  0  0  0  0  0  0  0121  0  0
  -17.6396  -30.6493   24.0352 C   0  0  0  0  0  0  0  0  0122  0  0
  -25.9153  -34.9582   23.4993 C   0  0  0  0  0  0  0  0  0123  0  0
  -16.5415  -29.9068   23.6254 C   0  0  0  0  0  0  0  0  0124  0  0
  -16.7331  -28.6521   23.0586 C   0  0  0  0  0  0  0  0  0125  0  0
  -26.4583  -31.6439   25.0683 C   0  0  0  0  0  0  0  0  0126  0  0
  -25.3807  -31.3179   26.1374 C   0  0  0  0  0  0  0  0  0127  0  0
  -27.0530  -30.3024   24.5680 C   0  0  0  0  0  0  0  0  0128  0  0
  -27.6014  -32.4281   25.7651 C   0  0  0  0  0  0  0  0  0129  0  0
  -27.5629  -37.2220   24.8621 C   0  0  0  0  0  0  0  0  0130  0  0
  -21.4133  -29.3375   22.3735 N   0  0  0  0  0  0  0  0  0131  0  0
  -26.4706  -37.3372   23.9061 N   0  0  0  0  0  0  0  0  0132  0  0
  -24.6674  -31.0544   22.1178 N   0  0  0  0  0  0  0  0  0133  0  0
  -23.4259  -28.8150   23.2971 O   0  0  0  0  0  0  0  0  0134  0  0
  -28.3948  -26.7345   20.0089 O   0  0  0  0  0  0  0  0  0135  0  0
  -26.5870  -34.9065   22.4671 O   0  0  0  0  0  0  0  0  0136  0  0
  -23.5365  -32.1254   23.7833 O   0  0  0  0  0  0  0  0  0137  0  0
  -31.8296  -20.9836   19.9756 C   0  0  0  0  0  0  0  0  0  0  0  0
  -32.6666  -21.1587   18.8573 C   0  0  0  0  0  0  0  0  0  0  0  0
  -30.6992  -21.7034   19.6745 C   0  0  0  0  0  0  0  0  0  0  0  0
  -34.0143  -20.6029   18.6494 C   0  0  0  0  0  0  0  0  0  0  0  0
  -29.4339  -21.9218   20.4508 C   0  0  0  0  0  0  0  0  0  1  0  0
  -30.0182  -23.0874   17.6907 C   0  0  0  0  0  0  0  0  0  0  0  0
  -29.2847  -22.3372   16.5820 C   0  0  0  0  0  0  0  0  0  0  0  0
  -32.1150  -21.9291   17.9159 N   0  0  0  0  0  0  0  0  0  0  0  0
  -30.9192  -22.2445   18.4420 N   0  0  0  0  0  0  0  0  0  0  0  0
  -28.5047  -21.2305   17.0895 N   0  0  0  0  0  0  0  0  0  0  0  0
  -31.4485  -12.4701   19.0860 H   0  0  0  0  0  0  0  0  0  0  0  0
  -30.3970  -11.2460   19.6950 H   0  0  0  0  0  0  0  0  0  0  0  0
  -29.6870  -11.8204   17.4226 H   0  0  0  0  0  0  0  0  0  0  0  0
  -29.6375  -13.5326   17.8649 H   0  0  0  0  0  0  0  0  0  0  0  0
  -27.7830  -11.3650   18.7904 H   0  0  0  0  0  0  0  0  0  0  0  0
  -27.4028  -12.7801   17.8021 H   0  0  0  0  0  0  0  0  0  0  0  0
  -27.7353  -14.2503   19.6136 H   0  0  0  0  0  0  0  0  0  0  0  0
  -28.5890  -11.9550   21.3832 H   0  0  0  0  0  0  0  0  0  0  0  0
  -28.5005  -13.6134   21.8562 H   0  0  0  0  0  0  0  0  0  0  0  0
  -25.2399   -9.5495   22.4318 H   0  0  0  0  0  0  0  0  0  0  0  0
  -23.9663   -7.5070   22.7297 H   0  0  0  0  0  0  0  0  0  0  0  0
  -21.1515   -8.8641   19.9162 H   0  0  0  0  0  0  0  0  0  0  0  0
  -22.4016  -10.9115   19.6476 H   0  0  0  0  0  0  0  0  0  0  0  0
  -21.2319   -7.5552   23.9750 H   0  0  0  0  0  0  0  0  0  0  0  0
  -21.1589   -6.0228   25.8556 H   0  0  0  0  0  0  0  0  0  0  0  0
  -22.0396   -2.8212   23.2809 H   0  0  0  0  0  0  0  0  0  0  0  0
  -22.4401  -11.9703   22.4008 H   0  0  0  0  0  0  0  0  0  0  0  0
  -21.1493  -13.0679   22.2082 H   0  0  0  0  0  0  0  0  0  0  0  0
  -24.6538  -15.7807   20.5848 H   0  0  0  0  0  0  0  0  0  0  0  0
  -26.2762  -15.5453   20.1156 H   0  0  0  0  0  0  0  0  0  0  0  0
  -26.6778  -32.4663   23.1464 H   0  0  0  0  0  0  0  0  0  0  0  0
  -25.0747  -34.0282   25.0566 H   0  0  0  0  0  0  0  0  0  0  0  0
  -22.7881  -31.3489   21.4131 H   0  0  0  0  0  0  0  0  0  0  0  0
  -23.3854  -35.9823   23.3648 H   0  0  0  0  0  0  0  0  0  0  0  0
  -24.3696  -36.8624   22.2204 H   0  0  0  0  0  0  0  0  0  0  0  0
  -23.7669  -37.6632   23.6516 H   0  0  0  0  0  0  0  0  0  0  0  0
  -25.9445  -31.6237   20.5691 H   0  0  0  0  0  0  0  0  0  0  0  0
  -26.7436  -31.0079   22.0108 H   0  0  0  0  0  0  0  0  0  0  0  0
  -28.0090  -29.1452   21.2057 H   0  0  0  0  0  0  0  0  0  0  0  0
  -26.1369  -26.0560   19.0719 H   0  0  0  0  0  0  0  0  0  0  0  0
  -24.0652  -27.2961   19.0997 H   0  0  0  0  0  0  0  0  0  0  0  0
  -23.6156  -30.5365   19.3930 H   0  0  0  0  0  0  0  0  0  0  0  0
  -22.7355  -29.1425   19.9945 H   0  0  0  0  0  0  0  0  0  0  0  0
  -25.1353  -36.2335   25.0565 H   0  0  0  0  0  0  0  0  0  0  0  0
  -21.0070  -28.3206   24.0793 H   0  0  0  0  0  0  0  0  0  0  0  0
  -20.5555  -26.2518   23.3550 H   0  0  0  0  0  0  0  0  0  0  0  0
  -21.5974  -26.8362   22.0454 H   0  0  0  0  0  0  0  0  0  0  0  0
  -19.6810  -25.6422   21.1488 H   0  0  0  0  0  0  0  0  0  0  0  0
  -19.6406  -27.3343   20.7034 H   0  0  0  0  0  0  0  0  0  0  0  0
  -17.4282  -26.6888   21.4113 H   0  0  0  0  0  0  0  0  0  0  0  0
  -18.0803  -26.0130   22.9049 H   0  0  0  0  0  0  0  0  0  0  0  0
  -19.7265  -30.6774   24.2204 H   0  0  0  0  0  0  0  0  0  0  0  0
  -17.5064  -31.5856   24.4483 H   0  0  0  0  0  0  0  0  0  0  0  0
  -15.5878  -30.2839   23.7407 H   0  0  0  0  0  0  0  0  0  0  0  0
  -15.9120  -28.0941   22.7766 H   0  0  0  0  0  0  0  0  0  0  0  0
  -24.5787  -30.7757   25.6817 H   0  0  0  0  0  0  0  0  0  0  0  0
  -25.0041  -32.2289   26.5536 H   0  0  0  0  0  0  0  0  0  0  0  0
  -25.8166  -30.7245   26.9138 H   0  0  0  0  0  0  0  0  0  0  0  0
  -26.2892  -29.7335   24.0803 H   0  0  0  0  0  0  0  0  0  0  0  0
  -27.4336  -29.7484   25.4006 H   0  0  0  0  0  0  0  0  0  0  0  0
  -27.8466  -30.4994   23.8779 H   0  0  0  0  0  0  0  0  0  0  0  0
  -27.2251  -33.3632   26.1242 H   0  0  0  0  0  0  0  0  0  0  0  0
  -28.3902  -32.6065   25.0645 H   0  0  0  0  0  0  0  0  0  0  0  0
  -27.9772  -31.8555   26.5872 H   0  0  0  0  0  0  0  0  0  0  0  0
  -28.2744  -38.0016   24.6863 H   0  0  0  0  0  0  0  0  0  0  0  0
  -28.0396  -36.2711   24.7461 H   0  0  0  0  0  0  0  0  0  0  0  0
  -27.1773  -37.3087   25.8564 H   0  0  0  0  0  0  0  0  0  0  0  0
  -20.9627  -29.9365   21.7352 H   0  0  0  0  0  0  0  0  0  0  0  0
  -26.0447  -38.2561   24.0273 H   0  0  0  0  0  0  0  0  0  0  0  0
  -32.0221  -20.4372   20.8297 H   0  0  0  0  0  0  0  0  0  0  0  0
  -34.2930  -20.0157   19.4994 H   0  0  0  0  0  0  0  0  0  0  0  0
  -34.7142  -21.4023   18.5232 H   0  0  0  0  0  0  0  0  0  0  0  0
  -34.0150  -19.9868   17.7746 H   0  0  0  0  0  0  0  0  0  0  0  0
  -29.5788  -21.6649   21.4793 H   0  0  0  0  0  0  0  0  0  0  0  0
  -28.6359  -21.3114   20.0827 H   0  0  0  0  0  0  0  0  0  0  0  0
  -29.2932  -23.4962   18.3632 H   0  0  0  0  0  0  0  0  0  0  0  0
  -30.6067  -23.8505   17.2257 H   0  0  0  0  0  0  0  0  0  0  0  0
  -30.0055  -21.9597   15.8871 H   0  0  0  0  0  0  0  0  0  0  0  0
  -28.6112  -23.0238   16.1132 H   0  0  0  0  0  0  0  0  0  0  0  0
  -27.5317  -21.3328   16.9802 H   0  0  0  0  0  0  0  0  0  0  0  0
  1 25  1  0
  1 30  2  0
  1 80  1  0
  2  3  1  0
  2 25  1  0
  2 81  1  0
  2 82  1  0
  3  4  1  0
  3 83  1  0
  3 84  1  0
  4  5  1  0
  4 85  1  0
  4 86  1  0
  5  6  1  0
  5 26  1  0
  5 87  1  6
  6 25  1  0
  6 88  1  0
  6 89  1  0
  7  8  2  0
  7 26  1  0
  7 29  1  0
  8  9  1  0
  8 22  1  0
  9 10  1  0
  9 27  2  0
 10 11  2  0
 10 15  1  0
 11 12  1  0
 11 90  1  0
 12 13  2  0
 12 91  1  0
 13 14  1  0
 13 31  1  0
 14 15  2  0
 14 92  1  0
 15 93  1  0
 16 17  2  0
 16 21  1  0
 16 31  1  0
 17 18  1  0
 17 94  1  0
 18 19  2  0
 18 95  1  0
 19 20  1  0
 19 24  1  0
 20 21  2  0
 20 96  1  0
 21 23  1  0
 22 28  1  0
 22 32  2  0
 26 27  1  0
 28 97  1  0
 28 98  1  0
 29 99  1  0
 29100  1  0
 33 34  1  0
 33 66  1  0
 33 70  2  0
 34 36  1  0
 34 59  1  0
 34101  1  6
 35 44  2  0
 35 45  1  0
 35 68  1  0
 36 56  1  0
 36102  1  0
 37 39  1  0
 37 47  1  0
 37 66  1  0
 37103  1  6
 38 43  2  0
 38 46  1  0
 38 47  1  0
 39 64  1  0
 39 67  2  0
 40 52  1  0
 40 53  2  0
 40 58  1  0
 41104  1  0
 41105  1  0
 41106  1  0
 42 43  1  0
 42 66  1  0
 42107  1  0
 42108  1  0
 43 44  1  0
 44109  1  0
 45 46  2  0
 45110  1  0
 46111  1  0
 47112  1  0
 47113  1  0
 48 41  1  0
 48 56  1  0
 48 65  1  0
 48114  1  1
 49 50  1  0
 49 53  1  0
 49 64  1  0
 49115  1  1
 50 51  1  0
 50116  1  0
 50117  1  0
 51 52  1  0
 51118  1  0
 51119  1  0
 52120  1  0
 52121  1  0
 53 54  1  0
 54 55  2  0
 54122  1  0
 55 57  1  0
 55123  1  0
 56 69  2  0
 57 58  2  0
 57124  1  0
 58125  1  0
 59 60  1  0
 59 61  1  0
 59 62  1  0
 60126  1  0
 60127  1  0
 60128  1  0
 61129  1  0
 61130  1  0
 61131  1  0
 62132  1  0
 62133  1  0
 62134  1  0
 63 65  1  0
 63135  1  0
 63136  1  0
 63137  1  0
 64138  1  0
 65139  1  0
 68 75  1  0
 71 72  1  0
 71 73  2  0
 71140  1  0
 72 74  1  0
 72 78  2  0
 73 75  1  0
 73 79  1  0
 74141  1  0
 74142  1  0
 74143  1  0
 75144  1  0
 75145  1  0
 76 77  1  0
 76 79  1  0
 76146  1  0
 76147  1  0
 77 80  1  0
 77148  1  0
 77149  1  0
 78 79  1  0
 80150  1  0
M  ISO  4   1 100  68 101  75 101  80 100
M  END
$$$$
98
     RDKit          3D

166174  0  0  0  0  0  0  0  0999 V2000
  -30.7652  -14.3608   20.6636 C   0  0  0  0  0  0  0  0  0100  0  0
  -30.4392  -12.2669   19.3775 C   0  0  0  0  0  0  0  0  0101  0  0
  -29.4791  -12.5281   18.1977 C   0  0  0  0  0  0  0  0  0102  0  0
  -27.9985  -12.3963   18.6038 C   0  0  0  0  0  0  0  0  0103  0  0
  -27.6639  -13.2170   19.8820 C   0  0  2  0  0  0  0  0  0104  0  0
  -28.6795  -12.9602   21.0279 C   0  0  0  0  0  0  0  0  0105  0  0
  -25.2633  -13.8245   20.5754 C   0  0  0  0  0  0  0  0  0106  0  0
  -24.1645  -13.0409   20.9408 C   0  0  0  0  0  0  0  0  0107  0  0
  -24.6400  -11.7009   20.8697 C   0  0  0  0  0  0  0  0  0108  0  0
  -23.9005  -10.4085   21.0420 C   0  0  0  0  0  0  0  0  0109  0  0
  -24.3588   -9.4123   21.9123 C   0  0  0  0  0  0  0  0  0110  0  0
  -23.6296   -8.2350   22.0803 C   0  0  0  0  0  0  0  0  0111  0  0
  -22.4385   -8.0419   21.3657 C   0  0  0  0  0  0  0  0  0112  0  0
  -22.0103   -9.0167   20.4678 C   0  0  0  0  0  0  0  0  0113  0  0
  -22.7317  -10.1925   20.3102 C   0  0  0  0  0  0  0  0  0114  0  0
  -21.6857   -6.0709   22.5391 C   0  0  0  0  0  0  0  0  0115  0  0
  -21.4064   -6.5490   23.8264 C   0  0  0  0  0  0  0  0  0116  0  0
  -21.3635   -5.6677   24.9085 C   0  0  0  0  0  0  0  0  0117  0  0
  -21.5973   -4.3067   24.7088 C   0  0  0  0  0  0  0  0  0118  0  0
  -21.8700   -3.8284   23.4282 C   0  0  0  0  0  0  0  0  0119  0  0
  -21.9144   -4.7056   22.3460 C   0  0  0  0  0  0  0  0  0120  0  0
  -22.8194  -13.5263   21.1763 C   0  0  0  0  0  0  0  0  0121  0  0
  -22.1559   -4.2206   21.1063 F   0  0  0  0  0  0  0  0  0122  0  0
  -21.5628   -3.4510   25.7555 F   0  0  0  0  0  0  0  0  0123  0  0
  -30.0261  -13.1803   20.4553 N   0  0  0  0  0  0  0  0  0124  0  0
  -26.2911  -12.9356   20.3443 N   0  0  0  0  0  0  0  0  0125  0  0
  -25.9236  -11.6675   20.5847 N   0  0  0  0  0  0  0  0  0126  0  0
  -22.0708  -12.7905   22.0005 N   0  0  0  0  0  0  0  0  0127  0  0
  -25.4117  -15.1773   20.4097 N   0  0  0  0  0  0  0  0  0128  0  0
  -31.7916  -14.6724   20.0536 O   0  0  0  0  0  0  0  0  0129  0  0
  -21.6670   -6.9022   21.4423 O   0  0  0  0  0  0  0  0  0130  0  0
  -22.3946  -14.5564   20.6568 O   0  0  0  0  0  0  0  0  0131  0  0
  -24.6048  -31.8614   23.2223 C   0  0  0  0  0  0  0  0  0100  0  0
  -25.8822  -32.4841   23.8616 C   0  0  1  0  0  0  0  0  0101  0  0
  -27.2536  -27.5042   20.1156 C   0  0  0  0  0  0  0  0  0102  0  0
  -25.5726  -33.8762   24.2210 N   0  0  0  0  0  0  0  0  0103  0  0
  -23.4066  -30.4859   21.5461 C   0  0  2  0  0  0  0  0  0104  0  0
  -24.8467  -28.9636   20.1247 C   0  0  0  0  0  0  0  0  0105  0  0
  -22.7412  -29.4652   22.5052 C   0  0  0  0  0  0  0  0  0106  0  0
  -18.0167  -28.1302   22.8626 C   0  0  0  0  0  0  0  0  0107  0  0
  -24.1342  -36.7390   23.2568 C   0  0  0  0  0  0  0  0  0108  0  0
  -25.9141  -30.8882   21.3456 C   0  0  0  0  0  0  0  0  0109  0  0
  -25.9930  -29.5029   20.7208 C   0  0  0  0  0  0  0  0  0110  0  0
  -27.1758  -28.7612   20.7331 C   0  0  0  0  0  0  0  0  0111  0  0
  -26.1032  -26.9836   19.5230 C   0  0  0  0  0  0  0  0  0112  0  0
  -24.9097  -27.7011   19.5331 C   0  0  0  0  0  0  0  0  0113  0  0
  -23.5715  -29.7899   20.1582 C   0  0  0  0  0  0  0  0  0114  0  0
  -25.3990  -36.3212   24.0232 C   0  0  1  0  0  0  0  0  0115  0  0
  -20.5793  -28.3813   23.1004 C   0  0  2  0  0  0  0  0  0116  0  0
  -20.6548  -26.9392   22.5411 C   0  0  0  0  0  0  0  0  0117  0  0
  -19.5615  -26.6407   21.5143 C   0  0  0  0  0  0  0  0  0118  0  0
  -18.1797  -26.7818   22.1673 C   0  0  0  0  0  0  0  0  0119  0  0
  -19.1385  -28.8769   23.2988 C   0  0  0  0  0  0  0  0  0120  0  0
  -18.9183  -30.1286   23.8878 C   0  0  0  0  0  0  0  0  0121  0  0
  -17.6396  -30.6493   24.0352 C   0  0  0  0  0  0  0  0  0122  0  0
  -25.9153  -34.9582   23.4993 C   0  0  0  0  0  0  0  0  0123  0  0
  -16.5415  -29.9068   23.6254 C   0  0  0  0  0  0  0  0  0124  0  0
  -16.7331  -28.6521   23.0586 C   0  0  0  0  0  0  0  0  0125  0  0
  -26.4583  -31.6439   25.0683 C   0  0  0  0  0  0  0  0  0126  0  0
  -25.3807  -31.3179   26.1374 C   0  0  0  0  0  0  0  0  0127  0  0
  -27.0530  -30.3024   24.5680 C   0  0  0  0  0  0  0  0  0128  0  0
  -27.6014  -32.4281   25.7651 C   0  0  0  0  0  0  0  0  0129  0  0
  -27.5629  -37.2220   24.8621 C   0  0  0  0  0  0  0  0  0130  0  0
  -21.4133  -29.3375   22.3735 N   0  0  0  0  0  0  0  0  0131  0  0
  -26.4706  -37.3372   23.9061 N   0  0  0  0  0  0  0  0  0132  0  0
  -24.6674  -31.0544   22.1178 N   0  0  0  0  0  0  0  0  0133  0  0
  -23.4259  -28.8150   23.2971 O   0  0  0  0  0  0  0  0  0134  0  0
  -28.3948  -26.7345   20.0089 O   0  0  0  0  0  0  0  0  0135  0  0
  -26.5870  -34.9065   22.4671 O   0  0  0  0  0  0  0  0  0136  0  0
  -23.5365  -32.1254   23.7833 O   0  0  0  0  0  0  0  0  0137  0  0
  -29.4045  -12.3308   16.4125 C   0  0  0  0  0  0  0  0  0  0  0  0
  -29.1818  -11.9920   17.7288 C   0  0  0  0  0  0  0  0  0  0  0  0
  -30.0250  -13.6043   16.4025 C   0  0  0  0  0  0  0  0  0  0  0  0
  -30.1629  -14.0049   17.7132 C   0  0  0  0  0  0  0  0  0  0  0  0
  -25.9537  -11.7068   20.4626 C   0  0  0  0  0  0  0  0  0  0  0  0
  -30.1187  -13.5711   13.8854 C   0  0  0  0  0  0  0  0  0  0  0  0
  -31.9830  -14.6362   15.1991 C   0  0  0  0  0  0  0  0  0  0  0  0
  -29.7756  -15.7638   15.0061 C   0  0  0  0  0  0  0  0  0  0  0  0
  -28.3929  -12.2697   20.6039 C   0  0  0  0  0  0  0  0  0  0  0  0
  -29.5891  -13.0326   20.0178 C   0  0  0  0  0  0  0  0  0  0  0  0
  -26.6068  -14.1063   20.8440 C   0  0  0  0  0  0  0  0  0  1  0  0
  -27.0036  -12.7862   20.1694 C   0  0  2  0  0  0  0  0  0  0  0  0
  -30.4429  -14.3549   15.2013 C   0  0  0  0  0  0  0  0  0  0  0  0
  -29.6471  -13.0169   18.5107 N   0  0  0  0  0  0  0  0  0  0  0  0
  -30.7188  -15.1945   18.2458 N   0  0  0  0  0  0  0  0  0  0  0  0
  -31.4485  -12.4701   19.0860 H   0  0  0  0  0  0  0  0  0  0  0  0
  -30.3970  -11.2460   19.6950 H   0  0  0  0  0  0  0  0  0  0  0  0
  -29.6870  -11.8204   17.4226 H   0  0  0  0  0  0  0  0  0  0  0  0
  -29.6375  -13.5326   17.8649 H   0  0  0  0  0  0  0  0  0  0  0  0
  -27.7830  -11.3650   18.7904 H   0  0  0  0  0  0  0  0  0  0  0  0
  -27.4028  -12.7801   17.8021 H   0  0  0  0  0  0  0  0  0  0  0  0
  -27.7353  -14.2503   19.6136 H   0  0  0  0  0  0  0  0  0  0  0  0
  -28.5890  -11.9550   21.3832 H   0  0  0  0  0  0  0  0  0  0  0  0
  -28.5005  -13.6134   21.8562 H   0  0  0  0  0  0  0  0  0  0  0  0
  -25.2399   -9.5495   22.4318 H   0  0  0  0  0  0  0  0  0  0  0  0
  -23.9663   -7.5070   22.7297 H   0  0  0  0  0  0  0  0  0  0  0  0
  -21.1515   -8.8641   19.9162 H   0  0  0  0  0  0  0  0  0  0  0  0
  -22.4016  -10.9115   19.6476 H   0  0  0  0  0  0  0  0  0  0  0  0
  -21.2319   -7.5552   23.9750 H   0  0  0  0  0  0  0  0  0  0  0  0
  -21.1589   -6.0228   25.8556 H   0  0  0  0  0  0  0  0  0  0  0  0
  -22.0396   -2.8212   23.2809 H   0  0  0  0  0  0  0  0  0  0  0  0
  -22.4401  -11.9703   22.4008 H   0  0  0  0  0  0  0  0  0  0  0  0
  -21.1493  -13.0679   22.2082 H   0  0  0  0  0  0  0  0  0  0  0  0
  -24.6538  -15.7807   20.5848 H   0  0  0  0  0  0  0  0  0  0  0  0
  -26.2762  -15.5453   20.1156 H   0  0  0  0  0  0  0  0  0  0  0  0
  -26.6778  -32.4663   23.1464 H   0  0  0  0  0  0  0  0  0  0  0  0
  -25.0747  -34.0282   25.0566 H   0  0  0  0  0  0  0  0  0  0  0  0
  -22.7881  -31.3489   21.4131 H   0  0  0  0  0  0  0  0  0  0  0  0
  -23.3854  -35.9823   23.3648 H   0  0  0  0  0  0  0  0  0  0  0  0
  -24.3696  -36.8624   22.2204 H   0  0  0  0  0  0  0  0  0  0  0  0
  -23.7669  -37.6632   23.6516 H   0  0  0  0  0  0  0  0  0  0  0  0
  -25.9445  -31.6237   20.5691 H   0  0  0  0  0  0  0  0  0  0  0  0
  -26.7436  -31.0079   22.0108 H   0  0  0  0  0  0  0  0  0  0  0  0
  -28.0090  -29.1452   21.2057 H   0  0  0  0  0  0  0  0  0  0  0  0
  -26.1369  -26.0560   19.0719 H   0  0  0  0  0  0  0  0  0  0  0  0
  -24.0652  -27.2961   19.0997 H   0  0  0  0  0  0  0  0  0  0  0  0
  -23.6156  -30.5365   19.3930 H   0  0  0  0  0  0  0  0  0  0  0  0
  -22.7355  -29.1425   19.9945 H   0  0  0  0  0  0  0  0  0  0  0  0
  -25.1353  -36.2335   25.0565 H   0  0  0  0  0  0  0  0  0  0  0  0
  -21.0070  -28.3206   24.0793 H   0  0  0  0  0  0  0  0  0  0  0  0
  -20.5555  -26.2518   23.3550 H   0  0  0  0  0  0  0  0  0  0  0  0
  -21.5974  -26.8362   22.0454 H   0  0  0  0  0  0  0  0  0  0  0  0
  -19.6810  -25.6422   21.1488 H   0  0  0  0  0  0  0  0  0  0  0  0
  -19.6406  -27.3343   20.7034 H   0  0  0  0  0  0  0  0  0  0  0  0
  -17.4282  -26.6888   21.4113 H   0  0  0  0  0  0  0  0  0  0  0  0
  -18.0803  -26.0130   22.9049 H   0  0  0  0  0  0  0  0  0  0  0  0
  -19.7265  -30.6774   24.2204 H   0  0  0  0  0  0  0  0  0  0  0  0
  -17.5064  -31.5856   24.4483 H   0  0  0  0  0  0  0  0  0  0  0  0
  -15.5878  -30.2839   23.7407 H   0  0  0  0  0  0  0  0  0  0  0  0
  -15.9120  -28.0941   22.7766 H   0  0  0  0  0  0  0  0  0  0  0  0
  -24.5787  -30.7757   25.6817 H   0  0  0  0  0  0  0  0  0  0  0  0
  -25.0041  -32.2289   26.5536 H   0  0  0  0  0  0  0  0  0  0  0  0
  -25.8166  -30.7245   26.9138 H   0  0  0  0  0  0  0  0  0  0  0  0
  -26.2892  -29.7335   24.0803 H   0  0  0  0  0  0  0  0  0  0  0  0
  -27.4336  -29.7484   25.4006 H   0  0  0  0  0  0  0  0  0  0  0  0
  -27.8466  -30.4994   23.8779 H   0  0  0  0  0  0  0  0  0  0  0  0
  -27.2251  -33.3632   26.1242 H   0  0  0  0  0  0  0  0  0  0  0  0
  -28.3902  -32.6065   25.0645 H   0  0  0  0  0  0  0  0  0  0  0  0
  -27.9772  -31.8555   26.5872 H   0  0  0  0  0  0  0  0  0  0  0  0
  -28.2744  -38.0016   24.6863 H   0  0  0  0  0  0  0  0  0  0  0  0
  -28.0396  -36.2711   24.7461 H   0  0  0  0  0  0  0  0  0  0  0  0
  -27.1773  -37.3087   25.8564 H   0  0  0  0  0  0  0  0  0  0  0  0
  -20.9627  -29.9365   21.7352 H   0  0  0  0  0  0  0  0  0  0  0  0
  -26.0447  -38.2561   24.0273 H   0  0  0  0  0  0  0  0  0  0  0  0
  -29.1637  -11.7618   15.5859 H   0  0  0  0  0  0  0  0  0  0  0  0
  -28.7426  -11.1212   18.0663 H   0  0  0  0  0  0  0  0  0  0  0  0
  -26.2406  -10.7919   19.9877 H   0  0  0  0  0  0  0  0  0  0  0  0
  -25.0033  -12.0218   20.0852 H   0  0  0  0  0  0  0  0  0  0  0  0
  -25.8849  -11.5539   21.5194 H   0  0  0  0  0  0  0  0  0  0  0  0
  -30.5436  -12.5906   13.9404 H   0  0  0  0  0  0  0  0  0  0  0  0
  -30.5330  -14.0929   13.0482 H   0  0  0  0  0  0  0  0  0  0  0  0
  -29.0579  -13.4941   13.7683 H   0  0  0  0  0  0  0  0  0  0  0  0
  -32.5138  -13.7162   15.3287 H   0  0  0  0  0  0  0  0  0  0  0  0
  -32.2249  -15.3033   15.9999 H   0  0  0  0  0  0  0  0  0  0  0  0
  -32.2629  -15.0813   14.2672 H   0  0  0  0  0  0  0  0  0  0  0  0
  -28.7111  -15.6560   14.9965 H   0  0  0  0  0  0  0  0  0  0  0  0
  -30.0997  -16.1864   14.0781 H   0  0  0  0  0  0  0  0  0  0  0  0
  -30.0616  -16.4085   15.8108 H   0  0  0  0  0  0  0  0  0  0  0  0
  -28.4506  -12.3335   21.6704 H   0  0  0  0  0  0  0  0  0  0  0  0
  -28.4673  -11.2701   20.2296 H   0  0  0  0  0  0  0  0  0  0  0  0
  -30.4877  -12.5898   20.3938 H   0  0  0  0  0  0  0  0  0  0  0  0
  -29.4792  -14.0552   20.3130 H   0  0  0  0  0  0  0  0  0  0  0  0
  -26.9232  -13.9230   21.8496 H   0  0  0  0  0  0  0  0  0  0  0  0
  -25.7013  -14.1630   20.2767 H   0  0  0  0  0  0  0  0  0  0  0  0
  -27.0536  -12.9908   19.1203 H   0  0  0  0  0  0  0  0  0  0  0  0
  -30.9917  -16.0444   17.8306 H   0  0  0  0  0  0  0  0  0  0  0  0
  1 25  1  0
  1 30  2  0
  1 85  1  0
  2  3  1  0
  2 25  1  0
  2 86  1  0
  2 87  1  0
  3  4  1  0
  3 88  1  0
  3 89  1  0
  4  5  1  0
  4 90  1  0
  4 91  1  0
  5  6  1  0
  5 26  1  0
  5 92  1  6
  6 25  1  0
  6 93  1  0
  6 94  1  0
  7  8  2  0
  7 26  1  0
  7 29  1  0
  8  9  1  0
  8 22  1  0
  9 10  1  0
  9 27  2  0
 10 11  2  0
 10 15  1  0
 11 12  1  0
 11 95  1  0
 12 13  2  0
 12 96  1  0
 13 14  1  0
 13 31  1  0
 14 15  2  0
 14 97  1  0
 15 98  1  0
 16 17  2  0
 16 21  1  0
 16 31  1  0
 17 18  1  0
 17 99  1  0
 18 19  2  0
 18100  1  0
 19 20  1  0
 19 24  1  0
 20 21  2  0
 20101  1  0
 21 23  1  0
 22 28  1  0
 22 32  2  0
 26 27  1  0
 28102  1  0
 28103  1  0
 29104  1  0
 29105  1  0
 33 34  1  0
 33 66  1  0
 33 70  2  0
 34 36  1  0
 34 59  1  0
 34106  1  6
 35 44  2  0
 35 45  1  0
 35 68  1  0
 36 56  1  0
 36107  1  0
 37 39  1  0
 37 47  1  0
 37 66  1  0
 37108  1  6
 38 43  2  0
 38 46  1  0
 38 47  1  0
 39 64  1  0
 39 67  2  0
 40 52  1  0
 40 53  2  0
 40 58  1  0
 41109  1  0
 41110  1  0
 41111  1  0
 42 43  1  0
 42 66  1  0
 42112  1  0
 42113  1  0
 43 44  1  0
 44114  1  0
 45 46  2  0
 45115  1  0
 46116  1  0
 47117  1  0
 47118  1  0
 48 41  1  0
 48 56  1  0
 48 65  1  0
 48119  1  1
 49 50  1  0
 49 53  1  0
 49 64  1  0
 49120  1  1
 50 51  1  0
 50121  1  0
 50122  1  0
 51 52  1  0
 51123  1  0
 51124  1  0
 52125  1  0
 52126  1  0
 53 54  1  0
 54 55  2  0
 54127  1  0
 55 57  1  0
 55128  1  0
 56 69  2  0
 57 58  2  0
 57129  1  0
 58130  1  0
 59 60  1  0
 59 61  1  0
 59 62  1  0
 60131  1  0
 60132  1  0
 60133  1  0
 61134  1  0
 61135  1  0
 61136  1  0
 62137  1  0
 62138  1  0
 62139  1  0
 63 65  1  0
 63140  1  0
 63141  1  0
 63142  1  0
 64143  1  0
 65144  1  0
 68 81  1  0
 71 72  2  0
 71 73  1  0
 71145  1  0
 72 84  1  0
 72146  1  0
 73 74  2  0
 73 83  1  0
 74 84  1  0
 74 85  1  0
 75147  1  0
 75148  1  0
 75149  1  0
 76150  1  0
 76151  1  0
 76152  1  0
 77 83  1  0
 77153  1  0
 77154  1  0
 77155  1  0
 78 83  1  0
 78156  1  0
 78157  1  0
 78158  1  0
 79 80  1  0
 79 82  1  0
 79159  1  0
 79160  1  0
 80 84  1  0
 80161  1  0
 80162  1  0
 81 82  1  0
 81163  1  0
 81164  1  0
 82 75  1  0
 82165  1  6
 83 76  1  0
 85166  1  0
M  ISO  4   1 100  68 101  81 101  85 100
M  END
$$$$
99
     RDKit          3D

168176  0  0  0  0  0  0  0  0999 V2000
  -30.7652  -14.3608   20.6636 C   0  0  0  0  0  0  0  0  0100  0  0
  -30.4392  -12.2669   19.3775 C   0  0  0  0  0  0  0  0  0101  0  0
  -29.4791  -12.5281   18.1977 C   0  0  0  0  0  0  0  0  0102  0  0
  -27.9985  -12.3963   18.6038 C   0  0  0  0  0  0  0  0  0103  0  0
  -27.6639  -13.2170   19.8820 C   0  0  2  0  0  0  0  0  0104  0  0
  -28.6795  -12.9602   21.0279 C   0  0  0  0  0  0  0  0  0105  0  0
  -25.2633  -13.8245   20.5754 C   0  0  0  0  0  0  0  0  0106  0  0
  -24.1645  -13.0409   20.9408 C   0  0  0  0  0  0  0  0  0107  0  0
  -24.6400  -11.7009   20.8697 C   0  0  0  0  0  0  0  0  0108  0  0
  -23.9005  -10.4085   21.0420 C   0  0  0  0  0  0  0  0  0109  0  0
  -24.3588   -9.4123   21.9123 C   0  0  0  0  0  0  0  0  0110  0  0
  -23.6296   -8.2350   22.0803 C   0  0  0  0  0  0  0  0  0111  0  0
  -22.4385   -8.0419   21.3657 C   0  0  0  0  0  0  0  0  0112  0  0
  -22.0103   -9.0167   20.4678 C   0  0  0  0  0  0  0  0  0113  0  0
  -22.7317  -10.1925   20.3102 C   0  0  0  0  0  0  0  0  0114  0  0
  -21.6857   -6.0709   22.5391 C   0  0  0  0  0  0  0  0  0115  0  0
  -21.4064   -6.5490   23.8264 C   0  0  0  0  0  0  0  0  0116  0  0
  -21.3635   -5.6677   24.9085 C   0  0  0  0  0  0  0  0  0117  0  0
  -21.5973   -4.3067   24.7088 C   0  0  0  0  0  0  0  0  0118  0  0
  -21.8700   -3.8284   23.4282 C   0  0  0  0  0  0  0  0  0119  0  0
  -21.9144   -4.7056   22.3460 C   0  0  0  0  0  0  0  0  0120  0  0
  -22.8194  -13.5263   21.1763 C   0  0  0  0  0  0  0  0  0121  0  0
  -22.1559   -4.2206   21.1063 F   0  0  0  0  0  0  0  0  0122  0  0
  -21.5628   -3.4510   25.7555 F   0  0  0  0  0  0  0  0  0123  0  0
  -30.0261  -13.1803   20.4553 N   0  0  0  0  0  0  0  0  0124  0  0
  -26.2911  -12.9356   20.3443 N   0  0  0  0  0  0  0  0  0125  0  0
  -25.9236  -11.6675   20.5847 N   0  0  0  0  0  0  0  0  0126  0  0
  -22.0708  -12.7905   22.0005 N   0  0  0  0  0  0  0  0  0127  0  0
  -25.4117  -15.1773   20.4097 N   0  0  0  0  0  0  0  0  0128  0  0
  -31.7916  -14.6724   20.0536 O   0  0  0  0  0  0  0  0  0129  0  0
  -21.6670   -6.9022   21.4423 O   0  0  0  0  0  0  0  0  0130  0  0
  -22.3946  -14.5564   20.6568 O   0  0  0  0  0  0  0  0  0131  0  0
  -24.6048  -31.8614   23.2223 C   0  0  0  0  0  0  0  0  0100  0  0
  -25.8822  -32.4841   23.8616 C   0  0  1  0  0  0  0  0  0101  0  0
  -27.2536  -27.5042   20.1156 C   0  0  0  0  0  0  0  0  0102  0  0
  -25.5726  -33.8762   24.2210 N   0  0  0  0  0  0  0  0  0103  0  0
  -23.4066  -30.4859   21.5461 C   0  0  2  0  0  0  0  0  0104  0  0
  -24.8467  -28.9636   20.1247 C   0  0  0  0  0  0  0  0  0105  0  0
  -22.7412  -29.4652   22.5052 C   0  0  0  0  0  0  0  0  0106  0  0
  -18.0167  -28.1302   22.8626 C   0  0  0  0  0  0  0  0  0107  0  0
  -24.1342  -36.7390   23.2568 C   0  0  0  0  0  0  0  0  0108  0  0
  -25.9141  -30.8882   21.3456 C   0  0  0  0  0  0  0  0  0109  0  0
  -25.9930  -29.5029   20.7208 C   0  0  0  0  0  0  0  0  0110  0  0
  -27.1758  -28.7612   20.7331 C   0  0  0  0  0  0  0  0  0111  0  0
  -26.1032  -26.9836   19.5230 C   0  0  0  0  0  0  0  0  0112  0  0
  -24.9097  -27.7011   19.5331 C   0  0  0  0  0  0  0  0  0113  0  0
  -23.5715  -29.7899   20.1582 C   0  0  0  0  0  0  0  0  0114  0  0
  -25.3990  -36.3212   24.0232 C   0  0  1  0  0  0  0  0  0115  0  0
  -20.5793  -28.3813   23.1004 C   0  0  2  0  0  0  0  0  0116  0  0
  -20.6548  -26.9392   22.5411 C   0  0  0  0  0  0  0  0  0117  0  0
  -19.5615  -26.6407   21.5143 C   0  0  0  0  0  0  0  0  0118  0  0
  -18.1797  -26.7818   22.1673 C   0  0  0  0  0  0  0  0  0119  0  0
  -19.1385  -28.8769   23.2988 C   0  0  0  0  0  0  0  0  0120  0  0
  -18.9183  -30.1286   23.8878 C   0  0  0  0  0  0  0  0  0121  0  0
  -17.6396  -30.6493   24.0352 C   0  0  0  0  0  0  0  0  0122  0  0
  -25.9153  -34.9582   23.4993 C   0  0  0  0  0  0  0  0  0123  0  0
  -16.5415  -29.9068   23.6254 C   0  0  0  0  0  0  0  0  0124  0  0
  -16.7331  -28.6521   23.0586 C   0  0  0  0  0  0  0  0  0125  0  0
  -26.4583  -31.6439   25.0683 C   0  0  0  0  0  0  0  0  0126  0  0
  -25.3807  -31.3179   26.1374 C   0  0  0  0  0  0  0  0  0127  0  0
  -27.0530  -30.3024   24.5680 C   0  0  0  0  0  0  0  0  0128  0  0
  -27.6014  -32.4281   25.7651 C   0  0  0  0  0  0  0  0  0129  0  0
  -27.5629  -37.2220   24.8621 C   0  0  0  0  0  0  0  0  0130  0  0
  -21.4133  -29.3375   22.3735 N   0  0  0  0  0  0  0  0  0131  0  0
  -26.4706  -37.3372   23.9061 N   0  0  0  0  0  0  0  0  0132  0  0
  -24.6674  -31.0544   22.1178 N   0  0  0  0  0  0  0  0  0133  0  0
  -23.4259  -28.8150   23.2971 O   0  0  0  0  0  0  0  0  0134  0  0
  -28.3948  -26.7345   20.0089 O   0  0  0  0  0  0  0  0  0135  0  0
  -26.5870  -34.9065   22.4671 O   0  0  0  0  0  0  0  0  0136  0  0
  -23.5365  -32.1254   23.7833 O   0  0  0  0  0  0  0  0  0137  0  0
  -18.9394  -27.0265   21.3162 C   0  0  0  0  0  0  0  0  0  0  0  0
  -19.7268  -27.4087   22.3797 C   0  0  0  0  0  0  0  0  0  0  0  0
  -19.9874  -26.2495   23.1513 C   0  0  0  0  0  0  0  0  0  0  0  0
  -19.3514  -25.1941   22.5357 C   0  0  0  0  0  0  0  0  0  0  0  0
  -19.2900  -23.7644   22.9099 C   0  0  0  0  0  0  0  0  0  0  0  0
  -16.4537  -25.3366   20.4786 C   0  0  0  0  0  0  0  0  0  0  0  0
  -20.5024  -25.2289   25.3692 C   0  0  0  0  0  0  0  0  0  0  0  0
  -20.2033  -28.7801   22.6515 C   0  0  0  0  0  0  0  0  0  0  0  0
  -20.2854  -23.9328   17.6102 C   0  0  0  0  0  0  0  0  0  0  0  0
  -18.4856  -24.9004   19.0467 C   0  0  0  0  0  0  0  0  0  0  0  0
  -21.5305  -23.0702   17.6703 C   0  0  0  0  0  0  0  0  0  1  0  0
  -17.9188  -24.8888   20.4725 C   0  0  1  0  0  0  0  0  0  0  0  0
  -18.7178  -25.6781   21.4211 N   0  0  0  0  0  0  0  0  0  0  0  0
  -20.7227  -26.1841   24.2825 N   0  0  0  0  0  0  0  0  0  0  0  0
  -21.6000  -28.9647   22.3260 N   0  0  0  0  0  0  0  0  0  0  0  0
  -19.7032  -24.0485   18.9711 N   0  0  0  0  0  0  0  0  0  0  0  0
  -31.4485  -12.4701   19.0860 H   0  0  0  0  0  0  0  0  0  0  0  0
  -30.3970  -11.2460   19.6950 H   0  0  0  0  0  0  0  0  0  0  0  0
  -29.6870  -11.8204   17.4226 H   0  0  0  0  0  0  0  0  0  0  0  0
  -29.6375  -13.5326   17.8649 H   0  0  0  0  0  0  0  0  0  0  0  0
  -27.7830  -11.3650   18.7904 H   0  0  0  0  0  0  0  0  0  0  0  0
  -27.4028  -12.7801   17.8021 H   0  0  0  0  0  0  0  0  0  0  0  0
  -27.7353  -14.2503   19.6136 H   0  0  0  0  0  0  0  0  0  0  0  0
  -28.5890  -11.9550   21.3832 H   0  0  0  0  0  0  0  0  0  0  0  0
  -28.5005  -13.6134   21.8562 H   0  0  0  0  0  0  0  0  0  0  0  0
  -25.2399   -9.5495   22.4318 H   0  0  0  0  0  0  0  0  0  0  0  0
  -23.9663   -7.5070   22.7297 H   0  0  0  0  0  0  0  0  0  0  0  0
  -21.1515   -8.8641   19.9162 H   0  0  0  0  0  0  0  0  0  0  0  0
  -22.4016  -10.9115   19.6476 H   0  0  0  0  0  0  0  0  0  0  0  0
  -21.2319   -7.5552   23.9750 H   0  0  0  0  0  0  0  0  0  0  0  0
  -21.1589   -6.0228   25.8556 H   0  0  0  0  0  0  0  0  0  0  0  0
  -22.0396   -2.8212   23.2809 H   0  0  0  0  0  0  0  0  0  0  0  0
  -22.4401  -11.9703   22.4008 H   0  0  0  0  0  0  0  0  0  0  0  0
  -21.1493  -13.0679   22.2082 H   0  0  0  0  0  0  0  0  0  0  0  0
  -24.6538  -15.7807   20.5848 H   0  0  0  0  0  0  0  0  0  0  0  0
  -26.2762  -15.5453   20.1156 H   0  0  0  0  0  0  0  0  0  0  0  0
  -26.6778  -32.4663   23.1464 H   0  0  0  0  0  0  0  0  0  0  0  0
  -25.0747  -34.0282   25.0566 H   0  0  0  0  0  0  0  0  0  0  0  0
  -22.7881  -31.3489   21.4131 H   0  0  0  0  0  0  0  0  0  0  0  0
  -23.3854  -35.9823   23.3648 H   0  0  0  0  0  0  0  0  0  0  0  0
  -24.3696  -36.8624   22.2204 H   0  0  0  0  0  0  0  0  0  0  0  0
  -23.7669  -37.6632   23.6516 H   0  0  0  0  0  0  0  0  0  0  0  0
  -25.9445  -31.6237   20.5691 H   0  0  0  0  0  0  0  0  0  0  0  0
  -26.7436  -31.0079   22.0108 H   0  0  0  0  0  0  0  0  0  0  0  0
  -28.0090  -29.1452   21.2057 H   0  0  0  0  0  0  0  0  0  0  0  0
  -26.1369  -26.0560   19.0719 H   0  0  0  0  0  0  0  0  0  0  0  0
  -24.0652  -27.2961   19.0997 H   0  0  0  0  0  0  0  0  0  0  0  0
  -23.6156  -30.5365   19.3930 H   0  0  0  0  0  0  0  0  0  0  0  0
  -22.7355  -29.1425   19.9945 H   0  0  0  0  0  0  0  0  0  0  0  0
  -25.1353  -36.2335   25.0565 H   0  0  0  0  0  0  0  0  0  0  0  0
  -21.0070  -28.3206   24.0793 H   0  0  0  0  0  0  0  0  0  0  0  0
  -20.5555  -26.2518   23.3550 H   0  0  0  0  0  0  0  0  0  0  0  0
  -21.5974  -26.8362   22.0454 H   0  0  0  0  0  0  0  0  0  0  0  0
  -19.6810  -25.6422   21.1488 H   0  0  0  0  0  0  0  0  0  0  0  0
  -19.6406  -27.3343   20.7034 H   0  0  0  0  0  0  0  0  0  0  0  0
  -17.4282  -26.6888   21.4113 H   0  0  0  0  0  0  0  0  0  0  0  0
  -18.0803  -26.0130   22.9049 H   0  0  0  0  0  0  0  0  0  0  0  0
  -19.7265  -30.6774   24.2204 H   0  0  0  0  0  0  0  0  0  0  0  0
  -17.5064  -31.5856   24.4483 H   0  0  0  0  0  0  0  0  0  0  0  0
  -15.5878  -30.2839   23.7407 H   0  0  0  0  0  0  0  0  0  0  0  0
  -15.9120  -28.0941   22.7766 H   0  0  0  0  0  0  0  0  0  0  0  0
  -24.5787  -30.7757   25.6817 H   0  0  0  0  0  0  0  0  0  0  0  0
  -25.0041  -32.2289   26.5536 H   0  0  0  0  0  0  0  0  0  0  0  0
  -25.8166  -30.7245   26.9138 H   0  0  0  0  0  0  0  0  0  0  0  0
  -26.2892  -29.7335   24.0803 H   0  0  0  0  0  0  0  0  0  0  0  0
  -27.4336  -29.7484   25.4006 H   0  0  0  0  0  0  0  0  0  0  0  0
  -27.8466  -30.4994   23.8779 H   0  0  0  0  0  0  0  0  0  0  0  0
  -27.2251  -33.3632   26.1242 H   0  0  0  0  0  0  0  0  0  0  0  0
  -28.3902  -32.6065   25.0645 H   0  0  0  0  0  0  0  0  0  0  0  0
  -27.9772  -31.8555   26.5872 H   0  0  0  0  0  0  0  0  0  0  0  0
  -28.2744  -38.0016   24.6863 H   0  0  0  0  0  0  0  0  0  0  0  0
  -28.0396  -36.2711   24.7461 H   0  0  0  0  0  0  0  0  0  0  0  0
  -27.1773  -37.3087   25.8564 H   0  0  0  0  0  0  0  0  0  0  0  0
  -20.9627  -29.9365   21.7352 H   0  0  0  0  0  0  0  0  0  0  0  0
  -26.0447  -38.2561   24.0273 H   0  0  0  0  0  0  0  0  0  0  0  0
  -18.5802  -27.6454   20.5726 H   0  0  0  0  0  0  0  0  0  0  0  0
  -19.8504  -23.6063   23.8076 H   0  0  0  0  0  0  0  0  0  0  0  0
  -19.7044  -23.1713   22.1216 H   0  0  0  0  0  0  0  0  0  0  0  0
  -18.2708  -23.4814   23.0712 H   0  0  0  0  0  0  0  0  0  0  0  0
  -15.8974  -24.7464   19.7807 H   0  0  0  0  0  0  0  0  0  0  0  0
  -16.3948  -26.3680   20.2001 H   0  0  0  0  0  0  0  0  0  0  0  0
  -16.0456  -25.2082   21.4593 H   0  0  0  0  0  0  0  0  0  0  0  0
  -21.2237  -25.3951   26.1419 H   0  0  0  0  0  0  0  0  0  0  0  0
  -20.6049  -24.2321   24.9941 H   0  0  0  0  0  0  0  0  0  0  0  0
  -19.5176  -25.3611   25.7661 H   0  0  0  0  0  0  0  0  0  0  0  0
  -20.0643  -28.9901   23.6914 H   0  0  0  0  0  0  0  0  0  0  0  0
  -19.6384  -29.4452   22.0323 H   0  0  0  0  0  0  0  0  0  0  0  0
  -19.5707  -23.4837   16.9526 H   0  0  0  0  0  0  0  0  0  0  0  0
  -20.5404  -24.9058   17.2452 H   0  0  0  0  0  0  0  0  0  0  0  0
  -18.7389  -25.9039   18.7751 H   0  0  0  0  0  0  0  0  0  0  0  0
  -17.7476  -24.5153   18.3744 H   0  0  0  0  0  0  0  0  0  0  0  0
  -21.6943  -22.6685   16.6922 H   0  0  0  0  0  0  0  0  0  0  0  0
  -21.3303  -22.3392   18.4256 H   0  0  0  0  0  0  0  0  0  0  0  0
  -17.9714  -23.8753   20.8116 H   0  0  0  0  0  0  0  0  0  0  0  0
  -21.4617  -26.8267   24.3834 H   0  0  0  0  0  0  0  0  0  0  0  0
  -22.0010  -29.8560   22.2074 H   0  0  0  0  0  0  0  0  0  0  0  0
  -20.4107  -24.4473   19.5882 H   0  0  0  0  0  0  0  0  0  0  0  0
  -19.4194  -23.1087   19.2479 H   0  0  0  0  0  0  0  0  0  0  0  0
  1 25  1  0
  1 30  2  0
  1 85  1  0
  2  3  1  0
  2 25  1  0
  2 87  1  0
  2 88  1  0
  3  4  1  0
  3 89  1  0
  3 90  1  0
  4  5  1  0
  4 91  1  0
  4 92  1  0
  5  6  1  0
  5 26  1  0
  5 93  1  6
  6 25  1  0
  6 94  1  0
  6 95  1  0
  7  8  2  0
  7 26  1  0
  7 29  1  0
  8  9  1  0
  8 22  1  0
  9 10  1  0
  9 27  2  0
 10 11  2  0
 10 15  1  0
 11 12  1  0
 11 96  1  0
 12 13  2  0
 12 97  1  0
 13 14  1  0
 13 31  1  0
 14 15  2  0
 14 98  1  0
 15 99  1  0
 16 17  2  0
 16 21  1  0
 16 31  1  0
 17 18  1  0
 17100  1  0
 18 19  2  0
 18101  1  0
 19 20  1  0
 19 24  1  0
 20 21  2  0
 20102  1  0
 21 23  1  0
 22 28  1  0
 22 32  2  0
 26 27  1  0
 28103  1  0
 28104  1  0
 29105  1  0
 29106  1  0
 33 34  1  0
 33 66  1  0
 33 70  2  0
 34 36  1  0
 34 59  1  0
 34107  1  6
 35 44  2  0
 35 45  1  0
 35 68  1  0
 36 56  1  0
 36108  1  0
 37 39  1  0
 37 47  1  0
 37 66  1  0
 37109  1  6
 38 43  2  0
 38 46  1  0
 38 47  1  0
 39 64  1  0
 39 67  2  0
 40 52  1  0
 40 53  2  0
 40 58  1  0
 41110  1  0
 41111  1  0
 41112  1  0
 42 43  1  0
 42 66  1  0
 42113  1  0
 42114  1  0
 43 44  1  0
 44115  1  0
 45 46  2  0
 45116  1  0
 46117  1  0
 47118  1  0
 47119  1  0
 48 41  1  0
 48 56  1  0
 48 65  1  0
 48120  1  1
 49 50  1  0
 49 53  1  0
 49 64  1  0
 49121  1  1
 50 51  1  0
 50122  1  0
 50123  1  0
 51 52  1  0
 51124  1  0
 51125  1  0
 52126  1  0
 52127  1  0
 53 54  1  0
 54 55  2  0
 54128  1  0
 55 57  1  0
 55129  1  0
 56 69  2  0
 57 58  2  0
 57130  1  0
 58131  1  0
 59 60  1  0
 59 61  1  0
 59 62  1  0
 60132  1  0
 60133  1  0
 60134  1  0
 61135  1  0
 61136  1  0
 61137  1  0
 62138  1  0
 62139  1  0
 62140  1  0
 63 65  1  0
 63141  1  0
 63142  1  0
 63143  1  0
 64144  1  0
 65145  1  0
 68 81  1  0
 71 72  2  0
 71 83  1  0
 71146  1  0
 72 73  1  0
 72 78  1  0
 73 74  2  0
 73 84  1  0
 74 75  1  0
 74 83  1  0
 75147  1  0
 75148  1  0
 75149  1  0
 76150  1  0
 76151  1  0
 76152  1  0
 77 84  1  0
 77153  1  0
 77154  1  0
 77155  1  0
 78 85  1  0
 78156  1  0
 78157  1  0
 79 81  1  0
 79 86  1  0
 79158  1  0
 79159  1  0
 80 82  1  0
 80 86  1  0
 80160  1  0
 80161  1  0
 81162  1  0
 81163  1  0
 82 76  1  0
 82 83  1  0
 82164  1  1
 84165  1  0
 85166  1  0
 86167  1  0
 86168  1  0
M  CHG  1  86   1
M  ISO  4   1 100  68 101  81 101  85 100
M  END
$$$$
