0
                    3D
 Structure written by MMmdl.
159168  0  0  1  0            999 V2000
  -30.6640  -14.6719   20.4755 C   0  0  0  0  0  0
  -30.4258  -12.4098   19.4663 C   0  0  0  0  0  0
  -29.5065  -12.4980   18.2298 C   0  0  0  0  0  0
  -28.0307  -12.3396   18.6437 C   0  0  0  0  0  0
  -27.6475  -13.2288   19.8579 C   0  0  2  0  0  0
  -28.6947  -13.1369   20.9898 C   0  0  0  0  0  0
  -25.2553  -13.8194   20.5713 C   0  0  0  0  0  0
  -24.1826  -13.0449   20.9203 C   0  0  0  0  0  0
  -24.6403  -11.6923   20.8749 C   0  0  0  0  0  0
  -23.9073  -10.4299   21.0406 C   0  0  0  0  0  0
  -24.3622   -9.4215   21.9186 C   0  0  0  0  0  0
  -23.6303   -8.2248   22.0753 C   0  0  0  0  0  0
  -22.4287   -8.0282   21.3537 C   0  0  0  0  0  0
  -21.9919   -9.0258   20.4644 C   0  0  0  0  0  0
  -22.7242  -10.2140   20.3052 C   0  0  0  0  0  0
  -21.6851   -6.0743   22.5280 C   0  0  0  0  0  0
  -21.4008   -6.5644   23.8214 C   0  0  0  0  0  0
  -21.3664   -5.6796   24.9179 C   0  0  0  0  0  0
  -21.6048   -4.3061   24.7220 C   0  0  0  0  0  0
  -21.8820   -3.8150   23.4342 C   0  0  0  0  0  0
  -21.9191   -4.6968   22.3401 C   0  0  0  0  0  0
  -22.7849  -13.5243   21.1845 C   0  0  0  0  0  0
  -22.1663   -4.2156   21.0977 F   0  0  0  0  0  0
  -21.5633   -3.4543   25.7733 F   0  0  0  0  0  0
  -29.9993  -13.4706   20.4056 N   0  0  0  0  0  0
  -26.2980  -12.9395   20.3340 N   0  0  0  0  0  0
  -25.9340  -11.6539   20.5785 N   0  0  0  0  0  0
  -22.0474  -12.8246   22.0394 N   0  0  0  0  0  0
  -25.4282  -15.1910   20.4122 N   0  0  0  0  0  0
  -31.8510  -14.7303   20.1398 O   0  0  0  0  0  0
  -21.6645   -6.8881   21.4242 O   0  0  0  0  0  0
  -22.3549  -14.5554   20.6693 O   0  0  0  0  0  0
  -24.6298  -31.8586   23.2045 C   0  0  0  0  0  0
  -25.9139  -32.4771   23.8368 C   0  0  1  0  0  0
  -27.2088  -27.2889   20.1093 C   0  0  0  0  0  0
  -25.5948  -33.8576   24.2286 N   0  0  0  0  0  0
  -23.4233  -30.4859   21.5492 C   0  0  2  0  0  0
  -24.8664  -28.9470   20.1092 C   0  0  0  0  0  0
  -22.7498  -29.4614   22.4945 C   0  0  0  0  0  0
  -18.0288  -28.1385   22.8485 C   0  0  0  0  0  0
  -24.1489  -36.7284   23.2635 C   0  0  0  0  0  0
  -25.9697  -30.7785   21.3832 C   0  0  0  0  0  0
  -26.0400  -29.4063   20.7204 C   0  0  0  0  0  0
  -27.2136  -28.5873   20.7165 C   0  0  0  0  0  0
  -26.0128  -26.9110   19.4490 C   0  0  0  0  0  0
  -24.8560  -27.7048   19.4661 C   0  0  0  0  0  0
  -23.6380  -29.8300   20.1625 C   0  0  0  0  0  0
  -25.4114  -36.3078   24.0328 C   0  0  1  0  0  0
  -20.5893  -28.3688   23.1278 C   0  0  2  0  0  0
  -20.6779  -26.9410   22.5407 C   0  0  0  0  0  0
  -19.5753  -26.6380   21.5212 C   0  0  0  0  0  0
  -18.1931  -26.7929   22.1619 C   0  0  0  0  0  0
  -19.1541  -28.8853   23.2875 C   0  0  0  0  0  0
  -18.9463  -30.1458   23.8888 C   0  0  0  0  0  0
  -17.6462  -30.6588   24.0555 C   0  0  0  0  0  0
  -25.9056  -34.9446   23.5103 C   0  0  0  0  0  0
  -16.5352  -29.9080   23.6335 C   0  0  0  0  0  0
  -16.7274  -28.6497   23.0354 C   0  0  0  0  0  0
  -26.4512  -31.6586   25.0744 C   0  0  0  0  0  0
  -25.3748  -31.3723   26.1472 C   0  0  0  0  0  0
  -27.0359  -30.3008   24.6212 C   0  0  0  0  0  0
  -27.6072  -32.4322   25.7519 C   0  0  0  0  0  0
  -27.5585  -37.1791   24.8458 C   0  0  0  0  0  0
  -21.4209  -29.3040   22.3684 N   0  0  0  0  0  0
  -26.4285  -37.3780   23.9420 N   0  0  0  0  0  0
  -24.6933  -31.0574   22.1020 N   0  0  0  0  0  0
  -23.4212  -28.8138   23.3017 O   0  0  0  0  0  0
  -28.2883  -26.3788   20.1910 O   0  0  0  0  0  0
  -26.5613  -34.8913   22.4662 O   0  0  0  0  0  0
  -23.5454  -32.1399   23.7352 O   0  0  0  0  0  0
  -28.7012  -22.3230   20.1216 C   0  0  0  0  0  0
  -28.8754  -23.7490   20.3672 C   0  0  0  0  0  0
  -29.6935  -21.6557   20.8166 C   0  0  0  0  0  0
  -29.5474  -17.9708   21.8590 C   0  0  0  0  0  0
  -30.3935  -18.2543   19.5823 C   0  0  0  0  0  0
  -29.1772  -16.4652   21.5528 C   0  0  0  0  0  0
  -29.9726  -16.7736   19.2708 C   0  0  0  0  0  0
  -29.5449  -18.9795   20.6616 C   0  0  0  0  0  0
  -31.5655  -22.5811   22.2938 C   0  0  0  0  0  0
  -27.9795  -24.9448   19.8927 C   0  0  0  0  0  0
  -29.9267  -23.9326   21.1519 N   0  0  0  0  0  0
  -30.4111  -22.6867   21.4204 N   0  0  0  0  0  0
  -29.9131  -15.8384   20.4284 N   0  0  0  0  0  0
  -30.1292  -20.3037   21.0543 N   0  0  0  0  0  0
  -31.4701  -12.5084   19.1639 H   0  0  0  0  0  0
  -30.3460  -11.4297   19.9391 H   0  0  0  0  0  0
  -29.7760  -11.7308   17.5023 H   0  0  0  0  0  0
  -29.6485  -13.4571   17.7289 H   0  0  0  0  0  0
  -27.8739  -11.2893   18.8939 H   0  0  0  0  0  0
  -27.3760  -12.5512   17.7980 H   0  0  0  0  0  0
  -27.6503  -14.2564   19.4941 H   0  0  0  0  0  0
  -28.7179  -12.1349   21.4192 H   0  0  0  0  0  0
  -28.4411  -13.8111   21.8073 H   0  0  0  0  0  0
  -25.2755   -9.5708   22.4780 H   0  0  0  0  0  0
  -24.0011   -7.4642   22.7479 H   0  0  0  0  0  0
  -21.0844   -8.8777   19.8954 H   0  0  0  0  0  0
  -22.3690  -10.9688   19.6172 H   0  0  0  0  0  0
  -21.1996   -7.6149   23.9724 H   0  0  0  0  0  0
  -21.1490   -6.0522   25.9087 H   0  0  0  0  0  0
  -22.0594   -2.7610   23.2835 H   0  0  0  0  0  0
  -22.4071  -11.9904   22.4794 H   0  0  0  0  0  0
  -21.1099  -13.1297   22.2575 H   0  0  0  0  0  0
  -24.6671  -15.8515   20.5237 H   0  0  0  0  0  0
  -26.2880  -15.6245   20.1011 H   0  0  0  0  0  0
  -26.7203  -32.5428   23.1108 H   0  0  0  0  0  0
  -25.0115  -33.9718   25.0446 H   0  0  0  0  0  0
  -22.7182  -31.3079   21.4102 H   0  0  0  0  0  0
  -23.3763  -35.9603   23.3272 H   0  0  0  0  0  0
  -24.3595  -36.8928   22.2056 H   0  0  0  0  0  0
  -23.7221  -37.6470   23.6673 H   0  0  0  0  0  0
  -26.1072  -31.5421   20.6161 H   0  0  0  0  0  0
  -26.8489  -30.8239   22.0148 H   0  0  0  0  0  0
  -28.1079  -28.9281   21.2198 H   0  0  0  0  0  0
  -25.9182  -25.9757   18.9193 H   0  0  0  0  0  0
  -23.9588  -27.3494   18.9773 H   0  0  0  0  0  0
  -23.7624  -30.6102   19.4108 H   0  0  0  0  0  0
  -22.7559  -29.2644   19.8556 H   0  0  0  0  0  0
  -25.1290  -36.1923   25.0819 H   0  0  0  0  0  0
  -20.9971  -28.3250   24.1404 H   0  0  0  0  0  0
  -20.5682  -26.2293   23.3607 H   0  0  0  0  0  0
  -21.6645  -26.7444   22.1191 H   0  0  0  0  0  0
  -19.6911  -25.6289   21.1243 H   0  0  0  0  0  0
  -19.6690  -27.3187   20.6738 H   0  0  0  0  0  0
  -17.4205  -26.6679   21.4016 H   0  0  0  0  0  0
  -18.0324  -26.0072   22.9012 H   0  0  0  0  0  0
  -19.7940  -30.7277   24.2246 H   0  0  0  0  0  0
  -17.5017  -31.6270   24.5152 H   0  0  0  0  0  0
  -15.5351  -30.2973   23.7675 H   0  0  0  0  0  0
  -15.8676  -28.0814   22.7075 H   0  0  0  0  0  0
  -24.5919  -30.7077   25.7798 H   0  0  0  0  0  0
  -24.8947  -32.2886   26.4913 H   0  0  0  0  0  0
  -25.8074  -30.8888   27.0240 H   0  0  0  0  0  0
  -26.2938  -29.6756   24.1231 H   0  0  0  0  0  0
  -27.4044  -29.7266   25.4722 H   0  0  0  0  0  0
  -27.8817  -30.4287   23.9455 H   0  0  0  0  0  0
  -27.2685  -33.3625   26.2091 H   0  0  0  0  0  0
  -28.3892  -32.6874   25.0357 H   0  0  0  0  0  0
  -28.0732  -31.8450   26.5442 H   0  0  0  0  0  0
  -28.2569  -38.0121   24.7557 H   0  0  0  0  0  0
  -28.1114  -36.2656   24.6218 H   0  0  0  0  0  0
  -27.2314  -37.1352   25.8861 H   0  0  0  0  0  0
  -20.9396  -29.8786   21.6914 H   0  0  0  0  0  0
  -26.0159  -38.2846   24.1458 H   0  0  0  0  0  0
  -27.9292  -21.8618   19.5230 H   0  0  0  0  0  0
  -30.5397  -17.9729   22.3117 H   0  0  0  0  0  0
  -28.8768  -18.3403   22.6361 H   0  0  0  0  0  0
  -30.3623  -18.8322   18.6576 H   0  0  0  0  0  0
  -31.4403  -18.2474   19.8902 H   0  0  0  0  0  0
  -28.1118  -16.3958   21.3310 H   0  0  0  0  0  0
  -29.3329  -15.8780   22.4590 H   0  0  0  0  0  0
  -30.6357  -16.3755   18.4999 H   0  0  0  0  0  0
  -28.9820  -16.7800   18.8141 H   0  0  0  0  0  0
  -28.5242  -19.1208   20.2998 H   0  0  0  0  0  0
  -32.3850  -22.0936   21.7658 H   0  0  0  0  0  0
  -31.3052  -21.9917   23.1736 H   0  0  0  0  0  0
  -31.8963  -23.5682   22.6194 H   0  0  0  0  0  0
  -26.9989  -24.7207   20.3135 H   0  0  0  0  0  0
  -27.8689  -24.8624   18.8109 H   0  0  0  0  0  0
  -30.9478  -20.2378   21.6497 H   0  0  0  0  0  0
  1 25  1  0  0  0
  1 30  2  0  0  0
  1 83  1  0  0  0
  2  3  1  0  0  0
  2 25  1  0  0  0
  2 85  1  0  0  0
  2 86  1  0  0  0
  3  4  1  0  0  0
  3 87  1  0  0  0
  3 88  1  0  0  0
  4  5  1  0  0  0
  4 89  1  0  0  0
  4 90  1  0  0  0
  5  6  1  0  0  0
  5 26  1  0  0  0
  5 91  1  0  0  0
  6 25  1  0  0  0
  6 92  1  0  0  0
  6 93  1  0  0  0
  7  8  2  0  0  0
  7 26  1  0  0  0
  7 29  1  0  0  0
  8  9  1  0  0  0
  8 22  1  0  0  0
  9 10  1  0  0  0
  9 27  2  0  0  0
 10 11  2  0  0  0
 10 15  1  0  0  0
 11 12  1  0  0  0
 11 94  1  0  0  0
 12 13  2  0  0  0
 12 95  1  0  0  0
 13 14  1  0  0  0
 13 31  1  0  0  0
 14 15  2  0  0  0
 14 96  1  0  0  0
 15 97  1  0  0  0
 16 17  2  0  0  0
 16 21  1  0  0  0
 16 31  1  0  0  0
 17 18  1  0  0  0
 17 98  1  0  0  0
 18 19  2  0  0  0
 18 99  1  0  0  0
 19 20  1  0  0  0
 19 24  1  0  0  0
 20 21  2  0  0  0
 20100  1  0  0  0
 21 23  1  0  0  0
 22 28  1  0  0  0
 22 32  2  0  0  0
 26 27  1  0  0  0
 28101  1  0  0  0
 28102  1  0  0  0
 29103  1  0  0  0
 29104  1  0  0  0
 33 34  1  0  0  0
 33 66  1  0  0  0
 33 70  2  0  0  0
 34 36  1  0  0  0
 34 59  1  0  0  0
 34105  1  0  0  0
 35 44  2  0  0  0
 35 45  1  0  0  0
 35 68  1  0  0  0
 36 56  1  0  0  0
 36106  1  0  0  0
 37 39  1  0  0  0
 37 47  1  0  0  0
 37 66  1  0  0  0
 37107  1  0  0  0
 38 43  2  0  0  0
 38 46  1  0  0  0
 38 47  1  0  0  0
 39 64  1  0  0  0
 39 67  2  0  0  0
 40 52  1  0  0  0
 40 53  2  0  0  0
 40 58  1  0  0  0
 41108  1  0  0  0
 41109  1  0  0  0
 41110  1  0  0  0
 41 48  1  0  0  0
 42 43  1  0  0  0
 42 66  1  0  0  0
 42111  1  0  0  0
 42112  1  0  0  0
 43 44  1  0  0  0
 44113  1  0  0  0
 45 46  2  0  0  0
 45114  1  0  0  0
 46115  1  0  0  0
 47116  1  0  0  0
 47117  1  0  0  0
 48 56  1  0  0  0
 48 65  1  0  0  0
 48118  1  0  0  0
 49 50  1  0  0  0
 49 53  1  0  0  0
 49 64  1  0  0  0
 49119  1  0  0  0
 50 51  1  0  0  0
 50120  1  0  0  0
 50121  1  0  0  0
 51 52  1  0  0  0
 51122  1  0  0  0
 51123  1  0  0  0
 52124  1  0  0  0
 52125  1  0  0  0
 53 54  1  0  0  0
 54 55  2  0  0  0
 54126  1  0  0  0
 55 57  1  0  0  0
 55127  1  0  0  0
 56 69  2  0  0  0
 57 58  2  0  0  0
 57128  1  0  0  0
 58129  1  0  0  0
 59 60  1  0  0  0
 59 61  1  0  0  0
 59 62  1  0  0  0
 60130  1  0  0  0
 60131  1  0  0  0
 60132  1  0  0  0
 61133  1  0  0  0
 61134  1  0  0  0
 61135  1  0  0  0
 62136  1  0  0  0
 62137  1  0  0  0
 62138  1  0  0  0
 63 65  1  0  0  0
 63139  1  0  0  0
 63140  1  0  0  0
 63141  1  0  0  0
 64142  1  0  0  0
 65143  1  0  0  0
 68 80  1  0  0  0
 71 72  1  0  0  0
 71 73  2  0  0  0
 71144  1  0  0  0
 72 80  1  0  0  0
 72 81  2  0  0  0
 73 82  1  0  0  0
 73 84  1  0  0  0
 74 76  1  0  0  0
 74 78  1  0  0  0
 74145  1  0  0  0
 74146  1  0  0  0
 75 77  1  0  0  0
 75 78  1  0  0  0
 75147  1  0  0  0
 75148  1  0  0  0
 76 83  1  0  0  0
 76149  1  0  0  0
 76150  1  0  0  0
 77 83  1  0  0  0
 77151  1  0  0  0
 77152  1  0  0  0
 78 84  1  0  0  0
 78153  1  0  0  0
 79 82  1  0  0  0
 79154  1  0  0  0
 79155  1  0  0  0
 79156  1  0  0  0
 80157  1  0  0  0
 80158  1  0  0  0
 81 82  1  0  0  0
 84159  1  0  0  0
M  ISO  4   1 100  68 101  80 101  83 100
M  END
> <chiral flag>
0

> <version>
0

> <s_m_source_file>
/data/baiqing/PycharmProjects/Reinvent-master-3.2/result/LINK_invent/BTK/process_docking_weight1_custom_sum_contain_oxygen_bond_distance_aromatic_linkinvent_7_9_3/rearranged_h_0181.sdf

> <i_m_source_file_index>
1

> <r_mmod_Potential_Energy-OPLS-2005>
248.55158996582

> <r_mmod_Stretch_Energy-OPLS-2005>
87.1454238891602

> <r_mmod_Bend_Energy-OPLS-2005>
173.282455444336

> <r_mmod_Torsional_Energy-OPLS-2005>
322.460571289062

> <r_mmod_Improper_Torsional_Energy-OPLS-2005>
16.0728168487549

> <r_mmod_Van_der_Waal_Energy-OPLS-2005>
127.183227539062

> <r_mmod_Electrostatic_Energy-OPLS-2005>
-322.0341796875

> <r_mmod_Solvation_Energy-OPLS-2005>
-222.60563659668

> <b_mmod_Minimization_Converged-OPLS-2005>
0

> <r_mmod_RMS_Derivative-OPLS-2005>
1.16602694988251

$$$$
1
                    3D
 Structure written by MMmdl.
159169  0  0  1  0            999 V2000
  -30.4087  -15.3881   20.3434 C   0  0  0  0  0  0
  -30.4434  -12.9011   19.5048 C   0  0  0  0  0  0
  -29.5422  -12.5749   18.2864 C   0  0  0  0  0  0
  -28.0961  -12.2856   18.7288 C   0  0  0  0  0  0
  -27.6051  -13.2785   19.8111 C   0  0  2  0  0  0
  -28.6455  -13.5202   20.9232 C   0  0  0  0  0  0
  -25.2381  -13.8238   20.5747 C   0  0  0  0  0  0
  -24.1728  -13.0441   20.9263 C   0  0  0  0  0  0
  -24.6393  -11.6942   20.8765 C   0  0  0  0  0  0
  -23.9087  -10.4309   21.0406 C   0  0  0  0  0  0
  -24.3623   -9.4221   21.9180 C   0  0  0  0  0  0
  -23.6312   -8.2250   22.0735 C   0  0  0  0  0  0
  -22.4298   -8.0281   21.3523 C   0  0  0  0  0  0
  -21.9930   -9.0261   20.4629 C   0  0  0  0  0  0
  -22.7262  -10.2146   20.3049 C   0  0  0  0  0  0
  -21.6873   -6.0737   22.5270 C   0  0  0  0  0  0
  -21.4027   -6.5635   23.8206 C   0  0  0  0  0  0
  -21.3660   -5.6774   24.9158 C   0  0  0  0  0  0
  -21.6048   -4.3042   24.7211 C   0  0  0  0  0  0
  -21.8830   -3.8140   23.4334 C   0  0  0  0  0  0
  -21.9205   -4.6960   22.3393 C   0  0  0  0  0  0
  -22.7742  -13.5197   21.1907 C   0  0  0  0  0  0
  -22.1661   -4.2141   21.0976 F   0  0  0  0  0  0
  -21.5627   -3.4528   25.7727 F   0  0  0  0  0  0
  -29.8426  -14.0693   20.2558 N   0  0  0  0  0  0
  -26.2811  -12.9516   20.3233 N   0  0  0  0  0  0
  -25.9339  -11.6626   20.5736 N   0  0  0  0  0  0
  -22.0379  -12.8177   22.0447 N   0  0  0  0  0  0
  -25.4043  -15.1949   20.4121 N   0  0  0  0  0  0
  -31.6497  -15.3358   20.3174 O   0  0  0  0  0  0
  -21.6643   -6.8888   21.4239 O   0  0  0  0  0  0
  -22.3440  -14.5516   20.6768 O   0  0  0  0  0  0
  -24.6721  -31.8144   23.1622 C   0  0  0  0  0  0
  -25.9352  -32.4549   23.8123 C   0  0  1  0  0  0
  -27.2342  -26.8538   20.2013 C   0  0  0  0  0  0
  -25.5971  -33.8367   24.2024 N   0  0  0  0  0  0
  -23.4925  -30.4214   21.5136 C   0  0  2  0  0  0
  -24.9491  -28.7908   20.1183 C   0  0  0  0  0  0
  -22.7723  -29.4382   22.4748 C   0  0  0  0  0  0
  -18.0329  -28.1422   22.8459 C   0  0  0  0  0  0
  -24.1492  -36.7202   23.2656 C   0  0  0  0  0  0
  -26.0669  -30.5983   21.4031 C   0  0  0  0  0  0
  -26.1364  -29.1789   20.7524 C   0  0  0  0  0  0
  -27.2713  -28.2352   20.7622 C   0  0  0  0  0  0
  -26.0149  -26.6363   19.5164 C   0  0  0  0  0  0
  -24.9178  -27.5410   19.4786 C   0  0  0  0  0  0
  -23.7385  -29.7284   20.1446 C   0  0  0  0  0  0
  -25.4133  -36.2955   24.0303 C   0  0  1  0  0  0
  -20.5963  -28.3765   23.1165 C   0  0  2  0  0  0
  -20.6809  -26.9438   22.5399 C   0  0  0  0  0  0
  -19.5778  -26.6380   21.5219 C   0  0  0  0  0  0
  -18.1961  -26.7950   22.1626 C   0  0  0  0  0  0
  -19.1597  -28.8918   23.2800 C   0  0  0  0  0  0
  -18.9499  -30.1505   23.8836 C   0  0  0  0  0  0
  -17.6490  -30.6605   24.0562 C   0  0  0  0  0  0
  -25.9097  -34.9336   23.5003 C   0  0  0  0  0  0
  -16.5383  -29.9090   23.6352 C   0  0  0  0  0  0
  -16.7309  -28.6521   23.0355 C   0  0  0  0  0  0
  -26.4564  -31.6525   25.0688 C   0  0  0  0  0  0
  -25.3654  -31.3799   26.1319 C   0  0  0  0  0  0
  -27.0472  -30.2881   24.6474 C   0  0  0  0  0  0
  -27.6030  -32.4352   25.7489 C   0  0  0  0  0  0
  -27.5568  -37.1757   24.8465 C   0  0  0  0  0  0
  -21.4380  -29.3030   22.3502 N   0  0  0  0  0  0
  -26.4273  -37.3696   23.9414 N   0  0  0  0  0  0
  -24.7660  -30.9731   22.0798 N   0  0  0  0  0  0
  -23.4230  -28.7972   23.3033 O   0  0  0  0  0  0
  -28.2311  -25.7161   20.2673 O   0  0  0  0  0  0
  -26.5726  -34.8886   22.4599 O   0  0  0  0  0  0
  -23.5768  -32.1135   23.6662 O   0  0  0  0  0  0
  -30.7962  -20.3774   20.1437 C   0  0  0  0  0  0
  -31.1195  -21.7397   20.0754 C   0  0  0  0  0  0
  -29.4770  -19.9350   20.3176 C   0  0  0  0  0  0
  -28.9525  -22.5718   20.2692 C   0  0  0  0  0  0
  -32.0321  -19.5139   20.0929 C   0  0  0  0  0  0
  -32.6129  -21.9319   19.9915 C   0  0  0  0  0  0
  -33.1908  -20.5219   20.2642 C   0  0  0  0  0  0
  -27.8041  -17.5360   18.7829 C   0  0  0  0  0  0
  -27.7138  -18.0273   20.2243 C   0  0  0  0  0  0
  -29.0863  -16.6944   18.7026 C   0  0  0  0  0  0
  -29.1750  -18.2062   20.6302 C   0  0  1  0  0  0
  -27.9442  -24.0517   20.2250 C   0  0  0  0  0  0
  -30.2644  -22.7969   20.1244 N   0  0  0  0  0  0
  -28.5935  -21.1428   20.3881 N   0  0  0  0  0  0
  -29.6963  -16.6911   20.0377 N   0  0  0  0  0  0
  -31.4494  -13.1379   19.1531 H   0  0  0  0  0  0
  -30.5550  -12.0277   20.1516 H   0  0  0  0  0  0
  -29.9435  -11.7227   17.7370 H   0  0  0  0  0  0
  -29.5480  -13.4146   17.5895 H   0  0  0  0  0  0
  -28.0742  -11.2723   19.1318 H   0  0  0  0  0  0
  -27.4234  -12.2872   17.8711 H   0  0  0  0  0  0
  -27.4891  -14.2234   19.2838 H   0  0  0  0  0  0
  -28.8605  -12.6068   21.4790 H   0  0  0  0  0  0
  -28.2682  -14.2451   21.6457 H   0  0  0  0  0  0
  -25.2765   -9.5717   22.4752 H   0  0  0  0  0  0
  -24.0029   -7.4652   22.7457 H   0  0  0  0  0  0
  -21.0851   -8.8802   19.8947 H   0  0  0  0  0  0
  -22.3722  -10.9680   19.6154 H   0  0  0  0  0  0
  -21.2030   -7.6142   23.9720 H   0  0  0  0  0  0
  -21.1452   -6.0484   25.9060 H   0  0  0  0  0  0
  -22.0616   -2.7603   23.2826 H   0  0  0  0  0  0
  -22.4005  -11.9871   22.4894 H   0  0  0  0  0  0
  -21.1003  -13.1213   22.2654 H   0  0  0  0  0  0
  -24.6359  -15.8520   20.4926 H   0  0  0  0  0  0
  -26.2592  -15.6180   20.0769 H   0  0  0  0  0  0
  -26.7430  -32.5067   23.0845 H   0  0  0  0  0  0
  -25.0052  -33.9419   25.0130 H   0  0  0  0  0  0
  -22.8127  -31.2559   21.3330 H   0  0  0  0  0  0
  -23.3764  -35.9521   23.3280 H   0  0  0  0  0  0
  -24.3573  -36.8887   22.2078 H   0  0  0  0  0  0
  -23.7234  -37.6377   23.6727 H   0  0  0  0  0  0
  -26.2540  -31.3305   20.6166 H   0  0  0  0  0  0
  -26.9261  -30.6608   22.0592 H   0  0  0  0  0  0
  -28.1724  -28.5368   21.2787 H   0  0  0  0  0  0
  -25.8747  -25.6858   19.0228 H   0  0  0  0  0  0
  -24.0185  -27.2330   18.9627 H   0  0  0  0  0  0
  -23.9061  -30.4924   19.3851 H   0  0  0  0  0  0
  -22.8476  -29.1878   19.8229 H   0  0  0  0  0  0
  -25.1334  -36.1753   25.0796 H   0  0  0  0  0  0
  -21.0047  -28.3381   24.1291 H   0  0  0  0  0  0
  -20.5694  -26.2385   23.3648 H   0  0  0  0  0  0
  -21.6672  -26.7412   22.1204 H   0  0  0  0  0  0
  -19.6936  -25.6274   21.1294 H   0  0  0  0  0  0
  -19.6729  -27.3156   20.6723 H   0  0  0  0  0  0
  -17.4234  -26.6691   21.4031 H   0  0  0  0  0  0
  -18.0351  -26.0110   22.9041 H   0  0  0  0  0  0
  -19.7974  -30.7349   24.2173 H   0  0  0  0  0  0
  -17.5037  -31.6271   24.5187 H   0  0  0  0  0  0
  -15.5378  -30.2976   23.7703 H   0  0  0  0  0  0
  -15.8713  -28.0834   22.7069 H   0  0  0  0  0  0
  -24.5832  -30.7166   25.7614 H   0  0  0  0  0  0
  -24.8849  -32.3013   26.4616 H   0  0  0  0  0  0
  -25.7852  -30.9035   27.0187 H   0  0  0  0  0  0
  -26.3154  -29.6520   24.1486 H   0  0  0  0  0  0
  -27.3982  -29.7295   25.5163 H   0  0  0  0  0  0
  -27.9106  -30.4057   23.9920 H   0  0  0  0  0  0
  -27.2576  -33.3697   26.1924 H   0  0  0  0  0  0
  -28.3902  -32.6846   25.0361 H   0  0  0  0  0  0
  -28.0621  -31.8574   26.5522 H   0  0  0  0  0  0
  -28.2568  -38.0072   24.7515 H   0  0  0  0  0  0
  -28.1081  -36.2596   24.6285 H   0  0  0  0  0  0
  -27.2287  -37.1396   25.8868 H   0  0  0  0  0  0
  -20.9641  -29.8717   21.6616 H   0  0  0  0  0  0
  -26.0126  -38.2760   24.1403 H   0  0  0  0  0  0
  -32.0846  -19.0246   19.1194 H   0  0  0  0  0  0
  -32.0374  -18.7415   20.8638 H   0  0  0  0  0  0
  -32.9688  -22.6630   20.7182 H   0  0  0  0  0  0
  -32.8803  -22.2768   18.9931 H   0  0  0  0  0  0
  -34.0574  -20.2854   19.6474 H   0  0  0  0  0  0
  -33.5256  -20.4875   21.3026 H   0  0  0  0  0  0
  -27.8867  -18.3868   18.1047 H   0  0  0  0  0  0
  -26.9142  -16.9791   18.4888 H   0  0  0  0  0  0
  -27.2592  -17.2606   20.8529 H   0  0  0  0  0  0
  -27.1000  -18.9215   20.3318 H   0  0  0  0  0  0
  -29.7915  -17.1315   17.9931 H   0  0  0  0  0  0
  -28.8587  -15.6968   18.3266 H   0  0  0  0  0  0
  -29.2497  -18.1233   21.7151 H   0  0  0  0  0  0
  -27.2160  -23.8905   21.0194 H   0  0  0  0  0  0
  -27.3725  -23.9144   19.3084 H   0  0  0  0  0  0
  1 25  1  0  0  0
  1 30  2  0  0  0
  1 85  1  0  0  0
  2  3  1  0  0  0
  2 25  1  0  0  0
  2 86  1  0  0  0
  2 87  1  0  0  0
  3  4  1  0  0  0
  3 88  1  0  0  0
  3 89  1  0  0  0
  4  5  1  0  0  0
  4 90  1  0  0  0
  4 91  1  0  0  0
  5  6  1  0  0  0
  5 26  1  0  0  0
  5 92  1  0  0  0
  6 25  1  0  0  0
  6 93  1  0  0  0
  6 94  1  0  0  0
  7  8  2  0  0  0
  7 26  1  0  0  0
  7 29  1  0  0  0
  8  9  1  0  0  0
  8 22  1  0  0  0
  9 10  1  0  0  0
  9 27  2  0  0  0
 10 11  2  0  0  0
 10 15  1  0  0  0
 11 12  1  0  0  0
 11 95  1  0  0  0
 12 13  2  0  0  0
 12 96  1  0  0  0
 13 14  1  0  0  0
 13 31  1  0  0  0
 14 15  2  0  0  0
 14 97  1  0  0  0
 15 98  1  0  0  0
 16 17  2  0  0  0
 16 21  1  0  0  0
 16 31  1  0  0  0
 17 18  1  0  0  0
 17 99  1  0  0  0
 18 19  2  0  0  0
 18100  1  0  0  0
 19 20  1  0  0  0
 19 24  1  0  0  0
 20 21  2  0  0  0
 20101  1  0  0  0
 21 23  1  0  0  0
 22 28  1  0  0  0
 22 32  2  0  0  0
 26 27  1  0  0  0
 28102  1  0  0  0
 28103  1  0  0  0
 29104  1  0  0  0
 29105  1  0  0  0
 33 34  1  0  0  0
 33 66  1  0  0  0
 33 70  2  0  0  0
 34 36  1  0  0  0
 34 59  1  0  0  0
 34106  1  0  0  0
 35 44  2  0  0  0
 35 45  1  0  0  0
 35 68  1  0  0  0
 36 56  1  0  0  0
 36107  1  0  0  0
 37 39  1  0  0  0
 37 47  1  0  0  0
 37 66  1  0  0  0
 37108  1  0  0  0
 38 43  2  0  0  0
 38 46  1  0  0  0
 38 47  1  0  0  0
 39 64  1  0  0  0
 39 67  2  0  0  0
 40 52  1  0  0  0
 40 53  2  0  0  0
 40 58  1  0  0  0
 41109  1  0  0  0
 41110  1  0  0  0
 41111  1  0  0  0
 41 48  1  0  0  0
 42 43  1  0  0  0
 42 66  1  0  0  0
 42112  1  0  0  0
 42113  1  0  0  0
 43 44  1  0  0  0
 44114  1  0  0  0
 45 46  2  0  0  0
 45115  1  0  0  0
 46116  1  0  0  0
 47117  1  0  0  0
 47118  1  0  0  0
 48 56  1  0  0  0
 48 65  1  0  0  0
 48119  1  0  0  0
 49 50  1  0  0  0
 49 53  1  0  0  0
 49 64  1  0  0  0
 49120  1  0  0  0
 50 51  1  0  0  0
 50121  1  0  0  0
 50122  1  0  0  0
 51 52  1  0  0  0
 51123  1  0  0  0
 51124  1  0  0  0
 52125  1  0  0  0
 52126  1  0  0  0
 53 54  1  0  0  0
 54 55  2  0  0  0
 54127  1  0  0  0
 55 57  1  0  0  0
 55128  1  0  0  0
 56 69  2  0  0  0
 57 58  2  0  0  0
 57129  1  0  0  0
 58130  1  0  0  0
 59 60  1  0  0  0
 59 61  1  0  0  0
 59 62  1  0  0  0
 60131  1  0  0  0
 60132  1  0  0  0
 60133  1  0  0  0
 61134  1  0  0  0
 61135  1  0  0  0
 61136  1  0  0  0
 62137  1  0  0  0
 62138  1  0  0  0
 62139  1  0  0  0
 63 65  1  0  0  0
 63140  1  0  0  0
 63141  1  0  0  0
 63142  1  0  0  0
 64143  1  0  0  0
 65144  1  0  0  0
 68 82  1  0  0  0
 71 72  2  0  0  0
 71 73  1  0  0  0
 71 75  1  0  0  0
 72 76  1  0  0  0
 72 83  1  0  0  0
 73 84  2  0  0  0
 73 81  1  0  0  0
 74 82  1  0  0  0
 74 83  2  0  0  0
 74 84  1  0  0  0
 75 77  1  0  0  0
 75145  1  0  0  0
 75146  1  0  0  0
 76 77  1  0  0  0
 76147  1  0  0  0
 76148  1  0  0  0
 77149  1  0  0  0
 77150  1  0  0  0
 78 79  1  0  0  0
 78 80  1  0  0  0
 78151  1  0  0  0
 78152  1  0  0  0
 79 81  1  0  0  0
 79153  1  0  0  0
 79154  1  0  0  0
 80 85  1  0  0  0
 80155  1  0  0  0
 80156  1  0  0  0
 81 85  1  0  0  0
 81157  1  0  0  0
 82158  1  0  0  0
 82159  1  0  0  0
M  ISO  4   1 100  68 101  82 101  85 100
M  END
> <chiral flag>
0

> <version>
0

> <s_m_source_file>
/data/baiqing/PycharmProjects/Reinvent-master-3.2/result/LINK_invent/BTK/process_docking_weight1_custom_sum_contain_oxygen_bond_distance_aromatic_linkinvent_7_9_3/rearranged_h_0181.sdf

> <i_m_source_file_index>
2

> <r_mmod_Potential_Energy-OPLS-2005>
1496.17163085938

> <r_mmod_Stretch_Energy-OPLS-2005>
711.189819335938

> <r_mmod_Bend_Energy-OPLS-2005>
580.025085449219

> <r_mmod_Torsional_Energy-OPLS-2005>
389.798065185547

> <r_mmod_Improper_Torsional_Energy-OPLS-2005>
14.7692232131958

> <r_mmod_Van_der_Waal_Energy-OPLS-2005>
114.388496398926

> <r_mmod_Electrostatic_Energy-OPLS-2005>
-666.492309570312

> <r_mmod_Solvation_Energy-OPLS-2005>
-238.958480834961

> <b_mmod_Minimization_Converged-OPLS-2005>
0

> <r_mmod_RMS_Derivative-OPLS-2005>
2.25520467758179

$$$$
2
                    3D
 Structure written by MMmdl.
154163  0  0  1  0            999 V2000
  -30.4867  -15.0549   20.4978 C   0  0  0  0  0  0
  -30.4494  -12.6511   19.5865 C   0  0  0  0  0  0
  -29.5651  -12.5637   18.3185 C   0  0  0  0  0  0
  -28.0996  -12.2960   18.7136 C   0  0  0  0  0  0
  -27.6360  -13.2433   19.8531 C   0  0  2  0  0  0
  -28.6514  -13.3073   21.0127 C   0  0  0  0  0  0
  -25.2490  -13.8217   20.5691 C   0  0  0  0  0  0
  -24.1790  -13.0478   20.9192 C   0  0  0  0  0  0
  -24.6380  -11.6943   20.8743 C   0  0  0  0  0  0
  -23.9065  -10.4314   21.0418 C   0  0  0  0  0  0
  -24.3610   -9.4245   21.9224 C   0  0  0  0  0  0
  -23.6256   -8.2284   22.0826 C   0  0  0  0  0  0
  -22.4231   -8.0319   21.3595 C   0  0  0  0  0  0
  -21.9859   -9.0320   20.4711 C   0  0  0  0  0  0
  -22.7215  -10.2175   20.3077 C   0  0  0  0  0  0
  -21.6859   -6.0726   22.5293 C   0  0  0  0  0  0
  -21.4050   -6.5630   23.8233 C   0  0  0  0  0  0
  -21.3668   -5.6773   24.9190 C   0  0  0  0  0  0
  -21.6042   -4.3036   24.7237 C   0  0  0  0  0  0
  -21.8824   -3.8141   23.4355 C   0  0  0  0  0  0
  -21.9204   -4.6961   22.3403 C   0  0  0  0  0  0
  -22.7804  -13.5346   21.1796 C   0  0  0  0  0  0
  -22.1652   -4.2162   21.0975 F   0  0  0  0  0  0
  -21.5603   -3.4512   25.7735 F   0  0  0  0  0  0
  -29.9211  -13.7679   20.4391 N   0  0  0  0  0  0
  -26.2914  -12.9420   20.3218 N   0  0  0  0  0  0
  -25.9333  -11.6565   20.5735 N   0  0  0  0  0  0
  -22.0385  -12.8462   22.0344 N   0  0  0  0  0  0
  -25.4256  -15.1944   20.4167 N   0  0  0  0  0  0
  -31.6835  -15.1064   20.1809 O   0  0  0  0  0  0
  -21.6623   -6.8900   21.4260 O   0  0  0  0  0  0
  -22.3622  -14.5683   20.6611 O   0  0  0  0  0  0
  -24.6464  -31.8372   23.1860 C   0  0  0  0  0  0
  -25.9180  -32.4681   23.8274 C   0  0  1  0  0  0
  -27.2407  -27.0458   20.1896 C   0  0  0  0  0  0
  -25.5903  -33.8493   24.2176 N   0  0  0  0  0  0
  -23.4574  -30.4529   21.5284 C   0  0  2  0  0  0
  -24.9208  -28.8645   20.1185 C   0  0  0  0  0  0
  -22.7618  -29.4498   22.4836 C   0  0  0  0  0  0
  -18.0325  -28.1423   22.8451 C   0  0  0  0  0  0
  -24.1492  -36.7302   23.2637 C   0  0  0  0  0  0
  -26.0190  -30.6906   21.3921 C   0  0  0  0  0  0
  -26.0995  -29.2905   20.7377 C   0  0  0  0  0  0
  -27.2580  -28.4029   20.7471 C   0  0  0  0  0  0
  -26.0079  -26.7332   19.5675 C   0  0  0  0  0  0
  -24.8946  -27.6035   19.5069 C   0  0  0  0  0  0
  -23.6971  -29.7721   20.1536 C   0  0  0  0  0  0
  -25.4114  -36.3048   24.0320 C   0  0  1  0  0  0
  -20.5938  -28.3767   23.1236 C   0  0  2  0  0  0
  -20.6811  -26.9474   22.5398 C   0  0  0  0  0  0
  -19.5780  -26.6397   21.5217 C   0  0  0  0  0  0
  -18.1962  -26.7953   22.1624 C   0  0  0  0  0  0
  -19.1571  -28.8922   23.2825 C   0  0  0  0  0  0
  -18.9477  -30.1513   23.8866 C   0  0  0  0  0  0
  -17.6461  -30.6601   24.0588 C   0  0  0  0  0  0
  -25.9061  -34.9410   23.5070 C   0  0  0  0  0  0
  -16.5368  -29.9113   23.6327 C   0  0  0  0  0  0
  -16.7298  -28.6547   23.0325 C   0  0  0  0  0  0
  -26.4475  -31.6558   25.0713 C   0  0  0  0  0  0
  -25.3629  -31.3725   26.1391 C   0  0  0  0  0  0
  -27.0341  -30.2971   24.6255 C   0  0  0  0  0  0
  -27.6020  -32.4319   25.7470 C   0  0  0  0  0  0
  -27.5598  -37.1786   24.8448 C   0  0  0  0  0  0
  -21.4289  -29.3083   22.3616 N   0  0  0  0  0  0
  -26.4283  -37.3765   23.9418 N   0  0  0  0  0  0
  -24.7288  -31.0122   22.0941 N   0  0  0  0  0  0
  -23.4205  -28.8048   23.3014 O   0  0  0  0  0  0
  -28.2938  -26.0141   20.2908 O   0  0  0  0  0  0
  -26.5658  -34.8917   22.4657 O   0  0  0  0  0  0
  -23.5559  -32.1299   23.7013 O   0  0  0  0  0  0
  -28.0671  -21.9207   18.8829 C   0  0  0  0  0  0
  -27.9618  -24.2484   18.5122 C   0  0  0  0  0  0
  -28.6837  -22.0372   20.1462 C   0  0  0  0  0  0
  -28.2766  -24.5685   19.8621 C   0  0  0  0  0  0
  -29.5974  -18.9264   18.9629 C   0  0  0  0  0  0
  -30.8422  -18.2617   19.5915 C   0  0  0  0  0  0
  -29.0320  -19.2015   20.3665 C   0  0  1  0  0  0
  -30.0236  -17.8520   20.8220 C   0  0  1  0  0  0
  -27.8995  -25.2959   17.4047 C   0  0  0  0  0  0
  -27.7879  -22.9748   18.0702 N   0  0  0  0  0  0
  -28.7407  -23.4115   20.6326 N   0  0  0  0  0  0
  -29.2066  -20.7489   20.7706 N   0  0  0  0  0  0
  -29.7108  -16.2583   20.7368 N   0  0  0  0  0  0
  -31.4995  -12.7966   19.3251 H   0  0  0  0  0  0
  -30.4310  -11.7110   20.1370 H   0  0  0  0  0  0
  -29.9409  -11.8001   17.6360 H   0  0  0  0  0  0
  -29.6276  -13.5145   17.7927 H   0  0  0  0  0  0
  -28.0345  -11.2590   19.0558 H   0  0  0  0  0  0
  -27.4454  -12.3777   17.8469 H   0  0  0  0  0  0
  -27.6002  -14.2349   19.4006 H   0  0  0  0  0  0
  -28.7535  -12.3378   21.5037 H   0  0  0  0  0  0
  -28.3079  -13.9933   21.7857 H   0  0  0  0  0  0
  -25.2772   -9.5727   22.4784 H   0  0  0  0  0  0
  -23.9973   -7.4707   22.7589 H   0  0  0  0  0  0
  -21.0767   -8.8872   19.9034 H   0  0  0  0  0  0
  -22.3729  -10.9714   19.6149 H   0  0  0  0  0  0
  -21.2055   -7.6153   23.9752 H   0  0  0  0  0  0
  -21.1449   -6.0493   25.9112 H   0  0  0  0  0  0
  -22.0576   -2.7605   23.2839 H   0  0  0  0  0  0
  -22.3827  -12.0063   22.4760 H   0  0  0  0  0  0
  -21.1067  -13.1736   22.2525 H   0  0  0  0  0  0
  -24.6542  -15.8460   20.5228 H   0  0  0  0  0  0
  -26.2627  -15.6323   20.0533 H   0  0  0  0  0  0
  -26.7231  -32.5273   23.0991 H   0  0  0  0  0  0
  -24.9935  -33.9601   25.0261 H   0  0  0  0  0  0
  -22.7626  -31.2809   21.3637 H   0  0  0  0  0  0
  -23.3739  -35.9648   23.3231 H   0  0  0  0  0  0
  -24.3606  -36.9018   22.2068 H   0  0  0  0  0  0
  -23.7248  -37.6474   23.6732 H   0  0  0  0  0  0
  -26.1635  -31.4375   20.6108 H   0  0  0  0  0  0
  -26.8943  -30.7649   22.0269 H   0  0  0  0  0  0
  -28.1564  -28.7366   21.2488 H   0  0  0  0  0  0
  -25.8619  -25.7480   19.1527 H   0  0  0  0  0  0
  -23.9928  -27.2642   19.0169 H   0  0  0  0  0  0
  -23.8497  -30.5411   19.3955 H   0  0  0  0  0  0
  -22.8118  -29.2189   19.8346 H   0  0  0  0  0  0
  -25.1296  -36.1865   25.0812 H   0  0  0  0  0  0
  -21.0013  -28.3345   24.1375 H   0  0  0  0  0  0
  -20.5732  -26.2385   23.3616 H   0  0  0  0  0  0
  -21.6672  -26.7511   22.1184 H   0  0  0  0  0  0
  -19.6948  -25.6299   21.1290 H   0  0  0  0  0  0
  -19.6698  -27.3188   20.6727 H   0  0  0  0  0  0
  -17.4233  -26.6700   21.4030 H   0  0  0  0  0  0
  -18.0377  -26.0114   22.9045 H   0  0  0  0  0  0
  -19.7946  -30.7356   24.2201 H   0  0  0  0  0  0
  -17.5017  -31.6268   24.5225 H   0  0  0  0  0  0
  -15.5362  -30.3007   23.7676 H   0  0  0  0  0  0
  -15.8701  -28.0877   22.7013 H   0  0  0  0  0  0
  -24.5751  -30.7177   25.7634 H   0  0  0  0  0  0
  -24.8863  -32.2903   26.4850 H   0  0  0  0  0  0
  -25.7877  -30.8776   27.0136 H   0  0  0  0  0  0
  -26.2943  -29.6652   24.1303 H   0  0  0  0  0  0
  -27.4042  -29.7305   25.4805 H   0  0  0  0  0  0
  -27.8838  -30.4266   23.9545 H   0  0  0  0  0  0
  -27.2625  -33.3615   26.2061 H   0  0  0  0  0  0
  -28.3795  -32.6878   25.0260 H   0  0  0  0  0  0
  -28.0720  -31.8401   26.5331 H   0  0  0  0  0  0
  -28.2548  -38.0145   24.7549 H   0  0  0  0  0  0
  -28.1150  -36.2663   24.6187 H   0  0  0  0  0  0
  -27.2327  -37.1367   25.8853 H   0  0  0  0  0  0
  -20.9554  -29.8806   21.6793 H   0  0  0  0  0  0
  -26.0125  -38.2827   24.1437 H   0  0  0  0  0  0
  -27.8347  -20.9451   18.4829 H   0  0  0  0  0  0
  -28.9936  -18.2137   18.3884 H   0  0  0  0  0  0
  -29.8295  -19.8090   18.3637 H   0  0  0  0  0  0
  -31.6376  -18.9632   19.8353 H   0  0  0  0  0  0
  -31.2419  -17.4350   19.0061 H   0  0  0  0  0  0
  -27.9736  -18.9301   20.4438 H   0  0  0  0  0  0
  -30.5430  -18.0810   21.7576 H   0  0  0  0  0  0
  -27.6499  -26.2910   17.7492 H   0  0  0  0  0  0
  -27.1782  -25.0255   16.6333 H   0  0  0  0  0  0
  -28.8739  -25.4022   16.9252 H   0  0  0  0  0  0
  -29.7406  -20.8846   21.6247 H   0  0  0  0  0  0
  -28.7688  -16.0363   21.0309 H   0  0  0  0  0  0
  1 25  1  0  0  0
  1 30  2  0  0  0
  1 83  1  0  0  0
  2  3  1  0  0  0
  2 25  1  0  0  0
  2 84  1  0  0  0
  2 85  1  0  0  0
  3  4  1  0  0  0
  3 86  1  0  0  0
  3 87  1  0  0  0
  4  5  1  0  0  0
  4 88  1  0  0  0
  4 89  1  0  0  0
  5  6  1  0  0  0
  5 26  1  0  0  0
  5 90  1  0  0  0
  6 25  1  0  0  0
  6 91  1  0  0  0
  6 92  1  0  0  0
  7  8  2  0  0  0
  7 26  1  0  0  0
  7 29  1  0  0  0
  8  9  1  0  0  0
  8 22  1  0  0  0
  9 10  1  0  0  0
  9 27  2  0  0  0
 10 11  2  0  0  0
 10 15  1  0  0  0
 11 12  1  0  0  0
 11 93  1  0  0  0
 12 13  2  0  0  0
 12 94  1  0  0  0
 13 14  1  0  0  0
 13 31  1  0  0  0
 14 15  2  0  0  0
 14 95  1  0  0  0
 15 96  1  0  0  0
 16 17  2  0  0  0
 16 21  1  0  0  0
 16 31  1  0  0  0
 17 18  1  0  0  0
 17 97  1  0  0  0
 18 19  2  0  0  0
 18 98  1  0  0  0
 19 20  1  0  0  0
 19 24  1  0  0  0
 20 21  2  0  0  0
 20 99  1  0  0  0
 21 23  1  0  0  0
 22 28  1  0  0  0
 22 32  2  0  0  0
 26 27  1  0  0  0
 28100  1  0  0  0
 28101  1  0  0  0
 29102  1  0  0  0
 29103  1  0  0  0
 33 34  1  0  0  0
 33 66  1  0  0  0
 33 70  2  0  0  0
 34 36  1  0  0  0
 34 59  1  0  0  0
 34104  1  0  0  0
 35 44  2  0  0  0
 35 45  1  0  0  0
 35 68  1  0  0  0
 36 56  1  0  0  0
 36105  1  0  0  0
 37 39  1  0  0  0
 37 47  1  0  0  0
 37 66  1  0  0  0
 37106  1  0  0  0
 38 43  2  0  0  0
 38 46  1  0  0  0
 38 47  1  0  0  0
 39 64  1  0  0  0
 39 67  2  0  0  0
 40 52  1  0  0  0
 40 53  2  0  0  0
 40 58  1  0  0  0
 41107  1  0  0  0
 41108  1  0  0  0
 41109  1  0  0  0
 41 48  1  0  0  0
 42 43  1  0  0  0
 42 66  1  0  0  0
 42110  1  0  0  0
 42111  1  0  0  0
 43 44  1  0  0  0
 44112  1  0  0  0
 45 46  2  0  0  0
 45113  1  0  0  0
 46114  1  0  0  0
 47115  1  0  0  0
 47116  1  0  0  0
 48 56  1  0  0  0
 48 65  1  0  0  0
 48117  1  0  0  0
 49 50  1  0  0  0
 49 53  1  0  0  0
 49 64  1  0  0  0
 49118  1  0  0  0
 50 51  1  0  0  0
 50119  1  0  0  0
 50120  1  0  0  0
 51 52  1  0  0  0
 51121  1  0  0  0
 51122  1  0  0  0
 52123  1  0  0  0
 52124  1  0  0  0
 53 54  1  0  0  0
 54 55  2  0  0  0
 54125  1  0  0  0
 55 57  1  0  0  0
 55126  1  0  0  0
 56 69  2  0  0  0
 57 58  2  0  0  0
 57127  1  0  0  0
 58128  1  0  0  0
 59 60  1  0  0  0
 59 61  1  0  0  0
 59 62  1  0  0  0
 60129  1  0  0  0
 60130  1  0  0  0
 60131  1  0  0  0
 61132  1  0  0  0
 61133  1  0  0  0
 61134  1  0  0  0
 62135  1  0  0  0
 62136  1  0  0  0
 62137  1  0  0  0
 63 65  1  0  0  0
 63138  1  0  0  0
 63139  1  0  0  0
 63140  1  0  0  0
 64141  1  0  0  0
 65142  1  0  0  0
 68 74  1  0  0  0
 71 73  2  0  0  0
 71 80  1  0  0  0
 71143  1  0  0  0
 72 74  1  0  0  0
 72 79  1  0  0  0
 72 80  2  0  0  0
 73 81  1  0  0  0
 73 82  1  0  0  0
 74 81  2  0  0  0
 75 76  1  0  0  0
 75 77  1  0  0  0
 75144  1  0  0  0
 75145  1  0  0  0
 76 78  1  0  0  0
 76146  1  0  0  0
 76147  1  0  0  0
 77 78  1  0  0  0
 77 82  1  0  0  0
 77148  1  0  0  0
 78 83  1  0  0  0
 78149  1  0  0  0
 79150  1  0  0  0
 79151  1  0  0  0
 79152  1  0  0  0
 82153  1  0  0  0
 83154  1  0  0  0
M  ISO  4   1 100  68 101  74 101  83 100
M  END
> <chiral flag>
0

> <version>
0

> <s_m_source_file>
/data/baiqing/PycharmProjects/Reinvent-master-3.2/result/LINK_invent/BTK/process_docking_weight1_custom_sum_contain_oxygen_bond_distance_aromatic_linkinvent_7_9_3/rearranged_h_0181.sdf

> <i_m_source_file_index>
3

> <r_mmod_Potential_Energy-OPLS-2005>
823.960998535156

> <r_mmod_Stretch_Energy-OPLS-2005>
388.982360839844

> <r_mmod_Bend_Energy-OPLS-2005>
346.756652832031

> <r_mmod_Torsional_Energy-OPLS-2005>
254.354614257812

> <r_mmod_Improper_Torsional_Energy-OPLS-2005>
5.08628463745117

> <r_mmod_Van_der_Waal_Energy-OPLS-2005>
138.488342285156

> <r_mmod_Electrostatic_Energy-OPLS-2005>
-359.786499023438

> <r_mmod_Solvation_Energy-OPLS-2005>
-228.005035400391

> <b_mmod_Minimization_Converged-OPLS-2005>
0

> <r_mmod_RMS_Derivative-OPLS-2005>
8.7543306350708

$$$$
3
                    3D
 Structure written by MMmdl.
159168  0  0  1  0            999 V2000
  -30.5593  -14.9088   20.3760 C   0  0  0  0  0  0
  -30.4474  -12.5544   19.4724 C   0  0  0  0  0  0
  -29.5150  -12.5026   18.2407 C   0  0  0  0  0  0
  -28.0465  -12.3045   18.6687 C   0  0  0  0  0  0
  -27.6291  -13.2306   19.8423 C   0  0  2  0  0  0
  -28.6889  -13.2627   20.9636 C   0  0  0  0  0  0
  -25.2450  -13.8111   20.5762 C   0  0  0  0  0  0
  -24.1754  -13.0366   20.9248 C   0  0  0  0  0  0
  -24.6374  -11.6860   20.8785 C   0  0  0  0  0  0
  -23.9056  -10.4251   21.0420 C   0  0  0  0  0  0
  -24.3610   -9.4173   21.9196 C   0  0  0  0  0  0
  -23.6284   -8.2213   22.0758 C   0  0  0  0  0  0
  -22.4266   -8.0260   21.3543 C   0  0  0  0  0  0
  -21.9902   -9.0235   20.4645 C   0  0  0  0  0  0
  -22.7234  -10.2110   20.3060 C   0  0  0  0  0  0
  -21.6843   -6.0727   22.5281 C   0  0  0  0  0  0
  -21.4005   -6.5635   23.8214 C   0  0  0  0  0  0
  -21.3657   -5.6788   24.9177 C   0  0  0  0  0  0
  -21.6047   -4.3053   24.7228 C   0  0  0  0  0  0
  -21.8820   -3.8143   23.4350 C   0  0  0  0  0  0
  -21.9190   -4.6957   22.3405 C   0  0  0  0  0  0
  -22.7781  -13.5167   21.1885 C   0  0  0  0  0  0
  -22.1660   -4.2143   21.0982 F   0  0  0  0  0  0
  -21.5632   -3.4537   25.7742 F   0  0  0  0  0  0
  -29.9629  -13.6538   20.3430 N   0  0  0  0  0  0
  -26.2897  -12.9334   20.3346 N   0  0  0  0  0  0
  -25.9312  -11.6481   20.5811 N   0  0  0  0  0  0
  -22.0423  -12.8173   22.0446 N   0  0  0  0  0  0
  -25.4059  -15.1823   20.4202 N   0  0  0  0  0  0
  -31.7855  -14.9805   20.2538 O   0  0  0  0  0  0
  -21.6625   -6.8863   21.4240 O   0  0  0  0  0  0
  -22.3480  -14.5478   20.6727 O   0  0  0  0  0  0
  -24.6417  -31.8475   23.1928 C   0  0  0  0  0  0
  -25.9200  -32.4714   23.8301 C   0  0  1  0  0  0
  -27.2193  -27.1654   20.1349 C   0  0  0  0  0  0
  -25.5959  -33.8520   24.2215 N   0  0  0  0  0  0
  -23.4436  -30.4704   21.5384 C   0  0  2  0  0  0
  -24.8933  -28.9095   20.1093 C   0  0  0  0  0  0
  -22.7560  -29.4567   22.4871 C   0  0  0  0  0  0
  -18.0304  -28.1394   22.8478 C   0  0  0  0  0  0
  -24.1492  -36.7263   23.2641 C   0  0  0  0  0  0
  -26.0001  -30.7292   21.3907 C   0  0  0  0  0  0
  -26.0717  -29.3451   20.7285 C   0  0  0  0  0  0
  -27.2349  -28.4886   20.7292 C   0  0  0  0  0  0
  -26.0123  -26.8374   19.4693 C   0  0  0  0  0  0
  -24.8753  -27.6669   19.4659 C   0  0  0  0  0  0
  -23.6688  -29.8069   20.1556 C   0  0  0  0  0  0
  -25.4122  -36.3044   24.0318 C   0  0  1  0  0  0
  -20.5917  -28.3720   23.1238 C   0  0  2  0  0  0
  -20.6791  -26.9425   22.5402 C   0  0  0  0  0  0
  -19.5763  -26.6382   21.5211 C   0  0  0  0  0  0
  -18.1945  -26.7933   22.1625 C   0  0  0  0  0  0
  -19.1562  -28.8874   23.2851 C   0  0  0  0  0  0
  -18.9478  -30.1470   23.8876 C   0  0  0  0  0  0
  -17.6474  -30.6590   24.0559 C   0  0  0  0  0  0
  -25.9071  -34.9418   23.5071 C   0  0  0  0  0  0
  -16.5365  -29.9083   23.6337 C   0  0  0  0  0  0
  -16.7289  -28.6503   23.0356 C   0  0  0  0  0  0
  -26.4526  -31.6571   25.0731 C   0  0  0  0  0  0
  -25.3715  -31.3755   26.1428 C   0  0  0  0  0  0
  -27.0389  -30.2968   24.6303 C   0  0  0  0  0  0
  -27.6059  -32.4334   25.7515 C   0  0  0  0  0  0
  -27.5577  -37.1790   24.8466 C   0  0  0  0  0  0
  -21.4255  -29.3052   22.3615 N   0  0  0  0  0  0
  -26.4289  -37.3753   23.9408 N   0  0  0  0  0  0
  -24.7148  -31.0357   22.0954 N   0  0  0  0  0  0
  -23.4215  -28.8103   23.3003 O   0  0  0  0  0  0
  -28.2624  -26.1719   20.2135 O   0  0  0  0  0  0
  -26.5650  -34.8906   22.4646 O   0  0  0  0  0  0
  -23.5541  -32.1342   23.7159 O   0  0  0  0  0  0
  -28.6879  -22.5314   21.4031 C   0  0  0  0  0  0
  -29.1159  -21.1471   21.4799 C   0  0  0  0  0  0
  -29.5955  -20.4218   20.3370 C   0  0  0  0  0  0
  -28.7229  -23.3020   20.1999 C   0  0  0  0  0  0
  -29.6010  -21.2707   19.1746 C   0  0  0  0  0  0
  -28.2653  -17.3370   19.5545 C   0  0  0  0  0  0
  -29.2239  -16.3920   18.8262 C   0  0  0  0  0  0
  -29.3629  -17.5174   20.5929 C   0  0  2  0  0  0
  -29.0415  -20.4411   22.8201 C   0  0  0  0  0  0
  -30.0982  -20.7307   17.8473 C   0  0  0  0  0  0
  -30.2312  -18.8964   20.3746 C   0  0  0  0  0  0
  -27.8870  -24.6960   19.9520 C   0  0  0  0  0  0
  -29.1877  -22.5968   19.1166 N   0  0  0  0  0  0
  -29.7457  -16.0483   20.1512 N   0  0  0  0  0  0
  -31.4783  -12.7170   19.1534 H   0  0  0  0  0  0
  -30.4410  -11.6044   20.0092 H   0  0  0  0  0  0
  -29.8198  -11.6974   17.5706 H   0  0  0  0  0  0
  -29.6109  -13.4254   17.6673 H   0  0  0  0  0  0
  -27.9345  -11.2625   18.9706 H   0  0  0  0  0  0
  -27.3801  -12.4457   17.8168 H   0  0  0  0  0  0
  -27.5714  -14.2296   19.4246 H   0  0  0  0  0  0
  -28.7731  -12.2935   21.4573 H   0  0  0  0  0  0
  -28.4073  -13.9845   21.7321 H   0  0  0  0  0  0
  -25.2751   -9.5649   22.4777 H   0  0  0  0  0  0
  -23.9990   -7.4600   22.7476 H   0  0  0  0  0  0
  -21.0835   -8.8756   19.8951 H   0  0  0  0  0  0
  -22.3697  -10.9655   19.6173 H   0  0  0  0  0  0
  -21.1992   -7.6142   23.9713 H   0  0  0  0  0  0
  -21.1481   -6.0521   25.9080 H   0  0  0  0  0  0
  -22.0602   -2.7605   23.2851 H   0  0  0  0  0  0
  -22.4036  -11.9836   22.4840 H   0  0  0  0  0  0
  -21.1043  -13.1204   22.2648 H   0  0  0  0  0  0
  -24.6410  -15.8371   20.5402 H   0  0  0  0  0  0
  -26.2677  -15.6223   20.1275 H   0  0  0  0  0  0
  -26.7266  -32.5329   23.1032 H   0  0  0  0  0  0
  -25.0091  -33.9642   25.0352 H   0  0  0  0  0  0
  -22.7449  -31.2961   21.3882 H   0  0  0  0  0  0
  -23.3758  -35.9592   23.3294 H   0  0  0  0  0  0
  -24.3578  -36.8901   22.2057 H   0  0  0  0  0  0
  -23.7244  -37.6456   23.6679 H   0  0  0  0  0  0
  -26.1558  -31.4870   20.6217 H   0  0  0  0  0  0
  -26.8707  -30.7755   22.0333 H   0  0  0  0  0  0
  -28.1291  -28.8158   21.2414 H   0  0  0  0  0  0
  -25.8913  -25.8981   18.9539 H   0  0  0  0  0  0
  -23.9776  -27.3296   18.9660 H   0  0  0  0  0  0
  -23.8029  -30.5847   19.4029 H   0  0  0  0  0  0
  -22.7844  -29.2486   19.8438 H   0  0  0  0  0  0
  -25.1309  -36.1876   25.0811 H   0  0  0  0  0  0
  -21.0009  -28.3305   24.1358 H   0  0  0  0  0  0
  -20.5686  -26.2333   23.3619 H   0  0  0  0  0  0
  -21.6656  -26.7433   22.1196 H   0  0  0  0  0  0
  -19.6923  -25.6287   21.1254 H   0  0  0  0  0  0
  -19.6697  -27.3180   20.6730 H   0  0  0  0  0  0
  -17.4213  -26.6675   21.4030 H   0  0  0  0  0  0
  -18.0347  -26.0079   22.9027 H   0  0  0  0  0  0
  -19.7953  -30.7293   24.2235 H   0  0  0  0  0  0
  -17.5026  -31.6268   24.5163 H   0  0  0  0  0  0
  -15.5365  -30.2978   23.7671 H   0  0  0  0  0  0
  -15.8690  -28.0812   22.7085 H   0  0  0  0  0  0
  -24.5900  -30.7096   25.7748 H   0  0  0  0  0  0
  -24.8899  -32.2937   26.4802 H   0  0  0  0  0  0
  -25.8003  -30.8962   27.0238 H   0  0  0  0  0  0
  -26.3005  -29.6694   24.1296 H   0  0  0  0  0  0
  -27.3989  -29.7261   25.4874 H   0  0  0  0  0  0
  -27.8920  -30.4204   23.9628 H   0  0  0  0  0  0
  -27.2651  -33.3649   26.2045 H   0  0  0  0  0  0
  -28.3895  -32.6870   25.0363 H   0  0  0  0  0  0
  -28.0698  -31.8491   26.5472 H   0  0  0  0  0  0
  -28.2589  -38.0092   24.7510 H   0  0  0  0  0  0
  -28.1079  -36.2621   24.6294 H   0  0  0  0  0  0
  -27.2294  -37.1438   25.8868 H   0  0  0  0  0  0
  -20.9459  -29.8776   21.6807 H   0  0  0  0  0  0
  -26.0158  -38.2822   24.1409 H   0  0  0  0  0  0
  -28.2703  -23.0016   22.2835 H   0  0  0  0  0  0
  -27.3781  -16.8506   19.9536 H   0  0  0  0  0  0
  -28.0039  -18.2369   18.9965 H   0  0  0  0  0  0
  -29.9491  -16.8996   18.1866 H   0  0  0  0  0  0
  -28.7303  -15.5949   18.2741 H   0  0  0  0  0  0
  -28.9142  -17.5138   21.5867 H   0  0  0  0  0  0
  -28.6822  -21.1068   23.6050 H   0  0  0  0  0  0
  -30.0241  -20.0760   23.1186 H   0  0  0  0  0  0
  -28.3596  -19.5926   22.7657 H   0  0  0  0  0  0
  -29.6097  -19.7858   17.6085 H   0  0  0  0  0  0
  -31.1748  -20.5642   17.8842 H   0  0  0  0  0  0
  -29.8959  -21.4219   17.0285 H   0  0  0  0  0  0
  -30.9952  -18.9260   21.1517 H   0  0  0  0  0  0
  -30.8202  -18.7774   19.4670 H   0  0  0  0  0  0
  -26.9517  -24.5246   20.4858 H   0  0  0  0  0  0
  -27.6316  -24.6503   18.8930 H   0  0  0  0  0  0
  1 25  1  0  0  0
  1 30  2  0  0  0
  1 84  1  0  0  0
  2  3  1  0  0  0
  2 25  1  0  0  0
  2 85  1  0  0  0
  2 86  1  0  0  0
  3  4  1  0  0  0
  3 87  1  0  0  0
  3 88  1  0  0  0
  4  5  1  0  0  0
  4 89  1  0  0  0
  4 90  1  0  0  0
  5  6  1  0  0  0
  5 26  1  0  0  0
  5 91  1  0  0  0
  6 25  1  0  0  0
  6 92  1  0  0  0
  6 93  1  0  0  0
  7  8  2  0  0  0
  7 26  1  0  0  0
  7 29  1  0  0  0
  8  9  1  0  0  0
  8 22  1  0  0  0
  9 10  1  0  0  0
  9 27  2  0  0  0
 10 11  2  0  0  0
 10 15  1  0  0  0
 11 12  1  0  0  0
 11 94  1  0  0  0
 12 13  2  0  0  0
 12 95  1  0  0  0
 13 14  1  0  0  0
 13 31  1  0  0  0
 14 15  2  0  0  0
 14 96  1  0  0  0
 15 97  1  0  0  0
 16 17  2  0  0  0
 16 21  1  0  0  0
 16 31  1  0  0  0
 17 18  1  0  0  0
 17 98  1  0  0  0
 18 19  2  0  0  0
 18 99  1  0  0  0
 19 20  1  0  0  0
 19 24  1  0  0  0
 20 21  2  0  0  0
 20100  1  0  0  0
 21 23  1  0  0  0
 22 28  1  0  0  0
 22 32  2  0  0  0
 26 27  1  0  0  0
 28101  1  0  0  0
 28102  1  0  0  0
 29103  1  0  0  0
 29104  1  0  0  0
 33 34  1  0  0  0
 33 66  1  0  0  0
 33 70  2  0  0  0
 34 36  1  0  0  0
 34 59  1  0  0  0
 34105  1  0  0  0
 35 44  2  0  0  0
 35 45  1  0  0  0
 35 68  1  0  0  0
 36 56  1  0  0  0
 36106  1  0  0  0
 37 39  1  0  0  0
 37 47  1  0  0  0
 37 66  1  0  0  0
 37107  1  0  0  0
 38 43  2  0  0  0
 38 46  1  0  0  0
 38 47  1  0  0  0
 39 64  1  0  0  0
 39 67  2  0  0  0
 40 52  1  0  0  0
 40 53  2  0  0  0
 40 58  1  0  0  0
 41108  1  0  0  0
 41109  1  0  0  0
 41110  1  0  0  0
 41 48  1  0  0  0
 42 43  1  0  0  0
 42 66  1  0  0  0
 42111  1  0  0  0
 42112  1  0  0  0
 43 44  1  0  0  0
 44113  1  0  0  0
 45 46  2  0  0  0
 45114  1  0  0  0
 46115  1  0  0  0
 47116  1  0  0  0
 47117  1  0  0  0
 48 56  1  0  0  0
 48 65  1  0  0  0
 48118  1  0  0  0
 49 50  1  0  0  0
 49 53  1  0  0  0
 49 64  1  0  0  0
 49119  1  0  0  0
 50 51  1  0  0  0
 50120  1  0  0  0
 50121  1  0  0  0
 51 52  1  0  0  0
 51122  1  0  0  0
 51123  1  0  0  0
 52124  1  0  0  0
 52125  1  0  0  0
 53 54  1  0  0  0
 54 55  2  0  0  0
 54126  1  0  0  0
 55 57  1  0  0  0
 55127  1  0  0  0
 56 69  2  0  0  0
 57 58  2  0  0  0
 57128  1  0  0  0
 58129  1  0  0  0
 59 60  1  0  0  0
 59 61  1  0  0  0
 59 62  1  0  0  0
 60130  1  0  0  0
 60131  1  0  0  0
 60132  1  0  0  0
 61133  1  0  0  0
 61134  1  0  0  0
 61135  1  0  0  0
 62136  1  0  0  0
 62137  1  0  0  0
 62138  1  0  0  0
 63 65  1  0  0  0
 63139  1  0  0  0
 63140  1  0  0  0
 63141  1  0  0  0
 64142  1  0  0  0
 65143  1  0  0  0
 68 82  1  0  0  0
 71 72  2  0  0  0
 71 74  1  0  0  0
 71144  1  0  0  0
 72 73  1  0  0  0
 72 79  1  0  0  0
 73 75  2  0  0  0
 73 81  1  0  0  0
 74 82  1  0  0  0
 74 83  2  0  0  0
 75 80  1  0  0  0
 75 83  1  0  0  0
 76 77  1  0  0  0
 76 78  1  0  0  0
 76145  1  0  0  0
 76146  1  0  0  0
 77 84  1  0  0  0
 77147  1  0  0  0
 77148  1  0  0  0
 78 81  1  0  0  0
 78 84  1  0  0  0
 78149  1  0  0  0
 79150  1  0  0  0
 79151  1  0  0  0
 79152  1  0  0  0
 80153  1  0  0  0
 80154  1  0  0  0
 80155  1  0  0  0
 81156  1  0  0  0
 81157  1  0  0  0
 82158  1  0  0  0
 82159  1  0  0  0
M  ISO  4   1 100  68 101  82 101  84 100
M  END
> <chiral flag>
0

> <version>
0

> <s_m_source_file>
/data/baiqing/PycharmProjects/Reinvent-master-3.2/result/LINK_invent/BTK/process_docking_weight1_custom_sum_contain_oxygen_bond_distance_aromatic_linkinvent_7_9_3/rearranged_h_0181.sdf

> <i_m_source_file_index>
4

> <r_mmod_Potential_Energy-OPLS-2005>
472.201690673828

> <r_mmod_Stretch_Energy-OPLS-2005>
210.018447875977

> <r_mmod_Bend_Energy-OPLS-2005>
288.961761474609

> <r_mmod_Torsional_Energy-OPLS-2005>
322.728240966797

> <r_mmod_Improper_Torsional_Energy-OPLS-2005>
16.2542610168457

> <r_mmod_Van_der_Waal_Energy-OPLS-2005>
134.564666748047

> <r_mmod_Electrostatic_Energy-OPLS-2005>
-457.528991699219

> <r_mmod_Solvation_Energy-OPLS-2005>
-218.333282470703

> <b_mmod_Minimization_Converged-OPLS-2005>
0

> <r_mmod_RMS_Derivative-OPLS-2005>
0.382280111312866

$$$$
4
                    3D
 Structure written by MMmdl.
166175  0  0  1  0            999 V2000
  -30.4908  -15.2949   20.3822 C   0  0  0  0  0  0
  -30.4282  -12.8418   19.5143 C   0  0  0  0  0  0
  -29.5271  -12.5820   18.2822 C   0  0  0  0  0  0
  -28.0862  -12.2907   18.7252 C   0  0  0  0  0  0
  -27.6106  -13.2796   19.8171 C   0  0  2  0  0  0
  -28.6429  -13.5042   20.9442 C   0  0  0  0  0  0
  -25.2428  -13.8247   20.5752 C   0  0  0  0  0  0
  -24.1772  -13.0427   20.9223 C   0  0  0  0  0  0
  -24.6435  -11.6920   20.8737 C   0  0  0  0  0  0
  -23.9118  -10.4277   21.0369 C   0  0  0  0  0  0
  -24.3652   -9.4198   21.9165 C   0  0  0  0  0  0
  -23.6313   -8.2232   22.0740 C   0  0  0  0  0  0
  -22.4303   -8.0271   21.3519 C   0  0  0  0  0  0
  -21.9936   -9.0242   20.4622 C   0  0  0  0  0  0
  -22.7276  -10.2116   20.3023 C   0  0  0  0  0  0
  -21.6871   -6.0738   22.5277 C   0  0  0  0  0  0
  -21.4013   -6.5641   23.8214 C   0  0  0  0  0  0
  -21.3637   -5.6800   24.9167 C   0  0  0  0  0  0
  -21.6044   -4.3057   24.7233 C   0  0  0  0  0  0
  -21.8828   -3.8146   23.4350 C   0  0  0  0  0  0
  -21.9205   -4.6961   22.3407 C   0  0  0  0  0  0
  -22.7789  -13.5172   21.1878 C   0  0  0  0  0  0
  -22.1683   -4.2144   21.0983 F   0  0  0  0  0  0
  -21.5610   -3.4545   25.7742 F   0  0  0  0  0  0
  -29.8673  -14.0112   20.2991 N   0  0  0  0  0  0
  -26.2847  -12.9531   20.3223 N   0  0  0  0  0  0
  -25.9377  -11.6626   20.5706 N   0  0  0  0  0  0
  -22.0457  -12.8125   22.0414 N   0  0  0  0  0  0
  -25.4130  -15.1974   20.4241 N   0  0  0  0  0  0
  -31.7104  -15.2127   20.1721 O   0  0  0  0  0  0
  -21.6647   -6.8868   21.4238 O   0  0  0  0  0  0
  -22.3458  -14.5484   20.6750 O   0  0  0  0  0  0
  -24.6617  -31.8278   23.1727 C   0  0  0  0  0  0
  -25.9350  -32.4609   23.8166 C   0  0  1  0  0  0
  -27.2312  -26.9439   20.1866 C   0  0  0  0  0  0
  -25.6046  -33.8405   24.2122 N   0  0  0  0  0  0
  -23.4733  -30.4369   21.5255 C   0  0  2  0  0  0
  -24.9279  -28.8206   20.1299 C   0  0  0  0  0  0
  -22.7640  -29.4465   22.4848 C   0  0  0  0  0  0
  -18.0317  -28.1433   22.8482 C   0  0  0  0  0  0
  -24.1462  -36.7108   23.2631 C   0  0  0  0  0  0
  -26.0402  -30.6418   21.3993 C   0  0  0  0  0  0
  -26.1140  -29.2274   20.7532 C   0  0  0  0  0  0
  -27.2604  -28.3125   20.7524 C   0  0  0  0  0  0
  -26.0078  -26.6788   19.5321 C   0  0  0  0  0  0
  -24.8998  -27.5634   19.5035 C   0  0  0  0  0  0
  -23.7118  -29.7447   20.1565 C   0  0  0  0  0  0
  -25.4111  -36.2944   24.0307 C   0  0  1  0  0  0
  -20.5931  -28.3751   23.1228 C   0  0  2  0  0  0
  -20.6773  -26.9434   22.5416 C   0  0  0  0  0  0
  -19.5765  -26.6418   21.5206 C   0  0  0  0  0  0
  -18.1956  -26.7980   22.1612 C   0  0  0  0  0  0
  -19.1588  -28.8925   23.2835 C   0  0  0  0  0  0
  -18.9481  -30.1518   23.8855 C   0  0  0  0  0  0
  -17.6478  -30.6616   24.0586 C   0  0  0  0  0  0
  -25.9106  -34.9352   23.5024 C   0  0  0  0  0  0
  -16.5369  -29.9095   23.6361 C   0  0  0  0  0  0
  -16.7310  -28.6524   23.0370 C   0  0  0  0  0  0
  -26.4640  -31.6510   25.0655 C   0  0  0  0  0  0
  -25.3806  -31.3736   26.1342 C   0  0  0  0  0  0
  -27.0506  -30.2892   24.6304 C   0  0  0  0  0  0
  -27.6173  -32.4255   25.7466 C   0  0  0  0  0  0
  -27.5551  -37.1693   24.8477 C   0  0  0  0  0  0
  -21.4329  -29.3020   22.3553 N   0  0  0  0  0  0
  -26.4240  -37.3700   23.9463 N   0  0  0  0  0  0
  -24.7459  -30.9936   22.0879 N   0  0  0  0  0  0
  -23.4187  -28.8055   23.3118 O   0  0  0  0  0  0
  -28.2865  -25.8988   20.1128 O   0  0  0  0  0  0
  -26.5652  -34.8883   22.4586 O   0  0  0  0  0  0
  -23.5705  -32.1288   23.6844 O   0  0  0  0  0  0
  -28.6962  -23.1572   19.7701 C   0  0  0  0  0  0
  -28.3323  -24.4285   20.4362 C   0  0  0  0  0  0
  -28.7614  -22.6731   21.8374 C   0  0  0  0  0  0
  -29.6429  -19.3697   19.3158 C   0  0  0  0  0  0
  -28.7896  -19.1067   21.4398 C   0  0  0  0  0  0
  -30.3360  -17.8332   19.4493 C   0  0  0  0  0  0
  -29.4176  -17.5411   21.5334 C   0  0  0  0  0  0
  -29.4528  -20.3371   20.5988 C   0  0  0  0  0  0
  -30.2159  -23.6266   17.7935 C   0  0  0  0  0  0
  -29.9498  -22.5645   25.5920 C   0  0  0  0  0  0
  -28.9174  -22.9836   18.2973 C   0  0  0  0  0  0
  -29.0863  -22.0864   23.1920 C   0  0  0  0  0  0
  -29.4055  -23.1480   24.2784 C   0  0  0  0  0  0
  -28.3660  -23.9785   21.7557 N   0  0  0  0  0  0
  -28.9133  -21.9544   20.6717 N   0  0  0  0  0  0
  -29.8425  -16.6553   20.3419 N   0  0  0  0  0  0
  -31.4433  -13.0379   19.1674 H   0  0  0  0  0  0
  -30.4971  -11.9496   20.1380 H   0  0  0  0  0  0
  -29.9118  -11.7492   17.6920 H   0  0  0  0  0  0
  -29.5398  -13.4544   17.6260 H   0  0  0  0  0  0
  -28.0633  -11.2736   19.1165 H   0  0  0  0  0  0
  -27.4120  -12.3051   17.8678 H   0  0  0  0  0  0
  -27.5118  -14.2336   19.2978 H   0  0  0  0  0  0
  -28.8225  -12.5938   21.5180 H   0  0  0  0  0  0
  -28.2728  -14.2541   21.6454 H   0  0  0  0  0  0
  -25.2787   -9.5678   22.4760 H   0  0  0  0  0  0
  -24.0026   -7.4625   22.7464 H   0  0  0  0  0  0
  -21.0872   -8.8764   19.8916 H   0  0  0  0  0  0
  -22.3734  -10.9660   19.6135 H   0  0  0  0  0  0
  -21.2003   -7.6154   23.9707 H   0  0  0  0  0  0
  -21.1440   -6.0522   25.9069 H   0  0  0  0  0  0
  -22.0620   -2.7605   23.2867 H   0  0  0  0  0  0
  -22.4124  -11.9813   22.4825 H   0  0  0  0  0  0
  -21.1039  -13.1060   22.2568 H   0  0  0  0  0  0
  -24.6526  -15.8571   20.5411 H   0  0  0  0  0  0
  -26.2817  -15.6369   20.1468 H   0  0  0  0  0  0
  -26.7417  -32.5231   23.0876 H   0  0  0  0  0  0
  -25.0269  -33.9460   25.0334 H   0  0  0  0  0  0
  -22.7820  -31.2653   21.3548 H   0  0  0  0  0  0
  -23.3802  -35.9361   23.3274 H   0  0  0  0  0  0
  -24.3522  -36.8753   22.2040 H   0  0  0  0  0  0
  -23.7124  -37.6245   23.6701 H   0  0  0  0  0  0
  -26.2015  -31.3809   20.6131 H   0  0  0  0  0  0
  -26.9029  -30.7130   22.0482 H   0  0  0  0  0  0
  -28.1735  -28.6344   21.2308 H   0  0  0  0  0  0
  -25.8957  -25.7151   19.0545 H   0  0  0  0  0  0
  -23.9976  -27.2430   19.0026 H   0  0  0  0  0  0
  -23.8617  -30.5079   19.3931 H   0  0  0  0  0  0
  -22.8215  -29.1939   19.8474 H   0  0  0  0  0  0
  -25.1286  -36.1716   25.0784 H   0  0  0  0  0  0
  -21.0046  -28.3381   24.1349 H   0  0  0  0  0  0
  -20.5656  -26.2350   23.3627 H   0  0  0  0  0  0
  -21.6632  -26.7413   22.1225 H   0  0  0  0  0  0
  -19.6895  -25.6331   21.1222 H   0  0  0  0  0  0
  -19.6709  -27.3219   20.6730 H   0  0  0  0  0  0
  -17.4208  -26.6772   21.4019 H   0  0  0  0  0  0
  -18.0339  -26.0116   22.8998 H   0  0  0  0  0  0
  -19.7955  -30.7394   24.2166 H   0  0  0  0  0  0
  -17.5013  -31.6285   24.5199 H   0  0  0  0  0  0
  -15.5372  -30.2969   23.7732 H   0  0  0  0  0  0
  -15.8702  -28.0836   22.7104 H   0  0  0  0  0  0
  -24.6143  -30.6862   25.7746 H   0  0  0  0  0  0
  -24.8813  -32.2893   26.4511 H   0  0  0  0  0  0
  -25.8108  -30.9196   27.0281 H   0  0  0  0  0  0
  -26.3175  -29.6607   24.1244 H   0  0  0  0  0  0
  -27.4031  -29.7186   25.4900 H   0  0  0  0  0  0
  -27.9096  -30.4068   23.9697 H   0  0  0  0  0  0
  -27.2881  -33.3724   26.1750 H   0  0  0  0  0  0
  -28.4174  -32.6482   25.0398 H   0  0  0  0  0  0
  -28.0616  -31.8527   26.5616 H   0  0  0  0  0  0
  -28.2531  -38.0022   24.7598 H   0  0  0  0  0  0
  -28.1074  -36.2554   24.6230 H   0  0  0  0  0  0
  -27.2263  -37.1246   25.8870 H   0  0  0  0  0  0
  -20.9619  -29.8579   21.6535 H   0  0  0  0  0  0
  -26.0076  -38.2726   24.1606 H   0  0  0  0  0  0
  -28.6752  -19.2654   18.8230 H   0  0  0  0  0  0
  -30.2510  -19.9257   18.6017 H   0  0  0  0  0  0
  -28.6777  -19.4485   22.4663 H   0  0  0  0  0  0
  -27.7631  -19.0088   21.0848 H   0  0  0  0  0  0
  -31.3783  -17.9936   19.7326 H   0  0  0  0  0  0
  -30.3959  -17.4297   18.4366 H   0  0  0  0  0  0
  -28.6953  -16.9491   22.0983 H   0  0  0  0  0  0
  -30.2961  -17.5905   22.1788 H   0  0  0  0  0  0
  -30.4664  -20.4200   20.9907 H   0  0  0  0  0  0
  -30.3963  -23.3749   16.7464 H   0  0  0  0  0  0
  -31.0768  -23.2894   18.3749 H   0  0  0  0  0  0
  -30.1645  -24.7147   17.8694 H   0  0  0  0  0  0
  -30.1444  -23.3576   26.3158 H   0  0  0  0  0  0
  -30.8892  -22.0320   25.4381 H   0  0  0  0  0  0
  -29.2385  -21.8748   26.0454 H   0  0  0  0  0  0
  -28.0739  -23.4112   17.7530 H   0  0  0  0  0  0
  -28.9206  -21.9215   18.0479 H   0  0  0  0  0  0
  -29.9626  -21.4449   23.0829 H   0  0  0  0  0  0
  -28.2595  -21.4574   23.5199 H   0  0  0  0  0  0
  -30.1365  -23.8618   23.8921 H   0  0  0  0  0  0
  -28.5052  -23.7269   24.4946 H   0  0  0  0  0  0
  1 25  1  0  0  0
  1 30  2  0  0  0
  1 86  1  0  0  0
  2  3  1  0  0  0
  2 25  1  0  0  0
  2 87  1  0  0  0
  2 88  1  0  0  0
  3  4  1  0  0  0
  3 89  1  0  0  0
  3 90  1  0  0  0
  4  5  1  0  0  0
  4 91  1  0  0  0
  4 92  1  0  0  0
  5  6  1  0  0  0
  5 26  1  0  0  0
  5 93  1  0  0  0
  6 25  1  0  0  0
  6 94  1  0  0  0
  6 95  1  0  0  0
  7  8  2  0  0  0
  7 26  1  0  0  0
  7 29  1  0  0  0
  8  9  1  0  0  0
  8 22  1  0  0  0
  9 10  1  0  0  0
  9 27  2  0  0  0
 10 11  2  0  0  0
 10 15  1  0  0  0
 11 12  1  0  0  0
 11 96  1  0  0  0
 12 13  2  0  0  0
 12 97  1  0  0  0
 13 14  1  0  0  0
 13 31  1  0  0  0
 14 15  2  0  0  0
 14 98  1  0  0  0
 15 99  1  0  0  0
 16 17  2  0  0  0
 16 21  1  0  0  0
 16 31  1  0  0  0
 17 18  1  0  0  0
 17100  1  0  0  0
 18 19  2  0  0  0
 18101  1  0  0  0
 19 20  1  0  0  0
 19 24  1  0  0  0
 20 21  2  0  0  0
 20102  1  0  0  0
 21 23  1  0  0  0
 22 28  1  0  0  0
 22 32  2  0  0  0
 26 27  1  0  0  0
 28103  1  0  0  0
 28104  1  0  0  0
 29105  1  0  0  0
 29106  1  0  0  0
 33 34  1  0  0  0
 33 66  1  0  0  0
 33 70  2  0  0  0
 34 36  1  0  0  0
 34 59  1  0  0  0
 34107  1  0  0  0
 35 44  2  0  0  0
 35 45  1  0  0  0
 35 68  1  0  0  0
 36 56  1  0  0  0
 36108  1  0  0  0
 37 39  1  0  0  0
 37 47  1  0  0  0
 37 66  1  0  0  0
 37109  1  0  0  0
 38 43  2  0  0  0
 38 46  1  0  0  0
 38 47  1  0  0  0
 39 64  1  0  0  0
 39 67  2  0  0  0
 40 52  1  0  0  0
 40 53  2  0  0  0
 40 58  1  0  0  0
 41110  1  0  0  0
 41111  1  0  0  0
 41112  1  0  0  0
 41 48  1  0  0  0
 42 43  1  0  0  0
 42 66  1  0  0  0
 42113  1  0  0  0
 42114  1  0  0  0
 43 44  1  0  0  0
 44115  1  0  0  0
 45 46  2  0  0  0
 45116  1  0  0  0
 46117  1  0  0  0
 47118  1  0  0  0
 47119  1  0  0  0
 48 56  1  0  0  0
 48 65  1  0  0  0
 48120  1  0  0  0
 49 50  1  0  0  0
 49 53  1  0  0  0
 49 64  1  0  0  0
 49121  1  0  0  0
 50 51  1  0  0  0
 50122  1  0  0  0
 50123  1  0  0  0
 51 52  1  0  0  0
 51124  1  0  0  0
 51125  1  0  0  0
 52126  1  0  0  0
 52127  1  0  0  0
 53 54  1  0  0  0
 54 55  2  0  0  0
 54128  1  0  0  0
 55 57  1  0  0  0
 55129  1  0  0  0
 56 69  2  0  0  0
 57 58  2  0  0  0
 57130  1  0  0  0
 58131  1  0  0  0
 59 60  1  0  0  0
 59 61  1  0  0  0
 59 62  1  0  0  0
 60132  1  0  0  0
 60133  1  0  0  0
 60134  1  0  0  0
 61135  1  0  0  0
 61136  1  0  0  0
 61137  1  0  0  0
 62138  1  0  0  0
 62139  1  0  0  0
 62140  1  0  0  0
 63 65  1  0  0  0
 63141  1  0  0  0
 63142  1  0  0  0
 63143  1  0  0  0
 64144  1  0  0  0
 65145  1  0  0  0
 68 72  1  0  0  0
 71 72  2  0  0  0
 71 81  1  0  0  0
 71 85  1  0  0  0
 72 84  1  0  0  0
 73 82  1  0  0  0
 73 84  2  0  0  0
 73 85  1  0  0  0
 74 76  1  0  0  0
 74 78  1  0  0  0
 74146  1  0  0  0
 74147  1  0  0  0
 75 77  1  0  0  0
 75 78  1  0  0  0
 75148  1  0  0  0
 75149  1  0  0  0
 76 86  1  0  0  0
 76150  1  0  0  0
 76151  1  0  0  0
 77 86  1  0  0  0
 77152  1  0  0  0
 77153  1  0  0  0
 78 85  1  0  0  0
 78154  1  0  0  0
 79 81  1  0  0  0
 79155  1  0  0  0
 79156  1  0  0  0
 79157  1  0  0  0
 80 83  1  0  0  0
 80158  1  0  0  0
 80159  1  0  0  0
 80160  1  0  0  0
 81161  1  0  0  0
 81162  1  0  0  0
 82 83  1  0  0  0
 82163  1  0  0  0
 82164  1  0  0  0
 83165  1  0  0  0
 83166  1  0  0  0
M  ISO  4   1 100  68 101  72 101  86 100
M  END
> <chiral flag>
0

> <version>
0

> <s_m_source_file>
/data/baiqing/PycharmProjects/Reinvent-master-3.2/result/LINK_invent/BTK/process_docking_weight1_custom_sum_contain_oxygen_bond_distance_aromatic_linkinvent_7_9_3/rearranged_h_0181.sdf

> <i_m_source_file_index>
5

> <r_mmod_Potential_Energy-OPLS-2005>
1462.89416503906

> <r_mmod_Stretch_Energy-OPLS-2005>
491.940460205078

> <r_mmod_Bend_Energy-OPLS-2005>
497.132965087891

> <r_mmod_Torsional_Energy-OPLS-2005>
372.922393798828

> <r_mmod_Improper_Torsional_Energy-OPLS-2005>
18.0308494567871

> <r_mmod_Van_der_Waal_Energy-OPLS-2005>
105.421829223633

> <r_mmod_Electrostatic_Energy-OPLS-2005>
-264.0244140625

> <r_mmod_Solvation_Energy-OPLS-2005>
-205.424789428711

> <b_mmod_Minimization_Converged-OPLS-2005>
0

> <r_mmod_RMS_Derivative-OPLS-2005>
4.69936180114746

$$$$
5
                    3D
 Structure written by MMmdl.
160169  0  0  1  0            999 V2000
  -30.6843  -14.6064   20.4840 C   0  0  0  0  0  0
  -30.4139  -12.3721   19.4519 C   0  0  0  0  0  0
  -29.4960  -12.4946   18.2192 C   0  0  0  0  0  0
  -28.0203  -12.3442   18.6349 C   0  0  0  0  0  0
  -27.6447  -13.2265   19.8567 C   0  0  2  0  0  0
  -28.6910  -13.1225   20.9874 C   0  0  0  0  0  0
  -25.2525  -13.8200   20.5713 C   0  0  0  0  0  0
  -24.1800  -13.0446   20.9199 C   0  0  0  0  0  0
  -24.6385  -11.6922   20.8747 C   0  0  0  0  0  0
  -23.9062  -10.4296   21.0408 C   0  0  0  0  0  0
  -24.3615   -9.4211   21.9185 C   0  0  0  0  0  0
  -23.6294   -8.2244   22.0753 C   0  0  0  0  0  0
  -22.4276   -8.0280   21.3544 C   0  0  0  0  0  0
  -21.9912   -9.0251   20.4644 C   0  0  0  0  0  0
  -22.7235  -10.2135   20.3056 C   0  0  0  0  0  0
  -21.6853   -6.0735   22.5279 C   0  0  0  0  0  0
  -21.4011   -6.5639   23.8212 C   0  0  0  0  0  0
  -21.3663   -5.6795   24.9177 C   0  0  0  0  0  0
  -21.6047   -4.3057   24.7229 C   0  0  0  0  0  0
  -21.8820   -3.8147   23.4350 C   0  0  0  0  0  0
  -21.9191   -4.6962   22.3404 C   0  0  0  0  0  0
  -22.7822  -13.5228   21.1864 C   0  0  0  0  0  0
  -22.1660   -4.2146   21.0982 F   0  0  0  0  0  0
  -21.5634   -3.4542   25.7743 F   0  0  0  0  0  0
  -30.0027  -13.4227   20.4033 N   0  0  0  0  0  0
  -26.2952  -12.9397   20.3327 N   0  0  0  0  0  0
  -25.9317  -11.6540   20.5772 N   0  0  0  0  0  0
  -22.0469  -12.8211   22.0419 N   0  0  0  0  0  0
  -25.4252  -15.1920   20.4154 N   0  0  0  0  0  0
  -31.8728  -14.6737   20.1546 O   0  0  0  0  0  0
  -21.6641   -6.8877   21.4241 O   0  0  0  0  0  0
  -22.3503  -14.5535   20.6719 O   0  0  0  0  0  0
  -24.6231  -31.8617   23.2044 C   0  0  0  0  0  0
  -25.9091  -32.4789   23.8365 C   0  0  1  0  0  0
  -27.2193  -27.3464   20.1219 C   0  0  0  0  0  0
  -25.5921  -33.8591   24.2293 N   0  0  0  0  0  0
  -23.4158  -30.4850   21.5463 C   0  0  2  0  0  0
  -24.8629  -28.9427   20.1113 C   0  0  0  0  0  0
  -22.7458  -29.4631   22.4950 C   0  0  0  0  0  0
  -18.0281  -28.1382   22.8495 C   0  0  0  0  0  0
  -24.1488  -36.7301   23.2636 C   0  0  0  0  0  0
  -25.9536  -30.8018   21.3707 C   0  0  0  0  0  0
  -26.0297  -29.4306   20.7151 C   0  0  0  0  0  0
  -27.2160  -28.6436   20.7104 C   0  0  0  0  0  0
  -26.0390  -26.9054   19.4878 C   0  0  0  0  0  0
  -24.8673  -27.6843   19.4884 C   0  0  0  0  0  0
  -23.6286  -29.8184   20.1616 C   0  0  0  0  0  0
  -25.4112  -36.3093   24.0330 C   0  0  1  0  0  0
  -20.5878  -28.3684   23.1296 C   0  0  2  0  0  0
  -20.6772  -26.9411   22.5416 C   0  0  0  0  0  0
  -19.5747  -26.6385   21.5217 C   0  0  0  0  0  0
  -18.1925  -26.7928   22.1627 C   0  0  0  0  0  0
  -19.1532  -28.8850   23.2890 C   0  0  0  0  0  0
  -18.9455  -30.1455   23.8901 C   0  0  0  0  0  0
  -17.6455  -30.6587   24.0565 C   0  0  0  0  0  0
  -25.9048  -34.9460   23.5111 C   0  0  0  0  0  0
  -16.5346  -29.9084   23.6332 C   0  0  0  0  0  0
  -16.7268  -28.6500   23.0357 C   0  0  0  0  0  0
  -26.4488  -31.6590   25.0724 C   0  0  0  0  0  0
  -25.3734  -31.3713   26.1458 C   0  0  0  0  0  0
  -27.0328  -30.3018   24.6156 C   0  0  0  0  0  0
  -27.6054  -32.4317   25.7495 C   0  0  0  0  0  0
  -27.5587  -37.1794   24.8456 C   0  0  0  0  0  0
  -21.4174  -29.3040   22.3693 N   0  0  0  0  0  0
  -26.4287  -37.3789   23.9418 N   0  0  0  0  0  0
  -24.6829  -31.0652   22.0979 N   0  0  0  0  0  0
  -23.4192  -28.8171   23.3022 O   0  0  0  0  0  0
  -28.3206  -26.4921   20.1475 O   0  0  0  0  0  0
  -26.5613  -34.8922   22.4674 O   0  0  0  0  0  0
  -23.5401  -32.1404   23.7386 O   0  0  0  0  0  0
  -28.4685  -22.6138   20.8542 C   0  0  0  0  0  0
  -28.7543  -23.8804   20.2453 C   0  0  0  0  0  0
  -29.6523  -23.8236   19.1486 C   0  0  0  0  0  0
  -29.0686  -21.4138   20.3599 C   0  0  0  0  0  0
  -28.8907  -17.9098   19.6728 C   0  0  0  0  0  0
  -29.7085  -18.0137   21.9632 C   0  0  0  0  0  0
  -29.6845  -16.5733   19.4684 C   0  0  0  0  0  0
  -30.4968  -16.6801   21.7471 C   0  0  0  0  0  0
  -29.5564  -18.8724   20.6838 C   0  0  0  0  0  0
  -28.0951  -25.1894   20.7959 C   0  0  0  0  0  0
  -30.0587  -25.0653   18.3594 C   0  0  0  0  0  0
  -30.1899  -22.6457   18.7150 N   0  0  0  0  0  0
  -29.9139  -21.4732   19.3053 N   0  0  0  0  0  0
  -29.9767  -15.7725   20.6914 N   0  0  0  0  0  0
  -28.7994  -20.1364   20.9298 N   0  0  0  0  0  0
  -29.0472  -25.4874   17.5981 F   0  0  0  0  0  0
  -31.1177  -24.8414   17.5772 F   0  0  0  0  0  0
  -31.4595  -12.4599   19.1515 H   0  0  0  0  0  0
  -30.3162  -11.3866   19.9102 H   0  0  0  0  0  0
  -29.7545  -11.7370   17.4781 H   0  0  0  0  0  0
  -29.6485  -13.4612   17.7358 H   0  0  0  0  0  0
  -27.8546  -11.2933   18.8740 H   0  0  0  0  0  0
  -27.3657  -12.5694   17.7921 H   0  0  0  0  0  0
  -27.6500  -14.2562   19.5018 H   0  0  0  0  0  0
  -28.6923  -12.1244   21.4278 H   0  0  0  0  0  0
  -28.4531  -13.8169   21.7950 H   0  0  0  0  0  0
  -25.2760   -9.5695   22.4761 H   0  0  0  0  0  0
  -24.0006   -7.4639   22.7475 H   0  0  0  0  0  0
  -21.0846   -8.8767   19.8948 H   0  0  0  0  0  0
  -22.3688  -10.9676   19.6169 H   0  0  0  0  0  0
  -21.1996   -7.6147   23.9713 H   0  0  0  0  0  0
  -21.1488   -6.0527   25.9080 H   0  0  0  0  0  0
  -22.0595   -2.7607   23.2853 H   0  0  0  0  0  0
  -22.4088  -11.9870   22.4804 H   0  0  0  0  0  0
  -21.1087  -13.1230   22.2628 H   0  0  0  0  0  0
  -24.6673  -15.8543   20.5385 H   0  0  0  0  0  0
  -26.2942  -15.6299   20.1373 H   0  0  0  0  0  0
  -26.7160  -32.5471   23.1119 H   0  0  0  0  0  0
  -25.0074  -33.9748   25.0439 H   0  0  0  0  0  0
  -22.7080  -31.3043   21.4040 H   0  0  0  0  0  0
  -23.3760  -35.9621   23.3274 H   0  0  0  0  0  0
  -24.3586  -36.8951   22.2056 H   0  0  0  0  0  0
  -23.7225  -37.6488   23.6675 H   0  0  0  0  0  0
  -26.0783  -31.5650   20.6013 H   0  0  0  0  0  0
  -26.8368  -30.8528   21.9960 H   0  0  0  0  0  0
  -28.1132  -29.0104   21.1891 H   0  0  0  0  0  0
  -26.0176  -25.9394   19.0026 H   0  0  0  0  0  0
  -23.9737  -27.3063   19.0108 H   0  0  0  0  0  0
  -23.7427  -30.5936   19.4032 H   0  0  0  0  0  0
  -22.7498  -29.2434   19.8633 H   0  0  0  0  0  0
  -25.1283  -36.1946   25.0821 H   0  0  0  0  0  0
  -20.9967  -28.3257   24.1417 H   0  0  0  0  0  0
  -20.5686  -26.2289   23.3610 H   0  0  0  0  0  0
  -21.6641  -26.7453   22.1204 H   0  0  0  0  0  0
  -19.6911  -25.6298   21.1241 H   0  0  0  0  0  0
  -19.6682  -27.3200   20.6751 H   0  0  0  0  0  0
  -17.4197  -26.6685   21.4023 H   0  0  0  0  0  0
  -18.0316  -26.0064   22.9018 H   0  0  0  0  0  0
  -19.7931  -30.7273   24.2267 H   0  0  0  0  0  0
  -17.5009  -31.6267   24.5167 H   0  0  0  0  0  0
  -15.5347  -30.2986   23.7658 H   0  0  0  0  0  0
  -15.8668  -28.0819   22.7072 H   0  0  0  0  0  0
  -24.5908  -30.7062   25.7789 H   0  0  0  0  0  0
  -24.8922  -32.2871   26.4899 H   0  0  0  0  0  0
  -25.8071  -30.8883   27.0223 H   0  0  0  0  0  0
  -26.2893  -29.6768   24.1193 H   0  0  0  0  0  0
  -27.4051  -29.7271   25.4648 H   0  0  0  0  0  0
  -27.8750  -30.4314   23.9355 H   0  0  0  0  0  0
  -27.2672  -33.3617   26.2076 H   0  0  0  0  0  0
  -28.3864  -32.6876   25.0323 H   0  0  0  0  0  0
  -28.0719  -31.8436   26.5409 H   0  0  0  0  0  0
  -28.2571  -38.0125   24.7559 H   0  0  0  0  0  0
  -28.1119  -36.2659   24.6211 H   0  0  0  0  0  0
  -27.2311  -37.1358   25.8858 H   0  0  0  0  0  0
  -20.9344  -29.8760   21.6907 H   0  0  0  0  0  0
  -26.0169  -38.2857   24.1454 H   0  0  0  0  0  0
  -27.7926  -22.5679   21.6953 H   0  0  0  0  0  0
  -27.8769  -17.6735   19.9998 H   0  0  0  0  0  0
  -28.7848  -18.4108   18.7096 H   0  0  0  0  0  0
  -30.2136  -18.5974   22.7344 H   0  0  0  0  0  0
  -28.7225  -17.7754   22.3663 H   0  0  0  0  0  0
  -30.6305  -16.8120   18.9774 H   0  0  0  0  0  0
  -29.1381  -15.9489   18.7599 H   0  0  0  0  0  0
  -30.5239  -16.1334   22.6913 H   0  0  0  0  0  0
  -31.5348  -16.9306   21.5183 H   0  0  0  0  0  0
  -30.5534  -19.1300   20.3221 H   0  0  0  0  0  0
  -28.4552  -25.3026   21.8190 H   0  0  0  0  0  0
  -27.0313  -24.9761   20.9044 H   0  0  0  0  0  0
  -30.3522  -25.8738   19.0269 H   0  0  0  0  0  0
  -28.1677  -20.1376   21.7230 H   0  0  0  0  0  0
  1 25  1  0  0  0
  1 30  2  0  0  0
  1 84  1  0  0  0
  2  3  1  0  0  0
  2 25  1  0  0  0
  2 88  1  0  0  0
  2 89  1  0  0  0
  3  4  1  0  0  0
  3 90  1  0  0  0
  3 91  1  0  0  0
  4  5  1  0  0  0
  4 92  1  0  0  0
  4 93  1  0  0  0
  5  6  1  0  0  0
  5 26  1  0  0  0
  5 94  1  0  0  0
  6 25  1  0  0  0
  6 95  1  0  0  0
  6 96  1  0  0  0
  7  8  2  0  0  0
  7 26  1  0  0  0
  7 29  1  0  0  0
  8  9  1  0  0  0
  8 22  1  0  0  0
  9 10  1  0  0  0
  9 27  2  0  0  0
 10 11  2  0  0  0
 10 15  1  0  0  0
 11 12  1  0  0  0
 11 97  1  0  0  0
 12 13  2  0  0  0
 12 98  1  0  0  0
 13 14  1  0  0  0
 13 31  1  0  0  0
 14 15  2  0  0  0
 14 99  1  0  0  0
 15100  1  0  0  0
 16 17  2  0  0  0
 16 21  1  0  0  0
 16 31  1  0  0  0
 17 18  1  0  0  0
 17101  1  0  0  0
 18 19  2  0  0  0
 18102  1  0  0  0
 19 20  1  0  0  0
 19 24  1  0  0  0
 20 21  2  0  0  0
 20103  1  0  0  0
 21 23  1  0  0  0
 22 28  1  0  0  0
 22 32  2  0  0  0
 26 27  1  0  0  0
 28104  1  0  0  0
 28105  1  0  0  0
 29106  1  0  0  0
 29107  1  0  0  0
 33 34  1  0  0  0
 33 66  1  0  0  0
 33 70  2  0  0  0
 34 36  1  0  0  0
 34 59  1  0  0  0
 34108  1  0  0  0
 35 44  2  0  0  0
 35 45  1  0  0  0
 35 68  1  0  0  0
 36 56  1  0  0  0
 36109  1  0  0  0
 37 39  1  0  0  0
 37 47  1  0  0  0
 37 66  1  0  0  0
 37110  1  0  0  0
 38 43  2  0  0  0
 38 46  1  0  0  0
 38 47  1  0  0  0
 39 64  1  0  0  0
 39 67  2  0  0  0
 40 52  1  0  0  0
 40 53  2  0  0  0
 40 58  1  0  0  0
 41111  1  0  0  0
 41112  1  0  0  0
 41113  1  0  0  0
 41 48  1  0  0  0
 42 43  1  0  0  0
 42 66  1  0  0  0
 42114  1  0  0  0
 42115  1  0  0  0
 43 44  1  0  0  0
 44116  1  0  0  0
 45 46  2  0  0  0
 45117  1  0  0  0
 46118  1  0  0  0
 47119  1  0  0  0
 47120  1  0  0  0
 48 56  1  0  0  0
 48 65  1  0  0  0
 48121  1  0  0  0
 49 50  1  0  0  0
 49 53  1  0  0  0
 49 64  1  0  0  0
 49122  1  0  0  0
 50 51  1  0  0  0
 50123  1  0  0  0
 50124  1  0  0  0
 51 52  1  0  0  0
 51125  1  0  0  0
 51126  1  0  0  0
 52127  1  0  0  0
 52128  1  0  0  0
 53 54  1  0  0  0
 54 55  2  0  0  0
 54129  1  0  0  0
 55 57  1  0  0  0
 55130  1  0  0  0
 56 69  2  0  0  0
 57 58  2  0  0  0
 57131  1  0  0  0
 58132  1  0  0  0
 59 60  1  0  0  0
 59 61  1  0  0  0
 59 62  1  0  0  0
 60133  1  0  0  0
 60134  1  0  0  0
 60135  1  0  0  0
 61136  1  0  0  0
 61137  1  0  0  0
 61138  1  0  0  0
 62139  1  0  0  0
 62140  1  0  0  0
 62141  1  0  0  0
 63 65  1  0  0  0
 63142  1  0  0  0
 63143  1  0  0  0
 63144  1  0  0  0
 64145  1  0  0  0
 65146  1  0  0  0
 68 80  1  0  0  0
 71 72  2  0  0  0
 71 74  1  0  0  0
 71147  1  0  0  0
 72 73  1  0  0  0
 72 80  1  0  0  0
 73 81  1  0  0  0
 73 82  2  0  0  0
 74 83  2  0  0  0
 74 85  1  0  0  0
 75 77  1  0  0  0
 75 79  1  0  0  0
 75148  1  0  0  0
 75149  1  0  0  0
 76 78  1  0  0  0
 76 79  1  0  0  0
 76150  1  0  0  0
 76151  1  0  0  0
 77 84  1  0  0  0
 77152  1  0  0  0
 77153  1  0  0  0
 78 84  1  0  0  0
 78154  1  0  0  0
 78155  1  0  0  0
 79 85  1  0  0  0
 79156  1  0  0  0
 80157  1  0  0  0
 80158  1  0  0  0
 81 86  1  0  0  0
 81 87  1  0  0  0
 81159  1  0  0  0
 82 83  1  0  0  0
 85160  1  0  0  0
M  ISO  4   1 100  68 101  80 101  84 100
M  END
> <chiral flag>
0

> <version>
0

> <s_m_source_file>
/data/baiqing/PycharmProjects/Reinvent-master-3.2/result/LINK_invent/BTK/process_docking_weight1_custom_sum_contain_oxygen_bond_distance_aromatic_linkinvent_7_9_3/rearranged_h_0181.sdf

> <i_m_source_file_index>
6

> <r_mmod_Potential_Energy-OPLS-2005>
225.085525512695

> <r_mmod_Stretch_Energy-OPLS-2005>
68.884651184082

> <r_mmod_Bend_Energy-OPLS-2005>
155.447830200195

> <r_mmod_Torsional_Energy-OPLS-2005>
342.764404296875

> <r_mmod_Improper_Torsional_Energy-OPLS-2005>
10.8454113006592

> <r_mmod_Van_der_Waal_Energy-OPLS-2005>
149.688690185547

> <r_mmod_Electrostatic_Energy-OPLS-2005>
-321.183532714844

> <r_mmod_Solvation_Energy-OPLS-2005>
-224.730026245117

> <b_mmod_Minimization_Converged-OPLS-2005>
0

> <r_mmod_RMS_Derivative-OPLS-2005>
0.432751804590225

$$$$
6
                    3D
 Structure written by MMmdl.
165175  0  0  1  0            999 V2000
  -30.6192  -14.9117   20.4243 C   0  0  0  0  0  0
  -30.4182  -12.5748   19.4860 C   0  0  0  0  0  0
  -29.5046  -12.5193   18.2436 C   0  0  0  0  0  0
  -28.0400  -12.3140   18.6690 C   0  0  0  0  0  0
  -27.6229  -13.2502   19.8344 C   0  0  2  0  0  0
  -28.6719  -13.2878   20.9659 C   0  0  0  0  0  0
  -25.2430  -13.8216   20.5728 C   0  0  0  0  0  0
  -24.1757  -13.0437   20.9251 C   0  0  0  0  0  0
  -24.6379  -11.6926   20.8774 C   0  0  0  0  0  0
  -23.9069  -10.4293   21.0417 C   0  0  0  0  0  0
  -24.3622   -9.4206   21.9189 C   0  0  0  0  0  0
  -23.6298   -8.2238   22.0751 C   0  0  0  0  0  0
  -22.4278   -8.0279   21.3543 C   0  0  0  0  0  0
  -21.9916   -9.0254   20.4647 C   0  0  0  0  0  0
  -22.7244  -10.2134   20.3064 C   0  0  0  0  0  0
  -21.6856   -6.0734   22.5278 C   0  0  0  0  0  0
  -21.4014   -6.5637   23.8212 C   0  0  0  0  0  0
  -21.3660   -5.6788   24.9172 C   0  0  0  0  0  0
  -21.6047   -4.3051   24.7224 C   0  0  0  0  0  0
  -21.8816   -3.8144   23.4345 C   0  0  0  0  0  0
  -21.9192   -4.6962   22.3400 C   0  0  0  0  0  0
  -22.7778  -13.5212   21.1894 C   0  0  0  0  0  0
  -22.1663   -4.2145   21.0981 F   0  0  0  0  0  0
  -21.5631   -3.4536   25.7739 F   0  0  0  0  0  0
  -29.9371  -13.6978   20.3452 N   0  0  0  0  0  0
  -26.2852  -12.9458   20.3261 N   0  0  0  0  0  0
  -25.9310  -11.6586   20.5760 N   0  0  0  0  0  0
  -22.0425  -12.8205   22.0451 N   0  0  0  0  0  0
  -25.4071  -15.1940   20.4125 N   0  0  0  0  0  0
  -31.8329  -14.8504   20.1988 O   0  0  0  0  0  0
  -21.6642   -6.8878   21.4241 O   0  0  0  0  0  0
  -22.3468  -14.5516   20.6731 O   0  0  0  0  0  0
  -24.6413  -31.8461   23.1900 C   0  0  0  0  0  0
  -25.9196  -32.4702   23.8278 C   0  0  1  0  0  0
  -27.2141  -27.1548   20.1366 C   0  0  0  0  0  0
  -25.5956  -33.8508   24.2197 N   0  0  0  0  0  0
  -23.4427  -30.4669   21.5357 C   0  0  2  0  0  0
  -24.8891  -28.8973   20.1094 C   0  0  0  0  0  0
  -22.7552  -29.4556   22.4866 C   0  0  0  0  0  0
  -18.0301  -28.1395   22.8474 C   0  0  0  0  0  0
  -24.1493  -36.7261   23.2642 C   0  0  0  0  0  0
  -25.9974  -30.7251   21.3857 C   0  0  0  0  0  0
  -26.0660  -29.3384   20.7258 C   0  0  0  0  0  0
  -27.2268  -28.4817   20.7253 C   0  0  0  0  0  0
  -26.0045  -26.8079   19.4937 C   0  0  0  0  0  0
  -24.8693  -27.6441   19.4810 C   0  0  0  0  0  0
  -23.6668  -29.7985   20.1537 C   0  0  0  0  0  0
  -25.4122  -36.3033   24.0317 C   0  0  1  0  0  0
  -20.5913  -28.3717   23.1244 C   0  0  2  0  0  0
  -20.6782  -26.9420   22.5415 C   0  0  0  0  0  0
  -19.5764  -26.6378   21.5215 C   0  0  0  0  0  0
  -18.1940  -26.7936   22.1615 C   0  0  0  0  0  0
  -19.1558  -28.8872   23.2855 C   0  0  0  0  0  0
  -18.9474  -30.1468   23.8878 C   0  0  0  0  0  0
  -17.6471  -30.6590   24.0559 C   0  0  0  0  0  0
  -25.9072  -34.9410   23.5064 C   0  0  0  0  0  0
  -16.5362  -29.9080   23.6338 C   0  0  0  0  0  0
  -16.7287  -28.6504   23.0351 C   0  0  0  0  0  0
  -26.4524  -31.6568   25.0717 C   0  0  0  0  0  0
  -25.3716  -31.3765   26.1422 C   0  0  0  0  0  0
  -27.0386  -30.2960   24.6294 C   0  0  0  0  0  0
  -27.6057  -32.4336   25.7494 C   0  0  0  0  0  0
  -27.5581  -37.1776   24.8456 C   0  0  0  0  0  0
  -21.4247  -29.3042   22.3614 N   0  0  0  0  0  0
  -26.4283  -37.3748   23.9414 N   0  0  0  0  0  0
  -24.7137  -31.0335   22.0923 N   0  0  0  0  0  0
  -23.4212  -28.8102   23.3004 O   0  0  0  0  0  0
  -28.2916  -26.2025   20.2195 O   0  0  0  0  0  0
  -26.5654  -34.8904   22.4639 O   0  0  0  0  0  0
  -23.5539  -32.1329   23.7137 O   0  0  0  0  0  0
  -28.7247  -23.6355   20.7261 C   0  0  0  0  0  0
  -28.7264  -22.2565   20.1940 C   0  0  0  0  0  0
  -28.2651  -24.7675   19.9089 C   0  0  0  0  0  0
  -27.9192  -23.1832   18.2402 C   0  0  0  0  0  0
  -30.1005  -25.0351   22.4870 C   0  0  0  0  0  0
  -30.5905  -23.6114   22.5840 C   0  0  0  0  0  0
  -28.7184  -16.7623   20.8731 C   0  0  0  0  0  0
  -30.6226  -17.3307   19.5315 C   0  0  0  0  0  0
  -28.6082  -18.3309   21.2855 C   0  0  0  0  0  0
  -30.5373  -18.8601   20.0203 C   0  0  0  0  0  0
  -29.1723  -23.8917   22.1373 C   0  0  0  0  0  0
  -27.4382  -22.9393   16.8262 C   0  0  0  0  0  0
  -29.1568  -20.8825   20.9714 C   0  0  0  0  0  0
  -28.2991  -22.1009   18.9269 N   0  0  0  0  0  0
  -27.8973  -24.4545   18.6500 N   0  0  0  0  0  0
  -30.0019  -16.2057   20.3299 N   0  0  0  0  0  0
  -29.1855  -19.4115   20.3846 N   0  3  0  0  0  0
  -31.4545  -12.6979   19.1676 H   0  0  0  0  0  0
  -30.3916  -11.6290   20.0299 H   0  0  0  0  0  0
  -29.8189  -11.7156   17.5760 H   0  0  0  0  0  0
  -29.5974  -13.4457   17.6750 H   0  0  0  0  0  0
  -27.9335  -11.2737   18.9786 H   0  0  0  0  0  0
  -27.3733  -12.4462   17.8160 H   0  0  0  0  0  0
  -27.5823  -14.2497   19.4022 H   0  0  0  0  0  0
  -28.7656  -12.3127   21.4464 H   0  0  0  0  0  0
  -28.3765  -13.9822   21.7503 H   0  0  0  0  0  0
  -25.2763   -9.5689   22.4764 H   0  0  0  0  0  0
  -24.0008   -7.4633   22.7468 H   0  0  0  0  0  0
  -21.0845   -8.8779   19.8957 H   0  0  0  0  0  0
  -22.3698  -10.9677   19.6180 H   0  0  0  0  0  0
  -21.2006   -7.6144   23.9713 H   0  0  0  0  0  0
  -21.1488   -6.0519   25.9076 H   0  0  0  0  0  0
  -22.0597   -2.7607   23.2843 H   0  0  0  0  0  0
  -22.4044  -11.9878   22.4857 H   0  0  0  0  0  0
  -21.1037  -13.1224   22.2641 H   0  0  0  0  0  0
  -24.6309  -15.8394   20.5099 H   0  0  0  0  0  0
  -26.2368  -15.6258   20.0312 H   0  0  0  0  0  0
  -26.7256  -32.5309   23.1003 H   0  0  0  0  0  0
  -25.0084  -33.9628   25.0331 H   0  0  0  0  0  0
  -22.7439  -31.2922   21.3838 H   0  0  0  0  0  0
  -23.3763  -35.9584   23.3276 H   0  0  0  0  0  0
  -24.3583  -36.8921   22.2063 H   0  0  0  0  0  0
  -23.7238  -37.6443   23.6699 H   0  0  0  0  0  0
  -26.1519  -31.4818   20.6154 H   0  0  0  0  0  0
  -26.8684  -30.7721   22.0276 H   0  0  0  0  0  0
  -28.1249  -28.8149   21.2264 H   0  0  0  0  0  0
  -25.8925  -25.8464   19.0185 H   0  0  0  0  0  0
  -23.9672  -27.2992   18.9949 H   0  0  0  0  0  0
  -23.8025  -30.5740   19.3988 H   0  0  0  0  0  0
  -22.7812  -29.2409   19.8441 H   0  0  0  0  0  0
  -25.1308  -36.1855   25.0809 H   0  0  0  0  0  0
  -21.0007  -28.3308   24.1365 H   0  0  0  0  0  0
  -20.5667  -26.2330   23.3634 H   0  0  0  0  0  0
  -21.6652  -26.7419   22.1222 H   0  0  0  0  0  0
  -19.6925  -25.6282   21.1259 H   0  0  0  0  0  0
  -19.6711  -27.3173   20.6735 H   0  0  0  0  0  0
  -17.4217  -26.6688   21.4012 H   0  0  0  0  0  0
  -18.0332  -26.0083   22.9013 H   0  0  0  0  0  0
  -19.7950  -30.7288   24.2241 H   0  0  0  0  0  0
  -17.5024  -31.6266   24.5167 H   0  0  0  0  0  0
  -15.5361  -30.2969   23.7681 H   0  0  0  0  0  0
  -15.8689  -28.0816   22.7070 H   0  0  0  0  0  0
  -24.5876  -30.7137   25.7741 H   0  0  0  0  0  0
  -24.8934  -32.2959   26.4813 H   0  0  0  0  0  0
  -25.8003  -30.8949   27.0220 H   0  0  0  0  0  0
  -26.2999  -29.6678   24.1306 H   0  0  0  0  0  0
  -27.3995  -29.7265   25.4868 H   0  0  0  0  0  0
  -27.8908  -30.4185   23.9608 H   0  0  0  0  0  0
  -27.2641  -33.3633   26.2054 H   0  0  0  0  0  0
  -28.3873  -32.6908   25.0336 H   0  0  0  0  0  0
  -28.0727  -31.8486   26.5426 H   0  0  0  0  0  0
  -28.2575  -38.0095   24.7523 H   0  0  0  0  0  0
  -28.1097  -36.2625   24.6248 H   0  0  0  0  0  0
  -27.2310  -37.1386   25.8862 H   0  0  0  0  0  0
  -20.9452  -29.8751   21.6792 H   0  0  0  0  0  0
  -26.0149  -38.2811   24.1436 H   0  0  0  0  0  0
  -30.5163  -25.6419   21.6846 H   0  0  0  0  0  0
  -29.9301  -25.5599   23.4256 H   0  0  0  0  0  0
  -30.7426  -23.2168   23.5874 H   0  0  0  0  0  0
  -31.3217  -23.2942   21.8422 H   0  0  0  0  0  0
  -27.9608  -16.5648   20.1156 H   0  0  0  0  0  0
  -28.4246  -16.1778   21.7437 H   0  0  0  0  0  0
  -31.6779  -17.1250   19.3515 H   0  0  0  0  0  0
  -30.1671  -17.2767   18.5420 H   0  0  0  0  0  0
  -29.0947  -18.4396   22.2561 H   0  0  0  0  0  0
  -27.5583  -18.5661   21.4668 H   0  0  0  0  0  0
  -30.9700  -19.5036   19.2528 H   0  0  0  0  0  0
  -31.1886  -18.9661   20.8894 H   0  0  0  0  0  0
  -28.3694  -23.6721   22.8394 H   0  0  0  0  0  0
  -27.7538  -21.9620   16.4610 H   0  0  0  0  0  0
  -27.8328  -23.6949   16.1468 H   0  0  0  0  0  0
  -26.3498  -22.9801   16.7893 H   0  0  0  0  0  0
  -28.4739  -20.8522   21.8201 H   0  0  0  0  0  0
  -30.1299  -21.0673   21.4241 H   0  0  0  0  0  0
  -28.6244  -19.4606   19.5468 H   0  0  0  0  0  0
  1 25  1  0  0  0
  1 30  2  0  0  0
  1 86  1  0  0  0
  2  3  1  0  0  0
  2 25  1  0  0  0
  2 88  1  0  0  0
  2 89  1  0  0  0
  3  4  1  0  0  0
  3 90  1  0  0  0
  3 91  1  0  0  0
  4  5  1  0  0  0
  4 92  1  0  0  0
  4 93  1  0  0  0
  5  6  1  0  0  0
  5 26  1  0  0  0
  5 94  1  0  0  0
  6 25  1  0  0  0
  6 95  1  0  0  0
  6 96  1  0  0  0
  7  8  2  0  0  0
  7 26  1  0  0  0
  7 29  1  0  0  0
  8  9  1  0  0  0
  8 22  1  0  0  0
  9 10  1  0  0  0
  9 27  2  0  0  0
 10 11  2  0  0  0
 10 15  1  0  0  0
 11 12  1  0  0  0
 11 97  1  0  0  0
 12 13  2  0  0  0
 12 98  1  0  0  0
 13 14  1  0  0  0
 13 31  1  0  0  0
 14 15  2  0  0  0
 14 99  1  0  0  0
 15100  1  0  0  0
 16 17  2  0  0  0
 16 21  1  0  0  0
 16 31  1  0  0  0
 17 18  1  0  0  0
 17101  1  0  0  0
 18 19  2  0  0  0
 18102  1  0  0  0
 19 20  1  0  0  0
 19 24  1  0  0  0
 20 21  2  0  0  0
 20103  1  0  0  0
 21 23  1  0  0  0
 22 28  1  0  0  0
 22 32  2  0  0  0
 26 27  1  0  0  0
 28104  1  0  0  0
 28105  1  0  0  0
 29106  1  0  0  0
 29107  1  0  0  0
 33 34  1  0  0  0
 33 66  1  0  0  0
 33 70  2  0  0  0
 34 36  1  0  0  0
 34 59  1  0  0  0
 34108  1  0  0  0
 35 44  2  0  0  0
 35 45  1  0  0  0
 35 68  1  0  0  0
 36 56  1  0  0  0
 36109  1  0  0  0
 37 39  1  0  0  0
 37 47  1  0  0  0
 37 66  1  0  0  0
 37110  1  0  0  0
 38 43  2  0  0  0
 38 46  1  0  0  0
 38 47  1  0  0  0
 39 64  1  0  0  0
 39 67  2  0  0  0
 40 52  1  0  0  0
 40 53  2  0  0  0
 40 58  1  0  0  0
 41111  1  0  0  0
 41112  1  0  0  0
 41113  1  0  0  0
 41 48  1  0  0  0
 42 43  1  0  0  0
 42 66  1  0  0  0
 42114  1  0  0  0
 42115  1  0  0  0
 43 44  1  0  0  0
 44116  1  0  0  0
 45 46  2  0  0  0
 45117  1  0  0  0
 46118  1  0  0  0
 47119  1  0  0  0
 47120  1  0  0  0
 48 56  1  0  0  0
 48 65  1  0  0  0
 48121  1  0  0  0
 49 50  1  0  0  0
 49 53  1  0  0  0
 49 64  1  0  0  0
 49122  1  0  0  0
 50 51  1  0  0  0
 50123  1  0  0  0
 50124  1  0  0  0
 51 52  1  0  0  0
 51125  1  0  0  0
 51126  1  0  0  0
 52127  1  0  0  0
 52128  1  0  0  0
 53 54  1  0  0  0
 54 55  2  0  0  0
 54129  1  0  0  0
 55 57  1  0  0  0
 55130  1  0  0  0
 56 69  2  0  0  0
 57 58  2  0  0  0
 57131  1  0  0  0
 58132  1  0  0  0
 59 60  1  0  0  0
 59 61  1  0  0  0
 59 62  1  0  0  0
 60133  1  0  0  0
 60134  1  0  0  0
 60135  1  0  0  0
 61136  1  0  0  0
 61137  1  0  0  0
 61138  1  0  0  0
 62139  1  0  0  0
 62140  1  0  0  0
 62141  1  0  0  0
 63 65  1  0  0  0
 63142  1  0  0  0
 63143  1  0  0  0
 63144  1  0  0  0
 64145  1  0  0  0
 65146  1  0  0  0
 68 73  1  0  0  0
 71 72  2  0  0  0
 71 73  1  0  0  0
 71 81  1  0  0  0
 72 83  1  0  0  0
 72 84  1  0  0  0
 73 85  2  0  0  0
 74 82  1  0  0  0
 74 84  2  0  0  0
 74 85  1  0  0  0
 75 76  1  0  0  0
 75 81  1  0  0  0
 75147  1  0  0  0
 75148  1  0  0  0
 76 81  1  0  0  0
 76149  1  0  0  0
 76150  1  0  0  0
 77 79  1  0  0  0
 77 86  1  0  0  0
 77151  1  0  0  0
 77152  1  0  0  0
 78 80  1  0  0  0
 78 86  1  0  0  0
 78153  1  0  0  0
 78154  1  0  0  0
 79 87  1  0  0  0
 79155  1  0  0  0
 79156  1  0  0  0
 80 87  1  0  0  0
 80157  1  0  0  0
 80158  1  0  0  0
 81159  1  0  0  0
 82160  1  0  0  0
 82161  1  0  0  0
 82162  1  0  0  0
 83163  1  0  0  0
 83164  1  0  0  0
 83 87  1  0  0  0
 87165  1  0  0  0
M  CHG  1  87   1
M  ISO  4   1 100  68 101  73 101  86 100
M  END
> <chiral flag>
0

> <version>
0

> <s_m_source_file>
/data/baiqing/PycharmProjects/Reinvent-master-3.2/result/LINK_invent/BTK/process_docking_weight1_custom_sum_contain_oxygen_bond_distance_aromatic_linkinvent_7_9_3/rearranged_h_0181.sdf

> <i_m_source_file_index>
7

> <r_mmod_Potential_Energy-OPLS-2005>
53.5739822387695

> <r_mmod_Stretch_Energy-OPLS-2005>
197.343185424805

> <r_mmod_Bend_Energy-OPLS-2005>
266.819366455078

> <r_mmod_Torsional_Energy-OPLS-2005>
403.16259765625

> <r_mmod_Improper_Torsional_Energy-OPLS-2005>
12.8100090026855

> <r_mmod_Van_der_Waal_Energy-OPLS-2005>
140.923980712891

> <r_mmod_Electrostatic_Energy-OPLS-2005>
-678.548522949219

> <r_mmod_Solvation_Energy-OPLS-2005>
-458.373138427734

> <b_mmod_Minimization_Converged-OPLS-2005>
0

> <r_mmod_RMS_Derivative-OPLS-2005>
0.68183159828186

$$$$
7
                    3D
 Structure written by MMmdl.
154163  0  0  1  0            999 V2000
  -30.6330  -14.7478   20.4643 C   0  0  0  0  0  0
  -30.4296  -12.4592   19.4748 C   0  0  0  0  0  0
  -29.5108  -12.5145   18.2354 C   0  0  0  0  0  0
  -28.0368  -12.3409   18.6486 C   0  0  0  0  0  0
  -27.6429  -13.2399   19.8518 C   0  0  2  0  0  0
  -28.6890  -13.1856   20.9863 C   0  0  0  0  0  0
  -25.2517  -13.8217   20.5717 C   0  0  0  0  0  0
  -24.1805  -13.0451   20.9197 C   0  0  0  0  0  0
  -24.6408  -11.6932   20.8734 C   0  0  0  0  0  0
  -23.9086  -10.4304   21.0399 C   0  0  0  0  0  0
  -24.3632   -9.4217   21.9180 C   0  0  0  0  0  0
  -23.6305   -8.2251   22.0752 C   0  0  0  0  0  0
  -22.4285   -8.0289   21.3544 C   0  0  0  0  0  0
  -21.9924   -9.0262   20.4643 C   0  0  0  0  0  0
  -22.7254  -10.2143   20.3050 C   0  0  0  0  0  0
  -21.6854   -6.0743   22.5281 C   0  0  0  0  0  0
  -21.4014   -6.5646   23.8214 C   0  0  0  0  0  0
  -21.3662   -5.6797   24.9175 C   0  0  0  0  0  0
  -21.6046   -4.3059   24.7223 C   0  0  0  0  0  0
  -21.8818   -3.8151   23.4344 C   0  0  0  0  0  0
  -21.9192   -4.6970   22.3404 C   0  0  0  0  0  0
  -22.7825  -13.5226   21.1858 C   0  0  0  0  0  0
  -22.1658   -4.2155   21.0980 F   0  0  0  0  0  0
  -21.5631   -3.4544   25.7734 F   0  0  0  0  0  0
  -29.9894  -13.5297   20.3999 N   0  0  0  0  0  0
  -26.2957  -12.9442   20.3305 N   0  0  0  0  0  0
  -25.9345  -11.6572   20.5750 N   0  0  0  0  0  0
  -22.0473  -12.8212   22.0415 N   0  0  0  0  0  0
  -25.4228  -15.1940   20.4171 N   0  0  0  0  0  0
  -31.8225  -14.8228   20.1439 O   0  0  0  0  0  0
  -21.6646   -6.8889   21.4243 O   0  0  0  0  0  0
  -22.3506  -14.5534   20.6713 O   0  0  0  0  0  0
  -24.6361  -31.8553   23.2014 C   0  0  0  0  0  0
  -25.9177  -32.4752   23.8363 C   0  0  1  0  0  0
  -27.2037  -27.2290   20.1200 C   0  0  0  0  0  0
  -25.5965  -33.8558   24.2277 N   0  0  0  0  0  0
  -23.4333  -30.4835   21.5462 C   0  0  2  0  0  0
  -24.8779  -28.9408   20.1062 C   0  0  0  0  0  0
  -22.7531  -29.4617   22.4911 C   0  0  0  0  0  0
  -18.0299  -28.1389   22.8488 C   0  0  0  0  0  0
  -24.1492  -36.7275   23.2639 C   0  0  0  0  0  0
  -25.9860  -30.7557   21.3913 C   0  0  0  0  0  0
  -26.0546  -29.3800   20.7262 C   0  0  0  0  0  0
  -27.2196  -28.5365   20.7280 C   0  0  0  0  0  0
  -26.0048  -26.8962   19.4389 C   0  0  0  0  0  0
  -24.8606  -27.7070   19.4511 C   0  0  0  0  0  0
  -23.6518  -29.8300   20.1590 C   0  0  0  0  0  0
  -25.4118  -36.3069   24.0329 C   0  0  1  0  0  0
  -20.5908  -28.3710   23.1255 C   0  0  2  0  0  0
  -20.6786  -26.9423   22.5404 C   0  0  0  0  0  0
  -19.5754  -26.6381   21.5217 C   0  0  0  0  0  0
  -18.1938  -26.7930   22.1630 C   0  0  0  0  0  0
  -19.1555  -28.8867   23.2863 C   0  0  0  0  0  0
  -18.9468  -30.1462   23.8887 C   0  0  0  0  0  0
  -17.6465  -30.6587   24.0562 C   0  0  0  0  0  0
  -25.9064  -34.9440   23.5101 C   0  0  0  0  0  0
  -16.5356  -29.9082   23.6333 C   0  0  0  0  0  0
  -16.7282  -28.6497   23.0364 C   0  0  0  0  0  0
  -26.4521  -31.6581   25.0764 C   0  0  0  0  0  0
  -25.3723  -31.3747   26.1468 C   0  0  0  0  0  0
  -27.0367  -30.2985   24.6289 C   0  0  0  0  0  0
  -27.6078  -32.4321   25.7526 C   0  0  0  0  0  0
  -27.5579  -37.1798   24.8463 C   0  0  0  0  0  0
  -21.4234  -29.3060   22.3645 N   0  0  0  0  0  0
  -26.4291  -37.3772   23.9408 N   0  0  0  0  0  0
  -24.7046  -31.0498   22.1013 N   0  0  0  0  0  0
  -23.4213  -28.8142   23.3013 O   0  0  0  0  0  0
  -28.2435  -26.2517   20.2116 O   0  0  0  0  0  0
  -26.5634  -34.8912   22.4670 O   0  0  0  0  0  0
  -23.5501  -32.1399   23.7281 O   0  0  0  0  0  0
  -27.7997  -22.2948   20.6142 C   0  0  0  0  0  0
  -28.5751  -23.4373   20.2535 C   0  0  0  0  0  0
  -29.9190  -23.0722   19.9939 C   0  0  0  0  0  0
  -29.5397  -20.7710   20.4012 C   0  0  0  0  0  0
  -29.6831  -16.9458   19.6078 C   0  0  0  0  0  0
  -30.3718  -17.0641   21.5050 C   0  0  0  0  0  0
  -29.4981  -18.0594   20.6815 C   0  0  0  0  0  0
  -30.9263  -24.1090   19.5436 C   0  0  0  0  0  0
  -27.8335  -24.8219   19.9138 C   0  0  0  0  0  0
  -28.2627  -21.0036   20.6873 N   0  0  0  0  0  0
  -30.3719  -21.7727   20.0786 N   0  0  0  0  0  0
  -29.8910  -15.9102   20.6750 N   0  0  0  0  0  0
  -30.0737  -19.4371   20.3975 N   0  0  0  0  0  0
  -31.4725  -12.5726   19.1747 H   0  0  0  0  0  0
  -30.3639  -11.4847   19.9615 H   0  0  0  0  0  0
  -29.7919  -11.7413   17.5189 H   0  0  0  0  0  0
  -29.6393  -13.4693   17.7223 H   0  0  0  0  0  0
  -27.8887  -11.2919   18.9067 H   0  0  0  0  0  0
  -27.3804  -12.5391   17.8006 H   0  0  0  0  0  0
  -27.6346  -14.2618   19.4715 H   0  0  0  0  0  0
  -28.7237  -12.1953   21.4427 H   0  0  0  0  0  0
  -28.4275  -13.8861   21.7816 H   0  0  0  0  0  0
  -25.2774   -9.5693   22.4758 H   0  0  0  0  0  0
  -24.0010   -7.4644   22.7478 H   0  0  0  0  0  0
  -21.0852   -8.8787   19.8952 H   0  0  0  0  0  0
  -22.3709  -10.9685   19.6162 H   0  0  0  0  0  0
  -21.2002   -7.6154   23.9723 H   0  0  0  0  0  0
  -21.1484   -6.0524   25.9082 H   0  0  0  0  0  0
  -22.0593   -2.7614   23.2841 H   0  0  0  0  0  0
  -22.4089  -11.9865   22.4788 H   0  0  0  0  0  0
  -21.1097  -13.1237   22.2634 H   0  0  0  0  0  0
  -24.6640  -15.8552   20.5410 H   0  0  0  0  0  0
  -26.2930  -15.6339   20.1437 H   0  0  0  0  0  0
  -26.7249  -32.5388   23.1105 H   0  0  0  0  0  0
  -25.0118  -33.9698   25.0425 H   0  0  0  0  0  0
  -22.7318  -31.3082   21.4054 H   0  0  0  0  0  0
  -23.3763  -35.9599   23.3290 H   0  0  0  0  0  0
  -24.3589  -36.8905   22.2056 H   0  0  0  0  0  0
  -23.7229  -37.6467   23.6668 H   0  0  0  0  0  0
  -26.1367  -31.5172   20.6250 H   0  0  0  0  0  0
  -26.8600  -30.7974   22.0296 H   0  0  0  0  0  0
  -28.1112  -28.8615   21.2460 H   0  0  0  0  0  0
  -25.8873  -25.9714   18.8975 H   0  0  0  0  0  0
  -23.9657  -27.3707   18.9451 H   0  0  0  0  0  0
  -23.7791  -30.6127   19.4101 H   0  0  0  0  0  0
  -22.7682  -29.2686   19.8496 H   0  0  0  0  0  0
  -25.1300  -36.1921   25.0823 H   0  0  0  0  0  0
  -21.0001  -28.3285   24.1372 H   0  0  0  0  0  0
  -20.5690  -26.2326   23.3617 H   0  0  0  0  0  0
  -21.6651  -26.7445   22.1189 H   0  0  0  0  0  0
  -19.6914  -25.6289   21.1253 H   0  0  0  0  0  0
  -19.6683  -27.3192   20.6745 H   0  0  0  0  0  0
  -17.4210  -26.6686   21.4031 H   0  0  0  0  0  0
  -18.0328  -26.0069   22.9021 H   0  0  0  0  0  0
  -19.7941  -30.7285   24.2252 H   0  0  0  0  0  0
  -17.5016  -31.6269   24.5164 H   0  0  0  0  0  0
  -15.5356  -30.2983   23.7656 H   0  0  0  0  0  0
  -15.8681  -28.0806   22.7096 H   0  0  0  0  0  0
  -24.5913  -30.7080   25.7794 H   0  0  0  0  0  0
  -24.8897  -32.2919   26.4859 H   0  0  0  0  0  0
  -25.8024  -30.8950   27.0267 H   0  0  0  0  0  0
  -26.2969  -29.6729   24.1280 H   0  0  0  0  0  0
  -27.3980  -29.7264   25.4844 H   0  0  0  0  0  0
  -27.8885  -30.4238   23.9599 H   0  0  0  0  0  0
  -27.2702  -33.3643   26.2067 H   0  0  0  0  0  0
  -28.3901  -32.6835   25.0352 H   0  0  0  0  0  0
  -28.0726  -31.8459   26.5462 H   0  0  0  0  0  0
  -28.2592  -38.0101   24.7522 H   0  0  0  0  0  0
  -28.1080  -36.2633   24.6276 H   0  0  0  0  0  0
  -27.2301  -37.1426   25.8868 H   0  0  0  0  0  0
  -20.9426  -29.8793   21.6852 H   0  0  0  0  0  0
  -26.0165  -38.2845   24.1412 H   0  0  0  0  0  0
  -26.7395  -22.4005   20.7892 H   0  0  0  0  0  0
  -30.5546  -17.0915   18.9639 H   0  0  0  0  0  0
  -28.7898  -16.7898   19.0008 H   0  0  0  0  0  0
  -30.0822  -17.0104   22.5550 H   0  0  0  0  0  0
  -31.4467  -17.2458   21.4218 H   0  0  0  0  0  0
  -28.4722  -18.1044   21.0511 H   0  0  0  0  0  0
  -30.6474  -24.5112   18.5696 H   0  0  0  0  0  0
  -31.9291  -23.6885   19.4648 H   0  0  0  0  0  0
  -30.9633  -24.9334   20.2558 H   0  0  0  0  0  0
  -26.8566  -24.6804   20.3784 H   0  0  0  0  0  0
  -27.6770  -24.7693   18.8355 H   0  0  0  0  0  0
  -31.0558  -19.4234   20.1528 H   0  0  0  0  0  0
  1 25  1  0  0  0
  1 30  2  0  0  0
  1 82  1  0  0  0
  2  3  1  0  0  0
  2 25  1  0  0  0
  2 84  1  0  0  0
  2 85  1  0  0  0
  3  4  1  0  0  0
  3 86  1  0  0  0
  3 87  1  0  0  0
  4  5  1  0  0  0
  4 88  1  0  0  0
  4 89  1  0  0  0
  5  6  1  0  0  0
  5 26  1  0  0  0
  5 90  1  0  0  0
  6 25  1  0  0  0
  6 91  1  0  0  0
  6 92  1  0  0  0
  7  8  2  0  0  0
  7 26  1  0  0  0
  7 29  1  0  0  0
  8  9  1  0  0  0
  8 22  1  0  0  0
  9 10  1  0  0  0
  9 27  2  0  0  0
 10 11  2  0  0  0
 10 15  1  0  0  0
 11 12  1  0  0  0
 11 93  1  0  0  0
 12 13  2  0  0  0
 12 94  1  0  0  0
 13 14  1  0  0  0
 13 31  1  0  0  0
 14 15  2  0  0  0
 14 95  1  0  0  0
 15 96  1  0  0  0
 16 17  2  0  0  0
 16 21  1  0  0  0
 16 31  1  0  0  0
 17 18  1  0  0  0
 17 97  1  0  0  0
 18 19  2  0  0  0
 18 98  1  0  0  0
 19 20  1  0  0  0
 19 24  1  0  0  0
 20 21  2  0  0  0
 20 99  1  0  0  0
 21 23  1  0  0  0
 22 28  1  0  0  0
 22 32  2  0  0  0
 26 27  1  0  0  0
 28100  1  0  0  0
 28101  1  0  0  0
 29102  1  0  0  0
 29103  1  0  0  0
 33 34  1  0  0  0
 33 66  1  0  0  0
 33 70  2  0  0  0
 34 36  1  0  0  0
 34 59  1  0  0  0
 34104  1  0  0  0
 35 44  2  0  0  0
 35 45  1  0  0  0
 35 68  1  0  0  0
 36 56  1  0  0  0
 36105  1  0  0  0
 37 39  1  0  0  0
 37 47  1  0  0  0
 37 66  1  0  0  0
 37106  1  0  0  0
 38 43  2  0  0  0
 38 46  1  0  0  0
 38 47  1  0  0  0
 39 64  1  0  0  0
 39 67  2  0  0  0
 40 52  1  0  0  0
 40 53  2  0  0  0
 40 58  1  0  0  0
 41107  1  0  0  0
 41108  1  0  0  0
 41109  1  0  0  0
 41 48  1  0  0  0
 42 43  1  0  0  0
 42 66  1  0  0  0
 42110  1  0  0  0
 42111  1  0  0  0
 43 44  1  0  0  0
 44112  1  0  0  0
 45 46  2  0  0  0
 45113  1  0  0  0
 46114  1  0  0  0
 47115  1  0  0  0
 47116  1  0  0  0
 48 56  1  0  0  0
 48 65  1  0  0  0
 48117  1  0  0  0
 49 50  1  0  0  0
 49 53  1  0  0  0
 49 64  1  0  0  0
 49118  1  0  0  0
 50 51  1  0  0  0
 50119  1  0  0  0
 50120  1  0  0  0
 51 52  1  0  0  0
 51121  1  0  0  0
 51122  1  0  0  0
 52123  1  0  0  0
 52124  1  0  0  0
 53 54  1  0  0  0
 54 55  2  0  0  0
 54125  1  0  0  0
 55 57  1  0  0  0
 55126  1  0  0  0
 56 69  2  0  0  0
 57 58  2  0  0  0
 57127  1  0  0  0
 58128  1  0  0  0
 59 60  1  0  0  0
 59 61  1  0  0  0
 59 62  1  0  0  0
 60129  1  0  0  0
 60130  1  0  0  0
 60131  1  0  0  0
 61132  1  0  0  0
 61133  1  0  0  0
 61134  1  0  0  0
 62135  1  0  0  0
 62136  1  0  0  0
 62137  1  0  0  0
 63 65  1  0  0  0
 63138  1  0  0  0
 63139  1  0  0  0
 63140  1  0  0  0
 64141  1  0  0  0
 65142  1  0  0  0
 68 79  1  0  0  0
 71 72  2  0  0  0
 71 80  1  0  0  0
 71143  1  0  0  0
 72 73  1  0  0  0
 72 79  1  0  0  0
 73 78  1  0  0  0
 73 81  2  0  0  0
 74 80  2  0  0  0
 74 81  1  0  0  0
 74 83  1  0  0  0
 75 77  1  0  0  0
 75 82  1  0  0  0
 75144  1  0  0  0
 75145  1  0  0  0
 76 77  1  0  0  0
 76 82  1  0  0  0
 76146  1  0  0  0
 76147  1  0  0  0
 77 83  1  0  0  0
 77148  1  0  0  0
 78149  1  0  0  0
 78150  1  0  0  0
 78151  1  0  0  0
 79152  1  0  0  0
 79153  1  0  0  0
 83154  1  0  0  0
M  ISO  4   1 100  68 101  79 101  82 100
M  END
> <chiral flag>
0

> <version>
0

> <s_m_source_file>
/data/baiqing/PycharmProjects/Reinvent-master-3.2/result/LINK_invent/BTK/process_docking_weight1_custom_sum_contain_oxygen_bond_distance_aromatic_linkinvent_7_9_3/rearranged_h_0181.sdf

> <i_m_source_file_index>
8

> <r_mmod_Potential_Energy-OPLS-2005>
-218.638229370117

> <r_mmod_Stretch_Energy-OPLS-2005>
116.472129821777

> <r_mmod_Bend_Energy-OPLS-2005>
212.823944091797

> <r_mmod_Torsional_Energy-OPLS-2005>
263.218933105469

> <r_mmod_Improper_Torsional_Energy-OPLS-2005>
14.3658123016357

> <r_mmod_Van_der_Waal_Energy-OPLS-2005>
151.987609863281

> <r_mmod_Electrostatic_Energy-OPLS-2005>
-849.680603027344

> <r_mmod_Solvation_Energy-OPLS-2005>
-231.586044311523

> <b_mmod_Minimization_Converged-OPLS-2005>
0

> <r_mmod_RMS_Derivative-OPLS-2005>
0.975660979747772

$$$$
8
                    3D
 Structure written by MMmdl.
149158  0  0  1  0            999 V2000
  -30.3986  -15.3499   20.3636 C   0  0  0  0  0  0
  -30.4425  -12.8746   19.5154 C   0  0  0  0  0  0
  -29.5403  -12.5838   18.2876 C   0  0  0  0  0  0
  -28.0942  -12.2881   18.7231 C   0  0  0  0  0  0
  -27.6069  -13.2772   19.8101 C   0  0  2  0  0  0
  -28.6395  -13.4922   20.9363 C   0  0  0  0  0  0
  -25.2376  -13.8241   20.5730 C   0  0  0  0  0  0
  -24.1733  -13.0432   20.9260 C   0  0  0  0  0  0
  -24.6394  -11.6933   20.8760 C   0  0  0  0  0  0
  -23.9093  -10.4293   21.0402 C   0  0  0  0  0  0
  -24.3637   -9.4206   21.9177 C   0  0  0  0  0  0
  -23.6304   -8.2244   22.0749 C   0  0  0  0  0  0
  -22.4286   -8.0280   21.3537 C   0  0  0  0  0  0
  -21.9928   -9.0260   20.4642 C   0  0  0  0  0  0
  -22.7266  -10.2135   20.3050 C   0  0  0  0  0  0
  -21.6856   -6.0737   22.5277 C   0  0  0  0  0  0
  -21.4021   -6.5639   23.8213 C   0  0  0  0  0  0
  -21.3662   -5.6786   24.9170 C   0  0  0  0  0  0
  -21.6041   -4.3046   24.7220 C   0  0  0  0  0  0
  -21.8819   -3.8144   23.4341 C   0  0  0  0  0  0
  -21.9193   -4.6964   22.3401 C   0  0  0  0  0  0
  -22.7748  -13.5189   21.1893 C   0  0  0  0  0  0
  -22.1655   -4.2149   21.0979 F   0  0  0  0  0  0
  -21.5632   -3.4531   25.7734 F   0  0  0  0  0  0
  -29.8520  -14.0286   20.2929 N   0  0  0  0  0  0
  -26.2799  -12.9518   20.3167 N   0  0  0  0  0  0
  -25.9329  -11.6625   20.5696 N   0  0  0  0  0  0
  -22.0393  -12.8195   22.0453 N   0  0  0  0  0  0
  -25.3993  -15.1980   20.4157 N   0  0  0  0  0  0
  -31.6342  -15.3421   20.2436 O   0  0  0  0  0  0
  -21.6642   -6.8883   21.4240 O   0  0  0  0  0  0
  -22.3432  -14.5480   20.6709 O   0  0  0  0  0  0
  -24.6672  -31.8191   23.1680 C   0  0  0  0  0  0
  -25.9334  -32.4562   23.8162 C   0  0  1  0  0  0
  -27.2207  -26.8742   20.2059 C   0  0  0  0  0  0
  -25.5980  -33.8377   24.2054 N   0  0  0  0  0  0
  -23.4846  -30.4286   21.5184 C   0  0  2  0  0  0
  -24.9390  -28.7993   20.1262 C   0  0  0  0  0  0
  -22.7682  -29.4421   22.4781 C   0  0  0  0  0  0
  -18.0319  -28.1411   22.8461 C   0  0  0  0  0  0
  -24.1500  -36.7205   23.2653 C   0  0  0  0  0  0
  -26.0569  -30.6077   21.4082 C   0  0  0  0  0  0
  -26.1240  -29.1878   20.7644 C   0  0  0  0  0  0
  -27.2594  -28.2490   20.7771 C   0  0  0  0  0  0
  -26.0063  -26.6541   19.5165 C   0  0  0  0  0  0
  -24.9070  -27.5518   19.4827 C   0  0  0  0  0  0
  -23.7297  -29.7366   20.1493 C   0  0  0  0  0  0
  -25.4145  -36.2957   24.0293 C   0  0  1  0  0  0
  -20.5947  -28.3765   23.1173 C   0  0  2  0  0  0
  -20.6797  -26.9443   22.5397 C   0  0  0  0  0  0
  -19.5773  -26.6377   21.5207 C   0  0  0  0  0  0
  -18.1956  -26.7942   22.1618 C   0  0  0  0  0  0
  -19.1584  -28.8908   23.2802 C   0  0  0  0  0  0
  -18.9495  -30.1497   23.8840 C   0  0  0  0  0  0
  -17.6488  -30.6599   24.0552 C   0  0  0  0  0  0
  -25.9102  -34.9332   23.4997 C   0  0  0  0  0  0
  -16.5376  -29.9087   23.6344 C   0  0  0  0  0  0
  -16.7302  -28.6508   23.0359 C   0  0  0  0  0  0
  -26.4567  -31.6523   25.0707 C   0  0  0  0  0  0
  -25.3682  -31.3792   26.1356 C   0  0  0  0  0  0
  -27.0475  -30.2880   24.6488 C   0  0  0  0  0  0
  -27.6051  -32.4345   25.7514 C   0  0  0  0  0  0
  -27.5559  -37.1784   24.8480 C   0  0  0  0  0  0
  -21.4346  -29.3048   22.3519 N   0  0  0  0  0  0
  -26.4301  -37.3683   23.9375 N   0  0  0  0  0  0
  -24.7581  -30.9805   22.0847 N   0  0  0  0  0  0
  -23.4203  -28.7995   23.3040 O   0  0  0  0  0  0
  -28.2395  -25.7661   20.1466 O   0  0  0  0  0  0
  -26.5724  -34.8876   22.4602 O   0  0  0  0  0  0
  -23.5729  -32.1180   23.6741 O   0  0  0  0  0  0
  -28.6971  -22.9287   19.9246 C   0  0  0  0  0  0
  -28.7135  -21.5334   20.5900 C   0  0  0  0  0  0
  -28.2136  -24.2616   20.5405 C   0  0  0  0  0  0
  -27.8318  -22.8355   22.3666 C   0  0  0  0  0  0
  -30.0824  -19.2121   19.3924 C   0  0  0  0  0  0
  -28.9108  -19.7994   20.1552 C   0  0  1  0  0  0
  -29.8048  -18.2807   20.5727 C   0  0  1  0  0  0
  -27.3330  -22.7782   23.7950 C   0  0  0  0  0  0
  -28.2497  -21.6605   21.8544 N   0  0  0  0  0  0
  -27.7871  -24.0552   21.8029 N   0  0  0  0  0  0
  -29.6064  -16.6267   20.3563 N   0  0  0  0  0  0
  -31.4504  -13.1094   19.1697 H   0  0  0  0  0  0
  -30.5470  -11.9899   20.1454 H   0  0  0  0  0  0
  -29.9412  -11.7487   17.7105 H   0  0  0  0  0  0
  -29.5494  -13.4485   17.6219 H   0  0  0  0  0  0
  -28.0709  -11.2726   19.1211 H   0  0  0  0  0  0
  -27.4249  -12.2942   17.8622 H   0  0  0  0  0  0
  -27.5080  -14.2311   19.2892 H   0  0  0  0  0  0
  -28.8340  -12.5709   21.4875 H   0  0  0  0  0  0
  -28.2630  -14.2155   21.6614 H   0  0  0  0  0  0
  -25.2779   -9.5683   22.4754 H   0  0  0  0  0  0
  -24.0003   -7.4645   22.7485 H   0  0  0  0  0  0
  -21.0848   -8.8789   19.8965 H   0  0  0  0  0  0
  -22.3716  -10.9671   19.6160 H   0  0  0  0  0  0
  -21.2014   -7.6145   23.9716 H   0  0  0  0  0  0
  -21.1483   -6.0512   25.9073 H   0  0  0  0  0  0
  -22.0596   -2.7606   23.2838 H   0  0  0  0  0  0
  -22.4008  -11.9884   22.4894 H   0  0  0  0  0  0
  -21.0999  -13.1211   22.2624 H   0  0  0  0  0  0
  -24.6279  -15.8462   20.5321 H   0  0  0  0  0  0
  -26.2350  -15.6400   20.0579 H   0  0  0  0  0  0
  -26.7407  -32.5089   23.0879 H   0  0  0  0  0  0
  -25.0050  -33.9448   25.0152 H   0  0  0  0  0  0
  -22.8007  -31.2613   21.3410 H   0  0  0  0  0  0
  -23.3743  -35.9562   23.3354 H   0  0  0  0  0  0
  -24.3549  -36.8816   22.2058 H   0  0  0  0  0  0
  -23.7299  -37.6423   23.6688 H   0  0  0  0  0  0
  -26.2411  -31.3396   20.6208 H   0  0  0  0  0  0
  -26.9158  -30.6718   22.0643 H   0  0  0  0  0  0
  -28.1654  -28.5561   21.2799 H   0  0  0  0  0  0
  -25.8846  -25.7077   19.0083 H   0  0  0  0  0  0
  -24.0096  -27.2486   18.9602 H   0  0  0  0  0  0
  -23.8952  -30.4999   19.3884 H   0  0  0  0  0  0
  -22.8384  -29.1948   19.8281 H   0  0  0  0  0  0
  -25.1358  -36.1762   25.0789 H   0  0  0  0  0  0
  -21.0032  -28.3379   24.1299 H   0  0  0  0  0  0
  -20.5674  -26.2386   23.3646 H   0  0  0  0  0  0
  -21.6661  -26.7412   22.1211 H   0  0  0  0  0  0
  -19.6936  -25.6273   21.1278 H   0  0  0  0  0  0
  -19.6711  -27.3150   20.6709 H   0  0  0  0  0  0
  -17.4224  -26.6672   21.4028 H   0  0  0  0  0  0
  -18.0364  -26.0094   22.9030 H   0  0  0  0  0  0
  -19.7972  -30.7324   24.2188 H   0  0  0  0  0  0
  -17.5041  -31.6273   24.5170 H   0  0  0  0  0  0
  -15.5378  -30.2972   23.7699 H   0  0  0  0  0  0
  -15.8703  -28.0809   22.7106 H   0  0  0  0  0  0
  -24.5877  -30.7125   25.7667 H   0  0  0  0  0  0
  -24.8854  -32.2997   26.4645 H   0  0  0  0  0  0
  -25.7897  -30.9048   27.0227 H   0  0  0  0  0  0
  -26.3153  -29.6536   24.1478 H   0  0  0  0  0  0
  -27.3960  -29.7268   25.5170 H   0  0  0  0  0  0
  -27.9115  -30.4039   23.9943 H   0  0  0  0  0  0
  -27.2607  -33.3689   26.1959 H   0  0  0  0  0  0
  -28.3930  -32.6838   25.0394 H   0  0  0  0  0  0
  -28.0646  -31.8564   26.5544 H   0  0  0  0  0  0
  -28.2631  -38.0021   24.7410 H   0  0  0  0  0  0
  -28.0999  -36.2542   24.6468 H   0  0  0  0  0  0
  -27.2250  -37.1621   25.8880 H   0  0  0  0  0  0
  -20.9618  -29.8720   21.6622 H   0  0  0  0  0  0
  -26.0151  -38.2764   24.1296 H   0  0  0  0  0  0
  -29.0426  -22.9782   18.9001 H   0  0  0  0  0  0
  -31.0209  -19.7606   19.4442 H   0  0  0  0  0  0
  -29.8509  -18.8489   18.3930 H   0  0  0  0  0  0
  -27.9314  -19.5677   19.7417 H   0  0  0  0  0  0
  -30.4359  -18.4598   21.4416 H   0  0  0  0  0  0
  -27.3177  -21.7569   24.1775 H   0  0  0  0  0  0
  -26.3204  -23.1759   23.8623 H   0  0  0  0  0  0
  -27.9761  -23.3715   24.4449 H   0  0  0  0  0  0
  -28.6243  -16.3965   20.3072 H   0  0  0  0  0  0
  1 25  1  0  0  0
  1 30  2  0  0  0
  1 81  1  0  0  0
  2  3  1  0  0  0
  2 25  1  0  0  0
  2 82  1  0  0  0
  2 83  1  0  0  0
  3  4  1  0  0  0
  3 84  1  0  0  0
  3 85  1  0  0  0
  4  5  1  0  0  0
  4 86  1  0  0  0
  4 87  1  0  0  0
  5  6  1  0  0  0
  5 26  1  0  0  0
  5 88  1  0  0  0
  6 25  1  0  0  0
  6 89  1  0  0  0
  6 90  1  0  0  0
  7  8  2  0  0  0
  7 26  1  0  0  0
  7 29  1  0  0  0
  8  9  1  0  0  0
  8 22  1  0  0  0
  9 10  1  0  0  0
  9 27  2  0  0  0
 10 11  2  0  0  0
 10 15  1  0  0  0
 11 12  1  0  0  0
 11 91  1  0  0  0
 12 13  2  0  0  0
 12 92  1  0  0  0
 13 14  1  0  0  0
 13 31  1  0  0  0
 14 15  2  0  0  0
 14 93  1  0  0  0
 15 94  1  0  0  0
 16 17  2  0  0  0
 16 21  1  0  0  0
 16 31  1  0  0  0
 17 18  1  0  0  0
 17 95  1  0  0  0
 18 19  2  0  0  0
 18 96  1  0  0  0
 19 20  1  0  0  0
 19 24  1  0  0  0
 20 21  2  0  0  0
 20 97  1  0  0  0
 21 23  1  0  0  0
 22 28  1  0  0  0
 22 32  2  0  0  0
 26 27  1  0  0  0
 28 98  1  0  0  0
 28 99  1  0  0  0
 29100  1  0  0  0
 29101  1  0  0  0
 33 34  1  0  0  0
 33 66  1  0  0  0
 33 70  2  0  0  0
 34 36  1  0  0  0
 34 59  1  0  0  0
 34102  1  0  0  0
 35 44  2  0  0  0
 35 45  1  0  0  0
 35 68  1  0  0  0
 36 56  1  0  0  0
 36103  1  0  0  0
 37 39  1  0  0  0
 37 47  1  0  0  0
 37 66  1  0  0  0
 37104  1  0  0  0
 38 43  2  0  0  0
 38 46  1  0  0  0
 38 47  1  0  0  0
 39 64  1  0  0  0
 39 67  2  0  0  0
 40 52  1  0  0  0
 40 53  2  0  0  0
 40 58  1  0  0  0
 41105  1  0  0  0
 41106  1  0  0  0
 41107  1  0  0  0
 41 48  1  0  0  0
 42 43  1  0  0  0
 42 66  1  0  0  0
 42108  1  0  0  0
 42109  1  0  0  0
 43 44  1  0  0  0
 44110  1  0  0  0
 45 46  2  0  0  0
 45111  1  0  0  0
 46112  1  0  0  0
 47113  1  0  0  0
 47114  1  0  0  0
 48 56  1  0  0  0
 48 65  1  0  0  0
 48115  1  0  0  0
 49 50  1  0  0  0
 49 53  1  0  0  0
 49 64  1  0  0  0
 49116  1  0  0  0
 50 51  1  0  0  0
 50117  1  0  0  0
 50118  1  0  0  0
 51 52  1  0  0  0
 51119  1  0  0  0
 51120  1  0  0  0
 52121  1  0  0  0
 52122  1  0  0  0
 53 54  1  0  0  0
 54 55  2  0  0  0
 54123  1  0  0  0
 55 57  1  0  0  0
 55124  1  0  0  0
 56 69  2  0  0  0
 57 58  2  0  0  0
 57125  1  0  0  0
 58126  1  0  0  0
 59 60  1  0  0  0
 59 61  1  0  0  0
 59 62  1  0  0  0
 60127  1  0  0  0
 60128  1  0  0  0
 60129  1  0  0  0
 61130  1  0  0  0
 61131  1  0  0  0
 61132  1  0  0  0
 62133  1  0  0  0
 62134  1  0  0  0
 62135  1  0  0  0
 63 65  1  0  0  0
 63136  1  0  0  0
 63137  1  0  0  0
 63138  1  0  0  0
 64139  1  0  0  0
 65140  1  0  0  0
 68 73  1  0  0  0
 71 72  2  0  0  0
 71 73  1  0  0  0
 71141  1  0  0  0
 72 79  1  0  0  0
 72 76  1  0  0  0
 73 80  2  0  0  0
 74 78  1  0  0  0
 74 79  2  0  0  0
 74 80  1  0  0  0
 75 76  1  0  0  0
 75 77  1  0  0  0
 75142  1  0  0  0
 75143  1  0  0  0
 76 77  1  0  0  0
 76144  1  0  0  0
 77 81  1  0  0  0
 77145  1  0  0  0
 78146  1  0  0  0
 78147  1  0  0  0
 78148  1  0  0  0
 81149  1  0  0  0
M  ISO  4   1 100  68 101  73 101  81 100
M  END
> <chiral flag>
0

> <version>
0

> <s_m_source_file>
/data/baiqing/PycharmProjects/Reinvent-master-3.2/result/LINK_invent/BTK/process_docking_weight1_custom_sum_contain_oxygen_bond_distance_aromatic_linkinvent_7_9_3/rearranged_h_0181.sdf

> <i_m_source_file_index>
9

> <r_mmod_Potential_Energy-OPLS-2005>
1053.01281738281

> <r_mmod_Stretch_Energy-OPLS-2005>
646.28515625

> <r_mmod_Bend_Energy-OPLS-2005>
432.09814453125

> <r_mmod_Torsional_Energy-OPLS-2005>
276.513336181641

> <r_mmod_Improper_Torsional_Energy-OPLS-2005>
6.71086502075195

> <r_mmod_Van_der_Waal_Energy-OPLS-2005>
130.547729492188

> <r_mmod_Electrostatic_Energy-OPLS-2005>
-740.73876953125

> <r_mmod_Solvation_Energy-OPLS-2005>
-240.327224731445

> <b_mmod_Minimization_Converged-OPLS-2005>
0

> <r_mmod_RMS_Derivative-OPLS-2005>
1.24364769458771

$$$$
9
                    3D
 Structure written by MMmdl.
148156  0  0  1  0            999 V2000
  -30.4253  -15.2210   20.3782 C   0  0  0  0  0  0
  -30.4491  -12.7764   19.5149 C   0  0  0  0  0  0
  -29.5366  -12.5686   18.2790 C   0  0  0  0  0  0
  -28.0814  -12.3001   18.7058 C   0  0  0  0  0  0
  -27.6165  -13.2651   19.8246 C   0  0  2  0  0  0
  -28.6545  -13.4039   20.9581 C   0  0  0  0  0  0
  -25.2413  -13.8223   20.5731 C   0  0  0  0  0  0
  -24.1758  -13.0427   20.9259 C   0  0  0  0  0  0
  -24.6397  -11.6921   20.8761 C   0  0  0  0  0  0
  -23.9086  -10.4289   21.0409 C   0  0  0  0  0  0
  -24.3631   -9.4204   21.9187 C   0  0  0  0  0  0
  -23.6299   -8.2242   22.0757 C   0  0  0  0  0  0
  -22.4279   -8.0283   21.3547 C   0  0  0  0  0  0
  -21.9920   -9.0258   20.4649 C   0  0  0  0  0  0
  -22.7256  -10.2133   20.3056 C   0  0  0  0  0  0
  -21.6855   -6.0737   22.5279 C   0  0  0  0  0  0
  -21.4018   -6.5639   23.8213 C   0  0  0  0  0  0
  -21.3659   -5.6791   24.9175 C   0  0  0  0  0  0
  -21.6042   -4.3054   24.7225 C   0  0  0  0  0  0
  -21.8819   -3.8147   23.4346 C   0  0  0  0  0  0
  -21.9194   -4.6964   22.3402 C   0  0  0  0  0  0
  -22.7776  -13.5189   21.1902 C   0  0  0  0  0  0
  -22.1661   -4.2151   21.0980 F   0  0  0  0  0  0
  -21.5627   -3.4538   25.7738 F   0  0  0  0  0  0
  -29.8911  -13.9061   20.3372 N   0  0  0  0  0  0
  -26.2834  -12.9480   20.3203 N   0  0  0  0  0  0
  -25.9330  -11.6596   20.5710 N   0  0  0  0  0  0
  -22.0423  -12.8180   22.0454 N   0  0  0  0  0  0
  -25.4030  -15.1958   20.4145 N   0  0  0  0  0  0
  -31.6486  -15.2637   20.1782 O   0  0  0  0  0  0
  -21.6641   -6.8881   21.4241 O   0  0  0  0  0  0
  -22.3461  -14.5489   20.6737 O   0  0  0  0  0  0
  -24.6603  -31.8262   23.1722 C   0  0  0  0  0  0
  -25.9295  -32.4602   23.8178 C   0  0  1  0  0  0
  -27.2208  -26.9553   20.1860 C   0  0  0  0  0  0
  -25.5970  -33.8415   24.2087 N   0  0  0  0  0  0
  -23.4734  -30.4382   21.5214 C   0  0  2  0  0  0
  -24.9262  -28.8269   20.1168 C   0  0  0  0  0  0
  -22.7650  -29.4455   22.4796 C   0  0  0  0  0  0
  -18.0318  -28.1409   22.8466 C   0  0  0  0  0  0
  -24.1495  -36.7218   23.2648 C   0  0  0  0  0  0
  -26.0408  -30.6426   21.3974 C   0  0  0  0  0  0
  -26.1102  -29.2339   20.7445 C   0  0  0  0  0  0
  -27.2543  -28.3203   20.7507 C   0  0  0  0  0  0
  -26.0065  -26.6911   19.5145 C   0  0  0  0  0  0
  -24.8978  -27.5749   19.4818 C   0  0  0  0  0  0
  -23.7117  -29.7528   20.1482 C   0  0  0  0  0  0
  -25.4134  -36.2977   24.0302 C   0  0  1  0  0  0
  -20.5941  -28.3750   23.1196 C   0  0  2  0  0  0
  -20.6800  -26.9435   22.5403 C   0  0  0  0  0  0
  -19.5773  -26.6379   21.5214 C   0  0  0  0  0  0
  -18.1954  -26.7941   22.1622 C   0  0  0  0  0  0
  -19.1579  -28.8900   23.2818 C   0  0  0  0  0  0
  -18.9489  -30.1490   23.8854 C   0  0  0  0  0  0
  -17.6483  -30.6597   24.0556 C   0  0  0  0  0  0
  -25.9095  -34.9357   23.5015 C   0  0  0  0  0  0
  -16.5373  -29.9086   23.6343 C   0  0  0  0  0  0
  -16.7301  -28.6508   23.0359 C   0  0  0  0  0  0
  -26.4554  -31.6536   25.0697 C   0  0  0  0  0  0
  -25.3687  -31.3779   26.1356 C   0  0  0  0  0  0
  -27.0450  -30.2906   24.6412 C   0  0  0  0  0  0
  -27.6044  -32.4346   25.7502 C   0  0  0  0  0  0
  -27.5570  -37.1768   24.8467 C   0  0  0  0  0  0
  -21.4324  -29.3044   22.3545 N   0  0  0  0  0  0
  -26.4285  -37.3707   23.9403 N   0  0  0  0  0  0
  -24.7460  -30.9952   22.0843 N   0  0  0  0  0  0
  -23.4209  -28.8026   23.3030 O   0  0  0  0  0  0
  -28.2496  -25.8841   20.2199 O   0  0  0  0  0  0
  -26.5703  -34.8886   22.4610 O   0  0  0  0  0  0
  -23.5680  -32.1220   23.6832 O   0  0  0  0  0  0
  -30.3086  -20.3936   20.6974 C   0  0  0  0  0  0
  -28.3559  -18.7899   19.9777 C   0  0  0  0  0  0
  -29.1129  -21.1452   20.3014 C   0  0  0  0  0  0
  -29.5505  -18.0305   20.3727 C   0  0  0  0  0  0
  -29.3868  -23.0054   18.4850 C   0  0  0  0  0  0
  -28.0281  -24.2604   20.3563 C   0  0  0  0  0  0
  -29.0778  -22.8657   19.9817 C   0  0  1  0  0  0
  -28.1563  -20.2056   19.9138 N   0  0  0  0  0  0
  -30.5130  -18.9781   20.7312 N   0  0  0  0  0  0
  -29.5688  -16.4196   20.4140 N   0  0  0  0  0  0
  -31.4659  -12.9915   19.1832 H   0  0  0  0  0  0
  -30.5192  -11.8620   20.1064 H   0  0  0  0  0  0
  -29.9068  -11.7455   17.6664 H   0  0  0  0  0  0
  -29.5725  -13.4593   17.6495 H   0  0  0  0  0  0
  -28.0276  -11.2718   19.0657 H   0  0  0  0  0  0
  -27.4136  -12.3585   17.8454 H   0  0  0  0  0  0
  -27.5411  -14.2392   19.3408 H   0  0  0  0  0  0
  -28.8130  -12.4545   21.4718 H   0  0  0  0  0  0
  -28.3036  -14.1098   21.7127 H   0  0  0  0  0  0
  -25.2774   -9.5678   22.4767 H   0  0  0  0  0  0
  -24.0006   -7.4629   22.7475 H   0  0  0  0  0  0
  -21.0853   -8.8782   19.8950 H   0  0  0  0  0  0
  -22.3717  -10.9675   19.6169 H   0  0  0  0  0  0
  -21.2014   -7.6147   23.9718 H   0  0  0  0  0  0
  -21.1479   -6.0521   25.9078 H   0  0  0  0  0  0
  -22.0597   -2.7609   23.2845 H   0  0  0  0  0  0
  -22.4044  -11.9854   22.4861 H   0  0  0  0  0  0
  -21.1035  -13.1200   22.2644 H   0  0  0  0  0  0
  -24.6219  -15.8349   20.5175 H   0  0  0  0  0  0
  -26.2195  -15.6349   20.0137 H   0  0  0  0  0  0
  -26.7366  -32.5152   23.0897 H   0  0  0  0  0  0
  -25.0055  -33.9495   25.0195 H   0  0  0  0  0  0
  -22.7853  -31.2690   21.3515 H   0  0  0  0  0  0
  -23.3761  -35.9545   23.3291 H   0  0  0  0  0  0
  -24.3570  -36.8881   22.2066 H   0  0  0  0  0  0
  -23.7251  -37.6402   23.6713 H   0  0  0  0  0  0
  -26.2156  -31.3844   20.6170 H   0  0  0  0  0  0
  -26.9032  -30.7011   22.0498 H   0  0  0  0  0  0
  -28.1555  -28.6338   21.2584 H   0  0  0  0  0  0
  -25.8871  -25.7394   19.0181 H   0  0  0  0  0  0
  -23.9986  -27.2578   18.9718 H   0  0  0  0  0  0
  -23.8660  -30.5205   19.3892 H   0  0  0  0  0  0
  -22.8219  -29.2057   19.8318 H   0  0  0  0  0  0
  -25.1333  -36.1779   25.0794 H   0  0  0  0  0  0
  -21.0028  -28.3358   24.1321 H   0  0  0  0  0  0
  -20.5688  -26.2365   23.3639 H   0  0  0  0  0  0
  -21.6663  -26.7420   22.1204 H   0  0  0  0  0  0
  -19.6934  -25.6278   21.1274 H   0  0  0  0  0  0
  -19.6713  -27.3165   20.6724 H   0  0  0  0  0  0
  -17.4222  -26.6678   21.4029 H   0  0  0  0  0  0
  -18.0353  -26.0097   22.9033 H   0  0  0  0  0  0
  -19.7963  -30.7319   24.2204 H   0  0  0  0  0  0
  -17.5033  -31.6273   24.5165 H   0  0  0  0  0  0
  -15.5372  -30.2975   23.7693 H   0  0  0  0  0  0
  -15.8699  -28.0813   22.7101 H   0  0  0  0  0  0
  -24.5883  -30.7114   25.7665 H   0  0  0  0  0  0
  -24.8859  -32.2977   26.4664 H   0  0  0  0  0  0
  -25.7923  -30.9022   27.0210 H   0  0  0  0  0  0
  -26.3112  -29.6581   24.1404 H   0  0  0  0  0  0
  -27.3974  -29.7268   25.5061 H   0  0  0  0  0  0
  -27.9054  -30.4091   23.9825 H   0  0  0  0  0  0
  -27.2604  -33.3682   26.1966 H   0  0  0  0  0  0
  -28.3914  -32.6851   25.0377 H   0  0  0  0  0  0
  -28.0648  -31.8550   26.5514 H   0  0  0  0  0  0
  -28.2578  -38.0071   24.7496 H   0  0  0  0  0  0
  -28.1075  -36.2595   24.6320 H   0  0  0  0  0  0
  -27.2281  -37.1443   25.8868 H   0  0  0  0  0  0
  -20.9573  -29.8728   21.6672 H   0  0  0  0  0  0
  -26.0136  -38.2771   24.1393 H   0  0  0  0  0  0
  -31.1915  -20.9616   20.9530 H   0  0  0  0  0  0
  -27.4882  -18.2234   19.6722 H   0  0  0  0  0  0
  -30.2854  -22.4512   18.2127 H   0  0  0  0  0  0
  -29.5465  -24.0478   18.2076 H   0  0  0  0  0  0
  -28.5635  -22.6217   17.8824 H   0  0  0  0  0  0
  -27.7797  -24.1406   21.4109 H   0  0  0  0  0  0
  -27.0909  -24.0500   19.8431 H   0  0  0  0  0  0
  -29.9935  -23.1621   20.4944 H   0  0  0  0  0  0
  -28.6190  -16.0846   20.4316 H   0  0  0  0  0  0
  1 25  1  0  0  0
  1 30  2  0  0  0
  1 80  1  0  0  0
  2  3  1  0  0  0
  2 25  1  0  0  0
  2 81  1  0  0  0
  2 82  1  0  0  0
  3  4  1  0  0  0
  3 83  1  0  0  0
  3 84  1  0  0  0
  4  5  1  0  0  0
  4 85  1  0  0  0
  4 86  1  0  0  0
  5  6  1  0  0  0
  5 26  1  0  0  0
  5 87  1  0  0  0
  6 25  1  0  0  0
  6 88  1  0  0  0
  6 89  1  0  0  0
  7  8  2  0  0  0
  7 26  1  0  0  0
  7 29  1  0  0  0
  8  9  1  0  0  0
  8 22  1  0  0  0
  9 10  1  0  0  0
  9 27  2  0  0  0
 10 11  2  0  0  0
 10 15  1  0  0  0
 11 12  1  0  0  0
 11 90  1  0  0  0
 12 13  2  0  0  0
 12 91  1  0  0  0
 13 14  1  0  0  0
 13 31  1  0  0  0
 14 15  2  0  0  0
 14 92  1  0  0  0
 15 93  1  0  0  0
 16 17  2  0  0  0
 16 21  1  0  0  0
 16 31  1  0  0  0
 17 18  1  0  0  0
 17 94  1  0  0  0
 18 19  2  0  0  0
 18 95  1  0  0  0
 19 20  1  0  0  0
 19 24  1  0  0  0
 20 21  2  0  0  0
 20 96  1  0  0  0
 21 23  1  0  0  0
 22 28  1  0  0  0
 22 32  2  0  0  0
 26 27  1  0  0  0
 28 97  1  0  0  0
 28 98  1  0  0  0
 29 99  1  0  0  0
 29100  1  0  0  0
 33 34  1  0  0  0
 33 66  1  0  0  0
 33 70  2  0  0  0
 34 36  1  0  0  0
 34 59  1  0  0  0
 34101  1  0  0  0
 35 44  2  0  0  0
 35 45  1  0  0  0
 35 68  1  0  0  0
 36 56  1  0  0  0
 36102  1  0  0  0
 37 39  1  0  0  0
 37 47  1  0  0  0
 37 66  1  0  0  0
 37103  1  0  0  0
 38 43  2  0  0  0
 38 46  1  0  0  0
 38 47  1  0  0  0
 39 64  1  0  0  0
 39 67  2  0  0  0
 40 52  1  0  0  0
 40 53  2  0  0  0
 40 58  1  0  0  0
 41104  1  0  0  0
 41105  1  0  0  0
 41106  1  0  0  0
 41 48  1  0  0  0
 42 43  1  0  0  0
 42 66  1  0  0  0
 42107  1  0  0  0
 42108  1  0  0  0
 43 44  1  0  0  0
 44109  1  0  0  0
 45 46  2  0  0  0
 45110  1  0  0  0
 46111  1  0  0  0
 47112  1  0  0  0
 47113  1  0  0  0
 48 56  1  0  0  0
 48 65  1  0  0  0
 48114  1  0  0  0
 49 50  1  0  0  0
 49 53  1  0  0  0
 49 64  1  0  0  0
 49115  1  0  0  0
 50 51  1  0  0  0
 50116  1  0  0  0
 50117  1  0  0  0
 51 52  1  0  0  0
 51118  1  0  0  0
 51119  1  0  0  0
 52120  1  0  0  0
 52121  1  0  0  0
 53 54  1  0  0  0
 54 55  2  0  0  0
 54122  1  0  0  0
 55 57  1  0  0  0
 55123  1  0  0  0
 56 69  2  0  0  0
 57 58  2  0  0  0
 57124  1  0  0  0
 58125  1  0  0  0
 59 60  1  0  0  0
 59 61  1  0  0  0
 59 62  1  0  0  0
 60126  1  0  0  0
 60127  1  0  0  0
 60128  1  0  0  0
 61129  1  0  0  0
 61130  1  0  0  0
 61131  1  0  0  0
 62132  1  0  0  0
 62133  1  0  0  0
 62134  1  0  0  0
 63 65  1  0  0  0
 63135  1  0  0  0
 63136  1  0  0  0
 63137  1  0  0  0
 64138  1  0  0  0
 65139  1  0  0  0
 68 76  1  0  0  0
 71 73  2  0  0  0
 71 79  1  0  0  0
 71140  1  0  0  0
 72 74  1  0  0  0
 72 78  2  0  0  0
 72141  1  0  0  0
 73 77  1  0  0  0
 73 78  1  0  0  0
 74 79  2  0  0  0
 74 80  1  0  0  0
 75142  1  0  0  0
 75143  1  0  0  0
 75144  1  0  0  0
 75 77  1  0  0  0
 76 77  1  0  0  0
 76145  1  0  0  0
 76146  1  0  0  0
 77147  1  0  0  0
 80148  1  0  0  0
M  ISO  4   1 100  68 101  76 101  80 100
M  END
> <chiral flag>
0

> <version>
0

> <s_m_source_file>
/data/baiqing/PycharmProjects/Reinvent-master-3.2/result/LINK_invent/BTK/process_docking_weight1_custom_sum_contain_oxygen_bond_distance_aromatic_linkinvent_7_9_3/rearranged_h_0181.sdf

> <i_m_source_file_index>
10

> <r_mmod_Potential_Energy-OPLS-2005>
1130.2900390625

> <r_mmod_Stretch_Energy-OPLS-2005>
496.359039306641

> <r_mmod_Bend_Energy-OPLS-2005>
425.427612304688

> <r_mmod_Torsional_Energy-OPLS-2005>
210.770263671875

> <r_mmod_Improper_Torsional_Energy-OPLS-2005>
7.54112529754639

> <r_mmod_Van_der_Waal_Energy-OPLS-2005>
128.770736694336

> <r_mmod_Electrostatic_Energy-OPLS-2005>
-313.87451171875

> <r_mmod_Solvation_Energy-OPLS-2005>
-236.42317199707

> <b_mmod_Minimization_Converged-OPLS-2005>
0

> <r_mmod_RMS_Derivative-OPLS-2005>
0.433307707309723

$$$$
10
                    3D
 Structure written by MMmdl.
157166  0  0  1  0            999 V2000
  -30.6046  -14.8261   20.4349 C   0  0  0  0  0  0
  -30.4185  -12.5040   19.4865 C   0  0  0  0  0  0
  -29.5079  -12.5172   18.2403 C   0  0  0  0  0  0
  -28.0349  -12.3366   18.6539 C   0  0  0  0  0  0
  -27.6306  -13.2502   19.8432 C   0  0  2  0  0  0
  -28.6749  -13.2386   20.9793 C   0  0  0  0  0  0
  -25.2453  -13.8250   20.5725 C   0  0  0  0  0  0
  -24.1763  -13.0466   20.9234 C   0  0  0  0  0  0
  -24.6395  -11.6952   20.8770 C   0  0  0  0  0  0
  -23.9087  -10.4305   21.0420 C   0  0  0  0  0  0
  -24.3632   -9.4211   21.9194 C   0  0  0  0  0  0
  -23.6295   -8.2245   22.0756 C   0  0  0  0  0  0
  -22.4277   -8.0286   21.3543 C   0  0  0  0  0  0
  -21.9918   -9.0271   20.4654 C   0  0  0  0  0  0
  -22.7256  -10.2149   20.3067 C   0  0  0  0  0  0
  -21.6850   -6.0739   22.5281 C   0  0  0  0  0  0
  -21.4018   -6.5643   23.8218 C   0  0  0  0  0  0
  -21.3665   -5.6793   24.9178 C   0  0  0  0  0  0
  -21.6037   -4.3054   24.7223 C   0  0  0  0  0  0
  -21.8816   -3.8151   23.4348 C   0  0  0  0  0  0
  -21.9184   -4.6965   22.3405 C   0  0  0  0  0  0
  -22.7775  -13.5230   21.1869 C   0  0  0  0  0  0
  -22.1650   -4.2151   21.0980 F   0  0  0  0  0  0
  -21.5629   -3.4540   25.7742 F   0  0  0  0  0  0
  -29.9583  -13.6031   20.3760 N   0  0  0  0  0  0
  -26.2884  -12.9490   20.3279 N   0  0  0  0  0  0
  -25.9329  -11.6618   20.5770 N   0  0  0  0  0  0
  -22.0408  -12.8237   22.0434 N   0  0  0  0  0  0
  -25.4150  -15.1972   20.4177 N   0  0  0  0  0  0
  -31.8087  -14.8447   20.1532 O   0  0  0  0  0  0
  -21.6640   -6.8887   21.4242 O   0  0  0  0  0  0
  -22.3460  -14.5522   20.6697 O   0  0  0  0  0  0
  -24.6363  -31.8492   23.1936 C   0  0  0  0  0  0
  -25.9170  -32.4719   23.8295 C   0  0  1  0  0  0
  -27.2105  -27.1951   20.1530 C   0  0  0  0  0  0
  -25.5953  -33.8527   24.2218 N   0  0  0  0  0  0
  -23.4350  -30.4687   21.5376 C   0  0  2  0  0  0
  -24.8798  -28.8988   20.1129 C   0  0  0  0  0  0
  -22.7520  -29.4563   22.4901 C   0  0  0  0  0  0
  -18.0294  -28.1392   22.8486 C   0  0  0  0  0  0
  -24.1479  -36.7267   23.2640 C   0  0  0  0  0  0
  -25.9831  -30.7436   21.3782 C   0  0  0  0  0  0
  -26.0510  -29.3556   20.7303 C   0  0  0  0  0  0
  -27.2165  -28.5155   20.7380 C   0  0  0  0  0  0
  -26.0207  -26.8229   19.4931 C   0  0  0  0  0  0
  -24.8723  -27.6441   19.4811 C   0  0  0  0  0  0
  -23.6561  -29.7977   20.1550 C   0  0  0  0  0  0
  -25.4112  -36.3050   24.0317 C   0  0  1  0  0  0
  -20.5905  -28.3698   23.1274 C   0  0  2  0  0  0
  -20.6775  -26.9414   22.5413 C   0  0  0  0  0  0
  -19.5749  -26.6389   21.5218 C   0  0  0  0  0  0
  -18.1935  -26.7937   22.1628 C   0  0  0  0  0  0
  -19.1553  -28.8865   23.2873 C   0  0  0  0  0  0
  -18.9468  -30.1467   23.8892 C   0  0  0  0  0  0
  -17.6466  -30.6594   24.0566 C   0  0  0  0  0  0
  -25.9055  -34.9423   23.5066 C   0  0  0  0  0  0
  -16.5358  -29.9089   23.6337 C   0  0  0  0  0  0
  -16.7282  -28.6508   23.0359 C   0  0  0  0  0  0
  -26.4523  -31.6572   25.0706 C   0  0  0  0  0  0
  -25.3744  -31.3753   26.1428 C   0  0  0  0  0  0
  -27.0365  -30.2981   24.6210 C   0  0  0  0  0  0
  -27.6058  -32.4329   25.7499 C   0  0  0  0  0  0
  -27.5568  -37.1790   24.8473 C   0  0  0  0  0  0
  -21.4227  -29.3035   22.3650 N   0  0  0  0  0  0
  -26.4281  -37.3756   23.9417 N   0  0  0  0  0  0
  -24.7045  -31.0405   22.0930 N   0  0  0  0  0  0
  -23.4200  -28.8107   23.3016 O   0  0  0  0  0  0
  -28.3243  -26.3051   20.1600 O   0  0  0  0  0  0
  -26.5631  -34.8917   22.4639 O   0  0  0  0  0  0
  -23.5507  -32.1341   23.7214 O   0  0  0  0  0  0
  -29.4584  -22.6158   19.8949 C   0  0  0  0  0  0
  -29.4556  -24.0602   19.8435 C   0  0  0  0  0  0
  -28.3318  -21.8681   20.3479 C   0  0  0  0  0  0
  -27.2600  -22.7580   20.7566 C   0  0  0  0  0  0
  -28.3285  -24.8508   20.2221 C   0  0  0  0  0  0
  -28.1685  -20.2875   20.2115 C   0  0  0  0  0  0
  -29.3647  -18.4319   21.5314 C   0  0  0  0  0  0
  -29.2227  -18.2832   19.1735 C   0  0  0  0  0  0
  -29.2514  -16.8056   21.4790 C   0  0  0  0  0  0
  -30.2431  -17.0737   19.3364 C   0  0  0  0  0  0
  -25.9451  -22.2329   21.3099 C   0  0  0  0  0  0
  -27.2626  -24.1454   20.6955 N   0  0  0  0  0  0
  -29.1407  -19.2693   20.2963 N   0  0  0  0  0  0
  -29.8771  -16.0393   20.3478 N   0  0  0  0  0  0
  -27.0253  -19.9136   19.9384 O   0  0  0  0  0  0
  -31.4620  -12.6127   19.1892 H   0  0  0  0  0  0
  -30.3539  -11.5431   19.9990 H   0  0  0  0  0  0
  -29.8025  -11.7290   17.5458 H   0  0  0  0  0  0
  -29.6288  -13.4604   17.7042 H   0  0  0  0  0  0
  -27.9015  -11.2902   18.9310 H   0  0  0  0  0  0
  -27.3759  -12.5116   17.8026 H   0  0  0  0  0  0
  -27.6101  -14.2644   19.4417 H   0  0  0  0  0  0
  -28.7309  -12.2596   21.4572 H   0  0  0  0  0  0
  -28.4039  -13.9515   21.7594 H   0  0  0  0  0  0
  -25.2778   -9.5687   22.4774 H   0  0  0  0  0  0
  -24.0003   -7.4645   22.7484 H   0  0  0  0  0  0
  -21.0842   -8.8801   19.8975 H   0  0  0  0  0  0
  -22.3712  -10.9690   19.6180 H   0  0  0  0  0  0
  -21.2023   -7.6155   23.9725 H   0  0  0  0  0  0
  -21.1485   -6.0525   25.9083 H   0  0  0  0  0  0
  -22.0589   -2.7611   23.2846 H   0  0  0  0  0  0
  -22.4002  -11.9918   22.4875 H   0  0  0  0  0  0
  -21.1026  -13.1280   22.2613 H   0  0  0  0  0  0
  -24.6531  -15.8550   20.5408 H   0  0  0  0  0  0
  -26.2735  -15.6384   20.1136 H   0  0  0  0  0  0
  -26.7221  -32.5343   23.1019 H   0  0  0  0  0  0
  -25.0125  -33.9647   25.0384 H   0  0  0  0  0  0
  -22.7325  -31.2924   21.3880 H   0  0  0  0  0  0
  -23.3739  -35.9599   23.3304 H   0  0  0  0  0  0
  -24.3568  -36.8891   22.2055 H   0  0  0  0  0  0
  -23.7230  -37.6467   23.6664 H   0  0  0  0  0  0
  -26.1206  -31.4930   20.5975 H   0  0  0  0  0  0
  -26.8624  -30.8034   22.0076 H   0  0  0  0  0  0
  -28.1181  -28.8631   21.2210 H   0  0  0  0  0  0
  -25.9670  -25.8627   19.0006 H   0  0  0  0  0  0
  -23.9785  -27.2947   18.9835 H   0  0  0  0  0  0
  -23.7911  -30.5729   19.3991 H   0  0  0  0  0  0
  -22.7715  -29.2375   19.8461 H   0  0  0  0  0  0
  -25.1291  -36.1880   25.0805 H   0  0  0  0  0  0
  -20.9998  -28.3275   24.1400 H   0  0  0  0  0  0
  -20.5682  -26.2302   23.3615 H   0  0  0  0  0  0
  -21.6635  -26.7430   22.1207 H   0  0  0  0  0  0
  -19.6903  -25.6301   21.1252 H   0  0  0  0  0  0
  -19.6692  -27.3194   20.6745 H   0  0  0  0  0  0
  -17.4200  -26.6698   21.4033 H   0  0  0  0  0  0
  -18.0322  -26.0083   22.9026 H   0  0  0  0  0  0
  -19.7940  -30.7288   24.2260 H   0  0  0  0  0  0
  -17.5015  -31.6274   24.5160 H   0  0  0  0  0  0
  -15.5355  -30.2987   23.7661 H   0  0  0  0  0  0
  -15.8682  -28.0820   22.7080 H   0  0  0  0  0  0
  -24.5922  -30.7079   25.7788 H   0  0  0  0  0  0
  -24.8932  -32.2932   26.4815 H   0  0  0  0  0  0
  -25.8069  -30.8984   27.0230 H   0  0  0  0  0  0
  -26.2948  -29.6731   24.1213 H   0  0  0  0  0  0
  -27.4015  -29.7240   25.4738 H   0  0  0  0  0  0
  -27.8841  -30.4249   23.9469 H   0  0  0  0  0  0
  -27.2637  -33.3634   26.2050 H   0  0  0  0  0  0
  -28.3894  -32.6888   25.0352 H   0  0  0  0  0  0
  -28.0687  -31.8472   26.5451 H   0  0  0  0  0  0
  -28.2590  -38.0081   24.7498 H   0  0  0  0  0  0
  -28.1049  -36.2608   24.6307 H   0  0  0  0  0  0
  -27.2289  -37.1455   25.8879 H   0  0  0  0  0  0
  -20.9417  -29.8748   21.6845 H   0  0  0  0  0  0
  -26.0146  -38.2822   24.1425 H   0  0  0  0  0  0
  -30.3313  -22.0830   19.5471 H   0  0  0  0  0  0
  -30.3394  -24.5691   19.4865 H   0  0  0  0  0  0
  -30.3692  -18.6791   21.8742 H   0  0  0  0  0  0
  -28.7072  -18.7937   22.3240 H   0  0  0  0  0  0
  -28.2312  -17.8713   18.9711 H   0  0  0  0  0  0
  -29.4948  -18.8425   18.2776 H   0  0  0  0  0  0
  -29.6467  -16.4069   22.4149 H   0  0  0  0  0  0
  -28.1930  -16.5447   21.4796 H   0  0  0  0  0  0
  -31.2432  -17.4550   19.5479 H   0  0  0  0  0  0
  -30.3179  -16.5686   18.3716 H   0  0  0  0  0  0
  -26.0940  -21.3480   21.9285 H   0  0  0  0  0  0
  -25.2616  -21.9830   20.4994 H   0  0  0  0  0  0
  -25.4597  -22.9800   21.9393 H   0  0  0  0  0  0
  1 25  1  0  0  0
  1 30  2  0  0  0
  1 84  1  0  0  0
  2  3  1  0  0  0
  2 25  1  0  0  0
  2 86  1  0  0  0
  2 87  1  0  0  0
  3  4  1  0  0  0
  3 88  1  0  0  0
  3 89  1  0  0  0
  4  5  1  0  0  0
  4 90  1  0  0  0
  4 91  1  0  0  0
  5  6  1  0  0  0
  5 26  1  0  0  0
  5 92  1  0  0  0
  6 25  1  0  0  0
  6 93  1  0  0  0
  6 94  1  0  0  0
  7  8  2  0  0  0
  7 26  1  0  0  0
  7 29  1  0  0  0
  8  9  1  0  0  0
  8 22  1  0  0  0
  9 10  1  0  0  0
  9 27  2  0  0  0
 10 11  2  0  0  0
 10 15  1  0  0  0
 11 12  1  0  0  0
 11 95  1  0  0  0
 12 13  2  0  0  0
 12 96  1  0  0  0
 13 14  1  0  0  0
 13 31  1  0  0  0
 14 15  2  0  0  0
 14 97  1  0  0  0
 15 98  1  0  0  0
 16 17  2  0  0  0
 16 21  1  0  0  0
 16 31  1  0  0  0
 17 18  1  0  0  0
 17 99  1  0  0  0
 18 19  2  0  0  0
 18100  1  0  0  0
 19 20  1  0  0  0
 19 24  1  0  0  0
 20 21  2  0  0  0
 20101  1  0  0  0
 21 23  1  0  0  0
 22 28  1  0  0  0
 22 32  2  0  0  0
 26 27  1  0  0  0
 28102  1  0  0  0
 28103  1  0  0  0
 29104  1  0  0  0
 29105  1  0  0  0
 33 34  1  0  0  0
 33 66  1  0  0  0
 33 70  2  0  0  0
 34 36  1  0  0  0
 34 59  1  0  0  0
 34106  1  0  0  0
 35 44  2  0  0  0
 35 45  1  0  0  0
 35 68  1  0  0  0
 36 56  1  0  0  0
 36107  1  0  0  0
 37 39  1  0  0  0
 37 47  1  0  0  0
 37 66  1  0  0  0
 37108  1  0  0  0
 38 43  2  0  0  0
 38 46  1  0  0  0
 38 47  1  0  0  0
 39 64  1  0  0  0
 39 67  2  0  0  0
 40 52  1  0  0  0
 40 53  2  0  0  0
 40 58  1  0  0  0
 41109  1  0  0  0
 41110  1  0  0  0
 41111  1  0  0  0
 41 48  1  0  0  0
 42 43  1  0  0  0
 42 66  1  0  0  0
 42112  1  0  0  0
 42113  1  0  0  0
 43 44  1  0  0  0
 44114  1  0  0  0
 45 46  2  0  0  0
 45115  1  0  0  0
 46116  1  0  0  0
 47117  1  0  0  0
 47118  1  0  0  0
 48 56  1  0  0  0
 48 65  1  0  0  0
 48119  1  0  0  0
 49 50  1  0  0  0
 49 53  1  0  0  0
 49 64  1  0  0  0
 49120  1  0  0  0
 50 51  1  0  0  0
 50121  1  0  0  0
 50122  1  0  0  0
 51 52  1  0  0  0
 51123  1  0  0  0
 51124  1  0  0  0
 52125  1  0  0  0
 52126  1  0  0  0
 53 54  1  0  0  0
 54 55  2  0  0  0
 54127  1  0  0  0
 55 57  1  0  0  0
 55128  1  0  0  0
 56 69  2  0  0  0
 57 58  2  0  0  0
 57129  1  0  0  0
 58130  1  0  0  0
 59 60  1  0  0  0
 59 61  1  0  0  0
 59 62  1  0  0  0
 60131  1  0  0  0
 60132  1  0  0  0
 60133  1  0  0  0
 61134  1  0  0  0
 61135  1  0  0  0
 61136  1  0  0  0
 62137  1  0  0  0
 62138  1  0  0  0
 62139  1  0  0  0
 63 65  1  0  0  0
 63140  1  0  0  0
 63141  1  0  0  0
 63142  1  0  0  0
 64143  1  0  0  0
 65144  1  0  0  0
 68 75  1  0  0  0
 71 72  2  0  0  0
 71 73  1  0  0  0
 71145  1  0  0  0
 72 75  1  0  0  0
 72146  1  0  0  0
 73 74  2  0  0  0
 73 76  1  0  0  0
 74 81  1  0  0  0
 74 82  1  0  0  0
 75 82  2  0  0  0
 76 83  1  0  0  0
 76 85  2  0  0  0
 77 79  1  0  0  0
 77 83  1  0  0  0
 77147  1  0  0  0
 77148  1  0  0  0
 78 80  1  0  0  0
 78 83  1  0  0  0
 78149  1  0  0  0
 78150  1  0  0  0
 79 84  1  0  0  0
 79151  1  0  0  0
 79152  1  0  0  0
 80 84  1  0  0  0
 80153  1  0  0  0
 80154  1  0  0  0
 81155  1  0  0  0
 81156  1  0  0  0
 81157  1  0  0  0
M  ISO  4   1 100  68 101  75 101  84 100
M  END
> <chiral flag>
0

> <version>
0

> <s_m_source_file>
/data/baiqing/PycharmProjects/Reinvent-master-3.2/result/LINK_invent/BTK/process_docking_weight1_custom_sum_contain_oxygen_bond_distance_aromatic_linkinvent_7_9_3/rearranged_h_0181.sdf

> <i_m_source_file_index>
11

> <r_mmod_Potential_Energy-OPLS-2005>
512.326232910156

> <r_mmod_Stretch_Energy-OPLS-2005>
159.056732177734

> <r_mmod_Bend_Energy-OPLS-2005>
241.312408447266

> <r_mmod_Torsional_Energy-OPLS-2005>
444.625305175781

> <r_mmod_Improper_Torsional_Energy-OPLS-2005>
22.3397808074951

> <r_mmod_Van_der_Waal_Energy-OPLS-2005>
148.841064453125

> <r_mmod_Electrostatic_Energy-OPLS-2005>
-409.247619628906

> <r_mmod_Solvation_Energy-OPLS-2005>
-216.163146972656

> <b_mmod_Minimization_Converged-OPLS-2005>
0

> <r_mmod_RMS_Derivative-OPLS-2005>
1.93057608604431

$$$$
11
                    3D
 Structure written by MMmdl.
159168  0  0  1  0            999 V2000
  -30.6224  -14.7403   20.4470 C   0  0  0  0  0  0
  -30.4258  -12.4420   19.4850 C   0  0  0  0  0  0
  -29.5111  -12.4907   18.2418 C   0  0  0  0  0  0
  -28.0354  -12.3251   18.6527 C   0  0  0  0  0  0
  -27.6381  -13.2329   19.8465 C   0  0  2  0  0  0
  -28.6805  -13.1824   20.9853 C   0  0  0  0  0  0
  -25.2486  -13.8205   20.5701 C   0  0  0  0  0  0
  -24.1790  -13.0445   20.9220 C   0  0  0  0  0  0
  -24.6384  -11.6924   20.8753 C   0  0  0  0  0  0
  -23.9071  -10.4289   21.0413 C   0  0  0  0  0  0
  -24.3621   -9.4199   21.9188 C   0  0  0  0  0  0
  -23.6293   -8.2238   22.0755 C   0  0  0  0  0  0
  -22.4278   -8.0284   21.3546 C   0  0  0  0  0  0
  -21.9909   -9.0261   20.4653 C   0  0  0  0  0  0
  -22.7240  -10.2137   20.3065 C   0  0  0  0  0  0
  -21.6848   -6.0736   22.5285 C   0  0  0  0  0  0
  -21.4019   -6.5642   23.8218 C   0  0  0  0  0  0
  -21.3663   -5.6795   24.9177 C   0  0  0  0  0  0
  -21.6040   -4.3056   24.7229 C   0  0  0  0  0  0
  -21.8813   -3.8150   23.4347 C   0  0  0  0  0  0
  -21.9187   -4.6965   22.3403 C   0  0  0  0  0  0
  -22.7813  -13.5221   21.1867 C   0  0  0  0  0  0
  -22.1653   -4.2152   21.0985 F   0  0  0  0  0  0
  -21.5622   -3.4536   25.7742 F   0  0  0  0  0  0
  -29.9827  -13.5214   20.3993 N   0  0  0  0  0  0
  -26.2909  -12.9415   20.3251 N   0  0  0  0  0  0
  -25.9310  -11.6555   20.5734 N   0  0  0  0  0  0
  -22.0448  -12.8231   22.0427 N   0  0  0  0  0  0
  -25.4129  -15.1931   20.4125 N   0  0  0  0  0  0
  -31.8221  -14.7841   20.1540 O   0  0  0  0  0  0
  -21.6641   -6.8883   21.4253 O   0  0  0  0  0  0
  -22.3501  -14.5516   20.6690 O   0  0  0  0  0  0
  -24.6298  -31.8564   23.1972 C   0  0  0  0  0  0
  -25.9128  -32.4754   23.8331 C   0  0  1  0  0  0
  -27.2191  -27.2744   20.1361 C   0  0  0  0  0  0
  -25.5909  -33.8554   24.2249 N   0  0  0  0  0  0
  -23.4261  -30.4777   21.5406 C   0  0  2  0  0  0
  -24.8727  -28.9187   20.1165 C   0  0  0  0  0  0
  -22.7496  -29.4615   22.4909 C   0  0  0  0  0  0
  -18.0296  -28.1414   22.8492 C   0  0  0  0  0  0
  -24.1486  -36.7293   23.2640 C   0  0  0  0  0  0
  -25.9703  -30.7742   21.3729 C   0  0  0  0  0  0
  -26.0437  -29.3947   20.7206 C   0  0  0  0  0  0
  -27.2238  -28.5881   20.7117 C   0  0  0  0  0  0
  -26.0267  -26.8506   19.5177 C   0  0  0  0  0  0
  -24.8678  -27.6548   19.5038 C   0  0  0  0  0  0
  -23.6442  -29.8082   20.1583 C   0  0  0  0  0  0
  -25.4109  -36.3065   24.0321 C   0  0  1  0  0  0
  -20.5895  -28.3718   23.1278 C   0  0  2  0  0  0
  -20.6781  -26.9433   22.5420 C   0  0  0  0  0  0
  -19.5751  -26.6401   21.5229 C   0  0  0  0  0  0
  -18.1934  -26.7961   22.1640 C   0  0  0  0  0  0
  -19.1550  -28.8887   23.2881 C   0  0  0  0  0  0
  -18.9465  -30.1487   23.8898 C   0  0  0  0  0  0
  -17.6461  -30.6602   24.0588 C   0  0  0  0  0  0
  -25.9050  -34.9438   23.5095 C   0  0  0  0  0  0
  -16.5352  -29.9106   23.6339 C   0  0  0  0  0  0
  -16.7285  -28.6533   23.0345 C   0  0  0  0  0  0
  -26.4506  -31.6580   25.0719 C   0  0  0  0  0  0
  -25.3729  -31.3719   26.1445 C   0  0  0  0  0  0
  -27.0358  -30.2993   24.6208 C   0  0  0  0  0  0
  -27.6057  -32.4338   25.7488 C   0  0  0  0  0  0
  -27.5574  -37.1803   24.8461 C   0  0  0  0  0  0
  -21.4205  -29.3049   22.3655 N   0  0  0  0  0  0
  -26.4281  -37.3765   23.9411 N   0  0  0  0  0  0
  -24.6950  -31.0546   22.0934 N   0  0  0  0  0  0
  -23.4210  -28.8160   23.3008 O   0  0  0  0  0  0
  -28.3290  -26.4115   20.1188 O   0  0  0  0  0  0
  -26.5638  -34.8915   22.4674 O   0  0  0  0  0  0
  -23.5446  -32.1382   23.7265 O   0  0  0  0  0  0
  -30.9936  -20.0517   20.2390 C   0  0  0  0  0  0
  -29.2373  -18.3981   20.3673 C   0  0  0  0  0  0
  -29.6097  -19.7988   20.2238 C   0  0  0  0  0  0
  -31.9056  -18.9882   20.3877 C   0  0  0  0  0  0
  -30.2165  -17.3314   20.5070 C   0  0  0  0  0  0
  -34.1075  -19.8584   21.5173 C   0  0  0  0  0  0
  -34.0900  -20.5107   20.1529 C   0  0  0  0  0  0
  -33.4003  -19.1802   20.3689 C   0  0  0  0  0  0
  -28.6338  -21.0153   19.8971 C   0  0  0  0  0  0
  -28.4039  -23.6781   19.8403 C   0  0  0  0  0  0
  -28.2213  -25.0350   20.7049 C   0  0  0  0  0  0
  -31.5169  -17.7024   20.5413 N   0  0  0  0  0  0
  -29.8529  -15.8939   20.5951 N   0  0  0  0  0  0
  -28.8260  -22.3806   20.5693 N   0  3  0  0  0  0
  -31.4700  -12.5459   19.1869 H   0  0  0  0  0  0
  -30.3559  -11.4721   19.9805 H   0  0  0  0  0  0
  -29.7932  -11.7067   17.5373 H   0  0  0  0  0  0
  -29.6453  -13.4390   17.7189 H   0  0  0  0  0  0
  -27.8875  -11.2783   18.9215 H   0  0  0  0  0  0
  -27.3820  -12.5141   17.8009 H   0  0  0  0  0  0
  -27.6288  -14.2495   19.4543 H   0  0  0  0  0  0
  -28.7119  -12.1939   21.4450 H   0  0  0  0  0  0
  -28.4173  -13.8806   21.7819 H   0  0  0  0  0  0
  -25.2758   -9.5672   22.4777 H   0  0  0  0  0  0
  -23.9996   -7.4622   22.7476 H   0  0  0  0  0  0
  -21.0831   -8.8792   19.8966 H   0  0  0  0  0  0
  -22.3694  -10.9689   19.6190 H   0  0  0  0  0  0
  -21.2027   -7.6153   23.9727 H   0  0  0  0  0  0
  -21.1485   -6.0523   25.9081 H   0  0  0  0  0  0
  -22.0586   -2.7615   23.2847 H   0  0  0  0  0  0
  -22.4041  -11.9909   22.4863 H   0  0  0  0  0  0
  -21.1062  -13.1272   22.2609 H   0  0  0  0  0  0
  -24.6319  -15.8328   20.5150 H   0  0  0  0  0  0
  -26.2389  -15.6392   20.0381 H   0  0  0  0  0  0
  -26.7195  -32.5410   23.1072 H   0  0  0  0  0  0
  -25.0011  -33.9692   25.0363 H   0  0  0  0  0  0
  -22.7196  -31.2967   21.3920 H   0  0  0  0  0  0
  -23.3730  -35.9642   23.3303 H   0  0  0  0  0  0
  -24.3565  -36.8929   22.2053 H   0  0  0  0  0  0
  -23.7269  -37.6500   23.6686 H   0  0  0  0  0  0
  -26.1049  -31.5311   20.5998 H   0  0  0  0  0  0
  -26.8494  -30.8259   22.0041 H   0  0  0  0  0  0
  -28.1285  -28.9536   21.1770 H   0  0  0  0  0  0
  -25.9880  -25.8805   19.0428 H   0  0  0  0  0  0
  -23.9712  -27.2854   19.0263 H   0  0  0  0  0  0
  -23.7680  -30.5838   19.4012 H   0  0  0  0  0  0
  -22.7619  -29.2419   19.8551 H   0  0  0  0  0  0
  -25.1293  -36.1903   25.0810 H   0  0  0  0  0  0
  -21.0001  -28.3310   24.1398 H   0  0  0  0  0  0
  -20.5700  -26.2326   23.3622 H   0  0  0  0  0  0
  -21.6646  -26.7467   22.1195 H   0  0  0  0  0  0
  -19.6905  -25.6312   21.1260 H   0  0  0  0  0  0
  -19.6689  -27.3211   20.6757 H   0  0  0  0  0  0
  -17.4198  -26.6718   21.4042 H   0  0  0  0  0  0
  -18.0317  -26.0109   22.9039 H   0  0  0  0  0  0
  -19.7932  -30.7327   24.2245 H   0  0  0  0  0  0
  -17.5006  -31.6274   24.5210 H   0  0  0  0  0  0
  -15.5354  -30.3010   23.7663 H   0  0  0  0  0  0
  -15.8684  -28.0870   22.7033 H   0  0  0  0  0  0
  -24.5883  -30.7098   25.7773 H   0  0  0  0  0  0
  -24.8933  -32.2876   26.4910 H   0  0  0  0  0  0
  -25.8035  -30.8862   27.0210 H   0  0  0  0  0  0
  -26.2940  -29.6732   24.1237 H   0  0  0  0  0  0
  -27.4038  -29.7280   25.4743 H   0  0  0  0  0  0
  -27.8825  -30.4262   23.9457 H   0  0  0  0  0  0
  -27.2659  -33.3640   26.2063 H   0  0  0  0  0  0
  -28.3866  -32.6913   25.0315 H   0  0  0  0  0  0
  -28.0745  -31.8474   26.5403 H   0  0  0  0  0  0
  -28.2591  -38.0098   24.7494 H   0  0  0  0  0  0
  -28.1070  -36.2630   24.6297 H   0  0  0  0  0  0
  -27.2294  -37.1468   25.8863 H   0  0  0  0  0  0
  -20.9379  -29.8767   21.6860 H   0  0  0  0  0  0
  -26.0151  -38.2839   24.1401 H   0  0  0  0  0  0
  -31.3573  -21.0571   20.0917 H   0  0  0  0  0  0
  -28.1880  -18.1398   20.3177 H   0  0  0  0  0  0
  -33.4999  -20.3209   22.2925 H   0  0  0  0  0  0
  -35.0544  -19.4383   21.8508 H   0  0  0  0  0  0
  -35.0234  -20.5012   19.5928 H   0  0  0  0  0  0
  -33.4983  -21.4161   20.0428 H   0  0  0  0  0  0
  -33.8902  -18.3090   19.9358 H   0  0  0  0  0  0
  -27.6056  -20.6945   20.0682 H   0  0  0  0  0  0
  -28.7118  -21.1736   18.8215 H   0  0  0  0  0  0
  -29.1447  -23.8608   19.0626 H   0  0  0  0  0  0
  -27.4671  -23.4917   19.3155 H   0  0  0  0  0  0
  -28.9952  -25.0200   21.4730 H   0  0  0  0  0  0
  -27.2870  -24.9633   21.2646 H   0  0  0  0  0  0
  -28.8725  -15.7129   20.7304 H   0  0  0  0  0  0
  -29.8023  -22.4574   20.8023 H   0  0  0  0  0  0
  -28.3318  -22.3217   21.4455 H   0  0  0  0  0  0
  1 25  1  0  0  0
  1 30  2  0  0  0
  1 83  1  0  0  0
  2  3  1  0  0  0
  2 25  1  0  0  0
  2 85  1  0  0  0
  2 86  1  0  0  0
  3  4  1  0  0  0
  3 87  1  0  0  0
  3 88  1  0  0  0
  4  5  1  0  0  0
  4 89  1  0  0  0
  4 90  1  0  0  0
  5  6  1  0  0  0
  5 26  1  0  0  0
  5 91  1  0  0  0
  6 25  1  0  0  0
  6 92  1  0  0  0
  6 93  1  0  0  0
  7  8  2  0  0  0
  7 26  1  0  0  0
  7 29  1  0  0  0
  8  9  1  0  0  0
  8 22  1  0  0  0
  9 10  1  0  0  0
  9 27  2  0  0  0
 10 11  2  0  0  0
 10 15  1  0  0  0
 11 12  1  0  0  0
 11 94  1  0  0  0
 12 13  2  0  0  0
 12 95  1  0  0  0
 13 14  1  0  0  0
 13 31  1  0  0  0
 14 15  2  0  0  0
 14 96  1  0  0  0
 15 97  1  0  0  0
 16 17  2  0  0  0
 16 21  1  0  0  0
 16 31  1  0  0  0
 17 18  1  0  0  0
 17 98  1  0  0  0
 18 19  2  0  0  0
 18 99  1  0  0  0
 19 20  1  0  0  0
 19 24  1  0  0  0
 20 21  2  0  0  0
 20100  1  0  0  0
 21 23  1  0  0  0
 22 28  1  0  0  0
 22 32  2  0  0  0
 26 27  1  0  0  0
 28101  1  0  0  0
 28102  1  0  0  0
 29103  1  0  0  0
 29104  1  0  0  0
 33 34  1  0  0  0
 33 66  1  0  0  0
 33 70  2  0  0  0
 34 36  1  0  0  0
 34 59  1  0  0  0
 34105  1  0  0  0
 35 44  2  0  0  0
 35 45  1  0  0  0
 35 68  1  0  0  0
 36 56  1  0  0  0
 36106  1  0  0  0
 37 39  1  0  0  0
 37 47  1  0  0  0
 37 66  1  0  0  0
 37107  1  0  0  0
 38 43  2  0  0  0
 38 46  1  0  0  0
 38 47  1  0  0  0
 39 64  1  0  0  0
 39 67  2  0  0  0
 40 52  1  0  0  0
 40 53  2  0  0  0
 40 58  1  0  0  0
 41108  1  0  0  0
 41109  1  0  0  0
 41110  1  0  0  0
 41 48  1  0  0  0
 42 43  1  0  0  0
 42 66  1  0  0  0
 42111  1  0  0  0
 42112  1  0  0  0
 43 44  1  0  0  0
 44113  1  0  0  0
 45 46  2  0  0  0
 45114  1  0  0  0
 46115  1  0  0  0
 47116  1  0  0  0
 47117  1  0  0  0
 48 56  1  0  0  0
 48 65  1  0  0  0
 48118  1  0  0  0
 49 50  1  0  0  0
 49 53  1  0  0  0
 49 64  1  0  0  0
 49119  1  0  0  0
 50 51  1  0  0  0
 50120  1  0  0  0
 50121  1  0  0  0
 51 52  1  0  0  0
 51122  1  0  0  0
 51123  1  0  0  0
 52124  1  0  0  0
 52125  1  0  0  0
 53 54  1  0  0  0
 54 55  2  0  0  0
 54126  1  0  0  0
 55 57  1  0  0  0
 55127  1  0  0  0
 56 69  2  0  0  0
 57 58  2  0  0  0
 57128  1  0  0  0
 58129  1  0  0  0
 59 60  1  0  0  0
 59 61  1  0  0  0
 59 62  1  0  0  0
 60130  1  0  0  0
 60131  1  0  0  0
 60132  1  0  0  0
 61133  1  0  0  0
 61134  1  0  0  0
 61135  1  0  0  0
 62136  1  0  0  0
 62137  1  0  0  0
 62138  1  0  0  0
 63 65  1  0  0  0
 63139  1  0  0  0
 63140  1  0  0  0
 63141  1  0  0  0
 64142  1  0  0  0
 65143  1  0  0  0
 68 81  1  0  0  0
 71 73  2  0  0  0
 71 74  1  0  0  0
 71144  1  0  0  0
 72 73  1  0  0  0
 72 75  2  0  0  0
 72145  1  0  0  0
 73 79  1  0  0  0
 74 82  2  0  0  0
 74 78  1  0  0  0
 75 82  1  0  0  0
 75 83  1  0  0  0
 76 77  1  0  0  0
 76 78  1  0  0  0
 76146  1  0  0  0
 76147  1  0  0  0
 77 78  1  0  0  0
 77148  1  0  0  0
 77149  1  0  0  0
 78150  1  0  0  0
 79 84  1  0  0  0
 79151  1  0  0  0
 79152  1  0  0  0
 80 81  1  0  0  0
 80 84  1  0  0  0
 80153  1  0  0  0
 80154  1  0  0  0
 81155  1  0  0  0
 81156  1  0  0  0
 83157  1  0  0  0
 84158  1  0  0  0
 84159  1  0  0  0
M  CHG  1  84   1
M  ISO  4   1 100  68 101  81 101  83 100
M  END
> <chiral flag>
0

> <version>
0

> <s_m_source_file>
/data/baiqing/PycharmProjects/Reinvent-master-3.2/result/LINK_invent/BTK/process_docking_weight1_custom_sum_contain_oxygen_bond_distance_aromatic_linkinvent_7_9_3/rearranged_h_0181.sdf

> <i_m_source_file_index>
12

> <r_mmod_Potential_Energy-OPLS-2005>
-200.200729370117

> <r_mmod_Stretch_Energy-OPLS-2005>
115.291465759277

> <r_mmod_Bend_Energy-OPLS-2005>
165.433853149414

> <r_mmod_Torsional_Energy-OPLS-2005>
252.323181152344

> <r_mmod_Improper_Torsional_Energy-OPLS-2005>
5.93011808395386

> <r_mmod_Van_der_Waal_Energy-OPLS-2005>
135.740081787109

> <r_mmod_Electrostatic_Energy-OPLS-2005>
-443.11474609375

> <r_mmod_Solvation_Energy-OPLS-2005>
-510.449188232422

> <b_mmod_Minimization_Converged-OPLS-2005>
0

> <r_mmod_RMS_Derivative-OPLS-2005>
1.98737347126007

$$$$
12
                    3D
 Structure written by MMmdl.
152161  0  0  1  0            999 V2000
  -30.4083  -15.4201   20.3477 C   0  0  0  0  0  0
  -30.4296  -12.9322   19.5045 C   0  0  0  0  0  0
  -29.5322  -12.5954   18.2865 C   0  0  0  0  0  0
  -28.0941  -12.2872   18.7346 C   0  0  0  0  0  0
  -27.6000  -13.2837   19.8105 C   0  0  2  0  0  0
  -28.6355  -13.5484   20.9243 C   0  0  0  0  0  0
  -25.2375  -13.8259   20.5795 C   0  0  0  0  0  0
  -24.1731  -13.0437   20.9279 C   0  0  0  0  0  0
  -24.6397  -11.6936   20.8775 C   0  0  0  0  0  0
  -23.9097  -10.4290   21.0410 C   0  0  0  0  0  0
  -24.3640   -9.4202   21.9186 C   0  0  0  0  0  0
  -23.6306   -8.2241   22.0754 C   0  0  0  0  0  0
  -22.4288   -8.0283   21.3543 C   0  0  0  0  0  0
  -21.9931   -9.0259   20.4646 C   0  0  0  0  0  0
  -22.7269  -10.2132   20.3057 C   0  0  0  0  0  0
  -21.6854   -6.0742   22.5279 C   0  0  0  0  0  0
  -21.4014   -6.5645   23.8213 C   0  0  0  0  0  0
  -21.3656   -5.6797   24.9174 C   0  0  0  0  0  0
  -21.6043   -4.3059   24.7224 C   0  0  0  0  0  0
  -21.8820   -3.8153   23.4344 C   0  0  0  0  0  0
  -21.9193   -4.6971   22.3401 C   0  0  0  0  0  0
  -22.7747  -13.5179   21.1918 C   0  0  0  0  0  0
  -22.1661   -4.2156   21.0977 F   0  0  0  0  0  0
  -21.5628   -3.4541   25.7735 F   0  0  0  0  0  0
  -29.8264  -14.1066   20.2538 N   0  0  0  0  0  0
  -26.2791  -12.9537   20.3241 N   0  0  0  0  0  0
  -25.9335  -11.6635   20.5731 N   0  0  0  0  0  0
  -22.0403  -12.8156   22.0466 N   0  0  0  0  0  0
  -25.4044  -15.1997   20.4268 N   0  0  0  0  0  0
  -31.6473  -15.3359   20.2698 O   0  0  0  0  0  0
  -21.6643   -6.8886   21.4241 O   0  0  0  0  0  0
  -22.3426  -14.5476   20.6754 O   0  0  0  0  0  0
  -24.6728  -31.8144   23.1629 C   0  0  0  0  0  0
  -25.9364  -32.4540   23.8127 C   0  0  1  0  0  0
  -27.2172  -26.8314   20.2003 C   0  0  0  0  0  0
  -25.5998  -33.8359   24.2030 N   0  0  0  0  0  0
  -23.4921  -30.4227   21.5149 C   0  0  2  0  0  0
  -24.9450  -28.7894   20.1195 C   0  0  0  0  0  0
  -22.7715  -29.4395   22.4756 C   0  0  0  0  0  0
  -18.0330  -28.1417   22.8464 C   0  0  0  0  0  0
  -24.1489  -36.7177   23.2651 C   0  0  0  0  0  0
  -26.0674  -30.5902   21.4068 C   0  0  0  0  0  0
  -26.1339  -29.1687   20.7556 C   0  0  0  0  0  0
  -27.2638  -28.2157   20.7630 C   0  0  0  0  0  0
  -25.9957  -26.6288   19.5161 C   0  0  0  0  0  0
  -24.9068  -27.5415   19.4777 C   0  0  0  0  0  0
  -23.7377  -29.7310   20.1453 C   0  0  0  0  0  0
  -25.4138  -36.2938   24.0293 C   0  0  1  0  0  0
  -20.5963  -28.3768   23.1170 C   0  0  2  0  0  0
  -20.6806  -26.9441   22.5402 C   0  0  0  0  0  0
  -19.5778  -26.6378   21.5216 C   0  0  0  0  0  0
  -18.1958  -26.7950   22.1620 C   0  0  0  0  0  0
  -19.1594  -28.8915   23.2799 C   0  0  0  0  0  0
  -18.9502  -30.1501   23.8841 C   0  0  0  0  0  0
  -17.6494  -30.6604   24.0555 C   0  0  0  0  0  0
  -25.9112  -34.9324   23.4987 C   0  0  0  0  0  0
  -16.5384  -29.9091   23.6348 C   0  0  0  0  0  0
  -16.7310  -28.6512   23.0366 C   0  0  0  0  0  0
  -26.4584  -31.6522   25.0695 C   0  0  0  0  0  0
  -25.3682  -31.3804   26.1329 C   0  0  0  0  0  0
  -27.0499  -30.2878   24.6498 C   0  0  0  0  0  0
  -27.6053  -32.4356   25.7506 C   0  0  0  0  0  0
  -27.5560  -37.1752   24.8474 C   0  0  0  0  0  0
  -21.4374  -29.3045   22.3508 N   0  0  0  0  0  0
  -26.4274  -37.3684   23.9409 N   0  0  0  0  0  0
  -24.7665  -30.9719   22.0813 N   0  0  0  0  0  0
  -23.4219  -28.7975   23.3036 O   0  0  0  0  0  0
  -28.2046  -25.6779   20.2154 O   0  0  0  0  0  0
  -26.5723  -34.8879   22.4585 O   0  0  0  0  0  0
  -23.5774  -32.1153   23.6666 O   0  0  0  0  0  0
  -29.3336  -22.2978   18.7797 C   0  0  0  0  0  0
  -29.7825  -19.9264   18.9538 C   0  0  0  0  0  0
  -29.2343  -19.8295   20.2316 C   0  0  0  0  0  0
  -28.7137  -22.4581   20.0513 C   0  0  0  0  0  0
  -30.4182  -18.6522   18.3482 C   0  0  0  0  0  0
  -29.3999  -18.2116   20.8797 C   0  0  0  0  0  0
  -29.7682  -17.2311   18.6669 C   0  0  2  0  0  0
  -28.3654  -17.1068   18.0464 C   0  0  0  0  0  0
  -27.9075  -24.0217   20.4340 C   0  0  0  0  0  0
  -29.8354  -21.1150   18.2655 N   0  0  0  0  0  0
  -28.6930  -21.1287   20.7450 N   0  0  0  0  0  0
  -29.7324  -16.7667   20.0939 N   0  0  0  0  0  0
  -31.4321  -13.1668   19.1446 H   0  0  0  0  0  0
  -30.5498  -12.0648   20.1557 H   0  0  0  0  0  0
  -29.9430  -11.7509   17.7313 H   0  0  0  0  0  0
  -29.5251  -13.4424   17.5985 H   0  0  0  0  0  0
  -28.0869  -11.2772   19.1459 H   0  0  0  0  0  0
  -27.4185  -12.2757   17.8785 H   0  0  0  0  0  0
  -27.4806  -14.2230   19.2731 H   0  0  0  0  0  0
  -28.8575  -12.6450   21.4941 H   0  0  0  0  0  0
  -28.2469  -14.2795   21.6349 H   0  0  0  0  0  0
  -25.2781   -9.5676   22.4768 H   0  0  0  0  0  0
  -24.0012   -7.4630   22.7475 H   0  0  0  0  0  0
  -21.0862   -8.8788   19.8948 H   0  0  0  0  0  0
  -22.3732  -10.9678   19.6171 H   0  0  0  0  0  0
  -21.2005   -7.6153   23.9718 H   0  0  0  0  0  0
  -21.1476   -6.0525   25.9077 H   0  0  0  0  0  0
  -22.0599   -2.7615   23.2840 H   0  0  0  0  0  0
  -22.4041  -11.9823   22.4848 H   0  0  0  0  0  0
  -21.1013  -13.1158   22.2670 H   0  0  0  0  0  0
  -24.6416  -15.8557   20.5551 H   0  0  0  0  0  0
  -26.2608  -15.6428   20.1201 H   0  0  0  0  0  0
  -26.7440  -32.5046   23.0840 H   0  0  0  0  0  0
  -25.0107  -33.9428   25.0158 H   0  0  0  0  0  0
  -22.8105  -31.2567   21.3357 H   0  0  0  0  0  0
  -23.3763  -35.9497   23.3294 H   0  0  0  0  0  0
  -24.3563  -36.8846   22.2070 H   0  0  0  0  0  0
  -23.7237  -37.6354   23.6725 H   0  0  0  0  0  0
  -26.2581  -31.3241   20.6224 H   0  0  0  0  0  0
  -26.9235  -30.6523   22.0666 H   0  0  0  0  0  0
  -28.1664  -28.5123   21.2784 H   0  0  0  0  0  0
  -25.8518  -25.6836   19.0132 H   0  0  0  0  0  0
  -24.0068  -27.2444   18.9562 H   0  0  0  0  0  0
  -23.9069  -30.4959   19.3865 H   0  0  0  0  0  0
  -22.8447  -29.1936   19.8213 H   0  0  0  0  0  0
  -25.1344  -36.1719   25.0784 H   0  0  0  0  0  0
  -21.0043  -28.3378   24.1296 H   0  0  0  0  0  0
  -20.5684  -26.2390   23.3651 H   0  0  0  0  0  0
  -21.6667  -26.7411   22.1206 H   0  0  0  0  0  0
  -19.6938  -25.6274   21.1283 H   0  0  0  0  0  0
  -19.6716  -27.3159   20.6723 H   0  0  0  0  0  0
  -17.4228  -26.6692   21.4019 H   0  0  0  0  0  0
  -18.0345  -26.0109   22.9032 H   0  0  0  0  0  0
  -19.7977  -30.7330   24.2185 H   0  0  0  0  0  0
  -17.5048  -31.6275   24.5168 H   0  0  0  0  0  0
  -15.5382  -30.2975   23.7710 H   0  0  0  0  0  0
  -15.8708  -28.0812   22.7118 H   0  0  0  0  0  0
  -24.5883  -30.7137   25.7634 H   0  0  0  0  0  0
  -24.8849  -32.3015   26.4592 H   0  0  0  0  0  0
  -25.7886  -30.9074   27.0211 H   0  0  0  0  0  0
  -26.3191  -29.6522   24.1482 H   0  0  0  0  0  0
  -27.3978  -29.7282   25.5191 H   0  0  0  0  0  0
  -27.9153  -30.4044   23.9972 H   0  0  0  0  0  0
  -27.2607  -33.3716   26.1915 H   0  0  0  0  0  0
  -28.3950  -32.6820   25.0397 H   0  0  0  0  0  0
  -28.0624  -31.8592   26.5559 H   0  0  0  0  0  0
  -28.2571  -38.0051   24.7494 H   0  0  0  0  0  0
  -28.1057  -36.2573   24.6332 H   0  0  0  0  0  0
  -27.2274  -37.1434   25.8876 H   0  0  0  0  0  0
  -20.9649  -29.8722   21.6611 H   0  0  0  0  0  0
  -26.0109  -38.2739   24.1407 H   0  0  0  0  0  0
  -29.3955  -23.1487   18.1169 H   0  0  0  0  0  0
  -31.4598  -18.6350   18.6710 H   0  0  0  0  0  0
  -30.4565  -18.7816   17.2657 H   0  0  0  0  0  0
  -28.4751  -18.0286   21.4261 H   0  0  0  0  0  0
  -30.1626  -18.2935   21.6541 H   0  0  0  0  0  0
  -30.3896  -16.5244   18.1118 H   0  0  0  0  0  0
  -27.6416  -17.7497   18.5484 H   0  0  0  0  0  0
  -27.9959  -16.0840   18.0983 H   0  0  0  0  0  0
  -28.3778  -17.3866   16.9921 H   0  0  0  0  0  0
  -27.7213  -23.9456   21.5052 H   0  0  0  0  0  0
  -26.9216  -23.8818   19.9928 H   0  0  0  0  0  0
  1 25  1  0  0  0
  1 30  2  0  0  0
  1 82  1  0  0  0
  2  3  1  0  0  0
  2 25  1  0  0  0
  2 83  1  0  0  0
  2 84  1  0  0  0
  3  4  1  0  0  0
  3 85  1  0  0  0
  3 86  1  0  0  0
  4  5  1  0  0  0
  4 87  1  0  0  0
  4 88  1  0  0  0
  5  6  1  0  0  0
  5 26  1  0  0  0
  5 89  1  0  0  0
  6 25  1  0  0  0
  6 90  1  0  0  0
  6 91  1  0  0  0
  7  8  2  0  0  0
  7 26  1  0  0  0
  7 29  1  0  0  0
  8  9  1  0  0  0
  8 22  1  0  0  0
  9 10  1  0  0  0
  9 27  2  0  0  0
 10 11  2  0  0  0
 10 15  1  0  0  0
 11 12  1  0  0  0
 11 92  1  0  0  0
 12 13  2  0  0  0
 12 93  1  0  0  0
 13 14  1  0  0  0
 13 31  1  0  0  0
 14 15  2  0  0  0
 14 94  1  0  0  0
 15 95  1  0  0  0
 16 17  2  0  0  0
 16 21  1  0  0  0
 16 31  1  0  0  0
 17 18  1  0  0  0
 17 96  1  0  0  0
 18 19  2  0  0  0
 18 97  1  0  0  0
 19 20  1  0  0  0
 19 24  1  0  0  0
 20 21  2  0  0  0
 20 98  1  0  0  0
 21 23  1  0  0  0
 22 28  1  0  0  0
 22 32  2  0  0  0
 26 27  1  0  0  0
 28 99  1  0  0  0
 28100  1  0  0  0
 29101  1  0  0  0
 29102  1  0  0  0
 33 34  1  0  0  0
 33 66  1  0  0  0
 33 70  2  0  0  0
 34 36  1  0  0  0
 34 59  1  0  0  0
 34103  1  0  0  0
 35 44  2  0  0  0
 35 45  1  0  0  0
 35 68  1  0  0  0
 36 56  1  0  0  0
 36104  1  0  0  0
 37 39  1  0  0  0
 37 47  1  0  0  0
 37 66  1  0  0  0
 37105  1  0  0  0
 38 43  2  0  0  0
 38 46  1  0  0  0
 38 47  1  0  0  0
 39 64  1  0  0  0
 39 67  2  0  0  0
 40 52  1  0  0  0
 40 53  2  0  0  0
 40 58  1  0  0  0
 41106  1  0  0  0
 41107  1  0  0  0
 41108  1  0  0  0
 41 48  1  0  0  0
 42 43  1  0  0  0
 42 66  1  0  0  0
 42109  1  0  0  0
 42110  1  0  0  0
 43 44  1  0  0  0
 44111  1  0  0  0
 45 46  2  0  0  0
 45112  1  0  0  0
 46113  1  0  0  0
 47114  1  0  0  0
 47115  1  0  0  0
 48 56  1  0  0  0
 48 65  1  0  0  0
 48116  1  0  0  0
 49 50  1  0  0  0
 49 53  1  0  0  0
 49 64  1  0  0  0
 49117  1  0  0  0
 50 51  1  0  0  0
 50118  1  0  0  0
 50119  1  0  0  0
 51 52  1  0  0  0
 51120  1  0  0  0
 51121  1  0  0  0
 52122  1  0  0  0
 52123  1  0  0  0
 53 54  1  0  0  0
 54 55  2  0  0  0
 54124  1  0  0  0
 55 57  1  0  0  0
 55125  1  0  0  0
 56 69  2  0  0  0
 57 58  2  0  0  0
 57126  1  0  0  0
 58127  1  0  0  0
 59 60  1  0  0  0
 59 61  1  0  0  0
 59 62  1  0  0  0
 60128  1  0  0  0
 60129  1  0  0  0
 60130  1  0  0  0
 61131  1  0  0  0
 61132  1  0  0  0
 61133  1  0  0  0
 62134  1  0  0  0
 62135  1  0  0  0
 62136  1  0  0  0
 63 65  1  0  0  0
 63137  1  0  0  0
 63138  1  0  0  0
 63139  1  0  0  0
 64140  1  0  0  0
 65141  1  0  0  0
 68 79  1  0  0  0
 71 74  2  0  0  0
 71 80  1  0  0  0
 71142  1  0  0  0
 72 73  1  0  0  0
 72 75  1  0  0  0
 72 80  2  0  0  0
 73 76  1  0  0  0
 73 81  2  0  0  0
 74 79  1  0  0  0
 74 81  1  0  0  0
 75 77  1  0  0  0
 75143  1  0  0  0
 75144  1  0  0  0
 76 82  1  0  0  0
 76145  1  0  0  0
 76146  1  0  0  0
 77 78  1  0  0  0
 77 82  1  0  0  0
 77147  1  0  0  0
 78148  1  0  0  0
 78149  1  0  0  0
 78150  1  0  0  0
 79151  1  0  0  0
 79152  1  0  0  0
M  ISO  4   1 100  68 101  79 101  82 100
M  END
> <chiral flag>
0

> <version>
0

> <s_m_source_file>
/data/baiqing/PycharmProjects/Reinvent-master-3.2/result/LINK_invent/BTK/process_docking_weight1_custom_sum_contain_oxygen_bond_distance_aromatic_linkinvent_7_9_3/rearranged_h_0181.sdf

> <i_m_source_file_index>
13

> <r_mmod_Potential_Energy-OPLS-2005>
1867.51892089844

> <r_mmod_Stretch_Energy-OPLS-2005>
714.575439453125

> <r_mmod_Bend_Energy-OPLS-2005>
497.449249267578

> <r_mmod_Torsional_Energy-OPLS-2005>
338.464050292969

> <r_mmod_Improper_Torsional_Energy-OPLS-2005>
17.117208480835

> <r_mmod_Van_der_Waal_Energy-OPLS-2005>
123.730613708496

> <r_mmod_Electrostatic_Energy-OPLS-2005>
-226.315795898438

> <r_mmod_Solvation_Energy-OPLS-2005>
-221.776657104492

> <b_mmod_Minimization_Converged-OPLS-2005>
0

> <r_mmod_RMS_Derivative-OPLS-2005>
0.691526651382446

$$$$
13
                    3D
 Structure written by MMmdl.
156165  0  0  1  0            999 V2000
  -30.2514  -15.7782   20.3214 C   0  0  0  0  0  0
  -30.4148  -13.1896   19.5374 C   0  0  0  0  0  0
  -29.5550  -12.6909   18.3367 C   0  0  0  0  0  0
  -28.1408  -12.3013   18.7896 C   0  0  0  0  0  0
  -27.5908  -13.3208   19.8098 C   0  0  2  0  0  0
  -28.5991  -13.7162   20.9177 C   0  0  0  0  0  0
  -25.2300  -13.8298   20.5822 C   0  0  0  0  0  0
  -24.1704  -13.0432   20.9304 C   0  0  0  0  0  0
  -24.6421  -11.6948   20.8765 C   0  0  0  0  0  0
  -23.9126  -10.4290   21.0390 C   0  0  0  0  0  0
  -24.3657   -9.4203   21.9175 C   0  0  0  0  0  0
  -23.6316   -8.2246   22.0749 C   0  0  0  0  0  0
  -22.4295   -8.0287   21.3543 C   0  0  0  0  0  0
  -21.9943   -9.0261   20.4641 C   0  0  0  0  0  0
  -22.7288  -10.2132   20.3045 C   0  0  0  0  0  0
  -21.6859   -6.0742   22.5280 C   0  0  0  0  0  0
  -21.4018   -6.5641   23.8216 C   0  0  0  0  0  0
  -21.3662   -5.6792   24.9176 C   0  0  0  0  0  0
  -21.6043   -4.3055   24.7224 C   0  0  0  0  0  0
  -21.8818   -3.8149   23.4345 C   0  0  0  0  0  0
  -21.9194   -4.6968   22.3401 C   0  0  0  0  0  0
  -22.7713  -13.5154   21.1931 C   0  0  0  0  0  0
  -22.1663   -4.2153   21.0978 F   0  0  0  0  0  0
  -21.5628   -3.4538   25.7735 F   0  0  0  0  0  0
  -29.7467  -14.3860   20.2482 N   0  0  0  0  0  0
  -26.2763  -12.9654   20.3254 N   0  0  0  0  0  0
  -25.9372  -11.6710   20.5693 N   0  0  0  0  0  0
  -22.0377  -12.8128   22.0479 N   0  0  0  0  0  0
  -25.3866  -15.2042   20.4269 N   0  0  0  0  0  0
  -31.4934  -15.6789   20.2017 O   0  0  0  0  0  0
  -21.6648   -6.8888   21.4243 O   0  0  0  0  0  0
  -22.3387  -14.5452   20.6764 O   0  0  0  0  0  0
  -24.6935  -31.7877   23.1423 C   0  0  0  0  0  0
  -25.9465  -32.4406   23.8010 C   0  0  1  0  0  0
  -27.2310  -26.5954   20.2272 C   0  0  0  0  0  0
  -25.6000  -33.8238   24.1885 N   0  0  0  0  0  0
  -23.5251  -30.3844   21.4986 C   0  0  2  0  0  0
  -24.9846  -28.7028   20.1214 C   0  0  0  0  0  0
  -22.7812  -29.4250   22.4677 C   0  0  0  0  0  0
  -18.0348  -28.1425   22.8448 C   0  0  0  0  0  0
  -24.1496  -36.7128   23.2656 C   0  0  0  0  0  0
  -26.1101  -30.4852   21.4238 C   0  0  0  0  0  0
  -26.1752  -29.0379   20.7763 C   0  0  0  0  0  0
  -27.2785  -28.0158   20.7925 C   0  0  0  0  0  0
  -26.0061  -26.4972   19.5118 C   0  0  0  0  0  0
  -24.9456  -27.4597   19.4645 C   0  0  0  0  0  0
  -23.7859  -29.6715   20.1386 C   0  0  0  0  0  0
  -25.4150  -36.2858   24.0272 C   0  0  1  0  0  0
  -20.5989  -28.3793   23.1117 C   0  0  2  0  0  0
  -20.6808  -26.9440   22.5404 C   0  0  0  0  0  0
  -19.5787  -26.6365   21.5215 C   0  0  0  0  0  0
  -18.1969  -26.7950   22.1612 C   0  0  0  0  0  0
  -19.1616  -28.8935   23.2761 C   0  0  0  0  0  0
  -18.9521  -30.1514   23.8812 C   0  0  0  0  0  0
  -17.6511  -30.6605   24.0546 C   0  0  0  0  0  0
  -25.9136  -34.9253   23.4924 C   0  0  0  0  0  0
  -16.5400  -29.9085   23.6352 C   0  0  0  0  0  0
  -16.7329  -28.6508   23.0369 C   0  0  0  0  0  0
  -26.4610  -31.6489   25.0680 C   0  0  0  0  0  0
  -25.3643  -31.3840   26.1275 C   0  0  0  0  0  0
  -27.0559  -30.2812   24.6665 C   0  0  0  0  0  0
  -27.6036  -32.4381   25.7500 C   0  0  0  0  0  0
  -27.5561  -37.1718   24.8463 C   0  0  0  0  0  0
  -21.4449  -29.3021   22.3426 N   0  0  0  0  0  0
  -26.4266  -37.3632   23.9408 N   0  0  0  0  0  0
  -24.8009  -30.9216   22.0737 N   0  0  0  0  0  0
  -23.4204  -28.7867   23.3072 O   0  0  0  0  0  0
  -28.1787  -25.3270   20.3000 O   0  0  0  0  0  0
  -26.5795  -34.8854   22.4555 O   0  0  0  0  0  0
  -23.5932  -32.1004   23.6309 O   0  0  0  0  0  0
  -28.6651  -20.2623   20.2443 C   0  0  0  0  0  0
  -28.9323  -21.8747   20.3220 C   0  0  0  0  0  0
  -30.3392  -21.9358   20.5583 C   0  0  0  0  0  0
  -31.1879  -20.7639   20.6739 C   0  0  0  0  0  0
  -29.6059  -18.9335   20.3593 C   0  0  0  0  0  0
  -33.4447  -19.9501   21.8012 C   0  0  0  0  0  0
  -33.1965  -21.3552   22.2660 C   0  0  0  0  0  0
  -32.6712  -20.9118   20.9124 C   0  0  0  0  0  0
  -31.3240  -23.9096   19.2938 C   0  0  0  0  0  0
  -30.9640  -23.3285   20.6664 C   0  0  0  0  0  0
  -27.9633  -23.5299   20.1768 C   0  0  0  0  0  0
  -30.8496  -19.4310   20.5619 N   0  0  0  0  0  0
  -29.4778  -17.1754   20.3225 N   0  0  0  0  0  0
  -31.3950  -13.4742   19.1540 H   0  0  0  0  0  0
  -30.6149  -12.3751   20.2360 H   0  0  0  0  0  0
  -30.0395  -11.8489   17.8404 H   0  0  0  0  0  0
  -29.4882  -13.4877   17.5943 H   0  0  0  0  0  0
  -28.1969  -11.3171   19.2563 H   0  0  0  0  0  0
  -27.4721  -12.2024   17.9336 H   0  0  0  0  0  0
  -27.4321  -14.2214   19.2148 H   0  0  0  0  0  0
  -28.8954  -12.8582   21.5236 H   0  0  0  0  0  0
  -28.1384  -14.4275   21.6045 H   0  0  0  0  0  0
  -25.2794   -9.5679   22.4763 H   0  0  0  0  0  0
  -24.0016   -7.4637   22.7475 H   0  0  0  0  0  0
  -21.0871   -8.8789   19.8948 H   0  0  0  0  0  0
  -22.3743  -10.9674   19.6159 H   0  0  0  0  0  0
  -21.2012   -7.6150   23.9721 H   0  0  0  0  0  0
  -21.1485   -6.0520   25.9079 H   0  0  0  0  0  0
  -22.0594   -2.7610   23.2843 H   0  0  0  0  0  0
  -22.4022  -11.9811   22.4884 H   0  0  0  0  0  0
  -21.0978  -13.1118   22.2667 H   0  0  0  0  0  0
  -24.6111  -15.8484   20.5388 H   0  0  0  0  0  0
  -26.2217  -15.6474   20.0696 H   0  0  0  0  0  0
  -26.7555  -32.4852   23.0723 H   0  0  0  0  0  0
  -25.0035  -33.9256   24.9963 H   0  0  0  0  0  0
  -22.8566  -31.2246   21.2993 H   0  0  0  0  0  0
  -23.3781  -35.9434   23.3251 H   0  0  0  0  0  0
  -24.3561  -36.8870   22.2085 H   0  0  0  0  0  0
  -23.7238  -37.6274   23.6791 H   0  0  0  0  0  0
  -26.3238  -31.2026   20.6304 H   0  0  0  0  0  0
  -26.9564  -30.5574   22.0944 H   0  0  0  0  0  0
  -28.1722  -28.2827   21.3387 H   0  0  0  0  0  0
  -25.8211  -25.5632   19.0009 H   0  0  0  0  0  0
  -24.0507  -27.1925   18.9195 H   0  0  0  0  0  0
  -23.9721  -30.4276   19.3751 H   0  0  0  0  0  0
  -22.8886  -29.1441   19.8105 H   0  0  0  0  0  0
  -25.1364  -36.1600   25.0760 H   0  0  0  0  0  0
  -21.0066  -28.3431   24.1244 H   0  0  0  0  0  0
  -20.5660  -26.2420   23.3677 H   0  0  0  0  0  0
  -21.6669  -26.7363   22.1230 H   0  0  0  0  0  0
  -19.6939  -25.6251   21.1304 H   0  0  0  0  0  0
  -19.6735  -27.3123   20.6705 H   0  0  0  0  0  0
  -17.4239  -26.6697   21.4013 H   0  0  0  0  0  0
  -18.0348  -26.0110   22.9023 H   0  0  0  0  0  0
  -19.8001  -30.7347   24.2144 H   0  0  0  0  0  0
  -17.5067  -31.6275   24.5167 H   0  0  0  0  0  0
  -15.5398  -30.2963   23.7726 H   0  0  0  0  0  0
  -15.8729  -28.0799   22.7133 H   0  0  0  0  0  0
  -24.5855  -30.7163   25.7566 H   0  0  0  0  0  0
  -24.8803  -32.3075   26.4465 H   0  0  0  0  0  0
  -25.7789  -30.9152   27.0208 H   0  0  0  0  0  0
  -26.3293  -29.6387   24.1682 H   0  0  0  0  0  0
  -27.3962  -29.7313   25.5449 H   0  0  0  0  0  0
  -27.9286  -30.3905   24.0223 H   0  0  0  0  0  0
  -27.2560  -33.3773   26.1816 H   0  0  0  0  0  0
  -28.3970  -32.6800   25.0413 H   0  0  0  0  0  0
  -28.0566  -31.8690   26.5627 H   0  0  0  0  0  0
  -28.2530  -38.0058   24.7521 H   0  0  0  0  0  0
  -28.1107  -36.2579   24.6277 H   0  0  0  0  0  0
  -27.2278  -37.1331   25.8865 H   0  0  0  0  0  0
  -20.9775  -29.8669   21.6470 H   0  0  0  0  0  0
  -26.0084  -38.2669   24.1438 H   0  0  0  0  0  0
  -27.6241  -20.0223   20.0752 H   0  0  0  0  0  0
  -32.8986  -19.1581   22.3099 H   0  0  0  0  0  0
  -34.4634  -19.7017   21.5111 H   0  0  0  0  0  0
  -34.0489  -22.0314   22.2796 H   0  0  0  0  0  0
  -32.4729  -21.4967   23.0667 H   0  0  0  0  0  0
  -33.1747  -21.2915   20.0252 H   0  0  0  0  0  0
  -31.7704  -24.8988   19.3989 H   0  0  0  0  0  0
  -30.4447  -24.0126   18.6577 H   0  0  0  0  0  0
  -32.0422  -23.2773   18.7715 H   0  0  0  0  0  0
  -31.8515  -23.3262   21.2938 H   0  0  0  0  0  0
  -30.2886  -24.0032   21.1912 H   0  0  0  0  0  0
  -27.1326  -23.3587   20.8613 H   0  0  0  0  0  0
  -27.5061  -23.4294   19.1928 H   0  0  0  0  0  0
  -28.4990  -16.9351   20.2976 H   0  0  0  0  0  0
  1 25  1  0  0  0
  1 30  2  0  0  0
  1 83  1  0  0  0
  2  3  1  0  0  0
  2 25  1  0  0  0
  2 84  1  0  0  0
  2 85  1  0  0  0
  3  4  1  0  0  0
  3 86  1  0  0  0
  3 87  1  0  0  0
  4  5  1  0  0  0
  4 88  1  0  0  0
  4 89  1  0  0  0
  5  6  1  0  0  0
  5 26  1  0  0  0
  5 90  1  0  0  0
  6 25  1  0  0  0
  6 91  1  0  0  0
  6 92  1  0  0  0
  7  8  2  0  0  0
  7 26  1  0  0  0
  7 29  1  0  0  0
  8  9  1  0  0  0
  8 22  1  0  0  0
  9 10  1  0  0  0
  9 27  2  0  0  0
 10 11  2  0  0  0
 10 15  1  0  0  0
 11 12  1  0  0  0
 11 93  1  0  0  0
 12 13  2  0  0  0
 12 94  1  0  0  0
 13 14  1  0  0  0
 13 31  1  0  0  0
 14 15  2  0  0  0
 14 95  1  0  0  0
 15 96  1  0  0  0
 16 17  2  0  0  0
 16 21  1  0  0  0
 16 31  1  0  0  0
 17 18  1  0  0  0
 17 97  1  0  0  0
 18 19  2  0  0  0
 18 98  1  0  0  0
 19 20  1  0  0  0
 19 24  1  0  0  0
 20 21  2  0  0  0
 20 99  1  0  0  0
 21 23  1  0  0  0
 22 28  1  0  0  0
 22 32  2  0  0  0
 26 27  1  0  0  0
 28100  1  0  0  0
 28101  1  0  0  0
 29102  1  0  0  0
 29103  1  0  0  0
 33 34  1  0  0  0
 33 66  1  0  0  0
 33 70  2  0  0  0
 34 36  1  0  0  0
 34 59  1  0  0  0
 34104  1  0  0  0
 35 44  2  0  0  0
 35 45  1  0  0  0
 35 68  1  0  0  0
 36 56  1  0  0  0
 36105  1  0  0  0
 37 39  1  0  0  0
 37 47  1  0  0  0
 37 66  1  0  0  0
 37106  1  0  0  0
 38 43  2  0  0  0
 38 46  1  0  0  0
 38 47  1  0  0  0
 39 64  1  0  0  0
 39 67  2  0  0  0
 40 52  1  0  0  0
 40 53  2  0  0  0
 40 58  1  0  0  0
 41107  1  0  0  0
 41108  1  0  0  0
 41109  1  0  0  0
 41 48  1  0  0  0
 42 43  1  0  0  0
 42 66  1  0  0  0
 42110  1  0  0  0
 42111  1  0  0  0
 43 44  1  0  0  0
 44112  1  0  0  0
 45 46  2  0  0  0
 45113  1  0  0  0
 46114  1  0  0  0
 47115  1  0  0  0
 47116  1  0  0  0
 48 56  1  0  0  0
 48 65  1  0  0  0
 48117  1  0  0  0
 49 50  1  0  0  0
 49 53  1  0  0  0
 49 64  1  0  0  0
 49118  1  0  0  0
 50 51  1  0  0  0
 50119  1  0  0  0
 50120  1  0  0  0
 51 52  1  0  0  0
 51121  1  0  0  0
 51122  1  0  0  0
 52123  1  0  0  0
 52124  1  0  0  0
 53 54  1  0  0  0
 54 55  2  0  0  0
 54125  1  0  0  0
 55 57  1  0  0  0
 55126  1  0  0  0
 56 69  2  0  0  0
 57 58  2  0  0  0
 57127  1  0  0  0
 58128  1  0  0  0
 59 60  1  0  0  0
 59 61  1  0  0  0
 59 62  1  0  0  0
 60129  1  0  0  0
 60130  1  0  0  0
 60131  1  0  0  0
 61132  1  0  0  0
 61133  1  0  0  0
 61134  1  0  0  0
 62135  1  0  0  0
 62136  1  0  0  0
 62137  1  0  0  0
 63 65  1  0  0  0
 63138  1  0  0  0
 63139  1  0  0  0
 63140  1  0  0  0
 64141  1  0  0  0
 65142  1  0  0  0
 68 81  1  0  0  0
 71 72  2  0  0  0
 71 75  1  0  0  0
 71143  1  0  0  0
 72 73  1  0  0  0
 72 81  1  0  0  0
 73 74  2  0  0  0
 73 80  1  0  0  0
 74 82  1  0  0  0
 74 78  1  0  0  0
 75 82  2  0  0  0
 75 83  1  0  0  0
 76 77  1  0  0  0
 76 78  1  0  0  0
 76144  1  0  0  0
 76145  1  0  0  0
 77 78  1  0  0  0
 77146  1  0  0  0
 77147  1  0  0  0
 78148  1  0  0  0
 79 80  1  0  0  0
 79149  1  0  0  0
 79150  1  0  0  0
 79151  1  0  0  0
 80152  1  0  0  0
 80153  1  0  0  0
 81154  1  0  0  0
 81155  1  0  0  0
 83156  1  0  0  0
M  ISO  4   1 100  68 101  81 101  83 100
M  END
> <chiral flag>
0

> <version>
0

> <s_m_source_file>
/data/baiqing/PycharmProjects/Reinvent-master-3.2/result/LINK_invent/BTK/process_docking_weight1_custom_sum_contain_oxygen_bond_distance_aromatic_linkinvent_7_9_3/rearranged_h_0181.sdf

> <i_m_source_file_index>
14

> <r_mmod_Potential_Energy-OPLS-2005>
2697.55615234375

> <r_mmod_Stretch_Energy-OPLS-2005>
1264.09606933594

> <r_mmod_Bend_Energy-OPLS-2005>
659.064636230469

> <r_mmod_Torsional_Energy-OPLS-2005>
242.137588500977

> <r_mmod_Improper_Torsional_Energy-OPLS-2005>
4.5161452293396

> <r_mmod_Van_der_Waal_Energy-OPLS-2005>
133.631530761719

> <r_mmod_Electrostatic_Energy-OPLS-2005>
-497.287872314453

> <r_mmod_Solvation_Energy-OPLS-2005>
-240.415054321289

> <b_mmod_Minimization_Converged-OPLS-2005>
0

> <r_mmod_RMS_Derivative-OPLS-2005>
0.466887980699539

$$$$
14
                    3D
 Structure written by MMmdl.
159168  0  0  1  0            999 V2000
  -30.6137  -14.7869   20.4671 C   0  0  0  0  0  0
  -30.4295  -12.4851   19.4889 C   0  0  0  0  0  0
  -29.5162  -12.5144   18.2438 C   0  0  0  0  0  0
  -28.0416  -12.3308   18.6523 C   0  0  0  0  0  0
  -27.6378  -13.2376   19.8462 C   0  0  2  0  0  0
  -28.6778  -13.2031   20.9860 C   0  0  0  0  0  0
  -25.2497  -13.8201   20.5705 C   0  0  0  0  0  0
  -24.1792  -13.0437   20.9200 C   0  0  0  0  0  0
  -24.6384  -11.6915   20.8719 C   0  0  0  0  0  0
  -23.9062  -10.4289   21.0376 C   0  0  0  0  0  0
  -24.3612   -9.4211   21.9163 C   0  0  0  0  0  0
  -23.6295   -8.2243   22.0740 C   0  0  0  0  0  0
  -22.4274   -8.0272   21.3539 C   0  0  0  0  0  0
  -21.9906   -9.0237   20.4634 C   0  0  0  0  0  0
  -22.7223  -10.2122   20.3036 C   0  0  0  0  0  0
  -21.6856   -6.0730   22.5277 C   0  0  0  0  0  0
  -21.4011   -6.5636   23.8204 C   0  0  0  0  0  0
  -21.3666   -5.6790   24.9171 C   0  0  0  0  0  0
  -21.6049   -4.3054   24.7223 C   0  0  0  0  0  0
  -21.8817   -3.8142   23.4346 C   0  0  0  0  0  0
  -21.9191   -4.6959   22.3399 C   0  0  0  0  0  0
  -22.7812  -13.5208   21.1875 C   0  0  0  0  0  0
  -22.1663   -4.2141   21.0978 F   0  0  0  0  0  0
  -21.5633   -3.4540   25.7739 F   0  0  0  0  0  0
  -29.9754  -13.5630   20.4032 N   0  0  0  0  0  0
  -26.2917  -12.9414   20.3260 N   0  0  0  0  0  0
  -25.9314  -11.6551   20.5720 N   0  0  0  0  0  0
  -22.0467  -12.8196   22.0430 N   0  0  0  0  0  0
  -25.4226  -15.1930   20.4167 N   0  0  0  0  0  0
  -31.8033  -14.8544   20.1441 O   0  0  0  0  0  0
  -21.6644   -6.8870   21.4234 O   0  0  0  0  0  0
  -22.3486  -14.5508   20.6720 O   0  0  0  0  0  0
  -24.6349  -31.8510   23.1981 C   0  0  0  0  0  0
  -25.9167  -32.4725   23.8336 C   0  0  1  0  0  0
  -27.2163  -27.2236   20.1267 C   0  0  0  0  0  0
  -25.5957  -33.8534   24.2246 N   0  0  0  0  0  0
  -23.4344  -30.4755   21.5388 C   0  0  2  0  0  0
  -24.8823  -28.9206   20.1044 C   0  0  0  0  0  0
  -22.7522  -29.4580   22.4861 C   0  0  0  0  0  0
  -18.0296  -28.1385   22.8477 C   0  0  0  0  0  0
  -24.1488  -36.7267   23.2643 C   0  0  0  0  0  0
  -25.9854  -30.7459   21.3921 C   0  0  0  0  0  0
  -26.0533  -29.3693   20.7273 C   0  0  0  0  0  0
  -27.2186  -28.5312   20.7316 C   0  0  0  0  0  0
  -26.0300  -26.8683   19.4451 C   0  0  0  0  0  0
  -24.8796  -27.6807   19.4494 C   0  0  0  0  0  0
  -23.6572  -29.8134   20.1534 C   0  0  0  0  0  0
  -25.4119  -36.3053   24.0325 C   0  0  1  0  0  0
  -20.5905  -28.3705   23.1236 C   0  0  2  0  0  0
  -20.6775  -26.9413   22.5394 C   0  0  0  0  0  0
  -19.5749  -26.6377   21.5199 C   0  0  0  0  0  0
  -18.1931  -26.7927   22.1617 C   0  0  0  0  0  0
  -19.1551  -28.8858   23.2855 C   0  0  0  0  0  0
  -18.9471  -30.1450   23.8887 C   0  0  0  0  0  0
  -17.6471  -30.6584   24.0556 C   0  0  0  0  0  0
  -25.9066  -34.9421   23.5088 C   0  0  0  0  0  0
  -16.5361  -29.9084   23.6331 C   0  0  0  0  0  0
  -16.7284  -28.6501   23.0356 C   0  0  0  0  0  0
  -26.4528  -31.6583   25.0756 C   0  0  0  0  0  0
  -25.3743  -31.3746   26.1470 C   0  0  0  0  0  0
  -27.0406  -30.2994   24.6316 C   0  0  0  0  0  0
  -27.6065  -32.4350   25.7529 C   0  0  0  0  0  0
  -27.5575  -37.1788   24.8464 C   0  0  0  0  0  0
  -21.4221  -29.3048   22.3616 N   0  0  0  0  0  0
  -26.4285  -37.3759   23.9411 N   0  0  0  0  0  0
  -24.7034  -31.0437   22.0976 N   0  0  0  0  0  0
  -23.4198  -28.8115   23.2975 O   0  0  0  0  0  0
  -28.2989  -26.3035   20.2221 O   0  0  0  0  0  0
  -26.5630  -34.8902   22.4652 O   0  0  0  0  0  0
  -23.5489  -32.1350   23.7249 O   0  0  0  0  0  0
  -29.1284  -20.8790   20.5583 C   0  0  0  0  0  0
  -29.7787  -19.6665   20.0497 C   0  0  0  0  0  0
  -29.4108  -22.2286   20.0579 C   0  0  0  0  0  0
  -30.7075  -19.9272   19.0095 C   0  0  0  0  0  0
  -30.3728  -22.2636   19.0227 C   0  0  0  0  0  0
  -29.3161  -16.8551   19.6871 C   0  0  0  0  0  0
  -30.5174  -17.2058   21.3224 C   0  0  0  0  0  0
  -29.5258  -18.1447   20.5590 C   0  0  0  0  0  0
  -31.5229  -18.8473   18.3208 C   0  0  0  0  0  0
  -30.8795  -23.5584   18.4081 C   0  0  0  0  0  0
  -28.8973  -23.6254   20.6926 C   0  0  0  0  0  0
  -28.1618  -24.8307   19.8584 C   0  0  0  0  0  0
  -30.9676  -21.1610   18.5258 N   0  0  0  0  0  0
  -29.8939  -15.9596   20.7443 N   0  0  0  0  0  0
  -31.4725  -12.6060   19.1910 H   0  0  0  0  0  0
  -30.3750  -11.5159   19.9883 H   0  0  0  0  0  0
  -29.8116  -11.7347   17.5405 H   0  0  0  0  0  0
  -29.6372  -13.4636   17.7180 H   0  0  0  0  0  0
  -27.9007  -11.2828   18.9200 H   0  0  0  0  0  0
  -27.3885  -12.5162   17.7984 H   0  0  0  0  0  0
  -27.6236  -14.2536   19.4528 H   0  0  0  0  0  0
  -28.7222  -12.2141   21.4436 H   0  0  0  0  0  0
  -28.4018  -13.9015   21.7793 H   0  0  0  0  0  0
  -25.2750   -9.5700   22.4749 H   0  0  0  0  0  0
  -24.0010   -7.4627   22.7453 H   0  0  0  0  0  0
  -21.0844   -8.8732   19.8934 H   0  0  0  0  0  0
  -22.3656  -10.9656   19.6148 H   0  0  0  0  0  0
  -21.2001   -7.6139   23.9708 H   0  0  0  0  0  0
  -21.1500   -6.0523   25.9076 H   0  0  0  0  0  0
  -22.0597   -2.7610   23.2847 H   0  0  0  0  0  0
  -22.4086  -11.9872   22.4851 H   0  0  0  0  0  0
  -21.1063  -13.1184   22.2588 H   0  0  0  0  0  0
  -24.6649  -15.8556   20.5393 H   0  0  0  0  0  0
  -26.2919  -15.6299   20.1391 H   0  0  0  0  0  0
  -26.7227  -32.5353   23.1066 H   0  0  0  0  0  0
  -25.0128  -33.9669   25.0408 H   0  0  0  0  0  0
  -22.7347  -31.3000   21.3915 H   0  0  0  0  0  0
  -23.3756  -35.9593   23.3296 H   0  0  0  0  0  0
  -24.3571  -36.8908   22.2058 H   0  0  0  0  0  0
  -23.7236  -37.6463   23.6677 H   0  0  0  0  0  0
  -26.1449  -31.5062   20.6273 H   0  0  0  0  0  0
  -26.8565  -30.7837   22.0351 H   0  0  0  0  0  0
  -28.1103  -28.8640   21.2434 H   0  0  0  0  0  0
  -25.9524  -25.9414   18.8984 H   0  0  0  0  0  0
  -23.9912  -27.3410   18.9349 H   0  0  0  0  0  0
  -23.7920  -30.5931   19.4028 H   0  0  0  0  0  0
  -22.7745  -29.2529   19.8412 H   0  0  0  0  0  0
  -25.1297  -36.1892   25.0817 H   0  0  0  0  0  0
  -20.9997  -28.3291   24.1359 H   0  0  0  0  0  0
  -20.5638  -26.2325   23.3614 H   0  0  0  0  0  0
  -21.6641  -26.7406   22.1197 H   0  0  0  0  0  0
  -19.6901  -25.6279   21.1246 H   0  0  0  0  0  0
  -19.6682  -27.3167   20.6710 H   0  0  0  0  0  0
  -17.4190  -26.6660   21.4034 H   0  0  0  0  0  0
  -18.0337  -26.0075   22.9019 H   0  0  0  0  0  0
  -19.7946  -30.7261   24.2258 H   0  0  0  0  0  0
  -17.5031  -31.6265   24.5155 H   0  0  0  0  0  0
  -15.5358  -30.2983   23.7661 H   0  0  0  0  0  0
  -15.8685  -28.0815   22.7087 H   0  0  0  0  0  0
  -24.5884  -30.7148   25.7779 H   0  0  0  0  0  0
  -24.8982  -32.2927   26.4926 H   0  0  0  0  0  0
  -25.8044  -30.8875   27.0233 H   0  0  0  0  0  0
  -26.3026  -29.6710   24.1317 H   0  0  0  0  0  0
  -27.4035  -29.7295   25.4882 H   0  0  0  0  0  0
  -27.8930  -30.4258   23.9635 H   0  0  0  0  0  0
  -27.2659  -33.3647   26.2104 H   0  0  0  0  0  0
  -28.3878  -32.6930   25.0364 H   0  0  0  0  0  0
  -28.0750  -31.8496   26.5455 H   0  0  0  0  0  0
  -28.2576  -38.0096   24.7511 H   0  0  0  0  0  0
  -28.1083  -36.2627   24.6284 H   0  0  0  0  0  0
  -27.2292  -37.1424   25.8865 H   0  0  0  0  0  0
  -20.9405  -29.8825   21.6872 H   0  0  0  0  0  0
  -26.0157  -38.2828   24.1424 H   0  0  0  0  0  0
  -28.4246  -20.7730   21.3710 H   0  0  0  0  0  0
  -28.2641  -16.6711   19.4690 H   0  0  0  0  0  0
  -29.8821  -16.8202   18.7583 H   0  0  0  0  0  0
  -30.4241  -17.2915   22.4064 H   0  0  0  0  0  0
  -31.5620  -17.3467   21.0437 H   0  0  0  0  0  0
  -28.6398  -18.2321   21.1909 H   0  0  0  0  0  0
  -30.9455  -18.3891   17.5182 H   0  0  0  0  0  0
  -31.8514  -18.0745   19.0090 H   0  0  0  0  0  0
  -32.4291  -19.2590   17.8762 H   0  0  0  0  0  0
  -30.9932  -24.3450   19.1524 H   0  0  0  0  0  0
  -30.2059  -23.9056   17.6254 H   0  0  0  0  0  0
  -31.8592  -23.4189   17.9491 H   0  0  0  0  0  0
  -29.7813  -24.0648   21.1538 H   0  0  0  0  0  0
  -28.2574  -23.3780   21.5404 H   0  0  0  0  0  0
  -28.4480  -24.7664   18.8102 H   0  0  0  0  0  0
  -27.1141  -24.5403   19.8718 H   0  0  0  0  0  0
  1 25  1  0  0  0
  1 30  2  0  0  0
  1 84  1  0  0  0
  2  3  1  0  0  0
  2 25  1  0  0  0
  2 85  1  0  0  0
  2 86  1  0  0  0
  3  4  1  0  0  0
  3 87  1  0  0  0
  3 88  1  0  0  0
  4  5  1  0  0  0
  4 89  1  0  0  0
  4 90  1  0  0  0
  5  6  1  0  0  0
  5 26  1  0  0  0
  5 91  1  0  0  0
  6 25  1  0  0  0
  6 92  1  0  0  0
  6 93  1  0  0  0
  7  8  2  0  0  0
  7 26  1  0  0  0
  7 29  1  0  0  0
  8  9  1  0  0  0
  8 22  1  0  0  0
  9 10  1  0  0  0
  9 27  2  0  0  0
 10 11  2  0  0  0
 10 15  1  0  0  0
 11 12  1  0  0  0
 11 94  1  0  0  0
 12 13  2  0  0  0
 12 95  1  0  0  0
 13 14  1  0  0  0
 13 31  1  0  0  0
 14 15  2  0  0  0
 14 96  1  0  0  0
 15 97  1  0  0  0
 16 17  2  0  0  0
 16 21  1  0  0  0
 16 31  1  0  0  0
 17 18  1  0  0  0
 17 98  1  0  0  0
 18 19  2  0  0  0
 18 99  1  0  0  0
 19 20  1  0  0  0
 19 24  1  0  0  0
 20 21  2  0  0  0
 20100  1  0  0  0
 21 23  1  0  0  0
 22 28  1  0  0  0
 22 32  2  0  0  0
 26 27  1  0  0  0
 28101  1  0  0  0
 28102  1  0  0  0
 29103  1  0  0  0
 29104  1  0  0  0
 33 34  1  0  0  0
 33 66  1  0  0  0
 33 70  2  0  0  0
 34 36  1  0  0  0
 34 59  1  0  0  0
 34105  1  0  0  0
 35 44  2  0  0  0
 35 45  1  0  0  0
 35 68  1  0  0  0
 36 56  1  0  0  0
 36106  1  0  0  0
 37 39  1  0  0  0
 37 47  1  0  0  0
 37 66  1  0  0  0
 37107  1  0  0  0
 38 43  2  0  0  0
 38 46  1  0  0  0
 38 47  1  0  0  0
 39 64  1  0  0  0
 39 67  2  0  0  0
 40 52  1  0  0  0
 40 53  2  0  0  0
 40 58  1  0  0  0
 41108  1  0  0  0
 41109  1  0  0  0
 41110  1  0  0  0
 41 48  1  0  0  0
 42 43  1  0  0  0
 42 66  1  0  0  0
 42111  1  0  0  0
 42112  1  0  0  0
 43 44  1  0  0  0
 44113  1  0  0  0
 45 46  2  0  0  0
 45114  1  0  0  0
 46115  1  0  0  0
 47116  1  0  0  0
 47117  1  0  0  0
 48 56  1  0  0  0
 48 65  1  0  0  0
 48118  1  0  0  0
 49 50  1  0  0  0
 49 53  1  0  0  0
 49 64  1  0  0  0
 49119  1  0  0  0
 50 51  1  0  0  0
 50120  1  0  0  0
 50121  1  0  0  0
 51 52  1  0  0  0
 51122  1  0  0  0
 51123  1  0  0  0
 52124  1  0  0  0
 52125  1  0  0  0
 53 54  1  0  0  0
 54 55  2  0  0  0
 54126  1  0  0  0
 55 57  1  0  0  0
 55127  1  0  0  0
 56 69  2  0  0  0
 57 58  2  0  0  0
 57128  1  0  0  0
 58129  1  0  0  0
 59 60  1  0  0  0
 59 61  1  0  0  0
 59 62  1  0  0  0
 60130  1  0  0  0
 60131  1  0  0  0
 60132  1  0  0  0
 61133  1  0  0  0
 61134  1  0  0  0
 61135  1  0  0  0
 62136  1  0  0  0
 62137  1  0  0  0
 62138  1  0  0  0
 63 65  1  0  0  0
 63139  1  0  0  0
 63140  1  0  0  0
 63141  1  0  0  0
 64142  1  0  0  0
 65143  1  0  0  0
 68 82  1  0  0  0
 71 72  2  0  0  0
 71 73  1  0  0  0
 71144  1  0  0  0
 72 74  1  0  0  0
 72 78  1  0  0  0
 73 75  2  0  0  0
 73 81  1  0  0  0
 74 79  1  0  0  0
 74 83  2  0  0  0
 75 80  1  0  0  0
 75 83  1  0  0  0
 76 78  1  0  0  0
 76 84  1  0  0  0
 76145  1  0  0  0
 76146  1  0  0  0
 77 78  1  0  0  0
 77 84  1  0  0  0
 77147  1  0  0  0
 77148  1  0  0  0
 78149  1  0  0  0
 79150  1  0  0  0
 79151  1  0  0  0
 79152  1  0  0  0
 80153  1  0  0  0
 80154  1  0  0  0
 80155  1  0  0  0
 81 82  1  0  0  0
 81156  1  0  0  0
 81157  1  0  0  0
 82158  1  0  0  0
 82159  1  0  0  0
M  ISO  4   1 100  68 101  82 101  84 100
M  END
> <chiral flag>
0

> <version>
0

> <s_m_source_file>
/data/baiqing/PycharmProjects/Reinvent-master-3.2/result/LINK_invent/BTK/process_docking_weight1_custom_sum_contain_oxygen_bond_distance_aromatic_linkinvent_7_9_3/rearranged_h_0181.sdf

> <i_m_source_file_index>
15

> <r_mmod_Potential_Energy-OPLS-2005>
159.250549316406

> <r_mmod_Stretch_Energy-OPLS-2005>
152.265350341797

> <r_mmod_Bend_Energy-OPLS-2005>
199.406997680664

> <r_mmod_Torsional_Energy-OPLS-2005>
276.914459228516

> <r_mmod_Improper_Torsional_Energy-OPLS-2005>
11.1602735519409

> <r_mmod_Van_der_Waal_Energy-OPLS-2005>
141.469589233398

> <r_mmod_Electrostatic_Energy-OPLS-2005>
-514.657409667969

> <r_mmod_Solvation_Energy-OPLS-2005>
-216.302001953125

> <b_mmod_Minimization_Converged-OPLS-2005>
0

> <r_mmod_RMS_Derivative-OPLS-2005>
1.60353231430054

$$$$
15
                    3D
 Structure written by MMmdl.
160170  0  0  1  0            999 V2000
  -30.7286  -14.5773   20.5692 C   0  0  0  0  0  0
  -30.4152  -12.3783   19.4517 C   0  0  0  0  0  0
  -29.4935  -12.4948   18.2212 C   0  0  0  0  0  0
  -28.0237  -12.3048   18.6369 C   0  0  0  0  0  0
  -27.6455  -13.1892   19.8489 C   0  0  2  0  0  0
  -28.6918  -13.0711   20.9889 C   0  0  0  0  0  0
  -25.2554  -13.8104   20.5644 C   0  0  0  0  0  0
  -24.1813  -13.0407   20.9195 C   0  0  0  0  0  0
  -24.6353  -11.6871   20.8758 C   0  0  0  0  0  0
  -23.9023  -10.4272   21.0428 C   0  0  0  0  0  0
  -24.3589   -9.4191   21.9198 C   0  0  0  0  0  0
  -23.6274   -8.2223   22.0758 C   0  0  0  0  0  0
  -22.4258   -8.0265   21.3545 C   0  0  0  0  0  0
  -21.9886   -9.0239   20.4651 C   0  0  0  0  0  0
  -22.7205  -10.2121   20.3066 C   0  0  0  0  0  0
  -21.6844   -6.0725   22.5278 C   0  0  0  0  0  0
  -21.4008   -6.5632   23.8211 C   0  0  0  0  0  0
  -21.3658   -5.6788   24.9175 C   0  0  0  0  0  0
  -21.6045   -4.3051   24.7228 C   0  0  0  0  0  0
  -21.8819   -3.8140   23.4350 C   0  0  0  0  0  0
  -21.9190   -4.6954   22.3404 C   0  0  0  0  0  0
  -22.7845  -13.5230   21.1861 C   0  0  0  0  0  0
  -22.1661   -4.2140   21.0981 F   0  0  0  0  0  0
  -21.5631   -3.4537   25.7743 F   0  0  0  0  0  0
  -30.0090  -13.4126   20.4325 N   0  0  0  0  0  0
  -26.2936  -12.9227   20.3250 N   0  0  0  0  0  0
  -25.9262  -11.6417   20.5756 N   0  0  0  0  0  0
  -22.0481  -12.8236   22.0423 N   0  0  0  0  0  0
  -25.4266  -15.1819   20.4011 N   0  0  0  0  0  0
  -31.8586  -14.6519   20.0758 O   0  0  0  0  0  0
  -21.6626   -6.8863   21.4238 O   0  0  0  0  0  0
  -22.3542  -14.5538   20.6705 O   0  0  0  0  0  0
  -24.6201  -31.8647   23.2072 C   0  0  0  0  0  0
  -25.9076  -32.4803   23.8380 C   0  0  1  0  0  0
  -27.2291  -27.3809   20.1044 C   0  0  0  0  0  0
  -25.5914  -33.8603   24.2310 N   0  0  0  0  0  0
  -23.4101  -30.4895   21.5487 C   0  0  2  0  0  0
  -24.8558  -28.9531   20.1117 C   0  0  0  0  0  0
  -22.7439  -29.4647   22.4963 C   0  0  0  0  0  0
  -18.0277  -28.1378   22.8488 C   0  0  0  0  0  0
  -24.1489  -36.7307   23.2638 C   0  0  0  0  0  0
  -25.9454  -30.8147   21.3685 C   0  0  0  0  0  0
  -26.0207  -29.4470   20.7114 C   0  0  0  0  0  0
  -27.2096  -28.6709   20.7005 C   0  0  0  0  0  0
  -26.0411  -26.9235   19.4854 C   0  0  0  0  0  0
  -24.8643  -27.6936   19.4929 C   0  0  0  0  0  0
  -23.6207  -29.8255   20.1627 C   0  0  0  0  0  0
  -25.4109  -36.3100   24.0335 C   0  0  1  0  0  0
  -20.5873  -28.3674   23.1301 C   0  0  2  0  0  0
  -20.6768  -26.9405   22.5412 C   0  0  0  0  0  0
  -19.5746  -26.6384   21.5210 C   0  0  0  0  0  0
  -18.1925  -26.7923   22.1624 C   0  0  0  0  0  0
  -19.1528  -28.8842   23.2892 C   0  0  0  0  0  0
  -18.9455  -30.1446   23.8905 C   0  0  0  0  0  0
  -17.6457  -30.6584   24.0562 C   0  0  0  0  0  0
  -25.9041  -34.9466   23.5120 C   0  0  0  0  0  0
  -16.5348  -29.9085   23.6326 C   0  0  0  0  0  0
  -16.7266  -28.6501   23.0349 C   0  0  0  0  0  0
  -26.4484  -31.6594   25.0726 C   0  0  0  0  0  0
  -25.3741  -31.3720   26.1473 C   0  0  0  0  0  0
  -27.0308  -30.3024   24.6135 C   0  0  0  0  0  0
  -27.6060  -32.4313   25.7486 C   0  0  0  0  0  0
  -27.5583  -37.1803   24.8461 C   0  0  0  0  0  0
  -21.4160  -29.3039   22.3704 N   0  0  0  0  0  0
  -26.4290  -37.3790   23.9413 N   0  0  0  0  0  0
  -24.6770  -31.0712   22.0992 N   0  0  0  0  0  0
  -23.4192  -28.8183   23.3017 O   0  0  0  0  0  0
  -28.3769  -26.5927   20.1498 O   0  0  0  0  0  0
  -26.5603  -34.8924   22.4682 O   0  0  0  0  0  0
  -23.5381  -32.1418   23.7439 O   0  0  0  0  0  0
  -29.6906  -21.1521   22.0804 C   0  0  0  0  0  0
  -29.4284  -20.5642   19.6970 C   0  0  0  0  0  0
  -29.6172  -20.1495   21.0632 C   0  0  0  0  0  0
  -29.5198  -22.4611   21.6100 C   0  0  0  0  0  0
  -29.3058  -22.7654   20.2406 C   0  0  0  0  0  0
  -29.6103  -23.9215   21.9958 C   0  0  0  0  0  0
  -28.7938  -17.6725   20.7416 C   0  0  0  0  0  0
  -31.1520  -18.0488   21.3841 C   0  0  0  0  0  0
  -28.8886  -16.2276   21.3162 C   0  0  0  0  0  0
  -31.1954  -16.5969   21.9544 C   0  0  0  0  0  0
  -29.7355  -18.6527   21.4709 C   0  0  0  0  0  0
  -29.4234  -24.2865   20.4332 C   0  0  2  0  0  0
  -28.2204  -25.1523   19.9689 C   0  0  0  0  0  0
  -29.3001  -21.8594   19.2493 N   0  0  0  0  0  0
  -30.2555  -15.6538   21.2931 N   0  0  0  0  0  0
  -31.4580  -12.4646   19.1423 H   0  0  0  0  0  0
  -30.3321  -11.3858   19.8977 H   0  0  0  0  0  0
  -29.7678  -11.7510   17.4721 H   0  0  0  0  0  0
  -29.6240  -13.4699   17.7491 H   0  0  0  0  0  0
  -27.8800  -11.2527   18.8863 H   0  0  0  0  0  0
  -27.3618  -12.5110   17.7949 H   0  0  0  0  0  0
  -27.6452  -14.1937   19.4362 H   0  0  0  0  0  0
  -28.7095  -12.0514   21.3763 H   0  0  0  0  0  0
  -28.4320  -13.6904   21.8465 H   0  0  0  0  0  0
  -25.2735   -9.5670   22.4770 H   0  0  0  0  0  0
  -23.9987   -7.4610   22.7470 H   0  0  0  0  0  0
  -21.0818   -8.8755   19.8955 H   0  0  0  0  0  0
  -22.3666  -10.9663   19.6177 H   0  0  0  0  0  0
  -21.1997   -7.6140   23.9710 H   0  0  0  0  0  0
  -21.1482   -6.0520   25.9078 H   0  0  0  0  0  0
  -22.0601   -2.7603   23.2852 H   0  0  0  0  0  0
  -22.4083  -11.9891   22.4810 H   0  0  0  0  0  0
  -21.1107  -13.1283   22.2636 H   0  0  0  0  0  0
  -24.6594  -15.8359   20.5115 H   0  0  0  0  0  0
  -26.2736  -15.6197   20.0640 H   0  0  0  0  0  0
  -26.7145  -32.5495   23.1137 H   0  0  0  0  0  0
  -25.0070  -33.9756   25.0460 H   0  0  0  0  0  0
  -22.7010  -31.3082   21.4094 H   0  0  0  0  0  0
  -23.3751  -35.9639   23.3296 H   0  0  0  0  0  0
  -24.3589  -36.8927   22.2054 H   0  0  0  0  0  0
  -23.7238  -37.6509   23.6654 H   0  0  0  0  0  0
  -26.0678  -31.5809   20.6017 H   0  0  0  0  0  0
  -26.8295  -30.8638   21.9925 H   0  0  0  0  0  0
  -28.1056  -29.0468   21.1746 H   0  0  0  0  0  0
  -25.9953  -25.9635   18.9931 H   0  0  0  0  0  0
  -23.9706  -27.3093   19.0208 H   0  0  0  0  0  0
  -23.7337  -30.6021   19.4054 H   0  0  0  0  0  0
  -22.7427  -29.2501   19.8637 H   0  0  0  0  0  0
  -25.1284  -36.1959   25.0828 H   0  0  0  0  0  0
  -20.9965  -28.3243   24.1421 H   0  0  0  0  0  0
  -20.5672  -26.2281   23.3603 H   0  0  0  0  0  0
  -21.6638  -26.7445   22.1204 H   0  0  0  0  0  0
  -19.6909  -25.6297   21.1234 H   0  0  0  0  0  0
  -19.6684  -27.3198   20.6742 H   0  0  0  0  0  0
  -17.4194  -26.6667   21.4027 H   0  0  0  0  0  0
  -18.0331  -26.0064   22.9021 H   0  0  0  0  0  0
  -19.7933  -30.7256   24.2281 H   0  0  0  0  0  0
  -17.5015  -31.6266   24.5160 H   0  0  0  0  0  0
  -15.5349  -30.2990   23.7646 H   0  0  0  0  0  0
  -15.8666  -28.0822   22.7062 H   0  0  0  0  0  0
  -24.5893  -30.7094   25.7808 H   0  0  0  0  0  0
  -24.8961  -32.2886   26.4940 H   0  0  0  0  0  0
  -25.8086  -30.8865   27.0221 H   0  0  0  0  0  0
  -26.2856  -29.6788   24.1182 H   0  0  0  0  0  0
  -27.4048  -29.7265   25.4610 H   0  0  0  0  0  0
  -27.8711  -30.4321   23.9310 H   0  0  0  0  0  0
  -27.2686  -33.3614   26.2073 H   0  0  0  0  0  0
  -28.3864  -32.6870   25.0306 H   0  0  0  0  0  0
  -28.0733  -31.8429   26.5393 H   0  0  0  0  0  0
  -28.2591  -38.0110   24.7526 H   0  0  0  0  0  0
  -28.1086  -36.2642   24.6257 H   0  0  0  0  0  0
  -27.2306  -37.1422   25.8865 H   0  0  0  0  0  0
  -20.9325  -29.8769   21.6930 H   0  0  0  0  0  0
  -26.0176  -38.2864   24.1424 H   0  0  0  0  0  0
  -29.8812  -20.9266   23.1201 H   0  0  0  0  0  0
  -29.3930  -19.8180   18.9176 H   0  0  0  0  0  0
  -30.5818  -24.2001   22.4052 H   0  0  0  0  0  0
  -28.7812  -24.2377   22.6300 H   0  0  0  0  0  0
  -27.7643  -18.0229   20.8288 H   0  0  0  0  0  0
  -29.0209  -17.6492   19.6751 H   0  0  0  0  0  0
  -31.5006  -18.0520   20.3503 H   0  0  0  0  0  0
  -31.8502  -18.6720   21.9445 H   0  0  0  0  0  0
  -28.1842  -15.6340   20.7612 H   0  0  0  0  0  0
  -28.5323  -16.2181   22.3472 H   0  0  0  0  0  0
  -30.9438  -16.6231   23.0155 H   0  0  0  0  0  0
  -32.2243  -16.2337   21.9251 H   0  0  0  0  0  0
  -29.4466  -18.6229   22.5233 H   0  0  0  0  0  0
  -30.3662  -24.6083   19.9901 H   0  0  0  0  0  0
  -27.3326  -24.8131   20.5051 H   0  0  0  0  0  0
  -28.0381  -24.9621   18.9106 H   0  0  0  0  0  0
  1 25  1  0  0  0
  1 30  2  0  0  0
  1 85  1  0  0  0
  2  3  1  0  0  0
  2 25  1  0  0  0
  2 86  1  0  0  0
  2 87  1  0  0  0
  3  4  1  0  0  0
  3 88  1  0  0  0
  3 89  1  0  0  0
  4  5  1  0  0  0
  4 90  1  0  0  0
  4 91  1  0  0  0
  5  6  1  0  0  0
  5 26  1  0  0  0
  5 92  1  0  0  0
  6 25  1  0  0  0
  6 93  1  0  0  0
  6 94  1  0  0  0
  7  8  2  0  0  0
  7 26  1  0  0  0
  7 29  1  0  0  0
  8  9  1  0  0  0
  8 22  1  0  0  0
  9 10  1  0  0  0
  9 27  2  0  0  0
 10 11  2  0  0  0
 10 15  1  0  0  0
 11 12  1  0  0  0
 11 95  1  0  0  0
 12 13  2  0  0  0
 12 96  1  0  0  0
 13 14  1  0  0  0
 13 31  1  0  0  0
 14 15  2  0  0  0
 14 97  1  0  0  0
 15 98  1  0  0  0
 16 17  2  0  0  0
 16 21  1  0  0  0
 16 31  1  0  0  0
 17 18  1  0  0  0
 17 99  1  0  0  0
 18 19  2  0  0  0
 18100  1  0  0  0
 19 20  1  0  0  0
 19 24  1  0  0  0
 20 21  2  0  0  0
 20101  1  0  0  0
 21 23  1  0  0  0
 22 28  1  0  0  0
 22 32  2  0  0  0
 26 27  1  0  0  0
 28102  1  0  0  0
 28103  1  0  0  0
 29104  1  0  0  0
 29105  1  0  0  0
 33 34  1  0  0  0
 33 66  1  0  0  0
 33 70  2  0  0  0
 34 36  1  0  0  0
 34 59  1  0  0  0
 34106  1  0  0  0
 35 44  2  0  0  0
 35 45  1  0  0  0
 35 68  1  0  0  0
 36 56  1  0  0  0
 36107  1  0  0  0
 37 39  1  0  0  0
 37 47  1  0  0  0
 37 66  1  0  0  0
 37108  1  0  0  0
 38 43  2  0  0  0
 38 46  1  0  0  0
 38 47  1  0  0  0
 39 64  1  0  0  0
 39 67  2  0  0  0
 40 52  1  0  0  0
 40 53  2  0  0  0
 40 58  1  0  0  0
 41109  1  0  0  0
 41110  1  0  0  0
 41111  1  0  0  0
 41 48  1  0  0  0
 42 43  1  0  0  0
 42 66  1  0  0  0
 42112  1  0  0  0
 42113  1  0  0  0
 43 44  1  0  0  0
 44114  1  0  0  0
 45 46  2  0  0  0
 45115  1  0  0  0
 46116  1  0  0  0
 47117  1  0  0  0
 47118  1  0  0  0
 48 56  1  0  0  0
 48 65  1  0  0  0
 48119  1  0  0  0
 49 50  1  0  0  0
 49 53  1  0  0  0
 49 64  1  0  0  0
 49120  1  0  0  0
 50 51  1  0  0  0
 50121  1  0  0  0
 50122  1  0  0  0
 51 52  1  0  0  0
 51123  1  0  0  0
 51124  1  0  0  0
 52125  1  0  0  0
 52126  1  0  0  0
 53 54  1  0  0  0
 54 55  2  0  0  0
 54127  1  0  0  0
 55 57  1  0  0  0
 55128  1  0  0  0
 56 69  2  0  0  0
 57 58  2  0  0  0
 57129  1  0  0  0
 58130  1  0  0  0
 59 60  1  0  0  0
 59 61  1  0  0  0
 59 62  1  0  0  0
 60131  1  0  0  0
 60132  1  0  0  0
 60133  1  0  0  0
 61134  1  0  0  0
 61135  1  0  0  0
 61136  1  0  0  0
 62137  1  0  0  0
 62138  1  0  0  0
 62139  1  0  0  0
 63 65  1  0  0  0
 63140  1  0  0  0
 63141  1  0  0  0
 63142  1  0  0  0
 64143  1  0  0  0
 65144  1  0  0  0
 68 83  1  0  0  0
 71 73  2  0  0  0
 71 74  1  0  0  0
 71145  1  0  0  0
 72 73  1  0  0  0
 72 84  2  0  0  0
 72146  1  0  0  0
 73 81  1  0  0  0
 74 75  2  0  0  0
 74 76  1  0  0  0
 75 82  1  0  0  0
 75 84  1  0  0  0
 76 82  1  0  0  0
 76147  1  0  0  0
 76148  1  0  0  0
 77 79  1  0  0  0
 77 81  1  0  0  0
 77149  1  0  0  0
 77150  1  0  0  0
 78 80  1  0  0  0
 78 81  1  0  0  0
 78151  1  0  0  0
 78152  1  0  0  0
 79 85  1  0  0  0
 79153  1  0  0  0
 79154  1  0  0  0
 80 85  1  0  0  0
 80155  1  0  0  0
 80156  1  0  0  0
 81157  1  0  0  0
 82 83  1  0  0  0
 82158  1  0  0  0
 83159  1  0  0  0
 83160  1  0  0  0
M  ISO  4   1 100  68 101  83 101  85 100
M  END
> <chiral flag>
0

> <version>
0

> <s_m_source_file>
/data/baiqing/PycharmProjects/Reinvent-master-3.2/result/LINK_invent/BTK/process_docking_weight1_custom_sum_contain_oxygen_bond_distance_aromatic_linkinvent_7_9_3/rearranged_h_0181.sdf

> <i_m_source_file_index>
16

> <r_mmod_Potential_Energy-OPLS-2005>
467.741821289062

> <r_mmod_Stretch_Energy-OPLS-2005>
79.5652313232422

> <r_mmod_Bend_Energy-OPLS-2005>
501.623931884766

> <r_mmod_Torsional_Energy-OPLS-2005>
293.813903808594

> <r_mmod_Improper_Torsional_Energy-OPLS-2005>
5.79926681518555

> <r_mmod_Van_der_Waal_Energy-OPLS-2005>
162.980804443359

> <r_mmod_Electrostatic_Energy-OPLS-2005>
-391.716613769531

> <r_mmod_Solvation_Energy-OPLS-2005>
-214.213455200195

> <b_mmod_Minimization_Converged-OPLS-2005>
0

> <r_mmod_RMS_Derivative-OPLS-2005>
0.25387442111969

$$$$
16
                    3D
 Structure written by MMmdl.
144152  0  0  1  0            999 V2000
  -30.1439  -16.1087   20.3316 C   0  0  0  0  0  0
  -30.3736  -13.4349   19.5757 C   0  0  0  0  0  0
  -29.5694  -12.7950   18.3935 C   0  0  0  0  0  0
  -28.1815  -12.3380   18.8446 C   0  0  0  0  0  0
  -27.5819  -13.3674   19.8203 C   0  0  2  0  0  0
  -28.5512  -13.8995   20.9206 C   0  0  0  0  0  0
  -25.2251  -13.8397   20.5869 C   0  0  0  0  0  0
  -24.1700  -13.0464   20.9293 C   0  0  0  0  0  0
  -24.6479  -11.6992   20.8738 C   0  0  0  0  0  0
  -23.9177  -10.4305   21.0362 C   0  0  0  0  0  0
  -24.3692   -9.4220   21.9151 C   0  0  0  0  0  0
  -23.6337   -8.2267   22.0738 C   0  0  0  0  0  0
  -22.4315   -8.0307   21.3536 C   0  0  0  0  0  0
  -21.9969   -9.0278   20.4620 C   0  0  0  0  0  0
  -22.7332  -10.2135   20.3020 C   0  0  0  0  0  0
  -21.6873   -6.0745   22.5271 C   0  0  0  0  0  0
  -21.4009   -6.5650   23.8215 C   0  0  0  0  0  0
  -21.3659   -5.6793   24.9169 C   0  0  0  0  0  0
  -21.6050   -4.3052   24.7220 C   0  0  0  0  0  0
  -21.8820   -3.8146   23.4341 C   0  0  0  0  0  0
  -21.9192   -4.6970   22.3403 C   0  0  0  0  0  0
  -22.7699  -13.5135   21.1935 C   0  0  0  0  0  0
  -22.1674   -4.2145   21.0976 F   0  0  0  0  0  0
  -21.5627   -3.4535   25.7738 F   0  0  0  0  0  0
  -29.6609  -14.6623   20.2544 N   0  0  0  0  0  0
  -26.2753  -12.9834   20.3322 N   0  0  0  0  0  0
  -25.9437  -11.6824   20.5640 N   0  0  0  0  0  0
  -22.0378  -12.8070   22.0472 N   0  0  0  0  0  0
  -25.3798  -15.2148   20.4368 N   0  0  0  0  0  0
  -31.3747  -15.9425   20.1348 O   0  0  0  0  0  0
  -21.6676   -6.8907   21.4249 O   0  0  0  0  0  0
  -22.3344  -14.5442   20.6801 O   0  0  0  0  0  0
  -24.7145  -31.7605   23.1234 C   0  0  0  0  0  0
  -25.9583  -32.4269   23.7898 C   0  0  1  0  0  0
  -27.2426  -26.3627   20.2606 C   0  0  0  0  0  0
  -25.6014  -33.8119   24.1764 N   0  0  0  0  0  0
  -23.5572  -30.3445   21.4855 C   0  0  2  0  0  0
  -25.0191  -28.6117   20.1270 C   0  0  0  0  0  0
  -22.7918  -29.4104   22.4605 C   0  0  0  0  0  0
  -18.0370  -28.1449   22.8442 C   0  0  0  0  0  0
  -24.1485  -36.7051   23.2663 C   0  0  0  0  0  0
  -26.1506  -30.3801   21.4379 C   0  0  0  0  0  0
  -26.2103  -28.9065   20.8008 C   0  0  0  0  0  0
  -27.2856  -27.8205   20.8270 C   0  0  0  0  0  0
  -26.0201  -26.3660   19.5087 C   0  0  0  0  0  0
  -24.9851  -27.3714   19.4561 C   0  0  0  0  0  0
  -23.8281  -29.6066   20.1343 C   0  0  0  0  0  0
  -25.4145  -36.2786   24.0260 C   0  0  1  0  0  0
  -20.6025  -28.3841   23.1060 C   0  0  2  0  0  0
  -20.6811  -26.9456   22.5415 C   0  0  0  0  0  0
  -19.5792  -26.6345   21.5238 C   0  0  0  0  0  0
  -18.1975  -26.7967   22.1610 C   0  0  0  0  0  0
  -19.1643  -28.8986   23.2734 C   0  0  0  0  0  0
  -18.9545  -30.1543   23.8799 C   0  0  0  0  0  0
  -17.6523  -30.6640   24.0555 C   0  0  0  0  0  0
  -25.9133  -34.9188   23.4881 C   0  0  0  0  0  0
  -16.5418  -29.9110   23.6369 C   0  0  0  0  0  0
  -16.7350  -28.6534   23.0394 C   0  0  0  0  0  0
  -26.4652  -31.6455   25.0665 C   0  0  0  0  0  0
  -25.3620  -31.3866   26.1203 C   0  0  0  0  0  0
  -27.0652  -30.2762   24.6789 C   0  0  0  0  0  0
  -27.6015  -32.4404   25.7526 C   0  0  0  0  0  0
  -27.5537  -37.1681   24.8487 C   0  0  0  0  0  0
  -21.4530  -29.3013   22.3352 N   0  0  0  0  0  0
  -26.4242  -37.3577   23.9422 N   0  0  0  0  0  0
  -24.8361  -30.8675   22.0675 N   0  0  0  0  0  0
  -23.4211  -28.7762   23.3114 O   0  0  0  0  0  0
  -28.1621  -24.9962   20.3856 O   0  0  0  0  0  0
  -26.5835  -34.8853   22.4533 O   0  0  0  0  0  0
  -23.6077  -32.0863   23.5922 O   0  0  0  0  0  0
  -28.0527  -19.9304   21.3451 C   0  0  0  0  0  0
  -28.6291  -18.3267   21.4954 C   0  0  0  0  0  0
  -29.5549  -19.3595   19.8345 C   0  0  0  0  0  0
  -28.8944  -21.0737   20.5473 C   0  0  1  0  0  0
  -28.1906  -23.0756   20.1043 C   0  0  0  0  0  0
  -29.4535  -17.6467   20.3832 N   0  0  0  0  0  0
  -31.3356  -13.7405   19.1699 H   0  0  0  0  0  0
  -30.6320  -12.6752   20.3134 H   0  0  0  0  0  0
  -30.1207  -11.9590   17.9618 H   0  0  0  0  0  0
  -29.4666  -13.5304   17.5974 H   0  0  0  0  0  0
  -28.2895  -11.3805   19.3538 H   0  0  0  0  0  0
  -27.5253  -12.1696   17.9905 H   0  0  0  0  0  0
  -27.3890  -14.2271   19.1785 H   0  0  0  0  0  0
  -28.8997  -13.1057   21.5841 H   0  0  0  0  0  0
  -28.0156  -14.6031   21.5625 H   0  0  0  0  0  0
  -25.2816   -9.5698   22.4749 H   0  0  0  0  0  0
  -24.0015   -7.4675   22.7485 H   0  0  0  0  0  0
  -21.0877   -8.8814   19.8939 H   0  0  0  0  0  0
  -22.3781  -10.9679   19.6135 H   0  0  0  0  0  0
  -21.2005   -7.6158   23.9710 H   0  0  0  0  0  0
  -21.1480   -6.0526   25.9073 H   0  0  0  0  0  0
  -22.0595   -2.7600   23.2848 H   0  0  0  0  0  0
  -22.4035  -11.9755   22.4869 H   0  0  0  0  0  0
  -21.0984  -13.1036   22.2713 H   0  0  0  0  0  0
  -24.6099  -15.8636   20.5629 H   0  0  0  0  0  0
  -26.2360  -15.6648   20.1398 H   0  0  0  0  0  0
  -26.7703  -32.4643   23.0626 H   0  0  0  0  0  0
  -25.0096  -33.9122   24.9880 H   0  0  0  0  0  0
  -22.9047  -31.1927   21.2608 H   0  0  0  0  0  0
  -23.3786  -35.9338   23.3222 H   0  0  0  0  0  0
  -24.3558  -36.8832   22.2106 H   0  0  0  0  0  0
  -23.7182  -37.6153   23.6825 H   0  0  0  0  0  0
  -26.3851  -31.0751   20.6294 H   0  0  0  0  0  0
  -26.9931  -30.4673   22.1141 H   0  0  0  0  0  0
  -28.1715  -28.0614   21.3996 H   0  0  0  0  0  0
  -25.8014  -25.4500   18.9776 H   0  0  0  0  0  0
  -24.0975  -27.1336   18.8852 H   0  0  0  0  0  0
  -24.0261  -30.3524   19.3611 H   0  0  0  0  0  0
  -22.9277  -29.0859   19.8006 H   0  0  0  0  0  0
  -25.1353  -36.1502   25.0733 H   0  0  0  0  0  0
  -21.0112  -28.3492   24.1182 H   0  0  0  0  0  0
  -20.5643  -26.2468   23.3714 H   0  0  0  0  0  0
  -21.6663  -26.7351   22.1242 H   0  0  0  0  0  0
  -19.6951  -25.6237   21.1325 H   0  0  0  0  0  0
  -19.6707  -27.3136   20.6772 H   0  0  0  0  0  0
  -17.4208  -26.6733   21.4033 H   0  0  0  0  0  0
  -18.0355  -26.0144   22.9041 H   0  0  0  0  0  0
  -19.8036  -30.7379   24.2108 H   0  0  0  0  0  0
  -17.5095  -31.6313   24.5174 H   0  0  0  0  0  0
  -15.5421  -30.2990   23.7749 H   0  0  0  0  0  0
  -15.8751  -28.0819   22.7181 H   0  0  0  0  0  0
  -24.5893  -30.7138   25.7474 H   0  0  0  0  0  0
  -24.8693  -32.3088   26.4293 H   0  0  0  0  0  0
  -25.7679  -30.9245   27.0213 H   0  0  0  0  0  0
  -26.3455  -29.6259   24.1789 H   0  0  0  0  0  0
  -27.4004  -29.7353   25.5661 H   0  0  0  0  0  0
  -27.9433  -30.3869   24.0421 H   0  0  0  0  0  0
  -27.2505  -33.3801   26.1826 H   0  0  0  0  0  0
  -28.3941  -32.6822   25.0433 H   0  0  0  0  0  0
  -28.0559  -31.8727   26.5666 H   0  0  0  0  0  0
  -28.2511  -38.0022   24.7493 H   0  0  0  0  0  0
  -28.1043  -36.2506   24.6317 H   0  0  0  0  0  0
  -27.2239  -37.1329   25.8893 H   0  0  0  0  0  0
  -20.9909  -29.8582   21.6293 H   0  0  0  0  0  0
  -26.0023  -38.2588   24.1453 H   0  0  0  0  0  0
  -27.8527  -20.3100   22.3500 H   0  0  0  0  0  0
  -27.0685  -19.8751   20.8652 H   0  0  0  0  0  0
  -27.7805  -17.6713   21.7279 H   0  0  0  0  0  0
  -29.2625  -18.2959   22.3880 H   0  0  0  0  0  0
  -30.6281  -19.5147   19.6713 H   0  0  0  0  0  0
  -29.1327  -19.3033   18.8234 H   0  0  0  0  0  0
  -29.7224  -21.3445   21.2090 H   0  0  0  0  0  0
  -27.1163  -22.8935   20.0066 H   0  0  0  0  0  0
  -28.5247  -23.1217   19.0646 H   0  0  0  0  0  0
  1 25  1  0  0  0
  1 30  2  0  0  0
  1 76  1  0  0  0
  2  3  1  0  0  0
  2 25  1  0  0  0
  2 77  1  0  0  0
  2 78  1  0  0  0
  3  4  1  0  0  0
  3 79  1  0  0  0
  3 80  1  0  0  0
  4  5  1  0  0  0
  4 81  1  0  0  0
  4 82  1  0  0  0
  5  6  1  0  0  0
  5 26  1  0  0  0
  5 83  1  0  0  0
  6 25  1  0  0  0
  6 84  1  0  0  0
  6 85  1  0  0  0
  7  8  2  0  0  0
  7 26  1  0  0  0
  7 29  1  0  0  0
  8  9  1  0  0  0
  8 22  1  0  0  0
  9 10  1  0  0  0
  9 27  2  0  0  0
 10 11  2  0  0  0
 10 15  1  0  0  0
 11 12  1  0  0  0
 11 86  1  0  0  0
 12 13  2  0  0  0
 12 87  1  0  0  0
 13 14  1  0  0  0
 13 31  1  0  0  0
 14 15  2  0  0  0
 14 88  1  0  0  0
 15 89  1  0  0  0
 16 17  2  0  0  0
 16 21  1  0  0  0
 16 31  1  0  0  0
 17 18  1  0  0  0
 17 90  1  0  0  0
 18 19  2  0  0  0
 18 91  1  0  0  0
 19 20  1  0  0  0
 19 24  1  0  0  0
 20 21  2  0  0  0
 20 92  1  0  0  0
 21 23  1  0  0  0
 22 28  1  0  0  0
 22 32  2  0  0  0
 26 27  1  0  0  0
 28 93  1  0  0  0
 28 94  1  0  0  0
 29 95  1  0  0  0
 29 96  1  0  0  0
 33 34  1  0  0  0
 33 66  1  0  0  0
 33 70  2  0  0  0
 34 36  1  0  0  0
 34 59  1  0  0  0
 34 97  1  0  0  0
 35 44  2  0  0  0
 35 45  1  0  0  0
 35 68  1  0  0  0
 36 56  1  0  0  0
 36 98  1  0  0  0
 37 39  1  0  0  0
 37 47  1  0  0  0
 37 66  1  0  0  0
 37 99  1  0  0  0
 38 43  2  0  0  0
 38 46  1  0  0  0
 38 47  1  0  0  0
 39 64  1  0  0  0
 39 67  2  0  0  0
 40 52  1  0  0  0
 40 53  2  0  0  0
 40 58  1  0  0  0
 41100  1  0  0  0
 41101  1  0  0  0
 41102  1  0  0  0
 41 48  1  0  0  0
 42 43  1  0  0  0
 42 66  1  0  0  0
 42103  1  0  0  0
 42104  1  0  0  0
 43 44  1  0  0  0
 44105  1  0  0  0
 45 46  2  0  0  0
 45106  1  0  0  0
 46107  1  0  0  0
 47108  1  0  0  0
 47109  1  0  0  0
 48 56  1  0  0  0
 48 65  1  0  0  0
 48110  1  0  0  0
 49 50  1  0  0  0
 49 53  1  0  0  0
 49 64  1  0  0  0
 49111  1  0  0  0
 50 51  1  0  0  0
 50112  1  0  0  0
 50113  1  0  0  0
 51 52  1  0  0  0
 51114  1  0  0  0
 51115  1  0  0  0
 52116  1  0  0  0
 52117  1  0  0  0
 53 54  1  0  0  0
 54 55  2  0  0  0
 54118  1  0  0  0
 55 57  1  0  0  0
 55119  1  0  0  0
 56 69  2  0  0  0
 57 58  2  0  0  0
 57120  1  0  0  0
 58121  1  0  0  0
 59 60  1  0  0  0
 59 61  1  0  0  0
 59 62  1  0  0  0
 60122  1  0  0  0
 60123  1  0  0  0
 60124  1  0  0  0
 61125  1  0  0  0
 61126  1  0  0  0
 61127  1  0  0  0
 62128  1  0  0  0
 62129  1  0  0  0
 62130  1  0  0  0
 63 65  1  0  0  0
 63131  1  0  0  0
 63132  1  0  0  0
 63133  1  0  0  0
 64134  1  0  0  0
 65135  1  0  0  0
 68 75  1  0  0  0
 71 72  1  0  0  0
 71 74  1  0  0  0
 71136  1  0  0  0
 71137  1  0  0  0
 72 76  1  0  0  0
 72138  1  0  0  0
 72139  1  0  0  0
 73 74  1  0  0  0
 73 76  1  0  0  0
 73140  1  0  0  0
 73141  1  0  0  0
 74 75  1  0  0  0
 74142  1  0  0  0
 75143  1  0  0  0
 75144  1  0  0  0
M  ISO  4   1 100  68 101  75 101  76 100
M  END
> <chiral flag>
0

> <version>
0

> <s_m_source_file>
/data/baiqing/PycharmProjects/Reinvent-master-3.2/result/LINK_invent/BTK/process_docking_weight1_custom_sum_contain_oxygen_bond_distance_aromatic_linkinvent_7_9_3/rearranged_h_0181.sdf

> <i_m_source_file_index>
17

> <r_mmod_Potential_Energy-OPLS-2005>
4711.18212890625

> <r_mmod_Stretch_Energy-OPLS-2005>
1953.69860839844

> <r_mmod_Bend_Energy-OPLS-2005>
1032.90893554688

> <r_mmod_Torsional_Energy-OPLS-2005>
335.596893310547

> <r_mmod_Improper_Torsional_Energy-OPLS-2005>
7.49442338943481

> <r_mmod_Van_der_Waal_Energy-OPLS-2005>
110.785461425781

> <r_mmod_Electrostatic_Energy-OPLS-2005>
-264.831115722656

> <r_mmod_Solvation_Energy-OPLS-2005>
-215.226318359375

> <b_mmod_Minimization_Converged-OPLS-2005>
0

> <r_mmod_RMS_Derivative-OPLS-2005>
8.33432483673096

$$$$
17
                    3D
 Structure written by MMmdl.
156165  0  0  1  0            999 V2000
  -28.7955  -16.8600   20.6520 C   0  0  0  0  0  0
  -29.9695  -14.2079   19.7095 C   0  0  0  0  0  0
  -29.4905  -13.1615   18.5782 C   0  0  0  0  0  0
  -28.2354  -12.3960   18.9887 C   0  0  0  0  0  0
  -27.4501  -13.3748   19.8588 C   0  0  2  0  0  0
  -28.2000  -14.0582   21.0295 C   0  0  0  0  0  0
  -25.1442  -13.8207   20.5720 C   0  0  0  0  0  0
  -24.1095  -13.0257   20.9363 C   0  0  0  0  0  0
  -24.5991  -11.6823   20.8806 C   0  0  0  0  0  0
  -23.8880  -10.4168   21.0435 C   0  0  0  0  0  0
  -24.3523   -9.4121   21.9198 C   0  0  0  0  0  0
  -23.6240   -8.2141   22.0745 C   0  0  0  0  0  0
  -22.4225   -8.0176   21.3534 C   0  0  0  0  0  0
  -21.9818   -9.0113   20.4625 C   0  0  0  0  0  0
  -22.7096  -10.2002   20.3046 C   0  0  0  0  0  0
  -21.6818   -6.0679   22.5289 C   0  0  0  0  0  0
  -21.3992   -6.5603   23.8215 C   0  0  0  0  0  0
  -21.3659   -5.6766   24.9183 C   0  0  0  0  0  0
  -21.6050   -4.3029   24.7240 C   0  0  0  0  0  0
  -21.8823   -3.8112   23.4364 C   0  0  0  0  0  0
  -21.9184   -4.6918   22.3414 C   0  0  0  0  0  0
  -22.7196  -13.4991   21.2042 C   0  0  0  0  0  0
  -22.1654   -4.2103   21.0992 F   0  0  0  0  0  0
  -21.5640   -3.4524   25.7761 F   0  0  0  0  0  0
  -28.8939  -15.2424   20.4307 N   0  0  0  0  0  0
  -26.1767  -12.9542   20.3103 N   0  0  0  0  0  0
  -25.8871  -11.6589   20.5609 N   0  0  0  0  0  0
  -21.9948  -12.7978   22.0641 N   0  0  0  0  0  0
  -25.2925  -15.1994   20.4078 N   0  0  0  0  0  0
  -30.0888  -16.8688   20.4722 O   0  0  0  0  0  0
  -21.6593   -6.8788   21.4240 O   0  0  0  0  0  0
  -22.2919  -14.5313   20.6870 O   0  0  0  0  0  0
  -24.7073  -31.8902   23.1770 C   0  0  0  0  0  0
  -25.9730  -32.4876   23.8372 C   0  0  1  0  0  0
  -26.8134  -26.8013   20.3425 C   0  0  0  0  0  0
  -25.6391  -33.8631   24.2333 N   0  0  0  0  0  0
  -23.5401  -30.5503   21.5309 C   0  0  2  0  0  0
  -24.8912  -28.9462   20.0504 C   0  0  0  0  0  0
  -23.0380  -29.4933   22.5160 C   0  0  0  0  0  0
  -18.5566  -27.1775   23.1475 C   0  0  0  0  0  0
  -24.1514  -36.7274   23.2616 C   0  0  0  0  0  0
  -26.0860  -30.6397   21.4245 C   0  0  0  0  0  0
  -26.0564  -29.2227   20.7722 C   0  0  0  0  0  0
  -27.0418  -28.1527   20.9031 C   0  0  0  0  0  0
  -25.7739  -26.7530   19.4140 C   0  0  0  0  0  0
  -24.8045  -27.7624   19.3090 C   0  0  0  0  0  0
  -23.7448  -29.9440   20.1135 C   0  0  0  0  0  0
  -25.4152  -36.3082   24.0298 C   0  0  1  0  0  0
  -21.4076  -27.8864   22.8281 C   0  0  2  0  0  0
  -21.9719  -26.9755   21.0130 C   0  0  0  0  0  0
  -20.2562  -25.3925   20.5627 C   0  0  0  0  0  0
  -18.8764  -25.6039   22.1639 C   0  0  0  0  0  0
  -19.7201  -28.1393   23.4844 C   0  0  0  0  0  0
  -19.3318  -29.5029   23.9088 C   0  0  0  0  0  0
  -18.0115  -30.0464   23.9650 C   0  0  0  0  0  0
  -25.9177  -34.9503   23.5041 C   0  0  0  0  0  0
  -16.9532  -29.2224   23.5579 C   0  0  0  0  0  0
  -17.2371  -27.8645   23.1593 C   0  0  0  0  0  0
  -26.4697  -31.6603   25.0847 C   0  0  0  0  0  0
  -25.3696  -31.3862   26.1371 C   0  0  0  0  0  0
  -27.0507  -30.2945   24.6535 C   0  0  0  0  0  0
  -27.6186  -32.4263   25.7785 C   0  0  0  0  0  0
  -27.5584  -37.1845   24.8466 C   0  0  0  0  0  0
  -21.7638  -29.2434   22.5203 N   0  0  0  0  0  0
  -26.4289  -37.3817   23.9419 N   0  0  0  0  0  0
  -24.8053  -31.0900   22.0717 N   0  0  0  0  0  0
  -23.7955  -28.8725   23.2609 O   0  0  0  0  0  0
  -27.3768  -25.4844   20.6985 O   0  0  0  0  0  0
  -26.5610  -34.8976   22.4523 O   0  0  0  0  0  0
  -23.6107  -32.1806   23.6880 O   0  0  0  0  0  0
  -24.0355  -23.5623   21.8456 C   0  0  0  0  0  0
  -21.6273  -25.2255   22.3592 C   0  0  0  0  0  0
  -24.7250  -20.3101   21.8114 C   0  0  0  0  0  0
  -25.8109  -22.5510   21.4043 C   0  0  1  0  0  0
  -26.3163  -20.2700   21.0852 C   0  0  1  0  0  0
  -23.2311  -21.2994   21.6438 C   0  0  2  0  0  0
  -19.8594  -27.4371   21.1630 C   0  0  0  0  0  0
  -22.6655  -21.0701   20.2370 C   0  0  0  0  0  0
  -26.7208  -23.9181   20.5306 C   0  0  0  0  0  0
  -23.2633  -24.9202   22.1978 N   0  0  0  0  0  0
  -21.6164  -23.7321   22.2652 N   0  0  0  0  0  0
  -22.9349  -22.8534   21.9858 N   0  0  0  0  0  0
  -27.5298  -18.2895   20.9003 N   0  0  0  0  0  0
  -30.7054  -14.8408   19.2119 H   0  0  0  0  0  0
  -30.5730  -13.6964   20.4624 H   0  0  0  0  0  0
  -30.2982  -12.4779   18.3163 H   0  0  0  0  0  0
  -29.2635  -13.7284   17.6731 H   0  0  0  0  0  0
  -28.5101  -11.5214   19.5798 H   0  0  0  0  0  0
  -27.6675  -12.0490   18.1254 H   0  0  0  0  0  0
  -27.2076  -14.1557   19.1336 H   0  0  0  0  0  0
  -28.8149  -13.3685   21.6104 H   0  0  0  0  0  0
  -27.5061  -14.4681   21.7638 H   0  0  0  0  0  0
  -25.2657   -9.5640   22.4780 H   0  0  0  0  0  0
  -23.9955   -7.4524   22.7451 H   0  0  0  0  0  0
  -21.0755   -8.8595   19.8926 H   0  0  0  0  0  0
  -22.3534  -10.9539   19.6161 H   0  0  0  0  0  0
  -21.1975   -7.6112   23.9703 H   0  0  0  0  0  0
  -21.1484   -6.0503   25.9084 H   0  0  0  0  0  0
  -22.0611   -2.7576   23.2880 H   0  0  0  0  0  0
  -22.3632  -11.9669   22.5020 H   0  0  0  0  0  0
  -21.0563  -13.0950   22.2904 H   0  0  0  0  0  0
  -24.4728  -15.7972   20.4222 H   0  0  0  0  0  0
  -26.0540  -15.5809   19.8642 H   0  0  0  0  0  0
  -26.7876  -32.5350   23.1151 H   0  0  0  0  0  0
  -25.0628  -33.9717   25.0551 H   0  0  0  0  0  0
  -22.8003  -31.3492   21.4464 H   0  0  0  0  0  0
  -23.3809  -35.9567   23.3224 H   0  0  0  0  0  0
  -24.3612  -36.8974   22.2044 H   0  0  0  0  0  0
  -23.7227  -37.6435   23.6686 H   0  0  0  0  0  0
  -26.3216  -31.3642   20.6428 H   0  0  0  0  0  0
  -26.9408  -30.6614   22.0889 H   0  0  0  0  0  0
  -27.8749  -28.2998   21.5761 H   0  0  0  0  0  0
  -25.5827  -25.8493   18.8575 H   0  0  0  0  0  0
  -23.9437  -27.5937   18.6765 H   0  0  0  0  0  0
  -23.9855  -30.7557   19.4251 H   0  0  0  0  0  0
  -22.8197  -29.5308   19.7211 H   0  0  0  0  0  0
  -25.1322  -36.1891   25.0789 H   0  0  0  0  0  0
  -21.9579  -27.4610   23.6703 H   0  0  0  0  0  0
  -23.0223  -26.7349   20.8823 H   0  0  0  0  0  0
  -22.0035  -27.6970   20.1984 H   0  0  0  0  0  0
  -20.5452  -24.3755   20.2851 H   0  0  0  0  0  0
  -19.7692  -25.6177   19.6034 H   0  0  0  0  0  0
  -17.9052  -25.2954   21.7735 H   0  0  0  0  0  0
  -19.0924  -24.8413   22.9119 H   0  0  0  0  0  0
  -20.1257  -30.1936   24.1558 H   0  0  0  0  0  0
  -17.8402  -31.0693   24.2709 H   0  0  0  0  0  0
  -15.9409  -29.6013   23.5341 H   0  0  0  0  0  0
  -16.3936  -27.2880   22.8024 H   0  0  0  0  0  0
  -24.5815  -30.7389   25.7513 H   0  0  0  0  0  0
  -24.9006  -32.3095   26.4780 H   0  0  0  0  0  0
  -25.7788  -30.8907   27.0182 H   0  0  0  0  0  0
  -26.3185  -29.6746   24.1362 H   0  0  0  0  0  0
  -27.3818  -29.7189   25.5187 H   0  0  0  0  0  0
  -27.9243  -30.4091   24.0116 H   0  0  0  0  0  0
  -27.2800  -33.3595   26.2281 H   0  0  0  0  0  0
  -28.4150  -32.6745   25.0759 H   0  0  0  0  0  0
  -28.0647  -31.8381   26.5812 H   0  0  0  0  0  0
  -28.2560  -38.0182   24.7537 H   0  0  0  0  0  0
  -28.1124  -36.2711   24.6253 H   0  0  0  0  0  0
  -27.2298  -37.1432   25.8867 H   0  0  0  0  0  0
  -21.1306  -29.8069   21.9717 H   0  0  0  0  0  0
  -26.0127  -38.2857   24.1488 H   0  0  0  0  0  0
  -24.9309  -20.3504   22.8809 H   0  0  0  0  0  0
  -24.3642  -19.2902   21.6814 H   0  0  0  0  0  0
  -26.2749  -22.6091   22.3891 H   0  0  0  0  0  0
  -26.1031  -20.2557   20.0153 H   0  0  0  0  0  0
  -22.5384  -20.7870   22.3151 H   0  0  0  0  0  0
  -19.9658  -28.5242   21.2274 H   0  0  0  0  0  0
  -18.8065  -27.3454   20.8379 H   0  0  0  0  0  0
  -20.0063  -27.6146   20.0800 H   0  0  0  0  0  0
  -22.5694  -20.0086   20.0093 H   0  0  0  0  0  0
  -23.3085  -21.5254   19.4834 H   0  0  0  0  0  0
  -21.6736  -21.5182   20.1414 H   0  0  0  0  0  0
  -26.1646  -23.9796   19.5982 H   0  0  0  0  0  0
  -27.6254  -23.3959   20.2227 H   0  0  0  0  0  0
  -26.7465  -17.6580   21.0212 H   0  0  0  0  0  0
  1 25  1  0  0  0
  1 30  2  0  0  0
  1 83  1  0  0  0
  2  3  1  0  0  0
  2 25  1  0  0  0
  2 84  1  0  0  0
  2 85  1  0  0  0
  3  4  1  0  0  0
  3 86  1  0  0  0
  3 87  1  0  0  0
  4  5  1  0  0  0
  4 88  1  0  0  0
  4 89  1  0  0  0
  5  6  1  0  0  0
  5 26  1  0  0  0
  5 90  1  0  0  0
  6 25  1  0  0  0
  6 91  1  0  0  0
  6 92  1  0  0  0
  7  8  2  0  0  0
  7 26  1  0  0  0
  7 29  1  0  0  0
  8  9  1  0  0  0
  8 22  1  0  0  0
  9 10  1  0  0  0
  9 27  2  0  0  0
 10 11  2  0  0  0
 10 15  1  0  0  0
 11 12  1  0  0  0
 11 93  1  0  0  0
 12 13  2  0  0  0
 12 94  1  0  0  0
 13 14  1  0  0  0
 13 31  1  0  0  0
 14 15  2  0  0  0
 14 95  1  0  0  0
 15 96  1  0  0  0
 16 17  2  0  0  0
 16 21  1  0  0  0
 16 31  1  0  0  0
 17 18  1  0  0  0
 17 97  1  0  0  0
 18 19  2  0  0  0
 18 98  1  0  0  0
 19 20  1  0  0  0
 19 24  1  0  0  0
 20 21  2  0  0  0
 20 99  1  0  0  0
 21 23  1  0  0  0
 22 28  1  0  0  0
 22 32  2  0  0  0
 26 27  1  0  0  0
 28100  1  0  0  0
 28101  1  0  0  0
 29102  1  0  0  0
 29103  1  0  0  0
 33 34  1  0  0  0
 33 66  1  0  0  0
 33 70  2  0  0  0
 34 36  1  0  0  0
 34 59  1  0  0  0
 34104  1  0  0  0
 35 44  2  0  0  0
 35 45  1  0  0  0
 35 68  1  0  0  0
 36 56  1  0  0  0
 36105  1  0  0  0
 37 39  1  0  0  0
 37 47  1  0  0  0
 37 66  1  0  0  0
 37106  1  0  0  0
 38 43  2  0  0  0
 38 46  1  0  0  0
 38 47  1  0  0  0
 39 64  1  0  0  0
 39 67  2  0  0  0
 40 52  1  0  0  0
 40 53  2  0  0  0
 40 58  1  0  0  0
 41107  1  0  0  0
 41108  1  0  0  0
 41109  1  0  0  0
 41 48  1  0  0  0
 42 43  1  0  0  0
 42 66  1  0  0  0
 42110  1  0  0  0
 42111  1  0  0  0
 43 44  1  0  0  0
 44112  1  0  0  0
 45 46  2  0  0  0
 45113  1  0  0  0
 46114  1  0  0  0
 47115  1  0  0  0
 47116  1  0  0  0
 48 56  1  0  0  0
 48 65  1  0  0  0
 48117  1  0  0  0
 49 50  1  0  0  0
 49 53  1  0  0  0
 49 64  1  0  0  0
 49118  1  0  0  0
 50 51  1  0  0  0
 50119  1  0  0  0
 50120  1  0  0  0
 51 52  1  0  0  0
 51121  1  0  0  0
 51122  1  0  0  0
 52123  1  0  0  0
 52124  1  0  0  0
 53 54  1  0  0  0
 54 55  2  0  0  0
 54125  1  0  0  0
 55 57  1  0  0  0
 55126  1  0  0  0
 56 69  2  0  0  0
 57 58  2  0  0  0
 57127  1  0  0  0
 58128  1  0  0  0
 59 60  1  0  0  0
 59 61  1  0  0  0
 59 62  1  0  0  0
 60129  1  0  0  0
 60130  1  0  0  0
 60131  1  0  0  0
 61132  1  0  0  0
 61133  1  0  0  0
 61134  1  0  0  0
 62135  1  0  0  0
 62136  1  0  0  0
 62137  1  0  0  0
 63 65  1  0  0  0
 63138  1  0  0  0
 63139  1  0  0  0
 63140  1  0  0  0
 64141  1  0  0  0
 65142  1  0  0  0
 68 79  1  0  0  0
 71 74  1  0  0  0
 71 80  2  0  0  0
 71 82  1  0  0  0
 72 77  1  0  0  0
 72 80  1  0  0  0
 72 81  2  0  0  0
 73 75  1  0  0  0
 73 76  1  0  0  0
 73143  1  0  0  0
 73144  1  0  0  0
 74 75  1  0  0  0
 74 79  1  0  0  0
 74145  1  0  0  0
 75 83  1  0  0  0
 75146  1  0  0  0
 76 78  1  0  0  0
 76 82  1  0  0  0
 76147  1  0  0  0
 77148  1  0  0  0
 77149  1  0  0  0
 77150  1  0  0  0
 78151  1  0  0  0
 78152  1  0  0  0
 78153  1  0  0  0
 79154  1  0  0  0
 79155  1  0  0  0
 81 82  1  0  0  0
 83156  1  0  0  0
M  ISO  4   1 100  68 101  79 101  83 100
M  END
> <chiral flag>
0

> <version>
0

> <s_m_source_file>
/data/baiqing/PycharmProjects/Reinvent-master-3.2/result/LINK_invent/BTK/process_docking_weight1_custom_sum_contain_oxygen_bond_distance_aromatic_linkinvent_7_9_3/rearranged_h_0181.sdf

> <i_m_source_file_index>
18

> <r_mmod_Potential_Energy-OPLS-2005>
18296.111328125

> <r_mmod_Stretch_Energy-OPLS-2005>
9443.236328125

> <r_mmod_Bend_Energy-OPLS-2005>
2092.38598632812

> <r_mmod_Torsional_Energy-OPLS-2005>
370.341796875

> <r_mmod_Improper_Torsional_Energy-OPLS-2005>
34.5723190307617

> <r_mmod_Van_der_Waal_Energy-OPLS-2005>
1985.28918457031

> <r_mmod_Electrostatic_Energy-OPLS-2005>
-347.165191650391

> <r_mmod_Solvation_Energy-OPLS-2005>
-273.040405273438

> <b_mmod_Minimization_Converged-OPLS-2005>
0

> <r_mmod_RMS_Derivative-OPLS-2005>
4.6850118637085

$$$$
18
                    3D
 Structure written by MMmdl.
149157  0  0  1  0            999 V2000
  -30.4739  -15.2030   20.3816 C   0  0  0  0  0  0
  -30.4364  -12.7678   19.5181 C   0  0  0  0  0  0
  -29.5285  -12.5653   18.2795 C   0  0  0  0  0  0
  -28.0753  -12.2999   18.7091 C   0  0  0  0  0  0
  -27.6127  -13.2714   19.8237 C   0  0  2  0  0  0
  -28.6499  -13.4240   20.9575 C   0  0  0  0  0  0
  -25.2388  -13.8248   20.5750 C   0  0  0  0  0  0
  -24.1740  -13.0437   20.9260 C   0  0  0  0  0  0
  -24.6396  -11.6935   20.8770 C   0  0  0  0  0  0
  -23.9093  -10.4289   21.0412 C   0  0  0  0  0  0
  -24.3637   -9.4204   21.9192 C   0  0  0  0  0  0
  -23.6305   -8.2243   22.0762 C   0  0  0  0  0  0
  -22.4286   -8.0284   21.3549 C   0  0  0  0  0  0
  -21.9926   -9.0259   20.4651 C   0  0  0  0  0  0
  -22.7265  -10.2135   20.3060 C   0  0  0  0  0  0
  -21.6850   -6.0742   22.5282 C   0  0  0  0  0  0
  -21.4013   -6.5643   23.8216 C   0  0  0  0  0  0
  -21.3659   -5.6793   24.9174 C   0  0  0  0  0  0
  -21.6043   -4.3055   24.7220 C   0  0  0  0  0  0
  -21.8819   -3.8151   23.4338 C   0  0  0  0  0  0
  -21.9191   -4.6972   22.3398 C   0  0  0  0  0  0
  -22.7756  -13.5188   21.1906 C   0  0  0  0  0  0
  -22.1659   -4.2160   21.0975 F   0  0  0  0  0  0
  -21.5628   -3.4539   25.7729 F   0  0  0  0  0  0
  -29.8902  -13.9107   20.3334 N   0  0  0  0  0  0
  -26.2816  -12.9518   20.3225 N   0  0  0  0  0  0
  -25.9330  -11.6626   20.5731 N   0  0  0  0  0  0
  -22.0411  -12.8169   22.0459 N   0  0  0  0  0  0
  -25.4024  -15.1981   20.4183 N   0  0  0  0  0  0
  -31.6927  -15.1993   20.1633 O   0  0  0  0  0  0
  -21.6642   -6.8890   21.4244 O   0  0  0  0  0  0
  -22.3432  -14.5488   20.6744 O   0  0  0  0  0  0
  -24.6605  -31.8274   23.1745 C   0  0  0  0  0  0
  -25.9296  -32.4609   23.8197 C   0  0  1  0  0  0
  -27.2171  -26.9608   20.1759 C   0  0  0  0  0  0
  -25.5979  -33.8422   24.2105 N   0  0  0  0  0  0
  -23.4740  -30.4423   21.5229 C   0  0  2  0  0  0
  -24.9266  -28.8398   20.1114 C   0  0  0  0  0  0
  -22.7662  -29.4467   22.4796 C   0  0  0  0  0  0
  -18.0325  -28.1414   22.8472 C   0  0  0  0  0  0
  -24.1489  -36.7214   23.2651 C   0  0  0  0  0  0
  -26.0431  -30.6450   21.4002 C   0  0  0  0  0  0
  -26.1115  -29.2396   20.7428 C   0  0  0  0  0  0
  -27.2529  -28.3211   20.7520 C   0  0  0  0  0  0
  -26.0028  -26.7127   19.4935 C   0  0  0  0  0  0
  -24.8967  -27.5958   19.4665 C   0  0  0  0  0  0
  -23.7119  -29.7630   20.1475 C   0  0  0  0  0  0
  -25.4129  -36.2981   24.0305 C   0  0  1  0  0  0
  -20.5947  -28.3754   23.1196 C   0  0  2  0  0  0
  -20.6802  -26.9439   22.5403 C   0  0  0  0  0  0
  -19.5771  -26.6384   21.5218 C   0  0  0  0  0  0
  -18.1954  -26.7949   22.1622 C   0  0  0  0  0  0
  -19.1587  -28.8904   23.2822 C   0  0  0  0  0  0
  -18.9498  -30.1494   23.8855 C   0  0  0  0  0  0
  -17.6492  -30.6603   24.0559 C   0  0  0  0  0  0
  -25.9090  -34.9360   23.5023 C   0  0  0  0  0  0
  -16.5383  -29.9091   23.6345 C   0  0  0  0  0  0
  -16.7303  -28.6511   23.0360 C   0  0  0  0  0  0
  -26.4558  -31.6538   25.0707 C   0  0  0  0  0  0
  -25.3690  -31.3775   26.1366 C   0  0  0  0  0  0
  -27.0460  -30.2916   24.6411 C   0  0  0  0  0  0
  -27.6055  -32.4346   25.7505 C   0  0  0  0  0  0
  -27.5570  -37.1769   24.8469 C   0  0  0  0  0  0
  -21.4336  -29.3052   22.3549 N   0  0  0  0  0  0
  -26.4277  -37.3718   23.9411 N   0  0  0  0  0  0
  -24.7473  -30.9971   22.0863 N   0  0  0  0  0  0
  -23.4226  -28.8028   23.3019 O   0  0  0  0  0  0
  -28.2041  -25.8493   20.2584 O   0  0  0  0  0  0
  -26.5704  -34.8892   22.4620 O   0  0  0  0  0  0
  -23.5676  -32.1221   23.6854 O   0  0  0  0  0  0
  -29.3070  -22.1046   21.2670 C   0  0  0  0  0  0
  -29.7153  -20.6812   21.3575 C   0  0  0  0  0  0
  -28.5545  -22.7077   20.1815 C   0  0  0  0  0  0
  -29.4160  -19.6268   20.4025 C   0  0  0  0  0  0
  -28.2958  -21.5790   19.2738 C   0  0  0  0  0  0
  -27.4490  -21.8321   18.0409 C   0  0  0  0  0  0
  -27.8063  -24.2827   20.0447 C   0  0  0  0  0  0
  -30.1685  -18.0590   20.3336 C   0  0  0  0  0  0
  -28.7048  -20.2140   19.3630 N   0  0  0  0  0  0
  -29.7375  -16.4745   20.4668 N   0  0  0  0  0  0
  -31.4578  -12.9598   19.1871 H   0  0  0  0  0  0
  -30.4894  -11.8554   20.1142 H   0  0  0  0  0  0
  -29.8965  -11.7405   17.6681 H   0  0  0  0  0  0
  -29.5665  -13.4557   17.6500 H   0  0  0  0  0  0
  -28.0230  -11.2737   19.0752 H   0  0  0  0  0  0
  -27.4047  -12.3517   17.8504 H   0  0  0  0  0  0
  -27.5344  -14.2434   19.3349 H   0  0  0  0  0  0
  -28.8037  -12.4817   21.4857 H   0  0  0  0  0  0
  -28.3008  -14.1449   21.6983 H   0  0  0  0  0  0
  -25.2785   -9.5672   22.4771 H   0  0  0  0  0  0
  -24.0008   -7.4628   22.7482 H   0  0  0  0  0  0
  -21.0861   -8.8782   19.8953 H   0  0  0  0  0  0
  -22.3731  -10.9674   19.6166 H   0  0  0  0  0  0
  -21.2008   -7.6151   23.9723 H   0  0  0  0  0  0
  -21.1481   -6.0521   25.9079 H   0  0  0  0  0  0
  -22.0599   -2.7615   23.2831 H   0  0  0  0  0  0
  -22.4027  -11.9820   22.4828 H   0  0  0  0  0  0
  -21.1031  -13.1188   22.2682 H   0  0  0  0  0  0
  -24.6313  -15.8478   20.5310 H   0  0  0  0  0  0
  -26.2434  -15.6405   20.0723 H   0  0  0  0  0  0
  -26.7364  -32.5154   23.0913 H   0  0  0  0  0  0
  -25.0072  -33.9507   25.0218 H   0  0  0  0  0  0
  -22.7849  -31.2730   21.3555 H   0  0  0  0  0  0
  -23.3765  -35.9532   23.3280 H   0  0  0  0  0  0
  -24.3577  -36.8884   22.2075 H   0  0  0  0  0  0
  -23.7219  -37.6388   23.6714 H   0  0  0  0  0  0
  -26.2199  -31.3877   20.6215 H   0  0  0  0  0  0
  -26.9055  -30.7013   22.0526 H   0  0  0  0  0  0
  -28.1469  -28.6250   21.2771 H   0  0  0  0  0  0
  -25.8596  -25.7665   18.9950 H   0  0  0  0  0  0
  -23.9968  -27.2839   18.9541 H   0  0  0  0  0  0
  -23.8655  -30.5334   19.3911 H   0  0  0  0  0  0
  -22.8222  -29.2172   19.8291 H   0  0  0  0  0  0
  -25.1324  -36.1794   25.0796 H   0  0  0  0  0  0
  -21.0035  -28.3349   24.1316 H   0  0  0  0  0  0
  -20.5698  -26.2371   23.3640 H   0  0  0  0  0  0
  -21.6663  -26.7428   22.1197 H   0  0  0  0  0  0
  -19.6934  -25.6286   21.1264 H   0  0  0  0  0  0
  -19.6702  -27.3179   20.6733 H   0  0  0  0  0  0
  -17.4228  -26.6698   21.4020 H   0  0  0  0  0  0
  -18.0340  -26.0106   22.9028 H   0  0  0  0  0  0
  -19.7972  -30.7322   24.2203 H   0  0  0  0  0  0
  -17.5042  -31.6275   24.5175 H   0  0  0  0  0  0
  -15.5379  -30.2980   23.7697 H   0  0  0  0  0  0
  -15.8699  -28.0814   22.7100 H   0  0  0  0  0  0
  -24.5890  -30.7105   25.7679 H   0  0  0  0  0  0
  -24.8860  -32.2971   26.4681 H   0  0  0  0  0  0
  -25.7934  -30.9019   27.0215 H   0  0  0  0  0  0
  -26.3125  -29.6596   24.1395 H   0  0  0  0  0  0
  -27.3994  -29.7275   25.5052 H   0  0  0  0  0  0
  -27.9058  -30.4128   23.9820 H   0  0  0  0  0  0
  -27.2630  -33.3700   26.1946 H   0  0  0  0  0  0
  -28.3936  -32.6821   25.0378 H   0  0  0  0  0  0
  -28.0639  -31.8555   26.5533 H   0  0  0  0  0  0
  -28.2573  -38.0081   24.7527 H   0  0  0  0  0  0
  -28.1077  -36.2609   24.6277 H   0  0  0  0  0  0
  -27.2290  -37.1390   25.8873 H   0  0  0  0  0  0
  -20.9588  -29.8749   21.6684 H   0  0  0  0  0  0
  -26.0125  -38.2777   24.1423 H   0  0  0  0  0  0
  -29.5856  -22.7505   22.0877 H   0  0  0  0  0  0
  -30.3228  -20.4046   22.2088 H   0  0  0  0  0  0
  -26.4705  -22.2226   18.3206 H   0  0  0  0  0  0
  -27.2853  -20.9189   17.4673 H   0  0  0  0  0  0
  -27.9374  -22.5518   17.3843 H   0  0  0  0  0  0
  -26.8977  -24.1668   20.6363 H   0  0  0  0  0  0
  -27.4619  -24.2866   19.0137 H   0  0  0  0  0  0
  -30.9739  -18.1456   21.0635 H   0  0  0  0  0  0
  -30.6945  -18.0877   19.3790 H   0  0  0  0  0  0
  -28.7446  -16.3511   20.5949 H   0  0  0  0  0  0
  1 25  1  0  0  0
  1 30  2  0  0  0
  1 80  1  0  0  0
  2  3  1  0  0  0
  2 25  1  0  0  0
  2 81  1  0  0  0
  2 82  1  0  0  0
  3  4  1  0  0  0
  3 83  1  0  0  0
  3 84  1  0  0  0
  4  5  1  0  0  0
  4 85  1  0  0  0
  4 86  1  0  0  0
  5  6  1  0  0  0
  5 26  1  0  0  0
  5 87  1  0  0  0
  6 25  1  0  0  0
  6 88  1  0  0  0
  6 89  1  0  0  0
  7  8  2  0  0  0
  7 26  1  0  0  0
  7 29  1  0  0  0
  8  9  1  0  0  0
  8 22  1  0  0  0
  9 10  1  0  0  0
  9 27  2  0  0  0
 10 11  2  0  0  0
 10 15  1  0  0  0
 11 12  1  0  0  0
 11 90  1  0  0  0
 12 13  2  0  0  0
 12 91  1  0  0  0
 13 14  1  0  0  0
 13 31  1  0  0  0
 14 15  2  0  0  0
 14 92  1  0  0  0
 15 93  1  0  0  0
 16 17  2  0  0  0
 16 21  1  0  0  0
 16 31  1  0  0  0
 17 18  1  0  0  0
 17 94  1  0  0  0
 18 19  2  0  0  0
 18 95  1  0  0  0
 19 20  1  0  0  0
 19 24  1  0  0  0
 20 21  2  0  0  0
 20 96  1  0  0  0
 21 23  1  0  0  0
 22 28  1  0  0  0
 22 32  2  0  0  0
 26 27  1  0  0  0
 28 97  1  0  0  0
 28 98  1  0  0  0
 29 99  1  0  0  0
 29100  1  0  0  0
 33 34  1  0  0  0
 33 66  1  0  0  0
 33 70  2  0  0  0
 34 36  1  0  0  0
 34 59  1  0  0  0
 34101  1  0  0  0
 35 44  2  0  0  0
 35 45  1  0  0  0
 35 68  1  0  0  0
 36 56  1  0  0  0
 36102  1  0  0  0
 37 39  1  0  0  0
 37 47  1  0  0  0
 37 66  1  0  0  0
 37103  1  0  0  0
 38 43  2  0  0  0
 38 46  1  0  0  0
 38 47  1  0  0  0
 39 64  1  0  0  0
 39 67  2  0  0  0
 40 52  1  0  0  0
 40 53  2  0  0  0
 40 58  1  0  0  0
 41104  1  0  0  0
 41105  1  0  0  0
 41106  1  0  0  0
 41 48  1  0  0  0
 42 43  1  0  0  0
 42 66  1  0  0  0
 42107  1  0  0  0
 42108  1  0  0  0
 43 44  1  0  0  0
 44109  1  0  0  0
 45 46  2  0  0  0
 45110  1  0  0  0
 46111  1  0  0  0
 47112  1  0  0  0
 47113  1  0  0  0
 48 56  1  0  0  0
 48 65  1  0  0  0
 48114  1  0  0  0
 49 50  1  0  0  0
 49 53  1  0  0  0
 49 64  1  0  0  0
 49115  1  0  0  0
 50 51  1  0  0  0
 50116  1  0  0  0
 50117  1  0  0  0
 51 52  1  0  0  0
 51118  1  0  0  0
 51119  1  0  0  0
 52120  1  0  0  0
 52121  1  0  0  0
 53 54  1  0  0  0
 54 55  2  0  0  0
 54122  1  0  0  0
 55 57  1  0  0  0
 55123  1  0  0  0
 56 69  2  0  0  0
 57 58  2  0  0  0
 57124  1  0  0  0
 58125  1  0  0  0
 59 60  1  0  0  0
 59 61  1  0  0  0
 59 62  1  0  0  0
 60126  1  0  0  0
 60127  1  0  0  0
 60128  1  0  0  0
 61129  1  0  0  0
 61130  1  0  0  0
 61131  1  0  0  0
 62132  1  0  0  0
 62133  1  0  0  0
 62134  1  0  0  0
 63 65  1  0  0  0
 63135  1  0  0  0
 63136  1  0  0  0
 63137  1  0  0  0
 64138  1  0  0  0
 65139  1  0  0  0
 68 77  1  0  0  0
 71 72  2  0  0  0
 71 73  1  0  0  0
 71140  1  0  0  0
 72 74  1  0  0  0
 72141  1  0  0  0
 73 75  2  0  0  0
 73 77  1  0  0  0
 74 78  1  0  0  0
 74 79  2  0  0  0
 75 76  1  0  0  0
 75 79  1  0  0  0
 76142  1  0  0  0
 76143  1  0  0  0
 76144  1  0  0  0
 77145  1  0  0  0
 77146  1  0  0  0
 78 80  1  0  0  0
 78147  1  0  0  0
 78148  1  0  0  0
 80149  1  0  0  0
M  ISO  4   1 100  68 101  77 101  80 100
M  END
> <chiral flag>
0

> <version>
0

> <s_m_source_file>
/data/baiqing/PycharmProjects/Reinvent-master-3.2/result/LINK_invent/BTK/process_docking_weight1_custom_sum_contain_oxygen_bond_distance_aromatic_linkinvent_7_9_3/rearranged_h_0181.sdf

> <i_m_source_file_index>
19

> <r_mmod_Potential_Energy-OPLS-2005>
842.110778808594

> <r_mmod_Stretch_Energy-OPLS-2005>
464.574462890625

> <r_mmod_Bend_Energy-OPLS-2005>
427.154541015625

> <r_mmod_Torsional_Energy-OPLS-2005>
220.413452148438

> <r_mmod_Improper_Torsional_Energy-OPLS-2005>
8.39016819000244

> <r_mmod_Van_der_Waal_Energy-OPLS-2005>
136.458740234375

> <r_mmod_Electrostatic_Energy-OPLS-2005>
-589.089965820312

> <r_mmod_Solvation_Energy-OPLS-2005>
-230.841384887695

> <b_mmod_Minimization_Converged-OPLS-2005>
0

> <r_mmod_RMS_Derivative-OPLS-2005>
1.11412215232849

$$$$
19
                    3D
 Structure written by MMmdl.
154163  0  0  1  0            999 V2000
  -30.5269  -15.0823   20.4477 C   0  0  0  0  0  0
  -30.4536  -12.6826   19.5399 C   0  0  0  0  0  0
  -29.5597  -12.5897   18.2849 C   0  0  0  0  0  0
  -28.0895  -12.3479   18.6874 C   0  0  0  0  0  0
  -27.6416  -13.2759   19.8506 C   0  0  2  0  0  0
  -28.6765  -13.3238   20.9972 C   0  0  0  0  0  0
  -25.2509  -13.8344   20.5805 C   0  0  0  0  0  0
  -24.1805  -13.0523   20.9250 C   0  0  0  0  0  0
  -24.6441  -11.7013   20.8716 C   0  0  0  0  0  0
  -23.9112  -10.4372   21.0413 C   0  0  0  0  0  0
  -24.3652   -9.4265   21.9174 C   0  0  0  0  0  0
  -23.6313   -8.2327   22.0771 C   0  0  0  0  0  0
  -22.4276   -8.0369   21.3578 C   0  0  0  0  0  0
  -21.9924   -9.0361   20.4667 C   0  0  0  0  0  0
  -22.7305  -10.2211   20.3041 C   0  0  0  0  0  0
  -21.6841   -6.0775   22.5295 C   0  0  0  0  0  0
  -21.4055   -6.5636   23.8249 C   0  0  0  0  0  0
  -21.3657   -5.6760   24.9194 C   0  0  0  0  0  0
  -21.6009   -4.3022   24.7222 C   0  0  0  0  0  0
  -21.8844   -3.8157   23.4335 C   0  0  0  0  0  0
  -21.9210   -4.6998   22.3407 C   0  0  0  0  0  0
  -22.7800  -13.5312   21.1812 C   0  0  0  0  0  0
  -22.1661   -4.2187   21.0981 F   0  0  0  0  0  0
  -21.5579   -3.4492   25.7724 F   0  0  0  0  0  0
  -29.9331  -13.7964   20.4058 N   0  0  0  0  0  0
  -26.2933  -12.9610   20.3268 N   0  0  0  0  0  0
  -25.9390  -11.6687   20.5672 N   0  0  0  0  0  0
  -22.0289  -12.8407   22.0300 N   0  0  0  0  0  0
  -25.4227  -15.2102   20.4372 N   0  0  0  0  0  0
  -31.6949  -15.1185   20.0476 O   0  0  0  0  0  0
  -21.6654   -6.8948   21.4274 O   0  0  0  0  0  0
  -22.3542  -14.5602   20.6585 O   0  0  0  0  0  0
  -24.6501  -31.8274   23.1723 C   0  0  0  0  0  0
  -25.9166  -32.4616   23.8158 C   0  0  1  0  0  0
  -27.1987  -26.9953   20.1998 C   0  0  0  0  0  0
  -25.5801  -33.8418   24.2054 N   0  0  0  0  0  0
  -23.4604  -30.4405   21.5227 C   0  0  2  0  0  0
  -24.9092  -28.8398   20.1007 C   0  0  0  0  0  0
  -22.7584  -29.4472   22.4828 C   0  0  0  0  0  0
  -18.0279  -28.1404   22.8492 C   0  0  0  0  0  0
  -24.1478  -36.7188   23.2670 C   0  0  0  0  0  0
  -26.0221  -30.6574   21.3945 C   0  0  0  0  0  0
  -26.0859  -29.2577   20.7386 C   0  0  0  0  0  0
  -27.2266  -28.3487   20.7662 C   0  0  0  0  0  0
  -26.0139  -26.7170   19.4889 C   0  0  0  0  0  0
  -24.8978  -27.5891   19.4582 C   0  0  0  0  0  0
  -23.6895  -29.7476   20.1498 C   0  0  0  0  0  0
  -25.4110  -36.2963   24.0340 C   0  0  1  0  0  0
  -20.5902  -28.3725   23.1242 C   0  0  2  0  0  0
  -20.6718  -26.9403   22.5440 C   0  0  0  0  0  0
  -19.5692  -26.6380   21.5232 C   0  0  0  0  0  0
  -18.1894  -26.7942   22.1652 C   0  0  0  0  0  0
  -19.1534  -28.8889   23.2863 C   0  0  0  0  0  0
  -18.9466  -30.1487   23.8901 C   0  0  0  0  0  0
  -17.6463  -30.6617   24.0571 C   0  0  0  0  0  0
  -25.9045  -34.9346   23.5032 C   0  0  0  0  0  0
  -16.5360  -29.9120   23.6330 C   0  0  0  0  0  0
  -16.7281  -28.6529   23.0389 C   0  0  0  0  0  0
  -26.4420  -31.6576   25.0694 C   0  0  0  0  0  0
  -25.3549  -31.3787   26.1372 C   0  0  0  0  0  0
  -27.0308  -30.2948   24.6426 C   0  0  0  0  0  0
  -27.5964  -32.4381   25.7432 C   0  0  0  0  0  0
  -27.5556  -37.1704   24.8458 C   0  0  0  0  0  0
  -21.4249  -29.3053   22.3600 N   0  0  0  0  0  0
  -26.4244  -37.3696   23.9433 N   0  0  0  0  0  0
  -24.7329  -31.0001   22.0844 N   0  0  0  0  0  0
  -23.4155  -28.8053   23.3049 O   0  0  0  0  0  0
  -28.1993  -25.9389   20.4178 O   0  0  0  0  0  0
  -26.5786  -34.8907   22.4717 O   0  0  0  0  0  0
  -23.5591  -32.1232   23.6869 O   0  0  0  0  0  0
  -28.0864  -22.6060   22.0676 C   0  0  0  0  0  0
  -28.3180  -21.2461   22.2501 C   0  0  0  0  0  0
  -28.3625  -22.9363   20.6974 C   0  0  0  0  0  0
  -29.3990  -18.2845   22.2699 C   0  0  0  0  0  0
  -29.5025  -16.7145   22.1129 C   0  0  0  0  0  0
  -29.8049  -17.8065   20.1058 C   0  0  0  0  0  0
  -28.8830  -18.9265   20.9655 C   0  0  2  0  0  0
  -29.6816  -24.5059   19.2300 C   0  0  0  0  0  0
  -28.2908  -24.4269   19.8712 C   0  0  2  0  0  0
  -28.6861  -21.6571   20.1341 N   0  0  0  0  0  0
  -28.7621  -20.5734   21.0877 N   0  0  0  0  0  0
  -29.8040  -16.3285   20.7192 N   0  0  0  0  0  0
  -31.4959  -12.8350   19.2523 H   0  0  0  0  0  0
  -30.4522  -11.7340   20.0771 H   0  0  0  0  0  0
  -29.9170  -11.8015   17.6218 H   0  0  0  0  0  0
  -29.6481  -13.5262   17.7243 H   0  0  0  0  0  0
  -27.9891  -11.3042   18.9875 H   0  0  0  0  0  0
  -27.4426  -12.4824   17.8193 H   0  0  0  0  0  0
  -27.6065  -14.2808   19.4237 H   0  0  0  0  0  0
  -28.7841  -12.3453   21.4719 H   0  0  0  0  0  0
  -28.3553  -14.0048   21.7880 H   0  0  0  0  0  0
  -25.2809   -9.5741   22.4729 H   0  0  0  0  0  0
  -24.0025   -7.4719   22.7471 H   0  0  0  0  0  0
  -21.0842   -8.8933   19.8962 H   0  0  0  0  0  0
  -22.3806  -10.9766   19.6122 H   0  0  0  0  0  0
  -21.2071   -7.6142   23.9802 H   0  0  0  0  0  0
  -21.1394   -6.0436   25.9096 H   0  0  0  0  0  0
  -22.0597   -2.7615   23.2801 H   0  0  0  0  0  0
  -22.3787  -12.0250   22.5089 H   0  0  0  0  0  0
  -21.0873  -13.1584   22.2153 H   0  0  0  0  0  0
  -24.6862  -15.8816   20.6386 H   0  0  0  0  0  0
  -26.2791  -15.6485   20.1194 H   0  0  0  0  0  0
  -26.7252  -32.5192   23.0887 H   0  0  0  0  0  0
  -24.9508  -33.9432   24.9901 H   0  0  0  0  0  0
  -22.7687  -31.2726   21.3547 H   0  0  0  0  0  0
  -23.3738  -35.9505   23.3318 H   0  0  0  0  0  0
  -24.3555  -36.8847   22.2079 H   0  0  0  0  0  0
  -23.7248  -37.6378   23.6758 H   0  0  0  0  0  0
  -26.1928  -31.4014   20.6168 H   0  0  0  0  0  0
  -26.8854  -30.7053   22.0481 H   0  0  0  0  0  0
  -28.1104  -28.6419   21.3132 H   0  0  0  0  0  0
  -25.8958  -25.7515   19.0120 H   0  0  0  0  0  0
  -23.9974  -27.2614   18.9549 H   0  0  0  0  0  0
  -23.8081  -30.5034   19.3732 H   0  0  0  0  0  0
  -22.8051  -29.1770   19.8636 H   0  0  0  0  0  0
  -25.1307  -36.1712   25.0831 H   0  0  0  0  0  0
  -21.0003  -28.3330   24.1363 H   0  0  0  0  0  0
  -20.5502  -26.2360   23.3684 H   0  0  0  0  0  0
  -21.6614  -26.7316   22.1331 H   0  0  0  0  0  0
  -19.6815  -25.6274   21.1302 H   0  0  0  0  0  0
  -19.6627  -27.3171   20.6751 H   0  0  0  0  0  0
  -17.4132  -26.6693   21.4098 H   0  0  0  0  0  0
  -18.0300  -26.0116   22.9077 H   0  0  0  0  0  0
  -19.7941  -30.7303   24.2293 H   0  0  0  0  0  0
  -17.5022  -31.6305   24.5153 H   0  0  0  0  0  0
  -15.5368  -30.3058   23.7623 H   0  0  0  0  0  0
  -15.8668  -28.0858   22.7156 H   0  0  0  0  0  0
  -24.5651  -30.7278   25.7585 H   0  0  0  0  0  0
  -24.8818  -32.2987   26.4828 H   0  0  0  0  0  0
  -25.7742  -30.8811   27.0130 H   0  0  0  0  0  0
  -26.2961  -29.6646   24.1406 H   0  0  0  0  0  0
  -27.3774  -29.7322   25.5098 H   0  0  0  0  0  0
  -27.8929  -30.4136   23.9873 H   0  0  0  0  0  0
  -27.2539  -33.3662   26.2027 H   0  0  0  0  0  0
  -28.3690  -32.6994   25.0187 H   0  0  0  0  0  0
  -28.0739  -31.8506   26.5285 H   0  0  0  0  0  0
  -28.2558  -38.0003   24.7519 H   0  0  0  0  0  0
  -28.1054  -36.2542   24.6249 H   0  0  0  0  0  0
  -27.2278  -37.1327   25.8853 H   0  0  0  0  0  0
  -20.9465  -29.8743   21.6756 H   0  0  0  0  0  0
  -26.0081  -38.2732   24.1486 H   0  0  0  0  0  0
  -27.7397  -23.2599   22.8645 H   0  0  0  0  0  0
  -28.1406  -20.7113   23.1820 H   0  0  0  0  0  0
  -30.4022  -18.6884   22.4173 H   0  0  0  0  0  0
  -28.8391  -18.5615   23.1633 H   0  0  0  0  0  0
  -28.5651  -16.2489   22.4202 H   0  0  0  0  0  0
  -30.2865  -16.3477   22.7831 H   0  0  0  0  0  0
  -30.8411  -18.1508   20.0630 H   0  0  0  0  0  0
  -29.4758  -17.7624   19.0672 H   0  0  0  0  0  0
  -27.8544  -18.5937   20.8202 H   0  0  0  0  0  0
  -29.8726  -25.4533   18.7299 H   0  0  0  0  0  0
  -29.8357  -23.7005   18.5103 H   0  0  0  0  0  0
  -30.4382  -24.3891   20.0052 H   0  0  0  0  0  0
  -27.5729  -24.3160   19.0579 H   0  0  0  0  0  0
  1 25  1  0  0  0
  1 30  2  0  0  0
  1 82  1  0  0  0
  2  3  1  0  0  0
  2 25  1  0  0  0
  2 83  1  0  0  0
  2 84  1  0  0  0
  3  4  1  0  0  0
  3 85  1  0  0  0
  3 86  1  0  0  0
  4  5  1  0  0  0
  4 87  1  0  0  0
  4 88  1  0  0  0
  5  6  1  0  0  0
  5 26  1  0  0  0
  5 89  1  0  0  0
  6 25  1  0  0  0
  6 90  1  0  0  0
  6 91  1  0  0  0
  7  8  2  0  0  0
  7 26  1  0  0  0
  7 29  1  0  0  0
  8  9  1  0  0  0
  8 22  1  0  0  0
  9 10  1  0  0  0
  9 27  2  0  0  0
 10 11  2  0  0  0
 10 15  1  0  0  0
 11 12  1  0  0  0
 11 92  1  0  0  0
 12 13  2  0  0  0
 12 93  1  0  0  0
 13 14  1  0  0  0
 13 31  1  0  0  0
 14 15  2  0  0  0
 14 94  1  0  0  0
 15 95  1  0  0  0
 16 17  2  0  0  0
 16 21  1  0  0  0
 16 31  1  0  0  0
 17 18  1  0  0  0
 17 96  1  0  0  0
 18 19  2  0  0  0
 18 97  1  0  0  0
 19 20  1  0  0  0
 19 24  1  0  0  0
 20 21  2  0  0  0
 20 98  1  0  0  0
 21 23  1  0  0  0
 22 28  1  0  0  0
 22 32  2  0  0  0
 26 27  1  0  0  0
 28 99  1  0  0  0
 28100  1  0  0  0
 29101  1  0  0  0
 29102  1  0  0  0
 33 34  1  0  0  0
 33 66  1  0  0  0
 33 70  2  0  0  0
 34 36  1  0  0  0
 34 59  1  0  0  0
 34103  1  0  0  0
 35 44  2  0  0  0
 35 45  1  0  0  0
 35 68  1  0  0  0
 36 56  1  0  0  0
 36104  1  0  0  0
 37 39  1  0  0  0
 37 47  1  0  0  0
 37 66  1  0  0  0
 37105  1  0  0  0
 38 43  2  0  0  0
 38 46  1  0  0  0
 38 47  1  0  0  0
 39 64  1  0  0  0
 39 67  2  0  0  0
 40 52  1  0  0  0
 40 53  2  0  0  0
 40 58  1  0  0  0
 41106  1  0  0  0
 41107  1  0  0  0
 41108  1  0  0  0
 41 48  1  0  0  0
 42 43  1  0  0  0
 42 66  1  0  0  0
 42109  1  0  0  0
 42110  1  0  0  0
 43 44  1  0  0  0
 44111  1  0  0  0
 45 46  2  0  0  0
 45112  1  0  0  0
 46113  1  0  0  0
 47114  1  0  0  0
 47115  1  0  0  0
 48 56  1  0  0  0
 48 65  1  0  0  0
 48116  1  0  0  0
 49 50  1  0  0  0
 49 53  1  0  0  0
 49 64  1  0  0  0
 49117  1  0  0  0
 50 51  1  0  0  0
 50118  1  0  0  0
 50119  1  0  0  0
 51 52  1  0  0  0
 51120  1  0  0  0
 51121  1  0  0  0
 52122  1  0  0  0
 52123  1  0  0  0
 53 54  1  0  0  0
 54 55  2  0  0  0
 54124  1  0  0  0
 55 57  1  0  0  0
 55125  1  0  0  0
 56 69  2  0  0  0
 57 58  2  0  0  0
 57126  1  0  0  0
 58127  1  0  0  0
 59 60  1  0  0  0
 59 61  1  0  0  0
 59 62  1  0  0  0
 60128  1  0  0  0
 60129  1  0  0  0
 60130  1  0  0  0
 61131  1  0  0  0
 61132  1  0  0  0
 61133  1  0  0  0
 62134  1  0  0  0
 62135  1  0  0  0
 62136  1  0  0  0
 63 65  1  0  0  0
 63137  1  0  0  0
 63138  1  0  0  0
 63139  1  0  0  0
 64140  1  0  0  0
 65141  1  0  0  0
 68 79  1  0  0  0
 71 72  2  0  0  0
 71 73  1  0  0  0
 71142  1  0  0  0
 72 81  1  0  0  0
 72143  1  0  0  0
 73 79  1  0  0  0
 73 80  2  0  0  0
 74 75  1  0  0  0
 74 77  1  0  0  0
 74144  1  0  0  0
 74145  1  0  0  0
 75 82  1  0  0  0
 75146  1  0  0  0
 75147  1  0  0  0
 76 77  1  0  0  0
 76 82  1  0  0  0
 76148  1  0  0  0
 76149  1  0  0  0
 77 81  1  0  0  0
 77150  1  0  0  0
 78151  1  0  0  0
 78152  1  0  0  0
 78153  1  0  0  0
 78 79  1  0  0  0
 79154  1  0  0  0
 80 81  1  0  0  0
M  ISO  4   1 100  68 101  79 101  82 100
M  END
> <chiral flag>
0

> <version>
0

> <s_m_source_file>
/data/baiqing/PycharmProjects/Reinvent-master-3.2/result/LINK_invent/BTK/process_docking_weight1_custom_sum_contain_oxygen_bond_distance_aromatic_linkinvent_7_9_3/rearranged_h_0181.sdf

> <i_m_source_file_index>
20

> <r_mmod_Potential_Energy-OPLS-2005>
1121.05358886719

> <r_mmod_Stretch_Energy-OPLS-2005>
398.550933837891

> <r_mmod_Bend_Energy-OPLS-2005>
454.174682617188

> <r_mmod_Torsional_Energy-OPLS-2005>
339.238403320312

> <r_mmod_Improper_Torsional_Energy-OPLS-2005>
10.7335510253906

> <r_mmod_Van_der_Waal_Energy-OPLS-2005>
104.93620300293

> <r_mmod_Electrostatic_Energy-OPLS-2005>
-293.725219726562

> <r_mmod_Solvation_Energy-OPLS-2005>
-215.790969848633

> <b_mmod_Minimization_Converged-OPLS-2005>
0

> <r_mmod_RMS_Derivative-OPLS-2005>
12.4201402664185

$$$$
20
                    3D
 Structure written by MMmdl.
163172  0  0  1  0            999 V2000
  -30.3919  -15.3783   20.3745 C   0  0  0  0  0  0
  -30.4412  -12.9018   19.5049 C   0  0  0  0  0  0
  -29.5392  -12.6006   18.2805 C   0  0  0  0  0  0
  -28.0949  -12.2983   18.7182 C   0  0  0  0  0  0
  -27.6046  -13.2821   19.8081 C   0  0  2  0  0  0
  -28.6402  -13.5056   20.9296 C   0  0  0  0  0  0
  -25.2372  -13.8238   20.5756 C   0  0  0  0  0  0
  -24.1738  -13.0429   20.9270 C   0  0  0  0  0  0
  -24.6404  -11.6924   20.8756 C   0  0  0  0  0  0
  -23.9094  -10.4285   21.0401 C   0  0  0  0  0  0
  -24.3633   -9.4189   21.9170 C   0  0  0  0  0  0
  -23.6304   -8.2226   22.0735 C   0  0  0  0  0  0
  -22.4285   -8.0266   21.3526 C   0  0  0  0  0  0
  -21.9924   -9.0240   20.4631 C   0  0  0  0  0  0
  -22.7264  -10.2115   20.3047 C   0  0  0  0  0  0
  -21.6858   -6.0733   22.5272 C   0  0  0  0  0  0
  -21.4019   -6.5634   23.8206 C   0  0  0  0  0  0
  -21.3665   -5.6788   24.9170 C   0  0  0  0  0  0
  -21.6043   -4.3049   24.7221 C   0  0  0  0  0  0
  -21.8827   -3.8141   23.4343 C   0  0  0  0  0  0
  -21.9192   -4.6962   22.3403 C   0  0  0  0  0  0
  -22.7750  -13.5171   21.1913 C   0  0  0  0  0  0
  -22.1669   -4.2152   21.0984 F   0  0  0  0  0  0
  -21.5627   -3.4534   25.7735 F   0  0  0  0  0  0
  -29.8447  -14.0568   20.2789 N   0  0  0  0  0  0
  -26.2803  -12.9527   20.3173 N   0  0  0  0  0  0
  -25.9341  -11.6622   20.5667 N   0  0  0  0  0  0
  -22.0422  -12.8153   22.0465 N   0  0  0  0  0  0
  -25.3968  -15.1987   20.4203 N   0  0  0  0  0  0
  -31.6304  -15.3622   20.2941 O   0  0  0  0  0  0
  -21.6641   -6.8873   21.4231 O   0  0  0  0  0  0
  -22.3420  -14.5465   20.6738 O   0  0  0  0  0  0
  -24.6706  -31.8172   23.1645 C   0  0  0  0  0  0
  -25.9355  -32.4554   23.8140 C   0  0  1  0  0  0
  -27.2230  -26.8624   20.2082 C   0  0  0  0  0  0
  -25.5992  -33.8370   24.2048 N   0  0  0  0  0  0
  -23.4894  -30.4271   21.5143 C   0  0  2  0  0  0
  -24.9429  -28.7976   20.1187 C   0  0  0  0  0  0
  -22.7713  -29.4426   22.4752 C   0  0  0  0  0  0
  -18.0340  -28.1405   22.8477 C   0  0  0  0  0  0
  -24.1490  -36.7193   23.2653 C   0  0  0  0  0  0
  -26.0612  -30.6035   21.4043 C   0  0  0  0  0  0
  -26.1292  -29.1842   20.7555 C   0  0  0  0  0  0
  -27.2634  -28.2421   20.7699 C   0  0  0  0  0  0
  -26.0059  -26.6446   19.5202 C   0  0  0  0  0  0
  -24.9108  -27.5483   19.4773 C   0  0  0  0  0  0
  -23.7352  -29.7366   20.1442 C   0  0  0  0  0  0
  -25.4132  -36.2951   24.0303 C   0  0  1  0  0  0
  -20.5967  -28.3764   23.1164 C   0  0  2  0  0  0
  -20.6811  -26.9437   22.5399 C   0  0  0  0  0  0
  -19.5775  -26.6373   21.5217 C   0  0  0  0  0  0
  -18.1964  -26.7947   22.1628 C   0  0  0  0  0  0
  -19.1602  -28.8908   23.2812 C   0  0  0  0  0  0
  -18.9513  -30.1501   23.8840 C   0  0  0  0  0  0
  -17.6502  -30.6597   24.0557 C   0  0  0  0  0  0
  -25.9107  -34.9337   23.5000 C   0  0  0  0  0  0
  -16.5395  -29.9078   23.6334 C   0  0  0  0  0  0
  -16.7324  -28.6498   23.0362 C   0  0  0  0  0  0
  -26.4573  -31.6520   25.0697 C   0  0  0  0  0  0
  -25.3684  -31.3798   26.1348 C   0  0  0  0  0  0
  -27.0482  -30.2876   24.6481 C   0  0  0  0  0  0
  -27.6055  -32.4344   25.7503 C   0  0  0  0  0  0
  -27.5568  -37.1757   24.8466 C   0  0  0  0  0  0
  -21.4374  -29.3053   22.3501 N   0  0  0  0  0  0
  -26.4268  -37.3696   23.9422 N   0  0  0  0  0  0
  -24.7621  -30.9793   22.0801 N   0  0  0  0  0  0
  -23.4229  -28.8018   23.3037 O   0  0  0  0  0  0
  -28.2187  -25.7266   20.2479 O   0  0  0  0  0  0
  -26.5715  -34.8885   22.4600 O   0  0  0  0  0  0
  -23.5761  -32.1147   23.6709 O   0  0  0  0  0  0
  -29.9061  -22.6565   19.1279 C   0  0  0  0  0  0
  -28.8695  -22.5859   20.0889 C   0  0  0  0  0  0
  -29.4858  -19.9550   20.1535 C   0  0  0  0  0  0
  -30.4734  -20.3138   19.1925 C   0  0  0  0  0  0
  -33.3699  -20.0069   17.4992 C   0  0  0  0  0  0
  -31.9386  -19.4535   17.4066 C   0  0  0  0  0  0
  -32.5777  -19.2685   19.6549 C   0  0  0  0  0  0
  -33.6822  -20.1077   19.0001 C   0  0  2  0  0  0
  -30.2332  -23.9699   18.4400 C   0  0  0  0  0  0
  -29.5827  -18.3019   20.8288 C   0  0  0  0  0  0
  -27.9242  -24.0735   20.3805 C   0  0  0  0  0  0
  -28.7114  -21.1720   20.5756 N   0  0  0  0  0  0
  -30.6661  -21.5900   18.7325 N   0  0  0  0  0  0
  -31.4207  -19.3616   18.7719 N   0  0  0  0  0  0
  -29.6004  -16.6589   20.3500 N   0  0  0  0  0  0
  -33.6466  -21.5010   19.4747 N   0  3  0  0  0  0
  -31.4464  -13.1415   19.1547 H   0  0  0  0  0  0
  -30.5506  -12.0188   20.1374 H   0  0  0  0  0  0
  -29.9443  -11.7694   17.7024 H   0  0  0  0  0  0
  -29.5406  -13.4644   17.6152 H   0  0  0  0  0  0
  -28.0747  -11.2801   19.1075 H   0  0  0  0  0  0
  -27.4237  -12.3117   17.8593 H   0  0  0  0  0  0
  -27.4980  -14.2355   19.2876 H   0  0  0  0  0  0
  -28.8473  -12.5883   21.4829 H   0  0  0  0  0  0
  -28.2573  -14.2257   21.6545 H   0  0  0  0  0  0
  -25.2788   -9.5667   22.4726 H   0  0  0  0  0  0
  -24.0024   -7.4622   22.7452 H   0  0  0  0  0  0
  -21.0851   -8.8755   19.8940 H   0  0  0  0  0  0
  -22.3723  -10.9639   19.6145 H   0  0  0  0  0  0
  -21.2012   -7.6138   23.9716 H   0  0  0  0  0  0
  -21.1484   -6.0511   25.9074 H   0  0  0  0  0  0
  -22.0600   -2.7601   23.2840 H   0  0  0  0  0  0
  -22.4100  -11.9855   22.4880 H   0  0  0  0  0  0
  -21.1008  -13.1086   22.2651 H   0  0  0  0  0  0
  -24.6196  -15.8409   20.5348 H   0  0  0  0  0  0
  -26.2293  -15.6435   20.0591 H   0  0  0  0  0  0
  -26.7454  -32.5068   23.0881 H   0  0  0  0  0  0
  -25.0100  -33.9430   25.0174 H   0  0  0  0  0  0
  -22.8061  -31.2600   21.3370 H   0  0  0  0  0  0
  -23.3760  -35.9511   23.3260 H   0  0  0  0  0  0
  -24.3587  -36.8885   22.2081 H   0  0  0  0  0  0
  -23.7225  -37.6361   23.6735 H   0  0  0  0  0  0
  -26.2503  -31.3375   20.6200 H   0  0  0  0  0  0
  -26.9171  -30.6645   22.0644 H   0  0  0  0  0  0
  -28.1610  -28.5447   21.2904 H   0  0  0  0  0  0
  -25.8702  -25.6988   19.0176 H   0  0  0  0  0  0
  -24.0161  -27.2462   18.9507 H   0  0  0  0  0  0
  -23.9051  -30.5000   19.3832 H   0  0  0  0  0  0
  -22.8420  -29.2003   19.8211 H   0  0  0  0  0  0
  -25.1337  -36.1731   25.0790 H   0  0  0  0  0  0
  -21.0074  -28.3386   24.1277 H   0  0  0  0  0  0
  -20.5672  -26.2405   23.3661 H   0  0  0  0  0  0
  -21.6676  -26.7390   22.1216 H   0  0  0  0  0  0
  -19.6922  -25.6268   21.1286 H   0  0  0  0  0  0
  -19.6694  -27.3145   20.6715 H   0  0  0  0  0  0
  -17.4235  -26.6703   21.4029 H   0  0  0  0  0  0
  -18.0345  -26.0092   22.9023 H   0  0  0  0  0  0
  -19.7989  -30.7340   24.2173 H   0  0  0  0  0  0
  -17.5048  -31.6261   24.5186 H   0  0  0  0  0  0
  -15.5392  -30.2960   23.7672 H   0  0  0  0  0  0
  -15.8736  -28.0793   22.7089 H   0  0  0  0  0  0
  -24.5881  -30.7130   25.7664 H   0  0  0  0  0  0
  -24.8851  -32.3002   26.4629 H   0  0  0  0  0  0
  -25.7899  -30.9064   27.0223 H   0  0  0  0  0  0
  -26.3167  -29.6530   24.1465 H   0  0  0  0  0  0
  -27.3964  -29.7278   25.5173 H   0  0  0  0  0  0
  -27.9129  -30.4045   23.9947 H   0  0  0  0  0  0
  -27.2622  -33.3702   26.1929 H   0  0  0  0  0  0
  -28.3939  -32.6804   25.0378 H   0  0  0  0  0  0
  -28.0638  -31.8564   26.5539 H   0  0  0  0  0  0
  -28.2561  -38.0077   24.7535 H   0  0  0  0  0  0
  -28.1086  -36.2610   24.6255 H   0  0  0  0  0  0
  -27.2306  -37.1367   25.8873 H   0  0  0  0  0  0
  -20.9635  -29.8755   21.6629 H   0  0  0  0  0  0
  -26.0101  -38.2753   24.1415 H   0  0  0  0  0  0
  -33.4705  -20.9609   16.9803 H   0  0  0  0  0  0
  -34.0626  -19.3134   17.0208 H   0  0  0  0  0  0
  -31.9560  -18.4545   16.9676 H   0  0  0  0  0  0
  -31.3099  -20.0685   16.7586 H   0  0  0  0  0  0
  -32.3661  -19.5821   20.6789 H   0  0  0  0  0  0
  -32.8860  -18.2227   19.7037 H   0  0  0  0  0  0
  -34.6646  -19.6927   19.2304 H   0  0  0  0  0  0
  -29.3471  -24.3774   17.9522 H   0  0  0  0  0  0
  -30.9995  -23.8495   17.6749 H   0  0  0  0  0  0
  -30.5959  -24.7006   19.1627 H   0  0  0  0  0  0
  -30.4542  -18.3646   21.4795 H   0  0  0  0  0  0
  -28.7499  -18.3141   21.5316 H   0  0  0  0  0  0
  -27.5523  -23.9549   21.3993 H   0  0  0  0  0  0
  -27.0429  -23.9193   19.7586 H   0  0  0  0  0  0
  -28.6476  -16.4020   20.1404 H   0  0  0  0  0  0
  -32.7374  -21.8887   19.2774 H   0  0  0  0  0  0
  -34.3474  -22.0485   19.0078 H   0  0  0  0  0  0
  -33.8216  -21.5431   20.4635 H   0  0  0  0  0  0
  1 25  1  0  0  0
  1 30  2  0  0  0
  1 85  1  0  0  0
  2  3  1  0  0  0
  2 25  1  0  0  0
  2 87  1  0  0  0
  2 88  1  0  0  0
  3  4  1  0  0  0
  3 89  1  0  0  0
  3 90  1  0  0  0
  4  5  1  0  0  0
  4 91  1  0  0  0
  4 92  1  0  0  0
  5  6  1  0  0  0
  5 26  1  0  0  0
  5 93  1  0  0  0
  6 25  1  0  0  0
  6 94  1  0  0  0
  6 95  1  0  0  0
  7  8  2  0  0  0
  7 26  1  0  0  0
  7 29  1  0  0  0
  8  9  1  0  0  0
  8 22  1  0  0  0
  9 10  1  0  0  0
  9 27  2  0  0  0
 10 11  2  0  0  0
 10 15  1  0  0  0
 11 12  1  0  0  0
 11 96  1  0  0  0
 12 13  2  0  0  0
 12 97  1  0  0  0
 13 14  1  0  0  0
 13 31  1  0  0  0
 14 15  2  0  0  0
 14 98  1  0  0  0
 15 99  1  0  0  0
 16 17  2  0  0  0
 16 21  1  0  0  0
 16 31  1  0  0  0
 17 18  1  0  0  0
 17100  1  0  0  0
 18 19  2  0  0  0
 18101  1  0  0  0
 19 20  1  0  0  0
 19 24  1  0  0  0
 20 21  2  0  0  0
 20102  1  0  0  0
 21 23  1  0  0  0
 22 28  1  0  0  0
 22 32  2  0  0  0
 26 27  1  0  0  0
 28103  1  0  0  0
 28104  1  0  0  0
 29105  1  0  0  0
 29106  1  0  0  0
 33 34  1  0  0  0
 33 66  1  0  0  0
 33 70  2  0  0  0
 34 36  1  0  0  0
 34 59  1  0  0  0
 34107  1  0  0  0
 35 44  2  0  0  0
 35 45  1  0  0  0
 35 68  1  0  0  0
 36 56  1  0  0  0
 36108  1  0  0  0
 37 39  1  0  0  0
 37 47  1  0  0  0
 37 66  1  0  0  0
 37109  1  0  0  0
 38 43  2  0  0  0
 38 46  1  0  0  0
 38 47  1  0  0  0
 39 64  1  0  0  0
 39 67  2  0  0  0
 40 52  1  0  0  0
 40 53  2  0  0  0
 40 58  1  0  0  0
 41110  1  0  0  0
 41111  1  0  0  0
 41112  1  0  0  0
 41 48  1  0  0  0
 42 43  1  0  0  0
 42 66  1  0  0  0
 42113  1  0  0  0
 42114  1  0  0  0
 43 44  1  0  0  0
 44115  1  0  0  0
 45 46  2  0  0  0
 45116  1  0  0  0
 46117  1  0  0  0
 47118  1  0  0  0
 47119  1  0  0  0
 48 56  1  0  0  0
 48 65  1  0  0  0
 48120  1  0  0  0
 49 50  1  0  0  0
 49 53  1  0  0  0
 49 64  1  0  0  0
 49121  1  0  0  0
 50 51  1  0  0  0
 50122  1  0  0  0
 50123  1  0  0  0
 51 52  1  0  0  0
 51124  1  0  0  0
 51125  1  0  0  0
 52126  1  0  0  0
 52127  1  0  0  0
 53 54  1  0  0  0
 54 55  2  0  0  0
 54128  1  0  0  0
 55 57  1  0  0  0
 55129  1  0  0  0
 56 69  2  0  0  0
 57 58  2  0  0  0
 57130  1  0  0  0
 58131  1  0  0  0
 59 60  1  0  0  0
 59 61  1  0  0  0
 59 62  1  0  0  0
 60132  1  0  0  0
 60133  1  0  0  0
 60134  1  0  0  0
 61135  1  0  0  0
 61136  1  0  0  0
 61137  1  0  0  0
 62138  1  0  0  0
 62139  1  0  0  0
 62140  1  0  0  0
 63 65  1  0  0  0
 63141  1  0  0  0
 63142  1  0  0  0
 63143  1  0  0  0
 64144  1  0  0  0
 65145  1  0  0  0
 68 81  1  0  0  0
 71 72  2  0  0  0
 71 79  1  0  0  0
 71 83  1  0  0  0
 72 81  1  0  0  0
 72 82  1  0  0  0
 73 74  1  0  0  0
 73 80  1  0  0  0
 73 82  2  0  0  0
 74 83  2  0  0  0
 74 84  1  0  0  0
 75 76  1  0  0  0
 75 78  1  0  0  0
 75146  1  0  0  0
 75147  1  0  0  0
 76 84  1  0  0  0
 76148  1  0  0  0
 76149  1  0  0  0
 77 78  1  0  0  0
 77 84  1  0  0  0
 77150  1  0  0  0
 77151  1  0  0  0
 78 86  1  0  0  0
 78152  1  0  0  0
 79153  1  0  0  0
 79154  1  0  0  0
 79155  1  0  0  0
 80 85  1  0  0  0
 80156  1  0  0  0
 80157  1  0  0  0
 81158  1  0  0  0
 81159  1  0  0  0
 85160  1  0  0  0
 86161  1  0  0  0
 86162  1  0  0  0
 86163  1  0  0  0
M  CHG  1  86   1
M  ISO  4   1 100  68 101  81 101  85 100
M  END
> <chiral flag>
0

> <version>
0

> <s_m_source_file>
/data/baiqing/PycharmProjects/Reinvent-master-3.2/result/LINK_invent/BTK/process_docking_weight1_custom_sum_contain_oxygen_bond_distance_aromatic_linkinvent_7_9_3/rearranged_h_0181.sdf

> <i_m_source_file_index>
21

> <r_mmod_Potential_Energy-OPLS-2005>
1443.21179199219

> <r_mmod_Stretch_Energy-OPLS-2005>
709.255493164062

> <r_mmod_Bend_Energy-OPLS-2005>
526.52294921875

> <r_mmod_Torsional_Energy-OPLS-2005>
340.042785644531

> <r_mmod_Improper_Torsional_Energy-OPLS-2005>
13.0956230163574

> <r_mmod_Van_der_Waal_Energy-OPLS-2005>
124.314918518066

> <r_mmod_Electrostatic_Energy-OPLS-2005>
-369.150177001953

> <r_mmod_Solvation_Energy-OPLS-2005>
-480.53173828125

> <b_mmod_Minimization_Converged-OPLS-2005>
0

> <r_mmod_RMS_Derivative-OPLS-2005>
2.23402452468872

$$$$
21
                    3D
 Structure written by MMmdl.
151160  0  0  1  0            999 V2000
  -30.3223  -15.5575   20.3399 C   0  0  0  0  0  0
  -30.4311  -13.0194   19.5498 C   0  0  0  0  0  0
  -29.5521  -12.6374   18.3252 C   0  0  0  0  0  0
  -28.1171  -12.2975   18.7597 C   0  0  0  0  0  0
  -27.6001  -13.2986   19.8189 C   0  0  2  0  0  0
  -28.6175  -13.5931   20.9459 C   0  0  0  0  0  0
  -25.2327  -13.8273   20.5782 C   0  0  0  0  0  0
  -24.1702  -13.0441   20.9266 C   0  0  0  0  0  0
  -24.6391  -11.6951   20.8767 C   0  0  0  0  0  0
  -23.9100  -10.4298   21.0408 C   0  0  0  0  0  0
  -24.3642   -9.4206   21.9181 C   0  0  0  0  0  0
  -23.6295   -8.2254   22.0769 C   0  0  0  0  0  0
  -22.4278   -8.0291   21.3557 C   0  0  0  0  0  0
  -21.9922   -9.0276   20.4670 C   0  0  0  0  0  0
  -22.7271  -10.2138   20.3060 C   0  0  0  0  0  0
  -21.6856   -6.0737   22.5279 C   0  0  0  0  0  0
  -21.4030   -6.5644   23.8212 C   0  0  0  0  0  0
  -21.3660   -5.6795   24.9169 C   0  0  0  0  0  0
  -21.6029   -4.3056   24.7224 C   0  0  0  0  0  0
  -21.8815   -3.8151   23.4348 C   0  0  0  0  0  0
  -21.9195   -4.6964   22.3405 C   0  0  0  0  0  0
  -22.7721  -13.5187   21.1887 C   0  0  0  0  0  0
  -22.1657   -4.2153   21.0984 F   0  0  0  0  0  0
  -21.5618   -3.4538   25.7742 F   0  0  0  0  0  0
  -29.8072  -14.1944   20.3063 N   0  0  0  0  0  0
  -26.2770  -12.9585   20.3227 N   0  0  0  0  0  0
  -25.9328  -11.6669   20.5697 N   0  0  0  0  0  0
  -22.0368  -12.8201   22.0455 N   0  0  0  0  0  0
  -25.3924  -15.2008   20.4223 N   0  0  0  0  0  0
  -31.5461  -15.5208   20.1210 O   0  0  0  0  0  0
  -21.6633   -6.8890   21.4250 O   0  0  0  0  0  0
  -22.3427  -14.5491   20.6712 O   0  0  0  0  0  0
  -24.6792  -31.8052   23.1572 C   0  0  0  0  0  0
  -25.9399  -32.4493   23.8090 C   0  0  1  0  0  0
  -27.2118  -26.7350   20.2147 C   0  0  0  0  0  0
  -25.5994  -33.8316   24.1974 N   0  0  0  0  0  0
  -23.5026  -30.4114   21.5103 C   0  0  2  0  0  0
  -24.9597  -28.7651   20.1160 C   0  0  0  0  0  0
  -22.7743  -29.4352   22.4720 C   0  0  0  0  0  0
  -18.0338  -28.1419   22.8468 C   0  0  0  0  0  0
  -24.1506  -36.7169   23.2653 C   0  0  0  0  0  0
  -26.0814  -30.5487   21.4192 C   0  0  0  0  0  0
  -26.1442  -29.1170   20.7714 C   0  0  0  0  0  0
  -27.2567  -28.1275   20.7933 C   0  0  0  0  0  0
  -26.0094  -26.6048   19.4745 C   0  0  0  0  0  0
  -24.9290  -27.5335   19.4428 C   0  0  0  0  0  0
  -23.7552  -29.7168   20.1418 C   0  0  0  0  0  0
  -25.4153  -36.2905   24.0279 C   0  0  1  0  0  0
  -20.5973  -28.3780   23.1161 C   0  0  2  0  0  0
  -20.6807  -26.9443   22.5411 C   0  0  0  0  0  0
  -19.5781  -26.6374   21.5226 C   0  0  0  0  0  0
  -18.1965  -26.7947   22.1627 C   0  0  0  0  0  0
  -19.1601  -28.8922   23.2795 C   0  0  0  0  0  0
  -18.9502  -30.1508   23.8841 C   0  0  0  0  0  0
  -17.6492  -30.6606   24.0553 C   0  0  0  0  0  0
  -25.9123  -34.9293   23.4961 C   0  0  0  0  0  0
  -16.5390  -29.9082   23.6349 C   0  0  0  0  0  0
  -16.7312  -28.6500   23.0370 C   0  0  0  0  0  0
  -26.4576  -31.6506   25.0693 C   0  0  0  0  0  0
  -25.3662  -31.3824   26.1325 C   0  0  0  0  0  0
  -27.0490  -30.2845   24.6569 C   0  0  0  0  0  0
  -27.6035  -32.4345   25.7508 C   0  0  0  0  0  0
  -27.5572  -37.1741   24.8464 C   0  0  0  0  0  0
  -21.4394  -29.3037   22.3474 N   0  0  0  0  0  0
  -26.4280  -37.3661   23.9400 N   0  0  0  0  0  0
  -24.7775  -30.9532   22.0819 N   0  0  0  0  0  0
  -23.4211  -28.7953   23.3044 O   0  0  0  0  0  0
  -28.1758  -25.5241   20.2855 O   0  0  0  0  0  0
  -26.5755  -34.8856   22.4575 O   0  0  0  0  0  0
  -23.5819  -32.1115   23.6547 O   0  0  0  0  0  0
  -29.5352  -19.5270   21.4495 C   0  0  0  0  0  0
  -28.7821  -20.2609   20.3559 C   0  0  1  0  0  0
  -28.9111  -22.1471   20.1515 C   0  0  2  0  0  0
  -28.8629  -23.1055   21.3378 C   0  0  2  0  0  0
  -29.7296  -18.6131   20.2465 C   0  0  2  0  0  0
  -27.9635  -23.7794   20.3055 C   0  0  1  0  0  0
  -30.1524  -23.7665   21.7748 C   0  0  0  0  0  0
  -26.4656  -23.5619   20.3905 C   0  0  0  0  0  0
  -29.5449  -16.8908   20.4483 N   0  0  0  0  0  0
  -31.4301  -13.2706   19.1933 H   0  0  0  0  0  0
  -30.5756  -12.1625   20.2091 H   0  0  0  0  0  0
  -29.9904  -11.7964   17.7860 H   0  0  0  0  0  0
  -29.5311  -13.4726   17.6235 H   0  0  0  0  0  0
  -28.1272  -11.2933   19.1855 H   0  0  0  0  0  0
  -27.4511  -12.2606   17.8968 H   0  0  0  0  0  0
  -27.4768  -14.2298   19.2657 H   0  0  0  0  0  0
  -28.8572  -12.6947   21.5167 H   0  0  0  0  0  0
  -28.1964  -14.3070   21.6556 H   0  0  0  0  0  0
  -25.2784   -9.5662   22.4765 H   0  0  0  0  0  0
  -23.9986   -7.4644   22.7498 H   0  0  0  0  0  0
  -21.0847   -8.8817   19.8986 H   0  0  0  0  0  0
  -22.3739  -10.9683   19.6173 H   0  0  0  0  0  0
  -21.2040   -7.6155   23.9723 H   0  0  0  0  0  0
  -21.1476   -6.0520   25.9070 H   0  0  0  0  0  0
  -22.0591   -2.7614   23.2845 H   0  0  0  0  0  0
  -22.3990  -11.9888   22.4891 H   0  0  0  0  0  0
  -21.0987  -13.1248   22.2646 H   0  0  0  0  0  0
  -24.6182  -15.8459   20.5314 H   0  0  0  0  0  0
  -26.2236  -15.6432   20.0547 H   0  0  0  0  0  0
  -26.7489  -32.4967   23.0802 H   0  0  0  0  0  0
  -25.0044  -33.9373   25.0063 H   0  0  0  0  0  0
  -22.8250  -31.2483   21.3277 H   0  0  0  0  0  0
  -23.3770  -35.9500   23.3276 H   0  0  0  0  0  0
  -24.3578  -36.8865   22.2078 H   0  0  0  0  0  0
  -23.7278  -37.6344   23.6752 H   0  0  0  0  0  0
  -26.2816  -31.2782   20.6323 H   0  0  0  0  0  0
  -26.9327  -30.6152   22.0836 H   0  0  0  0  0  0
  -28.1445  -28.4018   21.3453 H   0  0  0  0  0  0
  -25.8607  -25.6933   18.9180 H   0  0  0  0  0  0
  -24.0434  -27.2644   18.8854 H   0  0  0  0  0  0
  -23.9249  -30.4812   19.3825 H   0  0  0  0  0  0
  -22.8600  -29.1836   19.8180 H   0  0  0  0  0  0
  -25.1365  -36.1670   25.0769 H   0  0  0  0  0  0
  -21.0054  -28.3399   24.1287 H   0  0  0  0  0  0
  -20.5688  -26.2397   23.3665 H   0  0  0  0  0  0
  -21.6666  -26.7401   22.1220 H   0  0  0  0  0  0
  -19.6934  -25.6266   21.1297 H   0  0  0  0  0  0
  -19.6716  -27.3151   20.6724 H   0  0  0  0  0  0
  -17.4234  -26.6704   21.4029 H   0  0  0  0  0  0
  -18.0339  -26.0101   22.9029 H   0  0  0  0  0  0
  -19.7978  -30.7342   24.2175 H   0  0  0  0  0  0
  -17.5042  -31.6275   24.5176 H   0  0  0  0  0  0
  -15.5386  -30.2962   23.7701 H   0  0  0  0  0  0
  -15.8714  -28.0794   22.7115 H   0  0  0  0  0  0
  -24.5832  -30.7191   25.7632 H   0  0  0  0  0  0
  -24.8873  -32.3051   26.4607 H   0  0  0  0  0  0
  -25.7847  -30.9070   27.0206 H   0  0  0  0  0  0
  -26.3191  -29.6467   24.1576 H   0  0  0  0  0  0
  -27.3939  -29.7281   25.5294 H   0  0  0  0  0  0
  -27.9168  -30.3967   24.0072 H   0  0  0  0  0  0
  -27.2579  -33.3691   26.1932 H   0  0  0  0  0  0
  -28.3927  -32.6832   25.0403 H   0  0  0  0  0  0
  -28.0616  -31.8582   26.5553 H   0  0  0  0  0  0
  -28.2557  -38.0060   24.7484 H   0  0  0  0  0  0
  -28.1084  -36.2577   24.6306 H   0  0  0  0  0  0
  -27.2275  -37.1409   25.8860 H   0  0  0  0  0  0
  -20.9679  -29.8700   21.6571 H   0  0  0  0  0  0
  -26.0100  -38.2710   24.1394 H   0  0  0  0  0  0
  -28.9111  -19.1497   22.2574 H   0  0  0  0  0  0
  -30.4387  -20.0071   21.8195 H   0  0  0  0  0  0
  -27.7198  -20.0293   20.2987 H   0  0  0  0  0  0
  -29.7293  -22.3197   19.4545 H   0  0  0  0  0  0
  -28.3229  -22.7204   22.2016 H   0  0  0  0  0  0
  -30.6271  -18.7922   19.6553 H   0  0  0  0  0  0
  -30.6730  -24.1992   20.9193 H   0  0  0  0  0  0
  -30.8058  -23.0371   22.2534 H   0  0  0  0  0  0
  -29.9384  -24.5639   22.4866 H   0  0  0  0  0  0
  -25.9925  -24.3258   21.0082 H   0  0  0  0  0  0
  -26.2491  -22.5965   20.8497 H   0  0  0  0  0  0
  -26.0217  -23.5530   19.3942 H   0  0  0  0  0  0
  -28.5765  -16.6702   20.6341 H   0  0  0  0  0  0
  1 25  1  0  0  0
  1 30  2  0  0  0
  1 79  1  0  0  0
  2  3  1  0  0  0
  2 25  1  0  0  0
  2 80  1  0  0  0
  2 81  1  0  0  0
  3  4  1  0  0  0
  3 82  1  0  0  0
  3 83  1  0  0  0
  4  5  1  0  0  0
  4 84  1  0  0  0
  4 85  1  0  0  0
  5  6  1  0  0  0
  5 26  1  0  0  0
  5 86  1  0  0  0
  6 25  1  0  0  0
  6 87  1  0  0  0
  6 88  1  0  0  0
  7  8  2  0  0  0
  7 26  1  0  0  0
  7 29  1  0  0  0
  8  9  1  0  0  0
  8 22  1  0  0  0
  9 10  1  0  0  0
  9 27  2  0  0  0
 10 11  2  0  0  0
 10 15  1  0  0  0
 11 12  1  0  0  0
 11 89  1  0  0  0
 12 13  2  0  0  0
 12 90  1  0  0  0
 13 14  1  0  0  0
 13 31  1  0  0  0
 14 15  2  0  0  0
 14 91  1  0  0  0
 15 92  1  0  0  0
 16 17  2  0  0  0
 16 21  1  0  0  0
 16 31  1  0  0  0
 17 18  1  0  0  0
 17 93  1  0  0  0
 18 19  2  0  0  0
 18 94  1  0  0  0
 19 20  1  0  0  0
 19 24  1  0  0  0
 20 21  2  0  0  0
 20 95  1  0  0  0
 21 23  1  0  0  0
 22 28  1  0  0  0
 22 32  2  0  0  0
 26 27  1  0  0  0
 28 96  1  0  0  0
 28 97  1  0  0  0
 29 98  1  0  0  0
 29 99  1  0  0  0
 33 34  1  0  0  0
 33 66  1  0  0  0
 33 70  2  0  0  0
 34 36  1  0  0  0
 34 59  1  0  0  0
 34100  1  0  0  0
 35 44  2  0  0  0
 35 45  1  0  0  0
 35 68  1  0  0  0
 36 56  1  0  0  0
 36101  1  0  0  0
 37 39  1  0  0  0
 37 47  1  0  0  0
 37 66  1  0  0  0
 37102  1  0  0  0
 38 43  2  0  0  0
 38 46  1  0  0  0
 38 47  1  0  0  0
 39 64  1  0  0  0
 39 67  2  0  0  0
 40 52  1  0  0  0
 40 53  2  0  0  0
 40 58  1  0  0  0
 41103  1  0  0  0
 41104  1  0  0  0
 41105  1  0  0  0
 41 48  1  0  0  0
 42 43  1  0  0  0
 42 66  1  0  0  0
 42106  1  0  0  0
 42107  1  0  0  0
 43 44  1  0  0  0
 44108  1  0  0  0
 45 46  2  0  0  0
 45109  1  0  0  0
 46110  1  0  0  0
 47111  1  0  0  0
 47112  1  0  0  0
 48 56  1  0  0  0
 48 65  1  0  0  0
 48113  1  0  0  0
 49 50  1  0  0  0
 49 53  1  0  0  0
 49 64  1  0  0  0
 49114  1  0  0  0
 50 51  1  0  0  0
 50115  1  0  0  0
 50116  1  0  0  0
 51 52  1  0  0  0
 51117  1  0  0  0
 51118  1  0  0  0
 52119  1  0  0  0
 52120  1  0  0  0
 53 54  1  0  0  0
 54 55  2  0  0  0
 54121  1  0  0  0
 55 57  1  0  0  0
 55122  1  0  0  0
 56 69  2  0  0  0
 57 58  2  0  0  0
 57123  1  0  0  0
 58124  1  0  0  0
 59 60  1  0  0  0
 59 61  1  0  0  0
 59 62  1  0  0  0
 60125  1  0  0  0
 60126  1  0  0  0
 60127  1  0  0  0
 61128  1  0  0  0
 61129  1  0  0  0
 61130  1  0  0  0
 62131  1  0  0  0
 62132  1  0  0  0
 62133  1  0  0  0
 63 65  1  0  0  0
 63134  1  0  0  0
 63135  1  0  0  0
 63136  1  0  0  0
 64137  1  0  0  0
 65138  1  0  0  0
 68 76  1  0  0  0
 71 75  1  0  0  0
 71139  1  0  0  0
 71140  1  0  0  0
 71 72  1  0  0  0
 72 75  1  0  0  0
 72141  1  0  0  0
 72 73  1  0  0  0
 73 74  1  0  0  0
 73 76  1  0  0  0
 73142  1  0  0  0
 74 76  1  0  0  0
 74 77  1  0  0  0
 74143  1  0  0  0
 75 79  1  0  0  0
 75144  1  0  0  0
 76 78  1  0  0  0
 77145  1  0  0  0
 77146  1  0  0  0
 77147  1  0  0  0
 78148  1  0  0  0
 78149  1  0  0  0
 78150  1  0  0  0
 79151  1  0  0  0
M  ISO  4   1 100  68 101  76 101  79 100
M  END
> <chiral flag>
0

> <version>
0

> <s_m_source_file>
/data/baiqing/PycharmProjects/Reinvent-master-3.2/result/LINK_invent/BTK/process_docking_weight1_custom_sum_contain_oxygen_bond_distance_aromatic_linkinvent_7_9_3/rearranged_h_0181.sdf

> <i_m_source_file_index>
22

> <r_mmod_Potential_Energy-OPLS-2005>
2339.37841796875

> <r_mmod_Stretch_Energy-OPLS-2005>
1094.95251464844

> <r_mmod_Bend_Energy-OPLS-2005>
554.875732421875

> <r_mmod_Torsional_Energy-OPLS-2005>
344.483032226562

> <r_mmod_Improper_Torsional_Energy-OPLS-2005>
3.25568151473999

> <r_mmod_Van_der_Waal_Energy-OPLS-2005>
109.237617492676

> <r_mmod_Electrostatic_Energy-OPLS-2005>
-366.432586669922

> <r_mmod_Solvation_Energy-OPLS-2005>
-207.529037475586

> <b_mmod_Minimization_Converged-OPLS-2005>
0

> <r_mmod_RMS_Derivative-OPLS-2005>
2.42519044876099

$$$$
22
                    3D
 Structure written by MMmdl.
158167  0  0  1  0            999 V2000
  -30.6005  -14.9876   20.3922 C   0  0  0  0  0  0
  -30.4122  -12.6248   19.4934 C   0  0  0  0  0  0
  -29.5062  -12.5236   18.2485 C   0  0  0  0  0  0
  -28.0437  -12.3128   18.6753 C   0  0  0  0  0  0
  -27.6143  -13.2653   19.8222 C   0  0  2  0  0  0
  -28.6583  -13.3596   20.9544 C   0  0  0  0  0  0
  -25.2395  -13.8250   20.5727 C   0  0  0  0  0  0
  -24.1735  -13.0444   20.9248 C   0  0  0  0  0  0
  -24.6382  -11.6940   20.8761 C   0  0  0  0  0  0
  -23.9082  -10.4296   21.0394 C   0  0  0  0  0  0
  -24.3635   -9.4207   21.9161 C   0  0  0  0  0  0
  -23.6311   -8.2236   22.0740 C   0  0  0  0  0  0
  -22.4291   -8.0278   21.3532 C   0  0  0  0  0  0
  -21.9927   -9.0246   20.4638 C   0  0  0  0  0  0
  -22.7253  -10.2127   20.3043 C   0  0  0  0  0  0
  -21.6859   -6.0739   22.5277 C   0  0  0  0  0  0
  -21.4010   -6.5644   23.8206 C   0  0  0  0  0  0
  -21.3661   -5.6795   24.9168 C   0  0  0  0  0  0
  -21.6044   -4.3056   24.7220 C   0  0  0  0  0  0
  -21.8821   -3.8146   23.4345 C   0  0  0  0  0  0
  -21.9191   -4.6963   22.3400 C   0  0  0  0  0  0
  -22.7754  -13.5196   21.1901 C   0  0  0  0  0  0
  -22.1661   -4.2145   21.0976 F   0  0  0  0  0  0
  -21.5633   -3.4546   25.7733 F   0  0  0  0  0  0
  -29.9178  -13.7684   20.3239 N   0  0  0  0  0  0
  -26.2814  -12.9517   20.3214 N   0  0  0  0  0  0
  -25.9308  -11.6631   20.5730 N   0  0  0  0  0  0
  -22.0424  -12.8156   22.0456 N   0  0  0  0  0  0
  -25.4057  -15.1970   20.4159 N   0  0  0  0  0  0
  -31.8175  -14.9161   20.1937 O   0  0  0  0  0  0
  -21.6653   -6.8877   21.4237 O   0  0  0  0  0  0
  -22.3427  -14.5490   20.6740 O   0  0  0  0  0  0
  -24.6485  -31.8425   23.1901 C   0  0  0  0  0  0
  -25.9279  -32.4676   23.8265 C   0  0  1  0  0  0
  -27.1928  -27.0979   20.1402 C   0  0  0  0  0  0
  -25.6044  -33.8484   24.2185 N   0  0  0  0  0  0
  -23.4510  -30.4674   21.5375 C   0  0  2  0  0  0
  -24.8944  -28.8980   20.1040 C   0  0  0  0  0  0
  -22.7592  -29.4562   22.4864 C   0  0  0  0  0  0
  -18.0310  -28.1413   22.8471 C   0  0  0  0  0  0
  -24.1487  -36.7204   23.2642 C   0  0  0  0  0  0
  -26.0123  -30.7006   21.3985 C   0  0  0  0  0  0
  -26.0762  -29.3128   20.7320 C   0  0  0  0  0  0
  -27.2256  -28.4276   20.7385 C   0  0  0  0  0  0
  -25.9907  -26.8145   19.4499 C   0  0  0  0  0  0
  -24.8677  -27.6636   19.4452 C   0  0  0  0  0  0
  -23.6763  -29.8073   20.1525 C   0  0  0  0  0  0
  -25.4125  -36.3002   24.0310 C   0  0  1  0  0  0
  -20.5928  -28.3739   23.1219 C   0  0  2  0  0  0
  -20.6782  -26.9433   22.5417 C   0  0  0  0  0  0
  -19.5774  -26.6399   21.5204 C   0  0  0  0  0  0
  -18.1943  -26.7968   22.1581 C   0  0  0  0  0  0
  -19.1573  -28.8893   23.2842 C   0  0  0  0  0  0
  -18.9488  -30.1482   23.8874 C   0  0  0  0  0  0
  -17.6485  -30.6597   24.0574 C   0  0  0  0  0  0
  -25.9101  -34.9391   23.5044 C   0  0  0  0  0  0
  -16.5373  -29.9091   23.6352 C   0  0  0  0  0  0
  -16.7293  -28.6517   23.0355 C   0  0  0  0  0  0
  -26.4580  -31.6560   25.0724 C   0  0  0  0  0  0
  -25.3740  -31.3807   26.1407 C   0  0  0  0  0  0
  -27.0436  -30.2928   24.6373 C   0  0  0  0  0  0
  -27.6125  -32.4321   25.7494 C   0  0  0  0  0  0
  -27.5564  -37.1764   24.8459 C   0  0  0  0  0  0
  -21.4287  -29.3055   22.3586 N   0  0  0  0  0  0
  -26.4267  -37.3733   23.9423 N   0  0  0  0  0  0
  -24.7243  -31.0261   22.0959 N   0  0  0  0  0  0
  -23.4221  -28.8103   23.3021 O   0  0  0  0  0  0
  -28.1930  -26.0457   20.2329 O   0  0  0  0  0  0
  -26.5655  -34.8898   22.4600 O   0  0  0  0  0  0
  -23.5607  -32.1324   23.7110 O   0  0  0  0  0  0
  -29.1337  -20.1410   20.4090 C   0  0  0  0  0  0
  -29.5279  -21.0339   19.3352 C   0  0  0  0  0  0
  -28.1099  -22.1856   21.2958 C   0  0  0  0  0  0
  -28.4955  -23.0773   20.2240 C   0  0  0  0  0  0
  -28.7450  -17.1095   20.3604 C   0  0  0  0  0  0
  -30.7466  -17.6313   20.1990 C   0  0  0  0  0  0
  -29.5005  -18.5083   20.6287 C   0  0  0  0  0  0
  -27.2310  -22.7055   22.4167 C   0  0  0  0  0  0
  -29.4616  -19.8287   17.1021 C   0  0  0  0  0  0
  -30.3352  -20.5179   18.1578 C   0  0  0  0  0  0
  -27.7907  -24.5622   19.9014 C   0  0  0  0  0  0
  -28.4201  -20.8185   21.3824 N   0  0  0  0  0  0
  -29.2045  -22.4006   19.2460 N   0  0  0  0  0  0
  -30.0368  -16.3157   20.4567 N   0  0  0  0  0  0
  -31.4484  -12.7519   19.1761 H   0  0  0  0  0  0
  -30.3950  -11.6941   20.0633 H   0  0  0  0  0  0
  -29.8323  -11.7039   17.6063 H   0  0  0  0  0  0
  -29.5887  -13.4351   17.6542 H   0  0  0  0  0  0
  -27.9479  -11.2768   19.0030 H   0  0  0  0  0  0
  -27.3773  -12.4225   17.8185 H   0  0  0  0  0  0
  -27.5558  -14.2532   19.3640 H   0  0  0  0  0  0
  -28.7635  -12.4090   21.4793 H   0  0  0  0  0  0
  -28.3545  -14.1019   21.6956 H   0  0  0  0  0  0
  -25.2776   -9.5692   22.4740 H   0  0  0  0  0  0
  -24.0025   -7.4631   22.7464 H   0  0  0  0  0  0
  -21.0851   -8.8762   19.8948 H   0  0  0  0  0  0
  -22.3697  -10.9662   19.6161 H   0  0  0  0  0  0
  -21.1999   -7.6150   23.9709 H   0  0  0  0  0  0
  -21.1481   -6.0525   25.9073 H   0  0  0  0  0  0
  -22.0600   -2.7612   23.2837 H   0  0  0  0  0  0
  -22.4072  -11.9818   22.4806 H   0  0  0  0  0  0
  -21.1031  -13.1127   22.2666 H   0  0  0  0  0  0
  -24.6397  -15.8533   20.5220 H   0  0  0  0  0  0
  -26.2597  -15.6318   20.0945 H   0  0  0  0  0  0
  -26.7345  -32.5242   23.0980 H   0  0  0  0  0  0
  -25.0248  -33.9607   25.0373 H   0  0  0  0  0  0
  -22.7557  -31.2966   21.3894 H   0  0  0  0  0  0
  -23.3774  -35.9511   23.3289 H   0  0  0  0  0  0
  -24.3580  -36.8845   22.2060 H   0  0  0  0  0  0
  -23.7196  -37.6379   23.6678 H   0  0  0  0  0  0
  -26.1864  -31.4579   20.6330 H   0  0  0  0  0  0
  -26.8769  -30.7383   22.0500 H   0  0  0  0  0  0
  -28.1171  -28.7380   21.2652 H   0  0  0  0  0  0
  -25.8609  -25.8864   18.9160 H   0  0  0  0  0  0
  -23.9718  -27.3479   18.9273 H   0  0  0  0  0  0
  -23.8191  -30.5896   19.4062 H   0  0  0  0  0  0
  -22.7863  -29.2615   19.8344 H   0  0  0  0  0  0
  -25.1314  -36.1811   25.0797 H   0  0  0  0  0  0
  -21.0016  -28.3328   24.1344 H   0  0  0  0  0  0
  -20.5629  -26.2368   23.3651 H   0  0  0  0  0  0
  -21.6649  -26.7411   22.1243 H   0  0  0  0  0  0
  -19.6935  -25.6307   21.1236 H   0  0  0  0  0  0
  -19.6719  -27.3203   20.6731 H   0  0  0  0  0  0
  -17.4234  -26.6768   21.3953 H   0  0  0  0  0  0
  -18.0291  -26.0094   22.8941 H   0  0  0  0  0  0
  -19.7971  -30.7312   24.2216 H   0  0  0  0  0  0
  -17.5042  -31.6270   24.5194 H   0  0  0  0  0  0
  -15.5368  -30.2978   23.7712 H   0  0  0  0  0  0
  -15.8693  -28.0832   22.7061 H   0  0  0  0  0  0
  -24.6088  -30.6921   25.7819 H   0  0  0  0  0  0
  -24.8717  -32.2975   26.4504 H   0  0  0  0  0  0
  -25.8035  -30.9324   27.0374 H   0  0  0  0  0  0
  -26.3076  -29.6656   24.1335 H   0  0  0  0  0  0
  -27.3959  -29.7242   25.4991 H   0  0  0  0  0  0
  -27.9033  -30.4133   23.9776 H   0  0  0  0  0  0
  -27.2775  -33.3707   26.1926 H   0  0  0  0  0  0
  -28.4013  -32.6725   25.0352 H   0  0  0  0  0  0
  -28.0708  -31.8519   26.5517 H   0  0  0  0  0  0
  -28.2579  -38.0060   24.7485 H   0  0  0  0  0  0
  -28.1044  -36.2587   24.6267 H   0  0  0  0  0  0
  -27.2314  -37.1410   25.8872 H   0  0  0  0  0  0
  -20.9501  -29.8752   21.6747 H   0  0  0  0  0  0
  -26.0113  -38.2790   24.1440 H   0  0  0  0  0  0
  -28.2866  -17.0622   19.3695 H   0  0  0  0  0  0
  -28.0067  -16.8690   21.1268 H   0  0  0  0  0  0
  -31.6219  -17.8021   20.8269 H   0  0  0  0  0  0
  -31.0170  -17.7463   19.1488 H   0  0  0  0  0  0
  -29.5869  -18.5300   21.7161 H   0  0  0  0  0  0
  -27.6621  -23.6109   22.8446 H   0  0  0  0  0  0
  -27.1185  -21.9745   23.2174 H   0  0  0  0  0  0
  -26.2369  -22.9467   22.0393 H   0  0  0  0  0  0
  -30.0620  -19.5050   16.2516 H   0  0  0  0  0  0
  -28.6922  -20.5048   16.7286 H   0  0  0  0  0  0
  -28.9646  -18.9489   17.5102 H   0  0  0  0  0  0
  -31.1177  -19.8529   18.5147 H   0  0  0  0  0  0
  -30.8606  -21.3526   17.6918 H   0  0  0  0  0  0
  -26.7844  -24.4412   20.2990 H   0  0  0  0  0  0
  -27.6594  -24.5515   18.8190 H   0  0  0  0  0  0
  1 25  1  0  0  0
  1 30  2  0  0  0
  1 84  1  0  0  0
  2  3  1  0  0  0
  2 25  1  0  0  0
  2 85  1  0  0  0
  2 86  1  0  0  0
  3  4  1  0  0  0
  3 87  1  0  0  0
  3 88  1  0  0  0
  4  5  1  0  0  0
  4 89  1  0  0  0
  4 90  1  0  0  0
  5  6  1  0  0  0
  5 26  1  0  0  0
  5 91  1  0  0  0
  6 25  1  0  0  0
  6 92  1  0  0  0
  6 93  1  0  0  0
  7  8  2  0  0  0
  7 26  1  0  0  0
  7 29  1  0  0  0
  8  9  1  0  0  0
  8 22  1  0  0  0
  9 10  1  0  0  0
  9 27  2  0  0  0
 10 11  2  0  0  0
 10 15  1  0  0  0
 11 12  1  0  0  0
 11 94  1  0  0  0
 12 13  2  0  0  0
 12 95  1  0  0  0
 13 14  1  0  0  0
 13 31  1  0  0  0
 14 15  2  0  0  0
 14 96  1  0  0  0
 15 97  1  0  0  0
 16 17  2  0  0  0
 16 21  1  0  0  0
 16 31  1  0  0  0
 17 18  1  0  0  0
 17 98  1  0  0  0
 18 19  2  0  0  0
 18 99  1  0  0  0
 19 20  1  0  0  0
 19 24  1  0  0  0
 20 21  2  0  0  0
 20100  1  0  0  0
 21 23  1  0  0  0
 22 28  1  0  0  0
 22 32  2  0  0  0
 26 27  1  0  0  0
 28101  1  0  0  0
 28102  1  0  0  0
 29103  1  0  0  0
 29104  1  0  0  0
 33 34  1  0  0  0
 33 66  1  0  0  0
 33 70  2  0  0  0
 34 36  1  0  0  0
 34 59  1  0  0  0
 34105  1  0  0  0
 35 44  2  0  0  0
 35 45  1  0  0  0
 35 68  1  0  0  0
 36 56  1  0  0  0
 36106  1  0  0  0
 37 39  1  0  0  0
 37 47  1  0  0  0
 37 66  1  0  0  0
 37107  1  0  0  0
 38 43  2  0  0  0
 38 46  1  0  0  0
 38 47  1  0  0  0
 39 64  1  0  0  0
 39 67  2  0  0  0
 40 52  1  0  0  0
 40 53  2  0  0  0
 40 58  1  0  0  0
 41108  1  0  0  0
 41109  1  0  0  0
 41110  1  0  0  0
 41 48  1  0  0  0
 42 43  1  0  0  0
 42 66  1  0  0  0
 42111  1  0  0  0
 42112  1  0  0  0
 43 44  1  0  0  0
 44113  1  0  0  0
 45 46  2  0  0  0
 45114  1  0  0  0
 46115  1  0  0  0
 47116  1  0  0  0
 47117  1  0  0  0
 48 56  1  0  0  0
 48 65  1  0  0  0
 48118  1  0  0  0
 49 50  1  0  0  0
 49 53  1  0  0  0
 49 64  1  0  0  0
 49119  1  0  0  0
 50 51  1  0  0  0
 50120  1  0  0  0
 50121  1  0  0  0
 51 52  1  0  0  0
 51122  1  0  0  0
 51123  1  0  0  0
 52124  1  0  0  0
 52125  1  0  0  0
 53 54  1  0  0  0
 54 55  2  0  0  0
 54126  1  0  0  0
 55 57  1  0  0  0
 55127  1  0  0  0
 56 69  2  0  0  0
 57 58  2  0  0  0
 57128  1  0  0  0
 58129  1  0  0  0
 59 60  1  0  0  0
 59 61  1  0  0  0
 59 62  1  0  0  0
 60130  1  0  0  0
 60131  1  0  0  0
 60132  1  0  0  0
 61133  1  0  0  0
 61134  1  0  0  0
 61135  1  0  0  0
 62136  1  0  0  0
 62137  1  0  0  0
 62138  1  0  0  0
 63 65  1  0  0  0
 63139  1  0  0  0
 63140  1  0  0  0
 63141  1  0  0  0
 64142  1  0  0  0
 65143  1  0  0  0
 68 81  1  0  0  0
 71 72  2  0  0  0
 71 82  1  0  0  0
 71 77  1  0  0  0
 72 80  1  0  0  0
 72 83  1  0  0  0
 73 74  1  0  0  0
 73 78  1  0  0  0
 73 82  2  0  0  0
 74 81  1  0  0  0
 74 83  2  0  0  0
 75 77  1  0  0  0
 75 84  1  0  0  0
 75144  1  0  0  0
 75145  1  0  0  0
 76 77  1  0  0  0
 76 84  1  0  0  0
 76146  1  0  0  0
 76147  1  0  0  0
 77148  1  0  0  0
 78149  1  0  0  0
 78150  1  0  0  0
 78151  1  0  0  0
 79 80  1  0  0  0
 79152  1  0  0  0
 79153  1  0  0  0
 79154  1  0  0  0
 80155  1  0  0  0
 80156  1  0  0  0
 81157  1  0  0  0
 81158  1  0  0  0
M  ISO  4   1 100  68 101  81 101  84 100
M  END
> <chiral flag>
0

> <version>
0

> <s_m_source_file>
/data/baiqing/PycharmProjects/Reinvent-master-3.2/result/LINK_invent/BTK/process_docking_weight1_custom_sum_contain_oxygen_bond_distance_aromatic_linkinvent_7_9_3/rearranged_h_0181.sdf

> <i_m_source_file_index>
23

> <r_mmod_Potential_Energy-OPLS-2005>
756.757934570312

> <r_mmod_Stretch_Energy-OPLS-2005>
267.576263427734

> <r_mmod_Bend_Energy-OPLS-2005>
351.22607421875

> <r_mmod_Torsional_Energy-OPLS-2005>
253.278289794922

> <r_mmod_Improper_Torsional_Energy-OPLS-2005>
9.41288375854492

> <r_mmod_Van_der_Waal_Energy-OPLS-2005>
134.681488037109

> <r_mmod_Electrostatic_Energy-OPLS-2005>
-271.201477050781

> <r_mmod_Solvation_Energy-OPLS-2005>
-224.349182128906

> <b_mmod_Minimization_Converged-OPLS-2005>
0

> <r_mmod_RMS_Derivative-OPLS-2005>
2.23249268531799

$$$$
23
                    3D
 Structure written by MMmdl.
156165  0  0  1  0            999 V2000
  -30.5418  -14.8844   20.5250 C   0  0  0  0  0  0
  -30.4662  -12.5703   19.4643 C   0  0  0  0  0  0
  -29.5261  -12.5526   18.2333 C   0  0  0  0  0  0
  -28.0493  -12.3584   18.6371 C   0  0  0  0  0  0
  -27.6472  -13.2379   19.8491 C   0  0  2  0  0  0
  -28.6950  -13.1396   20.9724 C   0  0  0  0  0  0
  -25.2536  -13.8222   20.5714 C   0  0  0  0  0  0
  -24.1828  -13.0461   20.9203 C   0  0  0  0  0  0
  -24.6433  -11.6936   20.8756 C   0  0  0  0  0  0
  -23.9127  -10.4304   21.0405 C   0  0  0  0  0  0
  -24.3677   -9.4220   21.9189 C   0  0  0  0  0  0
  -23.6349   -8.2262   22.0773 C   0  0  0  0  0  0
  -22.4321   -8.0322   21.3595 C   0  0  0  0  0  0
  -21.9955   -9.0284   20.4678 C   0  0  0  0  0  0
  -22.7289  -10.2160   20.3065 C   0  0  0  0  0  0
  -21.6860   -6.0765   22.5287 C   0  0  0  0  0  0
  -21.4003   -6.5649   23.8228 C   0  0  0  0  0  0
  -21.3668   -5.6792   24.9186 C   0  0  0  0  0  0
  -21.6042   -4.3064   24.7207 C   0  0  0  0  0  0
  -21.8810   -3.8167   23.4325 C   0  0  0  0  0  0
  -21.9195   -4.6992   22.3386 C   0  0  0  0  0  0
  -22.7843  -13.5253   21.1840 C   0  0  0  0  0  0
  -22.1676   -4.2184   21.0958 F   0  0  0  0  0  0
  -21.5649   -3.4541   25.7708 F   0  0  0  0  0  0
  -29.9791  -13.6092   20.4161 N   0  0  0  0  0  0
  -26.2980  -12.9431   20.3272 N   0  0  0  0  0  0
  -25.9357  -11.6566   20.5703 N   0  0  0  0  0  0
  -22.0468  -12.8280   22.0409 N   0  0  0  0  0  0
  -25.4254  -15.1949   20.4198 N   0  0  0  0  0  0
  -31.6756  -15.0628   20.0666 O   0  0  0  0  0  0
  -21.6682   -6.8923   21.4271 O   0  0  0  0  0  0
  -22.3518  -14.5546   20.6659 O   0  0  0  0  0  0
  -24.6401  -31.8490   23.1908 C   0  0  0  0  0  0
  -25.9187  -32.4749   23.8296 C   0  0  1  0  0  0
  -27.2314  -27.1717   20.1396 C   0  0  0  0  0  0
  -25.5948  -33.8545   24.2232 N   0  0  0  0  0  0
  -23.4433  -30.4638   21.5384 C   0  0  2  0  0  0
  -24.8930  -28.8921   20.1167 C   0  0  0  0  0  0
  -22.7545  -29.4550   22.4904 C   0  0  0  0  0  0
  -18.0293  -28.1363   22.8484 C   0  0  0  0  0  0
  -24.1473  -36.7242   23.2647 C   0  0  0  0  0  0
  -25.9975  -30.7335   21.3807 C   0  0  0  0  0  0
  -26.0711  -29.3464   20.7230 C   0  0  0  0  0  0
  -27.2430  -28.5033   20.7097 C   0  0  0  0  0  0
  -26.0259  -26.8098   19.4988 C   0  0  0  0  0  0
  -24.8810  -27.6359   19.4927 C   0  0  0  0  0  0
  -23.6659  -29.7878   20.1595 C   0  0  0  0  0  0
  -25.4120  -36.3068   24.0337 C   0  0  1  0  0  0
  -20.5898  -28.3692   23.1229 C   0  0  2  0  0  0
  -20.6753  -26.9397   22.5386 C   0  0  0  0  0  0
  -19.5737  -26.6354   21.5183 C   0  0  0  0  0  0
  -18.1920  -26.7891   22.1614 C   0  0  0  0  0  0
  -19.1550  -28.8847   23.2843 C   0  0  0  0  0  0
  -18.9484  -30.1441   23.8873 C   0  0  0  0  0  0
  -17.6479  -30.6566   24.0546 C   0  0  0  0  0  0
  -25.9088  -34.9434   23.5106 C   0  0  0  0  0  0
  -16.5364  -29.9065   23.6326 C   0  0  0  0  0  0
  -16.7271  -28.6470   23.0367 C   0  0  0  0  0  0
  -26.4498  -31.6610   25.0727 C   0  0  0  0  0  0
  -25.3697  -31.3755   26.1442 C   0  0  0  0  0  0
  -27.0358  -30.3026   24.6264 C   0  0  0  0  0  0
  -27.6053  -32.4338   25.7485 C   0  0  0  0  0  0
  -27.5562  -37.1783   24.8477 C   0  0  0  0  0  0
  -21.4232  -29.3042   22.3643 N   0  0  0  0  0  0
  -26.4274  -37.3784   23.9429 N   0  0  0  0  0  0
  -24.7148  -31.0329   22.0930 N   0  0  0  0  0  0
  -23.4192  -28.8127   23.3056 O   0  0  0  0  0  0
  -28.3202  -26.2322   20.1653 O   0  0  0  0  0  0
  -26.5661  -34.8899   22.4672 O   0  0  0  0  0  0
  -23.5519  -32.1352   23.7116 O   0  0  0  0  0  0
  -30.3650  -21.3423   21.0306 C   0  0  0  0  0  0
  -30.5447  -19.9214   21.1927 C   0  0  0  0  0  0
  -29.3069  -21.9304   20.2636 C   0  0  0  0  0  0
  -29.6755  -18.9581   20.6051 C   0  0  0  0  0  0
  -28.5136  -20.8942   19.6466 C   0  0  0  0  0  0
  -30.0425  -17.2318   22.6646 C   0  0  0  0  0  0
  -29.5276  -15.8092   22.5060 C   0  0  0  0  0  0
  -29.4675  -17.4827   21.2850 C   0  0  2  0  0  0
  -27.4069  -21.2755   18.6733 C   0  0  0  0  0  0
  -29.2757  -23.5623   19.9932 C   0  0  0  0  0  0
  -28.1092  -24.7051   20.3245 C   0  0  0  0  0  0
  -28.6723  -19.5171   19.8377 N   0  0  0  0  0  0
  -29.7424  -15.9313   21.0437 N   0  0  0  0  0  0
  -31.4906  -12.7701   19.1455 H   0  0  0  0  0  0
  -30.5008  -11.5903   19.9435 H   0  0  0  0  0  0
  -29.8283  -11.7677   17.5383 H   0  0  0  0  0  0
  -29.6296  -13.4951   17.6959 H   0  0  0  0  0  0
  -27.9116  -11.3034   18.8796 H   0  0  0  0  0  0
  -27.3963  -12.5680   17.7900 H   0  0  0  0  0  0
  -27.6415  -14.2654   19.4896 H   0  0  0  0  0  0
  -28.7726  -12.1109   21.3255 H   0  0  0  0  0  0
  -28.3637  -13.7011   21.8411 H   0  0  0  0  0  0
  -25.2830   -9.5693   22.4786 H   0  0  0  0  0  0
  -24.0069   -7.4618   22.7463 H   0  0  0  0  0  0
  -21.0904   -8.8804   19.8945 H   0  0  0  0  0  0
  -22.3776  -10.9718   19.6193 H   0  0  0  0  0  0
  -21.1992   -7.6155   23.9746 H   0  0  0  0  0  0
  -21.1520   -6.0529   25.9107 H   0  0  0  0  0  0
  -22.0580   -2.7630   23.2797 H   0  0  0  0  0  0
  -22.4099  -11.9991   22.4870 H   0  0  0  0  0  0
  -21.1074  -13.1289   22.2547 H   0  0  0  0  0  0
  -24.6604  -15.8503   20.5372 H   0  0  0  0  0  0
  -26.2860  -15.6365   20.1187 H   0  0  0  0  0  0
  -26.7266  -32.5340   23.1041 H   0  0  0  0  0  0
  -25.0059  -33.9714   25.0351 H   0  0  0  0  0  0
  -22.7455  -31.2897   21.3831 H   0  0  0  0  0  0
  -23.3760  -35.9546   23.3320 H   0  0  0  0  0  0
  -24.3542  -36.8853   22.2056 H   0  0  0  0  0  0
  -23.7176  -37.6425   23.6663 H   0  0  0  0  0  0
  -26.1440  -31.4905   20.6080 H   0  0  0  0  0  0
  -26.8714  -30.7865   22.0196 H   0  0  0  0  0  0
  -28.1475  -28.8597   21.1833 H   0  0  0  0  0  0
  -25.9387  -25.8620   18.9911 H   0  0  0  0  0  0
  -23.9808  -27.2809   19.0078 H   0  0  0  0  0  0
  -23.7915  -30.5607   19.3995 H   0  0  0  0  0  0
  -22.7822  -29.2214   19.8564 H   0  0  0  0  0  0
  -25.1287  -36.1931   25.0826 H   0  0  0  0  0  0
  -20.9981  -28.3246   24.1355 H   0  0  0  0  0  0
  -20.5578  -26.2311   23.3617 H   0  0  0  0  0  0
  -21.6625  -26.7346   22.1241 H   0  0  0  0  0  0
  -19.6893  -25.6263   21.1230 H   0  0  0  0  0  0
  -19.6652  -27.3138   20.6705 H   0  0  0  0  0  0
  -17.4175  -26.6613   21.4034 H   0  0  0  0  0  0
  -18.0352  -26.0033   22.9022 H   0  0  0  0  0  0
  -19.7969  -30.7248   24.2213 H   0  0  0  0  0  0
  -17.5049  -31.6258   24.5140 H   0  0  0  0  0  0
  -15.5369  -30.2976   23.7657 H   0  0  0  0  0  0
  -15.8663  -28.0778   22.7121 H   0  0  0  0  0  0
  -24.5900  -30.7093   25.7744 H   0  0  0  0  0  0
  -24.8848  -32.2907   26.4839 H   0  0  0  0  0  0
  -25.7995  -30.8948   27.0242 H   0  0  0  0  0  0
  -26.2973  -29.6778   24.1249 H   0  0  0  0  0  0
  -27.3978  -29.7299   25.4805 H   0  0  0  0  0  0
  -27.8856  -30.4280   23.9560 H   0  0  0  0  0  0
  -27.2719  -33.3673   26.2008 H   0  0  0  0  0  0
  -28.3883  -32.6850   25.0326 H   0  0  0  0  0  0
  -28.0715  -31.8507   26.5445 H   0  0  0  0  0  0
  -28.2612  -38.0050   24.7543 H   0  0  0  0  0  0
  -28.1026  -36.2595   24.6297 H   0  0  0  0  0  0
  -27.2281  -37.1420   25.8876 H   0  0  0  0  0  0
  -20.9452  -29.8790   21.6850 H   0  0  0  0  0  0
  -26.0155  -38.2844   24.1458 H   0  0  0  0  0  0
  -31.0704  -21.9979   21.5196 H   0  0  0  0  0  0
  -31.3210  -19.5791   21.8641 H   0  0  0  0  0  0
  -31.1291  -17.3115   22.7026 H   0  0  0  0  0  0
  -29.5676  -17.8017   23.4662 H   0  0  0  0  0  0
  -28.4776  -15.7102   22.7924 H   0  0  0  0  0  0
  -30.1396  -15.0736   23.0362 H   0  0  0  0  0  0
  -28.3820  -17.5700   21.4087 H   0  0  0  0  0  0
  -27.7514  -22.0791   18.0196 H   0  0  0  0  0  0
  -26.5228  -21.6168   19.2173 H   0  0  0  0  0  0
  -27.1105  -20.4415   18.0277 H   0  0  0  0  0  0
  -29.5189  -23.6697   18.9369 H   0  0  0  0  0  0
  -30.1592  -23.9390   20.5042 H   0  0  0  0  0  0
  -27.8409  -24.5817   21.3740 H   0  0  0  0  0  0
  -27.2274  -24.3986   19.7703 H   0  0  0  0  0  0
  1 25  1  0  0  0
  1 30  2  0  0  0
  1 83  1  0  0  0
  2  3  1  0  0  0
  2 25  1  0  0  0
  2 84  1  0  0  0
  2 85  1  0  0  0
  3  4  1  0  0  0
  3 86  1  0  0  0
  3 87  1  0  0  0
  4  5  1  0  0  0
  4 88  1  0  0  0
  4 89  1  0  0  0
  5  6  1  0  0  0
  5 26  1  0  0  0
  5 90  1  0  0  0
  6 25  1  0  0  0
  6 91  1  0  0  0
  6 92  1  0  0  0
  7  8  2  0  0  0
  7 26  1  0  0  0
  7 29  1  0  0  0
  8  9  1  0  0  0
  8 22  1  0  0  0
  9 10  1  0  0  0
  9 27  2  0  0  0
 10 11  2  0  0  0
 10 15  1  0  0  0
 11 12  1  0  0  0
 11 93  1  0  0  0
 12 13  2  0  0  0
 12 94  1  0  0  0
 13 14  1  0  0  0
 13 31  1  0  0  0
 14 15  2  0  0  0
 14 95  1  0  0  0
 15 96  1  0  0  0
 16 17  2  0  0  0
 16 21  1  0  0  0
 16 31  1  0  0  0
 17 18  1  0  0  0
 17 97  1  0  0  0
 18 19  2  0  0  0
 18 98  1  0  0  0
 19 20  1  0  0  0
 19 24  1  0  0  0
 20 21  2  0  0  0
 20 99  1  0  0  0
 21 23  1  0  0  0
 22 28  1  0  0  0
 22 32  2  0  0  0
 26 27  1  0  0  0
 28100  1  0  0  0
 28101  1  0  0  0
 29102  1  0  0  0
 29103  1  0  0  0
 33 34  1  0  0  0
 33 66  1  0  0  0
 33 70  2  0  0  0
 34 36  1  0  0  0
 34 59  1  0  0  0
 34104  1  0  0  0
 35 44  2  0  0  0
 35 45  1  0  0  0
 35 68  1  0  0  0
 36 56  1  0  0  0
 36105  1  0  0  0
 37 39  1  0  0  0
 37 47  1  0  0  0
 37 66  1  0  0  0
 37106  1  0  0  0
 38 43  2  0  0  0
 38 46  1  0  0  0
 38 47  1  0  0  0
 39 64  1  0  0  0
 39 67  2  0  0  0
 40 52  1  0  0  0
 40 53  2  0  0  0
 40 58  1  0  0  0
 41107  1  0  0  0
 41108  1  0  0  0
 41109  1  0  0  0
 41 48  1  0  0  0
 42 43  1  0  0  0
 42 66  1  0  0  0
 42110  1  0  0  0
 42111  1  0  0  0
 43 44  1  0  0  0
 44112  1  0  0  0
 45 46  2  0  0  0
 45113  1  0  0  0
 46114  1  0  0  0
 47115  1  0  0  0
 47116  1  0  0  0
 48 56  1  0  0  0
 48 65  1  0  0  0
 48117  1  0  0  0
 49 50  1  0  0  0
 49 53  1  0  0  0
 49 64  1  0  0  0
 49118  1  0  0  0
 50 51  1  0  0  0
 50119  1  0  0  0
 50120  1  0  0  0
 51 52  1  0  0  0
 51121  1  0  0  0
 51122  1  0  0  0
 52123  1  0  0  0
 52124  1  0  0  0
 53 54  1  0  0  0
 54 55  2  0  0  0
 54125  1  0  0  0
 55 57  1  0  0  0
 55126  1  0  0  0
 56 69  2  0  0  0
 57 58  2  0  0  0
 57127  1  0  0  0
 58128  1  0  0  0
 59 60  1  0  0  0
 59 61  1  0  0  0
 59 62  1  0  0  0
 60129  1  0  0  0
 60130  1  0  0  0
 60131  1  0  0  0
 61132  1  0  0  0
 61133  1  0  0  0
 61134  1  0  0  0
 62135  1  0  0  0
 62136  1  0  0  0
 62137  1  0  0  0
 63 65  1  0  0  0
 63138  1  0  0  0
 63139  1  0  0  0
 63140  1  0  0  0
 64141  1  0  0  0
 65142  1  0  0  0
 68 81  1  0  0  0
 71 72  2  0  0  0
 71 73  1  0  0  0
 71143  1  0  0  0
 72 74  1  0  0  0
 72144  1  0  0  0
 73 75  2  0  0  0
 73 80  1  0  0  0
 74 82  2  0  0  0
 74 78  1  0  0  0
 75 79  1  0  0  0
 75 82  1  0  0  0
 76 77  1  0  0  0
 76 78  1  0  0  0
 76145  1  0  0  0
 76146  1  0  0  0
 77 83  1  0  0  0
 77147  1  0  0  0
 77148  1  0  0  0
 78 83  1  0  0  0
 78149  1  0  0  0
 79150  1  0  0  0
 79151  1  0  0  0
 79152  1  0  0  0
 80 81  1  0  0  0
 80153  1  0  0  0
 80154  1  0  0  0
 81155  1  0  0  0
 81156  1  0  0  0
M  ISO  4   1 100  68 101  81 101  83 100
M  END
> <chiral flag>
0

> <version>
0

> <s_m_source_file>
/data/baiqing/PycharmProjects/Reinvent-master-3.2/result/LINK_invent/BTK/process_docking_weight1_custom_sum_contain_oxygen_bond_distance_aromatic_linkinvent_7_9_3/rearranged_h_0181.sdf

> <i_m_source_file_index>
24

> <r_mmod_Potential_Energy-OPLS-2005>
410.286712646484

> <r_mmod_Stretch_Energy-OPLS-2005>
223.690475463867

> <r_mmod_Bend_Energy-OPLS-2005>
370.750823974609

> <r_mmod_Torsional_Energy-OPLS-2005>
270.157287597656

> <r_mmod_Improper_Torsional_Energy-OPLS-2005>
17.0236263275146

> <r_mmod_Van_der_Waal_Energy-OPLS-2005>
143.316665649414

> <r_mmod_Electrostatic_Energy-OPLS-2005>
-546.570129394531

> <r_mmod_Solvation_Energy-OPLS-2005>
-216.630493164062

> <b_mmod_Minimization_Converged-OPLS-2005>
0

> <r_mmod_RMS_Derivative-OPLS-2005>
5.31664705276489

$$$$
24
                    3D
 Structure written by MMmdl.
161170  0  0  1  0            999 V2000
  -30.6539  -14.7003   20.4282 C   0  0  0  0  0  0
  -30.3975  -12.4122   19.4902 C   0  0  0  0  0  0
  -29.5117  -12.5300   18.2327 C   0  0  0  0  0  0
  -28.0261  -12.3808   18.6205 C   0  0  0  0  0  0
  -27.6382  -13.2481   19.8529 C   0  0  2  0  0  0
  -28.6788  -13.1776   20.9916 C   0  0  0  0  0  0
  -25.2443  -13.8234   20.5652 C   0  0  0  0  0  0
  -24.1766  -13.0423   20.9150 C   0  0  0  0  0  0
  -24.6388  -11.6906   20.8694 C   0  0  0  0  0  0
  -23.9070  -10.4280   21.0346 C   0  0  0  0  0  0
  -24.3626   -9.4212   21.9131 C   0  0  0  0  0  0
  -23.6304   -8.2241   22.0715 C   0  0  0  0  0  0
  -22.4287   -8.0265   21.3505 C   0  0  0  0  0  0
  -21.9914   -9.0230   20.4604 C   0  0  0  0  0  0
  -22.7237  -10.2112   20.3003 C   0  0  0  0  0  0
  -21.6866   -6.0711   22.5268 C   0  0  0  0  0  0
  -21.4012   -6.5615   23.8202 C   0  0  0  0  0  0
  -21.3677   -5.6775   24.9169 C   0  0  0  0  0  0
  -21.6063   -4.3040   24.7215 C   0  0  0  0  0  0
  -21.8821   -3.8120   23.4338 C   0  0  0  0  0  0
  -21.9182   -4.6929   22.3391 C   0  0  0  0  0  0
  -22.7792  -13.5174   21.1858 C   0  0  0  0  0  0
  -22.1657   -4.2113   21.0963 F   0  0  0  0  0  0
  -21.5649   -3.4532   25.7731 F   0  0  0  0  0  0
  -29.9832  -13.5009   20.4080 N   0  0  0  0  0  0
  -26.2899  -12.9474   20.3258 N   0  0  0  0  0  0
  -25.9318  -11.6591   20.5689 N   0  0  0  0  0  0
  -22.0472  -12.8139   22.0432 N   0  0  0  0  0  0
  -25.4054  -15.1978   20.4082 N   0  0  0  0  0  0
  -31.8475  -14.7126   20.1306 O   0  0  0  0  0  0
  -21.6647   -6.8868   21.4229 O   0  0  0  0  0  0
  -22.3447  -14.5472   20.6727 O   0  0  0  0  0  0
  -24.6305  -31.8586   23.1994 C   0  0  0  0  0  0
  -25.9157  -32.4772   23.8329 C   0  0  1  0  0  0
  -27.2075  -27.2780   20.0844 C   0  0  0  0  0  0
  -25.5973  -33.8564   24.2272 N   0  0  0  0  0  0
  -23.4241  -30.4860   21.5453 C   0  0  2  0  0  0
  -24.8654  -28.9430   20.1148 C   0  0  0  0  0  0
  -22.7489  -29.4630   22.4903 C   0  0  0  0  0  0
  -18.0289  -28.1355   22.8506 C   0  0  0  0  0  0
  -24.1486  -36.7249   23.2643 C   0  0  0  0  0  0
  -25.9756  -30.7706   21.3840 C   0  0  0  0  0  0
  -26.0459  -29.3985   20.7191 C   0  0  0  0  0  0
  -27.2223  -28.5770   20.6990 C   0  0  0  0  0  0
  -26.0028  -26.9138   19.4356 C   0  0  0  0  0  0
  -24.8471  -27.7020   19.4744 C   0  0  0  0  0  0
  -23.6403  -29.8278   20.1626 C   0  0  0  0  0  0
  -25.4119  -36.3061   24.0339 C   0  0  1  0  0  0
  -20.5905  -28.3665   23.1265 C   0  0  2  0  0  0
  -20.6789  -26.9389   22.5384 C   0  0  0  0  0  0
  -19.5772  -26.6386   21.5185 C   0  0  0  0  0  0
  -18.1940  -26.7911   22.1598 C   0  0  0  0  0  0
  -19.1547  -28.8828   23.2880 C   0  0  0  0  0  0
  -18.9477  -30.1431   23.8906 C   0  0  0  0  0  0
  -17.6489  -30.6572   24.0556 C   0  0  0  0  0  0
  -25.9081  -34.9450   23.5094 C   0  0  0  0  0  0
  -16.5381  -29.9068   23.6347 C   0  0  0  0  0  0
  -16.7278  -28.6460   23.0412 C   0  0  0  0  0  0
  -26.4545  -31.6567   25.0682 C   0  0  0  0  0  0
  -25.3789  -31.3732   26.1418 C   0  0  0  0  0  0
  -27.0386  -30.2977   24.6144 C   0  0  0  0  0  0
  -27.6093  -32.4299   25.7458 C   0  0  0  0  0  0
  -27.5571  -37.1776   24.8473 C   0  0  0  0  0  0
  -21.4201  -29.3033   22.3640 N   0  0  0  0  0  0
  -26.4284  -37.3763   23.9426 N   0  0  0  0  0  0
  -24.6951  -31.0592   22.0966 N   0  0  0  0  0  0
  -23.4179  -28.8197   23.3021 O   0  0  0  0  0  0
  -28.2753  -26.3464   20.1025 O   0  0  0  0  0  0
  -26.5614  -34.8935   22.4643 O   0  0  0  0  0  0
  -23.5466  -32.1390   23.7331 O   0  0  0  0  0  0
  -29.3759  -23.1626   21.2753 C   0  0  0  0  0  0
  -28.6240  -22.8253   19.0327 C   0  0  0  0  0  0
  -29.3337  -20.9620   20.3672 C   0  0  0  0  0  0
  -30.6754  -19.0782   18.3940 C   0  0  0  0  0  0
  -31.9092  -17.5592   19.7515 C   0  0  0  0  0  0
  -29.6583  -18.6122   19.4774 C   0  0  1  0  0  0
  -30.4074  -17.1896   19.7580 C   0  0  2  0  0  0
  -29.8053  -24.1438   22.3536 C   0  0  0  0  0  0
  -27.8596  -24.9107   20.2901 C   0  0  0  0  0  0
  -29.5970  -21.8804   21.4624 N   0  0  0  0  0  0
  -28.8221  -21.5274   19.1191 N   0  0  0  0  0  0
  -29.6416  -19.6906   20.5448 N   0  0  0  0  0  0
  -28.8043  -23.7287   20.1160 N   0  0  0  0  0  0
  -28.2581  -23.3632   17.8082 N   0  0  0  0  0  0
  -29.9561  -15.9046   20.4743 N   0  0  0  0  0  0
  -31.9877  -18.8381   19.0251 N   0  3  0  0  0  0
  -31.4577  -12.4571   19.2314 H   0  0  0  0  0  0
  -30.2490  -11.4390   19.9591 H   0  0  0  0  0  0
  -29.7882  -11.7778   17.4933 H   0  0  0  0  0  0
  -29.6773  -13.5000   17.7598 H   0  0  0  0  0  0
  -27.8382  -11.3287   18.8292 H   0  0  0  0  0  0
  -27.3894  -12.6376   17.7708 H   0  0  0  0  0  0
  -27.6334  -14.2777   19.4945 H   0  0  0  0  0  0
  -28.6945  -12.1837   21.4396 H   0  0  0  0  0  0
  -28.4305  -13.8731   21.7934 H   0  0  0  0  0  0
  -25.2775   -9.5706   22.4694 H   0  0  0  0  0  0
  -24.0019   -7.4637   22.7447 H   0  0  0  0  0  0
  -21.0840   -8.8735   19.8935 H   0  0  0  0  0  0
  -22.3675  -10.9622   19.6110 H   0  0  0  0  0  0
  -21.2015   -7.6129   23.9700 H   0  0  0  0  0  0
  -21.1515   -6.0499   25.9078 H   0  0  0  0  0  0
  -22.0592   -2.7572   23.2836 H   0  0  0  0  0  0
  -22.4119  -11.9809   22.4809 H   0  0  0  0  0  0
  -21.1070  -13.1115   22.2666 H   0  0  0  0  0  0
  -24.6230  -15.8382   20.4940 H   0  0  0  0  0  0
  -26.2564  -15.6490   20.0927 H   0  0  0  0  0  0
  -26.7204  -32.5399   23.1052 H   0  0  0  0  0  0
  -25.0199  -33.9699   25.0474 H   0  0  0  0  0  0
  -22.7179  -31.3058   21.4016 H   0  0  0  0  0  0
  -23.3781  -35.9537   23.3286 H   0  0  0  0  0  0
  -24.3597  -36.8871   22.2055 H   0  0  0  0  0  0
  -23.7192  -37.6434   23.6674 H   0  0  0  0  0  0
  -26.1217  -31.5346   20.6206 H   0  0  0  0  0  0
  -26.8524  -30.8095   22.0195 H   0  0  0  0  0  0
  -28.1270  -28.9226   21.1831 H   0  0  0  0  0  0
  -25.8943  -26.0125   18.8569 H   0  0  0  0  0  0
  -23.9446  -27.3417   19.0015 H   0  0  0  0  0  0
  -23.7735  -30.6038   19.4068 H   0  0  0  0  0  0
  -22.7560  -29.2652   19.8560 H   0  0  0  0  0  0
  -25.1295  -36.1891   25.0829 H   0  0  0  0  0  0
  -21.0008  -28.3219   24.1387 H   0  0  0  0  0  0
  -20.5671  -26.2274   23.3567 H   0  0  0  0  0  0
  -21.6654  -26.7405   22.1198 H   0  0  0  0  0  0
  -19.6930  -25.6300   21.1186 H   0  0  0  0  0  0
  -19.6718  -27.3215   20.6723 H   0  0  0  0  0  0
  -17.4222  -26.6694   21.3980 H   0  0  0  0  0  0
  -18.0342  -26.0016   22.8958 H   0  0  0  0  0  0
  -19.7967  -30.7227   24.2279 H   0  0  0  0  0  0
  -17.5064  -31.6269   24.5121 H   0  0  0  0  0  0
  -15.5379  -30.2989   23.7672 H   0  0  0  0  0  0
  -15.8676  -28.0758   22.7191 H   0  0  0  0  0  0
  -24.5981  -30.7035   25.7799 H   0  0  0  0  0  0
  -24.8971  -32.2922   26.4763 H   0  0  0  0  0  0
  -25.8147  -30.8995   27.0223 H   0  0  0  0  0  0
  -26.2941  -29.6712   24.1210 H   0  0  0  0  0  0
  -27.4148  -29.7230   25.4621 H   0  0  0  0  0  0
  -27.8808  -30.4266   23.9334 H   0  0  0  0  0  0
  -27.2717  -33.3673   26.1895 H   0  0  0  0  0  0
  -28.4001  -32.6714   25.0340 H   0  0  0  0  0  0
  -28.0650  -31.8483   26.5482 H   0  0  0  0  0  0
  -28.2584  -38.0082   24.7556 H   0  0  0  0  0  0
  -28.1080  -36.2616   24.6268 H   0  0  0  0  0  0
  -27.2310  -37.1379   25.8883 H   0  0  0  0  0  0
  -20.9347  -29.8734   21.6861 H   0  0  0  0  0  0
  -26.0151  -38.2819   24.1475 H   0  0  0  0  0  0
  -30.5891  -20.1069   18.0510 H   0  0  0  0  0  0
  -30.5913  -18.4752   17.4869 H   0  0  0  0  0  0
  -32.4982  -16.8438   19.1806 H   0  0  0  0  0  0
  -32.3403  -17.6405   20.7497 H   0  0  0  0  0  0
  -28.6630  -18.4691   19.0502 H   0  0  0  0  0  0
  -30.2720  -16.7373   18.7727 H   0  0  0  0  0  0
  -30.6299  -23.7380   22.9375 H   0  0  0  0  0  0
  -28.9804  -24.3532   23.0309 H   0  0  0  0  0  0
  -30.1545  -25.0803   21.9171 H   0  0  0  0  0  0
  -27.4176  -24.8578   21.2853 H   0  0  0  0  0  0
  -27.0338  -24.6617   19.6367 H   0  0  0  0  0  0
  -28.1849  -22.8107   16.9607 H   0  0  0  0  0  0
  -28.1423  -24.3476   17.5970 H   0  0  0  0  0  0
  -28.9880  -15.8515   20.7546 H   0  0  0  0  0  0
  -32.1356  -19.5690   19.7017 H   0  0  0  0  0  0
  -32.7461  -18.8524   18.3640 H   0  0  0  0  0  0
  1 25  1  0  0  0
  1 30  2  0  0  0
  1 85  1  0  0  0
  2  3  1  0  0  0
  2 25  1  0  0  0
  2 87  1  0  0  0
  2 88  1  0  0  0
  3  4  1  0  0  0
  3 89  1  0  0  0
  3 90  1  0  0  0
  4  5  1  0  0  0
  4 91  1  0  0  0
  4 92  1  0  0  0
  5  6  1  0  0  0
  5 26  1  0  0  0
  5 93  1  0  0  0
  6 25  1  0  0  0
  6 94  1  0  0  0
  6 95  1  0  0  0
  7  8  2  0  0  0
  7 26  1  0  0  0
  7 29  1  0  0  0
  8  9  1  0  0  0
  8 22  1  0  0  0
  9 10  1  0  0  0
  9 27  2  0  0  0
 10 11  2  0  0  0
 10 15  1  0  0  0
 11 12  1  0  0  0
 11 96  1  0  0  0
 12 13  2  0  0  0
 12 97  1  0  0  0
 13 14  1  0  0  0
 13 31  1  0  0  0
 14 15  2  0  0  0
 14 98  1  0  0  0
 15 99  1  0  0  0
 16 17  2  0  0  0
 16 21  1  0  0  0
 16 31  1  0  0  0
 17 18  1  0  0  0
 17100  1  0  0  0
 18 19  2  0  0  0
 18101  1  0  0  0
 19 20  1  0  0  0
 19 24  1  0  0  0
 20 21  2  0  0  0
 20102  1  0  0  0
 21 23  1  0  0  0
 22 28  1  0  0  0
 22 32  2  0  0  0
 26 27  1  0  0  0
 28103  1  0  0  0
 28104  1  0  0  0
 29105  1  0  0  0
 29106  1  0  0  0
 33 34  1  0  0  0
 33 66  1  0  0  0
 33 70  2  0  0  0
 34 36  1  0  0  0
 34 59  1  0  0  0
 34107  1  0  0  0
 35 44  2  0  0  0
 35 45  1  0  0  0
 35 68  1  0  0  0
 36 56  1  0  0  0
 36108  1  0  0  0
 37 39  1  0  0  0
 37 47  1  0  0  0
 37 66  1  0  0  0
 37109  1  0  0  0
 38 43  2  0  0  0
 38 46  1  0  0  0
 38 47  1  0  0  0
 39 64  1  0  0  0
 39 67  2  0  0  0
 40 52  1  0  0  0
 40 53  2  0  0  0
 40 58  1  0  0  0
 41110  1  0  0  0
 41111  1  0  0  0
 41112  1  0  0  0
 41 48  1  0  0  0
 42 43  1  0  0  0
 42 66  1  0  0  0
 42113  1  0  0  0
 42114  1  0  0  0
 43 44  1  0  0  0
 44115  1  0  0  0
 45 46  2  0  0  0
 45116  1  0  0  0
 46117  1  0  0  0
 47118  1  0  0  0
 47119  1  0  0  0
 48 56  1  0  0  0
 48 65  1  0  0  0
 48120  1  0  0  0
 49 50  1  0  0  0
 49 53  1  0  0  0
 49 64  1  0  0  0
 49121  1  0  0  0
 50 51  1  0  0  0
 50122  1  0  0  0
 50123  1  0  0  0
 51 52  1  0  0  0
 51124  1  0  0  0
 51125  1  0  0  0
 52126  1  0  0  0
 52127  1  0  0  0
 53 54  1  0  0  0
 54 55  2  0  0  0
 54128  1  0  0  0
 55 57  1  0  0  0
 55129  1  0  0  0
 56 69  2  0  0  0
 57 58  2  0  0  0
 57130  1  0  0  0
 58131  1  0  0  0
 59 60  1  0  0  0
 59 61  1  0  0  0
 59 62  1  0  0  0
 60132  1  0  0  0
 60133  1  0  0  0
 60134  1  0  0  0
 61135  1  0  0  0
 61136  1  0  0  0
 61137  1  0  0  0
 62138  1  0  0  0
 62139  1  0  0  0
 62140  1  0  0  0
 63 65  1  0  0  0
 63141  1  0  0  0
 63142  1  0  0  0
 63143  1  0  0  0
 64144  1  0  0  0
 65145  1  0  0  0
 68 79  1  0  0  0
 71 78  1  0  0  0
 71 80  2  0  0  0
 71 83  1  0  0  0
 72 81  2  0  0  0
 72 83  1  0  0  0
 72 84  1  0  0  0
 73 80  1  0  0  0
 73 81  1  0  0  0
 73 82  2  0  0  0
 74 76  1  0  0  0
 74 86  1  0  0  0
 74146  1  0  0  0
 74147  1  0  0  0
 75 77  1  0  0  0
 75 86  1  0  0  0
 75148  1  0  0  0
 75149  1  0  0  0
 76 77  1  0  0  0
 76 82  1  0  0  0
 76150  1  0  0  0
 77 85  1  0  0  0
 77151  1  0  0  0
 78152  1  0  0  0
 78153  1  0  0  0
 78154  1  0  0  0
 79 83  1  0  0  0
 79155  1  0  0  0
 79156  1  0  0  0
 84157  1  0  0  0
 84158  1  0  0  0
 85159  1  0  0  0
 86160  1  0  0  0
 86161  1  0  0  0
M  CHG  1  86   1
M  ISO  4   1 100  68 101  79 101  85 100
M  END
> <chiral flag>
0

> <version>
0

> <s_m_source_file>
/data/baiqing/PycharmProjects/Reinvent-master-3.2/result/LINK_invent/BTK/process_docking_weight1_custom_sum_contain_oxygen_bond_distance_aromatic_linkinvent_7_9_3/rearranged_h_0181.sdf

> <i_m_source_file_index>
25

> <r_mmod_Potential_Energy-OPLS-2005>
-21.3964176177979

> <r_mmod_Stretch_Energy-OPLS-2005>
126.546249389648

> <r_mmod_Bend_Energy-OPLS-2005>
328.797729492188

> <r_mmod_Torsional_Energy-OPLS-2005>
284.4033203125

> <r_mmod_Improper_Torsional_Energy-OPLS-2005>
11.0894508361816

> <r_mmod_Van_der_Waal_Energy-OPLS-2005>
189.118347167969

> <r_mmod_Electrostatic_Energy-OPLS-2005>
-590.530822753906

> <r_mmod_Solvation_Energy-OPLS-2005>
-447.966430664062

> <b_mmod_Minimization_Converged-OPLS-2005>
0

> <r_mmod_RMS_Derivative-OPLS-2005>
5.30039501190186

$$$$
25
                    3D
 Structure written by MMmdl.
157166  0  0  1  0            999 V2000
  -30.6270  -14.8429   20.4451 C   0  0  0  0  0  0
  -30.4339  -12.5309   19.4648 C   0  0  0  0  0  0
  -29.5013  -12.4988   18.2346 C   0  0  0  0  0  0
  -28.0407  -12.2732   18.6690 C   0  0  0  0  0  0
  -27.6260  -13.2025   19.8353 C   0  0  2  0  0  0
  -28.6857  -13.2208   20.9644 C   0  0  0  0  0  0
  -25.2437  -13.8079   20.5657 C   0  0  0  0  0  0
  -24.1747  -13.0360   20.9237 C   0  0  0  0  0  0
  -24.6334  -11.6845   20.8799 C   0  0  0  0  0  0
  -23.9016  -10.4247   21.0440 C   0  0  0  0  0  0
  -24.3584   -9.4171   21.9207 C   0  0  0  0  0  0
  -23.6261   -8.2211   22.0761 C   0  0  0  0  0  0
  -22.4247   -8.0256   21.3545 C   0  0  0  0  0  0
  -21.9881   -9.0229   20.4649 C   0  0  0  0  0  0
  -22.7203  -10.2105   20.3070 C   0  0  0  0  0  0
  -21.6835   -6.0726   22.5282 C   0  0  0  0  0  0
  -21.4007   -6.5638   23.8216 C   0  0  0  0  0  0
  -21.3650   -5.6791   24.9175 C   0  0  0  0  0  0
  -21.6042   -4.3056   24.7227 C   0  0  0  0  0  0
  -21.8821   -3.8145   23.4349 C   0  0  0  0  0  0
  -21.9190   -4.6958   22.3404 C   0  0  0  0  0  0
  -22.7784  -13.5179   21.1874 C   0  0  0  0  0  0
  -22.1661   -4.2151   21.0978 F   0  0  0  0  0  0
  -21.5617   -3.4537   25.7738 F   0  0  0  0  0  0
  -29.9618  -13.6246   20.3550 N   0  0  0  0  0  0
  -26.2854  -12.9238   20.3276 N   0  0  0  0  0  0
  -25.9256  -11.6422   20.5823 N   0  0  0  0  0  0
  -22.0422  -12.8199   22.0439 N   0  0  0  0  0  0
  -25.3982  -15.1796   20.3943 N   0  0  0  0  0  0
  -31.8429  -14.8464   20.2288 O   0  0  0  0  0  0
  -21.6612   -6.8860   21.4241 O   0  0  0  0  0  0
  -22.3490  -14.5491   20.6707 O   0  0  0  0  0  0
  -24.6331  -31.8525   23.1963 C   0  0  0  0  0  0
  -25.9147  -32.4738   23.8318 C   0  0  1  0  0  0
  -27.2284  -27.2448   20.1468 C   0  0  0  0  0  0
  -25.5930  -33.8540   24.2240 N   0  0  0  0  0  0
  -23.4322  -30.4725   21.5398 C   0  0  2  0  0  0
  -24.8826  -28.9113   20.1167 C   0  0  0  0  0  0
  -22.7512  -29.4593   22.4916 C   0  0  0  0  0  0
  -18.0289  -28.1395   22.8478 C   0  0  0  0  0  0
  -24.1484  -36.7273   23.2643 C   0  0  0  0  0  0
  -25.9789  -30.7620   21.3774 C   0  0  0  0  0  0
  -26.0550  -29.3808   20.7241 C   0  0  0  0  0  0
  -27.2327  -28.5625   20.7223 C   0  0  0  0  0  0
  -26.0346  -26.8452   19.5085 C   0  0  0  0  0  0
  -24.8782  -27.6510   19.4976 C   0  0  0  0  0  0
  -23.6527  -29.7997   20.1592 C   0  0  0  0  0  0
  -25.4114  -36.3059   24.0323 C   0  0  1  0  0  0
  -20.5892  -28.3712   23.1258 C   0  0  2  0  0  0
  -20.6774  -26.9425   22.5404 C   0  0  0  0  0  0
  -19.5750  -26.6389   21.5207 C   0  0  0  0  0  0
  -18.1933  -26.7934   22.1623 C   0  0  0  0  0  0
  -19.1543  -28.8870   23.2862 C   0  0  0  0  0  0
  -18.9466  -30.1469   23.8884 C   0  0  0  0  0  0
  -17.6463  -30.6594   24.0563 C   0  0  0  0  0  0
  -25.9058  -34.9430   23.5089 C   0  0  0  0  0  0
  -16.5355  -29.9088   23.6334 C   0  0  0  0  0  0
  -16.7275  -28.6506   23.0356 C   0  0  0  0  0  0
  -26.4507  -31.6578   25.0723 C   0  0  0  0  0  0
  -25.3723  -31.3738   26.1442 C   0  0  0  0  0  0
  -27.0364  -30.2990   24.6236 C   0  0  0  0  0  0
  -27.6054  -32.4329   25.7502 C   0  0  0  0  0  0
  -27.5571  -37.1794   24.8472 C   0  0  0  0  0  0
  -21.4217  -29.3048   22.3645 N   0  0  0  0  0  0
  -26.4287  -37.3760   23.9408 N   0  0  0  0  0  0
  -24.7006  -31.0473   22.0945 N   0  0  0  0  0  0
  -23.4189  -28.8141   23.3038 O   0  0  0  0  0  0
  -28.3188  -26.3398   20.1566 O   0  0  0  0  0  0
  -26.5638  -34.8912   22.4664 O   0  0  0  0  0  0
  -23.5473  -32.1358   23.7240 O   0  0  0  0  0  0
  -29.2412  -23.6782   18.7243 C   0  0  0  0  0  0
  -29.7413  -22.4949   18.1564 C   0  0  0  0  0  0
  -28.7958  -23.6413   20.0516 C   0  0  0  0  0  0
  -29.3914  -21.3055   20.0941 C   0  0  0  0  0  0
  -28.2628  -17.8878   20.4232 C   0  0  0  0  0  0
  -28.5566  -16.3746   20.2661 C   0  0  0  0  0  0
  -30.5590  -17.4780   20.7558 C   0  0  0  0  0  0
  -29.5769  -18.6256   20.1998 C   0  0  2  0  0  0
  -30.2386  -22.4709   16.7264 C   0  0  0  0  0  0
  -28.1002  -24.9383   20.6913 C   0  0  0  0  0  0
  -29.7991  -21.3271   18.8349 N   0  0  0  0  0  0
  -28.8996  -22.4169   20.7243 N   0  0  0  0  0  0
  -29.9564  -16.0821   20.6008 N   0  0  0  0  0  0
  -29.5498  -20.0443   20.7711 N   0  0  0  0  0  0
  -31.4654  -12.6760   19.1397 H   0  0  0  0  0  0
  -30.4199  -11.5735   19.9878 H   0  0  0  0  0  0
  -29.8113  -11.7127   17.5448 H   0  0  0  0  0  0
  -29.5826  -13.4378   17.6849 H   0  0  0  0  0  0
  -27.9440  -11.2319   18.9784 H   0  0  0  0  0  0
  -27.3669  -12.4038   17.8210 H   0  0  0  0  0  0
  -27.5694  -14.1766   19.3693 H   0  0  0  0  0  0
  -28.7730  -12.2352   21.4240 H   0  0  0  0  0  0
  -28.4071  -13.8961   21.7729 H   0  0  0  0  0  0
  -25.2724   -9.5652   22.4786 H   0  0  0  0  0  0
  -23.9969   -7.4600   22.7477 H   0  0  0  0  0  0
  -21.0814   -8.8748   19.8950 H   0  0  0  0  0  0
  -22.3665  -10.9652   19.6188 H   0  0  0  0  0  0
  -21.2003   -7.6148   23.9718 H   0  0  0  0  0  0
  -21.1461   -6.0519   25.9076 H   0  0  0  0  0  0
  -22.0605   -2.7608   23.2846 H   0  0  0  0  0  0
  -22.4028  -11.9871   22.4857 H   0  0  0  0  0  0
  -21.1047  -13.1259   22.2631 H   0  0  0  0  0  0
  -24.6224  -15.8224   20.5071 H   0  0  0  0  0  0
  -26.2371  -15.6284   20.0522 H   0  0  0  0  0  0
  -26.7218  -32.5391   23.1065 H   0  0  0  0  0  0
  -25.0060  -33.9674   25.0372 H   0  0  0  0  0  0
  -22.7305  -31.2954   21.3889 H   0  0  0  0  0  0
  -23.3741  -35.9612   23.3316 H   0  0  0  0  0  0
  -24.3569  -36.8888   22.2056 H   0  0  0  0  0  0
  -23.7244  -37.6477   23.6664 H   0  0  0  0  0  0
  -26.1165  -31.5186   20.6037 H   0  0  0  0  0  0
  -26.8557  -30.8156   22.0112 H   0  0  0  0  0  0
  -28.1330  -28.9214   21.2019 H   0  0  0  0  0  0
  -25.9859  -25.8812   19.0225 H   0  0  0  0  0  0
  -23.9815  -27.2856   19.0163 H   0  0  0  0  0  0
  -23.7782  -30.5723   19.3997 H   0  0  0  0  0  0
  -22.7719  -29.2309   19.8555 H   0  0  0  0  0  0
  -25.1296  -36.1904   25.0813 H   0  0  0  0  0  0
  -20.9979  -28.3293   24.1381 H   0  0  0  0  0  0
  -20.5662  -26.2325   23.3615 H   0  0  0  0  0  0
  -21.6644  -26.7441   22.1208 H   0  0  0  0  0  0
  -19.6912  -25.6295   21.1246 H   0  0  0  0  0  0
  -19.6684  -27.3191   20.6729 H   0  0  0  0  0  0
  -17.4197  -26.6673   21.4034 H   0  0  0  0  0  0
  -18.0345  -26.0083   22.9027 H   0  0  0  0  0  0
  -19.7944  -30.7287   24.2247 H   0  0  0  0  0  0
  -17.5021  -31.6273   24.5170 H   0  0  0  0  0  0
  -15.5354  -30.2988   23.7675 H   0  0  0  0  0  0
  -15.8676  -28.0824   22.7081 H   0  0  0  0  0  0
  -24.5899  -30.7088   25.7770 H   0  0  0  0  0  0
  -24.8915  -32.2911   26.4848 H   0  0  0  0  0  0
  -25.8030  -30.8927   27.0233 H   0  0  0  0  0  0
  -26.2964  -29.6729   24.1239 H   0  0  0  0  0  0
  -27.4009  -29.7265   25.4776 H   0  0  0  0  0  0
  -27.8850  -30.4252   23.9512 H   0  0  0  0  0  0
  -27.2652  -33.3634   26.2063 H   0  0  0  0  0  0
  -28.3873  -32.6886   25.0338 H   0  0  0  0  0  0
  -28.0717  -31.8470   26.5435 H   0  0  0  0  0  0
  -28.2604  -38.0077   24.7491 H   0  0  0  0  0  0
  -28.1049  -36.2603   24.6329 H   0  0  0  0  0  0
  -27.2286  -37.1485   25.8877 H   0  0  0  0  0  0
  -20.9416  -29.8751   21.6824 H   0  0  0  0  0  0
  -26.0160  -38.2833   24.1401 H   0  0  0  0  0  0
  -29.1782  -24.5966   18.1537 H   0  0  0  0  0  0
  -27.9072  -18.0702   21.4386 H   0  0  0  0  0  0
  -27.4767  -18.2268   19.7466 H   0  0  0  0  0  0
  -27.8793  -15.8227   20.9096 H   0  0  0  0  0  0
  -28.3931  -16.1037   19.2234 H   0  0  0  0  0  0
  -30.7362  -17.6313   21.8212 H   0  0  0  0  0  0
  -31.5331  -17.5353   20.2682 H   0  0  0  0  0  0
  -29.7395  -18.7007   19.1236 H   0  0  0  0  0  0
  -31.0412  -21.7443   16.6021 H   0  0  0  0  0  0
  -30.6250  -23.4468   16.4328 H   0  0  0  0  0  0
  -29.4289  -22.2079   16.0466 H   0  0  0  0  0  0
  -28.4113  -24.9720   21.7353 H   0  0  0  0  0  0
  -27.0336  -24.7178   20.7340 H   0  0  0  0  0  0
  -29.3031  -20.0929   21.7521 H   0  0  0  0  0  0
  1 25  1  0  0  0
  1 30  2  0  0  0
  1 83  1  0  0  0
  2  3  1  0  0  0
  2 25  1  0  0  0
  2 85  1  0  0  0
  2 86  1  0  0  0
  3  4  1  0  0  0
  3 87  1  0  0  0
  3 88  1  0  0  0
  4  5  1  0  0  0
  4 89  1  0  0  0
  4 90  1  0  0  0
  5  6  1  0  0  0
  5 26  1  0  0  0
  5 91  1  0  0  0
  6 25  1  0  0  0
  6 92  1  0  0  0
  6 93  1  0  0  0
  7  8  2  0  0  0
  7 26  1  0  0  0
  7 29  1  0  0  0
  8  9  1  0  0  0
  8 22  1  0  0  0
  9 10  1  0  0  0
  9 27  2  0  0  0
 10 11  2  0  0  0
 10 15  1  0  0  0
 11 12  1  0  0  0
 11 94  1  0  0  0
 12 13  2  0  0  0
 12 95  1  0  0  0
 13 14  1  0  0  0
 13 31  1  0  0  0
 14 15  2  0  0  0
 14 96  1  0  0  0
 15 97  1  0  0  0
 16 17  2  0  0  0
 16 21  1  0  0  0
 16 31  1  0  0  0
 17 18  1  0  0  0
 17 98  1  0  0  0
 18 19  2  0  0  0
 18 99  1  0  0  0
 19 20  1  0  0  0
 19 24  1  0  0  0
 20 21  2  0  0  0
 20100  1  0  0  0
 21 23  1  0  0  0
 22 28  1  0  0  0
 22 32  2  0  0  0
 26 27  1  0  0  0
 28101  1  0  0  0
 28102  1  0  0  0
 29103  1  0  0  0
 29104  1  0  0  0
 33 34  1  0  0  0
 33 66  1  0  0  0
 33 70  2  0  0  0
 34 36  1  0  0  0
 34 59  1  0  0  0
 34105  1  0  0  0
 35 44  2  0  0  0
 35 45  1  0  0  0
 35 68  1  0  0  0
 36 56  1  0  0  0
 36106  1  0  0  0
 37 39  1  0  0  0
 37 47  1  0  0  0
 37 66  1  0  0  0
 37107  1  0  0  0
 38 43  2  0  0  0
 38 46  1  0  0  0
 38 47  1  0  0  0
 39 64  1  0  0  0
 39 67  2  0  0  0
 40 52  1  0  0  0
 40 53  2  0  0  0
 40 58  1  0  0  0
 41108  1  0  0  0
 41109  1  0  0  0
 41110  1  0  0  0
 41 48  1  0  0  0
 42 43  1  0  0  0
 42 66  1  0  0  0
 42111  1  0  0  0
 42112  1  0  0  0
 43 44  1  0  0  0
 44113  1  0  0  0
 45 46  2  0  0  0
 45114  1  0  0  0
 46115  1  0  0  0
 47116  1  0  0  0
 47117  1  0  0  0
 48 56  1  0  0  0
 48 65  1  0  0  0
 48118  1  0  0  0
 49 50  1  0  0  0
 49 53  1  0  0  0
 49 64  1  0  0  0
 49119  1  0  0  0
 50 51  1  0  0  0
 50120  1  0  0  0
 50121  1  0  0  0
 51 52  1  0  0  0
 51122  1  0  0  0
 51123  1  0  0  0
 52124  1  0  0  0
 52125  1  0  0  0
 53 54  1  0  0  0
 54 55  2  0  0  0
 54126  1  0  0  0
 55 57  1  0  0  0
 55127  1  0  0  0
 56 69  2  0  0  0
 57 58  2  0  0  0
 57128  1  0  0  0
 58129  1  0  0  0
 59 60  1  0  0  0
 59 61  1  0  0  0
 59 62  1  0  0  0
 60130  1  0  0  0
 60131  1  0  0  0
 60132  1  0  0  0
 61133  1  0  0  0
 61134  1  0  0  0
 61135  1  0  0  0
 62136  1  0  0  0
 62137  1  0  0  0
 62138  1  0  0  0
 63 65  1  0  0  0
 63139  1  0  0  0
 63140  1  0  0  0
 63141  1  0  0  0
 64142  1  0  0  0
 65143  1  0  0  0
 68 80  1  0  0  0
 71 72  2  0  0  0
 71 73  1  0  0  0
 71144  1  0  0  0
 72 79  1  0  0  0
 72 81  1  0  0  0
 73 80  1  0  0  0
 73 82  2  0  0  0
 74 81  2  0  0  0
 74 82  1  0  0  0
 74 84  1  0  0  0
 75 76  1  0  0  0
 75 78  1  0  0  0
 75145  1  0  0  0
 75146  1  0  0  0
 76 83  1  0  0  0
 76147  1  0  0  0
 76148  1  0  0  0
 77 78  1  0  0  0
 77 83  1  0  0  0
 77149  1  0  0  0
 77150  1  0  0  0
 78 84  1  0  0  0
 78151  1  0  0  0
 79152  1  0  0  0
 79153  1  0  0  0
 79154  1  0  0  0
 80155  1  0  0  0
 80156  1  0  0  0
 84157  1  0  0  0
M  ISO  4   1 100  68 101  80 101  83 100
M  END
> <chiral flag>
0

> <version>
0

> <s_m_source_file>
/data/baiqing/PycharmProjects/Reinvent-master-3.2/result/LINK_invent/BTK/process_docking_weight1_custom_sum_contain_oxygen_bond_distance_aromatic_linkinvent_7_9_3/rearranged_h_0181.sdf

> <i_m_source_file_index>
26

> <r_mmod_Potential_Energy-OPLS-2005>
-129.391952514648

> <r_mmod_Stretch_Energy-OPLS-2005>
135.448822021484

> <r_mmod_Bend_Energy-OPLS-2005>
215.566604614258

> <r_mmod_Torsional_Energy-OPLS-2005>
327.542816162109

> <r_mmod_Improper_Torsional_Energy-OPLS-2005>
5.68355751037598

> <r_mmod_Van_der_Waal_Energy-OPLS-2005>
143.240615844727

> <r_mmod_Electrostatic_Energy-OPLS-2005>
-830.935607910156

> <r_mmod_Solvation_Energy-OPLS-2005>
-243.473846435547

> <b_mmod_Minimization_Converged-OPLS-2005>
0

> <r_mmod_RMS_Derivative-OPLS-2005>
0.971842646598816

$$$$
26
                    3D
 Structure written by MMmdl.
155164  0  0  1  0            999 V2000
  -30.5938  -14.9107   20.4514 C   0  0  0  0  0  0
  -30.4374  -12.5710   19.4908 C   0  0  0  0  0  0
  -29.5168  -12.5390   18.2496 C   0  0  0  0  0  0
  -28.0473  -12.3339   18.6647 C   0  0  0  0  0  0
  -27.6353  -13.2469   19.8494 C   0  0  2  0  0  0
  -28.6860  -13.2278   20.9813 C   0  0  0  0  0  0
  -25.2446  -13.8202   20.5681 C   0  0  0  0  0  0
  -24.1778  -13.0424   20.9226 C   0  0  0  0  0  0
  -24.6407  -11.6920   20.8769 C   0  0  0  0  0  0
  -23.9089  -10.4289   21.0410 C   0  0  0  0  0  0
  -24.3632   -9.4200   21.9187 C   0  0  0  0  0  0
  -23.6303   -8.2237   22.0749 C   0  0  0  0  0  0
  -22.4281   -8.0282   21.3545 C   0  0  0  0  0  0
  -21.9926   -9.0260   20.4646 C   0  0  0  0  0  0
  -22.7261  -10.2135   20.3054 C   0  0  0  0  0  0
  -21.6848   -6.0740   22.5279 C   0  0  0  0  0  0
  -21.4011   -6.5640   23.8215 C   0  0  0  0  0  0
  -21.3662   -5.6788   24.9173 C   0  0  0  0  0  0
  -21.6048   -4.3053   24.7218 C   0  0  0  0  0  0
  -21.8821   -3.8148   23.4338 C   0  0  0  0  0  0
  -21.9188   -4.6969   22.3399 C   0  0  0  0  0  0
  -22.7793  -13.5193   21.1873 C   0  0  0  0  0  0
  -22.1657   -4.2159   21.0976 F   0  0  0  0  0  0
  -21.5630   -3.4535   25.7728 F   0  0  0  0  0  0
  -29.9580  -13.6658   20.3860 N   0  0  0  0  0  0
  -26.2912  -12.9453   20.3303 N   0  0  0  0  0  0
  -25.9349  -11.6580   20.5786 N   0  0  0  0  0  0
  -22.0442  -12.8196   22.0440 N   0  0  0  0  0  0
  -25.4019  -15.1920   20.3994 N   0  0  0  0  0  0
  -31.7828  -14.9360   20.1126 O   0  0  0  0  0  0
  -21.6637   -6.8886   21.4241 O   0  0  0  0  0  0
  -22.3480  -14.5494   20.6710 O   0  0  0  0  0  0
  -24.6437  -31.8457   23.1914 C   0  0  0  0  0  0
  -25.9216  -32.4701   23.8297 C   0  0  1  0  0  0
  -27.2136  -27.1443   20.1368 C   0  0  0  0  0  0
  -25.5972  -33.8507   24.2212 N   0  0  0  0  0  0
  -23.4465  -30.4685   21.5376 C   0  0  2  0  0  0
  -24.8947  -28.9038   20.1089 C   0  0  0  0  0  0
  -22.7569  -29.4561   22.4867 C   0  0  0  0  0  0
  -18.0303  -28.1391   22.8477 C   0  0  0  0  0  0
  -24.1492  -36.7250   23.2640 C   0  0  0  0  0  0
  -26.0044  -30.7194   21.3930 C   0  0  0  0  0  0
  -26.0743  -29.3344   20.7298 C   0  0  0  0  0  0
  -27.2341  -28.4697   20.7318 C   0  0  0  0  0  0
  -26.0078  -26.8276   19.4655 C   0  0  0  0  0  0
  -24.8747  -27.6628   19.4626 C   0  0  0  0  0  0
  -23.6717  -29.8044   20.1550 C   0  0  0  0  0  0
  -25.4121  -36.3032   24.0319 C   0  0  1  0  0  0
  -20.5919  -28.3722   23.1229 C   0  0  2  0  0  0
  -20.6788  -26.9424   22.5400 C   0  0  0  0  0  0
  -19.5761  -26.6379   21.5210 C   0  0  0  0  0  0
  -18.1944  -26.7931   22.1621 C   0  0  0  0  0  0
  -19.1563  -28.8875   23.2845 C   0  0  0  0  0  0
  -18.9474  -30.1469   23.8871 C   0  0  0  0  0  0
  -17.6471  -30.6589   24.0557 C   0  0  0  0  0  0
  -25.9074  -34.9409   23.5070 C   0  0  0  0  0  0
  -16.5362  -29.9079   23.6340 C   0  0  0  0  0  0
  -16.7287  -28.6498   23.0362 C   0  0  0  0  0  0
  -26.4533  -31.6563   25.0734 C   0  0  0  0  0  0
  -25.3721  -31.3760   26.1434 C   0  0  0  0  0  0
  -27.0398  -30.2953   24.6326 C   0  0  0  0  0  0
  -27.6062  -32.4333   25.7514 C   0  0  0  0  0  0
  -27.5580  -37.1777   24.8459 C   0  0  0  0  0  0
  -21.4261  -29.3052   22.3605 N   0  0  0  0  0  0
  -26.4281  -37.3747   23.9415 N   0  0  0  0  0  0
  -24.7180  -31.0318   22.0952 N   0  0  0  0  0  0
  -23.4216  -28.8100   23.3008 O   0  0  0  0  0  0
  -28.2451  -26.1342   20.2204 O   0  0  0  0  0  0
  -26.5652  -34.8901   22.4642 O   0  0  0  0  0  0
  -23.5555  -32.1335   23.7134 O   0  0  0  0  0  0
  -28.7104  -21.1735   21.4358 C   0  0  0  0  0  0
  -29.1611  -20.3259   20.3726 C   0  0  0  0  0  0
  -29.3983  -21.1511   19.2277 C   0  0  0  0  0  0
  -28.6673  -23.2320   20.2098 C   0  0  0  0  0  0
  -28.6133  -17.9900   21.6816 C   0  0  0  0  0  0
  -28.7839  -16.4417   21.4982 C   0  0  0  0  0  0
  -30.2876  -17.5735   20.0958 C   0  0  0  0  0  0
  -29.1242  -18.6686   20.4046 C   0  0  2  0  0  0
  -29.8780  -20.5244   17.9342 C   0  0  0  0  0  0
  -27.8679  -24.6541   19.9305 C   0  0  0  0  0  0
  -28.4651  -22.5369   21.3510 N   0  0  0  0  0  0
  -29.1546  -22.5182   19.1648 N   0  0  0  0  0  0
  -29.8893  -16.1513   20.5678 N   0  0  0  0  0  0
  -31.4722  -12.7119   19.1758 H   0  0  0  0  0  0
  -30.4218  -11.6104   20.0081 H   0  0  0  0  0  0
  -29.8276  -11.7477   17.5661 H   0  0  0  0  0  0
  -29.6155  -13.4757   17.6980 H   0  0  0  0  0  0
  -27.9287  -11.2876   18.9482 H   0  0  0  0  0  0
  -27.3854  -12.4949   17.8124 H   0  0  0  0  0  0
  -27.6104  -14.2601   19.4479 H   0  0  0  0  0  0
  -28.7772  -12.2256   21.4036 H   0  0  0  0  0  0
  -28.3878  -13.8628   21.8119 H   0  0  0  0  0  0
  -25.2769   -9.5672   22.4774 H   0  0  0  0  0  0
  -24.0007   -7.4620   22.7460 H   0  0  0  0  0  0
  -21.0856   -8.8787   19.8953 H   0  0  0  0  0  0
  -22.3722  -10.9678   19.6165 H   0  0  0  0  0  0
  -21.2007   -7.6148   23.9729 H   0  0  0  0  0  0
  -21.1480   -6.0511   25.9081 H   0  0  0  0  0  0
  -22.0600   -2.7611   23.2827 H   0  0  0  0  0  0
  -22.4054  -11.9862   22.4842 H   0  0  0  0  0  0
  -21.1059  -13.1227   22.2633 H   0  0  0  0  0  0
  -24.6254  -15.8360   20.5004 H   0  0  0  0  0  0
  -26.2381  -15.6341   20.0417 H   0  0  0  0  0  0
  -26.7279  -32.5304   23.1023 H   0  0  0  0  0  0
  -25.0123  -33.9626   25.0364 H   0  0  0  0  0  0
  -22.7489  -31.2951   21.3871 H   0  0  0  0  0  0
  -23.3766  -35.9568   23.3269 H   0  0  0  0  0  0
  -24.3586  -36.8908   22.2060 H   0  0  0  0  0  0
  -23.7226  -37.6430   23.6691 H   0  0  0  0  0  0
  -26.1657  -31.4761   20.6243 H   0  0  0  0  0  0
  -26.8729  -30.7632   22.0389 H   0  0  0  0  0  0
  -28.1285  -28.7926   21.2461 H   0  0  0  0  0  0
  -25.8854  -25.8905   18.9464 H   0  0  0  0  0  0
  -23.9763  -27.3301   18.9602 H   0  0  0  0  0  0
  -23.8079  -30.5823   19.4029 H   0  0  0  0  0  0
  -22.7863  -29.2482   19.8430 H   0  0  0  0  0  0
  -25.1305  -36.1857   25.0810 H   0  0  0  0  0  0
  -21.0012  -28.3306   24.1349 H   0  0  0  0  0  0
  -20.5672  -26.2339   23.3623 H   0  0  0  0  0  0
  -21.6652  -26.7424   22.1199 H   0  0  0  0  0  0
  -19.6920  -25.6281   21.1258 H   0  0  0  0  0  0
  -19.6695  -27.3173   20.6727 H   0  0  0  0  0  0
  -17.4213  -26.6677   21.4023 H   0  0  0  0  0  0
  -18.0339  -26.0076   22.9018 H   0  0  0  0  0  0
  -19.7947  -30.7294   24.2229 H   0  0  0  0  0  0
  -17.5021  -31.6269   24.5157 H   0  0  0  0  0  0
  -15.5360  -30.2972   23.7676 H   0  0  0  0  0  0
  -15.8688  -28.0804   22.7099 H   0  0  0  0  0  0
  -24.5896  -30.7109   25.7757 H   0  0  0  0  0  0
  -24.8921  -32.2948   26.4811 H   0  0  0  0  0  0
  -25.8006  -30.8963   27.0241 H   0  0  0  0  0  0
  -26.3022  -29.6676   24.1312 H   0  0  0  0  0  0
  -27.3972  -29.7249   25.4909 H   0  0  0  0  0  0
  -27.8948  -30.4171   23.9674 H   0  0  0  0  0  0
  -27.2649  -33.3648   26.2042 H   0  0  0  0  0  0
  -28.3898  -32.6872   25.0363 H   0  0  0  0  0  0
  -28.0708  -31.8499   26.5474 H   0  0  0  0  0  0
  -28.2563  -38.0107   24.7544 H   0  0  0  0  0  0
  -28.1112  -36.2640   24.6235 H   0  0  0  0  0  0
  -27.2310  -37.1355   25.8863 H   0  0  0  0  0  0
  -20.9472  -29.8779   21.6796 H   0  0  0  0  0  0
  -26.0147  -38.2807   24.1443 H   0  0  0  0  0  0
  -28.4486  -20.7298   22.3848 H   0  0  0  0  0  0
  -29.2186  -18.3158   22.5292 H   0  0  0  0  0  0
  -27.5786  -18.2527   21.9063 H   0  0  0  0  0  0
  -27.8683  -16.0287   21.0823 H   0  0  0  0  0  0
  -28.9527  -15.9644   22.4645 H   0  0  0  0  0  0
  -31.2024  -17.8491   20.6223 H   0  0  0  0  0  0
  -30.5340  -17.5562   19.0333 H   0  0  0  0  0  0
  -28.3625  -18.4552   19.6527 H   0  0  0  0  0  0
  -30.8794  -20.1155   18.0653 H   0  0  0  0  0  0
  -29.9134  -21.2516   17.1224 H   0  0  0  0  0  0
  -29.2150  -19.7151   17.6290 H   0  0  0  0  0  0
  -26.9082  -24.4928   20.4231 H   0  0  0  0  0  0
  -27.6542  -24.6225   18.8618 H   0  0  0  0  0  0
  1 25  1  0  0  0
  1 30  2  0  0  0
  1 83  1  0  0  0
  2  3  1  0  0  0
  2 25  1  0  0  0
  2 84  1  0  0  0
  2 85  1  0  0  0
  3  4  1  0  0  0
  3 86  1  0  0  0
  3 87  1  0  0  0
  4  5  1  0  0  0
  4 88  1  0  0  0
  4 89  1  0  0  0
  5  6  1  0  0  0
  5 26  1  0  0  0
  5 90  1  0  0  0
  6 25  1  0  0  0
  6 91  1  0  0  0
  6 92  1  0  0  0
  7  8  2  0  0  0
  7 26  1  0  0  0
  7 29  1  0  0  0
  8  9  1  0  0  0
  8 22  1  0  0  0
  9 10  1  0  0  0
  9 27  2  0  0  0
 10 11  2  0  0  0
 10 15  1  0  0  0
 11 12  1  0  0  0
 11 93  1  0  0  0
 12 13  2  0  0  0
 12 94  1  0  0  0
 13 14  1  0  0  0
 13 31  1  0  0  0
 14 15  2  0  0  0
 14 95  1  0  0  0
 15 96  1  0  0  0
 16 17  2  0  0  0
 16 21  1  0  0  0
 16 31  1  0  0  0
 17 18  1  0  0  0
 17 97  1  0  0  0
 18 19  2  0  0  0
 18 98  1  0  0  0
 19 20  1  0  0  0
 19 24  1  0  0  0
 20 21  2  0  0  0
 20 99  1  0  0  0
 21 23  1  0  0  0
 22 28  1  0  0  0
 22 32  2  0  0  0
 26 27  1  0  0  0
 28100  1  0  0  0
 28101  1  0  0  0
 29102  1  0  0  0
 29103  1  0  0  0
 33 34  1  0  0  0
 33 66  1  0  0  0
 33 70  2  0  0  0
 34 36  1  0  0  0
 34 59  1  0  0  0
 34104  1  0  0  0
 35 44  2  0  0  0
 35 45  1  0  0  0
 35 68  1  0  0  0
 36 56  1  0  0  0
 36105  1  0  0  0
 37 39  1  0  0  0
 37 47  1  0  0  0
 37 66  1  0  0  0
 37106  1  0  0  0
 38 43  2  0  0  0
 38 46  1  0  0  0
 38 47  1  0  0  0
 39 64  1  0  0  0
 39 67  2  0  0  0
 40 52  1  0  0  0
 40 53  2  0  0  0
 40 58  1  0  0  0
 41107  1  0  0  0
 41108  1  0  0  0
 41109  1  0  0  0
 41 48  1  0  0  0
 42 43  1  0  0  0
 42 66  1  0  0  0
 42110  1  0  0  0
 42111  1  0  0  0
 43 44  1  0  0  0
 44112  1  0  0  0
 45 46  2  0  0  0
 45113  1  0  0  0
 46114  1  0  0  0
 47115  1  0  0  0
 47116  1  0  0  0
 48 56  1  0  0  0
 48 65  1  0  0  0
 48117  1  0  0  0
 49 50  1  0  0  0
 49 53  1  0  0  0
 49 64  1  0  0  0
 49118  1  0  0  0
 50 51  1  0  0  0
 50119  1  0  0  0
 50120  1  0  0  0
 51 52  1  0  0  0
 51121  1  0  0  0
 51122  1  0  0  0
 52123  1  0  0  0
 52124  1  0  0  0
 53 54  1  0  0  0
 54 55  2  0  0  0
 54125  1  0  0  0
 55 57  1  0  0  0
 55126  1  0  0  0
 56 69  2  0  0  0
 57 58  2  0  0  0
 57127  1  0  0  0
 58128  1  0  0  0
 59 60  1  0  0  0
 59 61  1  0  0  0
 59 62  1  0  0  0
 60129  1  0  0  0
 60130  1  0  0  0
 60131  1  0  0  0
 61132  1  0  0  0
 61133  1  0  0  0
 61134  1  0  0  0
 62135  1  0  0  0
 62136  1  0  0  0
 62137  1  0  0  0
 63 65  1  0  0  0
 63138  1  0  0  0
 63139  1  0  0  0
 63140  1  0  0  0
 64141  1  0  0  0
 65142  1  0  0  0
 68 80  1  0  0  0
 71 72  2  0  0  0
 71 81  1  0  0  0
 71143  1  0  0  0
 72 73  1  0  0  0
 72 78  1  0  0  0
 73 79  1  0  0  0
 73 82  2  0  0  0
 74 80  1  0  0  0
 74 81  2  0  0  0
 74 82  1  0  0  0
 75 76  1  0  0  0
 75 78  1  0  0  0
 75144  1  0  0  0
 75145  1  0  0  0
 76 83  1  0  0  0
 76146  1  0  0  0
 76147  1  0  0  0
 77 78  1  0  0  0
 77 83  1  0  0  0
 77148  1  0  0  0
 77149  1  0  0  0
 78150  1  0  0  0
 79151  1  0  0  0
 79152  1  0  0  0
 79153  1  0  0  0
 80154  1  0  0  0
 80155  1  0  0  0
M  ISO  4   1 100  68 101  80 101  83 100
M  END
> <chiral flag>
0

> <version>
0

> <s_m_source_file>
/data/baiqing/PycharmProjects/Reinvent-master-3.2/result/LINK_invent/BTK/process_docking_weight1_custom_sum_contain_oxygen_bond_distance_aromatic_linkinvent_7_9_3/rearranged_h_0181.sdf

> <i_m_source_file_index>
27

> <r_mmod_Potential_Energy-OPLS-2005>
289.955474853516

> <r_mmod_Stretch_Energy-OPLS-2005>
213.921264648438

> <r_mmod_Bend_Energy-OPLS-2005>
300.723022460938

> <r_mmod_Torsional_Energy-OPLS-2005>
315.104156494141

> <r_mmod_Improper_Torsional_Energy-OPLS-2005>
15.3153953552246

> <r_mmod_Van_der_Waal_Energy-OPLS-2005>
141.007263183594

> <r_mmod_Electrostatic_Energy-OPLS-2005>
-637.836975097656

> <r_mmod_Solvation_Energy-OPLS-2005>
-231.277191162109

> <b_mmod_Minimization_Converged-OPLS-2005>
0

> <r_mmod_RMS_Derivative-OPLS-2005>
0.931467890739441

$$$$
27
                    3D
 Structure written by MMmdl.
151159  0  0  1  0            999 V2000
  -30.4645  -15.2136   20.3805 C   0  0  0  0  0  0
  -30.4388  -12.7742   19.5216 C   0  0  0  0  0  0
  -29.5325  -12.5597   18.2844 C   0  0  0  0  0  0
  -28.0794  -12.2923   18.7144 C   0  0  0  0  0  0
  -27.6131  -13.2691   19.8225 C   0  0  2  0  0  0
  -28.6479  -13.4281   20.9563 C   0  0  0  0  0  0
  -25.2397  -13.8236   20.5743 C   0  0  0  0  0  0
  -24.1743  -13.0431   20.9247 C   0  0  0  0  0  0
  -24.6394  -11.6929   20.8761 C   0  0  0  0  0  0
  -23.9092  -10.4284   21.0404 C   0  0  0  0  0  0
  -24.3635   -9.4201   21.9184 C   0  0  0  0  0  0
  -23.6300   -8.2242   22.0760 C   0  0  0  0  0  0
  -22.4283   -8.0280   21.3548 C   0  0  0  0  0  0
  -21.9924   -9.0252   20.4647 C   0  0  0  0  0  0
  -22.7263  -10.2126   20.3052 C   0  0  0  0  0  0
  -21.6851   -6.0731   22.5274 C   0  0  0  0  0  0
  -21.4012   -6.5637   23.8206 C   0  0  0  0  0  0
  -21.3657   -5.6791   24.9168 C   0  0  0  0  0  0
  -21.6045   -4.3052   24.7220 C   0  0  0  0  0  0
  -21.8822   -3.8146   23.4338 C   0  0  0  0  0  0
  -21.9193   -4.6961   22.3394 C   0  0  0  0  0  0
  -22.7759  -13.5186   21.1883 C   0  0  0  0  0  0
  -22.1662   -4.2148   21.0970 F   0  0  0  0  0  0
  -21.5628   -3.4539   25.7729 F   0  0  0  0  0  0
  -29.8866  -13.9186   20.3320 N   0  0  0  0  0  0
  -26.2823  -12.9504   20.3212 N   0  0  0  0  0  0
  -25.9331  -11.6619   20.5725 N   0  0  0  0  0  0
  -22.0417  -12.8171   22.0440 N   0  0  0  0  0  0
  -25.4047  -15.1966   20.4177 N   0  0  0  0  0  0
  -31.6846  -15.2117   20.1657 O   0  0  0  0  0  0
  -21.6644   -6.8881   21.4237 O   0  0  0  0  0  0
  -22.3434  -14.5478   20.6706 O   0  0  0  0  0  0
  -24.6614  -31.8275   23.1746 C   0  0  0  0  0  0
  -25.9307  -32.4613   23.8192 C   0  0  1  0  0  0
  -27.2102  -26.9482   20.1816 C   0  0  0  0  0  0
  -25.6004  -33.8426   24.2113 N   0  0  0  0  0  0
  -23.4743  -30.4419   21.5236 C   0  0  2  0  0  0
  -24.9258  -28.8364   20.1140 C   0  0  0  0  0  0
  -22.7652  -29.4476   22.4811 C   0  0  0  0  0  0
  -18.0316  -28.1419   22.8476 C   0  0  0  0  0  0
  -24.1485  -36.7207   23.2645 C   0  0  0  0  0  0
  -26.0436  -30.6417   21.3995 C   0  0  0  0  0  0
  -26.1110  -29.2337   20.7454 C   0  0  0  0  0  0
  -27.2500  -28.3109   20.7555 C   0  0  0  0  0  0
  -25.9960  -26.7057   19.4976 C   0  0  0  0  0  0
  -24.8930  -27.5924   19.4696 C   0  0  0  0  0  0
  -23.7122  -29.7612   20.1486 C   0  0  0  0  0  0
  -25.4122  -36.2978   24.0303 C   0  0  1  0  0  0
  -20.5939  -28.3759   23.1205 C   0  0  2  0  0  0
  -20.6794  -26.9443   22.5411 C   0  0  0  0  0  0
  -19.5767  -26.6386   21.5223 C   0  0  0  0  0  0
  -18.1946  -26.7958   22.1620 C   0  0  0  0  0  0
  -19.1579  -28.8908   23.2829 C   0  0  0  0  0  0
  -18.9490  -30.1500   23.8859 C   0  0  0  0  0  0
  -17.6484  -30.6611   24.0557 C   0  0  0  0  0  0
  -25.9095  -34.9361   23.5020 C   0  0  0  0  0  0
  -16.5375  -29.9097   23.6349 C   0  0  0  0  0  0
  -16.7294  -28.6515   23.0369 C   0  0  0  0  0  0
  -26.4574  -31.6541   25.0698 C   0  0  0  0  0  0
  -25.3709  -31.3782   26.1361 C   0  0  0  0  0  0
  -27.0458  -30.2918   24.6381 C   0  0  0  0  0  0
  -27.6094  -32.4329   25.7487 C   0  0  0  0  0  0
  -27.5570  -37.1743   24.8453 C   0  0  0  0  0  0
  -21.4326  -29.3058   22.3560 N   0  0  0  0  0  0
  -26.4257  -37.3727   23.9433 N   0  0  0  0  0  0
  -24.7484  -30.9958   22.0868 N   0  0  0  0  0  0
  -23.4215  -28.8036   23.3033 O   0  0  0  0  0  0
  -28.1971  -25.8340   20.2551 O   0  0  0  0  0  0
  -26.5693  -34.8897   22.4609 O   0  0  0  0  0  0
  -23.5686  -32.1230   23.6853 O   0  0  0  0  0  0
  -29.2644  -20.6204   21.4810 C   0  0  0  0  0  0
  -28.6787  -21.7166   19.1347 C   0  0  0  0  0  0
  -29.3595  -19.6503   20.3827 C   0  0  0  0  0  0
  -28.5885  -22.6934   20.2273 C   0  0  0  0  0  0
  -29.6400  -20.1700   22.8784 C   0  0  0  0  0  0
  -28.2876  -22.1536   17.7361 C   0  0  0  0  0  0
  -30.1375  -18.0841   20.3867 C   0  0  0  0  0  0
  -27.7894  -24.2507   20.1571 C   0  0  0  0  0  0
  -29.0564  -20.3408   19.2092 N   0  0  0  0  0  0
  -28.8849  -22.0006   21.4074 N   0  0  0  0  0  0
  -29.7215  -16.4850   20.4673 N   0  0  0  0  0  0
  -31.4589  -12.9695   19.1890 H   0  0  0  0  0  0
  -30.4995  -11.8657   20.1227 H   0  0  0  0  0  0
  -29.9042  -11.7299   17.6816 H   0  0  0  0  0  0
  -29.5700  -13.4441   17.6464 H   0  0  0  0  0  0
  -28.0321  -11.2682   19.0877 H   0  0  0  0  0  0
  -27.4101  -12.3344   17.8549 H   0  0  0  0  0  0
  -27.5343  -14.2385   19.3283 H   0  0  0  0  0  0
  -28.8054  -12.4892   21.4890 H   0  0  0  0  0  0
  -28.2957  -14.1501   21.6947 H   0  0  0  0  0  0
  -25.2786   -9.5664   22.4758 H   0  0  0  0  0  0
  -23.9998   -7.4632   22.7486 H   0  0  0  0  0  0
  -21.0858   -8.8772   19.8952 H   0  0  0  0  0  0
  -22.3730  -10.9659   19.6152 H   0  0  0  0  0  0
  -21.2008   -7.6148   23.9703 H   0  0  0  0  0  0
  -21.1474   -6.0523   25.9067 H   0  0  0  0  0  0
  -22.0607   -2.7610   23.2834 H   0  0  0  0  0  0
  -22.4059  -11.9850   22.4837 H   0  0  0  0  0  0
  -21.1022  -13.1164   22.2628 H   0  0  0  0  0  0
  -24.6370  -15.8492   20.5372 H   0  0  0  0  0  0
  -26.2456  -15.6381   20.0695 H   0  0  0  0  0  0
  -26.7370  -32.5158   23.0906 H   0  0  0  0  0  0
  -25.0123  -33.9514   25.0243 H   0  0  0  0  0  0
  -22.7870  -31.2740   21.3554 H   0  0  0  0  0  0
  -23.3777  -35.9505   23.3235 H   0  0  0  0  0  0
  -24.3586  -36.8914   22.2078 H   0  0  0  0  0  0
  -23.7190  -37.6356   23.6736 H   0  0  0  0  0  0
  -26.2161  -31.3809   20.6163 H   0  0  0  0  0  0
  -26.9091  -30.7048   22.0467 H   0  0  0  0  0  0
  -28.1444  -28.6114   21.2813 H   0  0  0  0  0  0
  -25.8491  -25.7632   18.9932 H   0  0  0  0  0  0
  -23.9921  -27.2844   18.9570 H   0  0  0  0  0  0
  -23.8665  -30.5308   19.3919 H   0  0  0  0  0  0
  -22.8221  -29.2163   19.8300 H   0  0  0  0  0  0
  -25.1312  -36.1768   25.0790 H   0  0  0  0  0  0
  -21.0026  -28.3346   24.1328 H   0  0  0  0  0  0
  -20.5686  -26.2370   23.3646 H   0  0  0  0  0  0
  -21.6653  -26.7431   22.1210 H   0  0  0  0  0  0
  -19.6923  -25.6287   21.1277 H   0  0  0  0  0  0
  -19.6702  -27.3171   20.6734 H   0  0  0  0  0  0
  -17.4223  -26.6715   21.4014 H   0  0  0  0  0  0
  -18.0320  -26.0114   22.9023 H   0  0  0  0  0  0
  -19.7963  -30.7330   24.2207 H   0  0  0  0  0  0
  -17.5034  -31.6285   24.5166 H   0  0  0  0  0  0
  -15.5374  -30.2986   23.7708 H   0  0  0  0  0  0
  -15.8688  -28.0819   22.7121 H   0  0  0  0  0  0
  -24.5923  -30.7094   25.7678 H   0  0  0  0  0  0
  -24.8863  -32.2975   26.4662 H   0  0  0  0  0  0
  -25.7957  -30.9043   27.0215 H   0  0  0  0  0  0
  -26.3108  -29.6620   24.1357 H   0  0  0  0  0  0
  -27.3993  -29.7261   25.5011 H   0  0  0  0  0  0
  -27.9048  -30.4139   23.9779 H   0  0  0  0  0  0
  -27.2713  -33.3710   26.1903 H   0  0  0  0  0  0
  -28.3990  -32.6744   25.0357 H   0  0  0  0  0  0
  -28.0652  -31.8533   26.5526 H   0  0  0  0  0  0
  -28.2525  -38.0105   24.7607 H   0  0  0  0  0  0
  -28.1130  -36.2646   24.6139 H   0  0  0  0  0  0
  -27.2314  -37.1209   25.8858 H   0  0  0  0  0  0
  -20.9575  -29.8743   21.6687 H   0  0  0  0  0  0
  -26.0094  -38.2760   24.1531 H   0  0  0  0  0  0
  -30.6920  -20.3791   23.0727 H   0  0  0  0  0  0
  -29.4776  -19.0994   23.0048 H   0  0  0  0  0  0
  -29.0427  -20.6829   23.6324 H   0  0  0  0  0  0
  -27.2078  -22.2884   17.6708 H   0  0  0  0  0  0
  -28.5789  -21.4175   16.9857 H   0  0  0  0  0  0
  -28.7667  -23.0977   17.4782 H   0  0  0  0  0  0
  -30.8664  -18.1762   21.1922 H   0  0  0  0  0  0
  -30.7582  -18.1245   19.4914 H   0  0  0  0  0  0
  -26.9966  -24.1498   20.8988 H   0  0  0  0  0  0
  -27.2653  -24.1860   19.2069 H   0  0  0  0  0  0
  -28.7296  -16.3438   20.5883 H   0  0  0  0  0  0
  1 25  1  0  0  0
  1 30  2  0  0  0
  1 81  1  0  0  0
  2  3  1  0  0  0
  2 25  1  0  0  0
  2 82  1  0  0  0
  2 83  1  0  0  0
  3  4  1  0  0  0
  3 84  1  0  0  0
  3 85  1  0  0  0
  4  5  1  0  0  0
  4 86  1  0  0  0
  4 87  1  0  0  0
  5  6  1  0  0  0
  5 26  1  0  0  0
  5 88  1  0  0  0
  6 25  1  0  0  0
  6 89  1  0  0  0
  6 90  1  0  0  0
  7  8  2  0  0  0
  7 26  1  0  0  0
  7 29  1  0  0  0
  8  9  1  0  0  0
  8 22  1  0  0  0
  9 10  1  0  0  0
  9 27  2  0  0  0
 10 11  2  0  0  0
 10 15  1  0  0  0
 11 12  1  0  0  0
 11 91  1  0  0  0
 12 13  2  0  0  0
 12 92  1  0  0  0
 13 14  1  0  0  0
 13 31  1  0  0  0
 14 15  2  0  0  0
 14 93  1  0  0  0
 15 94  1  0  0  0
 16 17  2  0  0  0
 16 21  1  0  0  0
 16 31  1  0  0  0
 17 18  1  0  0  0
 17 95  1  0  0  0
 18 19  2  0  0  0
 18 96  1  0  0  0
 19 20  1  0  0  0
 19 24  1  0  0  0
 20 21  2  0  0  0
 20 97  1  0  0  0
 21 23  1  0  0  0
 22 28  1  0  0  0
 22 32  2  0  0  0
 26 27  1  0  0  0
 28 98  1  0  0  0
 28 99  1  0  0  0
 29100  1  0  0  0
 29101  1  0  0  0
 33 34  1  0  0  0
 33 66  1  0  0  0
 33 70  2  0  0  0
 34 36  1  0  0  0
 34 59  1  0  0  0
 34102  1  0  0  0
 35 44  2  0  0  0
 35 45  1  0  0  0
 35 68  1  0  0  0
 36 56  1  0  0  0
 36103  1  0  0  0
 37 39  1  0  0  0
 37 47  1  0  0  0
 37 66  1  0  0  0
 37104  1  0  0  0
 38 43  2  0  0  0
 38 46  1  0  0  0
 38 47  1  0  0  0
 39 64  1  0  0  0
 39 67  2  0  0  0
 40 52  1  0  0  0
 40 53  2  0  0  0
 40 58  1  0  0  0
 41105  1  0  0  0
 41106  1  0  0  0
 41107  1  0  0  0
 41 48  1  0  0  0
 42 43  1  0  0  0
 42 66  1  0  0  0
 42108  1  0  0  0
 42109  1  0  0  0
 43 44  1  0  0  0
 44110  1  0  0  0
 45 46  2  0  0  0
 45111  1  0  0  0
 46112  1  0  0  0
 47113  1  0  0  0
 47114  1  0  0  0
 48 56  1  0  0  0
 48 65  1  0  0  0
 48115  1  0  0  0
 49 50  1  0  0  0
 49 53  1  0  0  0
 49 64  1  0  0  0
 49116  1  0  0  0
 50 51  1  0  0  0
 50117  1  0  0  0
 50118  1  0  0  0
 51 52  1  0  0  0
 51119  1  0  0  0
 51120  1  0  0  0
 52121  1  0  0  0
 52122  1  0  0  0
 53 54  1  0  0  0
 54 55  2  0  0  0
 54123  1  0  0  0
 55 57  1  0  0  0
 55124  1  0  0  0
 56 69  2  0  0  0
 57 58  2  0  0  0
 57125  1  0  0  0
 58126  1  0  0  0
 59 60  1  0  0  0
 59 61  1  0  0  0
 59 62  1  0  0  0
 60127  1  0  0  0
 60128  1  0  0  0
 60129  1  0  0  0
 61130  1  0  0  0
 61131  1  0  0  0
 61132  1  0  0  0
 62133  1  0  0  0
 62134  1  0  0  0
 62135  1  0  0  0
 63 65  1  0  0  0
 63136  1  0  0  0
 63137  1  0  0  0
 63138  1  0  0  0
 64139  1  0  0  0
 65140  1  0  0  0
 68 78  1  0  0  0
 71 73  2  0  0  0
 71 75  1  0  0  0
 71 80  1  0  0  0
 72 74  1  0  0  0
 72 76  1  0  0  0
 72 79  2  0  0  0
 73 77  1  0  0  0
 73 79  1  0  0  0
 74 78  1  0  0  0
 74 80  2  0  0  0
 75141  1  0  0  0
 75142  1  0  0  0
 75143  1  0  0  0
 76144  1  0  0  0
 76145  1  0  0  0
 76146  1  0  0  0
 77 81  1  0  0  0
 77147  1  0  0  0
 77148  1  0  0  0
 78149  1  0  0  0
 78150  1  0  0  0
 81151  1  0  0  0
M  ISO  4   1 100  68 101  78 101  81 100
M  END
> <chiral flag>
0

> <version>
0

> <s_m_source_file>
/data/baiqing/PycharmProjects/Reinvent-master-3.2/result/LINK_invent/BTK/process_docking_weight1_custom_sum_contain_oxygen_bond_distance_aromatic_linkinvent_7_9_3/rearranged_h_0181.sdf

> <i_m_source_file_index>
28

> <r_mmod_Potential_Energy-OPLS-2005>
1113.2900390625

> <r_mmod_Stretch_Energy-OPLS-2005>
494.396911621094

> <r_mmod_Bend_Energy-OPLS-2005>
427.422882080078

> <r_mmod_Torsional_Energy-OPLS-2005>
222.403930664062

> <r_mmod_Improper_Torsional_Energy-OPLS-2005>
9.36775588989258

> <r_mmod_Van_der_Waal_Energy-OPLS-2005>
134.200668334961

> <r_mmod_Electrostatic_Energy-OPLS-2005>
-356.280456542969

> <r_mmod_Solvation_Energy-OPLS-2005>
-236.440841674805

> <b_mmod_Minimization_Converged-OPLS-2005>
0

> <r_mmod_RMS_Derivative-OPLS-2005>
1.42285561561584

$$$$
28
                    3D
 Structure written by MMmdl.
148156  0  0  1  0            999 V2000
  -30.4622  -15.2103   20.3762 C   0  0  0  0  0  0
  -30.4364  -12.7689   19.5188 C   0  0  0  0  0  0
  -29.5303  -12.5605   18.2803 C   0  0  0  0  0  0
  -28.0768  -12.2959   18.7126 C   0  0  0  0  0  0
  -27.6126  -13.2698   19.8244 C   0  0  2  0  0  0
  -28.6480  -13.4237   20.9577 C   0  0  0  0  0  0
  -25.2400  -13.8233   20.5749 C   0  0  0  0  0  0
  -24.1751  -13.0435   20.9271 C   0  0  0  0  0  0
  -24.6400  -11.6930   20.8794 C   0  0  0  0  0  0
  -23.9099  -10.4293   21.0432 C   0  0  0  0  0  0
  -24.3647   -9.4202   21.9203 C   0  0  0  0  0  0
  -23.6313   -8.2238   22.0760 C   0  0  0  0  0  0
  -22.4290   -8.0293   21.3551 C   0  0  0  0  0  0
  -21.9941   -9.0270   20.4650 C   0  0  0  0  0  0
  -22.7280  -10.2142   20.3067 C   0  0  0  0  0  0
  -21.6850   -6.0759   22.5294 C   0  0  0  0  0  0
  -21.4010   -6.5663   23.8231 C   0  0  0  0  0  0
  -21.3651   -5.6806   24.9190 C   0  0  0  0  0  0
  -21.6033   -4.3069   24.7231 C   0  0  0  0  0  0
  -21.8815   -3.8169   23.4353 C   0  0  0  0  0  0
  -21.9189   -4.6986   22.3416 C   0  0  0  0  0  0
  -22.7775  -13.5196   21.1915 C   0  0  0  0  0  0
  -22.1664   -4.2179   21.0989 F   0  0  0  0  0  0
  -21.5617   -3.4549   25.7740 F   0  0  0  0  0  0
  -29.8852  -13.9144   20.3295 N   0  0  0  0  0  0
  -26.2821  -12.9499   20.3222 N   0  0  0  0  0  0
  -25.9327  -11.6611   20.5739 N   0  0  0  0  0  0
  -22.0422  -12.8178   22.0461 N   0  0  0  0  0  0
  -25.4046  -15.1961   20.4182 N   0  0  0  0  0  0
  -31.6837  -15.2083   20.1714 O   0  0  0  0  0  0
  -21.6638   -6.8903   21.4254 O   0  0  0  0  0  0
  -22.3463  -14.5505   20.6760 O   0  0  0  0  0  0
  -24.6619  -31.8255   23.1709 C   0  0  0  0  0  0
  -25.9297  -32.4605   23.8173 C   0  0  1  0  0  0
  -27.2109  -26.9478   20.1718 C   0  0  0  0  0  0
  -25.5969  -33.8422   24.2083 N   0  0  0  0  0  0
  -23.4745  -30.4405   21.5216 C   0  0  2  0  0  0
  -24.9248  -28.8345   20.1106 C   0  0  0  0  0  0
  -22.7662  -29.4464   22.4786 C   0  0  0  0  0  0
  -18.0322  -28.1430   22.8486 C   0  0  0  0  0  0
  -24.1486  -36.7195   23.2648 C   0  0  0  0  0  0
  -26.0449  -30.6384   21.3994 C   0  0  0  0  0  0
  -26.1108  -29.2316   20.7416 C   0  0  0  0  0  0
  -27.2495  -28.3093   20.7492 C   0  0  0  0  0  0
  -25.9934  -26.7016   19.4953 C   0  0  0  0  0  0
  -24.8906  -27.5885   19.4695 C   0  0  0  0  0  0
  -23.7113  -29.7608   20.1466 C   0  0  0  0  0  0
  -25.4126  -36.2979   24.0316 C   0  0  1  0  0  0
  -20.5950  -28.3765   23.1202 C   0  0  2  0  0  0
  -20.6810  -26.9450   22.5408 C   0  0  0  0  0  0
  -19.5773  -26.6395   21.5227 C   0  0  0  0  0  0
  -18.1952  -26.7966   22.1636 C   0  0  0  0  0  0
  -19.1584  -28.8912   23.2829 C   0  0  0  0  0  0
  -18.9499  -30.1506   23.8856 C   0  0  0  0  0  0
  -17.6494  -30.6616   24.0573 C   0  0  0  0  0  0
  -25.9096  -34.9364   23.5013 C   0  0  0  0  0  0
  -16.5379  -29.9117   23.6367 C   0  0  0  0  0  0
  -16.7303  -28.6540   23.0378 C   0  0  0  0  0  0
  -26.4545  -31.6544   25.0694 C   0  0  0  0  0  0
  -25.3668  -31.3811   26.1347 C   0  0  0  0  0  0
  -27.0438  -30.2917   24.6420 C   0  0  0  0  0  0
  -27.6041  -32.4362   25.7479 C   0  0  0  0  0  0
  -27.5567  -37.1749   24.8474 C   0  0  0  0  0  0
  -21.4327  -29.3045   22.3537 N   0  0  0  0  0  0
  -26.4267  -37.3719   23.9432 N   0  0  0  0  0  0
  -24.7487  -30.9945   22.0837 N   0  0  0  0  0  0
  -23.4225  -28.8038   23.3017 O   0  0  0  0  0  0
  -28.1989  -25.8351   20.2467 O   0  0  0  0  0  0
  -26.5707  -34.8900   22.4613 O   0  0  0  0  0  0
  -23.5688  -32.1216   23.6807 O   0  0  0  0  0  0
  -28.7462  -20.4575   21.3547 C   0  0  0  0  0  0
  -29.3670  -19.6487   20.3072 C   0  0  0  0  0  0
  -29.2259  -21.8867   19.1614 C   0  0  0  0  0  0
  -28.6048  -22.6989   20.2136 C   0  0  0  0  0  0
  -29.5186  -22.5081   17.8095 C   0  0  0  0  0  0
  -30.1336  -18.0822   20.4093 C   0  0  0  0  0  0
  -27.8133  -24.2541   20.0590 C   0  0  0  0  0  0
  -28.3797  -21.8399   21.2997 N   0  0  0  0  0  0
  -29.5912  -20.5060   19.2236 N   0  0  0  0  0  0
  -29.7162  -16.4814   20.4493 N   0  0  0  0  0  0
  -31.4584  -12.9614   19.1906 H   0  0  0  0  0  0
  -30.4876  -11.8579   20.1167 H   0  0  0  0  0  0
  -29.8981  -11.7306   17.6750 H   0  0  0  0  0  0
  -29.5680  -13.4455   17.6434 H   0  0  0  0  0  0
  -28.0304  -11.2723   19.0864 H   0  0  0  0  0  0
  -27.4046  -12.3384   17.8547 H   0  0  0  0  0  0
  -27.5342  -14.2410   19.3339 H   0  0  0  0  0  0
  -28.8036  -12.4804   21.4843 H   0  0  0  0  0  0
  -28.2982  -14.1434   21.7000 H   0  0  0  0  0  0
  -25.2785   -9.5672   22.4793 H   0  0  0  0  0  0
  -24.0024   -7.4615   22.7470 H   0  0  0  0  0  0
  -21.0877   -8.8792   19.8953 H   0  0  0  0  0  0
  -22.3746  -10.9689   19.6185 H   0  0  0  0  0  0
  -21.2008   -7.6172   23.9747 H   0  0  0  0  0  0
  -21.1466   -6.0536   25.9091 H   0  0  0  0  0  0
  -22.0593   -2.7634   23.2841 H   0  0  0  0  0  0
  -22.4047  -11.9840   22.4851 H   0  0  0  0  0  0
  -21.1034  -13.1192   22.2657 H   0  0  0  0  0  0
  -24.6314  -15.8449   20.5200 H   0  0  0  0  0  0
  -26.2420  -15.6341   20.0585 H   0  0  0  0  0  0
  -26.7363  -32.5143   23.0884 H   0  0  0  0  0  0
  -25.0094  -33.9510   25.0220 H   0  0  0  0  0  0
  -22.7874  -31.2719   21.3527 H   0  0  0  0  0  0
  -23.3773  -35.9498   23.3293 H   0  0  0  0  0  0
  -24.3568  -36.8849   22.2062 H   0  0  0  0  0  0
  -23.7216  -37.6370   23.6708 H   0  0  0  0  0  0
  -26.2254  -31.3819   20.6222 H   0  0  0  0  0  0
  -26.9052  -30.6895   22.0553 H   0  0  0  0  0  0
  -28.1460  -28.6111   21.2720 H   0  0  0  0  0  0
  -25.8463  -25.7543   18.9995 H   0  0  0  0  0  0
  -23.9884  -27.2779   18.9611 H   0  0  0  0  0  0
  -23.8669  -30.5308   19.3898 H   0  0  0  0  0  0
  -22.8208  -29.2162   19.8280 H   0  0  0  0  0  0
  -25.1321  -36.1764   25.0806 H   0  0  0  0  0  0
  -21.0038  -28.3359   24.1321 H   0  0  0  0  0  0
  -20.5717  -26.2375   23.3640 H   0  0  0  0  0  0
  -21.6671  -26.7458   22.1186 H   0  0  0  0  0  0
  -19.6950  -25.6299   21.1278 H   0  0  0  0  0  0
  -19.6717  -27.3197   20.6749 H   0  0  0  0  0  0
  -17.4229  -26.6717   21.4030 H   0  0  0  0  0  0
  -18.0335  -26.0112   22.9032 H   0  0  0  0  0  0
  -19.7972  -30.7343   24.2192 H   0  0  0  0  0  0
  -17.5054  -31.6292   24.5183 H   0  0  0  0  0  0
  -15.5384  -30.3017   23.7719 H   0  0  0  0  0  0
  -15.8698  -28.0854   22.7120 H   0  0  0  0  0  0
  -24.5858  -30.7155   25.7660 H   0  0  0  0  0  0
  -24.8833  -32.3009   26.4642 H   0  0  0  0  0  0
  -25.7881  -30.9062   27.0212 H   0  0  0  0  0  0
  -26.3103  -29.6598   24.1398 H   0  0  0  0  0  0
  -27.3948  -29.7284   25.5077 H   0  0  0  0  0  0
  -27.9060  -30.4124   23.9860 H   0  0  0  0  0  0
  -27.2610  -33.3718   26.1909 H   0  0  0  0  0  0
  -28.3896  -32.6833   25.0326 H   0  0  0  0  0  0
  -28.0647  -31.8577   26.5486 H   0  0  0  0  0  0
  -28.2569  -38.0060   24.7533 H   0  0  0  0  0  0
  -28.1067  -36.2588   24.6274 H   0  0  0  0  0  0
  -27.2287  -37.1360   25.8876 H   0  0  0  0  0  0
  -20.9572  -29.8716   21.6655 H   0  0  0  0  0  0
  -26.0107  -38.2772   24.1461 H   0  0  0  0  0  0
  -28.5637  -19.9882   22.3114 H   0  0  0  0  0  0
  -29.1676  -23.5361   17.7379 H   0  0  0  0  0  0
  -29.0399  -21.9325   17.0158 H   0  0  0  0  0  0
  -30.5930  -22.5149   17.6237 H   0  0  0  0  0  0
  -30.7416  -18.1869   21.3081 H   0  0  0  0  0  0
  -30.8690  -18.1155   19.6049 H   0  0  0  0  0  0
  -26.9306  -24.1385   20.6886 H   0  0  0  0  0  0
  -27.4141  -24.2070   19.0471 H   0  0  0  0  0  0
  -28.7232  -16.3394   20.5550 H   0  0  0  0  0  0
  1 25  1  0  0  0
  1 30  2  0  0  0
  1 80  1  0  0  0
  2  3  1  0  0  0
  2 25  1  0  0  0
  2 81  1  0  0  0
  2 82  1  0  0  0
  3  4  1  0  0  0
  3 83  1  0  0  0
  3 84  1  0  0  0
  4  5  1  0  0  0
  4 85  1  0  0  0
  4 86  1  0  0  0
  5  6  1  0  0  0
  5 26  1  0  0  0
  5 87  1  0  0  0
  6 25  1  0  0  0
  6 88  1  0  0  0
  6 89  1  0  0  0
  7  8  2  0  0  0
  7 26  1  0  0  0
  7 29  1  0  0  0
  8  9  1  0  0  0
  8 22  1  0  0  0
  9 10  1  0  0  0
  9 27  2  0  0  0
 10 11  2  0  0  0
 10 15  1  0  0  0
 11 12  1  0  0  0
 11 90  1  0  0  0
 12 13  2  0  0  0
 12 91  1  0  0  0
 13 14  1  0  0  0
 13 31  1  0  0  0
 14 15  2  0  0  0
 14 92  1  0  0  0
 15 93  1  0  0  0
 16 17  2  0  0  0
 16 21  1  0  0  0
 16 31  1  0  0  0
 17 18  1  0  0  0
 17 94  1  0  0  0
 18 19  2  0  0  0
 18 95  1  0  0  0
 19 20  1  0  0  0
 19 24  1  0  0  0
 20 21  2  0  0  0
 20 96  1  0  0  0
 21 23  1  0  0  0
 22 28  1  0  0  0
 22 32  2  0  0  0
 26 27  1  0  0  0
 28 97  1  0  0  0
 28 98  1  0  0  0
 29 99  1  0  0  0
 29100  1  0  0  0
 33 34  1  0  0  0
 33 66  1  0  0  0
 33 70  2  0  0  0
 34 36  1  0  0  0
 34 59  1  0  0  0
 34101  1  0  0  0
 35 44  2  0  0  0
 35 45  1  0  0  0
 35 68  1  0  0  0
 36 56  1  0  0  0
 36102  1  0  0  0
 37 39  1  0  0  0
 37 47  1  0  0  0
 37 66  1  0  0  0
 37103  1  0  0  0
 38 43  2  0  0  0
 38 46  1  0  0  0
 38 47  1  0  0  0
 39 64  1  0  0  0
 39 67  2  0  0  0
 40 52  1  0  0  0
 40 53  2  0  0  0
 40 58  1  0  0  0
 41104  1  0  0  0
 41105  1  0  0  0
 41106  1  0  0  0
 41 48  1  0  0  0
 42 43  1  0  0  0
 42 66  1  0  0  0
 42107  1  0  0  0
 42108  1  0  0  0
 43 44  1  0  0  0
 44109  1  0  0  0
 45 46  2  0  0  0
 45110  1  0  0  0
 46111  1  0  0  0
 47112  1  0  0  0
 47113  1  0  0  0
 48 56  1  0  0  0
 48 65  1  0  0  0
 48114  1  0  0  0
 49 50  1  0  0  0
 49 53  1  0  0  0
 49 64  1  0  0  0
 49115  1  0  0  0
 50 51  1  0  0  0
 50116  1  0  0  0
 50117  1  0  0  0
 51 52  1  0  0  0
 51118  1  0  0  0
 51119  1  0  0  0
 52120  1  0  0  0
 52121  1  0  0  0
 53 54  1  0  0  0
 54 55  2  0  0  0
 54122  1  0  0  0
 55 57  1  0  0  0
 55123  1  0  0  0
 56 69  2  0  0  0
 57 58  2  0  0  0
 57124  1  0  0  0
 58125  1  0  0  0
 59 60  1  0  0  0
 59 61  1  0  0  0
 59 62  1  0  0  0
 60126  1  0  0  0
 60127  1  0  0  0
 60128  1  0  0  0
 61129  1  0  0  0
 61130  1  0  0  0
 61131  1  0  0  0
 62132  1  0  0  0
 62133  1  0  0  0
 62134  1  0  0  0
 63 65  1  0  0  0
 63135  1  0  0  0
 63136  1  0  0  0
 63137  1  0  0  0
 64138  1  0  0  0
 65139  1  0  0  0
 68 77  1  0  0  0
 71 72  2  0  0  0
 71 78  1  0  0  0
 71140  1  0  0  0
 72 76  1  0  0  0
 72 79  1  0  0  0
 73 74  1  0  0  0
 73 75  1  0  0  0
 73 79  2  0  0  0
 74 77  1  0  0  0
 74 78  2  0  0  0
 75141  1  0  0  0
 75142  1  0  0  0
 75143  1  0  0  0
 76 80  1  0  0  0
 76144  1  0  0  0
 76145  1  0  0  0
 77146  1  0  0  0
 77147  1  0  0  0
 80148  1  0  0  0
M  ISO  4   1 100  68 101  77 101  80 100
M  END
> <chiral flag>
0

> <version>
0

> <s_m_source_file>
/data/baiqing/PycharmProjects/Reinvent-master-3.2/result/LINK_invent/BTK/process_docking_weight1_custom_sum_contain_oxygen_bond_distance_aromatic_linkinvent_7_9_3/rearranged_h_0181.sdf

> <i_m_source_file_index>
29

> <r_mmod_Potential_Energy-OPLS-2005>
1137.91967773438

> <r_mmod_Stretch_Energy-OPLS-2005>
493.155151367188

> <r_mmod_Bend_Energy-OPLS-2005>
430.026977539062

> <r_mmod_Torsional_Energy-OPLS-2005>
220.990219116211

> <r_mmod_Improper_Torsional_Energy-OPLS-2005>
9.08442401885986

> <r_mmod_Van_der_Waal_Energy-OPLS-2005>
134.380767822266

> <r_mmod_Electrostatic_Energy-OPLS-2005>
-328.680053710938

> <r_mmod_Solvation_Energy-OPLS-2005>
-237.4921875

> <b_mmod_Minimization_Converged-OPLS-2005>
0

> <r_mmod_RMS_Derivative-OPLS-2005>
1.81848573684692

$$$$
29
                    3D
 Structure written by MMmdl.
155164  0  0  1  0            999 V2000
  -30.4626  -15.2235   20.3455 C   0  0  0  0  0  0
  -30.4408  -12.7797   19.5101 C   0  0  0  0  0  0
  -29.5318  -12.5726   18.2748 C   0  0  0  0  0  0
  -28.0784  -12.2991   18.7068 C   0  0  0  0  0  0
  -27.6113  -13.2625   19.8290 C   0  0  2  0  0  0
  -28.6541  -13.4351   20.9526 C   0  0  0  0  0  0
  -25.2421  -13.8208   20.5808 C   0  0  0  0  0  0
  -24.1743  -13.0418   20.9263 C   0  0  0  0  0  0
  -24.6397  -11.6913   20.8791 C   0  0  0  0  0  0
  -23.9099  -10.4277   21.0422 C   0  0  0  0  0  0
  -24.3646   -9.4190   21.9199 C   0  0  0  0  0  0
  -23.6308   -8.2230   22.0761 C   0  0  0  0  0  0
  -22.4286   -8.0276   21.3550 C   0  0  0  0  0  0
  -21.9944   -9.0255   20.4652 C   0  0  0  0  0  0
  -22.7284  -10.2126   20.3061 C   0  0  0  0  0  0
  -21.6850   -6.0730   22.5273 C   0  0  0  0  0  0
  -21.3999   -6.5625   23.8203 C   0  0  0  0  0  0
  -21.3670   -5.6774   24.9161 C   0  0  0  0  0  0
  -21.6052   -4.3041   24.7208 C   0  0  0  0  0  0
  -21.8819   -3.8136   23.4321 C   0  0  0  0  0  0
  -21.9195   -4.6959   22.3386 C   0  0  0  0  0  0
  -22.7760  -13.5195   21.1886 C   0  0  0  0  0  0
  -22.1658   -4.2150   21.0966 F   0  0  0  0  0  0
  -21.5657   -3.4526   25.7723 F   0  0  0  0  0  0
  -29.8873  -13.9255   20.3150 N   0  0  0  0  0  0
  -26.2833  -12.9454   20.3306 N   0  0  0  0  0  0
  -25.9334  -11.6576   20.5781 N   0  0  0  0  0  0
  -22.0393  -12.8192   22.0426 N   0  0  0  0  0  0
  -25.4116  -15.1942   20.4306 N   0  0  0  0  0  0
  -31.6948  -15.2099   20.2102 O   0  0  0  0  0  0
  -21.6643   -6.8878   21.4237 O   0  0  0  0  0  0
  -22.3456  -14.5499   20.6715 O   0  0  0  0  0  0
  -24.6616  -31.8287   23.1763 C   0  0  0  0  0  0
  -25.9309  -32.4622   23.8216 C   0  0  1  0  0  0
  -27.2165  -26.9693   20.1742 C   0  0  0  0  0  0
  -25.5997  -33.8436   24.2119 N   0  0  0  0  0  0
  -23.4739  -30.4447   21.5247 C   0  0  2  0  0  0
  -24.9270  -28.8441   20.1151 C   0  0  0  0  0  0
  -22.7656  -29.4484   22.4803 C   0  0  0  0  0  0
  -18.0314  -28.1418   22.8476 C   0  0  0  0  0  0
  -24.1481  -36.7197   23.2651 C   0  0  0  0  0  0
  -26.0434  -30.6505   21.4020 C   0  0  0  0  0  0
  -26.1128  -29.2457   20.7435 C   0  0  0  0  0  0
  -27.2554  -28.3297   20.7482 C   0  0  0  0  0  0
  -26.0031  -26.7212   19.4919 C   0  0  0  0  0  0
  -24.8971  -27.6014   19.4687 C   0  0  0  0  0  0
  -23.7114  -29.7649   20.1500 C   0  0  0  0  0  0
  -25.4119  -36.2978   24.0313 C   0  0  1  0  0  0
  -20.5941  -28.3765   23.1199 C   0  0  2  0  0  0
  -20.6790  -26.9448   22.5403 C   0  0  0  0  0  0
  -19.5758  -26.6383   21.5222 C   0  0  0  0  0  0
  -18.1935  -26.7962   22.1611 C   0  0  0  0  0  0
  -19.1576  -28.8910   23.2830 C   0  0  0  0  0  0
  -18.9489  -30.1494   23.8879 C   0  0  0  0  0  0
  -17.6484  -30.6615   24.0561 C   0  0  0  0  0  0
  -25.9087  -34.9360   23.5026 C   0  0  0  0  0  0
  -16.5370  -29.9101   23.6352 C   0  0  0  0  0  0
  -16.7297  -28.6511   23.0395 C   0  0  0  0  0  0
  -26.4565  -31.6559   25.0728 C   0  0  0  0  0  0
  -25.3710  -31.3787   26.1398 C   0  0  0  0  0  0
  -27.0470  -30.2941   24.6430 C   0  0  0  0  0  0
  -27.6056  -32.4373   25.7528 C   0  0  0  0  0  0
  -27.5560  -37.1752   24.8464 C   0  0  0  0  0  0
  -21.4327  -29.3073   22.3560 N   0  0  0  0  0  0
  -26.4257  -37.3720   23.9429 N   0  0  0  0  0  0
  -24.7474  -30.9997   22.0874 N   0  0  0  0  0  0
  -23.4217  -28.8030   23.3012 O   0  0  0  0  0  0
  -28.2095  -25.8654   20.2303 O   0  0  0  0  0  0
  -26.5676  -34.8890   22.4602 O   0  0  0  0  0  0
  -23.5689  -32.1227   23.6864 O   0  0  0  0  0  0
  -29.3554  -19.7027   20.1789 C   0  0  0  0  0  0
  -29.1343  -20.5450   21.3562 C   0  0  0  0  0  0
  -28.8305  -21.9039   19.0758 C   0  0  0  0  0  0
  -28.6043  -22.7477   20.2422 C   0  0  0  0  0  0
  -29.8237  -17.6288   18.5549 C   0  0  0  0  0  0
  -28.8058  -16.6474   19.1356 C   0  0  0  0  0  0
  -30.0591  -18.1075   19.9886 C   0  0  2  0  0  0
  -29.3656  -19.9543   22.7305 C   0  0  0  0  0  0
  -28.6040  -22.4875   17.6965 C   0  0  0  0  0  0
  -27.7937  -24.2887   20.2686 C   0  0  0  0  0  0
  -29.1977  -20.5302   19.0628 N   0  0  0  0  0  0
  -28.7644  -21.9311   21.3736 N   0  0  0  0  0  0
  -29.7065  -16.5035   20.2852 N   0  0  0  0  0  0
  -31.4615  -12.9792   19.1778 H   0  0  0  0  0  0
  -30.5000  -11.8689   20.1079 H   0  0  0  0  0  0
  -29.9066  -11.7527   17.6603 H   0  0  0  0  0  0
  -29.5683  -13.4652   17.6484 H   0  0  0  0  0  0
  -28.0312  -11.2721   19.0704 H   0  0  0  0  0  0
  -27.4072  -12.3525   17.8483 H   0  0  0  0  0  0
  -27.5078  -14.2252   19.3394 H   0  0  0  0  0  0
  -28.8181  -12.4994   21.4895 H   0  0  0  0  0  0
  -28.3091  -14.1646   21.6874 H   0  0  0  0  0  0
  -25.2782   -9.5659   22.4786 H   0  0  0  0  0  0
  -24.0006   -7.4620   22.7485 H   0  0  0  0  0  0
  -21.0875   -8.8787   19.8956 H   0  0  0  0  0  0
  -22.3754  -10.9672   19.6170 H   0  0  0  0  0  0
  -21.1955   -7.6126   23.9711 H   0  0  0  0  0  0
  -21.1509   -6.0493   25.9072 H   0  0  0  0  0  0
  -22.0593   -2.7601   23.2815 H   0  0  0  0  0  0
  -22.3979  -11.9844   22.4813 H   0  0  0  0  0  0
  -21.1014  -13.1240   22.2626 H   0  0  0  0  0  0
  -24.6555  -15.8563   20.5611 H   0  0  0  0  0  0
  -26.2826  -15.6344   20.1661 H   0  0  0  0  0  0
  -26.7380  -32.5173   23.0940 H   0  0  0  0  0  0
  -25.0179  -33.9540   25.0298 H   0  0  0  0  0  0
  -22.7859  -31.2754   21.3563 H   0  0  0  0  0  0
  -23.3781  -35.9489   23.3253 H   0  0  0  0  0  0
  -24.3573  -36.8892   22.2078 H   0  0  0  0  0  0
  -23.7182  -37.6346   23.6735 H   0  0  0  0  0  0
  -26.2235  -31.3945   20.6249 H   0  0  0  0  0  0
  -26.9039  -30.7053   22.0571 H   0  0  0  0  0  0
  -28.1553  -28.6362   21.2621 H   0  0  0  0  0  0
  -25.8646  -25.7869   18.9722 H   0  0  0  0  0  0
  -23.9994  -27.2893   18.9544 H   0  0  0  0  0  0
  -23.8657  -30.5340   19.3928 H   0  0  0  0  0  0
  -22.8235  -29.2166   19.8305 H   0  0  0  0  0  0
  -25.1307  -36.1778   25.0804 H   0  0  0  0  0  0
  -21.0036  -28.3365   24.1320 H   0  0  0  0  0  0
  -20.5679  -26.2387   23.3647 H   0  0  0  0  0  0
  -21.6650  -26.7437   22.1192 H   0  0  0  0  0  0
  -19.6907  -25.6278   21.1286 H   0  0  0  0  0  0
  -19.6693  -27.3171   20.6734 H   0  0  0  0  0  0
  -17.4209  -26.6760   21.3995 H   0  0  0  0  0  0
  -18.0286  -26.0102   22.8995 H   0  0  0  0  0  0
  -19.7969  -30.7313   24.2245 H   0  0  0  0  0  0
  -17.5043  -31.6307   24.5141 H   0  0  0  0  0  0
  -15.5371  -30.3000   23.7714 H   0  0  0  0  0  0
  -15.8688  -28.0811   22.7178 H   0  0  0  0  0  0
  -24.5930  -30.7089   25.7718 H   0  0  0  0  0  0
  -24.8867  -32.2979   26.4705 H   0  0  0  0  0  0
  -25.7974  -30.9050   27.0252 H   0  0  0  0  0  0
  -26.3144  -29.6632   24.1396 H   0  0  0  0  0  0
  -27.3988  -29.7283   25.5066 H   0  0  0  0  0  0
  -27.9075  -30.4142   23.9849 H   0  0  0  0  0  0
  -27.2630  -33.3735   26.1947 H   0  0  0  0  0  0
  -28.3952  -32.6844   25.0418 H   0  0  0  0  0  0
  -28.0634  -31.8616   26.5584 H   0  0  0  0  0  0
  -28.2535  -38.0092   24.7557 H   0  0  0  0  0  0
  -28.1091  -36.2622   24.6214 H   0  0  0  0  0  0
  -27.2289  -37.1290   25.8868 H   0  0  0  0  0  0
  -20.9581  -29.8798   21.6722 H   0  0  0  0  0  0
  -26.0098  -38.2765   24.1486 H   0  0  0  0  0  0
  -29.3851  -18.3341   17.8501 H   0  0  0  0  0  0
  -30.6915  -17.1367   18.1092 H   0  0  0  0  0  0
  -28.6912  -15.7820   18.4820 H   0  0  0  0  0  0
  -27.8369  -17.0939   19.3752 H   0  0  0  0  0  0
  -31.1272  -18.2778   20.1325 H   0  0  0  0  0  0
  -30.3760  -20.1852   23.0683 H   0  0  0  0  0  0
  -29.2455  -18.8705   22.7213 H   0  0  0  0  0  0
  -28.6629  -20.3623   23.4569 H   0  0  0  0  0  0
  -27.5807  -22.2962   17.3709 H   0  0  0  0  0  0
  -29.2862  -22.0460   16.9689 H   0  0  0  0  0  0
  -28.7644  -23.5659   17.6929 H   0  0  0  0  0  0
  -27.1704  -24.2243   21.1605 H   0  0  0  0  0  0
  -27.0903  -24.1668   19.4496 H   0  0  0  0  0  0
  1 25  1  0  0  0
  1 30  2  0  0  0
  1 83  1  0  0  0
  2  3  1  0  0  0
  2 25  1  0  0  0
  2 84  1  0  0  0
  2 85  1  0  0  0
  3  4  1  0  0  0
  3 86  1  0  0  0
  3 87  1  0  0  0
  4  5  1  0  0  0
  4 88  1  0  0  0
  4 89  1  0  0  0
  5  6  1  0  0  0
  5 26  1  0  0  0
  5 90  1  0  0  0
  6 25  1  0  0  0
  6 91  1  0  0  0
  6 92  1  0  0  0
  7  8  2  0  0  0
  7 26  1  0  0  0
  7 29  1  0  0  0
  8  9  1  0  0  0
  8 22  1  0  0  0
  9 10  1  0  0  0
  9 27  2  0  0  0
 10 11  2  0  0  0
 10 15  1  0  0  0
 11 12  1  0  0  0
 11 93  1  0  0  0
 12 13  2  0  0  0
 12 94  1  0  0  0
 13 14  1  0  0  0
 13 31  1  0  0  0
 14 15  2  0  0  0
 14 95  1  0  0  0
 15 96  1  0  0  0
 16 17  2  0  0  0
 16 21  1  0  0  0
 16 31  1  0  0  0
 17 18  1  0  0  0
 17 97  1  0  0  0
 18 19  2  0  0  0
 18 98  1  0  0  0
 19 20  1  0  0  0
 19 24  1  0  0  0
 20 21  2  0  0  0
 20 99  1  0  0  0
 21 23  1  0  0  0
 22 28  1  0  0  0
 22 32  2  0  0  0
 26 27  1  0  0  0
 28100  1  0  0  0
 28101  1  0  0  0
 29102  1  0  0  0
 29103  1  0  0  0
 33 34  1  0  0  0
 33 66  1  0  0  0
 33 70  2  0  0  0
 34 36  1  0  0  0
 34 59  1  0  0  0
 34104  1  0  0  0
 35 44  2  0  0  0
 35 45  1  0  0  0
 35 68  1  0  0  0
 36 56  1  0  0  0
 36105  1  0  0  0
 37 39  1  0  0  0
 37 47  1  0  0  0
 37 66  1  0  0  0
 37106  1  0  0  0
 38 43  2  0  0  0
 38 46  1  0  0  0
 38 47  1  0  0  0
 39 64  1  0  0  0
 39 67  2  0  0  0
 40 52  1  0  0  0
 40 53  2  0  0  0
 40 58  1  0  0  0
 41107  1  0  0  0
 41108  1  0  0  0
 41109  1  0  0  0
 41 48  1  0  0  0
 42 43  1  0  0  0
 42 66  1  0  0  0
 42110  1  0  0  0
 42111  1  0  0  0
 43 44  1  0  0  0
 44112  1  0  0  0
 45 46  2  0  0  0
 45113  1  0  0  0
 46114  1  0  0  0
 47115  1  0  0  0
 47116  1  0  0  0
 48 56  1  0  0  0
 48 65  1  0  0  0
 48117  1  0  0  0
 49 50  1  0  0  0
 49 53  1  0  0  0
 49 64  1  0  0  0
 49118  1  0  0  0
 50 51  1  0  0  0
 50119  1  0  0  0
 50120  1  0  0  0
 51 52  1  0  0  0
 51121  1  0  0  0
 51122  1  0  0  0
 52123  1  0  0  0
 52124  1  0  0  0
 53 54  1  0  0  0
 54 55  2  0  0  0
 54125  1  0  0  0
 55 57  1  0  0  0
 55126  1  0  0  0
 56 69  2  0  0  0
 57 58  2  0  0  0
 57127  1  0  0  0
 58128  1  0  0  0
 59 60  1  0  0  0
 59 61  1  0  0  0
 59 62  1  0  0  0
 60129  1  0  0  0
 60130  1  0  0  0
 60131  1  0  0  0
 61132  1  0  0  0
 61133  1  0  0  0
 61134  1  0  0  0
 62135  1  0  0  0
 62136  1  0  0  0
 62137  1  0  0  0
 63 65  1  0  0  0
 63138  1  0  0  0
 63139  1  0  0  0
 63140  1  0  0  0
 64141  1  0  0  0
 65142  1  0  0  0
 68 80  1  0  0  0
 71 72  2  0  0  0
 71 81  1  0  0  0
 71 77  1  0  0  0
 72 78  1  0  0  0
 72 82  1  0  0  0
 73 74  1  0  0  0
 73 79  1  0  0  0
 73 81  2  0  0  0
 74 80  1  0  0  0
 74 82  2  0  0  0
 75 76  1  0  0  0
 75 77  1  0  0  0
 75143  1  0  0  0
 75144  1  0  0  0
 76 83  1  0  0  0
 76145  1  0  0  0
 76146  1  0  0  0
 77 83  1  0  0  0
 77147  1  0  0  0
 78148  1  0  0  0
 78149  1  0  0  0
 78150  1  0  0  0
 79151  1  0  0  0
 79152  1  0  0  0
 79153  1  0  0  0
 80154  1  0  0  0
 80155  1  0  0  0
M  ISO  4   1 100  68 101  80 101  83 100
M  END
> <chiral flag>
0

> <version>
0

> <s_m_source_file>
/data/baiqing/PycharmProjects/Reinvent-master-3.2/result/LINK_invent/BTK/process_docking_weight1_custom_sum_contain_oxygen_bond_distance_aromatic_linkinvent_7_9_3/rearranged_h_0181.sdf

> <i_m_source_file_index>
30

> <r_mmod_Potential_Energy-OPLS-2005>
1303.83996582031

> <r_mmod_Stretch_Energy-OPLS-2005>
496.570495605469

> <r_mmod_Bend_Energy-OPLS-2005>
452.687225341797

> <r_mmod_Torsional_Energy-OPLS-2005>
294.235626220703

> <r_mmod_Improper_Torsional_Energy-OPLS-2005>
18.2240180969238

> <r_mmod_Van_der_Waal_Energy-OPLS-2005>
137.896881103516

> <r_mmod_Electrostatic_Energy-OPLS-2005>
-287.103912353516

> <r_mmod_Solvation_Energy-OPLS-2005>
-219.695938110352

> <b_mmod_Minimization_Converged-OPLS-2005>
0

> <r_mmod_RMS_Derivative-OPLS-2005>
2.06061506271362

$$$$
30
                    3D
 Structure written by MMmdl.
153162  0  0  1  0            999 V2000
  -30.4291  -15.3730   20.3790 C   0  0  0  0  0  0
  -30.4403  -12.8969   19.5206 C   0  0  0  0  0  0
  -29.5535  -12.6353   18.2787 C   0  0  0  0  0  0
  -28.0966  -12.3439   18.6876 C   0  0  0  0  0  0
  -27.6088  -13.2978   19.8111 C   0  0  2  0  0  0
  -28.6408  -13.5136   20.9391 C   0  0  0  0  0  0
  -25.2398  -13.8266   20.5759 C   0  0  0  0  0  0
  -24.1786  -13.0430   20.9255 C   0  0  0  0  0  0
  -24.6441  -11.6916   20.8666 C   0  0  0  0  0  0
  -23.9158  -10.4273   21.0307 C   0  0  0  0  0  0
  -24.3701   -9.4219   21.9119 C   0  0  0  0  0  0
  -23.6364   -8.2263   22.0714 C   0  0  0  0  0  0
  -22.4340   -8.0267   21.3515 C   0  0  0  0  0  0
  -21.9986   -9.0224   20.4599 C   0  0  0  0  0  0
  -22.7320  -10.2100   20.2968 C   0  0  0  0  0  0
  -21.6874   -6.0743   22.5282 C   0  0  0  0  0  0
  -21.4052   -6.5642   23.8212 C   0  0  0  0  0  0
  -21.3669   -5.6773   24.9165 C   0  0  0  0  0  0
  -21.6055   -4.3028   24.7191 C   0  0  0  0  0  0
  -21.8835   -3.8138   23.4291 C   0  0  0  0  0  0
  -21.9206   -4.6980   22.3381 C   0  0  0  0  0  0
  -22.7793  -13.5158   21.1862 C   0  0  0  0  0  0
  -22.1667   -4.2176   21.0950 F   0  0  0  0  0  0
  -21.5628   -3.4489   25.7690 F   0  0  0  0  0  0
  -29.8591  -14.0549   20.3038 N   0  0  0  0  0  0
  -26.2835  -12.9587   20.3096 N   0  0  0  0  0  0
  -25.9386  -11.6666   20.5586 N   0  0  0  0  0  0
  -22.0448  -12.8117   22.0386 N   0  0  0  0  0  0
  -25.3998  -15.2017   20.4251 N   0  0  0  0  0  0
  -31.6616  -15.3285   20.2227 O   0  0  0  0  0  0
  -21.6670   -6.8879   21.4239 O   0  0  0  0  0  0
  -22.3454  -14.5461   20.6690 O   0  0  0  0  0  0
  -24.6713  -31.8185   23.1680 C   0  0  0  0  0  0
  -25.9385  -32.4535   23.8119 C   0  0  1  0  0  0
  -27.1965  -26.8901   20.1969 C   0  0  0  0  0  0
  -25.6089  -33.8354   24.2078 N   0  0  0  0  0  0
  -23.4797  -30.4374   21.5208 C   0  0  2  0  0  0
  -24.9204  -28.8100   20.1193 C   0  0  0  0  0  0
  -22.7673  -29.4477   22.4779 C   0  0  0  0  0  0
  -18.0344  -28.1450   22.8453 C   0  0  0  0  0  0
  -24.1539  -36.7217   23.2642 C   0  0  0  0  0  0
  -26.0492  -30.6190   21.3893 C   0  0  0  0  0  0
  -26.1097  -29.2007   20.7467 C   0  0  0  0  0  0
  -27.2438  -28.2687   20.7486 C   0  0  0  0  0  0
  -25.9755  -26.6510   19.5238 C   0  0  0  0  0  0
  -24.8852  -27.5583   19.4814 C   0  0  0  0  0  0
  -23.7141  -29.7523   20.1460 C   0  0  0  0  0  0
  -25.4160  -36.2939   24.0300 C   0  0  1  0  0  0
  -20.5959  -28.3820   23.1191 C   0  0  2  0  0  0
  -20.6836  -26.9506   22.5419 C   0  0  0  0  0  0
  -19.5801  -26.6417   21.5235 C   0  0  0  0  0  0
  -18.1988  -26.7988   22.1604 C   0  0  0  0  0  0
  -19.1593  -28.8950   23.2808 C   0  0  0  0  0  0
  -18.9466  -30.1526   23.8876 C   0  0  0  0  0  0
  -17.6463  -30.6613   24.0582 C   0  0  0  0  0  0
  -25.9133  -34.9319   23.4977 C   0  0  0  0  0  0
  -16.5349  -29.9089   23.6331 C   0  0  0  0  0  0
  -16.7313  -28.6536   23.0338 C   0  0  0  0  0  0
  -26.4653  -31.6462   25.0628 C   0  0  0  0  0  0
  -25.3815  -31.3639   26.1295 C   0  0  0  0  0  0
  -27.0566  -30.2837   24.6335 C   0  0  0  0  0  0
  -27.6152  -32.4259   25.7436 C   0  0  0  0  0  0
  -27.5578  -37.1768   24.8467 C   0  0  0  0  0  0
  -21.4357  -29.3080   22.3525 N   0  0  0  0  0  0
  -26.4280  -37.3674   23.9416 N   0  0  0  0  0  0
  -24.7575  -30.9837   22.0810 N   0  0  0  0  0  0
  -23.4217  -28.8030   23.3008 O   0  0  0  0  0  0
  -28.2260  -25.8036   20.1698 O   0  0  0  0  0  0
  -26.5666  -34.8867   22.4533 O   0  0  0  0  0  0
  -23.5792  -32.1174   23.6765 O   0  0  0  0  0  0
  -30.4104  -21.1365   21.1974 C   0  0  0  0  0  0
  -29.0039  -19.5163   20.1519 C   0  0  0  0  0  0
  -29.2248  -21.0254   20.4464 C   0  0  0  0  0  0
  -31.2677  -20.0301   21.4482 C   0  0  0  0  0  0
  -29.8762  -18.2879   20.5354 C   0  0  0  0  0  0
  -33.4084  -21.5620   21.6865 C   0  0  0  0  0  0
  -33.8708  -20.2335   21.1130 C   0  0  0  0  0  0
  -32.6449  -20.2882   22.0094 C   0  0  0  0  0  0
  -28.5018  -22.5430   19.9036 C   0  0  0  0  0  0
  -28.1783  -24.1923   20.6116 C   0  0  0  0  0  0
  -31.0069  -18.7149   21.1599 N   0  0  0  0  0  0
  -29.6635  -16.6688   20.3675 N   0  0  0  0  0  0
  -31.4531  -13.1208   19.1816 H   0  0  0  0  0  0
  -30.5201  -12.0022   20.1434 H   0  0  0  0  0  0
  -29.9553  -11.8126   17.6905 H   0  0  0  0  0  0
  -29.5833  -13.5157   17.6321 H   0  0  0  0  0  0
  -28.0369  -11.3080   19.0208 H   0  0  0  0  0  0
  -27.4417  -12.4110   17.8155 H   0  0  0  0  0  0
  -27.4984  -14.2646   19.3177 H   0  0  0  0  0  0
  -28.8336  -12.5953   21.4919 H   0  0  0  0  0  0
  -28.2508  -14.2324   21.6612 H   0  0  0  0  0  0
  -25.2831   -9.5710   22.4704 H   0  0  0  0  0  0
  -24.0060   -7.4680   22.7465 H   0  0  0  0  0  0
  -21.0898   -8.8747   19.8910 H   0  0  0  0  0  0
  -22.3764  -10.9642   19.6064 H   0  0  0  0  0  0
  -21.2064   -7.6141   23.9738 H   0  0  0  0  0  0
  -21.1490   -6.0471   25.9083 H   0  0  0  0  0  0
  -22.0604   -2.7601   23.2760 H   0  0  0  0  0  0
  -22.4076  -11.9829   22.4876 H   0  0  0  0  0  0
  -21.1018  -13.1056   22.2459 H   0  0  0  0  0  0
  -24.6320  -15.8470   20.5741 H   0  0  0  0  0  0
  -26.2106  -15.6382   20.0105 H   0  0  0  0  0  0
  -26.7436  -32.5073   23.0808 H   0  0  0  0  0  0
  -25.0415  -33.9427   25.0339 H   0  0  0  0  0  0
  -22.7998  -31.2739   21.3521 H   0  0  0  0  0  0
  -23.3778  -35.9563   23.3234 H   0  0  0  0  0  0
  -24.3633  -36.8926   22.2077 H   0  0  0  0  0  0
  -23.7317  -37.6402   23.6721 H   0  0  0  0  0  0
  -26.2242  -31.3455   20.5952 H   0  0  0  0  0  0
  -26.9166  -30.6848   22.0318 H   0  0  0  0  0  0
  -28.1536  -28.5801   21.2395 H   0  0  0  0  0  0
  -25.8450  -25.6966   19.0349 H   0  0  0  0  0  0
  -23.9856  -27.2690   18.9544 H   0  0  0  0  0  0
  -23.8765  -30.5233   19.3916 H   0  0  0  0  0  0
  -22.8216  -29.2206   19.8207 H   0  0  0  0  0  0
  -25.1350  -36.1726   25.0783 H   0  0  0  0  0  0
  -21.0050  -28.3429   24.1306 H   0  0  0  0  0  0
  -20.5832  -26.2404   23.3640 H   0  0  0  0  0  0
  -21.6667  -26.7555   22.1149 H   0  0  0  0  0  0
  -19.6983  -25.6317   21.1298 H   0  0  0  0  0  0
  -19.6744  -27.3208   20.6752 H   0  0  0  0  0  0
  -17.4271  -26.6768   21.3988 H   0  0  0  0  0  0
  -18.0322  -26.0145   22.9006 H   0  0  0  0  0  0
  -19.7937  -30.7375   24.2225 H   0  0  0  0  0  0
  -17.4986  -31.6278   24.5204 H   0  0  0  0  0  0
  -15.5345  -30.2976   23.7692 H   0  0  0  0  0  0
  -15.8719  -28.0858   22.7032 H   0  0  0  0  0  0
  -24.6098  -30.6875   25.7587 H   0  0  0  0  0  0
  -24.8918  -32.2801   26.4611 H   0  0  0  0  0  0
  -25.8112  -30.8911   27.0144 H   0  0  0  0  0  0
  -26.3226  -29.6458   24.1417 H   0  0  0  0  0  0
  -27.4202  -29.7234   25.4965 H   0  0  0  0  0  0
  -27.9106  -30.4010   23.9658 H   0  0  0  0  0  0
  -27.2772  -33.3658   26.1811 H   0  0  0  0  0  0
  -28.4077  -32.6657   25.0319 H   0  0  0  0  0  0
  -28.0695  -31.8515   26.5534 H   0  0  0  0  0  0
  -28.2548  -38.0122   24.7514 H   0  0  0  0  0  0
  -28.1134  -36.2625   24.6275 H   0  0  0  0  0  0
  -27.2294  -37.1377   25.8876 H   0  0  0  0  0  0
  -20.9621  -29.8709   21.6595 H   0  0  0  0  0  0
  -26.0134  -38.2732   24.1371 H   0  0  0  0  0  0
  -30.7234  -22.1217   21.5229 H   0  0  0  0  0  0
  -28.1173  -19.2908   19.5735 H   0  0  0  0  0  0
  -32.9795  -22.2722   20.9758 H   0  0  0  0  0  0
  -33.9921  -22.0165   22.4900 H   0  0  0  0  0  0
  -34.7791  -19.7863   21.5233 H   0  0  0  0  0  0
  -33.7337  -20.0933   20.0362 H   0  0  0  0  0  0
  -32.7439  -19.9001   23.0245 H   0  0  0  0  0  0
  -27.5517  -22.2425   19.4587 H   0  0  0  0  0  0
  -29.1210  -22.7720   19.0362 H   0  0  0  0  0  0
  -28.9016  -24.2185   21.4239 H   0  0  0  0  0  0
  -27.2293  -24.0794   21.1361 H   0  0  0  0  0  0
  -28.6810  -16.4582   20.2794 H   0  0  0  0  0  0
  1 25  1  0  0  0
  1 30  2  0  0  0
  1 82  1  0  0  0
  2  3  1  0  0  0
  2 25  1  0  0  0
  2 83  1  0  0  0
  2 84  1  0  0  0
  3  4  1  0  0  0
  3 85  1  0  0  0
  3 86  1  0  0  0
  4  5  1  0  0  0
  4 87  1  0  0  0
  4 88  1  0  0  0
  5  6  1  0  0  0
  5 26  1  0  0  0
  5 89  1  0  0  0
  6 25  1  0  0  0
  6 90  1  0  0  0
  6 91  1  0  0  0
  7  8  2  0  0  0
  7 26  1  0  0  0
  7 29  1  0  0  0
  8  9  1  0  0  0
  8 22  1  0  0  0
  9 10  1  0  0  0
  9 27  2  0  0  0
 10 11  2  0  0  0
 10 15  1  0  0  0
 11 12  1  0  0  0
 11 92  1  0  0  0
 12 13  2  0  0  0
 12 93  1  0  0  0
 13 14  1  0  0  0
 13 31  1  0  0  0
 14 15  2  0  0  0
 14 94  1  0  0  0
 15 95  1  0  0  0
 16 17  2  0  0  0
 16 21  1  0  0  0
 16 31  1  0  0  0
 17 18  1  0  0  0
 17 96  1  0  0  0
 18 19  2  0  0  0
 18 97  1  0  0  0
 19 20  1  0  0  0
 19 24  1  0  0  0
 20 21  2  0  0  0
 20 98  1  0  0  0
 21 23  1  0  0  0
 22 28  1  0  0  0
 22 32  2  0  0  0
 26 27  1  0  0  0
 28 99  1  0  0  0
 28100  1  0  0  0
 29101  1  0  0  0
 29102  1  0  0  0
 33 34  1  0  0  0
 33 66  1  0  0  0
 33 70  2  0  0  0
 34 36  1  0  0  0
 34 59  1  0  0  0
 34103  1  0  0  0
 35 44  2  0  0  0
 35 45  1  0  0  0
 35 68  1  0  0  0
 36 56  1  0  0  0
 36104  1  0  0  0
 37 39  1  0  0  0
 37 47  1  0  0  0
 37 66  1  0  0  0
 37105  1  0  0  0
 38 43  2  0  0  0
 38 46  1  0  0  0
 38 47  1  0  0  0
 39 64  1  0  0  0
 39 67  2  0  0  0
 40 52  1  0  0  0
 40 53  2  0  0  0
 40 58  1  0  0  0
 41106  1  0  0  0
 41107  1  0  0  0
 41108  1  0  0  0
 41 48  1  0  0  0
 42 43  1  0  0  0
 42 66  1  0  0  0
 42109  1  0  0  0
 42110  1  0  0  0
 43 44  1  0  0  0
 44111  1  0  0  0
 45 46  2  0  0  0
 45112  1  0  0  0
 46113  1  0  0  0
 47114  1  0  0  0
 47115  1  0  0  0
 48 56  1  0  0  0
 48 65  1  0  0  0
 48116  1  0  0  0
 49 50  1  0  0  0
 49 53  1  0  0  0
 49 64  1  0  0  0
 49117  1  0  0  0
 50 51  1  0  0  0
 50118  1  0  0  0
 50119  1  0  0  0
 51 52  1  0  0  0
 51120  1  0  0  0
 51121  1  0  0  0
 52122  1  0  0  0
 52123  1  0  0  0
 53 54  1  0  0  0
 54 55  2  0  0  0
 54124  1  0  0  0
 55 57  1  0  0  0
 55125  1  0  0  0
 56 69  2  0  0  0
 57 58  2  0  0  0
 57126  1  0  0  0
 58127  1  0  0  0
 59 60  1  0  0  0
 59 61  1  0  0  0
 59 62  1  0  0  0
 60128  1  0  0  0
 60129  1  0  0  0
 60130  1  0  0  0
 61131  1  0  0  0
 61132  1  0  0  0
 61133  1  0  0  0
 62134  1  0  0  0
 62135  1  0  0  0
 62136  1  0  0  0
 63 65  1  0  0  0
 63137  1  0  0  0
 63138  1  0  0  0
 63139  1  0  0  0
 64140  1  0  0  0
 65141  1  0  0  0
 68 80  1  0  0  0
 71 73  2  0  0  0
 71 74  1  0  0  0
 71142  1  0  0  0
 72 73  1  0  0  0
 72 75  2  0  0  0
 72143  1  0  0  0
 73 79  1  0  0  0
 74 81  2  0  0  0
 74 78  1  0  0  0
 75 81  1  0  0  0
 75 82  1  0  0  0
 76 77  1  0  0  0
 76 78  1  0  0  0
 76144  1  0  0  0
 76145  1  0  0  0
 77 78  1  0  0  0
 77146  1  0  0  0
 77147  1  0  0  0
 78148  1  0  0  0
 79 80  1  0  0  0
 79149  1  0  0  0
 79150  1  0  0  0
 80151  1  0  0  0
 80152  1  0  0  0
 82153  1  0  0  0
M  ISO  4   1 100  68 101  80 101  82 100
M  END
> <chiral flag>
0

> <version>
0

> <s_m_source_file>
/data/baiqing/PycharmProjects/Reinvent-master-3.2/result/LINK_invent/BTK/process_docking_weight1_custom_sum_contain_oxygen_bond_distance_aromatic_linkinvent_7_9_3/rearranged_h_0181.sdf

> <i_m_source_file_index>
31

> <r_mmod_Potential_Energy-OPLS-2005>
1325.2138671875

> <r_mmod_Stretch_Energy-OPLS-2005>
640.900939941406

> <r_mmod_Bend_Energy-OPLS-2005>
472.103271484375

> <r_mmod_Torsional_Energy-OPLS-2005>
267.133728027344

> <r_mmod_Improper_Torsional_Energy-OPLS-2005>
7.49977111816406

> <r_mmod_Van_der_Waal_Energy-OPLS-2005>
123.971496582031

> <r_mmod_Electrostatic_Energy-OPLS-2005>
-483.356109619141

> <r_mmod_Solvation_Energy-OPLS-2005>
-238.652282714844

> <b_mmod_Minimization_Converged-OPLS-2005>
0

> <r_mmod_RMS_Derivative-OPLS-2005>
7.29039716720581

$$$$
31
                    3D
 Structure written by MMmdl.
147155  0  0  1  0            999 V2000
  -30.3266  -15.6389   20.3349 C   0  0  0  0  0  0
  -30.4144  -13.0904   19.5330 C   0  0  0  0  0  0
  -29.5437  -12.6573   18.3216 C   0  0  0  0  0  0
  -28.1254  -12.2882   18.7772 C   0  0  0  0  0  0
  -27.5908  -13.3068   19.8088 C   0  0  2  0  0  0
  -28.6048  -13.6633   20.9211 C   0  0  0  0  0  0
  -25.2304  -13.8285   20.5804 C   0  0  0  0  0  0
  -24.1690  -13.0440   20.9290 C   0  0  0  0  0  0
  -24.6391  -11.6948   20.8781 C   0  0  0  0  0  0
  -23.9092  -10.4302   21.0415 C   0  0  0  0  0  0
  -24.3635   -9.4215   21.9192 C   0  0  0  0  0  0
  -23.6300   -8.2256   22.0769 C   0  0  0  0  0  0
  -22.4283   -8.0288   21.3556 C   0  0  0  0  0  0
  -21.9920   -9.0263   20.4658 C   0  0  0  0  0  0
  -22.7258  -10.2139   20.3059 C   0  0  0  0  0  0
  -21.6853   -6.0736   22.5284 C   0  0  0  0  0  0
  -21.4018   -6.5640   23.8219 C   0  0  0  0  0  0
  -21.3658   -5.6787   24.9174 C   0  0  0  0  0  0
  -21.6041   -4.3051   24.7220 C   0  0  0  0  0  0
  -21.8815   -3.8144   23.4341 C   0  0  0  0  0  0
  -21.9194   -4.6966   22.3403 C   0  0  0  0  0  0
  -22.7707  -13.5184   21.1906 C   0  0  0  0  0  0
  -22.1661   -4.2155   21.0974 F   0  0  0  0  0  0
  -21.5628   -3.4530   25.7730 F   0  0  0  0  0  0
  -29.7721  -14.2856   20.2515 N   0  0  0  0  0  0
  -26.2743  -12.9608   20.3236 N   0  0  0  0  0  0
  -25.9331  -11.6680   20.5700 N   0  0  0  0  0  0
  -22.0345  -12.8194   22.0457 N   0  0  0  0  0  0
  -25.3874  -15.2021   20.4248 N   0  0  0  0  0  0
  -31.5660  -15.5247   20.2349 O   0  0  0  0  0  0
  -21.6643   -6.8885   21.4250 O   0  0  0  0  0  0
  -22.3393  -14.5481   20.6722 O   0  0  0  0  0  0
  -24.6841  -31.7995   23.1498 C   0  0  0  0  0  0
  -25.9414  -32.4468   23.8045 C   0  0  1  0  0  0
  -27.2215  -26.6913   20.2227 C   0  0  0  0  0  0
  -25.5989  -33.8291   24.1941 N   0  0  0  0  0  0
  -23.5110  -30.4004   21.5048 C   0  0  2  0  0  0
  -24.9664  -28.7374   20.1219 C   0  0  0  0  0  0
  -22.7772  -29.4308   22.4712 C   0  0  0  0  0  0
  -18.0340  -28.1425   22.8466 C   0  0  0  0  0  0
  -24.1495  -36.7157   23.2649 C   0  0  0  0  0  0
  -26.0915  -30.5291   21.4153 C   0  0  0  0  0  0
  -26.1563  -29.0916   20.7686 C   0  0  0  0  0  0
  -27.2708  -28.0985   20.7812 C   0  0  0  0  0  0
  -25.9969  -26.5460   19.5229 C   0  0  0  0  0  0
  -24.9264  -27.4905   19.4743 C   0  0  0  0  0  0
  -23.7655  -29.6958   20.1410 C   0  0  0  0  0  0
  -25.4146  -36.2899   24.0282 C   0  0  1  0  0  0
  -20.5980  -28.3784   23.1148 C   0  0  2  0  0  0
  -20.6818  -26.9444   22.5402 C   0  0  0  0  0  0
  -19.5783  -26.6371   21.5225 C   0  0  0  0  0  0
  -18.1964  -26.7951   22.1628 C   0  0  0  0  0  0
  -19.1608  -28.8928   23.2790 C   0  0  0  0  0  0
  -18.9510  -30.1515   23.8834 C   0  0  0  0  0  0
  -17.6500  -30.6610   24.0552 C   0  0  0  0  0  0
  -25.9125  -34.9289   23.4957 C   0  0  0  0  0  0
  -16.5390  -29.9093   23.6351 C   0  0  0  0  0  0
  -16.7318  -28.6511   23.0372 C   0  0  0  0  0  0
  -26.4594  -31.6501   25.0670 C   0  0  0  0  0  0
  -25.3651  -31.3828   26.1282 C   0  0  0  0  0  0
  -27.0532  -30.2838   24.6576 C   0  0  0  0  0  0
  -27.6044  -32.4355   25.7493 C   0  0  0  0  0  0
  -27.5567  -37.1736   24.8465 C   0  0  0  0  0  0
  -21.4415  -29.3034   22.3467 N   0  0  0  0  0  0
  -26.4275  -37.3658   23.9405 N   0  0  0  0  0  0
  -24.7856  -30.9438   22.0754 N   0  0  0  0  0  0
  -23.4215  -28.7904   23.3047 O   0  0  0  0  0  0
  -28.1970  -25.4791   20.2648 O   0  0  0  0  0  0
  -26.5769  -34.8873   22.4575 O   0  0  0  0  0  0
  -23.5858  -32.1062   23.6456 O   0  0  0  0  0  0
  -27.9535  -19.0719   19.7982 C   0  0  0  0  0  0
  -28.2217  -17.4824   20.1661 C   0  0  0  0  0  0
  -30.0797  -18.6953   20.4301 C   0  0  0  0  0  0
  -28.9303  -20.1057   20.4865 C   0  0  1  0  0  0
  -28.9887  -22.0395   20.1680 C   0  0  0  0  0  0
  -28.0081  -23.7207   20.3257 C   0  0  0  0  0  0
  -29.6546  -17.0643   20.3547 N   0  0  0  0  0  0
  -31.4107  -13.3433   19.1683 H   0  0  0  0  0  0
  -30.5705  -12.2543   20.2163 H   0  0  0  0  0  0
  -30.0041  -11.8207   17.7936 H   0  0  0  0  0  0
  -29.4910  -13.4808   17.6083 H   0  0  0  0  0  0
  -28.1701  -11.2990   19.2347 H   0  0  0  0  0  0
  -27.4529  -12.2035   17.9231 H   0  0  0  0  0  0
  -27.4454  -14.2184   19.2270 H   0  0  0  0  0  0
  -28.8730  -12.7950   21.5237 H   0  0  0  0  0  0
  -28.1667  -14.3906   21.6068 H   0  0  0  0  0  0
  -25.2765   -9.5703   22.4783 H   0  0  0  0  0  0
  -24.0000   -7.4653   22.7499 H   0  0  0  0  0  0
  -21.0847   -8.8787   19.8971 H   0  0  0  0  0  0
  -22.3707  -10.9686   19.6183 H   0  0  0  0  0  0
  -21.2014   -7.6148   23.9726 H   0  0  0  0  0  0
  -21.1483   -6.0513   25.9081 H   0  0  0  0  0  0
  -22.0595   -2.7608   23.2835 H   0  0  0  0  0  0
  -22.3936  -11.9863   22.4879 H   0  0  0  0  0  0
  -21.0975  -13.1266   22.2660 H   0  0  0  0  0  0
  -24.6086  -15.8426   20.5318 H   0  0  0  0  0  0
  -26.2254  -15.6499   20.0794 H   0  0  0  0  0  0
  -26.7499  -32.4949   23.0758 H   0  0  0  0  0  0
  -25.0045  -33.9310   25.0037 H   0  0  0  0  0  0
  -22.8366  -31.2385   21.3140 H   0  0  0  0  0  0
  -23.3775  -35.9467   23.3259 H   0  0  0  0  0  0
  -24.3556  -36.8865   22.2070 H   0  0  0  0  0  0
  -23.7237  -37.6316   23.6759 H   0  0  0  0  0  0
  -26.2969  -31.2503   20.6231 H   0  0  0  0  0  0
  -26.9419  -30.5978   22.0812 H   0  0  0  0  0  0
  -28.1714  -28.3806   21.3090 H   0  0  0  0  0  0
  -25.8287  -25.6040   19.0207 H   0  0  0  0  0  0
  -24.0292  -27.2112   18.9386 H   0  0  0  0  0  0
  -23.9437  -30.4538   19.3774 H   0  0  0  0  0  0
  -22.8699  -29.1628   19.8171 H   0  0  0  0  0  0
  -25.1356  -36.1661   25.0772 H   0  0  0  0  0  0
  -21.0071  -28.3408   24.1272 H   0  0  0  0  0  0
  -20.5693  -26.2406   23.3662 H   0  0  0  0  0  0
  -21.6677  -26.7396   22.1209 H   0  0  0  0  0  0
  -19.6934  -25.6261   21.1301 H   0  0  0  0  0  0
  -19.6721  -27.3144   20.6725 H   0  0  0  0  0  0
  -17.4237  -26.6699   21.4027 H   0  0  0  0  0  0
  -18.0349  -26.0107   22.9036 H   0  0  0  0  0  0
  -19.7980  -30.7353   24.2173 H   0  0  0  0  0  0
  -17.5044  -31.6281   24.5168 H   0  0  0  0  0  0
  -15.5383  -30.2973   23.7710 H   0  0  0  0  0  0
  -15.8720  -28.0804   22.7132 H   0  0  0  0  0  0
  -24.5825  -30.7209   25.7559 H   0  0  0  0  0  0
  -24.8859  -32.3067   26.4533 H   0  0  0  0  0  0
  -25.7797  -30.9066   27.0177 H   0  0  0  0  0  0
  -26.3254  -29.6441   24.1577 H   0  0  0  0  0  0
  -27.3978  -29.7292   25.5315 H   0  0  0  0  0  0
  -27.9227  -30.3963   24.0096 H   0  0  0  0  0  0
  -27.2584  -33.3716   26.1889 H   0  0  0  0  0  0
  -28.3954  -32.6817   25.0397 H   0  0  0  0  0  0
  -28.0616  -31.8603   26.5554 H   0  0  0  0  0  0
  -28.2560  -38.0056   24.7524 H   0  0  0  0  0  0
  -28.1091  -36.2581   24.6292 H   0  0  0  0  0  0
  -27.2280  -37.1377   25.8866 H   0  0  0  0  0  0
  -20.9720  -29.8679   21.6525 H   0  0  0  0  0  0
  -26.0102  -38.2707   24.1412 H   0  0  0  0  0  0
  -26.9159  -19.3325   20.0112 H   0  0  0  0  0  0
  -28.0602  -19.1877   18.7183 H   0  0  0  0  0  0
  -27.7117  -17.2514   21.1029 H   0  0  0  0  0  0
  -27.7631  -16.8467   19.4086 H   0  0  0  0  0  0
  -30.7481  -18.7897   21.2865 H   0  0  0  0  0  0
  -30.7293  -18.8524   19.5680 H   0  0  0  0  0  0
  -28.6156  -20.1039   21.5311 H   0  0  0  0  0  0
  -29.3362  -22.0869   19.1360 H   0  0  0  0  0  0
  -29.8809  -22.2933   20.7413 H   0  0  0  0  0  0
  -27.1716  -23.5696   19.6435 H   0  0  0  0  0  0
  -27.5491  -23.6199   21.3094 H   0  0  0  0  0  0
  1 25  1  0  0  0
  1 30  2  0  0  0
  1 77  1  0  0  0
  2  3  1  0  0  0
  2 25  1  0  0  0
  2 78  1  0  0  0
  2 79  1  0  0  0
  3  4  1  0  0  0
  3 80  1  0  0  0
  3 81  1  0  0  0
  4  5  1  0  0  0
  4 82  1  0  0  0
  4 83  1  0  0  0
  5  6  1  0  0  0
  5 26  1  0  0  0
  5 84  1  0  0  0
  6 25  1  0  0  0
  6 85  1  0  0  0
  6 86  1  0  0  0
  7  8  2  0  0  0
  7 26  1  0  0  0
  7 29  1  0  0  0
  8  9  1  0  0  0
  8 22  1  0  0  0
  9 10  1  0  0  0
  9 27  2  0  0  0
 10 11  2  0  0  0
 10 15  1  0  0  0
 11 12  1  0  0  0
 11 87  1  0  0  0
 12 13  2  0  0  0
 12 88  1  0  0  0
 13 14  1  0  0  0
 13 31  1  0  0  0
 14 15  2  0  0  0
 14 89  1  0  0  0
 15 90  1  0  0  0
 16 17  2  0  0  0
 16 21  1  0  0  0
 16 31  1  0  0  0
 17 18  1  0  0  0
 17 91  1  0  0  0
 18 19  2  0  0  0
 18 92  1  0  0  0
 19 20  1  0  0  0
 19 24  1  0  0  0
 20 21  2  0  0  0
 20 93  1  0  0  0
 21 23  1  0  0  0
 22 28  1  0  0  0
 22 32  2  0  0  0
 26 27  1  0  0  0
 28 94  1  0  0  0
 28 95  1  0  0  0
 29 96  1  0  0  0
 29 97  1  0  0  0
 33 34  1  0  0  0
 33 66  1  0  0  0
 33 70  2  0  0  0
 34 36  1  0  0  0
 34 59  1  0  0  0
 34 98  1  0  0  0
 35 44  2  0  0  0
 35 45  1  0  0  0
 35 68  1  0  0  0
 36 56  1  0  0  0
 36 99  1  0  0  0
 37 39  1  0  0  0
 37 47  1  0  0  0
 37 66  1  0  0  0
 37100  1  0  0  0
 38 43  2  0  0  0
 38 46  1  0  0  0
 38 47  1  0  0  0
 39 64  1  0  0  0
 39 67  2  0  0  0
 40 52  1  0  0  0
 40 53  2  0  0  0
 40 58  1  0  0  0
 41101  1  0  0  0
 41102  1  0  0  0
 41103  1  0  0  0
 41 48  1  0  0  0
 42 43  1  0  0  0
 42 66  1  0  0  0
 42104  1  0  0  0
 42105  1  0  0  0
 43 44  1  0  0  0
 44106  1  0  0  0
 45 46  2  0  0  0
 45107  1  0  0  0
 46108  1  0  0  0
 47109  1  0  0  0
 47110  1  0  0  0
 48 56  1  0  0  0
 48 65  1  0  0  0
 48111  1  0  0  0
 49 50  1  0  0  0
 49 53  1  0  0  0
 49 64  1  0  0  0
 49112  1  0  0  0
 50 51  1  0  0  0
 50113  1  0  0  0
 50114  1  0  0  0
 51 52  1  0  0  0
 51115  1  0  0  0
 51116  1  0  0  0
 52117  1  0  0  0
 52118  1  0  0  0
 53 54  1  0  0  0
 54 55  2  0  0  0
 54119  1  0  0  0
 55 57  1  0  0  0
 55120  1  0  0  0
 56 69  2  0  0  0
 57 58  2  0  0  0
 57121  1  0  0  0
 58122  1  0  0  0
 59 60  1  0  0  0
 59 61  1  0  0  0
 59 62  1  0  0  0
 60123  1  0  0  0
 60124  1  0  0  0
 60125  1  0  0  0
 61126  1  0  0  0
 61127  1  0  0  0
 61128  1  0  0  0
 62129  1  0  0  0
 62130  1  0  0  0
 62131  1  0  0  0
 63 65  1  0  0  0
 63132  1  0  0  0
 63133  1  0  0  0
 63134  1  0  0  0
 64135  1  0  0  0
 65136  1  0  0  0
 68 76  1  0  0  0
 71 72  1  0  0  0
 71 74  1  0  0  0
 71137  1  0  0  0
 71138  1  0  0  0
 72 77  1  0  0  0
 72139  1  0  0  0
 72140  1  0  0  0
 73 74  1  0  0  0
 73 77  1  0  0  0
 73141  1  0  0  0
 73142  1  0  0  0
 74 75  1  0  0  0
 74143  1  0  0  0
 75 76  1  0  0  0
 75144  1  0  0  0
 75145  1  0  0  0
 76146  1  0  0  0
 76147  1  0  0  0
M  ISO  4   1 100  68 101  76 101  77 100
M  END
> <chiral flag>
0

> <version>
0

> <s_m_source_file>
/data/baiqing/PycharmProjects/Reinvent-master-3.2/result/LINK_invent/BTK/process_docking_weight1_custom_sum_contain_oxygen_bond_distance_aromatic_linkinvent_7_9_3/rearranged_h_0181.sdf

> <i_m_source_file_index>
32

> <r_mmod_Potential_Energy-OPLS-2005>
2677.06616210938

> <r_mmod_Stretch_Energy-OPLS-2005>
1106.61840820312

> <r_mmod_Bend_Energy-OPLS-2005>
718.904479980469

> <r_mmod_Torsional_Energy-OPLS-2005>
313.078521728516

> <r_mmod_Improper_Torsional_Energy-OPLS-2005>
3.74228596687317

> <r_mmod_Van_der_Waal_Energy-OPLS-2005>
103.256889343262

> <r_mmod_Electrostatic_Energy-OPLS-2005>
-267.992828369141

> <r_mmod_Solvation_Energy-OPLS-2005>
-208.850173950195

> <b_mmod_Minimization_Converged-OPLS-2005>
0

> <r_mmod_RMS_Derivative-OPLS-2005>
1.55997502803802

$$$$
32
                    3D
 Structure written by MMmdl.
152161  0  0  1  0            999 V2000
  -30.3897  -15.3678   20.3596 C   0  0  0  0  0  0
  -30.4330  -12.8781   19.5435 C   0  0  0  0  0  0
  -29.5397  -12.6104   18.3024 C   0  0  0  0  0  0
  -28.0922  -12.3158   18.7224 C   0  0  0  0  0  0
  -27.6081  -13.2874   19.8285 C   0  0  2  0  0  0
  -28.6357  -13.4941   20.9652 C   0  0  0  0  0  0
  -25.2358  -13.8278   20.5779 C   0  0  0  0  0  0
  -24.1730  -13.0447   20.9261 C   0  0  0  0  0  0
  -24.6407  -11.6931   20.8767 C   0  0  0  0  0  0
  -23.9104  -10.4304   21.0420 C   0  0  0  0  0  0
  -24.3647   -9.4219   21.9191 C   0  0  0  0  0  0
  -23.6323   -8.2245   22.0763 C   0  0  0  0  0  0
  -22.4290   -8.0291   21.3569 C   0  0  0  0  0  0
  -21.9945   -9.0246   20.4642 C   0  0  0  0  0  0
  -22.7276  -10.2126   20.3067 C   0  0  0  0  0  0
  -21.6861   -6.0751   22.5289 C   0  0  0  0  0  0
  -21.4011   -6.5650   23.8226 C   0  0  0  0  0  0
  -21.3668   -5.6798   24.9194 C   0  0  0  0  0  0
  -21.6040   -4.3055   24.7227 C   0  0  0  0  0  0
  -21.8806   -3.8158   23.4342 C   0  0  0  0  0  0
  -21.9195   -4.6983   22.3402 C   0  0  0  0  0  0
  -22.7734  -13.5172   21.1924 C   0  0  0  0  0  0
  -22.1669   -4.2186   21.0975 F   0  0  0  0  0  0
  -21.5652   -3.4519   25.7735 F   0  0  0  0  0  0
  -29.8563  -14.0343   20.3419 N   0  0  0  0  0  0
  -26.2799  -12.9564   20.3254 N   0  0  0  0  0  0
  -25.9353  -11.6655   20.5718 N   0  0  0  0  0  0
  -22.0389  -12.8122   22.0438 N   0  0  0  0  0  0
  -25.3983  -15.2027   20.4230 N   0  0  0  0  0  0
  -31.6007  -15.3655   20.0921 O   0  0  0  0  0  0
  -21.6650   -6.8891   21.4251 O   0  0  0  0  0  0
  -22.3389  -14.5472   20.6779 O   0  0  0  0  0  0
  -24.6698  -31.8165   23.1643 C   0  0  0  0  0  0
  -25.9352  -32.4568   23.8128 C   0  0  1  0  0  0
  -27.2184  -26.8600   20.1943 C   0  0  0  0  0  0
  -25.6005  -33.8385   24.2045 N   0  0  0  0  0  0
  -23.4867  -30.4226   21.5169 C   0  0  2  0  0  0
  -24.9429  -28.7997   20.1108 C   0  0  0  0  0  0
  -22.7695  -29.4388   22.4788 C   0  0  0  0  0  0
  -18.0316  -28.1398   22.8473 C   0  0  0  0  0  0
  -24.1483  -36.7164   23.2641 C   0  0  0  0  0  0
  -26.0594  -30.6017   21.4037 C   0  0  0  0  0  0
  -26.1270  -29.1851   20.7505 C   0  0  0  0  0  0
  -27.2552  -28.2366   20.7673 C   0  0  0  0  0  0
  -26.0125  -26.6523   19.4858 C   0  0  0  0  0  0
  -24.9165  -27.5575   19.4552 C   0  0  0  0  0  0
  -23.7271  -29.7294   20.1475 C   0  0  0  0  0  0
  -25.4137  -36.2948   24.0294 C   0  0  1  0  0  0
  -20.5942  -28.3743   23.1185 C   0  0  2  0  0  0
  -20.6778  -26.9422   22.5408 C   0  0  0  0  0  0
  -19.5762  -26.6374   21.5208 C   0  0  0  0  0  0
  -18.1940  -26.7939   22.1619 C   0  0  0  0  0  0
  -19.1577  -28.8893   23.2810 C   0  0  0  0  0  0
  -18.9488  -30.1481   23.8846 C   0  0  0  0  0  0
  -17.6479  -30.6583   24.0548 C   0  0  0  0  0  0
  -25.9113  -34.9342   23.4991 C   0  0  0  0  0  0
  -16.5366  -29.9056   23.6359 C   0  0  0  0  0  0
  -16.7304  -28.6480   23.0386 C   0  0  0  0  0  0
  -26.4591  -31.6522   25.0667 C   0  0  0  0  0  0
  -25.3704  -31.3791   26.1310 C   0  0  0  0  0  0
  -27.0479  -30.2879   24.6419 C   0  0  0  0  0  0
  -27.6088  -32.4314   25.7466 C   0  0  0  0  0  0
  -27.5570  -37.1739   24.8468 C   0  0  0  0  0  0
  -21.4359  -29.3021   22.3540 N   0  0  0  0  0  0
  -26.4270  -37.3700   23.9417 N   0  0  0  0  0  0
  -24.7606  -30.9738   22.0825 N   0  0  0  0  0  0
  -23.4208  -28.8000   23.3083 O   0  0  0  0  0  0
  -28.1902  -25.7086   20.3204 O   0  0  0  0  0  0
  -26.5714  -34.8887   22.4583 O   0  0  0  0  0  0
  -23.5748  -32.1175   23.6679 O   0  0  0  0  0  0
  -28.8999  -22.4940   21.9685 C   0  0  0  0  0  0
  -29.4465  -20.1500   22.0617 C   0  0  0  0  0  0
  -28.6464  -22.5388   20.5806 C   0  0  0  0  0  0
  -29.2455  -19.9037   20.6722 C   0  0  0  0  0  0
  -29.1649  -17.8901   23.3989 C   0  0  0  0  0  0
  -29.4432  -18.9624   24.4163 C   0  0  0  0  0  0
  -29.9825  -19.1020   23.0029 C   0  0  0  0  0  0
  -29.6939  -18.2968   20.0270 C   0  0  0  0  0  0
  -28.0054  -24.0774   19.9401 C   0  0  0  0  0  0
  -29.2817  -21.3756   22.6534 N   0  0  0  0  0  0
  -28.8364  -21.1724   19.9780 N   0  0  0  0  0  0
  -29.6148  -16.6520   20.4801 N   0  0  0  0  0  0
  -31.4480  -13.0902   19.2071 H   0  0  0  0  0  0
  -30.5119  -11.9769   20.1547 H   0  0  0  0  0  0
  -29.9315  -11.7841   17.7077 H   0  0  0  0  0  0
  -29.5553  -13.4894   17.6575 H   0  0  0  0  0  0
  -28.0549  -11.2892   19.0900 H   0  0  0  0  0  0
  -27.4279  -12.3595   17.8592 H   0  0  0  0  0  0
  -27.5111  -14.2485   19.3220 H   0  0  0  0  0  0
  -28.8228  -12.5613   21.5030 H   0  0  0  0  0  0
  -28.2518  -14.2054   21.6984 H   0  0  0  0  0  0
  -25.2796   -9.5705   22.4760 H   0  0  0  0  0  0
  -24.0041   -7.4611   22.7462 H   0  0  0  0  0  0
  -21.0910   -8.8737   19.8899 H   0  0  0  0  0  0
  -22.3747  -10.9647   19.6153 H   0  0  0  0  0  0
  -21.1988   -7.6147   23.9724 H   0  0  0  0  0  0
  -21.1519   -6.0553   25.9097 H   0  0  0  0  0  0
  -22.0581   -2.7616   23.2839 H   0  0  0  0  0  0
  -22.4065  -11.9818   22.4837 H   0  0  0  0  0  0
  -21.0987  -13.1110   22.2625 H   0  0  0  0  0  0
  -24.6165  -15.8426   20.5150 H   0  0  0  0  0  0
  -26.2313  -15.6451   20.0586 H   0  0  0  0  0  0
  -26.7421  -32.5090   23.0829 H   0  0  0  0  0  0
  -25.0162  -33.9467   25.0202 H   0  0  0  0  0  0
  -22.8028  -31.2548   21.3393 H   0  0  0  0  0  0
  -23.3788  -35.9448   23.3265 H   0  0  0  0  0  0
  -24.3556  -36.8849   22.2064 H   0  0  0  0  0  0
  -23.7191  -37.6321   23.6719 H   0  0  0  0  0  0
  -26.2404  -31.3390   20.6201 H   0  0  0  0  0  0
  -26.9183  -30.6667   22.0598 H   0  0  0  0  0  0
  -28.1458  -28.5254   21.3056 H   0  0  0  0  0  0
  -25.8705  -25.7043   18.9874 H   0  0  0  0  0  0
  -24.0212  -27.2566   18.9281 H   0  0  0  0  0  0
  -23.8725  -30.4908   19.3804 H   0  0  0  0  0  0
  -22.8389  -29.1726   19.8423 H   0  0  0  0  0  0
  -25.1331  -36.1736   25.0784 H   0  0  0  0  0  0
  -21.0022  -28.3341   24.1315 H   0  0  0  0  0  0
  -20.5631  -26.2362   23.3658 H   0  0  0  0  0  0
  -21.6646  -26.7369   22.1238 H   0  0  0  0  0  0
  -19.6909  -25.6276   21.1275 H   0  0  0  0  0  0
  -19.6699  -27.3166   20.6733 H   0  0  0  0  0  0
  -17.4217  -26.6715   21.4011 H   0  0  0  0  0  0
  -18.0299  -26.0066   22.9005 H   0  0  0  0  0  0
  -19.7951  -30.7315   24.2194 H   0  0  0  0  0  0
  -17.5018  -31.6281   24.5136 H   0  0  0  0  0  0
  -15.5360  -30.2939   23.7705 H   0  0  0  0  0  0
  -15.8714  -28.0777   22.7144 H   0  0  0  0  0  0
  -24.5961  -30.7045   25.7642 H   0  0  0  0  0  0
  -24.8816  -32.2997   26.4510 H   0  0  0  0  0  0
  -25.7939  -30.9155   27.0229 H   0  0  0  0  0  0
  -26.3174  -29.6565   24.1357 H   0  0  0  0  0  0
  -27.3931  -29.7215   25.5076 H   0  0  0  0  0  0
  -27.9141  -30.4038   23.9898 H   0  0  0  0  0  0
  -27.2704  -33.3701   26.1846 H   0  0  0  0  0  0
  -28.4012  -32.6713   25.0368 H   0  0  0  0  0  0
  -28.0621  -31.8561   26.5540 H   0  0  0  0  0  0
  -28.2554  -38.0067   24.7548 H   0  0  0  0  0  0
  -28.1100  -36.2598   24.6254 H   0  0  0  0  0  0
  -27.2290  -37.1332   25.8869 H   0  0  0  0  0  0
  -20.9617  -29.8693   21.6660 H   0  0  0  0  0  0
  -26.0113  -38.2746   24.1461 H   0  0  0  0  0  0
  -28.7659  -23.3838   22.5661 H   0  0  0  0  0  0
  -28.1483  -17.8150   23.0191 H   0  0  0  0  0  0
  -29.6875  -16.9458   23.5367 H   0  0  0  0  0  0
  -30.1513  -18.7163   25.2072 H   0  0  0  0  0  0
  -28.6028  -19.5846   24.7200 H   0  0  0  0  0  0
  -31.0549  -18.9702   22.8674 H   0  0  0  0  0  0
  -30.7416  -18.4276   19.7639 H   0  0  0  0  0  0
  -29.1896  -18.2889   19.0602 H   0  0  0  0  0  0
  -26.9291  -23.9193   20.0071 H   0  0  0  0  0  0
  -28.2121  -24.0277   18.8704 H   0  0  0  0  0  0
  -28.6721  -16.4308   20.7617 H   0  0  0  0  0  0
  1 25  1  0  0  0
  1 30  2  0  0  0
  1 82  1  0  0  0
  2  3  1  0  0  0
  2 25  1  0  0  0
  2 83  1  0  0  0
  2 84  1  0  0  0
  3  4  1  0  0  0
  3 85  1  0  0  0
  3 86  1  0  0  0
  4  5  1  0  0  0
  4 87  1  0  0  0
  4 88  1  0  0  0
  5  6  1  0  0  0
  5 26  1  0  0  0
  5 89  1  0  0  0
  6 25  1  0  0  0
  6 90  1  0  0  0
  6 91  1  0  0  0
  7  8  2  0  0  0
  7 26  1  0  0  0
  7 29  1  0  0  0
  8  9  1  0  0  0
  8 22  1  0  0  0
  9 10  1  0  0  0
  9 27  2  0  0  0
 10 11  2  0  0  0
 10 15  1  0  0  0
 11 12  1  0  0  0
 11 92  1  0  0  0
 12 13  2  0  0  0
 12 93  1  0  0  0
 13 14  1  0  0  0
 13 31  1  0  0  0
 14 15  2  0  0  0
 14 94  1  0  0  0
 15 95  1  0  0  0
 16 17  2  0  0  0
 16 21  1  0  0  0
 16 31  1  0  0  0
 17 18  1  0  0  0
 17 96  1  0  0  0
 18 19  2  0  0  0
 18 97  1  0  0  0
 19 20  1  0  0  0
 19 24  1  0  0  0
 20 21  2  0  0  0
 20 98  1  0  0  0
 21 23  1  0  0  0
 22 28  1  0  0  0
 22 32  2  0  0  0
 26 27  1  0  0  0
 28 99  1  0  0  0
 28100  1  0  0  0
 29101  1  0  0  0
 29102  1  0  0  0
 33 34  1  0  0  0
 33 66  1  0  0  0
 33 70  2  0  0  0
 34 36  1  0  0  0
 34 59  1  0  0  0
 34103  1  0  0  0
 35 44  2  0  0  0
 35 45  1  0  0  0
 35 68  1  0  0  0
 36 56  1  0  0  0
 36104  1  0  0  0
 37 39  1  0  0  0
 37 47  1  0  0  0
 37 66  1  0  0  0
 37105  1  0  0  0
 38 43  2  0  0  0
 38 46  1  0  0  0
 38 47  1  0  0  0
 39 64  1  0  0  0
 39 67  2  0  0  0
 40 52  1  0  0  0
 40 53  2  0  0  0
 40 58  1  0  0  0
 41106  1  0  0  0
 41107  1  0  0  0
 41108  1  0  0  0
 41 48  1  0  0  0
 42 43  1  0  0  0
 42 66  1  0  0  0
 42109  1  0  0  0
 42110  1  0  0  0
 43 44  1  0  0  0
 44111  1  0  0  0
 45 46  2  0  0  0
 45112  1  0  0  0
 46113  1  0  0  0
 47114  1  0  0  0
 47115  1  0  0  0
 48 56  1  0  0  0
 48 65  1  0  0  0
 48116  1  0  0  0
 49 50  1  0  0  0
 49 53  1  0  0  0
 49 64  1  0  0  0
 49117  1  0  0  0
 50 51  1  0  0  0
 50118  1  0  0  0
 50119  1  0  0  0
 51 52  1  0  0  0
 51120  1  0  0  0
 51121  1  0  0  0
 52122  1  0  0  0
 52123  1  0  0  0
 53 54  1  0  0  0
 54 55  2  0  0  0
 54124  1  0  0  0
 55 57  1  0  0  0
 55125  1  0  0  0
 56 69  2  0  0  0
 57 58  2  0  0  0
 57126  1  0  0  0
 58127  1  0  0  0
 59 60  1  0  0  0
 59 61  1  0  0  0
 59 62  1  0  0  0
 60128  1  0  0  0
 60129  1  0  0  0
 60130  1  0  0  0
 61131  1  0  0  0
 61132  1  0  0  0
 61133  1  0  0  0
 62134  1  0  0  0
 62135  1  0  0  0
 62136  1  0  0  0
 63 65  1  0  0  0
 63137  1  0  0  0
 63138  1  0  0  0
 63139  1  0  0  0
 64140  1  0  0  0
 65141  1  0  0  0
 68 79  1  0  0  0
 71 73  2  0  0  0
 71 80  1  0  0  0
 71142  1  0  0  0
 72 74  1  0  0  0
 72 80  2  0  0  0
 72 77  1  0  0  0
 73 79  1  0  0  0
 73 81  1  0  0  0
 74 78  1  0  0  0
 74 81  2  0  0  0
 75 76  1  0  0  0
 75 77  1  0  0  0
 75143  1  0  0  0
 75144  1  0  0  0
 76 77  1  0  0  0
 76145  1  0  0  0
 76146  1  0  0  0
 77147  1  0  0  0
 78 82  1  0  0  0
 78148  1  0  0  0
 78149  1  0  0  0
 79150  1  0  0  0
 79151  1  0  0  0
 82152  1  0  0  0
M  ISO  4   1 100  68 101  79 101  82 100
M  END
> <chiral flag>
0

> <version>
0

> <s_m_source_file>
/data/baiqing/PycharmProjects/Reinvent-master-3.2/result/LINK_invent/BTK/process_docking_weight1_custom_sum_contain_oxygen_bond_distance_aromatic_linkinvent_7_9_3/rearranged_h_0181.sdf

> <i_m_source_file_index>
33

> <r_mmod_Potential_Energy-OPLS-2005>
1579.78979492188

> <r_mmod_Stretch_Energy-OPLS-2005>
709.674560546875

> <r_mmod_Bend_Energy-OPLS-2005>
483.338287353516

> <r_mmod_Torsional_Energy-OPLS-2005>
241.268295288086

> <r_mmod_Improper_Torsional_Energy-OPLS-2005>
6.33794450759888

> <r_mmod_Van_der_Waal_Energy-OPLS-2005>
118.409599304199

> <r_mmod_Electrostatic_Energy-OPLS-2005>
-318.018707275391

> <r_mmod_Solvation_Energy-OPLS-2005>
-234.396484375

> <b_mmod_Minimization_Converged-OPLS-2005>
0

> <r_mmod_RMS_Derivative-OPLS-2005>
3.88874173164368

$$$$
33
                    3D
 Structure written by MMmdl.
153162  0  0  1  0            999 V2000
  -30.5181  -15.0391   20.3958 C   0  0  0  0  0  0
  -30.4371  -12.6445   19.5094 C   0  0  0  0  0  0
  -29.5246  -12.5345   18.2657 C   0  0  0  0  0  0
  -28.0614  -12.3062   18.6856 C   0  0  0  0  0  0
  -27.6230  -13.2544   19.8311 C   0  0  2  0  0  0
  -28.6630  -13.3282   20.9688 C   0  0  0  0  0  0
  -25.2436  -13.8222   20.5724 C   0  0  0  0  0  0
  -24.1763  -13.0437   20.9248 C   0  0  0  0  0  0
  -24.6386  -11.6925   20.8762 C   0  0  0  0  0  0
  -23.9076  -10.4292   21.0414 C   0  0  0  0  0  0
  -24.3628   -9.4205   21.9187 C   0  0  0  0  0  0
  -23.6303   -8.2239   22.0755 C   0  0  0  0  0  0
  -22.4280   -8.0281   21.3551 C   0  0  0  0  0  0
  -21.9919   -9.0255   20.4652 C   0  0  0  0  0  0
  -22.7249  -10.2136   20.3061 C   0  0  0  0  0  0
  -21.6856   -6.0739   22.5284 C   0  0  0  0  0  0
  -21.4013   -6.5643   23.8217 C   0  0  0  0  0  0
  -21.3656   -5.6794   24.9179 C   0  0  0  0  0  0
  -21.6043   -4.3058   24.7229 C   0  0  0  0  0  0
  -21.8815   -3.8151   23.4350 C   0  0  0  0  0  0
  -21.9192   -4.6967   22.3406 C   0  0  0  0  0  0
  -22.7782  -13.5203   21.1899 C   0  0  0  0  0  0
  -22.1662   -4.2154   21.0983 F   0  0  0  0  0  0
  -21.5625   -3.4538   25.7739 F   0  0  0  0  0  0
  -29.9272  -13.7652   20.3613 N   0  0  0  0  0  0
  -26.2852  -12.9463   20.3217 N   0  0  0  0  0  0
  -25.9319  -11.6588   20.5728 N   0  0  0  0  0  0
  -22.0434  -12.8191   22.0454 N   0  0  0  0  0  0
  -25.4083  -15.1956   20.4150 N   0  0  0  0  0  0
  -31.7332  -15.0489   20.1544 O   0  0  0  0  0  0
  -21.6643   -6.8883   21.4247 O   0  0  0  0  0  0
  -22.3464  -14.5506   20.6737 O   0  0  0  0  0  0
  -24.6498  -31.8377   23.1811 C   0  0  0  0  0  0
  -25.9242  -32.4655   23.8231 C   0  0  1  0  0  0
  -27.2202  -27.0705   20.1653 C   0  0  0  0  0  0
  -25.5971  -33.8462   24.2146 N   0  0  0  0  0  0
  -23.4572  -30.4534   21.5271 C   0  0  2  0  0  0
  -24.9084  -28.8649   20.1113 C   0  0  0  0  0  0
  -22.7606  -29.4513   22.4827 C   0  0  0  0  0  0
  -18.0314  -28.1404   22.8475 C   0  0  0  0  0  0
  -24.1493  -36.7234   23.2641 C   0  0  0  0  0  0
  -26.0167  -30.6913   21.3883 C   0  0  0  0  0  0
  -26.0880  -29.2951   20.7319 C   0  0  0  0  0  0
  -27.2435  -28.4162   20.7358 C   0  0  0  0  0  0
  -26.0128  -26.7554   19.5056 C   0  0  0  0  0  0
  -24.8873  -27.6111   19.4803 C   0  0  0  0  0  0
  -23.6888  -29.7762   20.1495 C   0  0  0  0  0  0
  -25.4127  -36.3004   24.0308 C   0  0  1  0  0  0
  -20.5933  -28.3733   23.1221 C   0  0  2  0  0  0
  -20.6791  -26.9432   22.5403 C   0  0  0  0  0  0
  -19.5762  -26.6386   21.5215 C   0  0  0  0  0  0
  -18.1948  -26.7938   22.1632 C   0  0  0  0  0  0
  -19.1573  -28.8889   23.2836 C   0  0  0  0  0  0
  -18.9487  -30.1485   23.8859 C   0  0  0  0  0  0
  -17.6483  -30.6590   24.0564 C   0  0  0  0  0  0
  -25.9083  -34.9382   23.5036 C   0  0  0  0  0  0
  -16.5370  -29.9085   23.6343 C   0  0  0  0  0  0
  -16.7301  -28.6508   23.0355 C   0  0  0  0  0  0
  -26.4536  -31.6546   25.0698 C   0  0  0  0  0  0
  -25.3709  -31.3786   26.1395 C   0  0  0  0  0  0
  -27.0380  -30.2919   24.6322 C   0  0  0  0  0  0
  -27.6072  -32.4308   25.7475 C   0  0  0  0  0  0
  -27.5574  -37.1771   24.8463 C   0  0  0  0  0  0
  -21.4289  -29.3045   22.3585 N   0  0  0  0  0  0
  -26.4281  -37.3730   23.9409 N   0  0  0  0  0  0
  -24.7281  -31.0175   22.0870 N   0  0  0  0  0  0
  -23.4215  -28.8083   23.3020 O   0  0  0  0  0  0
  -28.2637  -26.0551   20.2350 O   0  0  0  0  0  0
  -26.5673  -34.8901   22.4617 O   0  0  0  0  0  0
  -23.5605  -32.1280   23.6998 O   0  0  0  0  0  0
  -29.0698  -18.9360   20.4447 C   0  0  0  0  0  0
  -29.4627  -20.3715   20.2784 C   0  0  0  0  0  0
  -30.0206  -17.7820   20.3669 C   0  0  0  0  0  0
  -31.5891  -19.4923   19.9729 C   0  0  0  0  0  0
  -28.9311  -23.2703   20.8419 C   0  0  0  0  0  0
  -27.8993  -23.7493   18.8379 C   0  0  0  0  0  0
  -28.5618  -21.7956   20.1974 C   0  0  1  0  0  0
  -28.0132  -24.4821   20.2106 C   0  0  2  0  0  0
  -33.0462  -19.7848   19.6885 C   0  0  0  0  0  0
  -30.7731  -20.5484   20.0227 N   0  0  0  0  0  0
  -31.2825  -18.1995   20.1300 N   0  0  0  0  0  0
  -29.7387  -16.2543   20.5039 N   0  0  0  0  0  0
  -28.4161  -22.3663   18.8744 O   0  0  0  0  0  0
  -31.4681  -12.8081   19.1923 H   0  0  0  0  0  0
  -30.4458  -11.7070   20.0682 H   0  0  0  0  0  0
  -29.8606  -11.7233   17.6185 H   0  0  0  0  0  0
  -29.5982  -13.4489   17.6744 H   0  0  0  0  0  0
  -27.9739  -11.2703   19.0165 H   0  0  0  0  0  0
  -27.3974  -12.4101   17.8268 H   0  0  0  0  0  0
  -27.5723  -14.2453   19.3790 H   0  0  0  0  0  0
  -28.7720  -12.3645   21.4677 H   0  0  0  0  0  0
  -28.3448  -14.0391   21.7330 H   0  0  0  0  0  0
  -25.2774   -9.5680   22.4758 H   0  0  0  0  0  0
  -24.0021   -7.4624   22.7465 H   0  0  0  0  0  0
  -21.0855   -8.8773   19.8955 H   0  0  0  0  0  0
  -22.3707  -10.9673   19.6171 H   0  0  0  0  0  0
  -21.2005   -7.6150   23.9721 H   0  0  0  0  0  0
  -21.1480   -6.0526   25.9083 H   0  0  0  0  0  0
  -22.0593   -2.7613   23.2846 H   0  0  0  0  0  0
  -22.4068  -11.9869   22.4858 H   0  0  0  0  0  0
  -21.1043  -13.1203   22.2646 H   0  0  0  0  0  0
  -24.6344  -15.8416   20.5288 H   0  0  0  0  0  0
  -26.2365  -15.6374   20.0396 H   0  0  0  0  0  0
  -26.7310  -32.5242   23.0957 H   0  0  0  0  0  0
  -25.0109  -33.9564   25.0290 H   0  0  0  0  0  0
  -22.7629  -31.2808   21.3663 H   0  0  0  0  0  0
  -23.3757  -35.9563   23.3292 H   0  0  0  0  0  0
  -24.3583  -36.8882   22.2059 H   0  0  0  0  0  0
  -23.7250  -37.6428   23.6686 H   0  0  0  0  0  0
  -26.1793  -31.4418   20.6135 H   0  0  0  0  0  0
  -26.8832  -30.7440   22.0356 H   0  0  0  0  0  0
  -28.1415  -28.7441   21.2410 H   0  0  0  0  0  0
  -25.9111  -25.7966   19.0213 H   0  0  0  0  0  0
  -23.9882  -27.2757   18.9814 H   0  0  0  0  0  0
  -23.8361  -30.5464   19.3918 H   0  0  0  0  0  0
  -22.8020  -29.2233   19.8356 H   0  0  0  0  0  0
  -25.1321  -36.1815   25.0801 H   0  0  0  0  0  0
  -21.0024  -28.3322   24.1344 H   0  0  0  0  0  0
  -20.5682  -26.2352   23.3629 H   0  0  0  0  0  0
  -21.6659  -26.7426   22.1211 H   0  0  0  0  0  0
  -19.6916  -25.6290   21.1271 H   0  0  0  0  0  0
  -19.6697  -27.3178   20.6730 H   0  0  0  0  0  0
  -17.4221  -26.6691   21.4031 H   0  0  0  0  0  0
  -18.0345  -26.0086   22.9037 H   0  0  0  0  0  0
  -19.7962  -30.7319   24.2202 H   0  0  0  0  0  0
  -17.5035  -31.6267   24.5178 H   0  0  0  0  0  0
  -15.5368  -30.2975   23.7679 H   0  0  0  0  0  0
  -15.8708  -28.0819   22.7071 H   0  0  0  0  0  0
  -24.5858  -30.7163   25.7729 H   0  0  0  0  0  0
  -24.8939  -32.2995   26.4757 H   0  0  0  0  0  0
  -25.7983  -30.8995   27.0210 H   0  0  0  0  0  0
  -26.2990  -29.6645   24.1322 H   0  0  0  0  0  0
  -27.3946  -29.7229   25.4917 H   0  0  0  0  0  0
  -27.8935  -30.4116   23.9669 H   0  0  0  0  0  0
  -27.2675  -33.3644   26.1970 H   0  0  0  0  0  0
  -28.3922  -32.6807   25.0323 H   0  0  0  0  0  0
  -28.0684  -31.8478   26.5456 H   0  0  0  0  0  0
  -28.2583  -38.0076   24.7513 H   0  0  0  0  0  0
  -28.1083  -36.2608   24.6280 H   0  0  0  0  0  0
  -27.2302  -37.1412   25.8871 H   0  0  0  0  0  0
  -20.9512  -29.8758   21.6755 H   0  0  0  0  0  0
  -26.0138  -38.2792   24.1424 H   0  0  0  0  0  0
  -28.0216  -18.7266   20.6102 H   0  0  0  0  0  0
  -29.9748  -23.4809   20.6070 H   0  0  0  0  0  0
  -28.8652  -23.2452   21.9291 H   0  0  0  0  0  0
  -28.4646  -24.2922   18.0802 H   0  0  0  0  0  0
  -26.8623  -23.7371   18.5015 H   0  0  0  0  0  0
  -27.5622  -21.5339   20.5463 H   0  0  0  0  0  0
  -27.0496  -24.3631   20.7075 H   0  0  0  0  0  0
  -33.2225  -20.8512   19.5452 H   0  0  0  0  0  0
  -33.3670  -19.2652   18.7853 H   0  0  0  0  0  0
  -33.6687  -19.4467   20.5169 H   0  0  0  0  0  0
  -28.7680  -16.0527   20.6745 H   0  0  0  0  0  0
  1 25  1  0  0  0
  1 30  2  0  0  0
  1 82  1  0  0  0
  2  3  1  0  0  0
  2 25  1  0  0  0
  2 84  1  0  0  0
  2 85  1  0  0  0
  3  4  1  0  0  0
  3 86  1  0  0  0
  3 87  1  0  0  0
  4  5  1  0  0  0
  4 88  1  0  0  0
  4 89  1  0  0  0
  5  6  1  0  0  0
  5 26  1  0  0  0
  5 90  1  0  0  0
  6 25  1  0  0  0
  6 91  1  0  0  0
  6 92  1  0  0  0
  7  8  2  0  0  0
  7 26  1  0  0  0
  7 29  1  0  0  0
  8  9  1  0  0  0
  8 22  1  0  0  0
  9 10  1  0  0  0
  9 27  2  0  0  0
 10 11  2  0  0  0
 10 15  1  0  0  0
 11 12  1  0  0  0
 11 93  1  0  0  0
 12 13  2  0  0  0
 12 94  1  0  0  0
 13 14  1  0  0  0
 13 31  1  0  0  0
 14 15  2  0  0  0
 14 95  1  0  0  0
 15 96  1  0  0  0
 16 17  2  0  0  0
 16 21  1  0  0  0
 16 31  1  0  0  0
 17 18  1  0  0  0
 17 97  1  0  0  0
 18 19  2  0  0  0
 18 98  1  0  0  0
 19 20  1  0  0  0
 19 24  1  0  0  0
 20 21  2  0  0  0
 20 99  1  0  0  0
 21 23  1  0  0  0
 22 28  1  0  0  0
 22 32  2  0  0  0
 26 27  1  0  0  0
 28100  1  0  0  0
 28101  1  0  0  0
 29102  1  0  0  0
 29103  1  0  0  0
 33 34  1  0  0  0
 33 66  1  0  0  0
 33 70  2  0  0  0
 34 36  1  0  0  0
 34 59  1  0  0  0
 34104  1  0  0  0
 35 44  2  0  0  0
 35 45  1  0  0  0
 35 68  1  0  0  0
 36 56  1  0  0  0
 36105  1  0  0  0
 37 39  1  0  0  0
 37 47  1  0  0  0
 37 66  1  0  0  0
 37106  1  0  0  0
 38 43  2  0  0  0
 38 46  1  0  0  0
 38 47  1  0  0  0
 39 64  1  0  0  0
 39 67  2  0  0  0
 40 52  1  0  0  0
 40 53  2  0  0  0
 40 58  1  0  0  0
 41107  1  0  0  0
 41108  1  0  0  0
 41109  1  0  0  0
 41 48  1  0  0  0
 42 43  1  0  0  0
 42 66  1  0  0  0
 42110  1  0  0  0
 42111  1  0  0  0
 43 44  1  0  0  0
 44112  1  0  0  0
 45 46  2  0  0  0
 45113  1  0  0  0
 46114  1  0  0  0
 47115  1  0  0  0
 47116  1  0  0  0
 48 56  1  0  0  0
 48 65  1  0  0  0
 48117  1  0  0  0
 49 50  1  0  0  0
 49 53  1  0  0  0
 49 64  1  0  0  0
 49118  1  0  0  0
 50 51  1  0  0  0
 50119  1  0  0  0
 50120  1  0  0  0
 51 52  1  0  0  0
 51121  1  0  0  0
 51122  1  0  0  0
 52123  1  0  0  0
 52124  1  0  0  0
 53 54  1  0  0  0
 54 55  2  0  0  0
 54125  1  0  0  0
 55 57  1  0  0  0
 55126  1  0  0  0
 56 69  2  0  0  0
 57 58  2  0  0  0
 57127  1  0  0  0
 58128  1  0  0  0
 59 60  1  0  0  0
 59 61  1  0  0  0
 59 62  1  0  0  0
 60129  1  0  0  0
 60130  1  0  0  0
 60131  1  0  0  0
 61132  1  0  0  0
 61133  1  0  0  0
 61134  1  0  0  0
 62135  1  0  0  0
 62136  1  0  0  0
 62137  1  0  0  0
 63 65  1  0  0  0
 63138  1  0  0  0
 63139  1  0  0  0
 63140  1  0  0  0
 64141  1  0  0  0
 65142  1  0  0  0
 68 78  1  0  0  0
 71 72  2  0  0  0
 71 73  1  0  0  0
 71143  1  0  0  0
 72 80  1  0  0  0
 72 77  1  0  0  0
 73 81  2  0  0  0
 73 82  1  0  0  0
 74 79  1  0  0  0
 74 80  2  0  0  0
 74 81  1  0  0  0
 75 77  1  0  0  0
 75 78  1  0  0  0
 75144  1  0  0  0
 75145  1  0  0  0
 76 78  1  0  0  0
 76 83  1  0  0  0
 76146  1  0  0  0
 76147  1  0  0  0
 77 83  1  0  0  0
 77148  1  0  0  0
 78149  1  0  0  0
 79150  1  0  0  0
 79151  1  0  0  0
 79152  1  0  0  0
 82153  1  0  0  0
M  ISO  4   1 100  68 101  78 101  82 100
M  END
> <chiral flag>
0

> <version>
0

> <s_m_source_file>
/data/baiqing/PycharmProjects/Reinvent-master-3.2/result/LINK_invent/BTK/process_docking_weight1_custom_sum_contain_oxygen_bond_distance_aromatic_linkinvent_7_9_3/rearranged_h_0181.sdf

> <i_m_source_file_index>
34

> <r_mmod_Potential_Energy-OPLS-2005>
235.319244384766

> <r_mmod_Stretch_Energy-OPLS-2005>
302.943420410156

> <r_mmod_Bend_Energy-OPLS-2005>
326.02587890625

> <r_mmod_Torsional_Energy-OPLS-2005>
236.704727172852

> <r_mmod_Improper_Torsional_Energy-OPLS-2005>
4.60090970993042

> <r_mmod_Van_der_Waal_Energy-OPLS-2005>
132.526565551758

> <r_mmod_Electrostatic_Energy-OPLS-2005>
-762.752380371094

> <r_mmod_Solvation_Energy-OPLS-2005>
-260.295196533203

> <b_mmod_Minimization_Converged-OPLS-2005>
0

> <r_mmod_RMS_Derivative-OPLS-2005>
1.10511267185211

$$$$
34
                    3D
 Structure written by MMmdl.
155164  0  0  1  0            999 V2000
  -30.4305  -15.2872   20.3555 C   0  0  0  0  0  0
  -30.4453  -12.8191   19.5386 C   0  0  0  0  0  0
  -29.5475  -12.5922   18.2950 C   0  0  0  0  0  0
  -28.0939  -12.3137   18.7146 C   0  0  0  0  0  0
  -27.6186  -13.2815   19.8277 C   0  0  2  0  0  0
  -28.6501  -13.4603   20.9645 C   0  0  0  0  0  0
  -25.2428  -13.8271   20.5743 C   0  0  0  0  0  0
  -24.1761  -13.0454   20.9219 C   0  0  0  0  0  0
  -24.6422  -11.6955   20.8722 C   0  0  0  0  0  0
  -23.9114  -10.4303   21.0378 C   0  0  0  0  0  0
  -24.3651   -9.4215   21.9161 C   0  0  0  0  0  0
  -23.6323   -8.2252   22.0739 C   0  0  0  0  0  0
  -22.4306   -8.0285   21.3531 C   0  0  0  0  0  0
  -21.9943   -9.0262   20.4629 C   0  0  0  0  0  0
  -22.7278  -10.2145   20.3029 C   0  0  0  0  0  0
  -21.6869   -6.0747   22.5279 C   0  0  0  0  0  0
  -21.4010   -6.5639   23.8213 C   0  0  0  0  0  0
  -21.3665   -5.6792   24.9174 C   0  0  0  0  0  0
  -21.6053   -4.3053   24.7220 C   0  0  0  0  0  0
  -21.8823   -3.8148   23.4335 C   0  0  0  0  0  0
  -21.9195   -4.6972   22.3401 C   0  0  0  0  0  0
  -22.7773  -13.5207   21.1885 C   0  0  0  0  0  0
  -22.1656   -4.2154   21.0977 F   0  0  0  0  0  0
  -21.5642   -3.4537   25.7726 F   0  0  0  0  0  0
  -29.8854  -13.9676   20.3461 N   0  0  0  0  0  0
  -26.2863  -12.9553   20.3224 N   0  0  0  0  0  0
  -25.9360  -11.6651   20.5682 N   0  0  0  0  0  0
  -22.0426  -12.8197   22.0436 N   0  0  0  0  0  0
  -25.4132  -15.1998   20.4242 N   0  0  0  0  0  0
  -31.6473  -15.2926   20.1098 O   0  0  0  0  0  0
  -21.6652   -6.8894   21.4241 O   0  0  0  0  0  0
  -22.3452  -14.5523   20.6747 O   0  0  0  0  0  0
  -24.6653  -31.8194   23.1688 C   0  0  0  0  0  0
  -25.9313  -32.4570   23.8170 C   0  0  1  0  0  0
  -27.2195  -26.9040   20.1925 C   0  0  0  0  0  0
  -25.5977  -33.8388   24.2061 N   0  0  0  0  0  0
  -23.4817  -30.4276   21.5201 C   0  0  2  0  0  0
  -24.9350  -28.8103   20.1151 C   0  0  0  0  0  0
  -22.7683  -29.4402   22.4802 C   0  0  0  0  0  0
  -18.0307  -28.1403   22.8468 C   0  0  0  0  0  0
  -24.1487  -36.7193   23.2649 C   0  0  0  0  0  0
  -26.0514  -30.6182   21.4013 C   0  0  0  0  0  0
  -26.1194  -29.2058   20.7487 C   0  0  0  0  0  0
  -27.2553  -28.2746   20.7613 C   0  0  0  0  0  0
  -26.0032  -26.6626   19.5134 C   0  0  0  0  0  0
  -24.9038  -27.5607   19.4741 C   0  0  0  0  0  0
  -23.7220  -29.7404   20.1474 C   0  0  0  0  0  0
  -25.4131  -36.2953   24.0295 C   0  0  1  0  0  0
  -20.5932  -28.3735   23.1205 C   0  0  2  0  0  0
  -20.6786  -26.9419   22.5419 C   0  0  0  0  0  0
  -19.5765  -26.6369   21.5221 C   0  0  0  0  0  0
  -18.1938  -26.7940   22.1619 C   0  0  0  0  0  0
  -19.1569  -28.8901   23.2809 C   0  0  0  0  0  0
  -18.9478  -30.1485   23.8847 C   0  0  0  0  0  0
  -17.6475  -30.6597   24.0544 C   0  0  0  0  0  0
  -25.9099  -34.9339   23.5008 C   0  0  0  0  0  0
  -16.5363  -29.9080   23.6346 C   0  0  0  0  0  0
  -16.7288  -28.6498   23.0371 C   0  0  0  0  0  0
  -26.4557  -31.6535   25.0711 C   0  0  0  0  0  0
  -25.3696  -31.3802   26.1381 C   0  0  0  0  0  0
  -27.0452  -30.2904   24.6460 C   0  0  0  0  0  0
  -27.6054  -32.4354   25.7508 C   0  0  0  0  0  0
  -27.5563  -37.1752   24.8463 C   0  0  0  0  0  0
  -21.4347  -29.3016   22.3561 N   0  0  0  0  0  0
  -26.4268  -37.3698   23.9421 N   0  0  0  0  0  0
  -24.7546  -30.9837   22.0839 N   0  0  0  0  0  0
  -23.4223  -28.7973   23.3050 O   0  0  0  0  0  0
  -28.2218  -25.7918   20.2704 O   0  0  0  0  0  0
  -26.5706  -34.8882   22.4599 O   0  0  0  0  0  0
  -23.5719  -32.1165   23.6767 O   0  0  0  0  0  0
  -28.6894  -21.0785   21.0635 C   0  0  0  0  0  0
  -28.9985  -19.5052   20.9868 C   0  0  0  0  0  0
  -28.1077  -21.4072   22.3324 C   0  0  0  0  0  0
  -27.9345  -19.2524   23.0506 C   0  0  0  0  0  0
  -29.0440  -17.2090   19.3198 C   0  0  0  0  0  0
  -29.8001  -18.1717   20.2047 C   0  0  2  0  0  0
  -27.9077  -22.8183   22.8744 C   0  0  0  0  0  0
  -27.5378  -18.2843   24.1439 C   0  0  0  0  0  0
  -28.9153  -22.5881   20.1996 C   0  0  0  0  0  0
  -27.9630  -24.1581   20.1250 C   0  0  0  0  0  0
  -28.5242  -18.7523   21.9986 N   0  0  0  0  0  0
  -27.7294  -20.5236   23.2621 N   0  0  0  0  0  0
  -29.6469  -16.5488   20.4480 N   0  0  0  0  0  0
  -31.4675  -13.0194   19.2148 H   0  0  0  0  0  0
  -30.5070  -11.9105   20.1407 H   0  0  0  0  0  0
  -29.9349  -11.7709   17.6905 H   0  0  0  0  0  0
  -29.5805  -13.4792   17.6615 H   0  0  0  0  0  0
  -28.0456  -11.2855   19.0751 H   0  0  0  0  0  0
  -27.4290  -12.3678   17.8514 H   0  0  0  0  0  0
  -27.5375  -14.2517   19.3354 H   0  0  0  0  0  0
  -28.8173  -12.5313   21.5107 H   0  0  0  0  0  0
  -28.2891  -14.1900   21.6907 H   0  0  0  0  0  0
  -25.2791   -9.5706   22.4738 H   0  0  0  0  0  0
  -24.0035   -7.4658   22.7469 H   0  0  0  0  0  0
  -21.0868   -8.8793   19.8948 H   0  0  0  0  0  0
  -22.3729  -10.9682   19.6139 H   0  0  0  0  0  0
  -21.1985   -7.6142   23.9722 H   0  0  0  0  0  0
  -21.1488   -6.0507   25.9085 H   0  0  0  0  0  0
  -22.0599   -2.7606   23.2828 H   0  0  0  0  0  0
  -22.4048  -11.9864   22.4834 H   0  0  0  0  0  0
  -21.1024  -13.1191   22.2624 H   0  0  0  0  0  0
  -24.6571  -15.8627   20.5489 H   0  0  0  0  0  0
  -26.2897  -15.6380   20.1725 H   0  0  0  0  0  0
  -26.7392  -32.5095   23.0887 H   0  0  0  0  0  0
  -25.0102  -33.9466   25.0199 H   0  0  0  0  0  0
  -22.7961  -31.2581   21.3471 H   0  0  0  0  0  0
  -23.3767  -35.9505   23.3271 H   0  0  0  0  0  0
  -24.3573  -36.8882   22.2077 H   0  0  0  0  0  0
  -23.7220  -37.6360   23.6733 H   0  0  0  0  0  0
  -26.2299  -31.3557   20.6175 H   0  0  0  0  0  0
  -26.9136  -30.6801   22.0543 H   0  0  0  0  0  0
  -28.1506  -28.5740   21.2871 H   0  0  0  0  0  0
  -25.8672  -25.7049   19.0306 H   0  0  0  0  0  0
  -24.0052  -27.2508   18.9595 H   0  0  0  0  0  0
  -23.8763  -30.5061   19.3861 H   0  0  0  0  0  0
  -22.8337  -29.1918   19.8298 H   0  0  0  0  0  0
  -25.1330  -36.1744   25.0786 H   0  0  0  0  0  0
  -20.9988  -28.3323   24.1338 H   0  0  0  0  0  0
  -20.5661  -26.2347   23.3646 H   0  0  0  0  0  0
  -21.6648  -26.7396   22.1221 H   0  0  0  0  0  0
  -19.6921  -25.6265   21.1279 H   0  0  0  0  0  0
  -19.6714  -27.3155   20.6732 H   0  0  0  0  0  0
  -17.4213  -26.6670   21.4011 H   0  0  0  0  0  0
  -18.0322  -26.0088   22.9027 H   0  0  0  0  0  0
  -19.7955  -30.7301   24.2200 H   0  0  0  0  0  0
  -17.5029  -31.6275   24.5139 H   0  0  0  0  0  0
  -15.5360  -30.2965   23.7716 H   0  0  0  0  0  0
  -15.8676  -28.0796   22.7138 H   0  0  0  0  0  0
  -24.5863  -30.7155   25.7706 H   0  0  0  0  0  0
  -24.8893  -32.3012   26.4713 H   0  0  0  0  0  0
  -25.7933  -30.9034   27.0229 H   0  0  0  0  0  0
  -26.3120  -29.6596   24.1421 H   0  0  0  0  0  0
  -27.3926  -29.7256   25.5123 H   0  0  0  0  0  0
  -27.9089  -30.4090   23.9912 H   0  0  0  0  0  0
  -27.2622  -33.3710   26.1946 H   0  0  0  0  0  0
  -28.3936  -32.6833   25.0383 H   0  0  0  0  0  0
  -28.0643  -31.8572   26.5542 H   0  0  0  0  0  0
  -28.2551  -38.0071   24.7521 H   0  0  0  0  0  0
  -28.1072  -36.2602   24.6264 H   0  0  0  0  0  0
  -27.2285  -37.1370   25.8861 H   0  0  0  0  0  0
  -20.9615  -29.8712   21.6684 H   0  0  0  0  0  0
  -26.0101  -38.2745   24.1453 H   0  0  0  0  0  0
  -29.4706  -17.0045   18.3399 H   0  0  0  0  0  0
  -27.9581  -17.2742   19.3292 H   0  0  0  0  0  0
  -30.7818  -18.5009   19.8716 H   0  0  0  0  0  0
  -28.6756  -23.5221   22.5611 H   0  0  0  0  0  0
  -27.9573  -22.8208   23.9637 H   0  0  0  0  0  0
  -26.9191  -23.1939   22.6223 H   0  0  0  0  0  0
  -26.8116  -17.5627   23.7706 H   0  0  0  0  0  0
  -27.0996  -18.7994   24.9995 H   0  0  0  0  0  0
  -28.4124  -17.7380   24.4963 H   0  0  0  0  0  0
  -29.0464  -22.2806   19.1615 H   0  0  0  0  0  0
  -29.9207  -22.8965   20.4880 H   0  0  0  0  0  0
  -27.0195  -23.9855   20.6369 H   0  0  0  0  0  0
  -27.6285  -24.1301   19.0875 H   0  0  0  0  0  0
  1 25  1  0  0  0
  1 30  2  0  0  0
  1 83  1  0  0  0
  2  3  1  0  0  0
  2 25  1  0  0  0
  2 84  1  0  0  0
  2 85  1  0  0  0
  3  4  1  0  0  0
  3 86  1  0  0  0
  3 87  1  0  0  0
  4  5  1  0  0  0
  4 88  1  0  0  0
  4 89  1  0  0  0
  5  6  1  0  0  0
  5 26  1  0  0  0
  5 90  1  0  0  0
  6 25  1  0  0  0
  6 91  1  0  0  0
  6 92  1  0  0  0
  7  8  2  0  0  0
  7 26  1  0  0  0
  7 29  1  0  0  0
  8  9  1  0  0  0
  8 22  1  0  0  0
  9 10  1  0  0  0
  9 27  2  0  0  0
 10 11  2  0  0  0
 10 15  1  0  0  0
 11 12  1  0  0  0
 11 93  1  0  0  0
 12 13  2  0  0  0
 12 94  1  0  0  0
 13 14  1  0  0  0
 13 31  1  0  0  0
 14 15  2  0  0  0
 14 95  1  0  0  0
 15 96  1  0  0  0
 16 17  2  0  0  0
 16 21  1  0  0  0
 16 31  1  0  0  0
 17 18  1  0  0  0
 17 97  1  0  0  0
 18 19  2  0  0  0
 18 98  1  0  0  0
 19 20  1  0  0  0
 19 24  1  0  0  0
 20 21  2  0  0  0
 20 99  1  0  0  0
 21 23  1  0  0  0
 22 28  1  0  0  0
 22 32  2  0  0  0
 26 27  1  0  0  0
 28100  1  0  0  0
 28101  1  0  0  0
 29102  1  0  0  0
 29103  1  0  0  0
 33 34  1  0  0  0
 33 66  1  0  0  0
 33 70  2  0  0  0
 34 36  1  0  0  0
 34 59  1  0  0  0
 34104  1  0  0  0
 35 44  2  0  0  0
 35 45  1  0  0  0
 35 68  1  0  0  0
 36 56  1  0  0  0
 36105  1  0  0  0
 37 39  1  0  0  0
 37 47  1  0  0  0
 37 66  1  0  0  0
 37106  1  0  0  0
 38 43  2  0  0  0
 38 46  1  0  0  0
 38 47  1  0  0  0
 39 64  1  0  0  0
 39 67  2  0  0  0
 40 52  1  0  0  0
 40 53  2  0  0  0
 40 58  1  0  0  0
 41107  1  0  0  0
 41108  1  0  0  0
 41109  1  0  0  0
 41 48  1  0  0  0
 42 43  1  0  0  0
 42 66  1  0  0  0
 42110  1  0  0  0
 42111  1  0  0  0
 43 44  1  0  0  0
 44112  1  0  0  0
 45 46  2  0  0  0
 45113  1  0  0  0
 46114  1  0  0  0
 47115  1  0  0  0
 47116  1  0  0  0
 48 56  1  0  0  0
 48 65  1  0  0  0
 48117  1  0  0  0
 49 50  1  0  0  0
 49 53  1  0  0  0
 49 64  1  0  0  0
 49118  1  0  0  0
 50 51  1  0  0  0
 50119  1  0  0  0
 50120  1  0  0  0
 51 52  1  0  0  0
 51121  1  0  0  0
 51122  1  0  0  0
 52123  1  0  0  0
 52124  1  0  0  0
 53 54  1  0  0  0
 54 55  2  0  0  0
 54125  1  0  0  0
 55 57  1  0  0  0
 55126  1  0  0  0
 56 69  2  0  0  0
 57 58  2  0  0  0
 57127  1  0  0  0
 58128  1  0  0  0
 59 60  1  0  0  0
 59 61  1  0  0  0
 59 62  1  0  0  0
 60129  1  0  0  0
 60130  1  0  0  0
 60131  1  0  0  0
 61132  1  0  0  0
 61133  1  0  0  0
 61134  1  0  0  0
 62135  1  0  0  0
 62136  1  0  0  0
 62137  1  0  0  0
 63 65  1  0  0  0
 63138  1  0  0  0
 63139  1  0  0  0
 63140  1  0  0  0
 64141  1  0  0  0
 65142  1  0  0  0
 68 80  1  0  0  0
 71 72  1  0  0  0
 71 73  2  0  0  0
 71 79  1  0  0  0
 72 81  2  0  0  0
 72 76  1  0  0  0
 73 77  1  0  0  0
 73 82  1  0  0  0
 74 78  1  0  0  0
 74 81  1  0  0  0
 74 82  2  0  0  0
 75 76  1  0  0  0
 75 83  1  0  0  0
 75143  1  0  0  0
 75144  1  0  0  0
 76 83  1  0  0  0
 76145  1  0  0  0
 77146  1  0  0  0
 77147  1  0  0  0
 77148  1  0  0  0
 78149  1  0  0  0
 78150  1  0  0  0
 78151  1  0  0  0
 79 80  1  0  0  0
 79152  1  0  0  0
 79153  1  0  0  0
 80154  1  0  0  0
 80155  1  0  0  0
M  ISO  4   1 100  68 101  80 101  83 100
M  END
> <chiral flag>
0

> <version>
0

> <s_m_source_file>
/data/baiqing/PycharmProjects/Reinvent-master-3.2/result/LINK_invent/BTK/process_docking_weight1_custom_sum_contain_oxygen_bond_distance_aromatic_linkinvent_7_9_3/rearranged_h_0181.sdf

> <i_m_source_file_index>
35

> <r_mmod_Potential_Energy-OPLS-2005>
1103.34008789062

> <r_mmod_Stretch_Energy-OPLS-2005>
670.588562011719

> <r_mmod_Bend_Energy-OPLS-2005>
549.360595703125

> <r_mmod_Torsional_Energy-OPLS-2005>
321.357360839844

> <r_mmod_Improper_Torsional_Energy-OPLS-2005>
12.7097578048706

> <r_mmod_Van_der_Waal_Energy-OPLS-2005>
137.95783996582

> <r_mmod_Electrostatic_Energy-OPLS-2005>
-844.228393554688

> <r_mmod_Solvation_Energy-OPLS-2005>
-230.011856079102

> <b_mmod_Minimization_Converged-OPLS-2005>
0

> <r_mmod_RMS_Derivative-OPLS-2005>
2.27050042152405

$$$$
35
                    3D
 Structure written by MMmdl.
153161  0  0  1  0            999 V2000
  -30.6287  -14.6654   20.4751 C   0  0  0  0  0  0
  -30.4352  -12.4082   19.4533 C   0  0  0  0  0  0
  -29.5038  -12.4937   18.2237 C   0  0  0  0  0  0
  -28.0286  -12.3299   18.6411 C   0  0  0  0  0  0
  -27.6490  -13.2194   19.8559 C   0  0  2  0  0  0
  -28.6950  -13.1138   20.9879 C   0  0  0  0  0  0
  -25.2567  -13.8175   20.5700 C   0  0  0  0  0  0
  -24.1845  -13.0441   20.9191 C   0  0  0  0  0  0
  -24.6430  -11.6910   20.8749 C   0  0  0  0  0  0
  -23.9107  -10.4298   21.0415 C   0  0  0  0  0  0
  -24.3652   -9.4205   21.9192 C   0  0  0  0  0  0
  -23.6310   -8.2251   22.0755 C   0  0  0  0  0  0
  -22.4294   -8.0295   21.3546 C   0  0  0  0  0  0
  -21.9943   -9.0278   20.4652 C   0  0  0  0  0  0
  -22.7281  -10.2147   20.3063 C   0  0  0  0  0  0
  -21.6858   -6.0750   22.5288 C   0  0  0  0  0  0
  -21.4010   -6.5652   23.8216 C   0  0  0  0  0  0
  -21.3648   -5.6799   24.9174 C   0  0  0  0  0  0
  -21.6044   -4.3066   24.7224 C   0  0  0  0  0  0
  -21.8818   -3.8161   23.4346 C   0  0  0  0  0  0
  -21.9190   -4.6980   22.3400 C   0  0  0  0  0  0
  -22.7864  -13.5225   21.1823 C   0  0  0  0  0  0
  -22.1666   -4.2170   21.0978 F   0  0  0  0  0  0
  -21.5623   -3.4542   25.7731 F   0  0  0  0  0  0
  -30.0017  -13.4495   20.4078 N   0  0  0  0  0  0
  -26.2992  -12.9369   20.3316 N   0  0  0  0  0  0
  -25.9363  -11.6529   20.5796 N   0  0  0  0  0  0
  -22.0514  -12.8215   22.0380 N   0  0  0  0  0  0
  -25.4256  -15.1893   20.4116 N   0  0  0  0  0  0
  -31.8131  -14.7873   20.1483 O   0  0  0  0  0  0
  -21.6643   -6.8901   21.4254 O   0  0  0  0  0  0
  -22.3549  -14.5537   20.6660 O   0  0  0  0  0  0
  -24.6253  -31.8579   23.2003 C   0  0  0  0  0  0
  -25.9108  -32.4764   23.8326 C   0  0  1  0  0  0
  -27.2256  -27.3012   20.1211 C   0  0  0  0  0  0
  -25.5920  -33.8567   24.2251 N   0  0  0  0  0  0
  -23.4203  -30.4811   21.5404 C   0  0  2  0  0  0
  -24.8676  -28.9282   20.1099 C   0  0  0  0  0  0
  -22.7462  -29.4639   22.4911 C   0  0  0  0  0  0
  -18.0293  -28.1394   22.8482 C   0  0  0  0  0  0
  -24.1492  -36.7284   23.2644 C   0  0  0  0  0  0
  -25.9617  -30.7806   21.3767 C   0  0  0  0  0  0
  -26.0336  -29.4060   20.7188 C   0  0  0  0  0  0
  -27.2111  -28.6019   20.7171 C   0  0  0  0  0  0
  -26.0316  -26.8690   19.5029 C   0  0  0  0  0  0
  -24.8695  -27.6660   19.4947 C   0  0  0  0  0  0
  -23.6358  -29.8098   20.1570 C   0  0  0  0  0  0
  -25.4126  -36.3074   24.0323 C   0  0  1  0  0  0
  -20.5885  -28.3730   23.1277 C   0  0  2  0  0  0
  -20.6774  -26.9434   22.5449 C   0  0  0  0  0  0
  -19.5779  -26.6445   21.5212 C   0  0  0  0  0  0
  -18.1961  -26.7920   22.1666 C   0  0  0  0  0  0
  -19.1541  -28.8882   23.2856 C   0  0  0  0  0  0
  -18.9464  -30.1489   23.8859 C   0  0  0  0  0  0
  -17.6464  -30.6613   24.0517 C   0  0  0  0  0  0
  -25.9059  -34.9443   23.5087 C   0  0  0  0  0  0
  -16.5356  -29.9095   23.6318 C   0  0  0  0  0  0
  -16.7278  -28.6501   23.0366 C   0  0  0  0  0  0
  -26.4491  -31.6585   25.0706 C   0  0  0  0  0  0
  -25.3712  -31.3743   26.1423 C   0  0  0  0  0  0
  -27.0356  -30.3002   24.6209 C   0  0  0  0  0  0
  -27.6038  -32.4338   25.7474 C   0  0  0  0  0  0
  -27.5582  -37.1802   24.8466 C   0  0  0  0  0  0
  -21.4173  -29.3078   22.3660 N   0  0  0  0  0  0
  -26.4304  -37.3772   23.9393 N   0  0  0  0  0  0
  -24.6872  -31.0581   22.0954 N   0  0  0  0  0  0
  -23.4179  -28.8184   23.2999 O   0  0  0  0  0  0
  -28.3668  -26.4848   20.1900 O   0  0  0  0  0  0
  -26.5639  -34.8920   22.4663 O   0  0  0  0  0  0
  -23.5413  -32.1393   23.7326 O   0  0  0  0  0  0
  -28.7293  -18.9686   19.2865 C   0  0  0  0  0  0
  -29.2614  -18.4356   20.6023 C   0  0  1  0  0  0
  -29.5949  -19.9056   20.1005 C   0  0  1  0  0  0
  -30.2861  -17.2260   20.5998 C   0  0  0  0  0  0
  -28.3899  -23.7970   20.4781 C   0  0  0  0  0  0
  -28.9506  -22.4302   19.8365 C   0  0  0  0  0  0
  -28.4699  -25.1296   19.5892 C   0  0  0  0  0  0
  -29.8521  -15.7779   20.6969 N   0  0  0  0  0  0
  -28.8442  -21.1281   20.6286 N   0  3  0  0  0  0
  -31.4733  -12.5406   19.1413 H   0  0  0  0  0  0
  -30.3825  -11.4214   19.9171 H   0  0  0  0  0  0
  -29.7732  -11.7334   17.4890 H   0  0  0  0  0  0
  -29.6387  -13.4533   17.7227 H   0  0  0  0  0  0
  -27.8698  -11.2790   18.8880 H   0  0  0  0  0  0
  -27.3729  -12.5420   17.7957 H   0  0  0  0  0  0
  -27.6567  -14.2470   19.4925 H   0  0  0  0  0  0
  -28.7183  -12.1080   21.4090 H   0  0  0  0  0  0
  -28.4450  -13.7816   21.8139 H   0  0  0  0  0  0
  -25.2799   -9.5662   22.4775 H   0  0  0  0  0  0
  -24.0007   -7.4637   22.7474 H   0  0  0  0  0  0
  -21.0874   -8.8809   19.8962 H   0  0  0  0  0  0
  -22.3753  -10.9690   19.6174 H   0  0  0  0  0  0
  -21.2014   -7.6163   23.9721 H   0  0  0  0  0  0
  -21.1464   -6.0531   25.9071 H   0  0  0  0  0  0
  -22.0609   -2.7631   23.2833 H   0  0  0  0  0  0
  -22.4141  -11.9883   22.4770 H   0  0  0  0  0  0
  -21.1131  -13.1220   22.2588 H   0  0  0  0  0  0
  -24.6545  -15.8368   20.5280 H   0  0  0  0  0  0
  -26.2683  -15.6356   20.0740 H   0  0  0  0  0  0
  -26.7164  -32.5415   23.1054 H   0  0  0  0  0  0
  -25.0025  -33.9703   25.0365 H   0  0  0  0  0  0
  -22.7168  -31.3026   21.3932 H   0  0  0  0  0  0
  -23.3757  -35.9612   23.3316 H   0  0  0  0  0  0
  -24.3577  -36.8903   22.2056 H   0  0  0  0  0  0
  -23.7244  -37.6489   23.6666 H   0  0  0  0  0  0
  -26.1038  -31.5466   20.6131 H   0  0  0  0  0  0
  -26.8363  -30.8222   22.0142 H   0  0  0  0  0  0
  -28.1052  -28.9651   21.2047 H   0  0  0  0  0  0
  -25.9577  -25.8960   19.0446 H   0  0  0  0  0  0
  -23.9725  -27.2908   19.0225 H   0  0  0  0  0  0
  -23.7551  -30.5819   19.3961 H   0  0  0  0  0  0
  -22.7557  -29.2379   19.8558 H   0  0  0  0  0  0
  -25.1313  -36.1922   25.0820 H   0  0  0  0  0  0
  -20.9945  -28.3357   24.1407 H   0  0  0  0  0  0
  -20.5561  -26.2375   23.3678 H   0  0  0  0  0  0
  -21.6652  -26.7379   22.1305 H   0  0  0  0  0  0
  -19.6983  -25.6391   21.1189 H   0  0  0  0  0  0
  -19.6716  -27.3315   20.6783 H   0  0  0  0  0  0
  -17.4170  -26.6545   21.4143 H   0  0  0  0  0  0
  -18.0515  -26.0120   22.9163 H   0  0  0  0  0  0
  -19.7954  -30.7316   24.2195 H   0  0  0  0  0  0
  -17.5021  -31.6320   24.5063 H   0  0  0  0  0  0
  -15.5349  -30.2982   23.7650 H   0  0  0  0  0  0
  -15.8683  -28.0787   22.7135 H   0  0  0  0  0  0
  -24.5868  -30.7124   25.7737 H   0  0  0  0  0  0
  -24.8926  -32.2920   26.4849 H   0  0  0  0  0  0
  -25.8014  -30.8896   27.0195 H   0  0  0  0  0  0
  -26.2944  -29.6724   24.1249 H   0  0  0  0  0  0
  -27.4051  -29.7301   25.4744 H   0  0  0  0  0  0
  -27.8810  -30.4280   23.9445 H   0  0  0  0  0  0
  -27.2631  -33.3630   26.2056 H   0  0  0  0  0  0
  -28.3834  -32.6925   25.0295 H   0  0  0  0  0  0
  -28.0719  -31.8468   26.5385 H   0  0  0  0  0  0
  -28.2612  -38.0090   24.7506 H   0  0  0  0  0  0
  -28.1069  -36.2622   24.6305 H   0  0  0  0  0  0
  -27.2291  -37.1459   25.8869 H   0  0  0  0  0  0
  -20.9337  -29.8785   21.6866 H   0  0  0  0  0  0
  -26.0186  -38.2848   24.1392 H   0  0  0  0  0  0
  -29.1672  -18.5556   18.3809 H   0  0  0  0  0  0
  -27.6582  -19.1574   19.2265 H   0  0  0  0  0  0
  -28.5395  -18.3740   21.4146 H   0  0  0  0  0  0
  -30.6044  -20.1272   19.7575 H   0  0  0  0  0  0
  -30.9669  -17.3932   21.4353 H   0  0  0  0  0  0
  -30.9099  -17.3292   19.7114 H   0  0  0  0  0  0
  -28.9356  -23.9740   21.4046 H   0  0  0  0  0  0
  -27.3505  -23.6511   20.7687 H   0  0  0  0  0  0
  -30.0057  -22.5801   19.6081 H   0  0  0  0  0  0
  -28.4639  -22.2651   18.8756 H   0  0  0  0  0  0
  -29.4716  -25.1295   19.1618 H   0  0  0  0  0  0
  -27.8324  -25.0298   18.7121 H   0  0  0  0  0  0
  -28.8788  -15.6055   20.9021 H   0  0  0  0  0  0
  -29.2087  -21.3132   21.5484 H   0  0  0  0  0  0
  -27.8722  -20.8975   20.7458 H   0  0  0  0  0  0
  1 25  1  0  0  0
  1 30  2  0  0  0
  1 78  1  0  0  0
  2  3  1  0  0  0
  2 25  1  0  0  0
  2 80  1  0  0  0
  2 81  1  0  0  0
  3  4  1  0  0  0
  3 82  1  0  0  0
  3 83  1  0  0  0
  4  5  1  0  0  0
  4 84  1  0  0  0
  4 85  1  0  0  0
  5  6  1  0  0  0
  5 26  1  0  0  0
  5 86  1  0  0  0
  6 25  1  0  0  0
  6 87  1  0  0  0
  6 88  1  0  0  0
  7  8  2  0  0  0
  7 26  1  0  0  0
  7 29  1  0  0  0
  8  9  1  0  0  0
  8 22  1  0  0  0
  9 10  1  0  0  0
  9 27  2  0  0  0
 10 11  2  0  0  0
 10 15  1  0  0  0
 11 12  1  0  0  0
 11 89  1  0  0  0
 12 13  2  0  0  0
 12 90  1  0  0  0
 13 14  1  0  0  0
 13 31  1  0  0  0
 14 15  2  0  0  0
 14 91  1  0  0  0
 15 92  1  0  0  0
 16 17  2  0  0  0
 16 21  1  0  0  0
 16 31  1  0  0  0
 17 18  1  0  0  0
 17 93  1  0  0  0
 18 19  2  0  0  0
 18 94  1  0  0  0
 19 20  1  0  0  0
 19 24  1  0  0  0
 20 21  2  0  0  0
 20 95  1  0  0  0
 21 23  1  0  0  0
 22 28  1  0  0  0
 22 32  2  0  0  0
 26 27  1  0  0  0
 28 96  1  0  0  0
 28 97  1  0  0  0
 29 98  1  0  0  0
 29 99  1  0  0  0
 33 34  1  0  0  0
 33 66  1  0  0  0
 33 70  2  0  0  0
 34 36  1  0  0  0
 34 59  1  0  0  0
 34100  1  0  0  0
 35 44  2  0  0  0
 35 45  1  0  0  0
 35 68  1  0  0  0
 36 56  1  0  0  0
 36101  1  0  0  0
 37 39  1  0  0  0
 37 47  1  0  0  0
 37 66  1  0  0  0
 37102  1  0  0  0
 38 43  2  0  0  0
 38 46  1  0  0  0
 38 47  1  0  0  0
 39 64  1  0  0  0
 39 67  2  0  0  0
 40 52  1  0  0  0
 40 53  2  0  0  0
 40 58  1  0  0  0
 41103  1  0  0  0
 41104  1  0  0  0
 41105  1  0  0  0
 41 48  1  0  0  0
 42 43  1  0  0  0
 42 66  1  0  0  0
 42106  1  0  0  0
 42107  1  0  0  0
 43 44  1  0  0  0
 44108  1  0  0  0
 45 46  2  0  0  0
 45109  1  0  0  0
 46110  1  0  0  0
 47111  1  0  0  0
 47112  1  0  0  0
 48 56  1  0  0  0
 48 65  1  0  0  0
 48113  1  0  0  0
 49 50  1  0  0  0
 49 53  1  0  0  0
 49 64  1  0  0  0
 49114  1  0  0  0
 50 51  1  0  0  0
 50115  1  0  0  0
 50116  1  0  0  0
 51 52  1  0  0  0
 51117  1  0  0  0
 51118  1  0  0  0
 52119  1  0  0  0
 52120  1  0  0  0
 53 54  1  0  0  0
 54 55  2  0  0  0
 54121  1  0  0  0
 55 57  1  0  0  0
 55122  1  0  0  0
 56 69  2  0  0  0
 57 58  2  0  0  0
 57123  1  0  0  0
 58124  1  0  0  0
 59 60  1  0  0  0
 59 61  1  0  0  0
 59 62  1  0  0  0
 60125  1  0  0  0
 60126  1  0  0  0
 60127  1  0  0  0
 61128  1  0  0  0
 61129  1  0  0  0
 61130  1  0  0  0
 62131  1  0  0  0
 62132  1  0  0  0
 62133  1  0  0  0
 63 65  1  0  0  0
 63134  1  0  0  0
 63135  1  0  0  0
 63136  1  0  0  0
 64137  1  0  0  0
 65138  1  0  0  0
 68 77  1  0  0  0
 71 72  1  0  0  0
 71 73  1  0  0  0
 71139  1  0  0  0
 71140  1  0  0  0
 72 73  1  0  0  0
 72 74  1  0  0  0
 72141  1  0  0  0
 73 79  1  0  0  0
 73142  1  0  0  0
 74 78  1  0  0  0
 74143  1  0  0  0
 74144  1  0  0  0
 75 76  1  0  0  0
 75 77  1  0  0  0
 75145  1  0  0  0
 75146  1  0  0  0
 76 79  1  0  0  0
 76147  1  0  0  0
 76148  1  0  0  0
 77149  1  0  0  0
 77150  1  0  0  0
 78151  1  0  0  0
 79152  1  0  0  0
 79153  1  0  0  0
M  CHG  1  79   1
M  ISO  4   1 100  68 101  77 101  78 100
M  END
> <chiral flag>
0

> <version>
0

> <s_m_source_file>
/data/baiqing/PycharmProjects/Reinvent-master-3.2/result/LINK_invent/BTK/process_docking_weight1_custom_sum_contain_oxygen_bond_distance_aromatic_linkinvent_7_9_3/rearranged_h_0181.sdf

> <i_m_source_file_index>
36

> <r_mmod_Potential_Energy-OPLS-2005>
-91.4819259643555

> <r_mmod_Stretch_Energy-OPLS-2005>
91.8440246582031

> <r_mmod_Bend_Energy-OPLS-2005>
155.447235107422

> <r_mmod_Torsional_Energy-OPLS-2005>
251.056045532227

> <r_mmod_Improper_Torsional_Energy-OPLS-2005>
4.92205047607422

> <r_mmod_Van_der_Waal_Energy-OPLS-2005>
119.856498718262

> <r_mmod_Electrostatic_Energy-OPLS-2005>
-271.510009765625

> <r_mmod_Solvation_Energy-OPLS-2005>
-499.867706298828

> <b_mmod_Minimization_Converged-OPLS-2005>
0

> <r_mmod_RMS_Derivative-OPLS-2005>
2.58218479156494

$$$$
36
                    3D
 Structure written by MMmdl.
161170  0  0  1  0            999 V2000
  -30.6129  -14.7423   20.4663 C   0  0  0  0  0  0
  -30.4361  -12.4551   19.4691 C   0  0  0  0  0  0
  -29.5117  -12.4984   18.2330 C   0  0  0  0  0  0
  -28.0392  -12.3189   18.6514 C   0  0  0  0  0  0
  -27.6415  -13.2276   19.8456 C   0  0  2  0  0  0
  -28.6868  -13.1646   20.9801 C   0  0  0  0  0  0
  -25.2519  -13.8189   20.5685 C   0  0  0  0  0  0
  -24.1805  -13.0442   20.9202 C   0  0  0  0  0  0
  -24.6389  -11.6917   20.8739 C   0  0  0  0  0  0
  -23.9063  -10.4291   21.0400 C   0  0  0  0  0  0
  -24.3613   -9.4205   21.9171 C   0  0  0  0  0  0
  -23.6288   -8.2239   22.0743 C   0  0  0  0  0  0
  -22.4276   -8.0273   21.3534 C   0  0  0  0  0  0
  -21.9910   -9.0248   20.4642 C   0  0  0  0  0  0
  -22.7238  -10.2129   20.3050 C   0  0  0  0  0  0
  -21.6856   -6.0728   22.5272 C   0  0  0  0  0  0
  -21.4019   -6.5636   23.8207 C   0  0  0  0  0  0
  -21.3657   -5.6785   24.9165 C   0  0  0  0  0  0
  -21.6051   -4.3046   24.7225 C   0  0  0  0  0  0
  -21.8817   -3.8142   23.4337 C   0  0  0  0  0  0
  -21.9193   -4.6956   22.3394 C   0  0  0  0  0  0
  -22.7827  -13.5222   21.1855 C   0  0  0  0  0  0
  -22.1659   -4.2136   21.0977 F   0  0  0  0  0  0
  -21.5623   -3.4535   25.7738 F   0  0  0  0  0  0
  -29.9864  -13.5185   20.3948 N   0  0  0  0  0  0
  -26.2938  -12.9386   20.3251 N   0  0  0  0  0  0
  -25.9317  -11.6536   20.5743 N   0  0  0  0  0  0
  -22.0466  -12.8219   22.0417 N   0  0  0  0  0  0
  -25.4209  -15.1915   20.4088 N   0  0  0  0  0  0
  -31.8071  -14.8416   20.1721 O   0  0  0  0  0  0
  -21.6640   -6.8867   21.4235 O   0  0  0  0  0  0
  -22.3506  -14.5515   20.6680 O   0  0  0  0  0  0
  -24.6309  -31.8553   23.1987 C   0  0  0  0  0  0
  -25.9134  -32.4754   23.8331 C   0  0  1  0  0  0
  -27.2215  -27.2697   20.1352 C   0  0  0  0  0  0
  -25.5930  -33.8557   24.2255 N   0  0  0  0  0  0
  -23.4274  -30.4769   21.5424 C   0  0  2  0  0  0
  -24.8767  -28.9217   20.1136 C   0  0  0  0  0  0
  -22.7501  -29.4599   22.4924 C   0  0  0  0  0  0
  -18.0290  -28.1387   22.8482 C   0  0  0  0  0  0
  -24.1489  -36.7282   23.2641 C   0  0  0  0  0  0
  -25.9729  -30.7710   21.3770 C   0  0  0  0  0  0
  -26.0482  -29.3930   20.7217 C   0  0  0  0  0  0
  -27.2278  -28.5809   20.7183 C   0  0  0  0  0  0
  -26.0303  -26.8615   19.5004 C   0  0  0  0  0  0
  -24.8718  -27.6636   19.4909 C   0  0  0  0  0  0
  -23.6461  -29.8078   20.1596 C   0  0  0  0  0  0
  -25.4114  -36.3070   24.0329 C   0  0  1  0  0  0
  -20.5894  -28.3694   23.1276 C   0  0  2  0  0  0
  -20.6780  -26.9414   22.5414 C   0  0  0  0  0  0
  -19.5758  -26.6381   21.5214 C   0  0  0  0  0  0
  -18.1934  -26.7927   22.1623 C   0  0  0  0  0  0
  -19.1543  -28.8859   23.2870 C   0  0  0  0  0  0
  -18.9465  -30.1461   23.8884 C   0  0  0  0  0  0
  -17.6465  -30.6591   24.0559 C   0  0  0  0  0  0
  -25.9057  -34.9439   23.5095 C   0  0  0  0  0  0
  -16.5355  -29.9085   23.6334 C   0  0  0  0  0  0
  -16.7277  -28.6503   23.0353 C   0  0  0  0  0  0
  -26.4507  -31.6576   25.0718 C   0  0  0  0  0  0
  -25.3730  -31.3730   26.1441 C   0  0  0  0  0  0
  -27.0354  -30.2990   24.6201 C   0  0  0  0  0  0
  -27.6051  -32.4324   25.7494 C   0  0  0  0  0  0
  -27.5580  -37.1793   24.8462 C   0  0  0  0  0  0
  -21.4210  -29.3040   22.3667 N   0  0  0  0  0  0
  -26.4289  -37.3769   23.9416 N   0  0  0  0  0  0
  -24.6958  -31.0521   22.0957 N   0  0  0  0  0  0
  -23.4201  -28.8145   23.3027 O   0  0  0  0  0  0
  -28.3014  -26.3618   20.1427 O   0  0  0  0  0  0
  -26.5629  -34.8916   22.4667 O   0  0  0  0  0  0
  -23.5459  -32.1371   23.7285 O   0  0  0  0  0  0
  -28.8970  -22.4270   20.9885 C   0  0  0  0  0  0
  -28.6962  -23.6690   20.3355 C   0  0  0  0  0  0
  -29.5287  -22.1795   18.9389 C   0  0  0  0  0  0
  -28.0561  -22.7338   23.3497 C   0  0  0  0  0  0
  -28.5860  -22.0339   22.3336 C   0  0  0  0  0  0
  -29.3271  -18.0563   21.8032 C   0  0  0  0  0  0
  -29.5375  -18.7079   20.4705 C   0  0  2  0  0  0
  -30.2602  -17.3057   20.8605 C   0  0  2  0  0  0
  -30.0319  -21.5961   17.6571 C   0  0  0  0  0  0
  -31.3491  -20.3528   21.4412 C   0  0  0  0  0  0
  -28.0729  -25.0469   20.8305 C   0  0  0  0  0  0
  -30.2594  -20.1444   20.3681 C   0  0  2  0  0  0
  -29.0749  -23.4431   19.0122 N   0  0  0  0  0  0
  -29.5405  -21.4928   20.1117 N   0  0  0  0  0  0
  -29.8376  -15.8724   20.6849 N   0  0  0  0  0  0
  -31.4757  -12.5843   19.1654 H   0  0  0  0  0  0
  -30.3861  -11.4797   19.9571 H   0  0  0  0  0  0
  -29.7984  -11.7233   17.5204 H   0  0  0  0  0  0
  -29.6323  -13.4507   17.7140 H   0  0  0  0  0  0
  -27.9058  -11.2719   18.9264 H   0  0  0  0  0  0
  -27.3783  -12.4936   17.8024 H   0  0  0  0  0  0
  -27.6354  -14.2461   19.4575 H   0  0  0  0  0  0
  -28.7238  -12.1670   21.4197 H   0  0  0  0  0  0
  -28.4212  -13.8442   21.7909 H   0  0  0  0  0  0
  -25.2760   -9.5681   22.4740 H   0  0  0  0  0  0
  -23.9995   -7.4636   22.7470 H   0  0  0  0  0  0
  -21.0836   -8.8775   19.8957 H   0  0  0  0  0  0
  -22.3695  -10.9661   19.6156 H   0  0  0  0  0  0
  -21.2022   -7.6143   23.9711 H   0  0  0  0  0  0
  -21.1477   -6.0513   25.9069 H   0  0  0  0  0  0
  -22.0601   -2.7604   23.2848 H   0  0  0  0  0  0
  -22.4098  -11.9911   22.4850 H   0  0  0  0  0  0
  -21.1071  -13.1235   22.2590 H   0  0  0  0  0  0
  -24.6518  -15.8434   20.5173 H   0  0  0  0  0  0
  -26.2627  -15.6303   20.0594 H   0  0  0  0  0  0
  -26.7197  -32.5409   23.1068 H   0  0  0  0  0  0
  -25.0063  -33.9688   25.0393 H   0  0  0  0  0  0
  -22.7230  -31.2986   21.3959 H   0  0  0  0  0  0
  -23.3754  -35.9611   23.3293 H   0  0  0  0  0  0
  -24.3579  -36.8916   22.2057 H   0  0  0  0  0  0
  -23.7236  -37.6478   23.6672 H   0  0  0  0  0  0
  -26.1100  -31.5304   20.6059 H   0  0  0  0  0  0
  -26.8506  -30.8213   22.0096 H   0  0  0  0  0  0
  -28.1275  -28.9384   21.1993 H   0  0  0  0  0  0
  -25.9883  -25.8929   19.0218 H   0  0  0  0  0  0
  -23.9757  -27.2977   19.0089 H   0  0  0  0  0  0
  -23.7695  -30.5828   19.4024 H   0  0  0  0  0  0
  -22.7644  -29.2406   19.8556 H   0  0  0  0  0  0
  -25.1295  -36.1912   25.0819 H   0  0  0  0  0  0
  -20.9982  -28.3273   24.1401 H   0  0  0  0  0  0
  -20.5686  -26.2305   23.3615 H   0  0  0  0  0  0
  -21.6649  -26.7443   22.1208 H   0  0  0  0  0  0
  -19.6922  -25.6290   21.1248 H   0  0  0  0  0  0
  -19.6699  -27.3187   20.6740 H   0  0  0  0  0  0
  -17.4210  -26.6675   21.4020 H   0  0  0  0  0  0
  -18.0332  -26.0070   22.9019 H   0  0  0  0  0  0
  -19.7945  -30.7276   24.2247 H   0  0  0  0  0  0
  -17.5024  -31.6271   24.5163 H   0  0  0  0  0  0
  -15.5354  -30.2983   23.7671 H   0  0  0  0  0  0
  -15.8677  -28.0820   22.7074 H   0  0  0  0  0  0
  -24.5898  -30.7085   25.7777 H   0  0  0  0  0  0
  -24.8931  -32.2904   26.4860 H   0  0  0  0  0  0
  -25.8050  -30.8913   27.0222 H   0  0  0  0  0  0
  -26.2938  -29.6730   24.1220 H   0  0  0  0  0  0
  -27.4034  -29.7256   25.4721 H   0  0  0  0  0  0
  -27.8819  -30.4263   23.9446 H   0  0  0  0  0  0
  -27.2646  -33.3624   26.2057 H   0  0  0  0  0  0
  -28.3869  -32.6884   25.0331 H   0  0  0  0  0  0
  -28.0711  -31.8460   26.5423 H   0  0  0  0  0  0
  -28.2588  -38.0101   24.7523 H   0  0  0  0  0  0
  -28.1085  -36.2630   24.6267 H   0  0  0  0  0  0
  -27.2302  -37.1418   25.8867 H   0  0  0  0  0  0
  -20.9400  -29.8749   21.6858 H   0  0  0  0  0  0
  -26.0163  -38.2843   24.1422 H   0  0  0  0  0  0
  -27.8826  -22.2574   24.3049 H   0  0  0  0  0  0
  -27.7796  -23.7721   23.2723 H   0  0  0  0  0  0
  -28.7945  -20.9979   22.5559 H   0  0  0  0  0  0
  -28.3293  -17.6567   21.9753 H   0  0  0  0  0  0
  -29.7821  -18.4968   22.6870 H   0  0  0  0  0  0
  -28.7389  -18.6001   19.7388 H   0  0  0  0  0  0
  -31.3242  -17.4119   21.0652 H   0  0  0  0  0  0
  -29.6940  -22.1907   16.8081 H   0  0  0  0  0  0
  -29.6567  -20.5805   17.5266 H   0  0  0  0  0  0
  -31.1216  -21.5778   17.6509 H   0  0  0  0  0  0
  -32.0709  -19.5371   21.4479 H   0  0  0  0  0  0
  -30.9413  -20.4401   22.4461 H   0  0  0  0  0  0
  -31.9150  -21.2651   21.2471 H   0  0  0  0  0  0
  -28.4504  -25.2343   21.8343 H   0  0  0  0  0  0
  -27.0038  -24.8898   20.9760 H   0  0  0  0  0  0
  -30.8683  -20.0024   19.4774 H   0  0  0  0  0  0
  -28.8589  -15.6828   20.8369 H   0  0  0  0  0  0
  1 25  1  0  0  0
  1 30  2  0  0  0
  1 85  1  0  0  0
  2  3  1  0  0  0
  2 25  1  0  0  0
  2 86  1  0  0  0
  2 87  1  0  0  0
  3  4  1  0  0  0
  3 88  1  0  0  0
  3 89  1  0  0  0
  4  5  1  0  0  0
  4 90  1  0  0  0
  4 91  1  0  0  0
  5  6  1  0  0  0
  5 26  1  0  0  0
  5 92  1  0  0  0
  6 25  1  0  0  0
  6 93  1  0  0  0
  6 94  1  0  0  0
  7  8  2  0  0  0
  7 26  1  0  0  0
  7 29  1  0  0  0
  8  9  1  0  0  0
  8 22  1  0  0  0
  9 10  1  0  0  0
  9 27  2  0  0  0
 10 11  2  0  0  0
 10 15  1  0  0  0
 11 12  1  0  0  0
 11 95  1  0  0  0
 12 13  2  0  0  0
 12 96  1  0  0  0
 13 14  1  0  0  0
 13 31  1  0  0  0
 14 15  2  0  0  0
 14 97  1  0  0  0
 15 98  1  0  0  0
 16 17  2  0  0  0
 16 21  1  0  0  0
 16 31  1  0  0  0
 17 18  1  0  0  0
 17 99  1  0  0  0
 18 19  2  0  0  0
 18100  1  0  0  0
 19 20  1  0  0  0
 19 24  1  0  0  0
 20 21  2  0  0  0
 20101  1  0  0  0
 21 23  1  0  0  0
 22 28  1  0  0  0
 22 32  2  0  0  0
 26 27  1  0  0  0
 28102  1  0  0  0
 28103  1  0  0  0
 29104  1  0  0  0
 29105  1  0  0  0
 33 34  1  0  0  0
 33 66  1  0  0  0
 33 70  2  0  0  0
 34 36  1  0  0  0
 34 59  1  0  0  0
 34106  1  0  0  0
 35 44  2  0  0  0
 35 45  1  0  0  0
 35 68  1  0  0  0
 36 56  1  0  0  0
 36107  1  0  0  0
 37 39  1  0  0  0
 37 47  1  0  0  0
 37 66  1  0  0  0
 37108  1  0  0  0
 38 43  2  0  0  0
 38 46  1  0  0  0
 38 47  1  0  0  0
 39 64  1  0  0  0
 39 67  2  0  0  0
 40 52  1  0  0  0
 40 53  2  0  0  0
 40 58  1  0  0  0
 41109  1  0  0  0
 41110  1  0  0  0
 41111  1  0  0  0
 41 48  1  0  0  0
 42 43  1  0  0  0
 42 66  1  0  0  0
 42112  1  0  0  0
 42113  1  0  0  0
 43 44  1  0  0  0
 44114  1  0  0  0
 45 46  2  0  0  0
 45115  1  0  0  0
 46116  1  0  0  0
 47117  1  0  0  0
 47118  1  0  0  0
 48 56  1  0  0  0
 48 65  1  0  0  0
 48119  1  0  0  0
 49 50  1  0  0  0
 49 53  1  0  0  0
 49 64  1  0  0  0
 49120  1  0  0  0
 50 51  1  0  0  0
 50121  1  0  0  0
 50122  1  0  0  0
 51 52  1  0  0  0
 51123  1  0  0  0
 51124  1  0  0  0
 52125  1  0  0  0
 52126  1  0  0  0
 53 54  1  0  0  0
 54 55  2  0  0  0
 54127  1  0  0  0
 55 57  1  0  0  0
 55128  1  0  0  0
 56 69  2  0  0  0
 57 58  2  0  0  0
 57129  1  0  0  0
 58130  1  0  0  0
 59 60  1  0  0  0
 59 61  1  0  0  0
 59 62  1  0  0  0
 60131  1  0  0  0
 60132  1  0  0  0
 60133  1  0  0  0
 61134  1  0  0  0
 61135  1  0  0  0
 61136  1  0  0  0
 62137  1  0  0  0
 62138  1  0  0  0
 62139  1  0  0  0
 63 65  1  0  0  0
 63140  1  0  0  0
 63141  1  0  0  0
 63142  1  0  0  0
 64143  1  0  0  0
 65144  1  0  0  0
 68 81  1  0  0  0
 71 72  2  0  0  0
 71 75  1  0  0  0
 71 84  1  0  0  0
 72 81  1  0  0  0
 72 83  1  0  0  0
 73 79  1  0  0  0
 73 83  2  0  0  0
 73 84  1  0  0  0
 74 75  2  0  0  0
 74145  1  0  0  0
 74146  1  0  0  0
 75147  1  0  0  0
 76 78  1  0  0  0
 76148  1  0  0  0
 76149  1  0  0  0
 76 77  1  0  0  0
 77 78  1  0  0  0
 77 82  1  0  0  0
 77150  1  0  0  0
 78 85  1  0  0  0
 78151  1  0  0  0
 79152  1  0  0  0
 79153  1  0  0  0
 79154  1  0  0  0
 80155  1  0  0  0
 80156  1  0  0  0
 80157  1  0  0  0
 80 82  1  0  0  0
 81158  1  0  0  0
 81159  1  0  0  0
 82 84  1  0  0  0
 82160  1  0  0  0
 85161  1  0  0  0
M  ISO  4   1 100  68 101  81 101  85 100
M  END
> <chiral flag>
0

> <version>
0

> <s_m_source_file>
/data/baiqing/PycharmProjects/Reinvent-master-3.2/result/LINK_invent/BTK/process_docking_weight1_custom_sum_contain_oxygen_bond_distance_aromatic_linkinvent_7_9_3/rearranged_h_0181.sdf

> <i_m_source_file_index>
37

> <r_mmod_Potential_Energy-OPLS-2005>
300.2998046875

> <r_mmod_Stretch_Energy-OPLS-2005>
133.190963745117

> <r_mmod_Bend_Energy-OPLS-2005>
194.123336791992

> <r_mmod_Torsional_Energy-OPLS-2005>
325.745788574219

> <r_mmod_Improper_Torsional_Energy-OPLS-2005>
5.29098749160767

> <r_mmod_Van_der_Waal_Energy-OPLS-2005>
116.01586151123

> <r_mmod_Electrostatic_Energy-OPLS-2005>
-335.004608154297

> <r_mmod_Solvation_Energy-OPLS-2005>
-223.345520019531

> <b_mmod_Minimization_Converged-OPLS-2005>
0

> <r_mmod_RMS_Derivative-OPLS-2005>
1.4038233757019

$$$$
37
                    3D
 Structure written by MMmdl.
152161  0  0  1  0            999 V2000
  -30.3823  -15.4267   20.3452 C   0  0  0  0  0  0
  -30.4324  -12.9205   19.5480 C   0  0  0  0  0  0
  -29.5453  -12.6129   18.3118 C   0  0  0  0  0  0
  -28.1023  -12.3028   18.7401 C   0  0  0  0  0  0
  -27.6054  -13.2915   19.8220 C   0  0  2  0  0  0
  -28.6287  -13.5348   20.9550 C   0  0  0  0  0  0
  -25.2356  -13.8269   20.5768 C   0  0  0  0  0  0
  -24.1726  -13.0438   20.9270 C   0  0  0  0  0  0
  -24.6405  -11.6941   20.8761 C   0  0  0  0  0  0
  -23.9104  -10.4294   21.0402 C   0  0  0  0  0  0
  -24.3645   -9.4207   21.9181 C   0  0  0  0  0  0
  -23.6310   -8.2246   22.0754 C   0  0  0  0  0  0
  -22.4290   -8.0287   21.3546 C   0  0  0  0  0  0
  -21.9933   -9.0261   20.4645 C   0  0  0  0  0  0
  -22.7273  -10.2135   20.3052 C   0  0  0  0  0  0
  -21.6857   -6.0741   22.5280 C   0  0  0  0  0  0
  -21.4018   -6.5643   23.8213 C   0  0  0  0  0  0
  -21.3660   -5.6794   24.9174 C   0  0  0  0  0  0
  -21.6044   -4.3058   24.7224 C   0  0  0  0  0  0
  -21.8818   -3.8150   23.4345 C   0  0  0  0  0  0
  -21.9194   -4.6968   22.3402 C   0  0  0  0  0  0
  -22.7741  -13.5178   21.1910 C   0  0  0  0  0  0
  -22.1662   -4.2153   21.0980 F   0  0  0  0  0  0
  -21.5626   -3.4540   25.7736 F   0  0  0  0  0  0
  -29.8427  -14.0886   20.3251 N   0  0  0  0  0  0
  -26.2794  -12.9572   20.3228 N   0  0  0  0  0  0
  -25.9347  -11.6660   20.5713 N   0  0  0  0  0  0
  -22.0403  -12.8157   22.0464 N   0  0  0  0  0  0
  -25.3970  -15.2008   20.4211 N   0  0  0  0  0  0
  -31.6002  -15.3986   20.1012 O   0  0  0  0  0  0
  -21.6647   -6.8888   21.4243 O   0  0  0  0  0  0
  -22.3416  -14.5475   20.6745 O   0  0  0  0  0  0
  -24.6725  -31.8121   23.1617 C   0  0  0  0  0  0
  -25.9361  -32.4527   23.8119 C   0  0  1  0  0  0
  -27.2230  -26.8208   20.1970 C   0  0  0  0  0  0
  -25.5988  -33.8347   24.2015 N   0  0  0  0  0  0
  -23.4933  -30.4190   21.5120 C   0  0  2  0  0  0
  -24.9510  -28.7868   20.1098 C   0  0  0  0  0  0
  -22.7716  -29.4376   22.4737 C   0  0  0  0  0  0
  -18.0330  -28.1416   22.8462 C   0  0  0  0  0  0
  -24.1494  -36.7177   23.2649 C   0  0  0  0  0  0
  -26.0679  -30.5825   21.4105 C   0  0  0  0  0  0
  -26.1348  -29.1613   20.7563 C   0  0  0  0  0  0
  -27.2585  -28.2003   20.7765 C   0  0  0  0  0  0
  -26.0140  -26.6318   19.4851 C   0  0  0  0  0  0
  -24.9229  -27.5456   19.4518 C   0  0  0  0  0  0
  -23.7407  -29.7266   20.1416 C   0  0  0  0  0  0
  -25.4140  -36.2930   24.0290 C   0  0  1  0  0  0
  -20.5961  -28.3767   23.1164 C   0  0  2  0  0  0
  -20.6800  -26.9436   22.5405 C   0  0  0  0  0  0
  -19.5776  -26.6375   21.5215 C   0  0  0  0  0  0
  -18.1959  -26.7946   22.1622 C   0  0  0  0  0  0
  -19.1595  -28.8914   23.2797 C   0  0  0  0  0  0
  -18.9502  -30.1501   23.8837 C   0  0  0  0  0  0
  -17.6493  -30.6601   24.0552 C   0  0  0  0  0  0
  -25.9112  -34.9316   23.4981 C   0  0  0  0  0  0
  -16.5384  -29.9085   23.6347 C   0  0  0  0  0  0
  -16.7311  -28.6507   23.0365 C   0  0  0  0  0  0
  -26.4579  -31.6518   25.0695 C   0  0  0  0  0  0
  -25.3679  -31.3807   26.1335 C   0  0  0  0  0  0
  -27.0490  -30.2866   24.6517 C   0  0  0  0  0  0
  -27.6050  -32.4352   25.7504 C   0  0  0  0  0  0
  -27.5565  -37.1747   24.8467 C   0  0  0  0  0  0
  -21.4374  -29.3033   22.3492 N   0  0  0  0  0  0
  -26.4275  -37.3678   23.9405 N   0  0  0  0  0  0
  -24.7666  -30.9680   22.0809 N   0  0  0  0  0  0
  -23.4213  -28.7965   23.3032 O   0  0  0  0  0  0
  -28.1850  -25.6467   20.3227 O   0  0  0  0  0  0
  -26.5736  -34.8871   22.4587 O   0  0  0  0  0  0
  -23.5771  -32.1142   23.6644 O   0  0  0  0  0  0
  -28.8524  -21.8720   21.7580 C   0  0  0  0  0  0
  -28.6232  -22.3616   20.4067 C   0  0  0  0  0  0
  -28.9234  -21.0270   19.8048 C   0  0  0  0  0  0
  -29.2211  -20.5128   21.8866 C   0  0  0  0  0  0
  -29.0109  -20.3533   18.4545 C   0  0  0  0  0  0
  -29.3141  -18.7804   18.6136 C   0  0  0  0  0  0
  -29.8145  -18.4043   20.0506 C   0  0  1  0  0  0
  -29.5563  -19.7408   23.1203 C   0  0  0  0  0  0
  -27.9911  -24.0125   19.9041 C   0  0  0  0  0  0
  -29.2803  -19.8739   20.6470 N   0  0  0  0  0  0
  -29.6270  -16.7412   20.4442 N   0  0  0  0  0  0
  -31.4457  -13.1383   19.2088 H   0  0  0  0  0  0
  -30.5288  -12.0381   20.1830 H   0  0  0  0  0  0
  -29.9575  -11.7785   17.7428 H   0  0  0  0  0  0
  -29.5498  -13.4743   17.6422 H   0  0  0  0  0  0
  -28.0867  -11.2880   19.1391 H   0  0  0  0  0  0
  -27.4354  -12.3050   17.8770 H   0  0  0  0  0  0
  -27.4991  -14.2402   19.2942 H   0  0  0  0  0  0
  -28.8316  -12.6222   21.5175 H   0  0  0  0  0  0
  -28.2343  -14.2581   21.6703 H   0  0  0  0  0  0
  -25.2786   -9.5681   22.4763 H   0  0  0  0  0  0
  -24.0013   -7.4638   22.7477 H   0  0  0  0  0  0
  -21.0863   -8.8788   19.8952 H   0  0  0  0  0  0
  -22.3731  -10.9676   19.6163 H   0  0  0  0  0  0
  -21.2013   -7.6151   23.9718 H   0  0  0  0  0  0
  -21.1481   -6.0525   25.9077 H   0  0  0  0  0  0
  -22.0596   -2.7613   23.2844 H   0  0  0  0  0  0
  -22.4044  -11.9835   22.4863 H   0  0  0  0  0  0
  -21.1010  -13.1157   22.2662 H   0  0  0  0  0  0
  -24.6241  -15.8479   20.5336 H   0  0  0  0  0  0
  -26.2340  -15.6432   20.0657 H   0  0  0  0  0  0
  -26.7435  -32.5033   23.0829 H   0  0  0  0  0  0
  -25.0067  -33.9406   25.0122 H   0  0  0  0  0  0
  -22.8121  -31.2534   21.3324 H   0  0  0  0  0  0
  -23.3769  -35.9494   23.3280 H   0  0  0  0  0  0
  -24.3563  -36.8862   22.2070 H   0  0  0  0  0  0
  -23.7242  -37.6348   23.6735 H   0  0  0  0  0  0
  -26.2611  -31.3168   20.6273 H   0  0  0  0  0  0
  -26.9226  -30.6436   22.0720 H   0  0  0  0  0  0
  -28.1453  -28.4834   21.3257 H   0  0  0  0  0  0
  -25.8663  -25.6884   18.9804 H   0  0  0  0  0  0
  -24.0276  -27.2538   18.9201 H   0  0  0  0  0  0
  -23.9044  -30.4921   19.3822 H   0  0  0  0  0  0
  -22.8485  -29.1862   19.8206 H   0  0  0  0  0  0
  -25.1346  -36.1709   25.0781 H   0  0  0  0  0  0
  -21.0048  -28.3386   24.1289 H   0  0  0  0  0  0
  -20.5667  -26.2389   23.3657 H   0  0  0  0  0  0
  -21.6663  -26.7391   22.1221 H   0  0  0  0  0  0
  -19.6931  -25.6270   21.1285 H   0  0  0  0  0  0
  -19.6718  -27.3151   20.6718 H   0  0  0  0  0  0
  -17.4227  -26.6686   21.4027 H   0  0  0  0  0  0
  -18.0351  -26.0104   22.9034 H   0  0  0  0  0  0
  -19.7977  -30.7333   24.2181 H   0  0  0  0  0  0
  -17.5044  -31.6275   24.5167 H   0  0  0  0  0  0
  -15.5381  -30.2967   23.7707 H   0  0  0  0  0  0
  -15.8713  -28.0805   22.7115 H   0  0  0  0  0  0
  -24.5876  -30.7138   25.7647 H   0  0  0  0  0  0
  -24.8852  -32.3021   26.4601 H   0  0  0  0  0  0
  -25.7888  -30.9080   27.0218 H   0  0  0  0  0  0
  -26.3182  -29.6514   24.1499 H   0  0  0  0  0  0
  -27.3944  -29.7272   25.5221 H   0  0  0  0  0  0
  -27.9157  -30.4012   24.0005 H   0  0  0  0  0  0
  -27.2607  -33.3710   26.1918 H   0  0  0  0  0  0
  -28.3947  -32.6820   25.0395 H   0  0  0  0  0  0
  -28.0624  -31.8588   26.5556 H   0  0  0  0  0  0
  -28.2564  -38.0058   24.7504 H   0  0  0  0  0  0
  -28.1078  -36.2582   24.6309 H   0  0  0  0  0  0
  -27.2278  -37.1405   25.8869 H   0  0  0  0  0  0
  -20.9652  -29.8701   21.6586 H   0  0  0  0  0  0
  -26.0112  -38.2732   24.1414 H   0  0  0  0  0  0
  -28.7389  -22.5042   22.6291 H   0  0  0  0  0  0
  -29.8135  -20.8182   17.8813 H   0  0  0  0  0  0
  -28.0944  -20.5107   17.8852 H   0  0  0  0  0  0
  -29.9958  -18.4252   17.8405 H   0  0  0  0  0  0
  -28.3753  -18.2508   18.4503 H   0  0  0  0  0  0
  -30.8998  -18.5147   20.0467 H   0  0  0  0  0  0
  -29.3939  -20.3401   24.0165 H   0  0  0  0  0  0
  -30.6008  -19.4283   23.1133 H   0  0  0  0  0  0
  -28.9386  -18.8459   23.2024 H   0  0  0  0  0  0
  -26.9155  -23.8687   20.0035 H   0  0  0  0  0  0
  -28.1519  -24.0169   18.8259 H   0  0  0  0  0  0
  -28.6697  -16.5571   20.7036 H   0  0  0  0  0  0
  1 25  1  0  0  0
  1 30  2  0  0  0
  1 81  1  0  0  0
  2  3  1  0  0  0
  2 25  1  0  0  0
  2 82  1  0  0  0
  2 83  1  0  0  0
  3  4  1  0  0  0
  3 84  1  0  0  0
  3 85  1  0  0  0
  4  5  1  0  0  0
  4 86  1  0  0  0
  4 87  1  0  0  0
  5  6  1  0  0  0
  5 26  1  0  0  0
  5 88  1  0  0  0
  6 25  1  0  0  0
  6 89  1  0  0  0
  6 90  1  0  0  0
  7  8  2  0  0  0
  7 26  1  0  0  0
  7 29  1  0  0  0
  8  9  1  0  0  0
  8 22  1  0  0  0
  9 10  1  0  0  0
  9 27  2  0  0  0
 10 11  2  0  0  0
 10 15  1  0  0  0
 11 12  1  0  0  0
 11 91  1  0  0  0
 12 13  2  0  0  0
 12 92  1  0  0  0
 13 14  1  0  0  0
 13 31  1  0  0  0
 14 15  2  0  0  0
 14 93  1  0  0  0
 15 94  1  0  0  0
 16 17  2  0  0  0
 16 21  1  0  0  0
 16 31  1  0  0  0
 17 18  1  0  0  0
 17 95  1  0  0  0
 18 19  2  0  0  0
 18 96  1  0  0  0
 19 20  1  0  0  0
 19 24  1  0  0  0
 20 21  2  0  0  0
 20 97  1  0  0  0
 21 23  1  0  0  0
 22 28  1  0  0  0
 22 32  2  0  0  0
 26 27  1  0  0  0
 28 98  1  0  0  0
 28 99  1  0  0  0
 29100  1  0  0  0
 29101  1  0  0  0
 33 34  1  0  0  0
 33 66  1  0  0  0
 33 70  2  0  0  0
 34 36  1  0  0  0
 34 59  1  0  0  0
 34102  1  0  0  0
 35 44  2  0  0  0
 35 45  1  0  0  0
 35 68  1  0  0  0
 36 56  1  0  0  0
 36103  1  0  0  0
 37 39  1  0  0  0
 37 47  1  0  0  0
 37 66  1  0  0  0
 37104  1  0  0  0
 38 43  2  0  0  0
 38 46  1  0  0  0
 38 47  1  0  0  0
 39 64  1  0  0  0
 39 67  2  0  0  0
 40 52  1  0  0  0
 40 53  2  0  0  0
 40 58  1  0  0  0
 41105  1  0  0  0
 41106  1  0  0  0
 41107  1  0  0  0
 41 48  1  0  0  0
 42 43  1  0  0  0
 42 66  1  0  0  0
 42108  1  0  0  0
 42109  1  0  0  0
 43 44  1  0  0  0
 44110  1  0  0  0
 45 46  2  0  0  0
 45111  1  0  0  0
 46112  1  0  0  0
 47113  1  0  0  0
 47114  1  0  0  0
 48 56  1  0  0  0
 48 65  1  0  0  0
 48115  1  0  0  0
 49 50  1  0  0  0
 49 53  1  0  0  0
 49 64  1  0  0  0
 49116  1  0  0  0
 50 51  1  0  0  0
 50117  1  0  0  0
 50118  1  0  0  0
 51 52  1  0  0  0
 51119  1  0  0  0
 51120  1  0  0  0
 52121  1  0  0  0
 52122  1  0  0  0
 53 54  1  0  0  0
 54 55  2  0  0  0
 54123  1  0  0  0
 55 57  1  0  0  0
 55124  1  0  0  0
 56 69  2  0  0  0
 57 58  2  0  0  0
 57125  1  0  0  0
 58126  1  0  0  0
 59 60  1  0  0  0
 59 61  1  0  0  0
 59 62  1  0  0  0
 60127  1  0  0  0
 60128  1  0  0  0
 60129  1  0  0  0
 61130  1  0  0  0
 61131  1  0  0  0
 61132  1  0  0  0
 62133  1  0  0  0
 62134  1  0  0  0
 62135  1  0  0  0
 63 65  1  0  0  0
 63136  1  0  0  0
 63137  1  0  0  0
 63138  1  0  0  0
 64139  1  0  0  0
 65140  1  0  0  0
 68 79  1  0  0  0
 71 72  1  0  0  0
 71 74  2  0  0  0
 71141  1  0  0  0
 72 73  2  0  0  0
 72 79  1  0  0  0
 73 75  1  0  0  0
 73 80  1  0  0  0
 74 78  1  0  0  0
 74 80  1  0  0  0
 75 76  1  0  0  0
 75142  1  0  0  0
 75143  1  0  0  0
 76 77  1  0  0  0
 76144  1  0  0  0
 76145  1  0  0  0
 77 80  1  0  0  0
 77 81  1  0  0  0
 77146  1  0  0  0
 78147  1  0  0  0
 78148  1  0  0  0
 78149  1  0  0  0
 79150  1  0  0  0
 79151  1  0  0  0
 81152  1  0  0  0
M  ISO  4   1 100  68 101  79 101  81 100
M  END
> <chiral flag>
0

> <version>
0

> <s_m_source_file>
/data/baiqing/PycharmProjects/Reinvent-master-3.2/result/LINK_invent/BTK/process_docking_weight1_custom_sum_contain_oxygen_bond_distance_aromatic_linkinvent_7_9_3/rearranged_h_0181.sdf

> <i_m_source_file_index>
38

> <r_mmod_Potential_Energy-OPLS-2005>
1674.81884765625

> <r_mmod_Stretch_Energy-OPLS-2005>
708.564514160156

> <r_mmod_Bend_Energy-OPLS-2005>
593.668151855469

> <r_mmod_Torsional_Energy-OPLS-2005>
245.397079467773

> <r_mmod_Improper_Torsional_Energy-OPLS-2005>
6.74377679824829

> <r_mmod_Van_der_Waal_Energy-OPLS-2005>
100.357109069824

> <r_mmod_Electrostatic_Energy-OPLS-2005>
-399.528564453125

> <r_mmod_Solvation_Energy-OPLS-2005>
-223.956741333008

> <b_mmod_Minimization_Converged-OPLS-2005>
0

> <r_mmod_RMS_Derivative-OPLS-2005>
0.253929048776627

$$$$
38
                    3D
 Structure written by MMmdl.
169178  0  0  1  0            999 V2000
  -30.6371  -14.7175   20.4505 C   0  0  0  0  0  0
  -30.4236  -12.4329   19.4817 C   0  0  0  0  0  0
  -29.5063  -12.4926   18.2414 C   0  0  0  0  0  0
  -28.0341  -12.3198   18.6572 C   0  0  0  0  0  0
  -27.6410  -13.2302   19.8516 C   0  0  2  0  0  0
  -28.6840  -13.1744   20.9905 C   0  0  0  0  0  0
  -25.2512  -13.8202   20.5703 C   0  0  0  0  0  0
  -24.1798  -13.0446   20.9216 C   0  0  0  0  0  0
  -24.6389  -11.6922   20.8759 C   0  0  0  0  0  0
  -23.9070  -10.4295   21.0408 C   0  0  0  0  0  0
  -24.3622   -9.4206   21.9186 C   0  0  0  0  0  0
  -23.6295   -8.2241   22.0753 C   0  0  0  0  0  0
  -22.4277   -8.0283   21.3542 C   0  0  0  0  0  0
  -21.9912   -9.0260   20.4647 C   0  0  0  0  0  0
  -22.7241  -10.2140   20.3058 C   0  0  0  0  0  0
  -21.6856   -6.0738   22.5281 C   0  0  0  0  0  0
  -21.4013   -6.5643   23.8213 C   0  0  0  0  0  0
  -21.3658   -5.6796   24.9176 C   0  0  0  0  0  0
  -21.6044   -4.3061   24.7228 C   0  0  0  0  0  0
  -21.8816   -3.8152   23.4350 C   0  0  0  0  0  0
  -21.9193   -4.6964   22.3407 C   0  0  0  0  0  0
  -22.7823  -13.5222   21.1874 C   0  0  0  0  0  0
  -22.1660   -4.2150   21.0983 F   0  0  0  0  0  0
  -21.5630   -3.4543   25.7742 F   0  0  0  0  0  0
  -29.9891  -13.5048   20.4083 N   0  0  0  0  0  0
  -26.2930  -12.9407   20.3291 N   0  0  0  0  0  0
  -25.9318  -11.6548   20.5770 N   0  0  0  0  0  0
  -22.0475  -12.8211   22.0430 N   0  0  0  0  0  0
  -25.4203  -15.1924   20.4112 N   0  0  0  0  0  0
  -31.8230  -14.7847   20.1184 O   0  0  0  0  0  0
  -21.6642   -6.8880   21.4241 O   0  0  0  0  0  0
  -22.3505  -14.5534   20.6726 O   0  0  0  0  0  0
  -24.6312  -31.8558   23.1987 C   0  0  0  0  0  0
  -25.9142  -32.4756   23.8331 C   0  0  1  0  0  0
  -27.2110  -27.2644   20.1287 C   0  0  0  0  0  0
  -25.5939  -33.8560   24.2253 N   0  0  0  0  0  0
  -23.4268  -30.4803   21.5422 C   0  0  2  0  0  0
  -24.8713  -28.9302   20.1075 C   0  0  0  0  0  0
  -22.7499  -29.4608   22.4902 C   0  0  0  0  0  0
  -18.0293  -28.1383   22.8485 C   0  0  0  0  0  0
  -24.1490  -36.7287   23.2640 C   0  0  0  0  0  0
  -25.9725  -30.7702   21.3781 C   0  0  0  0  0  0
  -26.0436  -29.3944   20.7176 C   0  0  0  0  0  0
  -27.2164  -28.5742   20.7166 C   0  0  0  0  0  0
  -26.0177  -26.8736   19.4784 C   0  0  0  0  0  0
  -24.8637  -27.6785   19.4757 C   0  0  0  0  0  0
  -23.6433  -29.8171   20.1567 C   0  0  0  0  0  0
  -25.4119  -36.3070   24.0320 C   0  0  1  0  0  0
  -20.5899  -28.3700   23.1259 C   0  0  2  0  0  0
  -20.6777  -26.9418   22.5401 C   0  0  0  0  0  0
  -19.5751  -26.6382   21.5206 C   0  0  0  0  0  0
  -18.1934  -26.7926   22.1622 C   0  0  0  0  0  0
  -19.1548  -28.8856   23.2869 C   0  0  0  0  0  0
  -18.9471  -30.1456   23.8889 C   0  0  0  0  0  0
  -17.6468  -30.6587   24.0562 C   0  0  0  0  0  0
  -25.9061  -34.9441   23.5085 C   0  0  0  0  0  0
  -16.5362  -29.9082   23.6330 C   0  0  0  0  0  0
  -16.7280  -28.6497   23.0357 C   0  0  0  0  0  0
  -26.4514  -31.6585   25.0723 C   0  0  0  0  0  0
  -25.3740  -31.3750   26.1448 C   0  0  0  0  0  0
  -27.0358  -30.2992   24.6224 C   0  0  0  0  0  0
  -27.6059  -32.4341   25.7496 C   0  0  0  0  0  0
  -27.5579  -37.1800   24.8465 C   0  0  0  0  0  0
  -21.4211  -29.3047   22.3648 N   0  0  0  0  0  0
  -26.4295  -37.3769   23.9405 N   0  0  0  0  0  0
  -24.6958  -31.0531   22.0960 N   0  0  0  0  0  0
  -23.4207  -28.8138   23.2992 O   0  0  0  0  0  0
  -28.2984  -26.3637   20.2068 O   0  0  0  0  0  0
  -26.5635  -34.8914   22.4660 O   0  0  0  0  0  0
  -23.5460  -32.1377   23.7286 O   0  0  0  0  0  0
  -28.1507  -19.2826   18.9126 C   0  0  0  0  0  0
  -29.4850  -19.9487   18.5405 C   0  0  0  0  0  0
  -27.7198  -20.1615   21.3043 C   0  0  0  0  0  0
  -27.6628  -21.6525   20.7815 C   0  0  0  0  0  0
  -30.1436  -21.4242   20.5775 C   0  0  0  0  0  0
  -28.2616  -18.9804   20.4134 C   0  0  2  0  0  0
  -29.7716  -18.7053   20.6238 C   0  0  2  0  0  0
  -30.3223  -19.9932   19.8449 C   0  0  1  0  0  0
  -32.7813  -19.8124   20.7026 C   0  0  0  0  0  0
  -30.3351  -17.2584   20.1021 C   0  0  0  0  0  0
  -31.8307  -19.8528   19.4925 C   0  0  0  0  0  0
  -29.0991  -23.7938   20.5873 C   0  0  0  0  0  0
  -28.0477  -24.8877   20.0356 C   0  0  0  0  0  0
  -29.9027  -15.8832   20.6112 N   0  0  0  0  0  0
  -28.9270  -22.2810   20.2737 N   0  3  2  0  0  0
  -31.4667  -12.5364   19.1796 H   0  0  0  0  0  0
  -30.3516  -11.4595   19.9701 H   0  0  0  0  0  0
  -29.7862  -11.7158   17.5284 H   0  0  0  0  0  0
  -29.6357  -13.4457   17.7273 H   0  0  0  0  0  0
  -27.8963  -11.2737   18.9336 H   0  0  0  0  0  0
  -27.3739  -12.4971   17.8074 H   0  0  0  0  0  0
  -27.6359  -14.2482   19.4624 H   0  0  0  0  0  0
  -28.7108  -12.1841   21.4484 H   0  0  0  0  0  0
  -28.4240  -13.8749   21.7861 H   0  0  0  0  0  0
  -25.2758   -9.5692   22.4764 H   0  0  0  0  0  0
  -24.0006   -7.4636   22.7475 H   0  0  0  0  0  0
  -21.0843   -8.8780   19.8952 H   0  0  0  0  0  0
  -22.3692  -10.9684   19.6178 H   0  0  0  0  0  0
  -21.2001   -7.6148   23.9715 H   0  0  0  0  0  0
  -21.1483   -6.0528   25.9079 H   0  0  0  0  0  0
  -22.0596   -2.7611   23.2851 H   0  0  0  0  0  0
  -22.4100  -11.9866   22.4804 H   0  0  0  0  0  0
  -21.1095  -13.1227   22.2650 H   0  0  0  0  0  0
  -24.6516  -15.8441   20.5243 H   0  0  0  0  0  0
  -26.2623  -15.6315   20.0623 H   0  0  0  0  0  0
  -26.7211  -32.5404   23.1074 H   0  0  0  0  0  0
  -25.0087  -33.9704   25.0396 H   0  0  0  0  0  0
  -22.7235  -31.3031   21.3985 H   0  0  0  0  0  0
  -23.3746  -35.9628   23.3308 H   0  0  0  0  0  0
  -24.3573  -36.8908   22.2054 H   0  0  0  0  0  0
  -23.7249  -37.6491   23.6666 H   0  0  0  0  0  0
  -26.1151  -31.5330   20.6113 H   0  0  0  0  0  0
  -26.8486  -30.8141   22.0135 H   0  0  0  0  0  0
  -28.1125  -28.9236   21.2106 H   0  0  0  0  0  0
  -25.9400  -25.9209   18.9768 H   0  0  0  0  0  0
  -23.9679  -27.3193   18.9881 H   0  0  0  0  0  0
  -23.7705  -30.5947   19.4024 H   0  0  0  0  0  0
  -22.7602  -29.2532   19.8498 H   0  0  0  0  0  0
  -25.1303  -36.1918   25.0813 H   0  0  0  0  0  0
  -21.0002  -28.3275   24.1374 H   0  0  0  0  0  0
  -20.5662  -26.2318   23.3610 H   0  0  0  0  0  0
  -21.6647  -26.7429   22.1208 H   0  0  0  0  0  0
  -19.6915  -25.6289   21.1242 H   0  0  0  0  0  0
  -19.6677  -27.3185   20.6730 H   0  0  0  0  0  0
  -17.4202  -26.6673   21.4026 H   0  0  0  0  0  0
  -18.0338  -26.0065   22.9015 H   0  0  0  0  0  0
  -19.7947  -30.7276   24.2251 H   0  0  0  0  0  0
  -17.5024  -31.6264   24.5171 H   0  0  0  0  0  0
  -15.5361  -30.2983   23.7655 H   0  0  0  0  0  0
  -15.8681  -28.0810   22.7080 H   0  0  0  0  0  0
  -24.5911  -30.7101   25.7784 H   0  0  0  0  0  0
  -24.8945  -32.2929   26.4858 H   0  0  0  0  0  0
  -25.8062  -30.8941   27.0232 H   0  0  0  0  0  0
  -26.2944  -29.6736   24.1241 H   0  0  0  0  0  0
  -27.4014  -29.7264   25.4758 H   0  0  0  0  0  0
  -27.8837  -30.4251   23.9486 H   0  0  0  0  0  0
  -27.2653  -33.3643   26.2059 H   0  0  0  0  0  0
  -28.3877  -32.6907   25.0335 H   0  0  0  0  0  0
  -28.0726  -31.8488   26.5430 H   0  0  0  0  0  0
  -28.2601  -38.0093   24.7505 H   0  0  0  0  0  0
  -28.1072  -36.2622   24.6303 H   0  0  0  0  0  0
  -27.2298  -37.1466   25.8869 H   0  0  0  0  0  0
  -20.9387  -29.8788   21.6872 H   0  0  0  0  0  0
  -26.0168  -38.2844   24.1398 H   0  0  0  0  0  0
  -28.0433  -18.3508   18.3549 H   0  0  0  0  0  0
  -27.2823  -19.8907   18.6591 H   0  0  0  0  0  0
  -29.3528  -20.9247   18.0736 H   0  0  0  0  0  0
  -29.9762  -19.3325   17.7865 H   0  0  0  0  0  0
  -26.6893  -19.9059   21.5540 H   0  0  0  0  0  0
  -28.2262  -20.1414   22.2701 H   0  0  0  0  0  0
  -27.2916  -22.2604   21.6079 H   0  0  0  0  0  0
  -26.9065  -21.7444   20.0016 H   0  0  0  0  0  0
  -30.9932  -22.0456   20.2936 H   0  0  0  0  0  0
  -30.2494  -21.3082   21.6566 H   0  0  0  0  0  0
  -27.6964  -18.0809   20.6639 H   0  0  0  0  0  0
  -30.0232  -18.7775   21.6827 H   0  0  0  0  0  0
  -33.8130  -19.6897   20.3714 H   0  0  0  0  0  0
  -32.5562  -18.9839   21.3741 H   0  0  0  0  0  0
  -32.7427  -20.7314   21.2868 H   0  0  0  0  0  0
  -31.4132  -17.2817   20.2537 H   0  0  0  0  0  0
  -30.2112  -17.2173   19.0199 H   0  0  0  0  0  0
  -32.1291  -20.6814   18.8479 H   0  0  0  0  0  0
  -32.0056  -18.9676   18.8811 H   0  0  0  0  0  0
  -29.1738  -23.9054   21.6695 H   0  0  0  0  0  0
  -30.0722  -24.0947   20.1995 H   0  0  0  0  0  0
  -27.0908  -24.6509   20.5031 H   0  0  0  0  0  0
  -27.9146  -24.7105   18.9677 H   0  0  0  0  0  0
  -28.9326  -15.7718   20.8661 H   0  0  0  0  0  0
  -28.8555  -22.2266   19.2676 H   0  0  0  0  0  0
  1 25  1  0  0  0
  1 30  2  0  0  0
  1 84  1  0  0  0
  2  3  1  0  0  0
  2 25  1  0  0  0
  2 86  1  0  0  0
  2 87  1  0  0  0
  3  4  1  0  0  0
  3 88  1  0  0  0
  3 89  1  0  0  0
  4  5  1  0  0  0
  4 90  1  0  0  0
  4 91  1  0  0  0
  5  6  1  0  0  0
  5 26  1  0  0  0
  5 92  1  0  0  0
  6 25  1  0  0  0
  6 93  1  0  0  0
  6 94  1  0  0  0
  7  8  2  0  0  0
  7 26  1  0  0  0
  7 29  1  0  0  0
  8  9  1  0  0  0
  8 22  1  0  0  0
  9 10  1  0  0  0
  9 27  2  0  0  0
 10 11  2  0  0  0
 10 15  1  0  0  0
 11 12  1  0  0  0
 11 95  1  0  0  0
 12 13  2  0  0  0
 12 96  1  0  0  0
 13 14  1  0  0  0
 13 31  1  0  0  0
 14 15  2  0  0  0
 14 97  1  0  0  0
 15 98  1  0  0  0
 16 17  2  0  0  0
 16 21  1  0  0  0
 16 31  1  0  0  0
 17 18  1  0  0  0
 17 99  1  0  0  0
 18 19  2  0  0  0
 18100  1  0  0  0
 19 20  1  0  0  0
 19 24  1  0  0  0
 20 21  2  0  0  0
 20101  1  0  0  0
 21 23  1  0  0  0
 22 28  1  0  0  0
 22 32  2  0  0  0
 26 27  1  0  0  0
 28102  1  0  0  0
 28103  1  0  0  0
 29104  1  0  0  0
 29105  1  0  0  0
 33 34  1  0  0  0
 33 66  1  0  0  0
 33 70  2  0  0  0
 34 36  1  0  0  0
 34 59  1  0  0  0
 34106  1  0  0  0
 35 44  2  0  0  0
 35 45  1  0  0  0
 35 68  1  0  0  0
 36 56  1  0  0  0
 36107  1  0  0  0
 37 39  1  0  0  0
 37 47  1  0  0  0
 37 66  1  0  0  0
 37108  1  0  0  0
 38 43  2  0  0  0
 38 46  1  0  0  0
 38 47  1  0  0  0
 39 64  1  0  0  0
 39 67  2  0  0  0
 40 52  1  0  0  0
 40 53  2  0  0  0
 40 58  1  0  0  0
 41109  1  0  0  0
 41110  1  0  0  0
 41111  1  0  0  0
 41 48  1  0  0  0
 42 43  1  0  0  0
 42 66  1  0  0  0
 42112  1  0  0  0
 42113  1  0  0  0
 43 44  1  0  0  0
 44114  1  0  0  0
 45 46  2  0  0  0
 45115  1  0  0  0
 46116  1  0  0  0
 47117  1  0  0  0
 47118  1  0  0  0
 48 56  1  0  0  0
 48 65  1  0  0  0
 48119  1  0  0  0
 49 50  1  0  0  0
 49 53  1  0  0  0
 49 64  1  0  0  0
 49120  1  0  0  0
 50 51  1  0  0  0
 50121  1  0  0  0
 50122  1  0  0  0
 51 52  1  0  0  0
 51123  1  0  0  0
 51124  1  0  0  0
 52125  1  0  0  0
 52126  1  0  0  0
 53 54  1  0  0  0
 54 55  2  0  0  0
 54127  1  0  0  0
 55 57  1  0  0  0
 55128  1  0  0  0
 56 69  2  0  0  0
 57 58  2  0  0  0
 57129  1  0  0  0
 58130  1  0  0  0
 59 60  1  0  0  0
 59 61  1  0  0  0
 59 62  1  0  0  0
 60131  1  0  0  0
 60132  1  0  0  0
 60133  1  0  0  0
 61134  1  0  0  0
 61135  1  0  0  0
 61136  1  0  0  0
 62137  1  0  0  0
 62138  1  0  0  0
 62139  1  0  0  0
 63 65  1  0  0  0
 63140  1  0  0  0
 63141  1  0  0  0
 63142  1  0  0  0
 64143  1  0  0  0
 65144  1  0  0  0
 68 83  1  0  0  0
 71 72  1  0  0  0
 71145  1  0  0  0
 71146  1  0  0  0
 71 76  1  0  0  0
 72 78  1  0  0  0
 72147  1  0  0  0
 72148  1  0  0  0
 73 74  1  0  0  0
 73 76  1  0  0  0
 73149  1  0  0  0
 73150  1  0  0  0
 74 85  1  0  0  0
 74151  1  0  0  0
 74152  1  0  0  0
 75 78  1  0  0  0
 75 85  1  0  0  0
 75153  1  0  0  0
 75154  1  0  0  0
 76 77  1  0  0  0
 76155  1  0  0  0
 77 78  1  0  0  0
 77 80  1  0  0  0
 77156  1  0  0  0
 78 81  1  0  0  0
 79 81  1  0  0  0
 79157  1  0  0  0
 79158  1  0  0  0
 79159  1  0  0  0
 80 84  1  0  0  0
 80160  1  0  0  0
 80161  1  0  0  0
 81162  1  0  0  0
 81163  1  0  0  0
 82 83  1  0  0  0
 82164  1  0  0  0
 82165  1  0  0  0
 82 85  1  0  0  0
 83166  1  0  0  0
 83167  1  0  0  0
 84168  1  0  0  0
 85169  1  0  0  0
M  CHG  1  85   1
M  ISO  4   1 100  68 101  83 101  84 100
M  END
> <chiral flag>
0

> <version>
0

> <s_m_source_file>
/data/baiqing/PycharmProjects/Reinvent-master-3.2/result/LINK_invent/BTK/process_docking_weight1_custom_sum_contain_oxygen_bond_distance_aromatic_linkinvent_7_9_3/rearranged_h_0181.sdf

> <i_m_source_file_index>
39

> <r_mmod_Potential_Energy-OPLS-2005>
276.498321533203

> <r_mmod_Stretch_Energy-OPLS-2005>
128.3623046875

> <r_mmod_Bend_Energy-OPLS-2005>
228.982055664062

> <r_mmod_Torsional_Energy-OPLS-2005>
344.388854980469

> <r_mmod_Improper_Torsional_Energy-OPLS-2005>
6.55509948730469

> <r_mmod_Van_der_Waal_Energy-OPLS-2005>
137.213821411133

> <r_mmod_Electrostatic_Energy-OPLS-2005>
-228.001571655273

> <r_mmod_Solvation_Energy-OPLS-2005>
-422.245239257812

> <b_mmod_Minimization_Converged-OPLS-2005>
0

> <r_mmod_RMS_Derivative-OPLS-2005>
1.10786294937134

$$$$
39
                    3D
 Structure written by MMmdl.
166175  0  0  1  0            999 V2000
  -30.6259  -14.5925   20.5147 C   0  0  0  0  0  0
  -30.4350  -12.3686   19.4459 C   0  0  0  0  0  0
  -29.5038  -12.4959   18.2201 C   0  0  0  0  0  0
  -28.0252  -12.3388   18.6308 C   0  0  0  0  0  0
  -27.6493  -13.2072   19.8619 C   0  0  2  0  0  0
  -28.6906  -13.0478   20.9906 C   0  0  0  0  0  0
  -25.2563  -13.8076   20.5787 C   0  0  0  0  0  0
  -24.1788  -13.0367   20.9225 C   0  0  0  0  0  0
  -24.6343  -11.6853   20.8735 C   0  0  0  0  0  0
  -23.9018  -10.4254   21.0405 C   0  0  0  0  0  0
  -24.3591   -9.4198   21.9192 C   0  0  0  0  0  0
  -23.6277   -8.2231   22.0756 C   0  0  0  0  0  0
  -22.4270   -8.0256   21.3541 C   0  0  0  0  0  0
  -21.9882   -9.0226   20.4648 C   0  0  0  0  0  0
  -22.7196  -10.2108   20.3054 C   0  0  0  0  0  0
  -21.6836   -6.0723   22.5282 C   0  0  0  0  0  0
  -21.4002   -6.5624   23.8211 C   0  0  0  0  0  0
  -21.3659   -5.6777   24.9175 C   0  0  0  0  0  0
  -21.6058   -4.3035   24.7234 C   0  0  0  0  0  0
  -21.8816   -3.8130   23.4352 C   0  0  0  0  0  0
  -21.9186   -4.6947   22.3411 C   0  0  0  0  0  0
  -22.7828  -13.5220   21.1864 C   0  0  0  0  0  0
  -22.1656   -4.2130   21.0991 F   0  0  0  0  0  0
  -21.5632   -3.4527   25.7747 F   0  0  0  0  0  0
  -30.0110  -13.3780   20.4322 N   0  0  0  0  0  0
  -26.2949  -12.9263   20.3311 N   0  0  0  0  0  0
  -25.9272  -11.6427   20.5745 N   0  0  0  0  0  0
  -22.0423  -12.8261   22.0430 N   0  0  0  0  0  0
  -25.4311  -15.1763   20.4412 N   0  0  0  0  0  0
  -31.7867  -14.7667   20.1320 O   0  0  0  0  0  0
  -21.6623   -6.8862   21.4248 O   0  0  0  0  0  0
  -22.3568  -14.5545   20.6688 O   0  0  0  0  0  0
  -24.6186  -31.8644   23.2052 C   0  0  0  0  0  0
  -25.9060  -32.4802   23.8363 C   0  0  1  0  0  0
  -27.2360  -27.3746   20.1038 C   0  0  0  0  0  0
  -25.5913  -33.8605   24.2297 N   0  0  0  0  0  0
  -23.4080  -30.4863   21.5483 C   0  0  2  0  0  0
  -24.8531  -28.9411   20.1182 C   0  0  0  0  0  0
  -22.7425  -29.4638   22.4973 C   0  0  0  0  0  0
  -18.0272  -28.1382   22.8496 C   0  0  0  0  0  0
  -24.1488  -36.7300   23.2638 C   0  0  0  0  0  0
  -25.9417  -30.8105   21.3671 C   0  0  0  0  0  0
  -26.0155  -29.4392   20.7157 C   0  0  0  0  0  0
  -27.2033  -28.6644   20.7026 C   0  0  0  0  0  0
  -26.0428  -26.9007   19.5070 C   0  0  0  0  0  0
  -24.8647  -27.6737   19.5140 C   0  0  0  0  0  0
  -23.6180  -29.8147   20.1648 C   0  0  0  0  0  0
  -25.4116  -36.3099   24.0331 C   0  0  1  0  0  0
  -20.5871  -28.3674   23.1310 C   0  0  2  0  0  0
  -20.6763  -26.9405   22.5415 C   0  0  0  0  0  0
  -19.5743  -26.6393   21.5209 C   0  0  0  0  0  0
  -18.1921  -26.7934   22.1621 C   0  0  0  0  0  0
  -19.1524  -28.8845   23.2896 C   0  0  0  0  0  0
  -18.9453  -30.1454   23.8903 C   0  0  0  0  0  0
  -17.6453  -30.6589   24.0562 C   0  0  0  0  0  0
  -25.9045  -34.9468   23.5110 C   0  0  0  0  0  0
  -16.5344  -29.9087   23.6332 C   0  0  0  0  0  0
  -16.7262  -28.6510   23.0345 C   0  0  0  0  0  0
  -26.4473  -31.6603   25.0716 C   0  0  0  0  0  0
  -25.3722  -31.3739   26.1458 C   0  0  0  0  0  0
  -27.0313  -30.3037   24.6133 C   0  0  0  0  0  0
  -27.6034  -32.4343   25.7482 C   0  0  0  0  0  0
  -27.5584  -37.1807   24.8464 C   0  0  0  0  0  0
  -21.4151  -29.3033   22.3709 N   0  0  0  0  0  0
  -26.4297  -37.3790   23.9409 N   0  0  0  0  0  0
  -24.6746  -31.0701   22.0977 N   0  0  0  0  0  0
  -23.4173  -28.8187   23.3035 O   0  0  0  0  0  0
  -28.4275  -26.6521   20.1259 O   0  0  0  0  0  0
  -26.5605  -34.8923   22.4669 O   0  0  0  0  0  0
  -23.5365  -32.1417   23.7418 O   0  0  0  0  0  0
  -28.4165  -19.2886   20.7082 C   0  0  0  0  0  0
  -27.0604  -19.2836   20.3905 C   0  0  0  0  0  0
  -28.8172  -17.9247   20.3840 C   0  0  0  0  0  0
  -25.6677  -21.5959   20.8530 C   0  0  0  0  0  0
  -25.6163  -20.7098   22.0808 C   0  0  0  0  0  0
  -25.8140  -20.1015   20.7131 C   0  0  0  0  0  0
  -25.7407  -17.8047   18.7530 C   0  0  0  0  0  0
  -29.3734  -20.3287   21.3445 C   0  0  0  0  0  0
  -30.0789  -17.0981   20.6960 C   0  0  0  0  0  0
  -28.9972  -21.8382   21.6141 C   0  0  0  0  0  0
  -28.6481  -24.2314   20.8581 C   0  0  0  0  0  0
  -28.5372  -25.2656   19.6860 C   0  0  0  0  0  0
  -27.9083  -17.3137   19.6482 N   0  0  0  0  0  0
  -26.8744  -18.1647   19.5905 N   0  0  0  0  0  0
  -29.8231  -15.6352   20.8441 N   0  0  0  0  0  0
  -28.9513  -22.8029   20.4630 N   0  3  0  0  0  0
  -31.4752  -12.5000   19.1419 H   0  0  0  0  0  0
  -30.3744  -11.3696   19.8798 H   0  0  0  0  0  0
  -29.7692  -11.7468   17.4712 H   0  0  0  0  0  0
  -29.6481  -13.4686   17.7460 H   0  0  0  0  0  0
  -27.8569  -11.2867   18.8594 H   0  0  0  0  0  0
  -27.3724  -12.5730   17.7884 H   0  0  0  0  0  0
  -27.6687  -14.2454   19.5305 H   0  0  0  0  0  0
  -28.6897  -12.0234   21.3639 H   0  0  0  0  0  0
  -28.4381  -13.6781   21.8460 H   0  0  0  0  0  0
  -25.2744   -9.5667   22.4748 H   0  0  0  0  0  0
  -23.9985   -7.4622   22.7473 H   0  0  0  0  0  0
  -21.0806   -8.8737   19.8974 H   0  0  0  0  0  0
  -22.3662  -10.9639   19.6140 H   0  0  0  0  0  0
  -21.1993   -7.6132   23.9708 H   0  0  0  0  0  0
  -21.1490   -6.0515   25.9080 H   0  0  0  0  0  0
  -22.0608   -2.7593   23.2862 H   0  0  0  0  0  0
  -22.3985  -11.9943   22.4893 H   0  0  0  0  0  0
  -21.1033  -13.1321   22.2571 H   0  0  0  0  0  0
  -24.6639  -15.8223   20.5824 H   0  0  0  0  0  0
  -26.2809  -15.6335   20.1223 H   0  0  0  0  0  0
  -26.7118  -32.5487   23.1106 H   0  0  0  0  0  0
  -25.0075  -33.9763   25.0451 H   0  0  0  0  0  0
  -22.6993  -31.3050   21.4061 H   0  0  0  0  0  0
  -23.3754  -35.9626   23.3307 H   0  0  0  0  0  0
  -24.3569  -36.8915   22.2050 H   0  0  0  0  0  0
  -23.7240  -37.6506   23.6650 H   0  0  0  0  0  0
  -26.0653  -31.5740   20.5984 H   0  0  0  0  0  0
  -26.8245  -30.8597   21.9934 H   0  0  0  0  0  0
  -28.0981  -29.0516   21.1692 H   0  0  0  0  0  0
  -25.9774  -25.9372   19.0274 H   0  0  0  0  0  0
  -23.9674  -27.2829   19.0546 H   0  0  0  0  0  0
  -23.7295  -30.5874   19.4038 H   0  0  0  0  0  0
  -22.7398  -29.2373   19.8683 H   0  0  0  0  0  0
  -25.1297  -36.1950   25.0824 H   0  0  0  0  0  0
  -20.9955  -28.3237   24.1437 H   0  0  0  0  0  0
  -20.5669  -26.2279   23.3602 H   0  0  0  0  0  0
  -21.6632  -26.7450   22.1201 H   0  0  0  0  0  0
  -19.6903  -25.6309   21.1238 H   0  0  0  0  0  0
  -19.6687  -27.3203   20.6746 H   0  0  0  0  0  0
  -17.4190  -26.6679   21.4024 H   0  0  0  0  0  0
  -18.0324  -26.0073   22.9021 H   0  0  0  0  0  0
  -19.7925  -30.7278   24.2263 H   0  0  0  0  0  0
  -17.5004  -31.6267   24.5168 H   0  0  0  0  0  0
  -15.5344  -30.2985   23.7667 H   0  0  0  0  0  0
  -15.8661  -28.0836   22.7052 H   0  0  0  0  0  0
  -24.5869  -30.7119   25.7792 H   0  0  0  0  0  0
  -24.8943  -32.2908   26.4915 H   0  0  0  0  0  0
  -25.8054  -30.8890   27.0211 H   0  0  0  0  0  0
  -26.2872  -29.6805   24.1159 H   0  0  0  0  0  0
  -27.4036  -29.7284   25.4623 H   0  0  0  0  0  0
  -27.8729  -30.4358   23.9328 H   0  0  0  0  0  0
  -27.2632  -33.3627   26.2081 H   0  0  0  0  0  0
  -28.3821  -32.6938   25.0299 H   0  0  0  0  0  0
  -28.0718  -31.8460   26.5381 H   0  0  0  0  0  0
  -28.2605  -38.0102   24.7511 H   0  0  0  0  0  0
  -28.1080  -36.2637   24.6288 H   0  0  0  0  0  0
  -27.2296  -37.1448   25.8864 H   0  0  0  0  0  0
  -20.9307  -29.8763   21.6942 H   0  0  0  0  0  0
  -26.0184  -38.2868   24.1407 H   0  0  0  0  0  0
  -26.5165  -22.2391   20.7045 H   0  0  0  0  0  0
  -24.7249  -22.0229   20.5144 H   0  0  0  0  0  0
  -24.6485  -20.5537   22.5551 H   0  0  0  0  0  0
  -26.4585  -20.6861   22.7654 H   0  0  0  0  0  0
  -24.9227  -19.6064   20.3360 H   0  0  0  0  0  0
  -24.8750  -17.5498   19.3630 H   0  0  0  0  0  0
  -25.9854  -16.9541   18.1142 H   0  0  0  0  0  0
  -25.4810  -18.6466   18.1109 H   0  0  0  0  0  0
  -30.2966  -20.3468   20.7648 H   0  0  0  0  0  0
  -29.6891  -19.9320   22.3089 H   0  0  0  0  0  0
  -30.5393  -17.4588   21.6153 H   0  0  0  0  0  0
  -30.8152  -17.2620   19.9077 H   0  0  0  0  0  0
  -29.7779  -22.2256   22.2696 H   0  0  0  0  0  0
  -28.0981  -21.9198   22.2145 H   0  0  0  0  0  0
  -27.7261  -24.2588   21.4392 H   0  0  0  0  0  0
  -29.4402  -24.5726   21.5266 H   0  0  0  0  0  0
  -27.7695  -24.9611   18.9805 H   0  0  0  0  0  0
  -29.4619  -25.2212   19.1094 H   0  0  0  0  0  0
  -28.8692  -15.4034   21.0763 H   0  0  0  0  0  0
  -28.2580  -22.4755   19.8098 H   0  0  0  0  0  0
  -29.8426  -22.7816   19.9889 H   0  0  0  0  0  0
  1 25  1  0  0  0
  1 30  2  0  0  0
  1 85  1  0  0  0
  2  3  1  0  0  0
  2 25  1  0  0  0
  2 87  1  0  0  0
  2 88  1  0  0  0
  3  4  1  0  0  0
  3 89  1  0  0  0
  3 90  1  0  0  0
  4  5  1  0  0  0
  4 91  1  0  0  0
  4 92  1  0  0  0
  5  6  1  0  0  0
  5 26  1  0  0  0
  5 93  1  0  0  0
  6 25  1  0  0  0
  6 94  1  0  0  0
  6 95  1  0  0  0
  7  8  2  0  0  0
  7 26  1  0  0  0
  7 29  1  0  0  0
  8  9  1  0  0  0
  8 22  1  0  0  0
  9 10  1  0  0  0
  9 27  2  0  0  0
 10 11  2  0  0  0
 10 15  1  0  0  0
 11 12  1  0  0  0
 11 96  1  0  0  0
 12 13  2  0  0  0
 12 97  1  0  0  0
 13 14  1  0  0  0
 13 31  1  0  0  0
 14 15  2  0  0  0
 14 98  1  0  0  0
 15 99  1  0  0  0
 16 17  2  0  0  0
 16 21  1  0  0  0
 16 31  1  0  0  0
 17 18  1  0  0  0
 17100  1  0  0  0
 18 19  2  0  0  0
 18101  1  0  0  0
 19 20  1  0  0  0
 19 24  1  0  0  0
 20 21  2  0  0  0
 20102  1  0  0  0
 21 23  1  0  0  0
 22 28  1  0  0  0
 22 32  2  0  0  0
 26 27  1  0  0  0
 28103  1  0  0  0
 28104  1  0  0  0
 29105  1  0  0  0
 29106  1  0  0  0
 33 34  1  0  0  0
 33 66  1  0  0  0
 33 70  2  0  0  0
 34 36  1  0  0  0
 34 59  1  0  0  0
 34107  1  0  0  0
 35 44  2  0  0  0
 35 45  1  0  0  0
 35 68  1  0  0  0
 36 56  1  0  0  0
 36108  1  0  0  0
 37 39  1  0  0  0
 37 47  1  0  0  0
 37 66  1  0  0  0
 37109  1  0  0  0
 38 43  2  0  0  0
 38 46  1  0  0  0
 38 47  1  0  0  0
 39 64  1  0  0  0
 39 67  2  0  0  0
 40 52  1  0  0  0
 40 53  2  0  0  0
 40 58  1  0  0  0
 41110  1  0  0  0
 41111  1  0  0  0
 41112  1  0  0  0
 41 48  1  0  0  0
 42 43  1  0  0  0
 42 66  1  0  0  0
 42113  1  0  0  0
 42114  1  0  0  0
 43 44  1  0  0  0
 44115  1  0  0  0
 45 46  2  0  0  0
 45116  1  0  0  0
 46117  1  0  0  0
 47118  1  0  0  0
 47119  1  0  0  0
 48 56  1  0  0  0
 48 65  1  0  0  0
 48120  1  0  0  0
 49 50  1  0  0  0
 49 53  1  0  0  0
 49 64  1  0  0  0
 49121  1  0  0  0
 50 51  1  0  0  0
 50122  1  0  0  0
 50123  1  0  0  0
 51 52  1  0  0  0
 51124  1  0  0  0
 51125  1  0  0  0
 52126  1  0  0  0
 52127  1  0  0  0
 53 54  1  0  0  0
 54 55  2  0  0  0
 54128  1  0  0  0
 55 57  1  0  0  0
 55129  1  0  0  0
 56 69  2  0  0  0
 57 58  2  0  0  0
 57130  1  0  0  0
 58131  1  0  0  0
 59 60  1  0  0  0
 59 61  1  0  0  0
 59 62  1  0  0  0
 60132  1  0  0  0
 60133  1  0  0  0
 60134  1  0  0  0
 61135  1  0  0  0
 61136  1  0  0  0
 61137  1  0  0  0
 62138  1  0  0  0
 62139  1  0  0  0
 62140  1  0  0  0
 63 65  1  0  0  0
 63141  1  0  0  0
 63142  1  0  0  0
 63143  1  0  0  0
 64144  1  0  0  0
 65145  1  0  0  0
 68 82  1  0  0  0
 71 72  2  0  0  0
 71 73  1  0  0  0
 71 78  1  0  0  0
 72 84  1  0  0  0
 72 76  1  0  0  0
 73 79  1  0  0  0
 73 83  2  0  0  0
 74 75  1  0  0  0
 74 76  1  0  0  0
 74146  1  0  0  0
 74147  1  0  0  0
 75 76  1  0  0  0
 75148  1  0  0  0
 75149  1  0  0  0
 76150  1  0  0  0
 77 84  1  0  0  0
 77151  1  0  0  0
 77152  1  0  0  0
 77153  1  0  0  0
 78 80  1  0  0  0
 78154  1  0  0  0
 78155  1  0  0  0
 79 85  1  0  0  0
 79156  1  0  0  0
 79157  1  0  0  0
 80 86  1  0  0  0
 80158  1  0  0  0
 80159  1  0  0  0
 81 82  1  0  0  0
 81 86  1  0  0  0
 81160  1  0  0  0
 81161  1  0  0  0
 82162  1  0  0  0
 82163  1  0  0  0
 83 84  1  0  0  0
 85164  1  0  0  0
 86165  1  0  0  0
 86166  1  0  0  0
M  CHG  1  86   1
M  ISO  4   1 100  68 101  82 101  85 100
M  END
> <chiral flag>
0

> <version>
0

> <s_m_source_file>
/data/baiqing/PycharmProjects/Reinvent-master-3.2/result/LINK_invent/BTK/process_docking_weight1_custom_sum_contain_oxygen_bond_distance_aromatic_linkinvent_7_9_3/rearranged_h_0181.sdf

> <i_m_source_file_index>
40

> <r_mmod_Potential_Energy-OPLS-2005>
-221.581024169922

> <r_mmod_Stretch_Energy-OPLS-2005>
59.7804298400879

> <r_mmod_Bend_Energy-OPLS-2005>
159.942855834961

> <r_mmod_Torsional_Energy-OPLS-2005>
254.103973388672

> <r_mmod_Improper_Torsional_Energy-OPLS-2005>
5.20337104797363

> <r_mmod_Van_der_Waal_Energy-OPLS-2005>
122.517219543457

> <r_mmod_Electrostatic_Energy-OPLS-2005>
-392.682342529297

> <r_mmod_Solvation_Energy-OPLS-2005>
-460.753234863281

> <b_mmod_Minimization_Converged-OPLS-2005>
0

> <r_mmod_RMS_Derivative-OPLS-2005>
2.67626309394836

$$$$
40
                    3D
 Structure written by MMmdl.
154163  0  0  1  0            999 V2000
  -30.5518  -15.1432   20.3694 C   0  0  0  0  0  0
  -30.4158  -12.7322   19.5008 C   0  0  0  0  0  0
  -29.5055  -12.5323   18.2683 C   0  0  0  0  0  0
  -28.0572  -12.2832   18.7152 C   0  0  0  0  0  0
  -27.6030  -13.2734   19.8136 C   0  0  2  0  0  0
  -28.6455  -13.4478   20.9379 C   0  0  0  0  0  0
  -25.2312  -13.8272   20.5723 C   0  0  0  0  0  0
  -24.1690  -13.0453   20.9310 C   0  0  0  0  0  0
  -24.6362  -11.6957   20.8844 C   0  0  0  0  0  0
  -23.9099  -10.4303   21.0458 C   0  0  0  0  0  0
  -24.3634   -9.4193   21.9228 C   0  0  0  0  0  0
  -23.6301   -8.2236   22.0771 C   0  0  0  0  0  0
  -22.4282   -8.0283   21.3539 C   0  0  0  0  0  0
  -21.9939   -9.0266   20.4662 C   0  0  0  0  0  0
  -22.7287  -10.2144   20.3085 C   0  0  0  0  0  0
  -21.6856   -6.0772   22.5308 C   0  0  0  0  0  0
  -21.3989   -6.5662   23.8230 C   0  0  0  0  0  0
  -21.3647   -5.6797   24.9196 C   0  0  0  0  0  0
  -21.6034   -4.3077   24.7232 C   0  0  0  0  0  0
  -21.8823   -3.8169   23.4345 C   0  0  0  0  0  0
  -21.9180   -4.6997   22.3403 C   0  0  0  0  0  0
  -22.7698  -13.5186   21.1945 C   0  0  0  0  0  0
  -22.1655   -4.2184   21.0987 F   0  0  0  0  0  0
  -21.5623   -3.4545   25.7741 F   0  0  0  0  0  0
  -29.8888  -13.8964   20.2952 N   0  0  0  0  0  0
  -26.2756  -12.9556   20.3236 N   0  0  0  0  0  0
  -25.9300  -11.6672   20.5819 N   0  0  0  0  0  0
  -22.0332  -12.8122   22.0488 N   0  0  0  0  0  0
  -25.3851  -15.1985   20.4059 N   0  0  0  0  0  0
  -31.7765  -15.0460   20.2205 O   0  0  0  0  0  0
  -21.6623   -6.8885   21.4245 O   0  0  0  0  0  0
  -22.3379  -14.5503   20.6849 O   0  0  0  0  0  0
  -24.6503  -31.8338   23.1753 C   0  0  0  0  0  0
  -25.9241  -32.4662   23.8184 C   0  0  1  0  0  0
  -27.2089  -27.0235   20.2095 C   0  0  0  0  0  0
  -25.5979  -33.8447   24.2139 N   0  0  0  0  0  0
  -23.4613  -30.4505   21.5200 C   0  0  2  0  0  0
  -24.9113  -28.8490   20.1177 C   0  0  0  0  0  0
  -22.7610  -29.4539   22.4800 C   0  0  0  0  0  0
  -18.0317  -28.1445   22.8508 C   0  0  0  0  0  0
  -24.1456  -36.7177   23.2653 C   0  0  0  0  0  0
  -26.0181  -30.6804   21.3828 C   0  0  0  0  0  0
  -26.0899  -29.2751   20.7390 C   0  0  0  0  0  0
  -27.2392  -28.3839   20.7590 C   0  0  0  0  0  0
  -26.0024  -26.7153   19.5462 C   0  0  0  0  0  0
  -24.8858  -27.5867   19.5000 C   0  0  0  0  0  0
  -23.6929  -29.7645   20.1450 C   0  0  0  0  0  0
  -25.4093  -36.2985   24.0338 C   0  0  1  0  0  0
  -20.5941  -28.3769   23.1227 C   0  0  2  0  0  0
  -20.6802  -26.9471   22.5392 C   0  0  0  0  0  0
  -19.5762  -26.6404   21.5225 C   0  0  0  0  0  0
  -18.1938  -26.7998   22.1610 C   0  0  0  0  0  0
  -19.1591  -28.8896   23.2849 C   0  0  0  0  0  0
  -18.9511  -30.1508   23.8870 C   0  0  0  0  0  0
  -17.6508  -30.6634   24.0592 C   0  0  0  0  0  0
  -25.9052  -34.9408   23.5030 C   0  0  0  0  0  0
  -16.5399  -29.9146   23.6372 C   0  0  0  0  0  0
  -16.7292  -28.6558   23.0388 C   0  0  0  0  0  0
  -26.4558  -31.6552   25.0636 C   0  0  0  0  0  0
  -25.3747  -31.3777   26.1338 C   0  0  0  0  0  0
  -27.0441  -30.2944   24.6243 C   0  0  0  0  0  0
  -27.6072  -32.4347   25.7420 C   0  0  0  0  0  0
  -27.5535  -37.1728   24.8497 C   0  0  0  0  0  0
  -21.4287  -29.3082   22.3558 N   0  0  0  0  0  0
  -26.4227  -37.3728   23.9469 N   0  0  0  0  0  0
  -24.7308  -31.0149   22.0816 N   0  0  0  0  0  0
  -23.4193  -28.8075   23.2969 O   0  0  0  0  0  0
  -28.2457  -25.9896   20.2552 O   0  0  0  0  0  0
  -26.5632  -34.8935   22.4612 O   0  0  0  0  0  0
  -23.5608  -32.1207   23.6952 O   0  0  0  0  0  0
  -28.1789  -18.6576   20.2385 C   0  0  0  0  0  0
  -30.2726  -19.2497   21.0597 C   0  0  0  0  0  0
  -29.3254  -23.8997   21.1140 C   0  0  0  0  0  0
  -28.6995  -17.1109   19.8981 C   0  0  0  0  0  0
  -30.8487  -17.7568   20.6422 C   0  0  0  0  0  0
  -29.1271  -19.9781   20.1942 C   0  0  0  0  0  0
  -28.7719  -22.9365   20.0848 C   0  0  2  0  0  0
  -28.0084  -24.4241   20.5448 C   0  0  2  0  0  0
  -29.9718  -16.5011   20.4787 N   0  0  0  0  0  0
  -28.5043  -21.4279   20.6535 N   0  3  0  0  0  0
  -31.4408  -12.8891   19.1597 H   0  0  0  0  0  0
  -30.4483  -11.8321   20.1132 H   0  0  0  0  0  0
  -29.8598  -11.6923   17.6686 H   0  0  0  0  0  0
  -29.5490  -13.4101   17.6251 H   0  0  0  0  0  0
  -28.0118  -11.2667   19.1046 H   0  0  0  0  0  0
  -27.3769  -12.3122   17.8646 H   0  0  0  0  0  0
  -27.5148  -14.2324   19.3038 H   0  0  0  0  0  0
  -28.7922  -12.5255   21.4983 H   0  0  0  0  0  0
  -28.3084  -14.2044   21.6495 H   0  0  0  0  0  0
  -25.2755   -9.5677   22.4832 H   0  0  0  0  0  0
  -24.0018   -7.4600   22.7463 H   0  0  0  0  0  0
  -21.0885   -8.8792   19.8926 H   0  0  0  0  0  0
  -22.3749  -10.9693   19.6203 H   0  0  0  0  0  0
  -21.1968   -7.6170   23.9747 H   0  0  0  0  0  0
  -21.1456   -6.0531   25.9092 H   0  0  0  0  0  0
  -22.0598   -2.7634   23.2838 H   0  0  0  0  0  0
  -22.3921  -11.9738   22.4804 H   0  0  0  0  0  0
  -21.0974  -13.1147   22.2752 H   0  0  0  0  0  0
  -24.6037  -15.8376   20.5077 H   0  0  0  0  0  0
  -26.2113  -15.6359   20.0238 H   0  0  0  0  0  0
  -26.7289  -32.5229   23.0880 H   0  0  0  0  0  0
  -25.0278  -33.9571   25.0386 H   0  0  0  0  0  0
  -22.7694  -31.2749   21.3527 H   0  0  0  0  0  0
  -23.3761  -35.9471   23.3324 H   0  0  0  0  0  0
  -24.3518  -36.8758   22.2060 H   0  0  0  0  0  0
  -23.7144  -37.6351   23.6652 H   0  0  0  0  0  0
  -26.1733  -31.4190   20.5953 H   0  0  0  0  0  0
  -26.8914  -30.7491   22.0180 H   0  0  0  0  0  0
  -28.1362  -28.7110   21.2656 H   0  0  0  0  0  0
  -25.9055  -25.7450   19.0834 H   0  0  0  0  0  0
  -23.9870  -27.2493   19.0051 H   0  0  0  0  0  0
  -23.8402  -30.5287   19.3807 H   0  0  0  0  0  0
  -22.8076  -29.2072   19.8342 H   0  0  0  0  0  0
  -25.1275  -36.1773   25.0827 H   0  0  0  0  0  0
  -21.0033  -28.3349   24.1343 H   0  0  0  0  0  0
  -20.5717  -26.2388   23.3621 H   0  0  0  0  0  0
  -21.6669  -26.7476   22.1169 H   0  0  0  0  0  0
  -19.6950  -25.6309   21.1244 H   0  0  0  0  0  0
  -19.6718  -27.3237   20.6791 H   0  0  0  0  0  0
  -17.4224  -26.6779   21.4002 H   0  0  0  0  0  0
  -18.0317  -26.0154   22.8998 H   0  0  0  0  0  0
  -19.7984  -30.7337   24.2199 H   0  0  0  0  0  0
  -17.5086  -31.6334   24.5197 H   0  0  0  0  0  0
  -15.5394  -30.3061   23.7751 H   0  0  0  0  0  0
  -15.8677  -28.0878   22.7141 H   0  0  0  0  0  0
  -24.5991  -30.7052   25.7674 H   0  0  0  0  0  0
  -24.8893  -32.3005   26.4563 H   0  0  0  0  0  0
  -25.8053  -30.9098   27.0201 H   0  0  0  0  0  0
  -26.3082  -29.6669   24.1231 H   0  0  0  0  0  0
  -27.4061  -29.7243   25.4785 H   0  0  0  0  0  0
  -27.8972  -30.4189   23.9577 H   0  0  0  0  0  0
  -27.2689  -33.3784   26.1725 H   0  0  0  0  0  0
  -28.4034  -32.6666   25.0333 H   0  0  0  0  0  0
  -28.0578  -31.8633   26.5532 H   0  0  0  0  0  0
  -28.2540  -38.0033   24.7555 H   0  0  0  0  0  0
  -28.1017  -36.2559   24.6280 H   0  0  0  0  0  0
  -27.2284  -37.1341   25.8907 H   0  0  0  0  0  0
  -20.9483  -29.8734   21.6693 H   0  0  0  0  0  0
  -26.0069  -38.2762   24.1559 H   0  0  0  0  0  0
  -27.7521  -18.6087   21.2417 H   0  0  0  0  0  0
  -27.3102  -18.8513   19.6015 H   0  0  0  0  0  0
  -31.1263  -19.9276   21.1188 H   0  0  0  0  0  0
  -29.9150  -19.1713   22.0883 H   0  0  0  0  0  0
  -30.2348  -24.4266   20.8258 H   0  0  0  0  0  0
  -29.3183  -23.6040   22.1628 H   0  0  0  0  0  0
  -28.7886  -17.0322   18.8111 H   0  0  0  0  0  0
  -27.8927  -16.4286   20.1618 H   0  0  0  0  0  0
  -31.6296  -17.5018   21.3624 H   0  0  0  0  0  0
  -31.3852  -17.8849   19.6993 H   0  0  0  0  0  0
  -29.4890  -20.1167   19.1729 H   0  0  0  0  0  0
  -29.1973  -22.9117   19.0835 H   0  0  0  0  0  0
  -27.1441  -24.3355   21.2039 H   0  0  0  0  0  0
  -28.5471  -21.4662   21.6573 H   0  0  0  0  0  0
  -27.5239  -21.3078   20.4590 H   0  0  0  0  0  0
  1 25  1  0  0  0
  1 30  2  0  0  0
  1 79  1  0  0  0
  2  3  1  0  0  0
  2 25  1  0  0  0
  2 81  1  0  0  0
  2 82  1  0  0  0
  3  4  1  0  0  0
  3 83  1  0  0  0
  3 84  1  0  0  0
  4  5  1  0  0  0
  4 85  1  0  0  0
  4 86  1  0  0  0
  5  6  1  0  0  0
  5 26  1  0  0  0
  5 87  1  0  0  0
  6 25  1  0  0  0
  6 88  1  0  0  0
  6 89  1  0  0  0
  7  8  2  0  0  0
  7 26  1  0  0  0
  7 29  1  0  0  0
  8  9  1  0  0  0
  8 22  1  0  0  0
  9 10  1  0  0  0
  9 27  2  0  0  0
 10 11  2  0  0  0
 10 15  1  0  0  0
 11 12  1  0  0  0
 11 90  1  0  0  0
 12 13  2  0  0  0
 12 91  1  0  0  0
 13 14  1  0  0  0
 13 31  1  0  0  0
 14 15  2  0  0  0
 14 92  1  0  0  0
 15 93  1  0  0  0
 16 17  2  0  0  0
 16 21  1  0  0  0
 16 31  1  0  0  0
 17 18  1  0  0  0
 17 94  1  0  0  0
 18 19  2  0  0  0
 18 95  1  0  0  0
 19 20  1  0  0  0
 19 24  1  0  0  0
 20 21  2  0  0  0
 20 96  1  0  0  0
 21 23  1  0  0  0
 22 28  1  0  0  0
 22 32  2  0  0  0
 26 27  1  0  0  0
 28 97  1  0  0  0
 28 98  1  0  0  0
 29 99  1  0  0  0
 29100  1  0  0  0
 33 34  1  0  0  0
 33 66  1  0  0  0
 33 70  2  0  0  0
 34 36  1  0  0  0
 34 59  1  0  0  0
 34101  1  0  0  0
 35 44  2  0  0  0
 35 45  1  0  0  0
 35 68  1  0  0  0
 36 56  1  0  0  0
 36102  1  0  0  0
 37 39  1  0  0  0
 37 47  1  0  0  0
 37 66  1  0  0  0
 37103  1  0  0  0
 38 43  2  0  0  0
 38 46  1  0  0  0
 38 47  1  0  0  0
 39 64  1  0  0  0
 39 67  2  0  0  0
 40 52  1  0  0  0
 40 53  2  0  0  0
 40 58  1  0  0  0
 41104  1  0  0  0
 41105  1  0  0  0
 41106  1  0  0  0
 41 48  1  0  0  0
 42 43  1  0  0  0
 42 66  1  0  0  0
 42107  1  0  0  0
 42108  1  0  0  0
 43 44  1  0  0  0
 44109  1  0  0  0
 45 46  2  0  0  0
 45110  1  0  0  0
 46111  1  0  0  0
 47112  1  0  0  0
 47113  1  0  0  0
 48 56  1  0  0  0
 48 65  1  0  0  0
 48114  1  0  0  0
 49 50  1  0  0  0
 49 53  1  0  0  0
 49 64  1  0  0  0
 49115  1  0  0  0
 50 51  1  0  0  0
 50116  1  0  0  0
 50117  1  0  0  0
 51 52  1  0  0  0
 51118  1  0  0  0
 51119  1  0  0  0
 52120  1  0  0  0
 52121  1  0  0  0
 53 54  1  0  0  0
 54 55  2  0  0  0
 54122  1  0  0  0
 55 57  1  0  0  0
 55123  1  0  0  0
 56 69  2  0  0  0
 57 58  2  0  0  0
 57124  1  0  0  0
 58125  1  0  0  0
 59 60  1  0  0  0
 59 61  1  0  0  0
 59 62  1  0  0  0
 60126  1  0  0  0
 60127  1  0  0  0
 60128  1  0  0  0
 61129  1  0  0  0
 61130  1  0  0  0
 61131  1  0  0  0
 62132  1  0  0  0
 62133  1  0  0  0
 62134  1  0  0  0
 63 65  1  0  0  0
 63135  1  0  0  0
 63136  1  0  0  0
 63137  1  0  0  0
 64138  1  0  0  0
 65139  1  0  0  0
 68 78  1  0  0  0
 71 74  1  0  0  0
 71 76  1  0  0  0
 71140  1  0  0  0
 71141  1  0  0  0
 72 75  1  0  0  0
 72 76  1  0  0  0
 72142  1  0  0  0
 72143  1  0  0  0
 73 77  1  0  0  0
 73 78  1  0  0  0
 73144  1  0  0  0
 73145  1  0  0  0
 74 79  1  0  0  0
 74146  1  0  0  0
 74147  1  0  0  0
 75 79  1  0  0  0
 75148  1  0  0  0
 75149  1  0  0  0
 76 80  1  0  0  0
 76150  1  0  0  0
 77 78  1  0  0  0
 77 80  1  0  0  0
 77151  1  0  0  0
 78152  1  0  0  0
 80153  1  0  0  0
 80154  1  0  0  0
M  CHG  1  80   1
M  ISO  4   1 100  68 101  78 101  79 100
M  END
> <chiral flag>
0

> <version>
0

> <s_m_source_file>
/data/baiqing/PycharmProjects/Reinvent-master-3.2/result/LINK_invent/BTK/process_docking_weight1_custom_sum_contain_oxygen_bond_distance_aromatic_linkinvent_7_9_3/rearranged_h_0181.sdf

> <i_m_source_file_index>
41

> <r_mmod_Potential_Energy-OPLS-2005>
951.900817871094

> <r_mmod_Stretch_Energy-OPLS-2005>
399.467620849609

> <r_mmod_Bend_Energy-OPLS-2005>
422.259246826172

> <r_mmod_Torsional_Energy-OPLS-2005>
360.921569824219

> <r_mmod_Improper_Torsional_Energy-OPLS-2005>
4.79745769500732

> <r_mmod_Van_der_Waal_Energy-OPLS-2005>
113.340385437012

> <r_mmod_Electrostatic_Energy-OPLS-2005>
-189.121810913086

> <r_mmod_Solvation_Energy-OPLS-2005>
-494.387817382812

> <b_mmod_Minimization_Converged-OPLS-2005>
0

> <r_mmod_RMS_Derivative-OPLS-2005>
6.42395210266113

$$$$
41
                    3D
 Structure written by MMmdl.
153162  0  0  1  0            999 V2000
  -30.5391  -15.0102   20.4162 C   0  0  0  0  0  0
  -30.4295  -12.6330   19.5040 C   0  0  0  0  0  0
  -29.5195  -12.5350   18.2591 C   0  0  0  0  0  0
  -28.0545  -12.3138   18.6787 C   0  0  0  0  0  0
  -27.6207  -13.2591   19.8307 C   0  0  2  0  0  0
  -28.6611  -13.3326   20.9665 C   0  0  0  0  0  0
  -25.2431  -13.8247   20.5747 C   0  0  0  0  0  0
  -24.1753  -13.0455   20.9238 C   0  0  0  0  0  0
  -24.6383  -11.6944   20.8753 C   0  0  0  0  0  0
  -23.9082  -10.4305   21.0406 C   0  0  0  0  0  0
  -24.3630   -9.4216   21.9181 C   0  0  0  0  0  0
  -23.6304   -8.2249   22.0748 C   0  0  0  0  0  0
  -22.4286   -8.0285   21.3541 C   0  0  0  0  0  0
  -21.9924   -9.0263   20.4649 C   0  0  0  0  0  0
  -22.7255  -10.2141   20.3057 C   0  0  0  0  0  0
  -21.6853   -6.0741   22.5281 C   0  0  0  0  0  0
  -21.4020   -6.5642   23.8216 C   0  0  0  0  0  0
  -21.3660   -5.6790   24.9172 C   0  0  0  0  0  0
  -21.6046   -4.3054   24.7225 C   0  0  0  0  0  0
  -21.8817   -3.8150   23.4343 C   0  0  0  0  0  0
  -21.9190   -4.6970   22.3401 C   0  0  0  0  0  0
  -22.7772  -13.5221   21.1884 C   0  0  0  0  0  0
  -22.1658   -4.2156   21.0979 F   0  0  0  0  0  0
  -21.5626   -3.4538   25.7736 F   0  0  0  0  0  0
  -29.9206  -13.7573   20.3472 N   0  0  0  0  0  0
  -26.2849  -12.9496   20.3242 N   0  0  0  0  0  0
  -25.9319  -11.6616   20.5738 N   0  0  0  0  0  0
  -22.0419  -12.8213   22.0441 N   0  0  0  0  0  0
  -25.4114  -15.1976   20.4213 N   0  0  0  0  0  0
  -31.7565  -15.0110   20.1927 O   0  0  0  0  0  0
  -21.6640   -6.8888   21.4244 O   0  0  0  0  0  0
  -22.3459  -14.5522   20.6722 O   0  0  0  0  0  0
  -24.6461  -31.8382   23.1820 C   0  0  0  0  0  0
  -25.9218  -32.4656   23.8229 C   0  0  1  0  0  0
  -27.2201  -27.0848   20.1723 C   0  0  0  0  0  0
  -25.5949  -33.8466   24.2141 N   0  0  0  0  0  0
  -23.4516  -30.4525   21.5274 C   0  0  2  0  0  0
  -24.9014  -28.8579   20.1163 C   0  0  0  0  0  0
  -22.7575  -29.4517   22.4850 C   0  0  0  0  0  0
  -18.0305  -28.1385   22.8472 C   0  0  0  0  0  0
  -24.1491  -36.7244   23.2645 C   0  0  0  0  0  0
  -26.0080  -30.6937   21.3876 C   0  0  0  0  0  0
  -26.0766  -29.2959   20.7394 C   0  0  0  0  0  0
  -27.2329  -28.4249   20.7488 C   0  0  0  0  0  0
  -26.0219  -26.7527   19.5081 C   0  0  0  0  0  0
  -24.8882  -27.6014   19.4857 C   0  0  0  0  0  0
  -23.6806  -29.7677   20.1516 C   0  0  0  0  0  0
  -25.4124  -36.3009   24.0309 C   0  0  1  0  0  0
  -20.5915  -28.3711   23.1230 C   0  0  2  0  0  0
  -20.6781  -26.9408   22.5409 C   0  0  0  0  0  0
  -19.5760  -26.6365   21.5210 C   0  0  0  0  0  0
  -18.1943  -26.7921   22.1623 C   0  0  0  0  0  0
  -19.1561  -28.8870   23.2839 C   0  0  0  0  0  0
  -18.9477  -30.1466   23.8861 C   0  0  0  0  0  0
  -17.6474  -30.6581   24.0555 C   0  0  0  0  0  0
  -25.9069  -34.9386   23.5038 C   0  0  0  0  0  0
  -16.5365  -29.9069   23.6337 C   0  0  0  0  0  0
  -16.7291  -28.6491   23.0355 C   0  0  0  0  0  0
  -26.4526  -31.6554   25.0700 C   0  0  0  0  0  0
  -25.3694  -31.3768   26.1388 C   0  0  0  0  0  0
  -27.0405  -30.2945   24.6322 C   0  0  0  0  0  0
  -27.6036  -32.4345   25.7496 C   0  0  0  0  0  0
  -27.5570  -37.1782   24.8463 C   0  0  0  0  0  0
  -21.4265  -29.3034   22.3600 N   0  0  0  0  0  0
  -26.4282  -37.3731   23.9402 N   0  0  0  0  0  0
  -24.7217  -31.0195   22.0869 N   0  0  0  0  0  0
  -23.4202  -28.8083   23.3027 O   0  0  0  0  0  0
  -28.3128  -26.1321   20.1919 O   0  0  0  0  0  0
  -26.5673  -34.8903   22.4623 O   0  0  0  0  0  0
  -23.5576  -32.1289   23.7022 O   0  0  0  0  0  0
  -29.0013  -23.8542   19.1746 C   0  0  0  0  0  0
  -28.2418  -22.5087   21.3765 C   0  0  0  0  0  0
  -29.2978  -22.4278   19.2968 C   0  0  0  0  0  0
  -28.9387  -21.6412   20.4472 C   0  0  0  0  0  0
  -28.3338  -24.6429   20.1727 C   0  0  0  0  0  0
  -29.3313  -17.2393   21.3756 C   0  0  0  0  0  0
  -30.3211  -17.5323   19.6541 C   0  0  0  0  0  0
  -29.2774  -18.4998   20.3744 C   0  0  0  0  0  0
  -30.1056  -21.7623   18.1996 C   0  0  0  0  0  0
  -29.5558  -20.1232   20.8486 C   0  0  0  0  0  0
  -27.9697  -23.8853   21.2653 N   0  0  0  0  0  0
  -29.8124  -16.2573   20.3204 N   0  0  0  0  0  0
  -31.4635  -12.7871   19.1925 H   0  0  0  0  0  0
  -30.4254  -11.6964   20.0639 H   0  0  0  0  0  0
  -29.8527  -11.7248   17.6089 H   0  0  0  0  0  0
  -29.6006  -13.4534   17.6749 H   0  0  0  0  0  0
  -27.9590  -11.2761   18.9993 H   0  0  0  0  0  0
  -27.3923  -12.4287   17.8196 H   0  0  0  0  0  0
  -27.5718  -14.2535   19.3860 H   0  0  0  0  0  0
  -28.7658  -12.3746   21.4775 H   0  0  0  0  0  0
  -28.3519  -14.0598   21.7192 H   0  0  0  0  0  0
  -25.2772   -9.5692   22.4759 H   0  0  0  0  0  0
  -24.0008   -7.4646   22.7471 H   0  0  0  0  0  0
  -21.0851   -8.8794   19.8961 H   0  0  0  0  0  0
  -22.3711  -10.9682   19.6173 H   0  0  0  0  0  0
  -21.2014   -7.6152   23.9726 H   0  0  0  0  0  0
  -21.1483   -6.0516   25.9076 H   0  0  0  0  0  0
  -22.0593   -2.7616   23.2837 H   0  0  0  0  0  0
  -22.4042  -11.9897   22.4861 H   0  0  0  0  0  0
  -21.1032  -13.1231   22.2643 H   0  0  0  0  0  0
  -24.6504  -15.8556   20.5493 H   0  0  0  0  0  0
  -26.2721  -15.6387   20.1224 H   0  0  0  0  0  0
  -26.7277  -32.5252   23.0948 H   0  0  0  0  0  0
  -25.0061  -33.9558   25.0270 H   0  0  0  0  0  0
  -22.7565  -31.2784   21.3638 H   0  0  0  0  0  0
  -23.3750  -35.9577   23.3296 H   0  0  0  0  0  0
  -24.3569  -36.8896   22.2060 H   0  0  0  0  0  0
  -23.7254  -37.6437   23.6696 H   0  0  0  0  0  0
  -26.1662  -31.4390   20.6072 H   0  0  0  0  0  0
  -26.8779  -30.7503   22.0306 H   0  0  0  0  0  0
  -28.1328  -28.7584   21.2465 H   0  0  0  0  0  0
  -25.9460  -25.7905   19.0221 H   0  0  0  0  0  0
  -23.9920  -27.2607   18.9854 H   0  0  0  0  0  0
  -23.8201  -30.5329   19.3872 H   0  0  0  0  0  0
  -22.7951  -29.2077   19.8457 H   0  0  0  0  0  0
  -25.1319  -36.1820   25.0802 H   0  0  0  0  0  0
  -21.0012  -28.3298   24.1350 H   0  0  0  0  0  0
  -20.5648  -26.2326   23.3627 H   0  0  0  0  0  0
  -21.6649  -26.7388   22.1224 H   0  0  0  0  0  0
  -19.6915  -25.6268   21.1257 H   0  0  0  0  0  0
  -19.6700  -27.3158   20.6724 H   0  0  0  0  0  0
  -17.4212  -26.6660   21.4028 H   0  0  0  0  0  0
  -18.0347  -26.0063   22.9020 H   0  0  0  0  0  0
  -19.7953  -30.7291   24.2213 H   0  0  0  0  0  0
  -17.5025  -31.6260   24.5152 H   0  0  0  0  0  0
  -15.5363  -30.2959   23.7677 H   0  0  0  0  0  0
  -15.8693  -28.0799   22.7086 H   0  0  0  0  0  0
  -24.5863  -30.7126   25.7711 H   0  0  0  0  0  0
  -24.8893  -32.2960   26.4754 H   0  0  0  0  0  0
  -25.7962  -30.8978   27.0206 H   0  0  0  0  0  0
  -26.3041  -29.6651   24.1311 H   0  0  0  0  0  0
  -27.3975  -29.7270   25.4925 H   0  0  0  0  0  0
  -27.8961  -30.4168   23.9677 H   0  0  0  0  0  0
  -27.2595  -33.3659   26.2006 H   0  0  0  0  0  0
  -28.3880  -32.6888   25.0355 H   0  0  0  0  0  0
  -28.0659  -31.8519   26.5474 H   0  0  0  0  0  0
  -28.2583  -38.0084   24.7497 H   0  0  0  0  0  0
  -28.1073  -36.2609   24.6303 H   0  0  0  0  0  0
  -27.2284  -37.1443   25.8868 H   0  0  0  0  0  0
  -20.9482  -29.8736   21.6765 H   0  0  0  0  0  0
  -26.0140  -38.2798   24.1400 H   0  0  0  0  0  0
  -29.3690  -24.3831   18.3057 H   0  0  0  0  0  0
  -27.9522  -22.0917   22.3302 H   0  0  0  0  0  0
  -28.3540  -16.9925   21.7948 H   0  0  0  0  0  0
  -30.0478  -17.3790   22.1893 H   0  0  0  0  0  0
  -31.3561  -17.7688   19.9128 H   0  0  0  0  0  0
  -30.2147  -17.5343   18.5681 H   0  0  0  0  0  0
  -28.3263  -18.4394   19.8435 H   0  0  0  0  0  0
  -30.2153  -22.4109   17.3304 H   0  0  0  0  0  0
  -29.6213  -20.8419   17.8719 H   0  0  0  0  0  0
  -31.1037  -21.5154   18.5621 H   0  0  0  0  0  0
  -29.4274  -20.1152   21.9319 H   0  0  0  0  0  0
  -30.6314  -20.2698   20.7475 H   0  0  0  0  0  0
  1 25  1  0  0  0
  1 30  2  0  0  0
  1 82  1  0  0  0
  2  3  1  0  0  0
  2 25  1  0  0  0
  2 83  1  0  0  0
  2 84  1  0  0  0
  3  4  1  0  0  0
  3 85  1  0  0  0
  3 86  1  0  0  0
  4  5  1  0  0  0
  4 87  1  0  0  0
  4 88  1  0  0  0
  5  6  1  0  0  0
  5 26  1  0  0  0
  5 89  1  0  0  0
  6 25  1  0  0  0
  6 90  1  0  0  0
  6 91  1  0  0  0
  7  8  2  0  0  0
  7 26  1  0  0  0
  7 29  1  0  0  0
  8  9  1  0  0  0
  8 22  1  0  0  0
  9 10  1  0  0  0
  9 27  2  0  0  0
 10 11  2  0  0  0
 10 15  1  0  0  0
 11 12  1  0  0  0
 11 92  1  0  0  0
 12 13  2  0  0  0
 12 93  1  0  0  0
 13 14  1  0  0  0
 13 31  1  0  0  0
 14 15  2  0  0  0
 14 94  1  0  0  0
 15 95  1  0  0  0
 16 17  2  0  0  0
 16 21  1  0  0  0
 16 31  1  0  0  0
 17 18  1  0  0  0
 17 96  1  0  0  0
 18 19  2  0  0  0
 18 97  1  0  0  0
 19 20  1  0  0  0
 19 24  1  0  0  0
 20 21  2  0  0  0
 20 98  1  0  0  0
 21 23  1  0  0  0
 22 28  1  0  0  0
 22 32  2  0  0  0
 26 27  1  0  0  0
 28 99  1  0  0  0
 28100  1  0  0  0
 29101  1  0  0  0
 29102  1  0  0  0
 33 34  1  0  0  0
 33 66  1  0  0  0
 33 70  2  0  0  0
 34 36  1  0  0  0
 34 59  1  0  0  0
 34103  1  0  0  0
 35 44  2  0  0  0
 35 45  1  0  0  0
 35 68  1  0  0  0
 36 56  1  0  0  0
 36104  1  0  0  0
 37 39  1  0  0  0
 37 47  1  0  0  0
 37 66  1  0  0  0
 37105  1  0  0  0
 38 43  2  0  0  0
 38 46  1  0  0  0
 38 47  1  0  0  0
 39 64  1  0  0  0
 39 67  2  0  0  0
 40 52  1  0  0  0
 40 53  2  0  0  0
 40 58  1  0  0  0
 41106  1  0  0  0
 41107  1  0  0  0
 41108  1  0  0  0
 41 48  1  0  0  0
 42 43  1  0  0  0
 42 66  1  0  0  0
 42109  1  0  0  0
 42110  1  0  0  0
 43 44  1  0  0  0
 44111  1  0  0  0
 45 46  2  0  0  0
 45112  1  0  0  0
 46113  1  0  0  0
 47114  1  0  0  0
 47115  1  0  0  0
 48 56  1  0  0  0
 48 65  1  0  0  0
 48116  1  0  0  0
 49 50  1  0  0  0
 49 53  1  0  0  0
 49 64  1  0  0  0
 49117  1  0  0  0
 50 51  1  0  0  0
 50118  1  0  0  0
 50119  1  0  0  0
 51 52  1  0  0  0
 51120  1  0  0  0
 51121  1  0  0  0
 52122  1  0  0  0
 52123  1  0  0  0
 53 54  1  0  0  0
 54 55  2  0  0  0
 54124  1  0  0  0
 55 57  1  0  0  0
 55125  1  0  0  0
 56 69  2  0  0  0
 57 58  2  0  0  0
 57126  1  0  0  0
 58127  1  0  0  0
 59 60  1  0  0  0
 59 61  1  0  0  0
 59 62  1  0  0  0
 60128  1  0  0  0
 60129  1  0  0  0
 60130  1  0  0  0
 61131  1  0  0  0
 61132  1  0  0  0
 61133  1  0  0  0
 62134  1  0  0  0
 62135  1  0  0  0
 62136  1  0  0  0
 63 65  1  0  0  0
 63137  1  0  0  0
 63138  1  0  0  0
 63139  1  0  0  0
 64140  1  0  0  0
 65141  1  0  0  0
 68 75  1  0  0  0
 71 73  2  0  0  0
 71 75  1  0  0  0
 71142  1  0  0  0
 72 74  2  0  0  0
 72 81  1  0  0  0
 72143  1  0  0  0
 73 74  1  0  0  0
 73 79  1  0  0  0
 74 80  1  0  0  0
 75 81  2  0  0  0
 76 78  1  0  0  0
 76 82  1  0  0  0
 76144  1  0  0  0
 76145  1  0  0  0
 77 78  1  0  0  0
 77 82  1  0  0  0
 77146  1  0  0  0
 77147  1  0  0  0
 78 80  1  0  0  0
 78148  1  0  0  0
 79149  1  0  0  0
 79150  1  0  0  0
 79151  1  0  0  0
 80152  1  0  0  0
 80153  1  0  0  0
M  ISO  4   1 100  68 101  75 101  82 100
M  END
> <chiral flag>
0

> <version>
0

> <s_m_source_file>
/data/baiqing/PycharmProjects/Reinvent-master-3.2/result/LINK_invent/BTK/process_docking_weight1_custom_sum_contain_oxygen_bond_distance_aromatic_linkinvent_7_9_3/rearranged_h_0181.sdf

> <i_m_source_file_index>
42

> <r_mmod_Potential_Energy-OPLS-2005>
602.050964355469

> <r_mmod_Stretch_Energy-OPLS-2005>
264.617462158203

> <r_mmod_Bend_Energy-OPLS-2005>
312.171173095703

> <r_mmod_Torsional_Energy-OPLS-2005>
287.853454589844

> <r_mmod_Improper_Torsional_Energy-OPLS-2005>
23.3211479187012

> <r_mmod_Van_der_Waal_Energy-OPLS-2005>
125.444145202637

> <r_mmod_Electrostatic_Energy-OPLS-2005>
-429.619934082031

> <r_mmod_Solvation_Energy-OPLS-2005>
-212.508758544922

> <b_mmod_Minimization_Converged-OPLS-2005>
0

> <r_mmod_RMS_Derivative-OPLS-2005>
1.28495824337006

$$$$
42
                    3D
 Structure written by MMmdl.
151159  0  0  1  0            999 V2000
  -30.5030  -15.0045   20.4026 C   0  0  0  0  0  0
  -30.4294  -12.6177   19.5077 C   0  0  0  0  0  0
  -29.5177  -12.5444   18.2601 C   0  0  0  0  0  0
  -28.0495  -12.3293   18.6709 C   0  0  0  0  0  0
  -27.6229  -13.2549   19.8417 C   0  0  2  0  0  0
  -28.6603  -13.2986   20.9801 C   0  0  0  0  0  0
  -25.2456  -13.8230   20.5759 C   0  0  0  0  0  0
  -24.1773  -13.0428   20.9279 C   0  0  0  0  0  0
  -24.6393  -11.6915   20.8781 C   0  0  0  0  0  0
  -23.9080  -10.4278   21.0432 C   0  0  0  0  0  0
  -24.3625   -9.4190   21.9204 C   0  0  0  0  0  0
  -23.6295   -8.2227   22.0758 C   0  0  0  0  0  0
  -22.4287   -8.0266   21.3542 C   0  0  0  0  0  0
  -21.9929   -9.0244   20.4645 C   0  0  0  0  0  0
  -22.7257  -10.2129   20.3065 C   0  0  0  0  0  0
  -21.6861   -6.0717   22.5278 C   0  0  0  0  0  0
  -21.4016   -6.5625   23.8204 C   0  0  0  0  0  0
  -21.3679   -5.6792   24.9173 C   0  0  0  0  0  0
  -21.6053   -4.3055   24.7233 C   0  0  0  0  0  0
  -21.8811   -3.8138   23.4355 C   0  0  0  0  0  0
  -21.9195   -4.6944   22.3408 C   0  0  0  0  0  0
  -22.7801  -13.5207   21.1928 C   0  0  0  0  0  0
  -22.1669   -4.2115   21.0994 F   0  0  0  0  0  0
  -21.5646   -3.4548   25.7762 F   0  0  0  0  0  0
  -29.9279  -13.7274   20.3767 N   0  0  0  0  0  0
  -26.2852  -12.9454   20.3260 N   0  0  0  0  0  0
  -25.9312  -11.6575   20.5718 N   0  0  0  0  0  0
  -22.0447  -12.8164   22.0476 N   0  0  0  0  0  0
  -25.4143  -15.1944   20.4165 N   0  0  0  0  0  0
  -31.7065  -15.0664   20.1255 O   0  0  0  0  0  0
  -21.6647   -6.8867   21.4248 O   0  0  0  0  0  0
  -22.3479  -14.5508   20.6790 O   0  0  0  0  0  0
  -24.6491  -31.8391   23.1822 C   0  0  0  0  0  0
  -25.9218  -32.4690   23.8250 C   0  0  1  0  0  0
  -27.2157  -27.0894   20.1648 C   0  0  0  0  0  0
  -25.5916  -33.8496   24.2158 N   0  0  0  0  0  0
  -23.4578  -30.4562   21.5269 C   0  0  2  0  0  0
  -24.9102  -28.8766   20.1100 C   0  0  0  0  0  0
  -22.7623  -29.4482   22.4789 C   0  0  0  0  0  0
  -18.0319  -28.1400   22.8479 C   0  0  0  0  0  0
  -24.1500  -36.7294   23.2634 C   0  0  0  0  0  0
  -26.0178  -30.7050   21.3849 C   0  0  0  0  0  0
  -26.0899  -29.3088   20.7315 C   0  0  0  0  0  0
  -27.2479  -28.4338   20.7337 C   0  0  0  0  0  0
  -26.0127  -26.7720   19.5018 C   0  0  0  0  0  0
  -24.8883  -27.6249   19.4745 C   0  0  0  0  0  0
  -23.6913  -29.7862   20.1468 C   0  0  0  0  0  0
  -25.4136  -36.3046   24.0300 C   0  0  1  0  0  0
  -20.5940  -28.3721   23.1228 C   0  0  2  0  0  0
  -20.6800  -26.9409   22.5411 C   0  0  0  0  0  0
  -19.5761  -26.6374   21.5229 C   0  0  0  0  0  0
  -18.1944  -26.7938   22.1639 C   0  0  0  0  0  0
  -19.1577  -28.8881   23.2854 C   0  0  0  0  0  0
  -18.9477  -30.1478   23.8873 C   0  0  0  0  0  0
  -17.6462  -30.6580   24.0550 C   0  0  0  0  0  0
  -25.9073  -34.9411   23.5055 C   0  0  0  0  0  0
  -16.5359  -29.9066   23.6317 C   0  0  0  0  0  0
  -16.7299  -28.6499   23.0324 C   0  0  0  0  0  0
  -26.4531  -31.6558   25.0697 C   0  0  0  0  0  0
  -25.3687  -31.3749   26.1367 C   0  0  0  0  0  0
  -27.0383  -30.2947   24.6287 C   0  0  0  0  0  0
  -27.6063  -32.4342   25.7474 C   0  0  0  0  0  0
  -27.5590  -37.1816   24.8450 C   0  0  0  0  0  0
  -21.4295  -29.3039   22.3583 N   0  0  0  0  0  0
  -26.4298  -37.3761   23.9388 N   0  0  0  0  0  0
  -24.7284  -31.0229   22.0857 N   0  0  0  0  0  0
  -23.4255  -28.7985   23.2916 O   0  0  0  0  0  0
  -28.2495  -26.0707   20.1675 O   0  0  0  0  0  0
  -26.5694  -34.8919   22.4651 O   0  0  0  0  0  0
  -23.5597  -32.1230   23.7044 O   0  0  0  0  0  0
  -28.9350  -23.1802   18.5734 C   0  0  0  0  0  0
  -28.5908  -23.1638   19.9367 C   0  0  0  0  0  0
  -29.2603  -20.8471   18.4883 C   0  0  0  0  0  0
  -29.0305  -20.6566   19.8798 C   0  0  0  0  0  0
  -29.4086  -19.6873   17.5231 C   0  0  0  0  0  0
  -28.9600  -19.0903   20.4948 C   0  0  0  0  0  0
  -27.9715  -24.5717   20.5882 C   0  0  0  0  0  0
  -30.0042  -17.7526   20.2178 C   0  0  0  0  0  0
  -29.2577  -22.0623   17.8751 N   0  0  0  0  0  0
  -28.6586  -21.8660   20.5709 N   0  0  0  0  0  0
  -29.7167  -16.2011   20.5219 N   0  0  0  0  0  0
  -31.4639  -12.7783   19.1979 H   0  0  0  0  0  0
  -30.4217  -11.6655   20.0427 H   0  0  0  0  0  0
  -29.8329  -11.7391   17.5945 H   0  0  0  0  0  0
  -29.6105  -13.4678   17.6860 H   0  0  0  0  0  0
  -27.3904  -12.4778   17.8145 H   0  0  0  0  0  0
  -27.9377  -11.2840   18.9613 H   0  0  0  0  0  0
  -27.5817  -14.2600   19.4215 H   0  0  0  0  0  0
  -28.7591  -12.3283   21.4658 H   0  0  0  0  0  0
  -28.3514  -14.0057   21.7538 H   0  0  0  0  0  0
  -25.2755   -9.5665   22.4803 H   0  0  0  0  0  0
  -23.9997   -7.4613   22.7461 H   0  0  0  0  0  0
  -21.0869   -8.8749   19.8936 H   0  0  0  0  0  0
  -22.3686  -10.9673   19.6190 H   0  0  0  0  0  0
  -21.1992   -7.6127   23.9685 H   0  0  0  0  0  0
  -21.1538   -6.0533   25.9075 H   0  0  0  0  0  0
  -22.0572   -2.7592   23.2869 H   0  0  0  0  0  0
  -22.4080  -11.9822   22.4833 H   0  0  0  0  0  0
  -21.1043  -13.1136   22.2652 H   0  0  0  0  0  0
  -24.6473  -15.8498   20.5205 H   0  0  0  0  0  0
  -26.2473  -15.6191   20.0283 H   0  0  0  0  0  0
  -26.7294  -32.5353   23.0995 H   0  0  0  0  0  0
  -24.9951  -33.9581   25.0240 H   0  0  0  0  0  0
  -22.7623  -31.2831   21.3686 H   0  0  0  0  0  0
  -23.3753  -35.9631   23.3277 H   0  0  0  0  0  0
  -24.3567  -36.8966   22.2047 H   0  0  0  0  0  0
  -23.7280  -37.6490   23.6705 H   0  0  0  0  0  0
  -26.1794  -31.4580   20.6101 H   0  0  0  0  0  0
  -26.8865  -30.7634   22.0300 H   0  0  0  0  0  0
  -28.1536  -28.7667   21.2214 H   0  0  0  0  0  0
  -25.9328  -25.8169   19.0016 H   0  0  0  0  0  0
  -23.9924  -27.2982   18.9640 H   0  0  0  0  0  0
  -23.8371  -30.5624   19.3942 H   0  0  0  0  0  0
  -22.8065  -29.2320   19.8284 H   0  0  0  0  0  0
  -25.1338  -36.1862   25.0794 H   0  0  0  0  0  0
  -21.0072  -28.3324   24.1336 H   0  0  0  0  0  0
  -20.5687  -26.2322   23.3636 H   0  0  0  0  0  0
  -21.6655  -26.7380   22.1200 H   0  0  0  0  0  0
  -19.6891  -25.6284   21.1253 H   0  0  0  0  0  0
  -19.6694  -27.3189   20.6771 H   0  0  0  0  0  0
  -17.4211  -26.6682   21.4043 H   0  0  0  0  0  0
  -18.0320  -26.0098   22.9058 H   0  0  0  0  0  0
  -19.7938  -30.7316   24.2230 H   0  0  0  0  0  0
  -17.4990  -31.6246   24.5171 H   0  0  0  0  0  0
  -15.5350  -30.2936   23.7657 H   0  0  0  0  0  0
  -15.8714  -28.0811   22.7014 H   0  0  0  0  0  0
  -24.5882  -30.7088   25.7676 H   0  0  0  0  0  0
  -24.8824  -32.2902   26.4740 H   0  0  0  0  0  0
  -25.7911  -30.8942   27.0191 H   0  0  0  0  0  0
  -26.2989  -29.6710   24.1225 H   0  0  0  0  0  0
  -27.3911  -29.7221   25.4878 H   0  0  0  0  0  0
  -27.8951  -30.4194   23.9657 H   0  0  0  0  0  0
  -27.2651  -33.3678   26.1979 H   0  0  0  0  0  0
  -28.3873  -32.6860   25.0282 H   0  0  0  0  0  0
  -28.0720  -31.8505   26.5420 H   0  0  0  0  0  0
  -28.2598  -38.0129   24.7501 H   0  0  0  0  0  0
  -28.1095  -36.2648   24.6273 H   0  0  0  0  0  0
  -27.2285  -37.1477   25.8848 H   0  0  0  0  0  0
  -20.9500  -29.8802   21.6809 H   0  0  0  0  0  0
  -26.0163  -38.2835   24.1371 H   0  0  0  0  0  0
  -28.8775  -24.0965   18.0046 H   0  0  0  0  0  0
  -30.4493  -19.3724   17.4776 H   0  0  0  0  0  0
  -29.0861  -19.9772   16.5223 H   0  0  0  0  0  0
  -28.7838  -18.8430   17.8119 H   0  0  0  0  0  0
  -27.9844  -18.7567   20.1425 H   0  0  0  0  0  0
  -28.8436  -19.1889   21.5742 H   0  0  0  0  0  0
  -28.2570  -24.5200   21.6378 H   0  0  0  0  0  0
  -26.8925  -24.4223   20.6039 H   0  0  0  0  0  0
  -30.9533  -18.0031   20.6929 H   0  0  0  0  0  0
  -30.2401  -17.7445   19.1574 H   0  0  0  0  0  0
  -28.7504  -16.0066   20.7421 H   0  0  0  0  0  0
  1 25  1  0  0  0
  1 30  2  0  0  0
  1 81  1  0  0  0
  2  3  1  0  0  0
  2 25  1  0  0  0
  2 82  1  0  0  0
  2 83  1  0  0  0
  3  4  1  0  0  0
  3 84  1  0  0  0
  3 85  1  0  0  0
  4  5  1  0  0  0
  4 86  1  0  0  0
  4 87  1  0  0  0
  5  6  1  0  0  0
  5 26  1  0  0  0
  5 88  1  0  0  0
  6 25  1  0  0  0
  6 89  1  0  0  0
  6 90  1  0  0  0
  7  8  2  0  0  0
  7 26  1  0  0  0
  7 29  1  0  0  0
  8  9  1  0  0  0
  8 22  1  0  0  0
  9 10  1  0  0  0
  9 27  2  0  0  0
 10 11  2  0  0  0
 10 15  1  0  0  0
 11 12  1  0  0  0
 11 91  1  0  0  0
 12 13  2  0  0  0
 12 92  1  0  0  0
 13 14  1  0  0  0
 13 31  1  0  0  0
 14 15  2  0  0  0
 14 93  1  0  0  0
 15 94  1  0  0  0
 16 17  2  0  0  0
 16 21  1  0  0  0
 16 31  1  0  0  0
 17 18  1  0  0  0
 17 95  1  0  0  0
 18 19  2  0  0  0
 18 96  1  0  0  0
 19 20  1  0  0  0
 19 24  1  0  0  0
 20 21  2  0  0  0
 20 97  1  0  0  0
 21 23  1  0  0  0
 22 28  1  0  0  0
 22 32  2  0  0  0
 26 27  1  0  0  0
 28 98  1  0  0  0
 28 99  1  0  0  0
 29100  1  0  0  0
 29101  1  0  0  0
 33 34  1  0  0  0
 33 66  1  0  0  0
 33 70  2  0  0  0
 34 36  1  0  0  0
 34 59  1  0  0  0
 34102  1  0  0  0
 35 44  2  0  0  0
 35 45  1  0  0  0
 35 68  1  0  0  0
 36 56  1  0  0  0
 36103  1  0  0  0
 37 39  1  0  0  0
 37 47  1  0  0  0
 37 66  1  0  0  0
 37104  1  0  0  0
 38 43  2  0  0  0
 38 46  1  0  0  0
 38 47  1  0  0  0
 39 64  1  0  0  0
 39 67  2  0  0  0
 40 52  1  0  0  0
 40 53  2  0  0  0
 40 58  1  0  0  0
 41105  1  0  0  0
 41106  1  0  0  0
 41107  1  0  0  0
 41 48  1  0  0  0
 42 43  1  0  0  0
 42 66  1  0  0  0
 42108  1  0  0  0
 42109  1  0  0  0
 43 44  1  0  0  0
 44110  1  0  0  0
 45 46  2  0  0  0
 45111  1  0  0  0
 46112  1  0  0  0
 47113  1  0  0  0
 47114  1  0  0  0
 48 56  1  0  0  0
 48 65  1  0  0  0
 48115  1  0  0  0
 49 50  1  0  0  0
 49 53  1  0  0  0
 49 64  1  0  0  0
 49116  1  0  0  0
 50 51  1  0  0  0
 50117  1  0  0  0
 50118  1  0  0  0
 51 52  1  0  0  0
 51119  1  0  0  0
 51120  1  0  0  0
 52121  1  0  0  0
 52122  1  0  0  0
 53 54  1  0  0  0
 54 55  2  0  0  0
 54123  1  0  0  0
 55 57  1  0  0  0
 55124  1  0  0  0
 56 69  2  0  0  0
 57 58  2  0  0  0
 57125  1  0  0  0
 58126  1  0  0  0
 59 60  1  0  0  0
 59 61  1  0  0  0
 59 62  1  0  0  0
 60127  1  0  0  0
 60128  1  0  0  0
 60129  1  0  0  0
 61130  1  0  0  0
 61131  1  0  0  0
 61132  1  0  0  0
 62133  1  0  0  0
 62134  1  0  0  0
 62135  1  0  0  0
 63 65  1  0  0  0
 63136  1  0  0  0
 63137  1  0  0  0
 63138  1  0  0  0
 64139  1  0  0  0
 65140  1  0  0  0
 68 77  1  0  0  0
 71 72  2  0  0  0
 71 79  1  0  0  0
 71141  1  0  0  0
 72 77  1  0  0  0
 72 80  1  0  0  0
 73 74  1  0  0  0
 73 75  1  0  0  0
 73 79  2  0  0  0
 74 76  1  0  0  0
 74 80  2  0  0  0
 75142  1  0  0  0
 75143  1  0  0  0
 75144  1  0  0  0
 76 78  1  0  0  0
 76145  1  0  0  0
 76146  1  0  0  0
 77147  1  0  0  0
 77148  1  0  0  0
 78 81  1  0  0  0
 78149  1  0  0  0
 78150  1  0  0  0
 81151  1  0  0  0
M  ISO  4   1 100  68 101  77 101  81 100
M  END
> <chiral flag>
0

> <version>
0

> <s_m_source_file>
/data/baiqing/PycharmProjects/Reinvent-master-3.2/result/LINK_invent/BTK/process_docking_weight1_custom_sum_contain_oxygen_bond_distance_aromatic_linkinvent_7_9_3/rearranged_h_0181.sdf

> <i_m_source_file_index>
43

> <r_mmod_Potential_Energy-OPLS-2005>
684.686706542969

> <r_mmod_Stretch_Energy-OPLS-2005>
328.474609375

> <r_mmod_Bend_Energy-OPLS-2005>
286.378204345703

> <r_mmod_Torsional_Energy-OPLS-2005>
232.547073364258

> <r_mmod_Improper_Torsional_Energy-OPLS-2005>
7.08522701263428

> <r_mmod_Van_der_Waal_Energy-OPLS-2005>
130.386413574219

> <r_mmod_Electrostatic_Energy-OPLS-2005>
-298.442413330078

> <r_mmod_Solvation_Energy-OPLS-2005>
-235.292434692383

> <b_mmod_Minimization_Converged-OPLS-2005>
0

> <r_mmod_RMS_Derivative-OPLS-2005>
3.67088747024536

$$$$
43
                    3D
 Structure written by MMmdl.
160169  0  0  1  0            999 V2000
  -30.6537  -14.7006   20.4516 C   0  0  0  0  0  0
  -30.3906  -12.4327   19.4600 C   0  0  0  0  0  0
  -29.4861  -12.5230   18.2147 C   0  0  0  0  0  0
  -28.0131  -12.3231   18.6197 C   0  0  0  0  0  0
  -27.6118  -13.2112   19.8283 C   0  0  2  0  0  0
  -28.6576  -13.1802   20.9657 C   0  0  0  0  0  0
  -25.2339  -13.8102   20.5681 C   0  0  0  0  0  0
  -24.1648  -13.0361   20.9231 C   0  0  0  0  0  0
  -24.6235  -11.6838   20.8723 C   0  0  0  0  0  0
  -23.8945  -10.4225   21.0409 C   0  0  0  0  0  0
  -24.3526   -9.4174   21.9161 C   0  0  0  0  0  0
  -23.6245   -8.2198   22.0735 C   0  0  0  0  0  0
  -22.4222   -8.0231   21.3534 C   0  0  0  0  0  0
  -21.9838   -9.0169   20.4619 C   0  0  0  0  0  0
  -22.7126  -10.2062   20.3034 C   0  0  0  0  0  0
  -21.6805   -6.0718   22.5292 C   0  0  0  0  0  0
  -21.4016   -6.5609   23.8229 C   0  0  0  0  0  0
  -21.3694   -5.6749   24.9181 C   0  0  0  0  0  0
  -21.6036   -4.3015   24.7230 C   0  0  0  0  0  0
  -21.8795   -3.8128   23.4349 C   0  0  0  0  0  0
  -21.9167   -4.6947   22.3415 C   0  0  0  0  0  0
  -22.7690  -13.5174   21.1877 C   0  0  0  0  0  0
  -22.1618   -4.2148   21.0988 F   0  0  0  0  0  0
  -21.5644   -3.4500   25.7763 F   0  0  0  0  0  0
  -29.9607  -13.5110   20.3764 N   0  0  0  0  0  0
  -26.2727  -12.9260   20.3153 N   0  0  0  0  0  0
  -25.9150  -11.6439   20.5620 N   0  0  0  0  0  0
  -22.0285  -12.8222   22.0441 N   0  0  0  0  0  0
  -25.3940  -15.1840   20.4149 N   0  0  0  0  0  0
  -31.8587  -14.7042   20.1851 O   0  0  0  0  0  0
  -21.6575   -6.8856   21.4256 O   0  0  0  0  0  0
  -22.3417  -14.5503   20.6708 O   0  0  0  0  0  0
  -24.6214  -31.8606   23.1926 C   0  0  0  0  0  0
  -25.9055  -32.4796   23.8296 C   0  0  1  0  0  0
  -27.2259  -27.3237   20.1127 C   0  0  0  0  0  0
  -25.5829  -33.8587   24.2195 N   0  0  0  0  0  0
  -23.4171  -30.4768   21.5375 C   0  0  2  0  0  0
  -24.8638  -28.9176   20.1187 C   0  0  0  0  0  0
  -22.7457  -29.4617   22.4923 C   0  0  0  0  0  0
  -18.0292  -28.1352   22.8470 C   0  0  0  0  0  0
  -24.1491  -36.7295   23.2635 C   0  0  0  0  0  0
  -25.9582  -30.7899   21.3666 C   0  0  0  0  0  0
  -26.0337  -29.4160   20.7088 C   0  0  0  0  0  0
  -27.2215  -28.6329   20.6839 C   0  0  0  0  0  0
  -26.0334  -26.8565   19.5298 C   0  0  0  0  0  0
  -24.8644  -27.6425   19.5239 C   0  0  0  0  0  0
  -23.6308  -29.7933   20.1609 C   0  0  0  0  0  0
  -25.4119  -36.3083   24.0316 C   0  0  1  0  0  0
  -20.5887  -28.3663   23.1260 C   0  0  2  0  0  0
  -20.6764  -26.9384   22.5392 C   0  0  0  0  0  0
  -19.5750  -26.6366   21.5169 C   0  0  0  0  0  0
  -18.1938  -26.7902   22.1591 C   0  0  0  0  0  0
  -19.1541  -28.8816   23.2877 C   0  0  0  0  0  0
  -18.9470  -30.1413   23.8922 C   0  0  0  0  0  0
  -17.6483  -30.6568   24.0542 C   0  0  0  0  0  0
  -25.9044  -34.9465   23.5058 C   0  0  0  0  0  0
  -16.5380  -29.9073   23.6284 C   0  0  0  0  0  0
  -16.7283  -28.6466   23.0339 C   0  0  0  0  0  0
  -26.4402  -31.6647   25.0714 C   0  0  0  0  0  0
  -25.3588  -31.3852   26.1418 C   0  0  0  0  0  0
  -27.0242  -30.3059   24.6225 C   0  0  0  0  0  0
  -27.5940  -32.4404   25.7497 C   0  0  0  0  0  0
  -27.5592  -37.1785   24.8441 C   0  0  0  0  0  0
  -21.4180  -29.3028   22.3659 N   0  0  0  0  0  0
  -26.4288  -37.3784   23.9391 N   0  0  0  0  0  0
  -24.6840  -31.0597   22.0893 N   0  0  0  0  0  0
  -23.4193  -28.8181   23.3016 O   0  0  0  0  0  0
  -28.3803  -26.5478   20.0368 O   0  0  0  0  0  0
  -26.5667  -34.8926   22.4674 O   0  0  0  0  0  0
  -23.5357  -32.1446   23.7224 O   0  0  0  0  0  0
  -30.2551  -22.8320   19.1459 C   0  0  0  0  0  0
  -29.0125  -22.6287   19.7846 C   0  0  0  0  0  0
  -30.8259  -20.6010   19.4107 C   0  0  0  0  0  0
  -29.6062  -20.3131   20.0976 C   0  0  0  0  0  0
  -30.0737  -18.3681   21.6697 C   0  0  0  0  0  0
  -28.7632  -17.9880   19.5983 C   0  0  0  0  0  0
  -30.7993  -16.9894   21.4045 C   0  0  0  0  0  0
  -28.8405  -16.4497   20.0031 C   0  0  0  0  0  0
  -31.8520  -19.5488   19.0326 C   0  0  0  0  0  0
  -28.0218  -23.8656   19.7766 C   0  0  0  0  0  0
  -28.4365  -25.1771   20.5880 C   0  0  0  0  0  0
  -31.1499  -21.8363   18.9633 N   0  0  0  0  0  0
  -28.6977  -21.3582   20.2721 N   0  0  0  0  0  0
  -29.3158  -18.9679   20.5510 N   0  0  0  0  0  0
  -30.0193  -15.9099   20.7426 N   0  0  0  0  0  0
  -31.4404  -12.5172   19.1770 H   0  0  0  0  0  0
  -30.2934  -11.4617   19.9432 H   0  0  0  0  0  0
  -29.7852  -11.7837   17.4708 H   0  0  0  0  0  0
  -29.6051  -13.4979   17.7407 H   0  0  0  0  0  0
  -27.8666  -11.2707   18.8617 H   0  0  0  0  0  0
  -27.3624  -12.5271   17.7657 H   0  0  0  0  0  0
  -27.5655  -14.2119   19.4189 H   0  0  0  0  0  0
  -28.6791  -12.1956   21.4408 H   0  0  0  0  0  0
  -28.3917  -13.8935   21.7477 H   0  0  0  0  0  0
  -25.2692   -9.5689   22.4705 H   0  0  0  0  0  0
  -23.9967   -7.4595   22.7477 H   0  0  0  0  0  0
  -21.0749   -8.8687   19.8913 H   0  0  0  0  0  0
  -22.3593  -10.9592   19.6144 H   0  0  0  0  0  0
  -21.2006   -7.6108   23.9767 H   0  0  0  0  0  0
  -21.1541   -6.0450   25.9086 H   0  0  0  0  0  0
  -22.0545   -2.7592   23.2813 H   0  0  0  0  0  0
  -22.3812  -11.9937   22.4982 H   0  0  0  0  0  0
  -21.0917  -13.1328   22.2596 H   0  0  0  0  0  0
  -24.6166  -15.8239   20.5303 H   0  0  0  0  0  0
  -26.2320  -15.6402   20.0846 H   0  0  0  0  0  0
  -26.7141  -32.5443   23.1051 H   0  0  0  0  0  0
  -24.9865  -33.9749   25.0251 H   0  0  0  0  0  0
  -22.7104  -31.2944   21.3805 H   0  0  0  0  0  0
  -23.3757  -35.9616   23.3294 H   0  0  0  0  0  0
  -24.3582  -36.8957   22.2052 H   0  0  0  0  0  0
  -23.7258  -37.6483   23.6702 H   0  0  0  0  0  0
  -26.1047  -31.5557   20.6026 H   0  0  0  0  0  0
  -26.8321  -30.8299   22.0047 H   0  0  0  0  0  0
  -28.1361  -29.0235   21.1064 H   0  0  0  0  0  0
  -26.0063  -25.8809   19.0621 H   0  0  0  0  0  0
  -23.9620  -27.2500   19.0746 H   0  0  0  0  0  0
  -23.7399  -30.5536   19.3870 H   0  0  0  0  0  0
  -22.7555  -29.2078   19.8749 H   0  0  0  0  0  0
  -25.1316  -36.1923   25.0815 H   0  0  0  0  0  0
  -21.0004  -28.3239   24.1363 H   0  0  0  0  0  0
  -20.5579  -26.2294   23.3600 H   0  0  0  0  0  0
  -21.6659  -26.7354   22.1248 H   0  0  0  0  0  0
  -19.6914  -25.6266   21.1211 H   0  0  0  0  0  0
  -19.6676  -27.3161   20.6675 H   0  0  0  0  0  0
  -17.4191  -26.6627   21.4004 H   0  0  0  0  0  0
  -18.0355  -26.0047   22.8996 H   0  0  0  0  0  0
  -19.7968  -30.7175   24.2356 H   0  0  0  0  0  0
  -17.5051  -31.6252   24.5144 H   0  0  0  0  0  0
  -15.5384  -30.2987   23.7563 H   0  0  0  0  0  0
  -15.8691  -28.0776   22.7057 H   0  0  0  0  0  0
  -24.5663  -30.7349   25.7706 H   0  0  0  0  0  0
  -24.8860  -32.3057   26.4851 H   0  0  0  0  0  0
  -25.7808  -30.8953   27.0200 H   0  0  0  0  0  0
  -26.2849  -29.6842   24.1162 H   0  0  0  0  0  0
  -27.3818  -29.7312   25.4777 H   0  0  0  0  0  0
  -27.8763  -30.4327   23.9548 H   0  0  0  0  0  0
  -27.2519  -33.3682   26.2095 H   0  0  0  0  0  0
  -28.3719  -32.7049   25.0326 H   0  0  0  0  0  0
  -28.0652  -31.8545   26.5395 H   0  0  0  0  0  0
  -28.2578  -38.0110   24.7523 H   0  0  0  0  0  0
  -28.1128  -36.2645   24.6223 H   0  0  0  0  0  0
  -27.2314  -37.1391   25.8842 H   0  0  0  0  0  0
  -20.9349  -29.8768   21.6883 H   0  0  0  0  0  0
  -26.0175  -38.2856   24.1394 H   0  0  0  0  0  0
  -30.5155  -23.7973   18.7340 H   0  0  0  0  0  0
  -30.7985  -19.0850   22.0585 H   0  0  0  0  0  0
  -29.3640  -18.2089   22.4817 H   0  0  0  0  0  0
  -27.7111  -18.2442   19.4188 H   0  0  0  0  0  0
  -29.2411  -18.1330   18.6272 H   0  0  0  0  0  0
  -31.1229  -16.6035   22.3746 H   0  0  0  0  0  0
  -31.7350  -17.1435   20.8653 H   0  0  0  0  0  0
  -28.7400  -15.8970   19.0734 H   0  0  0  0  0  0
  -27.9699  -16.2067   20.6135 H   0  0  0  0  0  0
  -32.8173  -19.7702   19.4851 H   0  0  0  0  0  0
  -31.9778  -19.5316   17.9499 H   0  0  0  0  0  0
  -31.5607  -18.5502   19.3245 H   0  0  0  0  0  0
  -27.0180  -23.5517   20.0730 H   0  0  0  0  0  0
  -27.9169  -24.1492   18.7261 H   0  0  0  0  0  0
  -29.4997  -25.0584   20.7917 H   0  0  0  0  0  0
  -27.9757  -25.1629   21.5761 H   0  0  0  0  0  0
  1 25  1  0  0  0
  1 30  2  0  0  0
  1 85  1  0  0  0
  2  3  1  0  0  0
  2 25  1  0  0  0
  2 86  1  0  0  0
  2 87  1  0  0  0
  3  4  1  0  0  0
  3 88  1  0  0  0
  3 89  1  0  0  0
  4  5  1  0  0  0
  4 90  1  0  0  0
  4 91  1  0  0  0
  5  6  1  0  0  0
  5 26  1  0  0  0
  5 92  1  0  0  0
  6 25  1  0  0  0
  6 93  1  0  0  0
  6 94  1  0  0  0
  7  8  2  0  0  0
  7 26  1  0  0  0
  7 29  1  0  0  0
  8  9  1  0  0  0
  8 22  1  0  0  0
  9 10  1  0  0  0
  9 27  2  0  0  0
 10 11  2  0  0  0
 10 15  1  0  0  0
 11 12  1  0  0  0
 11 95  1  0  0  0
 12 13  2  0  0  0
 12 96  1  0  0  0
 13 14  1  0  0  0
 13 31  1  0  0  0
 14 15  2  0  0  0
 14 97  1  0  0  0
 15 98  1  0  0  0
 16 17  2  0  0  0
 16 21  1  0  0  0
 16 31  1  0  0  0
 17 18  1  0  0  0
 17 99  1  0  0  0
 18 19  2  0  0  0
 18100  1  0  0  0
 19 20  1  0  0  0
 19 24  1  0  0  0
 20 21  2  0  0  0
 20101  1  0  0  0
 21 23  1  0  0  0
 22 28  1  0  0  0
 22 32  2  0  0  0
 26 27  1  0  0  0
 28102  1  0  0  0
 28103  1  0  0  0
 29104  1  0  0  0
 29105  1  0  0  0
 33 34  1  0  0  0
 33 66  1  0  0  0
 33 70  2  0  0  0
 34 36  1  0  0  0
 34 59  1  0  0  0
 34106  1  0  0  0
 35 44  2  0  0  0
 35 45  1  0  0  0
 35 68  1  0  0  0
 36 56  1  0  0  0
 36107  1  0  0  0
 37 39  1  0  0  0
 37 47  1  0  0  0
 37 66  1  0  0  0
 37108  1  0  0  0
 38 43  2  0  0  0
 38 46  1  0  0  0
 38 47  1  0  0  0
 39 64  1  0  0  0
 39 67  2  0  0  0
 40 52  1  0  0  0
 40 53  2  0  0  0
 40 58  1  0  0  0
 41109  1  0  0  0
 41110  1  0  0  0
 41111  1  0  0  0
 41 48  1  0  0  0
 42 43  1  0  0  0
 42 66  1  0  0  0
 42112  1  0  0  0
 42113  1  0  0  0
 43 44  1  0  0  0
 44114  1  0  0  0
 45 46  2  0  0  0
 45115  1  0  0  0
 46116  1  0  0  0
 47117  1  0  0  0
 47118  1  0  0  0
 48 56  1  0  0  0
 48 65  1  0  0  0
 48119  1  0  0  0
 49 50  1  0  0  0
 49 53  1  0  0  0
 49 64  1  0  0  0
 49120  1  0  0  0
 50 51  1  0  0  0
 50121  1  0  0  0
 50122  1  0  0  0
 51 52  1  0  0  0
 51123  1  0  0  0
 51124  1  0  0  0
 52125  1  0  0  0
 52126  1  0  0  0
 53 54  1  0  0  0
 54 55  2  0  0  0
 54127  1  0  0  0
 55 57  1  0  0  0
 55128  1  0  0  0
 56 69  2  0  0  0
 57 58  2  0  0  0
 57129  1  0  0  0
 58130  1  0  0  0
 59 60  1  0  0  0
 59 61  1  0  0  0
 59 62  1  0  0  0
 60131  1  0  0  0
 60132  1  0  0  0
 60133  1  0  0  0
 61134  1  0  0  0
 61135  1  0  0  0
 61136  1  0  0  0
 62137  1  0  0  0
 62138  1  0  0  0
 62139  1  0  0  0
 63 65  1  0  0  0
 63140  1  0  0  0
 63141  1  0  0  0
 63142  1  0  0  0
 64143  1  0  0  0
 65144  1  0  0  0
 68 81  1  0  0  0
 71 72  2  0  0  0
 71 82  1  0  0  0
 71145  1  0  0  0
 72 80  1  0  0  0
 72 83  1  0  0  0
 73 74  1  0  0  0
 73 79  1  0  0  0
 73 82  2  0  0  0
 74 83  2  0  0  0
 74 84  1  0  0  0
 75 77  1  0  0  0
 75 84  1  0  0  0
 75146  1  0  0  0
 75147  1  0  0  0
 76 78  1  0  0  0
 76 84  1  0  0  0
 76148  1  0  0  0
 76149  1  0  0  0
 77 85  1  0  0  0
 77150  1  0  0  0
 77151  1  0  0  0
 78 85  1  0  0  0
 78152  1  0  0  0
 78153  1  0  0  0
 79154  1  0  0  0
 79155  1  0  0  0
 79156  1  0  0  0
 80 81  1  0  0  0
 80157  1  0  0  0
 80158  1  0  0  0
 81159  1  0  0  0
 81160  1  0  0  0
M  ISO  4   1 100  68 101  81 101  85 100
M  END
> <chiral flag>
0

> <version>
0

> <s_m_source_file>
/data/baiqing/PycharmProjects/Reinvent-master-3.2/result/LINK_invent/BTK/process_docking_weight1_custom_sum_contain_oxygen_bond_distance_aromatic_linkinvent_7_9_3/rearranged_h_0181.sdf

> <i_m_source_file_index>
44

> <r_mmod_Potential_Energy-OPLS-2005>
370.525909423828

> <r_mmod_Stretch_Energy-OPLS-2005>
100.059730529785

> <r_mmod_Bend_Energy-OPLS-2005>
194.451675415039

> <r_mmod_Torsional_Energy-OPLS-2005>
399.766418457031

> <r_mmod_Improper_Torsional_Energy-OPLS-2005>
6.14896202087402

> <r_mmod_Van_der_Waal_Energy-OPLS-2005>
148.180419921875

> <r_mmod_Electrostatic_Energy-OPLS-2005>
-307.781188964844

> <r_mmod_Solvation_Energy-OPLS-2005>
-231.806488037109

> <b_mmod_Minimization_Converged-OPLS-2005>
0

> <r_mmod_RMS_Derivative-OPLS-2005>
6.3206992149353

$$$$
44
                    3D
 Structure written by MMmdl.
146155  0  0  1  0            999 V2000
  -30.3734  -15.6023   20.3398 C   0  0  0  0  0  0
  -30.4083  -13.0663   19.5278 C   0  0  0  0  0  0
  -29.5367  -12.6435   18.3146 C   0  0  0  0  0  0
  -28.1129  -12.2943   18.7665 C   0  0  0  0  0  0
  -27.5900  -13.3092   19.8086 C   0  0  2  0  0  0
  -28.6084  -13.6602   20.9202 C   0  0  0  0  0  0
  -25.2309  -13.8296   20.5820 C   0  0  0  0  0  0
  -24.1699  -13.0441   20.9303 C   0  0  0  0  0  0
  -24.6402  -11.6952   20.8777 C   0  0  0  0  0  0
  -23.9110  -10.4295   21.0403 C   0  0  0  0  0  0
  -24.3650   -9.4207   21.9181 C   0  0  0  0  0  0
  -23.6313   -8.2246   22.0753 C   0  0  0  0  0  0
  -22.4293   -8.0286   21.3544 C   0  0  0  0  0  0
  -21.9939   -9.0262   20.4643 C   0  0  0  0  0  0
  -22.7279  -10.2135   20.3052 C   0  0  0  0  0  0
  -21.6859   -6.0741   22.5279 C   0  0  0  0  0  0
  -21.4018   -6.5643   23.8213 C   0  0  0  0  0  0
  -21.3660   -5.6794   24.9174 C   0  0  0  0  0  0
  -21.6044   -4.3057   24.7224 C   0  0  0  0  0  0
  -21.8818   -3.8150   23.4344 C   0  0  0  0  0  0
  -21.9194   -4.6968   22.3401 C   0  0  0  0  0  0
  -22.7711  -13.5169   21.1928 C   0  0  0  0  0  0
  -22.1662   -4.2153   21.0979 F   0  0  0  0  0  0
  -21.5627   -3.4540   25.7736 F   0  0  0  0  0  0
  -29.7793  -14.2693   20.2467 N   0  0  0  0  0  0
  -26.2749  -12.9627   20.3254 N   0  0  0  0  0  0
  -25.9347  -11.6698   20.5719 N   0  0  0  0  0  0
  -22.0376  -12.8141   22.0475 N   0  0  0  0  0  0
  -25.3925  -15.2036   20.4268 N   0  0  0  0  0  0
  -31.6056  -15.4497   20.2138 O   0  0  0  0  0  0
  -21.6649   -6.8888   21.4242 O   0  0  0  0  0  0
  -22.3390  -14.5467   20.6762 O   0  0  0  0  0  0
  -24.6834  -31.8007   23.1526 C   0  0  0  0  0  0
  -25.9418  -32.4471   23.8068 C   0  0  1  0  0  0
  -27.2204  -26.7095   20.2114 C   0  0  0  0  0  0
  -25.5999  -33.8296   24.1954 N   0  0  0  0  0  0
  -23.5088  -30.4038   21.5064 C   0  0  2  0  0  0
  -24.9656  -28.7479   20.1165 C   0  0  0  0  0  0
  -22.7765  -29.4320   22.4711 C   0  0  0  0  0  0
  -18.0338  -28.1421   22.8455 C   0  0  0  0  0  0
  -24.1495  -36.7153   23.2652 C   0  0  0  0  0  0
  -26.0895  -30.5356   21.4165 C   0  0  0  0  0  0
  -26.1546  -29.1018   20.7653 C   0  0  0  0  0  0
  -27.2682  -28.1099   20.7814 C   0  0  0  0  0  0
  -26.0007  -26.5659   19.5029 C   0  0  0  0  0  0
  -24.9274  -27.5055   19.4615 C   0  0  0  0  0  0
  -23.7621  -29.7028   20.1408 C   0  0  0  0  0  0
  -25.4145  -36.2897   24.0282 C   0  0  1  0  0  0
  -20.5974  -28.3781   23.1142 C   0  0  2  0  0  0
  -20.6804  -26.9440   22.5403 C   0  0  0  0  0  0
  -19.5780  -26.6372   21.5216 C   0  0  0  0  0  0
  -18.1963  -26.7949   22.1620 C   0  0  0  0  0  0
  -19.1605  -28.8926   23.2780 C   0  0  0  0  0  0
  -18.9510  -30.1509   23.8825 C   0  0  0  0  0  0
  -17.6500  -30.6604   24.0550 C   0  0  0  0  0  0
  -25.9126  -34.9287   23.4954 C   0  0  0  0  0  0
  -16.5390  -29.9086   23.6350 C   0  0  0  0  0  0
  -16.7318  -28.6508   23.0367 C   0  0  0  0  0  0
  -26.4597  -31.6504   25.0688 C   0  0  0  0  0  0
  -25.3664  -31.3819   26.1303 C   0  0  0  0  0  0
  -27.0531  -30.2843   24.6586 C   0  0  0  0  0  0
  -27.6045  -32.4365   25.7507 C   0  0  0  0  0  0
  -27.5563  -37.1734   24.8466 C   0  0  0  0  0  0
  -21.4412  -29.3029   22.3462 N   0  0  0  0  0  0
  -26.4271  -37.3658   23.9408 N   0  0  0  0  0  0
  -24.7840  -30.9461   22.0776 N   0  0  0  0  0  0
  -23.4212  -28.7917   23.3050 O   0  0  0  0  0  0
  -28.1670  -25.4812   20.2942 O   0  0  0  0  0  0
  -26.5764  -34.8863   22.4570 O   0  0  0  0  0  0
  -23.5855  -32.1077   23.6485 O   0  0  0  0  0  0
  -29.8675  -21.3271   20.1151 C   0  0  0  0  0  0
  -28.6051  -22.0561   20.2509 C   0  0  0  0  0  0
  -28.5576  -19.5281   20.4022 C   0  0  0  0  0  0
  -28.4361  -17.8691   20.4956 C   0  0  0  0  0  0
  -30.6085  -18.4454   20.1647 C   0  0  0  0  0  0
  -27.8542  -23.7692   20.0976 C   0  0  0  0  0  0
  -29.7864  -19.8470   20.2129 N   0  0  0  0  0  0
  -27.8607  -20.7840   20.4274 N   0  3  0  0  0  0
  -29.8036  -17.0622   20.3277 N   0  0  0  0  0  0
  -31.4065  -13.3009   19.1565 H   0  0  0  0  0  0
  -30.5547  -12.2278   20.2110 H   0  0  0  0  0  0
  -29.9866  -11.7968   17.7944 H   0  0  0  0  0  0
  -29.4998  -13.4631   17.5955 H   0  0  0  0  0  0
  -28.1407  -11.2989   19.2114 H   0  0  0  0  0  0
  -27.4396  -12.2317   17.9107 H   0  0  0  0  0  0
  -27.4465  -14.2247   19.2326 H   0  0  0  0  0  0
  -28.8684  -12.7898   21.5247 H   0  0  0  0  0  0
  -28.1775  -14.3928   21.6044 H   0  0  0  0  0  0
  -25.2788   -9.5682   22.4767 H   0  0  0  0  0  0
  -24.0015   -7.4638   22.7477 H   0  0  0  0  0  0
  -21.0869   -8.8788   19.8949 H   0  0  0  0  0  0
  -22.3737  -10.9677   19.6165 H   0  0  0  0  0  0
  -21.2013   -7.6151   23.9717 H   0  0  0  0  0  0
  -21.1482   -6.0524   25.9077 H   0  0  0  0  0  0
  -22.0596   -2.7612   23.2844 H   0  0  0  0  0  0
  -22.4019  -11.9817   22.4869 H   0  0  0  0  0  0
  -21.0978  -13.1129   22.2668 H   0  0  0  0  0  0
  -24.6204  -15.8521   20.5370 H   0  0  0  0  0  0
  -26.2351  -15.6417   20.0810 H   0  0  0  0  0  0
  -26.7500  -32.4945   23.0780 H   0  0  0  0  0  0
  -25.0060  -33.9336   25.0049 H   0  0  0  0  0  0
  -22.8338  -31.2412   21.3179 H   0  0  0  0  0  0
  -23.3776  -35.9463   23.3264 H   0  0  0  0  0  0
  -24.3563  -36.8866   22.2077 H   0  0  0  0  0  0
  -23.7235  -37.6311   23.6761 H   0  0  0  0  0  0
  -26.2930  -31.2617   20.6283 H   0  0  0  0  0  0
  -26.9402  -30.6018   22.0822 H   0  0  0  0  0  0
  -28.1611  -28.3847   21.3249 H   0  0  0  0  0  0
  -25.8311  -25.6258   18.9982 H   0  0  0  0  0  0
  -24.0302  -27.2265   18.9260 H   0  0  0  0  0  0
  -23.9371  -30.4638   19.3795 H   0  0  0  0  0  0
  -22.8668  -29.1697   19.8163 H   0  0  0  0  0  0
  -25.1355  -36.1660   25.0772 H   0  0  0  0  0  0
  -21.0057  -28.3406   24.1268 H   0  0  0  0  0  0
  -20.5666  -26.2406   23.3665 H   0  0  0  0  0  0
  -21.6666  -26.7382   22.1222 H   0  0  0  0  0  0
  -19.6935  -25.6263   21.1292 H   0  0  0  0  0  0
  -19.6722  -27.3142   20.6714 H   0  0  0  0  0  0
  -17.4232  -26.6691   21.4024 H   0  0  0  0  0  0
  -18.0351  -26.0109   22.9033 H   0  0  0  0  0  0
  -19.7985  -30.7345   24.2163 H   0  0  0  0  0  0
  -17.5050  -31.6276   24.5167 H   0  0  0  0  0  0
  -15.5387  -30.2964   23.7716 H   0  0  0  0  0  0
  -15.8719  -28.0802   22.7124 H   0  0  0  0  0  0
  -24.5872  -30.7145   25.7603 H   0  0  0  0  0  0
  -24.8829  -32.3041   26.4535 H   0  0  0  0  0  0
  -25.7842  -30.9109   27.0210 H   0  0  0  0  0  0
  -26.3249  -29.6455   24.1578 H   0  0  0  0  0  0
  -27.3959  -29.7290   25.5328 H   0  0  0  0  0  0
  -27.9230  -30.3970   24.0113 H   0  0  0  0  0  0
  -27.2582  -33.3733   26.1885 H   0  0  0  0  0  0
  -28.3959  -32.6820   25.0413 H   0  0  0  0  0  0
  -28.0600  -31.8630   26.5591 H   0  0  0  0  0  0
  -28.2548  -38.0059   24.7516 H   0  0  0  0  0  0
  -28.1092  -36.2582   24.6292 H   0  0  0  0  0  0
  -27.2278  -37.1367   25.8868 H   0  0  0  0  0  0
  -20.9714  -29.8690   21.6534 H   0  0  0  0  0  0
  -26.0098  -38.2705   24.1422 H   0  0  0  0  0  0
  -30.8342  -21.7718   19.9263 H   0  0  0  0  0  0
  -27.7331  -17.5618   19.7219 H   0  0  0  0  0  0
  -27.9896  -17.6384   21.4628 H   0  0  0  0  0  0
  -31.3680  -18.4948   20.9453 H   0  0  0  0  0  0
  -31.1427  -18.4217   19.2147 H   0  0  0  0  0  0
  -26.9470  -23.6718   20.6935 H   0  0  0  0  0  0
  -27.4780  -23.7568   19.0750 H   0  0  0  0  0  0
  -26.8549  -20.7998   20.5447 H   0  0  0  0  0  0
  1 25  1  0  0  0
  1 30  2  0  0  0
  1 79  1  0  0  0
  2  3  1  0  0  0
  2 25  1  0  0  0
  2 80  1  0  0  0
  2 81  1  0  0  0
  3  4  1  0  0  0
  3 82  1  0  0  0
  3 83  1  0  0  0
  4  5  1  0  0  0
  4 84  1  0  0  0
  4 85  1  0  0  0
  5  6  1  0  0  0
  5 26  1  0  0  0
  5 86  1  0  0  0
  6 25  1  0  0  0
  6 87  1  0  0  0
  6 88  1  0  0  0
  7  8  2  0  0  0
  7 26  1  0  0  0
  7 29  1  0  0  0
  8  9  1  0  0  0
  8 22  1  0  0  0
  9 10  1  0  0  0
  9 27  2  0  0  0
 10 11  2  0  0  0
 10 15  1  0  0  0
 11 12  1  0  0  0
 11 89  1  0  0  0
 12 13  2  0  0  0
 12 90  1  0  0  0
 13 14  1  0  0  0
 13 31  1  0  0  0
 14 15  2  0  0  0
 14 91  1  0  0  0
 15 92  1  0  0  0
 16 17  2  0  0  0
 16 21  1  0  0  0
 16 31  1  0  0  0
 17 18  1  0  0  0
 17 93  1  0  0  0
 18 19  2  0  0  0
 18 94  1  0  0  0
 19 20  1  0  0  0
 19 24  1  0  0  0
 20 21  2  0  0  0
 20 95  1  0  0  0
 21 23  1  0  0  0
 22 28  1  0  0  0
 22 32  2  0  0  0
 26 27  1  0  0  0
 28 96  1  0  0  0
 28 97  1  0  0  0
 29 98  1  0  0  0
 29 99  1  0  0  0
 33 34  1  0  0  0
 33 66  1  0  0  0
 33 70  2  0  0  0
 34 36  1  0  0  0
 34 59  1  0  0  0
 34100  1  0  0  0
 35 44  2  0  0  0
 35 45  1  0  0  0
 35 68  1  0  0  0
 36 56  1  0  0  0
 36101  1  0  0  0
 37 39  1  0  0  0
 37 47  1  0  0  0
 37 66  1  0  0  0
 37102  1  0  0  0
 38 43  2  0  0  0
 38 46  1  0  0  0
 38 47  1  0  0  0
 39 64  1  0  0  0
 39 67  2  0  0  0
 40 52  1  0  0  0
 40 53  2  0  0  0
 40 58  1  0  0  0
 41103  1  0  0  0
 41104  1  0  0  0
 41105  1  0  0  0
 41 48  1  0  0  0
 42 43  1  0  0  0
 42 66  1  0  0  0
 42106  1  0  0  0
 42107  1  0  0  0
 43 44  1  0  0  0
 44108  1  0  0  0
 45 46  2  0  0  0
 45109  1  0  0  0
 46110  1  0  0  0
 47111  1  0  0  0
 47112  1  0  0  0
 48 56  1  0  0  0
 48 65  1  0  0  0
 48113  1  0  0  0
 49 50  1  0  0  0
 49 53  1  0  0  0
 49 64  1  0  0  0
 49114  1  0  0  0
 50 51  1  0  0  0
 50115  1  0  0  0
 50116  1  0  0  0
 51 52  1  0  0  0
 51117  1  0  0  0
 51118  1  0  0  0
 52119  1  0  0  0
 52120  1  0  0  0
 53 54  1  0  0  0
 54 55  2  0  0  0
 54121  1  0  0  0
 55 57  1  0  0  0
 55122  1  0  0  0
 56 69  2  0  0  0
 57 58  2  0  0  0
 57123  1  0  0  0
 58124  1  0  0  0
 59 60  1  0  0  0
 59 61  1  0  0  0
 59 62  1  0  0  0
 60125  1  0  0  0
 60126  1  0  0  0
 60127  1  0  0  0
 61128  1  0  0  0
 61129  1  0  0  0
 61130  1  0  0  0
 62131  1  0  0  0
 62132  1  0  0  0
 62133  1  0  0  0
 63 65  1  0  0  0
 63134  1  0  0  0
 63135  1  0  0  0
 63136  1  0  0  0
 64137  1  0  0  0
 65138  1  0  0  0
 68 76  1  0  0  0
 71 72  2  0  0  0
 71 77  1  0  0  0
 71139  1  0  0  0
 72 76  1  0  0  0
 72 78  1  0  0  0
 73 74  1  0  0  0
 73 77  1  0  0  0
 73 78  2  0  0  0
 74 79  1  0  0  0
 74140  1  0  0  0
 74141  1  0  0  0
 75 77  1  0  0  0
 75 79  1  0  0  0
 75142  1  0  0  0
 75143  1  0  0  0
 76144  1  0  0  0
 76145  1  0  0  0
 78146  1  0  0  0
M  CHG  1  78   1
M  ISO  4   1 100  68 101  76 101  79 100
M  END
> <chiral flag>
0

> <version>
0

> <s_m_source_file>
/data/baiqing/PycharmProjects/Reinvent-master-3.2/result/LINK_invent/BTK/process_docking_weight1_custom_sum_contain_oxygen_bond_distance_aromatic_linkinvent_7_9_3/rearranged_h_0181.sdf

> <i_m_source_file_index>
45

> <r_mmod_Potential_Energy-OPLS-2005>
2086.54809570312

> <r_mmod_Stretch_Energy-OPLS-2005>
890.671936035156

> <r_mmod_Bend_Energy-OPLS-2005>
662.24072265625

> <r_mmod_Torsional_Energy-OPLS-2005>
259.259216308594

> <r_mmod_Improper_Torsional_Energy-OPLS-2005>
6.2447714805603

> <r_mmod_Van_der_Waal_Energy-OPLS-2005>
104.475852966309

> <r_mmod_Electrostatic_Energy-OPLS-2005>
-247.347885131836

> <r_mmod_Solvation_Energy-OPLS-2005>
-452.603515625

> <b_mmod_Minimization_Converged-OPLS-2005>
0

> <r_mmod_RMS_Derivative-OPLS-2005>
0.0750017538666725

$$$$
45
                    3D
 Structure written by MMmdl.
152161  0  0  1  0            999 V2000
  -30.4600  -15.2185   20.3755 C   0  0  0  0  0  0
  -30.4362  -12.7765   19.5195 C   0  0  0  0  0  0
  -29.5311  -12.5665   18.2806 C   0  0  0  0  0  0
  -28.0767  -12.3021   18.7078 C   0  0  0  0  0  0
  -27.6119  -13.2723   19.8228 C   0  0  2  0  0  0
  -28.6476  -13.4311   20.9557 C   0  0  0  0  0  0
  -25.2392  -13.8245   20.5746 C   0  0  0  0  0  0
  -24.1741  -13.0438   20.9261 C   0  0  0  0  0  0
  -24.6391  -11.6934   20.8763 C   0  0  0  0  0  0
  -23.9086  -10.4292   21.0404 C   0  0  0  0  0  0
  -24.3631   -9.4206   21.9182 C   0  0  0  0  0  0
  -23.6302   -8.2243   22.0751 C   0  0  0  0  0  0
  -22.4286   -8.0279   21.3542 C   0  0  0  0  0  0
  -21.9924   -9.0252   20.4643 C   0  0  0  0  0  0
  -22.7255  -10.2131   20.3054 C   0  0  0  0  0  0
  -21.6855   -6.0736   22.5276 C   0  0  0  0  0  0
  -21.4015   -6.5640   23.8210 C   0  0  0  0  0  0
  -21.3660   -5.6793   24.9172 C   0  0  0  0  0  0
  -21.6047   -4.3056   24.7222 C   0  0  0  0  0  0
  -21.8818   -3.8147   23.4344 C   0  0  0  0  0  0
  -21.9194   -4.6964   22.3400 C   0  0  0  0  0  0
  -22.7759  -13.5190   21.1906 C   0  0  0  0  0  0
  -22.1663   -4.2149   21.0979 F   0  0  0  0  0  0
  -21.5629   -3.4539   25.7736 F   0  0  0  0  0  0
  -29.8840  -13.9220   20.3279 N   0  0  0  0  0  0
  -26.2813  -12.9515   20.3217 N   0  0  0  0  0  0
  -25.9326  -11.6622   20.5722 N   0  0  0  0  0  0
  -22.0421  -12.8167   22.0460 N   0  0  0  0  0  0
  -25.4026  -15.1977   20.4168 N   0  0  0  0  0  0
  -31.6820  -15.2152   20.1741 O   0  0  0  0  0  0
  -21.6645   -6.8879   21.4239 O   0  0  0  0  0  0
  -22.3437  -14.5490   20.6745 O   0  0  0  0  0  0
  -24.6612  -31.8263   23.1733 C   0  0  0  0  0  0
  -25.9306  -32.4600   23.8185 C   0  0  1  0  0  0
  -27.2151  -26.9525   20.1763 C   0  0  0  0  0  0
  -25.5987  -33.8414   24.2094 N   0  0  0  0  0  0
  -23.4745  -30.4401   21.5218 C   0  0  2  0  0  0
  -24.9278  -28.8355   20.1103 C   0  0  0  0  0  0
  -22.7657  -29.4458   22.4782 C   0  0  0  0  0  0
  -18.0322  -28.1410   22.8473 C   0  0  0  0  0  0
  -24.1490  -36.7201   23.2648 C   0  0  0  0  0  0
  -26.0433  -30.6406   21.4013 C   0  0  0  0  0  0
  -26.1117  -29.2340   20.7437 C   0  0  0  0  0  0
  -27.2515  -28.3129   20.7541 C   0  0  0  0  0  0
  -26.0037  -26.7067   19.4901 C   0  0  0  0  0  0
  -24.8978  -27.5917   19.4633 C   0  0  0  0  0  0
  -23.7131  -29.7602   20.1466 C   0  0  0  0  0  0
  -25.4132  -36.2970   24.0303 C   0  0  1  0  0  0
  -20.5947  -28.3754   23.1191 C   0  0  2  0  0  0
  -20.6797  -26.9436   22.5402 C   0  0  0  0  0  0
  -19.5767  -26.6385   21.5214 C   0  0  0  0  0  0
  -18.1953  -26.7944   22.1631 C   0  0  0  0  0  0
  -19.1585  -28.8902   23.2820 C   0  0  0  0  0  0
  -18.9496  -30.1493   23.8854 C   0  0  0  0  0  0
  -17.6488  -30.6601   24.0558 C   0  0  0  0  0  0
  -25.9100  -34.9353   23.5015 C   0  0  0  0  0  0
  -16.5378  -29.9089   23.6348 C   0  0  0  0  0  0
  -16.7306  -28.6508   23.0369 C   0  0  0  0  0  0
  -26.4563  -31.6535   25.0703 C   0  0  0  0  0  0
  -25.3700  -31.3785   26.1368 C   0  0  0  0  0  0
  -27.0455  -30.2903   24.6425 C   0  0  0  0  0  0
  -27.6060  -32.4338   25.7503 C   0  0  0  0  0  0
  -27.5565  -37.1759   24.8470 C   0  0  0  0  0  0
  -21.4328  -29.3045   22.3534 N   0  0  0  0  0  0
  -26.4274  -37.3707   23.9412 N   0  0  0  0  0  0
  -24.7473  -30.9952   22.0857 N   0  0  0  0  0  0
  -23.4214  -28.8029   23.3019 O   0  0  0  0  0  0
  -28.2008  -25.8395   20.2641 O   0  0  0  0  0  0
  -26.5702  -34.8884   22.4608 O   0  0  0  0  0  0
  -23.5687  -32.1226   23.6840 O   0  0  0  0  0  0
  -29.3782  -21.9533   19.2667 C   0  0  0  0  0  0
  -28.5750  -20.4070   21.2845 C   0  0  0  0  0  0
  -28.5987  -22.7083   20.2407 C   0  0  0  0  0  0
  -29.3708  -19.6641   20.3049 C   0  0  0  0  0  0
  -27.3003  -18.4206   22.4239 C   0  0  0  0  0  0
  -26.6167  -19.6868   22.8699 C   0  0  0  0  0  0
  -28.0893  -19.7102   22.5189 C   0  0  0  0  0  0
  -30.1305  -18.0916   20.4055 C   0  0  0  0  0  0
  -27.8307  -24.2636   20.0233 C   0  0  0  0  0  0
  -29.7474  -20.5747   19.3104 N   0  0  0  0  0  0
  -28.2146  -21.7943   21.2354 N   0  0  0  0  0  0
  -29.7133  -16.4904   20.4459 N   0  0  0  0  0  0
  -31.4576  -12.9718   19.1903 H   0  0  0  0  0  0
  -30.4911  -11.8668   20.1197 H   0  0  0  0  0  0
  -29.9009  -11.7392   17.6733 H   0  0  0  0  0  0
  -29.5705  -13.4543   17.6477 H   0  0  0  0  0  0
  -28.0227  -11.2751   19.0710 H   0  0  0  0  0  0
  -27.4087  -12.3580   17.8472 H   0  0  0  0  0  0
  -27.5319  -14.2435   19.3328 H   0  0  0  0  0  0
  -28.8048  -12.4926   21.4893 H   0  0  0  0  0  0
  -28.2964  -14.1548   21.6931 H   0  0  0  0  0  0
  -25.2769   -9.5685   22.4765 H   0  0  0  0  0  0
  -24.0008   -7.4634   22.7473 H   0  0  0  0  0  0
  -21.0856   -8.8770   19.8948 H   0  0  0  0  0  0
  -22.3706  -10.9670   19.6169 H   0  0  0  0  0  0
  -21.2007   -7.6148   23.9711 H   0  0  0  0  0  0
  -21.1485   -6.0525   25.9075 H   0  0  0  0  0  0
  -22.0598   -2.7610   23.2842 H   0  0  0  0  0  0
  -22.4058  -11.9837   22.4846 H   0  0  0  0  0  0
  -21.1032  -13.1166   22.2668 H   0  0  0  0  0  0
  -24.6290  -15.8446   20.5239 H   0  0  0  0  0  0
  -26.2363  -15.6353   20.0491 H   0  0  0  0  0  0
  -26.7376  -32.5141   23.0901 H   0  0  0  0  0  0
  -25.0090  -33.9493   25.0214 H   0  0  0  0  0  0
  -22.7867  -31.2716   21.3538 H   0  0  0  0  0  0
  -23.3764  -35.9518   23.3284 H   0  0  0  0  0  0
  -24.3572  -36.8869   22.2068 H   0  0  0  0  0  0
  -23.7230  -37.6378   23.6713 H   0  0  0  0  0  0
  -26.2236  -31.3842   20.6238 H   0  0  0  0  0  0
  -26.9034  -30.6947   22.0566 H   0  0  0  0  0  0
  -28.1455  -28.6142   21.2819 H   0  0  0  0  0  0
  -25.8659  -25.7599   18.9904 H   0  0  0  0  0  0
  -23.9989  -27.2813   18.9483 H   0  0  0  0  0  0
  -23.8670  -30.5301   19.3897 H   0  0  0  0  0  0
  -22.8229  -29.2142   19.8291 H   0  0  0  0  0  0
  -25.1328  -36.1768   25.0793 H   0  0  0  0  0  0
  -21.0040  -28.3360   24.1311 H   0  0  0  0  0  0
  -20.5678  -26.2373   23.3643 H   0  0  0  0  0  0
  -21.6661  -26.7414   22.1207 H   0  0  0  0  0  0
  -19.6925  -25.6287   21.1271 H   0  0  0  0  0  0
  -19.6701  -27.3171   20.6721 H   0  0  0  0  0  0
  -17.4220  -26.6687   21.4037 H   0  0  0  0  0  0
  -18.0351  -26.0096   22.9039 H   0  0  0  0  0  0
  -19.7970  -30.7323   24.2201 H   0  0  0  0  0  0
  -17.5042  -31.6276   24.5169 H   0  0  0  0  0  0
  -15.5377  -30.2980   23.7692 H   0  0  0  0  0  0
  -15.8706  -28.0811   22.7113 H   0  0  0  0  0  0
  -24.5879  -30.7138   25.7682 H   0  0  0  0  0  0
  -24.8898  -32.2989   26.4696 H   0  0  0  0  0  0
  -25.7945  -30.9015   27.0211 H   0  0  0  0  0  0
  -26.3119  -29.6585   24.1407 H   0  0  0  0  0  0
  -27.3963  -29.7262   25.5077 H   0  0  0  0  0  0
  -27.9072  -30.4084   23.9853 H   0  0  0  0  0  0
  -27.2638  -33.3693   26.1939 H   0  0  0  0  0  0
  -28.3947  -32.6808   25.0385 H   0  0  0  0  0  0
  -28.0636  -31.8554   26.5537 H   0  0  0  0  0  0
  -28.2570  -38.0066   24.7517 H   0  0  0  0  0  0
  -28.1072  -36.2594   24.6298 H   0  0  0  0  0  0
  -27.2284  -37.1403   25.8873 H   0  0  0  0  0  0
  -20.9575  -29.8735   21.6666 H   0  0  0  0  0  0
  -26.0121  -38.2764   24.1427 H   0  0  0  0  0  0
  -29.6901  -22.4649   18.3681 H   0  0  0  0  0  0
  -27.0434  -18.0438   21.4359 H   0  0  0  0  0  0
  -27.4710  -17.6615   23.1845 H   0  0  0  0  0  0
  -26.3442  -19.7559   23.9209 H   0  0  0  0  0  0
  -25.9212  -20.1529   22.1742 H   0  0  0  0  0  0
  -28.8069  -19.8057   23.3317 H   0  0  0  0  0  0
  -30.7533  -18.1946   21.2942 H   0  0  0  0  0  0
  -30.8523  -18.1217   19.5892 H   0  0  0  0  0  0
  -26.8840  -24.1404   20.5496 H   0  0  0  0  0  0
  -27.5556  -24.2330   18.9692 H   0  0  0  0  0  0
  -28.7196  -16.3482   20.5426 H   0  0  0  0  0  0
  1 25  1  0  0  0
  1 30  2  0  0  0
  1 82  1  0  0  0
  2  3  1  0  0  0
  2 25  1  0  0  0
  2 83  1  0  0  0
  2 84  1  0  0  0
  3  4  1  0  0  0
  3 85  1  0  0  0
  3 86  1  0  0  0
  4  5  1  0  0  0
  4 87  1  0  0  0
  4 88  1  0  0  0
  5  6  1  0  0  0
  5 26  1  0  0  0
  5 89  1  0  0  0
  6 25  1  0  0  0
  6 90  1  0  0  0
  6 91  1  0  0  0
  7  8  2  0  0  0
  7 26  1  0  0  0
  7 29  1  0  0  0
  8  9  1  0  0  0
  8 22  1  0  0  0
  9 10  1  0  0  0
  9 27  2  0  0  0
 10 11  2  0  0  0
 10 15  1  0  0  0
 11 12  1  0  0  0
 11 92  1  0  0  0
 12 13  2  0  0  0
 12 93  1  0  0  0
 13 14  1  0  0  0
 13 31  1  0  0  0
 14 15  2  0  0  0
 14 94  1  0  0  0
 15 95  1  0  0  0
 16 17  2  0  0  0
 16 21  1  0  0  0
 16 31  1  0  0  0
 17 18  1  0  0  0
 17 96  1  0  0  0
 18 19  2  0  0  0
 18 97  1  0  0  0
 19 20  1  0  0  0
 19 24  1  0  0  0
 20 21  2  0  0  0
 20 98  1  0  0  0
 21 23  1  0  0  0
 22 28  1  0  0  0
 22 32  2  0  0  0
 26 27  1  0  0  0
 28 99  1  0  0  0
 28100  1  0  0  0
 29101  1  0  0  0
 29102  1  0  0  0
 33 34  1  0  0  0
 33 66  1  0  0  0
 33 70  2  0  0  0
 34 36  1  0  0  0
 34 59  1  0  0  0
 34103  1  0  0  0
 35 44  2  0  0  0
 35 45  1  0  0  0
 35 68  1  0  0  0
 36 56  1  0  0  0
 36104  1  0  0  0
 37 39  1  0  0  0
 37 47  1  0  0  0
 37 66  1  0  0  0
 37105  1  0  0  0
 38 43  2  0  0  0
 38 46  1  0  0  0
 38 47  1  0  0  0
 39 64  1  0  0  0
 39 67  2  0  0  0
 40 52  1  0  0  0
 40 53  2  0  0  0
 40 58  1  0  0  0
 41106  1  0  0  0
 41107  1  0  0  0
 41108  1  0  0  0
 41 48  1  0  0  0
 42 43  1  0  0  0
 42 66  1  0  0  0
 42109  1  0  0  0
 42110  1  0  0  0
 43 44  1  0  0  0
 44111  1  0  0  0
 45 46  2  0  0  0
 45112  1  0  0  0
 46113  1  0  0  0
 47114  1  0  0  0
 47115  1  0  0  0
 48 56  1  0  0  0
 48 65  1  0  0  0
 48116  1  0  0  0
 49 50  1  0  0  0
 49 53  1  0  0  0
 49 64  1  0  0  0
 49117  1  0  0  0
 50 51  1  0  0  0
 50118  1  0  0  0
 50119  1  0  0  0
 51 52  1  0  0  0
 51120  1  0  0  0
 51121  1  0  0  0
 52122  1  0  0  0
 52123  1  0  0  0
 53 54  1  0  0  0
 54 55  2  0  0  0
 54124  1  0  0  0
 55 57  1  0  0  0
 55125  1  0  0  0
 56 69  2  0  0  0
 57 58  2  0  0  0
 57126  1  0  0  0
 58127  1  0  0  0
 59 60  1  0  0  0
 59 61  1  0  0  0
 59 62  1  0  0  0
 60128  1  0  0  0
 60129  1  0  0  0
 60130  1  0  0  0
 61131  1  0  0  0
 61132  1  0  0  0
 61133  1  0  0  0
 62134  1  0  0  0
 62135  1  0  0  0
 62136  1  0  0  0
 63 65  1  0  0  0
 63137  1  0  0  0
 63138  1  0  0  0
 63139  1  0  0  0
 64140  1  0  0  0
 65141  1  0  0  0
 68 79  1  0  0  0
 71 73  2  0  0  0
 71 80  1  0  0  0
 71142  1  0  0  0
 72 74  1  0  0  0
 72 81  2  0  0  0
 72 77  1  0  0  0
 73 79  1  0  0  0
 73 81  1  0  0  0
 74 78  1  0  0  0
 74 80  2  0  0  0
 75 76  1  0  0  0
 75 77  1  0  0  0
 75143  1  0  0  0
 75144  1  0  0  0
 76 77  1  0  0  0
 76145  1  0  0  0
 76146  1  0  0  0
 77147  1  0  0  0
 78 82  1  0  0  0
 78148  1  0  0  0
 78149  1  0  0  0
 79150  1  0  0  0
 79151  1  0  0  0
 82152  1  0  0  0
M  ISO  4   1 100  68 101  79 101  82 100
M  END
> <chiral flag>
0

> <version>
0

> <s_m_source_file>
/data/baiqing/PycharmProjects/Reinvent-master-3.2/result/LINK_invent/BTK/process_docking_weight1_custom_sum_contain_oxygen_bond_distance_aromatic_linkinvent_7_9_3/rearranged_h_0181.sdf

> <i_m_source_file_index>
46

> <r_mmod_Potential_Energy-OPLS-2005>
1165.95336914062

> <r_mmod_Stretch_Energy-OPLS-2005>
490.874877929688

> <r_mmod_Bend_Energy-OPLS-2005>
431.161926269531

> <r_mmod_Torsional_Energy-OPLS-2005>
243.745712280273

> <r_mmod_Improper_Torsional_Energy-OPLS-2005>
8.83576965332031

> <r_mmod_Van_der_Waal_Energy-OPLS-2005>
125.702522277832

> <r_mmod_Electrostatic_Energy-OPLS-2005>
-319.763641357422

> <r_mmod_Solvation_Energy-OPLS-2005>
-234.463043212891

> <b_mmod_Minimization_Converged-OPLS-2005>
0

> <r_mmod_RMS_Derivative-OPLS-2005>
0.538797616958618

$$$$
46
                    3D
 Structure written by MMmdl.
155164  0  0  1  0            999 V2000
  -30.4893  -15.1422   20.3864 C   0  0  0  0  0  0
  -30.4357  -12.7232   19.5137 C   0  0  0  0  0  0
  -29.5280  -12.5529   18.2729 C   0  0  0  0  0  0
  -28.0700  -12.3050   18.6984 C   0  0  0  0  0  0
  -27.6159  -13.2682   19.8257 C   0  0  2  0  0  0
  -28.6536  -13.3971   20.9593 C   0  0  0  0  0  0
  -25.2420  -13.8252   20.5756 C   0  0  0  0  0  0
  -24.1752  -13.0444   20.9242 C   0  0  0  0  0  0
  -24.6395  -11.6938   20.8752 C   0  0  0  0  0  0
  -23.9090  -10.4298   21.0402 C   0  0  0  0  0  0
  -24.3639   -9.4211   21.9179 C   0  0  0  0  0  0
  -23.6309   -8.2247   22.0748 C   0  0  0  0  0  0
  -22.4288   -8.0287   21.3542 C   0  0  0  0  0  0
  -21.9928   -9.0262   20.4641 C   0  0  0  0  0  0
  -22.7262  -10.2138   20.3051 C   0  0  0  0  0  0
  -21.6857   -6.0740   22.5281 C   0  0  0  0  0  0
  -21.4015   -6.5641   23.8216 C   0  0  0  0  0  0
  -21.3664   -5.6792   24.9176 C   0  0  0  0  0  0
  -21.6047   -4.3056   24.7223 C   0  0  0  0  0  0
  -21.8820   -3.8149   23.4343 C   0  0  0  0  0  0
  -21.9195   -4.6968   22.3401 C   0  0  0  0  0  0
  -22.7770  -13.5199   21.1899 C   0  0  0  0  0  0
  -22.1663   -4.2155   21.0977 F   0  0  0  0  0  0
  -21.5631   -3.4536   25.7733 F   0  0  0  0  0  0
  -29.8987  -13.8616   20.3334 N   0  0  0  0  0  0
  -26.2836  -12.9511   20.3232 N   0  0  0  0  0  0
  -25.9329  -11.6620   20.5716 N   0  0  0  0  0  0
  -22.0436  -12.8171   22.0456 N   0  0  0  0  0  0
  -25.4100  -15.1986   20.4238 N   0  0  0  0  0  0
  -31.7094  -15.1425   20.1737 O   0  0  0  0  0  0
  -21.6649   -6.8885   21.4242 O   0  0  0  0  0  0
  -22.3444  -14.5501   20.6750 O   0  0  0  0  0  0
  -24.6558  -31.8312   23.1761 C   0  0  0  0  0  0
  -25.9274  -32.4624   23.8199 C   0  0  1  0  0  0
  -27.2154  -27.0036   20.1707 C   0  0  0  0  0  0
  -25.5971  -33.8435   24.2106 N   0  0  0  0  0  0
  -23.4662  -30.4472   21.5233 C   0  0  2  0  0  0
  -24.9187  -28.8494   20.1106 C   0  0  0  0  0  0
  -22.7625  -29.4489   22.4790 C   0  0  0  0  0  0
  -18.0317  -28.1410   22.8462 C   0  0  0  0  0  0
  -24.1495  -36.7225   23.2646 C   0  0  0  0  0  0
  -26.0315  -30.6638   21.3944 C   0  0  0  0  0  0
  -26.1012  -29.2617   20.7374 C   0  0  0  0  0  0
  -27.2481  -28.3585   20.7437 C   0  0  0  0  0  0
  -26.0033  -26.7256   19.5014 C   0  0  0  0  0  0
  -24.8905  -27.5995   19.4744 C   0  0  0  0  0  0
  -23.7017  -29.7682   20.1471 C   0  0  0  0  0  0
  -25.4132  -36.2984   24.0300 C   0  0  1  0  0  0
  -20.5938  -28.3749   23.1193 C   0  0  2  0  0  0
  -20.6796  -26.9437   22.5395 C   0  0  0  0  0  0
  -19.5769  -26.6384   21.5207 C   0  0  0  0  0  0
  -18.1954  -26.7942   22.1620 C   0  0  0  0  0  0
  -19.1579  -28.8897   23.2819 C   0  0  0  0  0  0
  -18.9495  -30.1487   23.8854 C   0  0  0  0  0  0
  -17.6491  -30.6598   24.0561 C   0  0  0  0  0  0
  -25.9093  -34.9367   23.5017 C   0  0  0  0  0  0
  -16.5379  -29.9089   23.6346 C   0  0  0  0  0  0
  -16.7302  -28.6514   23.0353 C   0  0  0  0  0  0
  -26.4550  -31.6544   25.0699 C   0  0  0  0  0  0
  -25.3693  -31.3784   26.1365 C   0  0  0  0  0  0
  -27.0439  -30.2918   24.6388 C   0  0  0  0  0  0
  -27.6051  -32.4341   25.7498 C   0  0  0  0  0  0
  -27.5567  -37.1767   24.8462 C   0  0  0  0  0  0
  -21.4303  -29.3052   22.3545 N   0  0  0  0  0  0
  -26.4279  -37.3712   23.9404 N   0  0  0  0  0  0
  -24.7386  -31.0054   22.0855 N   0  0  0  0  0  0
  -23.4211  -28.8046   23.2992 O   0  0  0  0  0  0
  -28.2314  -25.9372   20.2399 O   0  0  0  0  0  0
  -26.5694  -34.8890   22.4607 O   0  0  0  0  0  0
  -23.5648  -32.1246   23.6908 O   0  0  0  0  0  0
  -29.5987  -20.4607   20.3387 C   0  0  0  0  0  0
  -30.9418  -20.9322   20.4064 C   0  0  0  0  0  0
  -30.3642  -23.2365   20.3575 C   0  0  0  0  0  0
  -28.9730  -22.9957   20.2684 C   0  0  0  0  0  0
  -29.9466  -17.5789   19.3912 C   0  0  0  0  0  0
  -29.7526  -17.5719   21.3834 C   0  0  0  0  0  0
  -29.3511  -18.7468   20.3370 C   0  0  0  0  0  0
  -32.1420  -20.0046   20.4467 C   0  0  0  0  0  0
  -30.9373  -24.6409   20.3818 C   0  0  0  0  0  0
  -27.9254  -24.3492   20.1336 C   0  0  0  0  0  0
  -28.6347  -21.5642   20.2644 N   0  0  0  0  0  0
  -31.2914  -22.2467   20.4199 N   0  0  0  0  0  0
  -29.7418  -16.4070   20.3727 N   0  0  0  0  0  0
  -31.4612  -12.9055   19.1898 H   0  0  0  0  0  0
  -30.4711  -11.8034   20.0992 H   0  0  0  0  0  0
  -29.8827  -11.7304   17.6502 H   0  0  0  0  0  0
  -29.5840  -13.4511   17.6561 H   0  0  0  0  0  0
  -28.0033  -11.2742   19.0489 H   0  0  0  0  0  0
  -27.4035  -12.3796   17.8387 H   0  0  0  0  0  0
  -27.5465  -14.2482   19.3515 H   0  0  0  0  0  0
  -28.7900  -12.4516   21.4860 H   0  0  0  0  0  0
  -28.3180  -14.1266   21.6986 H   0  0  0  0  0  0
  -25.2782   -9.5686   22.4756 H   0  0  0  0  0  0
  -24.0020   -7.4634   22.7462 H   0  0  0  0  0  0
  -21.0862   -8.8784   19.8941 H   0  0  0  0  0  0
  -22.3724  -10.9678   19.6161 H   0  0  0  0  0  0
  -21.2003   -7.6148   23.9719 H   0  0  0  0  0  0
  -21.1488   -6.0520   25.9080 H   0  0  0  0  0  0
  -22.0594   -2.7610   23.2841 H   0  0  0  0  0  0
  -22.4074  -11.9843   22.4846 H   0  0  0  0  0  0
  -21.1043  -13.1164   22.2657 H   0  0  0  0  0  0
  -24.6492  -15.8565   20.5523 H   0  0  0  0  0  0
  -26.2739  -15.6424   20.1370 H   0  0  0  0  0  0
  -26.7339  -32.5188   23.0918 H   0  0  0  0  0  0
  -25.0070  -33.9527   25.0221 H   0  0  0  0  0  0
  -22.7760  -31.2772   21.3575 H   0  0  0  0  0  0
  -23.3761  -35.9552   23.3287 H   0  0  0  0  0  0
  -24.3575  -36.8890   22.2065 H   0  0  0  0  0  0
  -23.7255  -37.6410   23.6713 H   0  0  0  0  0  0
  -26.2023  -31.4109   20.6184 H   0  0  0  0  0  0
  -26.8953  -30.7177   22.0451 H   0  0  0  0  0  0
  -28.1456  -28.6716   21.2585 H   0  0  0  0  0  0
  -25.8781  -25.7723   19.0118 H   0  0  0  0  0  0
  -23.9901  -27.2779   18.9695 H   0  0  0  0  0  0
  -23.8495  -30.5384   19.3892 H   0  0  0  0  0  0
  -22.8129  -29.2185   19.8322 H   0  0  0  0  0  0
  -25.1331  -36.1785   25.0791 H   0  0  0  0  0  0
  -21.0037  -28.3357   24.1311 H   0  0  0  0  0  0
  -20.5681  -26.2367   23.3631 H   0  0  0  0  0  0
  -21.6661  -26.7417   22.1201 H   0  0  0  0  0  0
  -19.6932  -25.6286   21.1260 H   0  0  0  0  0  0
  -19.6711  -27.3173   20.6721 H   0  0  0  0  0  0
  -17.4219  -26.6678   21.4030 H   0  0  0  0  0  0
  -18.0356  -26.0099   22.9033 H   0  0  0  0  0  0
  -19.7974  -30.7314   24.2203 H   0  0  0  0  0  0
  -17.5046  -31.6273   24.5173 H   0  0  0  0  0  0
  -15.5380  -30.2981   23.7697 H   0  0  0  0  0  0
  -15.8699  -28.0828   22.7080 H   0  0  0  0  0  0
  -24.5883  -30.7122   25.7679 H   0  0  0  0  0  0
  -24.8875  -32.2986   26.4681 H   0  0  0  0  0  0
  -25.7938  -30.9026   27.0213 H   0  0  0  0  0  0
  -26.3095  -29.6601   24.1377 H   0  0  0  0  0  0
  -27.3974  -29.7271   25.5026 H   0  0  0  0  0  0
  -27.9032  -30.4113   23.9786 H   0  0  0  0  0  0
  -27.2620  -33.3675   26.1974 H   0  0  0  0  0  0
  -28.3916  -32.6847   25.0368 H   0  0  0  0  0  0
  -28.0654  -31.8533   26.5501 H   0  0  0  0  0  0
  -28.2566  -38.0077   24.7500 H   0  0  0  0  0  0
  -28.1078  -36.2601   24.6301 H   0  0  0  0  0  0
  -27.2278  -37.1424   25.8863 H   0  0  0  0  0  0
  -20.9536  -29.8767   21.6710 H   0  0  0  0  0  0
  -26.0130  -38.2770   24.1418 H   0  0  0  0  0  0
  -29.3832  -17.4791   18.4626 H   0  0  0  0  0  0
  -30.9973  -17.7217   19.1385 H   0  0  0  0  0  0
  -29.0141  -17.4703   22.1791 H   0  0  0  0  0  0
  -30.7305  -17.7042   21.8446 H   0  0  0  0  0  0
  -28.2673  -18.6840   20.2325 H   0  0  0  0  0  0
  -33.0622  -20.5565   20.6421 H   0  0  0  0  0  0
  -32.2700  -19.5009   19.4904 H   0  0  0  0  0  0
  -32.0547  -19.2654   21.2370 H   0  0  0  0  0  0
  -30.5571  -25.1915   21.2424 H   0  0  0  0  0  0
  -30.6700  -25.1829   19.4746 H   0  0  0  0  0  0
  -32.0259  -24.6297   20.4506 H   0  0  0  0  0  0
  -27.1287  -24.1605   20.8532 H   0  0  0  0  0  0
  -27.4591  -24.2111   19.1588 H   0  0  0  0  0  0
  1 25  1  0  0  0
  1 30  2  0  0  0
  1 83  1  0  0  0
  2  3  1  0  0  0
  2 25  1  0  0  0
  2 84  1  0  0  0
  2 85  1  0  0  0
  3  4  1  0  0  0
  3 86  1  0  0  0
  3 87  1  0  0  0
  4  5  1  0  0  0
  4 88  1  0  0  0
  4 89  1  0  0  0
  5  6  1  0  0  0
  5 26  1  0  0  0
  5 90  1  0  0  0
  6 25  1  0  0  0
  6 91  1  0  0  0
  6 92  1  0  0  0
  7  8  2  0  0  0
  7 26  1  0  0  0
  7 29  1  0  0  0
  8  9  1  0  0  0
  8 22  1  0  0  0
  9 10  1  0  0  0
  9 27  2  0  0  0
 10 11  2  0  0  0
 10 15  1  0  0  0
 11 12  1  0  0  0
 11 93  1  0  0  0
 12 13  2  0  0  0
 12 94  1  0  0  0
 13 14  1  0  0  0
 13 31  1  0  0  0
 14 15  2  0  0  0
 14 95  1  0  0  0
 15 96  1  0  0  0
 16 17  2  0  0  0
 16 21  1  0  0  0
 16 31  1  0  0  0
 17 18  1  0  0  0
 17 97  1  0  0  0
 18 19  2  0  0  0
 18 98  1  0  0  0
 19 20  1  0  0  0
 19 24  1  0  0  0
 20 21  2  0  0  0
 20 99  1  0  0  0
 21 23  1  0  0  0
 22 28  1  0  0  0
 22 32  2  0  0  0
 26 27  1  0  0  0
 28100  1  0  0  0
 28101  1  0  0  0
 29102  1  0  0  0
 29103  1  0  0  0
 33 34  1  0  0  0
 33 66  1  0  0  0
 33 70  2  0  0  0
 34 36  1  0  0  0
 34 59  1  0  0  0
 34104  1  0  0  0
 35 44  2  0  0  0
 35 45  1  0  0  0
 35 68  1  0  0  0
 36 56  1  0  0  0
 36105  1  0  0  0
 37 39  1  0  0  0
 37 47  1  0  0  0
 37 66  1  0  0  0
 37106  1  0  0  0
 38 43  2  0  0  0
 38 46  1  0  0  0
 38 47  1  0  0  0
 39 64  1  0  0  0
 39 67  2  0  0  0
 40 52  1  0  0  0
 40 53  2  0  0  0
 40 58  1  0  0  0
 41107  1  0  0  0
 41108  1  0  0  0
 41109  1  0  0  0
 41 48  1  0  0  0
 42 43  1  0  0  0
 42 66  1  0  0  0
 42110  1  0  0  0
 42111  1  0  0  0
 43 44  1  0  0  0
 44112  1  0  0  0
 45 46  2  0  0  0
 45113  1  0  0  0
 46114  1  0  0  0
 47115  1  0  0  0
 47116  1  0  0  0
 48 56  1  0  0  0
 48 65  1  0  0  0
 48117  1  0  0  0
 49 50  1  0  0  0
 49 53  1  0  0  0
 49 64  1  0  0  0
 49118  1  0  0  0
 50 51  1  0  0  0
 50119  1  0  0  0
 50120  1  0  0  0
 51 52  1  0  0  0
 51121  1  0  0  0
 51122  1  0  0  0
 52123  1  0  0  0
 52124  1  0  0  0
 53 54  1  0  0  0
 54 55  2  0  0  0
 54125  1  0  0  0
 55 57  1  0  0  0
 55126  1  0  0  0
 56 69  2  0  0  0
 57 58  2  0  0  0
 57127  1  0  0  0
 58128  1  0  0  0
 59 60  1  0  0  0
 59 61  1  0  0  0
 59 62  1  0  0  0
 60129  1  0  0  0
 60130  1  0  0  0
 60131  1  0  0  0
 61132  1  0  0  0
 61133  1  0  0  0
 61134  1  0  0  0
 62135  1  0  0  0
 62136  1  0  0  0
 62137  1  0  0  0
 63 65  1  0  0  0
 63138  1  0  0  0
 63139  1  0  0  0
 63140  1  0  0  0
 64141  1  0  0  0
 65142  1  0  0  0
 68 80  1  0  0  0
 71 72  2  0  0  0
 71 81  1  0  0  0
 71 77  1  0  0  0
 72 78  1  0  0  0
 72 82  1  0  0  0
 73 74  1  0  0  0
 73 79  1  0  0  0
 73 82  2  0  0  0
 74 80  1  0  0  0
 74 81  2  0  0  0
 75 77  1  0  0  0
 75 83  1  0  0  0
 75143  1  0  0  0
 75144  1  0  0  0
 76 77  1  0  0  0
 76 83  1  0  0  0
 76145  1  0  0  0
 76146  1  0  0  0
 77147  1  0  0  0
 78148  1  0  0  0
 78149  1  0  0  0
 78150  1  0  0  0
 79151  1  0  0  0
 79152  1  0  0  0
 79153  1  0  0  0
 80154  1  0  0  0
 80155  1  0  0  0
M  ISO  4   1 100  68 101  80 101  83 100
M  END
> <chiral flag>
0

> <version>
0

> <s_m_source_file>
/data/baiqing/PycharmProjects/Reinvent-master-3.2/result/LINK_invent/BTK/process_docking_weight1_custom_sum_contain_oxygen_bond_distance_aromatic_linkinvent_7_9_3/rearranged_h_0181.sdf

> <i_m_source_file_index>
47

> <r_mmod_Potential_Energy-OPLS-2005>
1033.91784667969

> <r_mmod_Stretch_Energy-OPLS-2005>
422.837707519531

> <r_mmod_Bend_Energy-OPLS-2005>
352.720703125

> <r_mmod_Torsional_Energy-OPLS-2005>
271.299285888672

> <r_mmod_Improper_Torsional_Energy-OPLS-2005>
14.3091316223145

> <r_mmod_Van_der_Waal_Energy-OPLS-2005>
128.901565551758

> <r_mmod_Electrostatic_Energy-OPLS-2005>
-285.317993164062

> <r_mmod_Solvation_Energy-OPLS-2005>
-215.200836181641

> <b_mmod_Minimization_Converged-OPLS-2005>
0

> <r_mmod_RMS_Derivative-OPLS-2005>
0.674575686454773

$$$$
47
                    3D
 Structure written by MMmdl.
154162  0  0  1  0            999 V2000
  -30.4142  -15.2588   20.3364 C   0  0  0  0  0  0
  -30.4360  -12.7881   19.5519 C   0  0  0  0  0  0
  -29.5470  -12.5625   18.3019 C   0  0  0  0  0  0
  -28.0914  -12.2890   18.7197 C   0  0  0  0  0  0
  -27.6103  -13.2757   19.8129 C   0  0  2  0  0  0
  -28.6307  -13.4391   20.9556 C   0  0  0  0  0  0
  -25.2384  -13.8238   20.5719 C   0  0  0  0  0  0
  -24.1733  -13.0436   20.9209 C   0  0  0  0  0  0
  -24.6379  -11.6922   20.8688 C   0  0  0  0  0  0
  -23.9074  -10.4286   21.0326 C   0  0  0  0  0  0
  -24.3624   -9.4216   21.9104 C   0  0  0  0  0  0
  -23.6308   -8.2243   22.0702 C   0  0  0  0  0  0
  -22.4285   -8.0263   21.3511 C   0  0  0  0  0  0
  -21.9874   -9.0255   20.4634 C   0  0  0  0  0  0
  -22.7234  -10.2122   20.2986 C   0  0  0  0  0  0
  -21.6906   -6.0686   22.5266 C   0  0  0  0  0  0
  -21.4079   -6.5580   23.8219 C   0  0  0  0  0  0
  -21.3682   -5.6730   24.9172 C   0  0  0  0  0  0
  -21.6082   -4.2996   24.7230 C   0  0  0  0  0  0
  -21.8856   -3.8082   23.4352 C   0  0  0  0  0  0
  -21.9202   -4.6898   22.3402 C   0  0  0  0  0  0
  -22.7744  -13.5181   21.1870 C   0  0  0  0  0  0
  -22.1606   -4.2073   21.0960 F   0  0  0  0  0  0
  -21.5684   -3.4482   25.7716 F   0  0  0  0  0  0
  -29.8757  -13.9396   20.3555 N   0  0  0  0  0  0
  -26.2787  -12.9523   20.3091 N   0  0  0  0  0  0
  -25.9318  -11.6633   20.5673 N   0  0  0  0  0  0
  -22.0421  -12.8190   22.0458 N   0  0  0  0  0  0
  -25.4089  -15.1970   20.4216 N   0  0  0  0  0  0
  -31.6290  -15.2606   20.0675 O   0  0  0  0  0  0
  -21.6645   -6.8850   21.4228 O   0  0  0  0  0  0
  -22.3387  -14.5452   20.6654 O   0  0  0  0  0  0
  -24.6615  -31.8224   23.1743 C   0  0  0  0  0  0
  -25.9255  -32.4628   23.8210 C   0  0  1  0  0  0
  -27.2040  -26.9040   20.1897 C   0  0  0  0  0  0
  -25.5909  -33.8452   24.2111 N   0  0  0  0  0  0
  -23.4790  -30.4304   21.5296 C   0  0  2  0  0  0
  -24.9247  -28.8121   20.1263 C   0  0  0  0  0  0
  -22.7682  -29.4369   22.4858 C   0  0  0  0  0  0
  -18.0305  -28.1374   22.8500 C   0  0  0  0  0  0
  -24.1462  -36.7224   23.2653 C   0  0  0  0  0  0
  -26.0496  -30.6213   21.4048 C   0  0  0  0  0  0
  -26.1142  -29.2077   20.7501 C   0  0  0  0  0  0
  -27.2543  -28.2799   20.7431 C   0  0  0  0  0  0
  -25.9776  -26.6568   19.5301 C   0  0  0  0  0  0
  -24.8826  -27.5602   19.4916 C   0  0  0  0  0  0
  -23.7188  -29.7517   20.1553 C   0  0  0  0  0  0
  -25.4121  -36.3030   24.0321 C   0  0  1  0  0  0
  -20.5928  -28.3693   23.1245 C   0  0  2  0  0  0
  -20.6762  -26.9384   22.5419 C   0  0  0  0  0  0
  -19.5730  -26.6354   21.5230 C   0  0  0  0  0  0
  -18.1928  -26.7919   22.1645 C   0  0  0  0  0  0
  -19.1565  -28.8869   23.2854 C   0  0  0  0  0  0
  -18.9461  -30.1461   23.8877 C   0  0  0  0  0  0
  -17.6449  -30.6578   24.0537 C   0  0  0  0  0  0
  -25.9080  -34.9393   23.5069 C   0  0  0  0  0  0
  -16.5347  -29.9052   23.6327 C   0  0  0  0  0  0
  -16.7287  -28.6459   23.0392 C   0  0  0  0  0  0
  -26.4529  -31.6567   25.0720 C   0  0  0  0  0  0
  -25.3645  -31.3747   26.1355 C   0  0  0  0  0  0
  -27.0425  -30.2949   24.6416 C   0  0  0  0  0  0
  -27.6042  -32.4386   25.7487 C   0  0  0  0  0  0
  -27.5583  -37.1789   24.8495 C   0  0  0  0  0  0
  -21.4345  -29.2984   22.3629 N   0  0  0  0  0  0
  -26.4292  -37.3751   23.9433 N   0  0  0  0  0  0
  -24.7527  -30.9835   22.0905 N   0  0  0  0  0  0
  -23.4231  -28.7924   23.3084 O   0  0  0  0  0  0
  -28.2297  -25.8149   20.1644 O   0  0  0  0  0  0
  -26.5720  -34.8906   22.4678 O   0  0  0  0  0  0
  -23.5670  -32.1193   23.6801 O   0  0  0  0  0  0
  -28.7557  -19.2897   20.1232 C   0  0  0  0  0  0
  -27.4422  -19.1637   19.6203 C   0  0  0  0  0  0
  -29.5580  -17.9683   19.8274 C   0  0  0  0  0  0
  -28.2308  -17.8119   17.9709 C   0  0  0  0  0  0
  -26.2709  -20.0019   20.1015 C   0  0  0  0  0  0
  -27.9930  -17.2366   16.5889 C   0  0  0  0  0  0
  -29.0972  -20.9596   20.5422 C   0  0  0  0  0  0
  -28.5683  -22.5817   19.8909 C   0  0  0  0  0  0
  -28.1193  -24.2085   20.5759 C   0  0  0  0  0  0
  -27.1898  -18.3838   18.5552 N   0  0  0  0  0  0
  -29.4398  -17.6639   18.5158 N   0  0  0  0  0  0
  -29.6454  -16.5184   20.5245 N   0  0  0  0  0  0
  -31.4615  -12.9805   19.2360 H   0  0  0  0  0  0
  -30.4939  -11.8768   20.1545 H   0  0  0  0  0  0
  -29.9341  -11.7378   17.7055 H   0  0  0  0  0  0
  -29.5933  -13.4363   17.6521 H   0  0  0  0  0  0
  -28.0638  -11.2767   19.1216 H   0  0  0  0  0  0
  -27.4342  -12.2968   17.8480 H   0  0  0  0  0  0
  -27.5345  -14.2450   19.3159 H   0  0  0  0  0  0
  -28.7799  -12.4956   21.4830 H   0  0  0  0  0  0
  -28.2616  -14.1531   21.6906 H   0  0  0  0  0  0
  -25.2782   -9.5682   22.4672 H   0  0  0  0  0  0
  -23.9966   -7.4640   22.7436 H   0  0  0  0  0  0
  -21.0764   -8.8816   19.8993 H   0  0  0  0  0  0
  -22.3660  -10.9676   19.6123 H   0  0  0  0  0  0
  -21.2078   -7.6084   23.9708 H   0  0  0  0  0  0
  -21.1502   -6.0421   25.9068 H   0  0  0  0  0  0
  -22.0622   -2.7533   23.2835 H   0  0  0  0  0  0
  -22.4060  -11.9842   22.4850 H   0  0  0  0  0  0
  -21.1038  -13.1247   22.2675 H   0  0  0  0  0  0
  -26.2267  -15.6254   20.0104 H   0  0  0  0  0  0
  -24.6427  -15.8493   20.5472 H   0  0  0  0  0  0
  -26.7310  -32.5159   23.0914 H   0  0  0  0  0  0
  -24.9989  -33.9566   25.0214 H   0  0  0  0  0  0
  -22.7884  -31.2595   21.3643 H   0  0  0  0  0  0
  -23.3779  -35.9503   23.3331 H   0  0  0  0  0  0
  -24.3511  -36.8856   22.2061 H   0  0  0  0  0  0
  -23.7147  -37.6390   23.6690 H   0  0  0  0  0  0
  -26.2262  -31.3622   20.6237 H   0  0  0  0  0  0
  -26.9115  -30.6787   22.0615 H   0  0  0  0  0  0
  -28.1699  -28.5891   21.2253 H   0  0  0  0  0  0
  -25.8426  -25.6996   19.0455 H   0  0  0  0  0  0
  -23.9778  -27.2591   18.9817 H   0  0  0  0  0  0
  -23.8935  -30.5265   19.4053 H   0  0  0  0  0  0
  -22.8244  -29.2193   19.8286 H   0  0  0  0  0  0
  -25.1312  -36.1886   25.0816 H   0  0  0  0  0  0
  -20.9978  -28.3239   24.1380 H   0  0  0  0  0  0
  -20.5622  -26.2306   23.3637 H   0  0  0  0  0  0
  -21.6628  -26.7361   22.1224 H   0  0  0  0  0  0
  -19.6871  -25.6256   21.1283 H   0  0  0  0  0  0
  -19.6655  -27.3144   20.6743 H   0  0  0  0  0  0
  -17.4187  -26.6692   21.4043 H   0  0  0  0  0  0
  -18.0291  -26.0051   22.9027 H   0  0  0  0  0  0
  -19.7928  -30.7291   24.2254 H   0  0  0  0  0  0
  -17.4985  -31.6260   24.5116 H   0  0  0  0  0  0
  -15.5335  -30.2933   23.7653 H   0  0  0  0  0  0
  -15.8699  -28.0739   22.7165 H   0  0  0  0  0  0
  -24.5855  -30.7099   25.7619 H   0  0  0  0  0  0
  -24.8761  -32.2882   26.4736 H   0  0  0  0  0  0
  -25.7820  -30.8910   27.0187 H   0  0  0  0  0  0
  -26.3062  -29.6650   24.1403 H   0  0  0  0  0  0
  -27.3972  -29.7302   25.5054 H   0  0  0  0  0  0
  -27.9010  -30.4208   23.9818 H   0  0  0  0  0  0
  -27.2655  -33.3752   26.1944 H   0  0  0  0  0  0
  -28.3857  -32.6867   25.0291 H   0  0  0  0  0  0
  -28.0710  -31.8596   26.5470 H   0  0  0  0  0  0
  -28.2645  -38.0047   24.7530 H   0  0  0  0  0  0
  -28.1040  -36.2591   24.6359 H   0  0  0  0  0  0
  -27.2301  -37.1478   25.8896 H   0  0  0  0  0  0
  -20.9614  -29.8717   21.6803 H   0  0  0  0  0  0
  -26.0184  -38.2842   24.1397 H   0  0  0  0  0  0
  -25.8973  -20.6570   19.3133 H   0  0  0  0  0  0
  -25.4569  -19.3442   20.4049 H   0  0  0  0  0  0
  -26.5217  -20.6139   20.9662 H   0  0  0  0  0  0
  -28.8873  -17.2995   15.9731 H   0  0  0  0  0  0
  -27.1991  -17.7817   16.0805 H   0  0  0  0  0  0
  -27.6893  -16.1920   16.6523 H   0  0  0  0  0  0
  -30.1860  -20.9959   20.4962 H   0  0  0  0  0  0
  -28.8763  -21.0018   21.6089 H   0  0  0  0  0  0
  -27.7245  -22.3475   19.2443 H   0  0  0  0  0  0
  -29.3464  -22.8280   19.1684 H   0  0  0  0  0  0
  -28.6463  -24.2193   21.5313 H   0  0  0  0  0  0
  -27.0778  -24.0898   20.8762 H   0  0  0  0  0  0
  -28.8063  -16.3196   21.0470 H   0  0  0  0  0  0
  1 25  1  0  0  0
  1 30  2  0  0  0
  1 82  1  0  0  0
  2  3  1  0  0  0
  2 25  1  0  0  0
  2 83  1  0  0  0
  2 84  1  0  0  0
  3  4  1  0  0  0
  3 85  1  0  0  0
  3 86  1  0  0  0
  4  5  1  0  0  0
  4 87  1  0  0  0
  4 88  1  0  0  0
  5  6  1  0  0  0
  5 26  1  0  0  0
  5 89  1  0  0  0
  6 25  1  0  0  0
  6 90  1  0  0  0
  6 91  1  0  0  0
  7  8  2  0  0  0
  7 26  1  0  0  0
  7 29  1  0  0  0
  8  9  1  0  0  0
  8 22  1  0  0  0
  9 10  1  0  0  0
  9 27  2  0  0  0
 10 11  2  0  0  0
 10 15  1  0  0  0
 11 12  1  0  0  0
 11 92  1  0  0  0
 12 13  2  0  0  0
 12 93  1  0  0  0
 13 14  1  0  0  0
 13 31  1  0  0  0
 14 15  2  0  0  0
 14 94  1  0  0  0
 15 95  1  0  0  0
 16 17  2  0  0  0
 16 21  1  0  0  0
 16 31  1  0  0  0
 17 18  1  0  0  0
 17 96  1  0  0  0
 18 19  2  0  0  0
 18 97  1  0  0  0
 19 20  1  0  0  0
 19 24  1  0  0  0
 20 21  2  0  0  0
 20 98  1  0  0  0
 21 23  1  0  0  0
 22 28  1  0  0  0
 22 32  2  0  0  0
 26 27  1  0  0  0
 28 99  1  0  0  0
 28100  1  0  0  0
 29101  1  0  0  0
 29102  1  0  0  0
 33 34  1  0  0  0
 33 66  1  0  0  0
 33 70  2  0  0  0
 34 36  1  0  0  0
 34 59  1  0  0  0
 34103  1  0  0  0
 35 44  2  0  0  0
 35 45  1  0  0  0
 35 68  1  0  0  0
 36 56  1  0  0  0
 36104  1  0  0  0
 37 39  1  0  0  0
 37 47  1  0  0  0
 37 66  1  0  0  0
 37105  1  0  0  0
 38 43  2  0  0  0
 38 46  1  0  0  0
 38 47  1  0  0  0
 39 64  1  0  0  0
 39 67  2  0  0  0
 40 52  1  0  0  0
 40 53  2  0  0  0
 40 58  1  0  0  0
 41106  1  0  0  0
 41107  1  0  0  0
 41108  1  0  0  0
 41 48  1  0  0  0
 42 43  1  0  0  0
 42 66  1  0  0  0
 42109  1  0  0  0
 42110  1  0  0  0
 43 44  1  0  0  0
 44111  1  0  0  0
 45 46  2  0  0  0
 45112  1  0  0  0
 46113  1  0  0  0
 47114  1  0  0  0
 47115  1  0  0  0
 48 56  1  0  0  0
 48 65  1  0  0  0
 48116  1  0  0  0
 49 50  1  0  0  0
 49 53  1  0  0  0
 49 64  1  0  0  0
 49117  1  0  0  0
 50 51  1  0  0  0
 50118  1  0  0  0
 50119  1  0  0  0
 51 52  1  0  0  0
 51120  1  0  0  0
 51121  1  0  0  0
 52122  1  0  0  0
 52123  1  0  0  0
 53 54  1  0  0  0
 54 55  2  0  0  0
 54124  1  0  0  0
 55 57  1  0  0  0
 55125  1  0  0  0
 56 69  2  0  0  0
 57 58  2  0  0  0
 57126  1  0  0  0
 58127  1  0  0  0
 59 60  1  0  0  0
 59 61  1  0  0  0
 59 62  1  0  0  0
 60128  1  0  0  0
 60129  1  0  0  0
 60130  1  0  0  0
 61131  1  0  0  0
 61132  1  0  0  0
 61133  1  0  0  0
 62134  1  0  0  0
 62135  1  0  0  0
 62136  1  0  0  0
 63 65  1  0  0  0
 63137  1  0  0  0
 63138  1  0  0  0
 63139  1  0  0  0
 64140  1  0  0  0
 65141  1  0  0  0
 68 79  1  0  0  0
 71 72  2  0  0  0
 71 73  1  0  0  0
 71 77  1  0  0  0
 72 75  1  0  0  0
 72 80  1  0  0  0
 73 81  2  0  0  0
 73 82  1  0  0  0
 74 76  1  0  0  0
 74 80  2  0  0  0
 74 81  1  0  0  0
 75142  1  0  0  0
 75143  1  0  0  0
 75144  1  0  0  0
 76145  1  0  0  0
 76146  1  0  0  0
 76147  1  0  0  0
 77 78  1  0  0  0
 77148  1  0  0  0
 77149  1  0  0  0
 78 79  1  0  0  0
 78150  1  0  0  0
 78151  1  0  0  0
 79152  1  0  0  0
 79153  1  0  0  0
 82154  1  0  0  0
M  ISO  4   1 100  68 101  79 101  82 100
M  END
> <chiral flag>
0

> <version>
0

> <s_m_source_file>
/data/baiqing/PycharmProjects/Reinvent-master-3.2/result/LINK_invent/BTK/process_docking_weight1_custom_sum_contain_oxygen_bond_distance_aromatic_linkinvent_7_9_3/rearranged_h_0181.sdf

> <i_m_source_file_index>
48

> <r_mmod_Potential_Energy-OPLS-2005>
1264.92651367188

> <r_mmod_Stretch_Energy-OPLS-2005>
648.537414550781

> <r_mmod_Bend_Energy-OPLS-2005>
522.764953613281

> <r_mmod_Torsional_Energy-OPLS-2005>
440.38037109375

> <r_mmod_Improper_Torsional_Energy-OPLS-2005>
24.5529556274414

> <r_mmod_Van_der_Waal_Energy-OPLS-2005>
132.511901855469

> <r_mmod_Electrostatic_Energy-OPLS-2005>
-730.842468261719

> <r_mmod_Solvation_Energy-OPLS-2005>
-233.696746826172

> <b_mmod_Minimization_Converged-OPLS-2005>
0

> <r_mmod_RMS_Derivative-OPLS-2005>
6.02174806594849

$$$$
48
                    3D
 Structure written by MMmdl.
159168  0  0  1  0            999 V2000
  -30.6323  -14.6698   20.4776 C   0  0  0  0  0  0
  -30.4328  -12.4083   19.4557 C   0  0  0  0  0  0
  -29.5095  -12.5086   18.2234 C   0  0  0  0  0  0
  -28.0324  -12.3469   18.6367 C   0  0  0  0  0  0
  -27.6495  -13.2256   19.8588 C   0  0  2  0  0  0
  -28.6950  -13.1170   20.9886 C   0  0  0  0  0  0
  -25.2548  -13.8189   20.5703 C   0  0  0  0  0  0
  -24.1822  -13.0446   20.9199 C   0  0  0  0  0  0
  -24.6409  -11.6918   20.8738 C   0  0  0  0  0  0
  -23.9071  -10.4295   21.0383 C   0  0  0  0  0  0
  -24.3613   -9.4214   21.9183 C   0  0  0  0  0  0
  -23.6298   -8.2240   22.0748 C   0  0  0  0  0  0
  -22.4284   -8.0278   21.3532 C   0  0  0  0  0  0
  -21.9911   -9.0245   20.4642 C   0  0  0  0  0  0
  -22.7224  -10.2138   20.3045 C   0  0  0  0  0  0
  -21.6854   -6.0730   22.5281 C   0  0  0  0  0  0
  -21.4009   -6.5630   23.8214 C   0  0  0  0  0  0
  -21.3673   -5.6782   24.9180 C   0  0  0  0  0  0
  -21.6051   -4.3046   24.7234 C   0  0  0  0  0  0
  -21.8821   -3.8138   23.4358 C   0  0  0  0  0  0
  -21.9193   -4.6956   22.3409 C   0  0  0  0  0  0
  -22.7851  -13.5224   21.1883 C   0  0  0  0  0  0
  -22.1659   -4.2144   21.0990 F   0  0  0  0  0  0
  -21.5640   -3.4533   25.7745 F   0  0  0  0  0  0
  -30.0032  -13.4510   20.4098 N   0  0  0  0  0  0
  -26.2976  -12.9379   20.3308 N   0  0  0  0  0  0
  -25.9340  -11.6526   20.5756 N   0  0  0  0  0  0
  -22.0489  -12.8217   22.0436 N   0  0  0  0  0  0
  -25.4303  -15.1905   20.4159 N   0  0  0  0  0  0
  -31.8143  -14.7933   20.1441 O   0  0  0  0  0  0
  -21.6653   -6.8872   21.4241 O   0  0  0  0  0  0
  -22.3547  -14.5532   20.6726 O   0  0  0  0  0  0
  -24.6279  -31.8574   23.2037 C   0  0  0  0  0  0
  -25.9133  -32.4768   23.8355 C   0  0  1  0  0  0
  -27.2284  -27.3094   20.1140 C   0  0  0  0  0  0
  -25.5945  -33.8570   24.2267 N   0  0  0  0  0  0
  -23.4210  -30.4801   21.5464 C   0  0  2  0  0  0
  -24.8689  -28.9307   20.1178 C   0  0  0  0  0  0
  -22.7467  -29.4621   22.4958 C   0  0  0  0  0  0
  -18.0275  -28.1405   22.8483 C   0  0  0  0  0  0
  -24.1493  -36.7292   23.2643 C   0  0  0  0  0  0
  -25.9643  -30.7819   21.3795 C   0  0  0  0  0  0
  -26.0392  -29.4082   20.7235 C   0  0  0  0  0  0
  -27.2223  -28.6084   20.7139 C   0  0  0  0  0  0
  -26.0373  -26.8904   19.4812 C   0  0  0  0  0  0
  -24.8690  -27.6752   19.4910 C   0  0  0  0  0  0
  -23.6375  -29.8131   20.1634 C   0  0  0  0  0  0
  -25.4121  -36.3077   24.0322 C   0  0  1  0  0  0
  -20.5873  -28.3716   23.1289 C   0  0  2  0  0  0
  -20.6776  -26.9443   22.5416 C   0  0  0  0  0  0
  -19.5752  -26.6406   21.5220 C   0  0  0  0  0  0
  -18.1927  -26.7948   22.1626 C   0  0  0  0  0  0
  -19.1524  -28.8874   23.2881 C   0  0  0  0  0  0
  -18.9460  -30.1469   23.8901 C   0  0  0  0  0  0
  -17.6461  -30.6611   24.0562 C   0  0  0  0  0  0
  -25.9060  -34.9448   23.5101 C   0  0  0  0  0  0
  -16.5347  -29.9111   23.6339 C   0  0  0  0  0  0
  -16.7257  -28.6529   23.0356 C   0  0  0  0  0  0
  -26.4500  -31.6571   25.0727 C   0  0  0  0  0  0
  -25.3729  -31.3723   26.1450 C   0  0  0  0  0  0
  -27.0346  -30.2985   24.6222 C   0  0  0  0  0  0
  -27.6064  -32.4306   25.7499 C   0  0  0  0  0  0
  -27.5568  -37.1804   24.8454 C   0  0  0  0  0  0
  -21.4186  -29.3052   22.3678 N   0  0  0  0  0  0
  -26.4287  -37.3775   23.9396 N   0  0  0  0  0  0
  -24.6894  -31.0572   22.0995 N   0  0  0  0  0  0
  -23.4176  -28.8174   23.3066 O   0  0  0  0  0  0
  -28.3452  -26.4537   20.1114 O   0  0  0  0  0  0
  -26.5637  -34.8913   22.4671 O   0  0  0  0  0  0
  -23.5438  -32.1389   23.7353 O   0  0  0  0  0  0
  -31.1233  -23.5040   18.9909 C   0  0  0  0  0  0
  -29.1787  -23.9423   19.9849 C   0  0  0  0  0  0
  -29.8655  -21.7932   19.6540 C   0  0  0  0  0  0
  -29.4092  -16.7824   19.7138 C   0  0  0  0  0  0
  -30.1763  -16.9067   21.6412 C   0  0  0  0  0  0
  -30.1230  -17.9285   20.4772 C   0  0  0  0  0  0
  -32.3903  -24.0033   18.3226 C   0  0  0  0  0  0
  -28.1235  -25.0218   22.0346 C   0  0  0  0  0  0
  -29.5319  -19.4050   20.6978 C   0  0  0  0  0  0
  -28.1471  -25.0223   20.4999 C   0  0  1  0  0  0
  -30.2856  -24.4321   19.4342 N   0  0  0  0  0  0
  -30.9676  -22.1840   19.0468 N   0  0  0  0  0  0
  -28.9188  -22.6116   20.1479 N   0  0  0  0  0  0
  -29.8484  -15.7779   20.7284 N   0  0  0  0  0  0
  -29.7076  -20.3898   19.5909 N   0  0  0  0  0  0
  -31.4750  -12.5259   19.1539 H   0  0  0  0  0  0
  -30.3649  -11.4188   19.9100 H   0  0  0  0  0  0
  -29.7778  -11.7479   17.4888 H   0  0  0  0  0  0
  -29.6567  -13.4721   17.7326 H   0  0  0  0  0  0
  -27.8727  -11.2942   18.8753 H   0  0  0  0  0  0
  -27.3780  -12.5723   17.7936 H   0  0  0  0  0  0
  -27.6548  -14.2591   19.5096 H   0  0  0  0  0  0
  -28.7107  -12.1118   21.4112 H   0  0  0  0  0  0
  -28.4456  -13.7890   21.8110 H   0  0  0  0  0  0
  -25.2744   -9.5707   22.4773 H   0  0  0  0  0  0
  -24.0017   -7.4634   22.7451 H   0  0  0  0  0  0
  -21.0836   -8.8737   19.8950 H   0  0  0  0  0  0
  -22.3643  -10.9677   19.6157 H   0  0  0  0  0  0
  -21.1984   -7.6139   23.9709 H   0  0  0  0  0  0
  -21.1499   -6.0525   25.9084 H   0  0  0  0  0  0
  -22.0591   -2.7604   23.2857 H   0  0  0  0  0  0
  -22.4061  -11.9873   22.4829 H   0  0  0  0  0  0
  -21.1100  -13.1246   22.2606 H   0  0  0  0  0  0
  -24.6767  -15.8569   20.5423 H   0  0  0  0  0  0
  -26.3051  -15.6242   20.1483 H   0  0  0  0  0  0
  -26.7199  -32.5422   23.1091 H   0  0  0  0  0  0
  -25.0006  -33.9694   25.0357 H   0  0  0  0  0  0
  -22.7175  -31.3015   21.4014 H   0  0  0  0  0  0
  -23.3733  -35.9640   23.3309 H   0  0  0  0  0  0
  -24.3570  -36.8918   22.2049 H   0  0  0  0  0  0
  -23.7262  -37.6511   23.6662 H   0  0  0  0  0  0
  -26.0968  -31.5433   20.6101 H   0  0  0  0  0  0
  -26.8449  -30.8322   22.0087 H   0  0  0  0  0  0
  -28.1192  -28.9699   21.1975 H   0  0  0  0  0  0
  -25.9869  -25.9433   18.9644 H   0  0  0  0  0  0
  -23.9764  -27.3019   19.0081 H   0  0  0  0  0  0
  -23.7595  -30.5874   19.4052 H   0  0  0  0  0  0
  -22.7562  -29.2444   19.8615 H   0  0  0  0  0  0
  -25.1305  -36.1928   25.0813 H   0  0  0  0  0  0
  -20.9942  -28.3299   24.1419 H   0  0  0  0  0  0
  -20.5709  -26.2328   23.3615 H   0  0  0  0  0  0
  -21.6649  -26.7504   22.1192 H   0  0  0  0  0  0
  -19.6927  -25.6318   21.1254 H   0  0  0  0  0  0
  -19.6703  -27.3208   20.6742 H   0  0  0  0  0  0
  -17.4205  -26.6683   21.4019 H   0  0  0  0  0  0
  -18.0330  -26.0098   22.9031 H   0  0  0  0  0  0
  -19.7936  -30.7274   24.2289 H   0  0  0  0  0  0
  -17.5021  -31.6292   24.5162 H   0  0  0  0  0  0
  -15.5346  -30.3014   23.7683 H   0  0  0  0  0  0
  -15.8653  -28.0846   22.7087 H   0  0  0  0  0  0
  -24.5887  -30.7097   25.7762 H   0  0  0  0  0  0
  -24.8934  -32.2893   26.4883 H   0  0  0  0  0  0
  -25.8027  -30.8871   27.0221 H   0  0  0  0  0  0
  -26.2931  -29.6722   24.1245 H   0  0  0  0  0  0
  -27.4011  -29.7261   25.4753 H   0  0  0  0  0  0
  -27.8812  -30.4241   23.9473 H   0  0  0  0  0  0
  -27.2688  -33.3614   26.2063 H   0  0  0  0  0  0
  -28.3879  -32.6853   25.0331 H   0  0  0  0  0  0
  -28.0722  -31.8438   26.5423 H   0  0  0  0  0  0
  -28.2598  -38.0093   24.7498 H   0  0  0  0  0  0
  -28.1066  -36.2625   24.6295 H   0  0  0  0  0  0
  -27.2284  -37.1465   25.8861 H   0  0  0  0  0  0
  -20.9387  -29.8740   21.6843 H   0  0  0  0  0  0
  -26.0163  -38.2852   24.1406 H   0  0  0  0  0  0
  -29.8102  -16.6188   18.7108 H   0  0  0  0  0  0
  -28.3254  -16.9035   19.6717 H   0  0  0  0  0  0
  -29.4014  -17.0810   22.3911 H   0  0  0  0  0  0
  -31.1547  -16.8500   22.1237 H   0  0  0  0  0  0
  -31.1418  -18.0034   20.0894 H   0  0  0  0  0  0
  -32.5575  -25.0647   18.5097 H   0  0  0  0  0  0
  -32.3387  -23.8606   17.2429 H   0  0  0  0  0  0
  -33.2603  -23.4621   18.6936 H   0  0  0  0  0  0
  -27.3585  -25.6931   22.4221 H   0  0  0  0  0  0
  -29.0859  -25.3360   22.4346 H   0  0  0  0  0  0
  -27.9143  -24.0240   22.4200 H   0  0  0  0  0  0
  -30.0005  -19.8435   21.5810 H   0  0  0  0  0  0
  -28.4692  -19.3490   20.9359 H   0  0  0  0  0  0
  -27.1802  -24.6598   20.1568 H   0  0  0  0  0  0
  -30.3548  -20.0194   18.9059 H   0  0  0  0  0  0
  1 25  1  0  0  0
  1 30  2  0  0  0
  1 84  1  0  0  0
  2  3  1  0  0  0
  2 25  1  0  0  0
  2 86  1  0  0  0
  2 87  1  0  0  0
  3  4  1  0  0  0
  3 88  1  0  0  0
  3 89  1  0  0  0
  4  5  1  0  0  0
  4 90  1  0  0  0
  4 91  1  0  0  0
  5  6  1  0  0  0
  5 26  1  0  0  0
  5 92  1  0  0  0
  6 25  1  0  0  0
  6 93  1  0  0  0
  6 94  1  0  0  0
  7  8  2  0  0  0
  7 26  1  0  0  0
  7 29  1  0  0  0
  8  9  1  0  0  0
  8 22  1  0  0  0
  9 10  1  0  0  0
  9 27  2  0  0  0
 10 11  2  0  0  0
 10 15  1  0  0  0
 11 12  1  0  0  0
 11 95  1  0  0  0
 12 13  2  0  0  0
 12 96  1  0  0  0
 13 14  1  0  0  0
 13 31  1  0  0  0
 14 15  2  0  0  0
 14 97  1  0  0  0
 15 98  1  0  0  0
 16 17  2  0  0  0
 16 21  1  0  0  0
 16 31  1  0  0  0
 17 18  1  0  0  0
 17 99  1  0  0  0
 18 19  2  0  0  0
 18100  1  0  0  0
 19 20  1  0  0  0
 19 24  1  0  0  0
 20 21  2  0  0  0
 20101  1  0  0  0
 21 23  1  0  0  0
 22 28  1  0  0  0
 22 32  2  0  0  0
 26 27  1  0  0  0
 28102  1  0  0  0
 28103  1  0  0  0
 29104  1  0  0  0
 29105  1  0  0  0
 33 34  1  0  0  0
 33 66  1  0  0  0
 33 70  2  0  0  0
 34 36  1  0  0  0
 34 59  1  0  0  0
 34106  1  0  0  0
 35 44  2  0  0  0
 35 45  1  0  0  0
 35 68  1  0  0  0
 36 56  1  0  0  0
 36107  1  0  0  0
 37 39  1  0  0  0
 37 47  1  0  0  0
 37 66  1  0  0  0
 37108  1  0  0  0
 38 43  2  0  0  0
 38 46  1  0  0  0
 38 47  1  0  0  0
 39 64  1  0  0  0
 39 67  2  0  0  0
 40 52  1  0  0  0
 40 53  2  0  0  0
 40 58  1  0  0  0
 41109  1  0  0  0
 41110  1  0  0  0
 41111  1  0  0  0
 41 48  1  0  0  0
 42 43  1  0  0  0
 42 66  1  0  0  0
 42112  1  0  0  0
 42113  1  0  0  0
 43 44  1  0  0  0
 44114  1  0  0  0
 45 46  2  0  0  0
 45115  1  0  0  0
 46116  1  0  0  0
 47117  1  0  0  0
 47118  1  0  0  0
 48 56  1  0  0  0
 48 65  1  0  0  0
 48119  1  0  0  0
 49 50  1  0  0  0
 49 53  1  0  0  0
 49 64  1  0  0  0
 49120  1  0  0  0
 50 51  1  0  0  0
 50121  1  0  0  0
 50122  1  0  0  0
 51 52  1  0  0  0
 51123  1  0  0  0
 51124  1  0  0  0
 52125  1  0  0  0
 52126  1  0  0  0
 53 54  1  0  0  0
 54 55  2  0  0  0
 54127  1  0  0  0
 55 57  1  0  0  0
 55128  1  0  0  0
 56 69  2  0  0  0
 57 58  2  0  0  0
 57129  1  0  0  0
 58130  1  0  0  0
 59 60  1  0  0  0
 59 61  1  0  0  0
 59 62  1  0  0  0
 60131  1  0  0  0
 60132  1  0  0  0
 60133  1  0  0  0
 61134  1  0  0  0
 61135  1  0  0  0
 61136  1  0  0  0
 62137  1  0  0  0
 62138  1  0  0  0
 62139  1  0  0  0
 63 65  1  0  0  0
 63140  1  0  0  0
 63141  1  0  0  0
 63142  1  0  0  0
 64143  1  0  0  0
 65144  1  0  0  0
 68 80  1  0  0  0
 71 77  1  0  0  0
 71 81  2  0  0  0
 71 82  1  0  0  0
 72 80  1  0  0  0
 72 81  1  0  0  0
 72 83  2  0  0  0
 73 82  2  0  0  0
 73 83  1  0  0  0
 73 85  1  0  0  0
 74 76  1  0  0  0
 74 84  1  0  0  0
 74145  1  0  0  0
 74146  1  0  0  0
 75 76  1  0  0  0
 75 84  1  0  0  0
 75147  1  0  0  0
 75148  1  0  0  0
 76 79  1  0  0  0
 76149  1  0  0  0
 77150  1  0  0  0
 77151  1  0  0  0
 77152  1  0  0  0
 78153  1  0  0  0
 78154  1  0  0  0
 78155  1  0  0  0
 78 80  1  0  0  0
 79 85  1  0  0  0
 79156  1  0  0  0
 79157  1  0  0  0
 80158  1  0  0  0
 85159  1  0  0  0
M  ISO  4   1 100  68 101  80 101  84 100
M  END
> <chiral flag>
0

> <version>
0

> <s_m_source_file>
/data/baiqing/PycharmProjects/Reinvent-master-3.2/result/LINK_invent/BTK/process_docking_weight1_custom_sum_contain_oxygen_bond_distance_aromatic_linkinvent_7_9_3/rearranged_h_0181.sdf

> <i_m_source_file_index>
49

> <r_mmod_Potential_Energy-OPLS-2005>
-589.413818359375

> <r_mmod_Stretch_Energy-OPLS-2005>
83.9551391601562

> <r_mmod_Bend_Energy-OPLS-2005>
149.755249023438

> <r_mmod_Torsional_Energy-OPLS-2005>
291.715026855469

> <r_mmod_Improper_Torsional_Energy-OPLS-2005>
14.9057531356812

> <r_mmod_Van_der_Waal_Energy-OPLS-2005>
152.105270385742

> <r_mmod_Electrostatic_Energy-OPLS-2005>
-1105.27734375

> <r_mmod_Solvation_Energy-OPLS-2005>
-232.330276489258

> <b_mmod_Minimization_Converged-OPLS-2005>
0

> <r_mmod_RMS_Derivative-OPLS-2005>
2.89349389076233

$$$$
49
                    3D
 Structure written by MMmdl.
159168  0  0  1  0            999 V2000
  -30.7227  -14.4747   20.6131 C   0  0  0  0  0  0
  -30.4197  -12.3313   19.4115 C   0  0  0  0  0  0
  -29.4869  -12.5137   18.1985 C   0  0  0  0  0  0
  -28.0117  -12.3646   18.6174 C   0  0  0  0  0  0
  -27.6578  -13.2102   19.8698 C   0  0  2  0  0  0
  -28.7008  -13.0031   20.9890 C   0  0  0  0  0  0
  -25.2573  -13.8169   20.5682 C   0  0  0  0  0  0
  -24.1827  -13.0438   20.9173 C   0  0  0  0  0  0
  -24.6390  -11.6908   20.8735 C   0  0  0  0  0  0
  -23.9060  -10.4292   21.0404 C   0  0  0  0  0  0
  -24.3614   -9.4209   21.9183 C   0  0  0  0  0  0
  -23.6290   -8.2243   22.0755 C   0  0  0  0  0  0
  -22.4273   -8.0281   21.3545 C   0  0  0  0  0  0
  -21.9905   -9.0254   20.4647 C   0  0  0  0  0  0
  -22.7232  -10.2133   20.3054 C   0  0  0  0  0  0
  -21.6851   -6.0735   22.5280 C   0  0  0  0  0  0
  -21.4013   -6.5640   23.8213 C   0  0  0  0  0  0
  -21.3659   -5.6793   24.9176 C   0  0  0  0  0  0
  -21.6042   -4.3055   24.7226 C   0  0  0  0  0  0
  -21.8820   -3.8148   23.4347 C   0  0  0  0  0  0
  -21.9193   -4.6963   22.3403 C   0  0  0  0  0  0
  -22.7851  -13.5235   21.1842 C   0  0  0  0  0  0
  -22.1661   -4.2149   21.0980 F   0  0  0  0  0  0
  -21.5630   -3.4541   25.7739 F   0  0  0  0  0  0
  -30.0271  -13.3176   20.4315 N   0  0  0  0  0  0
  -26.3007  -12.9344   20.3352 N   0  0  0  0  0  0
  -25.9317  -11.6501   20.5762 N   0  0  0  0  0  0
  -22.0497  -12.8224   22.0402 N   0  0  0  0  0  0
  -25.4300  -15.1886   20.4106 N   0  0  0  0  0  0
  -31.8330  -14.6671   20.1103 O   0  0  0  0  0  0
  -21.6639   -6.8878   21.4242 O   0  0  0  0  0  0
  -22.3535  -14.5544   20.6698 O   0  0  0  0  0  0
  -24.6177  -31.8669   23.2085 C   0  0  0  0  0  0
  -25.9060  -32.4814   23.8390 C   0  0  1  0  0  0
  -27.2259  -27.4031   20.0972 C   0  0  0  0  0  0
  -25.5911  -33.8613   24.2322 N   0  0  0  0  0  0
  -23.4064  -30.4910   21.5508 C   0  0  2  0  0  0
  -24.8503  -28.9576   20.1122 C   0  0  0  0  0  0
  -22.7428  -29.4646   22.4978 C   0  0  0  0  0  0
  -18.0276  -28.1375   22.8488 C   0  0  0  0  0  0
  -24.1490  -36.7311   23.2638 C   0  0  0  0  0  0
  -25.9393  -30.8238   21.3656 C   0  0  0  0  0  0
  -26.0146  -29.4578   20.7083 C   0  0  0  0  0  0
  -27.2061  -28.6902   20.6928 C   0  0  0  0  0  0
  -26.0394  -26.9315   19.4876 C   0  0  0  0  0  0
  -24.8597  -27.6963   19.4967 C   0  0  0  0  0  0
  -23.6148  -29.8277   20.1645 C   0  0  0  0  0  0
  -25.4112  -36.3107   24.0336 C   0  0  1  0  0  0
  -20.5869  -28.3664   23.1312 C   0  0  2  0  0  0
  -20.6766  -26.9400   22.5416 C   0  0  0  0  0  0
  -19.5748  -26.6384   21.5209 C   0  0  0  0  0  0
  -18.1924  -26.7922   22.1622 C   0  0  0  0  0  0
  -19.1525  -28.8836   23.2894 C   0  0  0  0  0  0
  -18.9456  -30.1446   23.8901 C   0  0  0  0  0  0
  -17.6456  -30.6580   24.0566 C   0  0  0  0  0  0
  -25.9040  -34.9471   23.5125 C   0  0  0  0  0  0
  -16.5345  -29.9083   23.6328 C   0  0  0  0  0  0
  -16.7265  -28.6503   23.0342 C   0  0  0  0  0  0
  -26.4477  -31.6597   25.0725 C   0  0  0  0  0  0
  -25.3737  -31.3711   26.1472 C   0  0  0  0  0  0
  -27.0308  -30.3038   24.6104 C   0  0  0  0  0  0
  -27.6052  -32.4315   25.7487 C   0  0  0  0  0  0
  -27.5581  -37.1811   24.8465 C   0  0  0  0  0  0
  -21.4151  -29.3032   22.3721 N   0  0  0  0  0  0
  -26.4299  -37.3791   23.9403 N   0  0  0  0  0  0
  -24.6731  -31.0747   22.0999 N   0  0  0  0  0  0
  -23.4191  -28.8172   23.3014 O   0  0  0  0  0  0
  -28.3792  -26.6325   20.1262 O   0  0  0  0  0  0
  -26.5602  -34.8926   22.4685 O   0  0  0  0  0  0
  -23.5362  -32.1433   23.7460 O   0  0  0  0  0  0
  -31.2758  -19.0392   22.0502 C   0  0  0  0  0  0
  -29.9643  -20.5979   20.7659 C   0  0  0  0  0  0
  -31.0141  -20.3709   21.6707 C   0  0  0  0  0  0
  -29.2670  -19.4967   20.2786 C   0  0  0  0  0  0
  -30.5067  -17.9812   21.5113 C   0  0  0  0  0  0
  -28.2357  -19.9197   19.2661 C   0  0  0  0  0  0
  -28.2494  -21.4748   19.3331 C   0  0  0  0  0  0
  -29.5177  -21.9111   20.1216 C   0  0  1  0  0  0
  -30.8106  -16.5546   21.9929 C   0  0  0  0  0  0
  -29.4809  -24.4370   20.5934 C   0  0  0  0  0  0
  -28.2034  -25.1926   20.1402 C   0  0  0  0  0  0
  -29.4984  -18.2017   20.6230 N   0  0  0  0  0  0
  -30.1236  -15.4204   21.3561 N   0  0  0  0  0  0
  -29.2615  -23.0334   21.0761 N   0  3  0  0  0  0
  -31.9484  -21.6758   22.3088 Cl  0  0  0  0  0  0
  -31.4617  -12.4363   19.1045 H   0  0  0  0  0  0
  -30.3306  -11.3217   19.8152 H   0  0  0  0  0  0
  -29.7297  -11.7865   17.4223 H   0  0  0  0  0  0
  -29.6451  -13.4985   17.7557 H   0  0  0  0  0  0
  -27.8306  -11.3085   18.8208 H   0  0  0  0  0  0
  -27.3555  -12.6296   17.7875 H   0  0  0  0  0  0
  -27.6991  -14.2571   19.5674 H   0  0  0  0  0  0
  -28.6864  -11.9683   21.3342 H   0  0  0  0  0  0
  -28.4523  -13.6035   21.8647 H   0  0  0  0  0  0
  -25.2762   -9.5685   22.4755 H   0  0  0  0  0  0
  -24.0003   -7.4633   22.7474 H   0  0  0  0  0  0
  -21.0838   -8.8770   19.8952 H   0  0  0  0  0  0
  -22.3692  -10.9671   19.6163 H   0  0  0  0  0  0
  -21.2006   -7.6149   23.9715 H   0  0  0  0  0  0
  -21.1479   -6.0525   25.9077 H   0  0  0  0  0  0
  -22.0600   -2.7611   23.2848 H   0  0  0  0  0  0
  -22.4112  -11.9877   22.4774 H   0  0  0  0  0  0
  -21.1117  -13.1251   22.2621 H   0  0  0  0  0  0
  -24.6680  -15.8479   20.5250 H   0  0  0  0  0  0
  -26.2912  -15.6275   20.1085 H   0  0  0  0  0  0
  -26.7129  -32.5513   23.1151 H   0  0  0  0  0  0
  -25.0061  -33.9776   25.0466 H   0  0  0  0  0  0
  -22.6963  -31.3090   21.4127 H   0  0  0  0  0  0
  -23.3749  -35.9649   23.3313 H   0  0  0  0  0  0
  -24.3584  -36.8919   22.2051 H   0  0  0  0  0  0
  -23.7248  -37.6521   23.6646 H   0  0  0  0  0  0
  -26.0569  -31.5915   20.5993 H   0  0  0  0  0  0
  -26.8252  -30.8728   21.9874 H   0  0  0  0  0  0
  -28.1037  -29.0714   21.1599 H   0  0  0  0  0  0
  -25.9993  -25.9707   18.9966 H   0  0  0  0  0  0
  -23.9647  -27.3085   19.0288 H   0  0  0  0  0  0
  -23.7257  -30.6052   19.4077 H   0  0  0  0  0  0
  -22.7367  -29.2516   19.8662 H   0  0  0  0  0  0
  -25.1288  -36.1975   25.0831 H   0  0  0  0  0  0
  -20.9956  -28.3229   24.1435 H   0  0  0  0  0  0
  -20.5679  -26.2268   23.3601 H   0  0  0  0  0  0
  -21.6635  -26.7452   22.1199 H   0  0  0  0  0  0
  -19.6921  -25.6300   21.1230 H   0  0  0  0  0  0
  -19.6691  -27.3206   20.6746 H   0  0  0  0  0  0
  -17.4197  -26.6668   21.4022 H   0  0  0  0  0  0
  -18.0324  -26.0064   22.9017 H   0  0  0  0  0  0
  -19.7934  -30.7256   24.2270 H   0  0  0  0  0  0
  -17.5016  -31.6265   24.5163 H   0  0  0  0  0  0
  -15.5348  -30.2987   23.7657 H   0  0  0  0  0  0
  -15.8664  -28.0834   22.7043 H   0  0  0  0  0  0
  -24.5906  -30.7063   25.7812 H   0  0  0  0  0  0
  -24.8931  -32.2868   26.4923 H   0  0  0  0  0  0
  -25.8092  -30.8879   27.0227 H   0  0  0  0  0  0
  -26.2854  -29.6801   24.1156 H   0  0  0  0  0  0
  -27.4078  -29.7276   25.4564 H   0  0  0  0  0  0
  -27.8691  -30.4359   23.9260 H   0  0  0  0  0  0
  -27.2671  -33.3609   26.2081 H   0  0  0  0  0  0
  -28.3851  -32.6885   25.0306 H   0  0  0  0  0  0
  -28.0726  -31.8426   26.5390 H   0  0  0  0  0  0
  -28.2604  -38.0102   24.7502 H   0  0  0  0  0  0
  -28.1073  -36.2633   24.6303 H   0  0  0  0  0  0
  -27.2294  -37.1471   25.8868 H   0  0  0  0  0  0
  -20.9310  -29.8764   21.6952 H   0  0  0  0  0  0
  -26.0192  -38.2874   24.1399 H   0  0  0  0  0  0
  -32.0676  -18.8310   22.7565 H   0  0  0  0  0  0
  -27.2546  -19.5060   19.5001 H   0  0  0  0  0  0
  -28.5344  -19.5640   18.2793 H   0  0  0  0  0  0
  -27.3580  -21.7842   19.8795 H   0  0  0  0  0  0
  -28.1870  -21.9385   18.3484 H   0  0  0  0  0  0
  -30.3117  -22.1914   19.4268 H   0  0  0  0  0  0
  -30.5589  -16.5174   23.0532 H   0  0  0  0  0  0
  -31.8927  -16.4140   21.9552 H   0  0  0  0  0  0
  -30.2498  -24.4765   19.8216 H   0  0  0  0  0  0
  -29.8895  -24.9823   21.4442 H   0  0  0  0  0  0
  -27.3911  -24.9461   20.8265 H   0  0  0  0  0  0
  -27.9129  -24.8381   19.1505 H   0  0  0  0  0  0
  -29.1756  -15.2491   21.6506 H   0  0  0  0  0  0
  -29.9440  -22.9114   21.8099 H   0  0  0  0  0  0
  -28.3586  -22.9374   21.5150 H   0  0  0  0  0  0
  1 25  1  0  0  0
  1 30  2  0  0  0
  1 83  1  0  0  0
  2  3  1  0  0  0
  2 25  1  0  0  0
  2 86  1  0  0  0
  2 87  1  0  0  0
  3  4  1  0  0  0
  3 88  1  0  0  0
  3 89  1  0  0  0
  4  5  1  0  0  0
  4 90  1  0  0  0
  4 91  1  0  0  0
  5  6  1  0  0  0
  5 26  1  0  0  0
  5 92  1  0  0  0
  6 25  1  0  0  0
  6 93  1  0  0  0
  6 94  1  0  0  0
  7  8  2  0  0  0
  7 26  1  0  0  0
  7 29  1  0  0  0
  8  9  1  0  0  0
  8 22  1  0  0  0
  9 10  1  0  0  0
  9 27  2  0  0  0
 10 11  2  0  0  0
 10 15  1  0  0  0
 11 12  1  0  0  0
 11 95  1  0  0  0
 12 13  2  0  0  0
 12 96  1  0  0  0
 13 14  1  0  0  0
 13 31  1  0  0  0
 14 15  2  0  0  0
 14 97  1  0  0  0
 15 98  1  0  0  0
 16 17  2  0  0  0
 16 21  1  0  0  0
 16 31  1  0  0  0
 17 18  1  0  0  0
 17 99  1  0  0  0
 18 19  2  0  0  0
 18100  1  0  0  0
 19 20  1  0  0  0
 19 24  1  0  0  0
 20 21  2  0  0  0
 20101  1  0  0  0
 21 23  1  0  0  0
 22 28  1  0  0  0
 22 32  2  0  0  0
 26 27  1  0  0  0
 28102  1  0  0  0
 28103  1  0  0  0
 29104  1  0  0  0
 29105  1  0  0  0
 33 34  1  0  0  0
 33 66  1  0  0  0
 33 70  2  0  0  0
 34 36  1  0  0  0
 34 59  1  0  0  0
 34106  1  0  0  0
 35 44  2  0  0  0
 35 45  1  0  0  0
 35 68  1  0  0  0
 36 56  1  0  0  0
 36107  1  0  0  0
 37 39  1  0  0  0
 37 47  1  0  0  0
 37 66  1  0  0  0
 37108  1  0  0  0
 38 43  2  0  0  0
 38 46  1  0  0  0
 38 47  1  0  0  0
 39 64  1  0  0  0
 39 67  2  0  0  0
 40 52  1  0  0  0
 40 53  2  0  0  0
 40 58  1  0  0  0
 41109  1  0  0  0
 41110  1  0  0  0
 41111  1  0  0  0
 41 48  1  0  0  0
 42 43  1  0  0  0
 42 66  1  0  0  0
 42112  1  0  0  0
 42113  1  0  0  0
 43 44  1  0  0  0
 44114  1  0  0  0
 45 46  2  0  0  0
 45115  1  0  0  0
 46116  1  0  0  0
 47117  1  0  0  0
 47118  1  0  0  0
 48 56  1  0  0  0
 48 65  1  0  0  0
 48119  1  0  0  0
 49 50  1  0  0  0
 49 53  1  0  0  0
 49 64  1  0  0  0
 49120  1  0  0  0
 50 51  1  0  0  0
 50121  1  0  0  0
 50122  1  0  0  0
 51 52  1  0  0  0
 51123  1  0  0  0
 51124  1  0  0  0
 52125  1  0  0  0
 52126  1  0  0  0
 53 54  1  0  0  0
 54 55  2  0  0  0
 54127  1  0  0  0
 55 57  1  0  0  0
 55128  1  0  0  0
 56 69  2  0  0  0
 57 58  2  0  0  0
 57129  1  0  0  0
 58130  1  0  0  0
 59 60  1  0  0  0
 59 61  1  0  0  0
 59 62  1  0  0  0
 60131  1  0  0  0
 60132  1  0  0  0
 60133  1  0  0  0
 61134  1  0  0  0
 61135  1  0  0  0
 61136  1  0  0  0
 62137  1  0  0  0
 62138  1  0  0  0
 62139  1  0  0  0
 63 65  1  0  0  0
 63140  1  0  0  0
 63141  1  0  0  0
 63142  1  0  0  0
 64143  1  0  0  0
 65144  1  0  0  0
 68 81  1  0  0  0
 71 73  2  0  0  0
 71 75  1  0  0  0
 71145  1  0  0  0
 72 73  1  0  0  0
 72 74  2  0  0  0
 72 78  1  0  0  0
 73 85  1  0  0  0
 74 76  1  0  0  0
 74 82  1  0  0  0
 75 79  1  0  0  0
 75 82  2  0  0  0
 76 77  1  0  0  0
 76146  1  0  0  0
 76147  1  0  0  0
 77 78  1  0  0  0
 77148  1  0  0  0
 77149  1  0  0  0
 78 84  1  0  0  0
 78150  1  0  0  0
 79 83  1  0  0  0
 79151  1  0  0  0
 79152  1  0  0  0
 80 81  1  0  0  0
 80 84  1  0  0  0
 80153  1  0  0  0
 80154  1  0  0  0
 81155  1  0  0  0
 81156  1  0  0  0
 83157  1  0  0  0
 84158  1  0  0  0
 84159  1  0  0  0
M  CHG  1  84   1
M  ISO  4   1 100  68 101  81 101  83 100
M  END
> <chiral flag>
0

> <version>
0

> <s_m_source_file>
/data/baiqing/PycharmProjects/Reinvent-master-3.2/result/LINK_invent/BTK/process_docking_weight1_custom_sum_contain_oxygen_bond_distance_aromatic_linkinvent_7_9_3/rearranged_h_0181.sdf

> <i_m_source_file_index>
50

> <r_mmod_Potential_Energy-OPLS-2005>
-455.991546630859

> <r_mmod_Stretch_Energy-OPLS-2005>
42.6997451782227

> <r_mmod_Bend_Energy-OPLS-2005>
147.649261474609

> <r_mmod_Torsional_Energy-OPLS-2005>
219.503402709961

> <r_mmod_Improper_Torsional_Energy-OPLS-2005>
2.34130525588989

> <r_mmod_Van_der_Waal_Energy-OPLS-2005>
149.231506347656

> <r_mmod_Electrostatic_Energy-OPLS-2005>
-570.050659179688

> <r_mmod_Solvation_Energy-OPLS-2005>
-463.207244873047

> <b_mmod_Minimization_Converged-OPLS-2005>
0

> <r_mmod_RMS_Derivative-OPLS-2005>
0.678407728672028

$$$$
50
                    3D
 Structure written by MMmdl.
151160  0  0  1  0            999 V2000
  -30.4190  -15.4943   20.3457 C   0  0  0  0  0  0
  -30.4140  -12.9910   19.5147 C   0  0  0  0  0  0
  -29.5315  -12.6170   18.2971 C   0  0  0  0  0  0
  -28.0992  -12.2941   18.7466 C   0  0  0  0  0  0
  -27.5927  -13.3011   19.8064 C   0  0  2  0  0  0
  -28.6205  -13.6112   20.9182 C   0  0  0  0  0  0
  -25.2323  -13.8288   20.5813 C   0  0  0  0  0  0
  -24.1703  -13.0441   20.9294 C   0  0  0  0  0  0
  -24.6399  -11.6948   20.8777 C   0  0  0  0  0  0
  -23.9109  -10.4294   21.0403 C   0  0  0  0  0  0
  -24.3653   -9.4204   21.9182 C   0  0  0  0  0  0
  -23.6310   -8.2242   22.0755 C   0  0  0  0  0  0
  -22.4289   -8.0289   21.3549 C   0  0  0  0  0  0
  -21.9933   -9.0266   20.4647 C   0  0  0  0  0  0
  -22.7281  -10.2135   20.3053 C   0  0  0  0  0  0
  -21.6857   -6.0738   22.5278 C   0  0  0  0  0  0
  -21.4024   -6.5641   23.8214 C   0  0  0  0  0  0
  -21.3663   -5.6792   24.9174 C   0  0  0  0  0  0
  -21.6041   -4.3055   24.7222 C   0  0  0  0  0  0
  -21.8819   -3.8144   23.4342 C   0  0  0  0  0  0
  -21.9192   -4.6965   22.3399 C   0  0  0  0  0  0
  -22.7713  -13.5174   21.1918 C   0  0  0  0  0  0
  -22.1656   -4.2152   21.0976 F   0  0  0  0  0  0
  -21.5625   -3.4539   25.7734 F   0  0  0  0  0  0
  -29.8038  -14.1866   20.2432 N   0  0  0  0  0  0
  -26.2758  -12.9609   20.3239 N   0  0  0  0  0  0
  -25.9342  -11.6686   20.5718 N   0  0  0  0  0  0
  -22.0370  -12.8155   22.0466 N   0  0  0  0  0  0
  -25.3934  -15.2030   20.4279 N   0  0  0  0  0  0
  -31.6520  -15.3454   20.2566 O   0  0  0  0  0  0
  -21.6646   -6.8888   21.4244 O   0  0  0  0  0  0
  -22.3392  -14.5469   20.6746 O   0  0  0  0  0  0
  -24.6766  -31.8082   23.1580 C   0  0  0  0  0  0
  -25.9382  -32.4507   23.8099 C   0  0  1  0  0  0
  -27.2184  -26.7801   20.2015 C   0  0  0  0  0  0
  -25.5988  -33.8331   24.1993 N   0  0  0  0  0  0
  -23.4978  -30.4145   21.5104 C   0  0  2  0  0  0
  -24.9516  -28.7692   20.1181 C   0  0  0  0  0  0
  -22.7726  -29.4364   22.4732 C   0  0  0  0  0  0
  -18.0334  -28.1414   22.8456 C   0  0  0  0  0  0
  -24.1497  -36.7179   23.2653 C   0  0  0  0  0  0
  -26.0747  -30.5671   21.4089 C   0  0  0  0  0  0
  -26.1404  -29.1400   20.7574 C   0  0  0  0  0  0
  -27.2642  -28.1718   20.7660 C   0  0  0  0  0  0
  -25.9955  -26.5960   19.5135 C   0  0  0  0  0  0
  -24.9128  -27.5208   19.4746 C   0  0  0  0  0  0
  -23.7465  -29.7176   20.1429 C   0  0  0  0  0  0
  -25.4144  -36.2921   24.0287 C   0  0  1  0  0  0
  -20.5965  -28.3771   23.1158 C   0  0  2  0  0  0
  -20.6801  -26.9438   22.5403 C   0  0  0  0  0  0
  -19.5778  -26.6370   21.5212 C   0  0  0  0  0  0
  -18.1961  -26.7944   22.1619 C   0  0  0  0  0  0
  -19.1595  -28.8914   23.2793 C   0  0  0  0  0  0
  -18.9506  -30.1500   23.8835 C   0  0  0  0  0  0
  -17.6495  -30.6600   24.0549 C   0  0  0  0  0  0
  -25.9114  -34.9305   23.4973 C   0  0  0  0  0  0
  -16.5385  -29.9085   23.6343 C   0  0  0  0  0  0
  -16.7312  -28.6506   23.0360 C   0  0  0  0  0  0
  -26.4579  -31.6514   25.0692 C   0  0  0  0  0  0
  -25.3663  -31.3813   26.1321 C   0  0  0  0  0  0
  -27.0497  -30.2859   24.6537 C   0  0  0  0  0  0
  -27.6036  -32.4357   25.7513 C   0  0  0  0  0  0
  -27.5562  -37.1754   24.8467 C   0  0  0  0  0  0
  -21.4377  -29.3044   22.3489 N   0  0  0  0  0  0
  -26.4277  -37.3670   23.9398 N   0  0  0  0  0  0
  -24.7727  -30.9607   22.0788 N   0  0  0  0  0  0
  -23.4205  -28.7945   23.3032 O   0  0  0  0  0  0
  -28.2073  -25.6118   20.2501 O   0  0  0  0  0  0
  -26.5742  -34.8867   22.4581 O   0  0  0  0  0  0
  -23.5806  -32.1117   23.6587 O   0  0  0  0  0  0
  -29.4193  -23.3644   20.5596 C   0  0  0  0  0  0
  -30.6688  -18.2420   20.6877 C   0  0  0  0  0  0
  -28.4903  -17.6975   20.2767 C   0  0  0  0  0  0
  -30.3502  -19.8775   20.2701 C   0  0  0  0  0  0
  -28.1920  -19.3701   19.8941 C   0  0  0  0  0  0
  -28.7846  -22.2426   19.8106 C   0  0  2  0  0  0
  -28.0055  -23.8964   20.2496 C   0  0  1  0  0  0
  -29.8590  -16.9373   20.3700 N   0  0  0  0  0  0
  -28.9860  -20.6243   20.4236 N   0  3  0  0  0  0
  -31.4183  -13.2120   19.1508 H   0  0  0  0  0  0
  -30.5377  -12.1391   20.1856 H   0  0  0  0  0  0
  -29.9595  -11.7711   17.7584 H   0  0  0  0  0  0
  -29.5154  -13.4518   17.5944 H   0  0  0  0  0  0
  -28.1056  -11.2905   19.1734 H   0  0  0  0  0  0
  -27.4257  -12.2613   17.8890 H   0  0  0  0  0  0
  -27.4622  -14.2303   19.2496 H   0  0  0  0  0  0
  -28.8573  -12.7262   21.5106 H   0  0  0  0  0  0
  -28.2128  -14.3490   21.6110 H   0  0  0  0  0  0
  -25.2788   -9.5675   22.4772 H   0  0  0  0  0  0
  -24.0008   -7.4631   22.7477 H   0  0  0  0  0  0
  -21.0859   -8.8798   19.8955 H   0  0  0  0  0  0
  -22.3734  -10.9683   19.6169 H   0  0  0  0  0  0
  -21.2028   -7.6151   23.9719 H   0  0  0  0  0  0
  -21.1481   -6.0521   25.9080 H   0  0  0  0  0  0
  -22.0592   -2.7608   23.2838 H   0  0  0  0  0  0
  -22.4002  -11.9848   22.4901 H   0  0  0  0  0  0
  -21.0975  -13.1165   22.2649 H   0  0  0  0  0  0
  -24.6252  -15.8530   20.5531 H   0  0  0  0  0  0
  -26.2434  -15.6472   20.1088 H   0  0  0  0  0  0
  -26.7456  -32.5000   23.0811 H   0  0  0  0  0  0
  -25.0046  -33.9384   25.0084 H   0  0  0  0  0  0
  -22.8193  -31.2504   21.3275 H   0  0  0  0  0  0
  -23.3763  -35.9506   23.3287 H   0  0  0  0  0  0
  -24.3563  -36.8863   22.2072 H   0  0  0  0  0  0
  -23.7259  -37.6356   23.6742 H   0  0  0  0  0  0
  -26.2685  -31.2987   20.6234 H   0  0  0  0  0  0
  -26.9295  -30.6316   22.0697 H   0  0  0  0  0  0
  -28.1641  -28.4609   21.2899 H   0  0  0  0  0  0
  -25.8404  -25.6497   19.0157 H   0  0  0  0  0  0
  -24.0122  -27.2294   18.9515 H   0  0  0  0  0  0
  -23.9178  -30.4807   19.3830 H   0  0  0  0  0  0
  -22.8519  -29.1832   19.8181 H   0  0  0  0  0  0
  -25.1352  -36.1695   25.0778 H   0  0  0  0  0  0
  -21.0050  -28.3391   24.1283 H   0  0  0  0  0  0
  -20.5669  -26.2390   23.3658 H   0  0  0  0  0  0
  -21.6665  -26.7387   22.1221 H   0  0  0  0  0  0
  -19.6936  -25.6261   21.1292 H   0  0  0  0  0  0
  -19.6723  -27.3137   20.6708 H   0  0  0  0  0  0
  -17.4228  -26.6676   21.4026 H   0  0  0  0  0  0
  -18.0359  -26.0104   22.9034 H   0  0  0  0  0  0
  -19.7979  -30.7332   24.2178 H   0  0  0  0  0  0
  -17.5046  -31.6275   24.5164 H   0  0  0  0  0  0
  -15.5383  -30.2967   23.7707 H   0  0  0  0  0  0
  -15.8711  -28.0805   22.7113 H   0  0  0  0  0  0
  -24.5859  -30.7152   25.7627 H   0  0  0  0  0  0
  -24.8840  -32.3031   26.4579 H   0  0  0  0  0  0
  -25.7857  -30.9083   27.0208 H   0  0  0  0  0  0
  -26.3194  -29.6491   24.1534 H   0  0  0  0  0  0
  -27.3954  -29.7286   25.5255 H   0  0  0  0  0  0
  -27.9163  -30.4001   24.0024 H   0  0  0  0  0  0
  -27.2573  -33.3709   26.1924 H   0  0  0  0  0  0
  -28.3936  -32.6836   25.0414 H   0  0  0  0  0  0
  -28.0601  -31.8596   26.5572 H   0  0  0  0  0  0
  -28.2567  -38.0057   24.7481 H   0  0  0  0  0  0
  -28.1069  -36.2579   24.6336 H   0  0  0  0  0  0
  -27.2270  -37.1440   25.8867 H   0  0  0  0  0  0
  -20.9660  -29.8719   21.6584 H   0  0  0  0  0  0
  -26.0112  -38.2726   24.1384 H   0  0  0  0  0  0
  -30.2459  -23.8546   20.0490 H   0  0  0  0  0  0
  -29.6237  -23.2021   21.6157 H   0  0  0  0  0  0
  -30.7603  -18.2323   21.7745 H   0  0  0  0  0  0
  -31.6841  -18.0424   20.3419 H   0  0  0  0  0  0
  -27.8891  -17.1125   19.5797 H   0  0  0  0  0  0
  -28.0201  -17.5253   21.2455 H   0  0  0  0  0  0
  -30.6191  -19.9802   19.2177 H   0  0  0  0  0  0
  -31.0846  -20.4927   20.7905 H   0  0  0  0  0  0
  -27.1430  -19.5710   20.1104 H   0  0  0  0  0  0
  -28.2512  -19.4419   18.8072 H   0  0  0  0  0  0
  -29.0277  -22.1685   18.7528 H   0  0  0  0  0  0
  -27.4083  -23.8981   19.3400 H   0  0  0  0  0  0
  -28.7959  -20.6766   21.4124 H   0  0  0  0  0  0
  1 25  1  0  0  0
  1 30  2  0  0  0
  1 78  1  0  0  0
  2  3  1  0  0  0
  2 25  1  0  0  0
  2 80  1  0  0  0
  2 81  1  0  0  0
  3  4  1  0  0  0
  3 82  1  0  0  0
  3 83  1  0  0  0
  4  5  1  0  0  0
  4 84  1  0  0  0
  4 85  1  0  0  0
  5  6  1  0  0  0
  5 26  1  0  0  0
  5 86  1  0  0  0
  6 25  1  0  0  0
  6 87  1  0  0  0
  6 88  1  0  0  0
  7  8  2  0  0  0
  7 26  1  0  0  0
  7 29  1  0  0  0
  8  9  1  0  0  0
  8 22  1  0  0  0
  9 10  1  0  0  0
  9 27  2  0  0  0
 10 11  2  0  0  0
 10 15  1  0  0  0
 11 12  1  0  0  0
 11 89  1  0  0  0
 12 13  2  0  0  0
 12 90  1  0  0  0
 13 14  1  0  0  0
 13 31  1  0  0  0
 14 15  2  0  0  0
 14 91  1  0  0  0
 15 92  1  0  0  0
 16 17  2  0  0  0
 16 21  1  0  0  0
 16 31  1  0  0  0
 17 18  1  0  0  0
 17 93  1  0  0  0
 18 19  2  0  0  0
 18 94  1  0  0  0
 19 20  1  0  0  0
 19 24  1  0  0  0
 20 21  2  0  0  0
 20 95  1  0  0  0
 21 23  1  0  0  0
 22 28  1  0  0  0
 22 32  2  0  0  0
 26 27  1  0  0  0
 28 96  1  0  0  0
 28 97  1  0  0  0
 29 98  1  0  0  0
 29 99  1  0  0  0
 33 34  1  0  0  0
 33 66  1  0  0  0
 33 70  2  0  0  0
 34 36  1  0  0  0
 34 59  1  0  0  0
 34100  1  0  0  0
 35 44  2  0  0  0
 35 45  1  0  0  0
 35 68  1  0  0  0
 36 56  1  0  0  0
 36101  1  0  0  0
 37 39  1  0  0  0
 37 47  1  0  0  0
 37 66  1  0  0  0
 37102  1  0  0  0
 38 43  2  0  0  0
 38 46  1  0  0  0
 38 47  1  0  0  0
 39 64  1  0  0  0
 39 67  2  0  0  0
 40 52  1  0  0  0
 40 53  2  0  0  0
 40 58  1  0  0  0
 41103  1  0  0  0
 41104  1  0  0  0
 41105  1  0  0  0
 41 48  1  0  0  0
 42 43  1  0  0  0
 42 66  1  0  0  0
 42106  1  0  0  0
 42107  1  0  0  0
 43 44  1  0  0  0
 44108  1  0  0  0
 45 46  2  0  0  0
 45109  1  0  0  0
 46110  1  0  0  0
 47111  1  0  0  0
 47112  1  0  0  0
 48 56  1  0  0  0
 48 65  1  0  0  0
 48113  1  0  0  0
 49 50  1  0  0  0
 49 53  1  0  0  0
 49 64  1  0  0  0
 49114  1  0  0  0
 50 51  1  0  0  0
 50115  1  0  0  0
 50116  1  0  0  0
 51 52  1  0  0  0
 51117  1  0  0  0
 51118  1  0  0  0
 52119  1  0  0  0
 52120  1  0  0  0
 53 54  1  0  0  0
 54 55  2  0  0  0
 54121  1  0  0  0
 55 57  1  0  0  0
 55122  1  0  0  0
 56 69  2  0  0  0
 57 58  2  0  0  0
 57123  1  0  0  0
 58124  1  0  0  0
 59 60  1  0  0  0
 59 61  1  0  0  0
 59 62  1  0  0  0
 60125  1  0  0  0
 60126  1  0  0  0
 60127  1  0  0  0
 61128  1  0  0  0
 61129  1  0  0  0
 61130  1  0  0  0
 62131  1  0  0  0
 62132  1  0  0  0
 62133  1  0  0  0
 63 65  1  0  0  0
 63134  1  0  0  0
 63135  1  0  0  0
 63136  1  0  0  0
 64137  1  0  0  0
 65138  1  0  0  0
 68 77  1  0  0  0
 71 77  1  0  0  0
 71139  1  0  0  0
 71140  1  0  0  0
 71 76  1  0  0  0
 72 74  1  0  0  0
 72 78  1  0  0  0
 72141  1  0  0  0
 72142  1  0  0  0
 73 75  1  0  0  0
 73 78  1  0  0  0
 73143  1  0  0  0
 73144  1  0  0  0
 74145  1  0  0  0
 74146  1  0  0  0
 74 79  1  0  0  0
 75 79  1  0  0  0
 75147  1  0  0  0
 75148  1  0  0  0
 76 77  1  0  0  0
 76 79  1  0  0  0
 76149  1  0  0  0
 77150  1  0  0  0
 79151  1  0  0  0
M  CHG  1  79   1
M  ISO  4   1 100  68 101  77 101  78 100
M  END
> <chiral flag>
0

> <version>
0

> <s_m_source_file>
/data/baiqing/PycharmProjects/Reinvent-master-3.2/result/LINK_invent/BTK/process_docking_weight1_custom_sum_contain_oxygen_bond_distance_aromatic_linkinvent_7_9_3/rearranged_h_0181.sdf

> <i_m_source_file_index>
51

> <r_mmod_Potential_Energy-OPLS-2005>
2097.94873046875

> <r_mmod_Stretch_Energy-OPLS-2005>
817.288940429688

> <r_mmod_Bend_Energy-OPLS-2005>
760.815856933594

> <r_mmod_Torsional_Energy-OPLS-2005>
391.787353515625

> <r_mmod_Improper_Torsional_Energy-OPLS-2005>
3.8243887424469

> <r_mmod_Van_der_Waal_Energy-OPLS-2005>
113.40502166748

> <r_mmod_Electrostatic_Energy-OPLS-2005>
-220.58430480957

> <r_mmod_Solvation_Energy-OPLS-2005>
-481.634674072266

> <b_mmod_Minimization_Converged-OPLS-2005>
0

> <r_mmod_RMS_Derivative-OPLS-2005>
1.05603086948395

$$$$
51
                    3D
 Structure written by MMmdl.
167176  0  0  1  0            999 V2000
  -30.5294  -15.0363   20.4179 C   0  0  0  0  0  0
  -30.4332  -12.6531   19.5027 C   0  0  0  0  0  0
  -29.5186  -12.5267   18.2656 C   0  0  0  0  0  0
  -28.0544  -12.3008   18.6894 C   0  0  0  0  0  0
  -27.6192  -13.2519   19.8355 C   0  0  2  0  0  0
  -28.6660  -13.3292   20.9635 C   0  0  0  0  0  0
  -25.2365  -13.8242   20.5748 C   0  0  0  0  0  0
  -24.1706  -13.0431   20.9265 C   0  0  0  0  0  0
  -24.6362  -11.6934   20.8816 C   0  0  0  0  0  0
  -23.9107  -10.4275   21.0445 C   0  0  0  0  0  0
  -24.3626   -9.4174   21.9236 C   0  0  0  0  0  0
  -23.6263   -8.2236   22.0791 C   0  0  0  0  0  0
  -22.4262   -8.0292   21.3560 C   0  0  0  0  0  0
  -21.9915   -9.0299   20.4677 C   0  0  0  0  0  0
  -22.7279  -10.2160   20.3100 C   0  0  0  0  0  0
  -21.6836   -6.0759   22.5299 C   0  0  0  0  0  0
  -21.4025   -6.5672   23.8254 C   0  0  0  0  0  0
  -21.3658   -5.6813   24.9199 C   0  0  0  0  0  0
  -21.6040   -4.3075   24.7227 C   0  0  0  0  0  0
  -21.8791   -3.8179   23.4357 C   0  0  0  0  0  0
  -21.9169   -4.7000   22.3410 C   0  0  0  0  0  0
  -22.7710  -13.5215   21.1844 C   0  0  0  0  0  0
  -22.1611   -4.2199   21.0978 F   0  0  0  0  0  0
  -21.5608   -3.4535   25.7742 F   0  0  0  0  0  0
  -29.9168  -13.7782   20.3396 N   0  0  0  0  0  0
  -26.2804  -12.9485   20.3277 N   0  0  0  0  0  0
  -25.9300  -11.6638   20.5816 N   0  0  0  0  0  0
  -22.0286  -12.8327   22.0404 N   0  0  0  0  0  0
  -25.3893  -15.1978   20.4183 N   0  0  0  0  0  0
  -31.7443  -15.0434   20.1817 O   0  0  0  0  0  0
  -21.6595   -6.8896   21.4275 O   0  0  0  0  0  0
  -22.3479  -14.5531   20.6635 O   0  0  0  0  0  0
  -24.6477  -31.8393   23.1827 C   0  0  0  0  0  0
  -25.9218  -32.4687   23.8240 C   0  0  1  0  0  0
  -27.2287  -27.0712   20.1483 C   0  0  0  0  0  0
  -25.5957  -33.8490   24.2142 N   0  0  0  0  0  0
  -23.4579  -30.4499   21.5311 C   0  0  2  0  0  0
  -24.9117  -28.8681   20.1089 C   0  0  0  0  0  0
  -22.7602  -29.4491   22.4865 C   0  0  0  0  0  0
  -18.0310  -28.1407   22.8472 C   0  0  0  0  0  0
  -24.1498  -36.7220   23.2640 C   0  0  0  0  0  0
  -26.0190  -30.6838   21.3995 C   0  0  0  0  0  0
  -26.0895  -29.2911   20.7362 C   0  0  0  0  0  0
  -27.2428  -28.4078   20.7437 C   0  0  0  0  0  0
  -26.0279  -26.7745   19.4665 C   0  0  0  0  0  0
  -24.8966  -27.6251   19.4589 C   0  0  0  0  0  0
  -23.6894  -29.7762   20.1527 C   0  0  0  0  0  0
  -25.4146  -36.3017   24.0297 C   0  0  1  0  0  0
  -20.5933  -28.3719   23.1236 C   0  0  2  0  0  0
  -20.6813  -26.9424   22.5407 C   0  0  0  0  0  0
  -19.5784  -26.6372   21.5223 C   0  0  0  0  0  0
  -18.1957  -26.7942   22.1618 C   0  0  0  0  0  0
  -19.1572  -28.8884   23.2838 C   0  0  0  0  0  0
  -18.9483  -30.1481   23.8871 C   0  0  0  0  0  0
  -17.6484  -30.6603   24.0549 C   0  0  0  0  0  0
  -25.9090  -34.9398   23.5027 C   0  0  0  0  0  0
  -16.5374  -29.9088   23.6356 C   0  0  0  0  0  0
  -16.7292  -28.6506   23.0372 C   0  0  0  0  0  0
  -26.4504  -31.6598   25.0716 C   0  0  0  0  0  0
  -25.3629  -31.3821   26.1363 C   0  0  0  0  0  0
  -27.0395  -30.3001   24.6353 C   0  0  0  0  0  0
  -27.6031  -32.4380   25.7489 C   0  0  0  0  0  0
  -27.5588  -37.1777   24.8467 C   0  0  0  0  0  0
  -21.4291  -29.3017   22.3598 N   0  0  0  0  0  0
  -26.4308  -37.3741   23.9394 N   0  0  0  0  0  0
  -24.7278  -31.0157   22.0919 N   0  0  0  0  0  0
  -23.4220  -28.8047   23.3043 O   0  0  0  0  0  0
  -28.2743  -26.0536   20.2509 O   0  0  0  0  0  0
  -26.5677  -34.8911   22.4610 O   0  0  0  0  0  0
  -23.5565  -32.1307   23.6980 O   0  0  0  0  0  0
  -30.8491  -17.4364   22.4201 C   0  0  0  0  0  0
  -30.2403  -17.6304   21.1377 C   0  0  0  0  0  0
  -30.2227  -19.1022   20.6868 C   0  0  0  0  0  0
  -31.8750  -18.3384   22.7974 C   0  0  0  0  0  0
  -31.4560  -19.7373   21.0080 C   0  0  0  0  0  0
  -30.8034  -15.8493   24.6720 C   0  0  0  0  0  0
  -30.7732  -14.9483   23.4708 C   0  0  0  0  0  0
  -30.2588  -16.3672   23.3483 C   0  0  0  0  0  0
  -32.6779  -18.2644   24.0834 C   0  0  0  0  0  0
  -31.9844  -20.9685   20.3054 C   0  0  0  0  0  0
  -27.8795  -21.4213   18.6653 C   0  0  0  0  0  0
  -28.7829  -23.0558   20.4993 C   0  0  0  0  0  0
  -28.1664  -24.5258   19.8126 C   0  0  0  0  0  0
  -28.9989  -21.5317   19.7070 C   0  0  1  0  0  0
  -32.2595  -19.3483   22.0062 N   0  0  0  0  0  0
  -29.8004  -16.2809   20.5336 N   0  0  0  0  0  0
  -29.1217  -20.0566   20.3229 N   0  0  0  0  0  0
  -31.4608  -12.8193   19.1808 H   0  0  0  0  0  0
  -30.4531  -11.7262   20.0793 H   0  0  0  0  0  0
  -29.8588  -11.7082   17.6313 H   0  0  0  0  0  0
  -29.5902  -13.4353   17.6670 H   0  0  0  0  0  0
  -27.9588  -11.2648   19.0253 H   0  0  0  0  0  0
  -27.3904  -12.4058   17.8326 H   0  0  0  0  0  0
  -27.5646  -14.2415   19.3845 H   0  0  0  0  0  0
  -28.7859  -12.3632   21.4581 H   0  0  0  0  0  0
  -28.3552  -14.0327   21.7353 H   0  0  0  0  0  0
  -25.2733   -9.5666   22.4876 H   0  0  0  0  0  0
  -23.9950   -7.4637   22.7547 H   0  0  0  0  0  0
  -21.0820   -8.8880   19.8989 H   0  0  0  0  0  0
  -22.3731  -10.9753   19.6257 H   0  0  0  0  0  0
  -21.2053   -7.6190   23.9790 H   0  0  0  0  0  0
  -21.1484   -6.0517   25.9109 H   0  0  0  0  0  0
  -22.0563   -2.7642   23.2833 H   0  0  0  0  0  0
  -22.3761  -12.0043   22.5020 H   0  0  0  0  0  0
  -21.0927  -13.1537   22.2491 H   0  0  0  0  0  0
  -24.6071  -15.8292   20.5549 H   0  0  0  0  0  0
  -26.2121  -15.6639   20.0604 H   0  0  0  0  0  0
  -26.7282  -32.5262   23.0955 H   0  0  0  0  0  0
  -25.0137  -33.9627   25.0310 H   0  0  0  0  0  0
  -22.7620  -31.2758   21.3709 H   0  0  0  0  0  0
  -23.3798  -35.9520   23.3299 H   0  0  0  0  0  0
  -24.3569  -36.8863   22.2059 H   0  0  0  0  0  0
  -23.7232  -37.6394   23.6691 H   0  0  0  0  0  0
  -26.1947  -31.4412   20.6346 H   0  0  0  0  0  0
  -26.8796  -30.7261   22.0556 H   0  0  0  0  0  0
  -28.1332  -28.7208   21.2676 H   0  0  0  0  0  0
  -25.9151  -25.8352   18.9471 H   0  0  0  0  0  0
  -24.0009  -27.2956   18.9497 H   0  0  0  0  0  0
  -23.8327  -30.5488   19.3957 H   0  0  0  0  0  0
  -22.8037  -29.2190   19.8404 H   0  0  0  0  0  0
  -25.1351  -36.1838   25.0794 H   0  0  0  0  0  0
  -21.0000  -28.3316   24.1368 H   0  0  0  0  0  0
  -20.5747  -26.2324   23.3618 H   0  0  0  0  0  0
  -21.6675  -26.7461   22.1187 H   0  0  0  0  0  0
  -19.6950  -25.6266   21.1290 H   0  0  0  0  0  0
  -19.6744  -27.3152   20.6730 H   0  0  0  0  0  0
  -17.4239  -26.6688   21.4009 H   0  0  0  0  0  0
  -18.0338  -26.0093   22.9016 H   0  0  0  0  0  0
  -19.7956  -30.7294   24.2244 H   0  0  0  0  0  0
  -17.5034  -31.6284   24.5123 H   0  0  0  0  0  0
  -15.5372  -30.2974   23.7690 H   0  0  0  0  0  0
  -15.8691  -28.0791   22.7138 H   0  0  0  0  0  0
  -24.5788  -30.7226   25.7621 H   0  0  0  0  0  0
  -24.8834  -32.3022   26.4716 H   0  0  0  0  0  0
  -25.7822  -30.8988   27.0191 H   0  0  0  0  0  0
  -26.3037  -29.6707   24.1342 H   0  0  0  0  0  0
  -27.3981  -29.7333   25.4948 H   0  0  0  0  0  0
  -27.8951  -30.4257   23.9720 H   0  0  0  0  0  0
  -27.2637  -33.3709   26.2004 H   0  0  0  0  0  0
  -28.3855  -32.6911   25.0318 H   0  0  0  0  0  0
  -28.0684  -31.8556   26.5447 H   0  0  0  0  0  0
  -28.2601  -38.0080   24.7528 H   0  0  0  0  0  0
  -28.1092  -36.2608   24.6294 H   0  0  0  0  0  0
  -27.2285  -37.1418   25.8865 H   0  0  0  0  0  0
  -20.9532  -29.8689   21.6726 H   0  0  0  0  0  0
  -26.0163  -38.2805   24.1411 H   0  0  0  0  0  0
  -31.8084  -16.0478   25.0228 H   0  0  0  0  0  0
  -30.0787  -15.6364   25.4559 H   0  0  0  0  0  0
  -30.0337  -14.1487   23.4562 H   0  0  0  0  0  0
  -31.7411  -14.7003   23.0453 H   0  0  0  0  0  0
  -29.1759  -16.4762   23.3175 H   0  0  0  0  0  0
  -32.0300  -18.2378   24.9610 H   0  0  0  0  0  0
  -33.3232  -19.1397   24.2001 H   0  0  0  0  0  0
  -33.3249  -17.3874   24.0681 H   0  0  0  0  0  0
  -31.8471  -20.8690   19.2317 H   0  0  0  0  0  0
  -33.0564  -21.0711   20.4776 H   0  0  0  0  0  0
  -31.5059  -21.8709   20.6766 H   0  0  0  0  0  0
  -27.8556  -22.2890   18.0070 H   0  0  0  0  0  0
  -26.9017  -21.3391   19.1414 H   0  0  0  0  0  0
  -28.0061  -20.5468   18.0246 H   0  0  0  0  0  0
  -28.1700  -22.8684   21.3796 H   0  0  0  0  0  0
  -29.7572  -23.3146   20.9069 H   0  0  0  0  0  0
  -27.1064  -24.3096   19.7157 H   0  0  0  0  0  0
  -28.5249  -24.5377   18.7818 H   0  0  0  0  0  0
  -29.8832  -21.6837   19.0920 H   0  0  0  0  0  0
  -28.8107  -16.2174   20.3559 H   0  0  0  0  0  0
  -28.2224  -19.5859   20.3006 H   0  0  0  0  0  0
  1 25  1  0  0  0
  1 30  2  0  0  0
  1 86  1  0  0  0
  2  3  1  0  0  0
  2 25  1  0  0  0
  2 88  1  0  0  0
  2 89  1  0  0  0
  3  4  1  0  0  0
  3 90  1  0  0  0
  3 91  1  0  0  0
  4  5  1  0  0  0
  4 92  1  0  0  0
  4 93  1  0  0  0
  5  6  1  0  0  0
  5 26  1  0  0  0
  5 94  1  0  0  0
  6 25  1  0  0  0
  6 95  1  0  0  0
  6 96  1  0  0  0
  7  8  2  0  0  0
  7 26  1  0  0  0
  7 29  1  0  0  0
  8  9  1  0  0  0
  8 22  1  0  0  0
  9 10  1  0  0  0
  9 27  2  0  0  0
 10 11  2  0  0  0
 10 15  1  0  0  0
 11 12  1  0  0  0
 11 97  1  0  0  0
 12 13  2  0  0  0
 12 98  1  0  0  0
 13 14  1  0  0  0
 13 31  1  0  0  0
 14 15  2  0  0  0
 14 99  1  0  0  0
 15100  1  0  0  0
 16 17  2  0  0  0
 16 21  1  0  0  0
 16 31  1  0  0  0
 17 18  1  0  0  0
 17101  1  0  0  0
 18 19  2  0  0  0
 18102  1  0  0  0
 19 20  1  0  0  0
 19 24  1  0  0  0
 20 21  2  0  0  0
 20103  1  0  0  0
 21 23  1  0  0  0
 22 28  1  0  0  0
 22 32  2  0  0  0
 26 27  1  0  0  0
 28104  1  0  0  0
 28105  1  0  0  0
 29106  1  0  0  0
 29107  1  0  0  0
 33 34  1  0  0  0
 33 66  1  0  0  0
 33 70  2  0  0  0
 34 36  1  0  0  0
 34 59  1  0  0  0
 34108  1  0  0  0
 35 44  2  0  0  0
 35 45  1  0  0  0
 35 68  1  0  0  0
 36 56  1  0  0  0
 36109  1  0  0  0
 37 39  1  0  0  0
 37 47  1  0  0  0
 37 66  1  0  0  0
 37110  1  0  0  0
 38 43  2  0  0  0
 38 46  1  0  0  0
 38 47  1  0  0  0
 39 64  1  0  0  0
 39 67  2  0  0  0
 40 52  1  0  0  0
 40 53  2  0  0  0
 40 58  1  0  0  0
 41111  1  0  0  0
 41112  1  0  0  0
 41113  1  0  0  0
 41 48  1  0  0  0
 42 43  1  0  0  0
 42 66  1  0  0  0
 42114  1  0  0  0
 42115  1  0  0  0
 43 44  1  0  0  0
 44116  1  0  0  0
 45 46  2  0  0  0
 45117  1  0  0  0
 46118  1  0  0  0
 47119  1  0  0  0
 47120  1  0  0  0
 48 56  1  0  0  0
 48 65  1  0  0  0
 48121  1  0  0  0
 49 50  1  0  0  0
 49 53  1  0  0  0
 49 64  1  0  0  0
 49122  1  0  0  0
 50 51  1  0  0  0
 50123  1  0  0  0
 50124  1  0  0  0
 51 52  1  0  0  0
 51125  1  0  0  0
 51126  1  0  0  0
 52127  1  0  0  0
 52128  1  0  0  0
 53 54  1  0  0  0
 54 55  2  0  0  0
 54129  1  0  0  0
 55 57  1  0  0  0
 55130  1  0  0  0
 56 69  2  0  0  0
 57 58  2  0  0  0
 57131  1  0  0  0
 58132  1  0  0  0
 59 60  1  0  0  0
 59 61  1  0  0  0
 59 62  1  0  0  0
 60133  1  0  0  0
 60134  1  0  0  0
 60135  1  0  0  0
 61136  1  0  0  0
 61137  1  0  0  0
 61138  1  0  0  0
 62139  1  0  0  0
 62140  1  0  0  0
 62141  1  0  0  0
 63 65  1  0  0  0
 63142  1  0  0  0
 63143  1  0  0  0
 63144  1  0  0  0
 64145  1  0  0  0
 65146  1  0  0  0
 68 83  1  0  0  0
 71 72  1  0  0  0
 71 74  2  0  0  0
 71 78  1  0  0  0
 72 73  2  0  0  0
 72 86  1  0  0  0
 73 75  1  0  0  0
 73 87  1  0  0  0
 74 79  1  0  0  0
 74 85  1  0  0  0
 75 80  1  0  0  0
 75 85  2  0  0  0
 76 77  1  0  0  0
 76 78  1  0  0  0
 76147  1  0  0  0
 76148  1  0  0  0
 77 78  1  0  0  0
 77149  1  0  0  0
 77150  1  0  0  0
 78151  1  0  0  0
 79152  1  0  0  0
 79153  1  0  0  0
 79154  1  0  0  0
 80155  1  0  0  0
 80156  1  0  0  0
 80157  1  0  0  0
 81158  1  0  0  0
 81159  1  0  0  0
 81160  1  0  0  0
 81 84  1  0  0  0
 82 83  1  0  0  0
 82 84  1  0  0  0
 82161  1  0  0  0
 82162  1  0  0  0
 83163  1  0  0  0
 83164  1  0  0  0
 84 87  1  0  0  0
 84165  1  0  0  0
 86166  1  0  0  0
 87167  1  0  0  0
M  ISO  4   1 100  68 101  83 101  86 100
M  END
> <chiral flag>
0

> <version>
0

> <s_m_source_file>
/data/baiqing/PycharmProjects/Reinvent-master-3.2/result/LINK_invent/BTK/process_docking_weight1_custom_sum_contain_oxygen_bond_distance_aromatic_linkinvent_7_9_3/rearranged_h_0181.sdf

> <i_m_source_file_index>
52

> <r_mmod_Potential_Energy-OPLS-2005>
870.815002441406

> <r_mmod_Stretch_Energy-OPLS-2005>
375.789978027344

> <r_mmod_Bend_Energy-OPLS-2005>
394.779876708984

> <r_mmod_Torsional_Energy-OPLS-2005>
423.270874023438

> <r_mmod_Improper_Torsional_Energy-OPLS-2005>
9.55555629730225

> <r_mmod_Van_der_Waal_Energy-OPLS-2005>
152.972946166992

> <r_mmod_Electrostatic_Energy-OPLS-2005>
-512.860656738281

> <r_mmod_Solvation_Energy-OPLS-2005>
-230.273162841797

> <b_mmod_Minimization_Converged-OPLS-2005>
0

> <r_mmod_RMS_Derivative-OPLS-2005>
5.31880664825439

$$$$
52
                    3D
 Structure written by MMmdl.
158167  0  0  1  0            999 V2000
  -30.4923  -15.1044   20.3962 C   0  0  0  0  0  0
  -30.4417  -12.6964   19.5091 C   0  0  0  0  0  0
  -29.5271  -12.5491   18.2693 C   0  0  0  0  0  0
  -28.0666  -12.3081   18.6929 C   0  0  0  0  0  0
  -27.6203  -13.2622   19.8302 C   0  0  2  0  0  0
  -28.6609  -13.3612   20.9652 C   0  0  0  0  0  0
  -25.2425  -13.8236   20.5737 C   0  0  0  0  0  0
  -24.1760  -13.0440   20.9249 C   0  0  0  0  0  0
  -24.6395  -11.6931   20.8763 C   0  0  0  0  0  0
  -23.9089  -10.4293   21.0409 C   0  0  0  0  0  0
  -24.3631   -9.4207   21.9187 C   0  0  0  0  0  0
  -23.6301   -8.2245   22.0755 C   0  0  0  0  0  0
  -22.4284   -8.0280   21.3544 C   0  0  0  0  0  0
  -21.9925   -9.0258   20.4647 C   0  0  0  0  0  0
  -22.7260  -10.2136   20.3058 C   0  0  0  0  0  0
  -21.6856   -6.0735   22.5276 C   0  0  0  0  0  0
  -21.4016   -6.5638   23.8208 C   0  0  0  0  0  0
  -21.3660   -5.6791   24.9170 C   0  0  0  0  0  0
  -21.6045   -4.3053   24.7222 C   0  0  0  0  0  0
  -21.8818   -3.8145   23.4343 C   0  0  0  0  0  0
  -21.9194   -4.6963   22.3400 C   0  0  0  0  0  0
  -22.7776  -13.5198   21.1895 C   0  0  0  0  0  0
  -22.1661   -4.2148   21.0979 F   0  0  0  0  0  0
  -21.5630   -3.4537   25.7736 F   0  0  0  0  0  0
  -29.9144  -13.8206   20.3503 N   0  0  0  0  0  0
  -26.2849  -12.9490   20.3237 N   0  0  0  0  0  0
  -25.9331  -11.6606   20.5739 N   0  0  0  0  0  0
  -22.0433  -12.8180   22.0452 N   0  0  0  0  0  0
  -25.4068  -15.1969   20.4158 N   0  0  0  0  0  0
  -31.7076  -15.1368   20.1665 O   0  0  0  0  0  0
  -21.6643   -6.8881   21.4239 O   0  0  0  0  0  0
  -22.3454  -14.5500   20.6739 O   0  0  0  0  0  0
  -24.6530  -31.8335   23.1789 C   0  0  0  0  0  0
  -25.9255  -32.4639   23.8222 C   0  0  1  0  0  0
  -27.2161  -27.0211   20.1817 C   0  0  0  0  0  0
  -25.5962  -33.8453   24.2131 N   0  0  0  0  0  0
  -23.4636  -30.4481   21.5259 C   0  0  2  0  0  0
  -24.9163  -28.8532   20.1142 C   0  0  0  0  0  0
  -22.7622  -29.4486   22.4815 C   0  0  0  0  0  0
  -18.0313  -28.1404   22.8468 C   0  0  0  0  0  0
  -24.1489  -36.7228   23.2647 C   0  0  0  0  0  0
  -26.0269  -30.6691   21.3983 C   0  0  0  0  0  0
  -26.0953  -29.2667   20.7477 C   0  0  0  0  0  0
  -27.2421  -28.3684   20.7650 C   0  0  0  0  0  0
  -26.0156  -26.7451   19.4903 C   0  0  0  0  0  0
  -24.8943  -27.6076   19.4691 C   0  0  0  0  0  0
  -23.6988  -29.7699   20.1495 C   0  0  0  0  0  0
  -25.4125  -36.2997   24.0309 C   0  0  1  0  0  0
  -20.5932  -28.3736   23.1208 C   0  0  2  0  0  0
  -20.6798  -26.9427   22.5403 C   0  0  0  0  0  0
  -19.5771  -26.6375   21.5219 C   0  0  0  0  0  0
  -18.1947  -26.7937   22.1622 C   0  0  0  0  0  0
  -19.1574  -28.8889   23.2826 C   0  0  0  0  0  0
  -18.9491  -30.1478   23.8856 C   0  0  0  0  0  0
  -17.6487  -30.6594   24.0554 C   0  0  0  0  0  0
  -25.9088  -34.9376   23.5039 C   0  0  0  0  0  0
  -16.5375  -29.9084   23.6342 C   0  0  0  0  0  0
  -16.7297  -28.6503   23.0359 C   0  0  0  0  0  0
  -26.4538  -31.6550   25.0716 C   0  0  0  0  0  0
  -25.3692  -31.3773   26.1392 C   0  0  0  0  0  0
  -27.0428  -30.2929   24.6392 C   0  0  0  0  0  0
  -27.6045  -32.4350   25.7509 C   0  0  0  0  0  0
  -27.5569  -37.1766   24.8465 C   0  0  0  0  0  0
  -21.4303  -29.3041   22.3566 N   0  0  0  0  0  0
  -26.4276  -37.3728   23.9414 N   0  0  0  0  0  0
  -24.7348  -31.0083   22.0884 N   0  0  0  0  0  0
  -23.4207  -28.8049   23.3022 O   0  0  0  0  0  0
  -28.2462  -25.9699   20.1963 O   0  0  0  0  0  0
  -26.5687  -34.8892   22.4629 O   0  0  0  0  0  0
  -23.5619  -32.1267   23.6929 O   0  0  0  0  0  0
  -28.9293  -23.2881   20.1390 C   0  0  0  0  0  0
  -28.5696  -21.8703   20.5352 C   0  0  0  0  0  0
  -28.0648  -24.4900   20.4410 C   0  0  0  0  0  0
  -26.6688  -22.9162   21.4222 C   0  0  0  0  0  0
  -29.0040  -19.1257   20.9705 C   0  0  0  0  0  0
  -28.0457  -18.8241   21.8623 C   0  0  0  0  0  0
  -30.3010  -18.6096   19.1043 C   0  0  0  0  0  0
  -30.1730  -20.1833   19.3007 C   0  0  0  0  0  0
  -30.0003  -17.9325   20.4599 C   0  0  2  0  0  0
  -30.2372  -23.5858   19.4293 C   0  0  0  0  0  0
  -25.3735  -22.6925   22.1726 C   0  0  0  0  0  0
  -27.3942  -21.8204   21.1839 N   0  0  0  0  0  0
  -26.9357  -24.1830   21.1014 N   0  0  0  0  0  0
  -29.2017  -20.4775   20.3648 N   0  0  0  0  0  0
  -29.7145  -16.3285   20.4978 N   0  0  0  0  0  0
  -31.4670  -12.8809   19.1858 H   0  0  0  0  0  0
  -30.4756  -11.7673   20.0808 H   0  0  0  0  0  0
  -29.8734  -11.7318   17.6354 H   0  0  0  0  0  0
  -29.5871  -13.4547   17.6637 H   0  0  0  0  0  0
  -27.9895  -11.2743   19.0312 H   0  0  0  0  0  0
  -27.3998  -12.3984   17.8342 H   0  0  0  0  0  0
  -27.5601  -14.2483   19.3684 H   0  0  0  0  0  0
  -28.7892  -12.4038   21.4727 H   0  0  0  0  0  0
  -28.3335  -14.0743   21.7235 H   0  0  0  0  0  0
  -25.2771   -9.5679   22.4767 H   0  0  0  0  0  0
  -24.0004   -7.4633   22.7472 H   0  0  0  0  0  0
  -21.0856   -8.8780   19.8948 H   0  0  0  0  0  0
  -22.3717  -10.9676   19.6166 H   0  0  0  0  0  0
  -21.2007   -7.6146   23.9712 H   0  0  0  0  0  0
  -21.1485   -6.0521   25.9075 H   0  0  0  0  0  0
  -22.0598   -2.7608   23.2844 H   0  0  0  0  0  0
  -22.4061  -11.9846   22.4841 H   0  0  0  0  0  0
  -21.1042  -13.1186   22.2655 H   0  0  0  0  0  0
  -24.6361  -15.8461   20.5281 H   0  0  0  0  0  0
  -26.2444  -15.6391   20.0614 H   0  0  0  0  0  0
  -26.7323  -32.5199   23.0943 H   0  0  0  0  0  0
  -25.0079  -33.9552   25.0259 H   0  0  0  0  0  0
  -22.7728  -31.2776   21.3613 H   0  0  0  0  0  0
  -23.3759  -35.9553   23.3293 H   0  0  0  0  0  0
  -24.3575  -36.8886   22.2067 H   0  0  0  0  0  0
  -23.7236  -37.6413   23.6704 H   0  0  0  0  0  0
  -26.1984  -31.4135   20.6193 H   0  0  0  0  0  0
  -26.8912  -30.7234   22.0484 H   0  0  0  0  0  0
  -28.1394  -28.6825   21.2787 H   0  0  0  0  0  0
  -25.9194  -25.7925   18.9894 H   0  0  0  0  0  0
  -23.9991  -27.2865   18.9549 H   0  0  0  0  0  0
  -23.8471  -30.5409   19.3927 H   0  0  0  0  0  0
  -22.8109  -29.2197   19.8329 H   0  0  0  0  0  0
  -25.1319  -36.1810   25.0800 H   0  0  0  0  0  0
  -21.0024  -28.3332   24.1331 H   0  0  0  0  0  0
  -20.5694  -26.2350   23.3630 H   0  0  0  0  0  0
  -21.6660  -26.7421   22.1202 H   0  0  0  0  0  0
  -19.6940  -25.6281   21.1265 H   0  0  0  0  0  0
  -19.6715  -27.3167   20.6735 H   0  0  0  0  0  0
  -17.4222  -26.6681   21.4018 H   0  0  0  0  0  0
  -18.0333  -26.0092   22.9029 H   0  0  0  0  0  0
  -19.7969  -30.7300   24.2211 H   0  0  0  0  0  0
  -17.5043  -31.6273   24.5161 H   0  0  0  0  0  0
  -15.5374  -30.2975   23.7693 H   0  0  0  0  0  0
  -15.8694  -28.0806   22.7109 H   0  0  0  0  0  0
  -24.5888  -30.7102   25.7711 H   0  0  0  0  0  0
  -24.8857  -32.2962   26.4715 H   0  0  0  0  0  0
  -25.7948  -30.9016   27.0235 H   0  0  0  0  0  0
  -26.3080  -29.6624   24.1377 H   0  0  0  0  0  0
  -27.3973  -29.7272   25.5017 H   0  0  0  0  0  0
  -27.9013  -30.4142   23.9786 H   0  0  0  0  0  0
  -27.2620  -33.3690   26.1979 H   0  0  0  0  0  0
  -28.3902  -32.6855   25.0368 H   0  0  0  0  0  0
  -28.0662  -31.8554   26.5511 H   0  0  0  0  0  0
  -28.2564  -38.0083   24.7525 H   0  0  0  0  0  0
  -28.1085  -36.2611   24.6273 H   0  0  0  0  0  0
  -27.2292  -37.1394   25.8869 H   0  0  0  0  0  0
  -20.9535  -29.8737   21.6715 H   0  0  0  0  0  0
  -26.0130  -38.2789   24.1430 H   0  0  0  0  0  0
  -27.9499  -17.8191   22.2481 H   0  0  0  0  0  0
  -27.3422  -19.5516   22.2349 H   0  0  0  0  0  0
  -31.2767  -18.3269   18.7078 H   0  0  0  0  0  0
  -29.5564  -18.2865   18.3762 H   0  0  0  0  0  0
  -29.8951  -20.6744   18.3677 H   0  0  0  0  0  0
  -31.1413  -20.5781   19.6086 H   0  0  0  0  0  0
  -30.8914  -18.0463   21.0805 H   0  0  0  0  0  0
  -30.8345  -22.7006   19.2390 H   0  0  0  0  0  0
  -30.8408  -24.2608   20.0369 H   0  0  0  0  0  0
  -30.0455  -24.0754   18.4737 H   0  0  0  0  0  0
  -25.0456  -21.6550   22.0988 H   0  0  0  0  0  0
  -24.5785  -23.3221   21.7731 H   0  0  0  0  0  0
  -25.5038  -22.9344   23.2272 H   0  0  0  0  0  0
  -28.7343  -16.1246   20.6218 H   0  0  0  0  0  0
  1 25  1  0  0  0
  1 30  2  0  0  0
  1 85  1  0  0  0
  2  3  1  0  0  0
  2 25  1  0  0  0
  2 86  1  0  0  0
  2 87  1  0  0  0
  3  4  1  0  0  0
  3 88  1  0  0  0
  3 89  1  0  0  0
  4  5  1  0  0  0
  4 90  1  0  0  0
  4 91  1  0  0  0
  5  6  1  0  0  0
  5 26  1  0  0  0
  5 92  1  0  0  0
  6 25  1  0  0  0
  6 93  1  0  0  0
  6 94  1  0  0  0
  7  8  2  0  0  0
  7 26  1  0  0  0
  7 29  1  0  0  0
  8  9  1  0  0  0
  8 22  1  0  0  0
  9 10  1  0  0  0
  9 27  2  0  0  0
 10 11  2  0  0  0
 10 15  1  0  0  0
 11 12  1  0  0  0
 11 95  1  0  0  0
 12 13  2  0  0  0
 12 96  1  0  0  0
 13 14  1  0  0  0
 13 31  1  0  0  0
 14 15  2  0  0  0
 14 97  1  0  0  0
 15 98  1  0  0  0
 16 17  2  0  0  0
 16 21  1  0  0  0
 16 31  1  0  0  0
 17 18  1  0  0  0
 17 99  1  0  0  0
 18 19  2  0  0  0
 18100  1  0  0  0
 19 20  1  0  0  0
 19 24  1  0  0  0
 20 21  2  0  0  0
 20101  1  0  0  0
 21 23  1  0  0  0
 22 28  1  0  0  0
 22 32  2  0  0  0
 26 27  1  0  0  0
 28102  1  0  0  0
 28103  1  0  0  0
 29104  1  0  0  0
 29105  1  0  0  0
 33 34  1  0  0  0
 33 66  1  0  0  0
 33 70  2  0  0  0
 34 36  1  0  0  0
 34 59  1  0  0  0
 34106  1  0  0  0
 35 44  2  0  0  0
 35 45  1  0  0  0
 35 68  1  0  0  0
 36 56  1  0  0  0
 36107  1  0  0  0
 37 39  1  0  0  0
 37 47  1  0  0  0
 37 66  1  0  0  0
 37108  1  0  0  0
 38 43  2  0  0  0
 38 46  1  0  0  0
 38 47  1  0  0  0
 39 64  1  0  0  0
 39 67  2  0  0  0
 40 52  1  0  0  0
 40 53  2  0  0  0
 40 58  1  0  0  0
 41109  1  0  0  0
 41110  1  0  0  0
 41111  1  0  0  0
 41 48  1  0  0  0
 42 43  1  0  0  0
 42 66  1  0  0  0
 42112  1  0  0  0
 42113  1  0  0  0
 43 44  1  0  0  0
 44114  1  0  0  0
 45 46  2  0  0  0
 45115  1  0  0  0
 46116  1  0  0  0
 47117  1  0  0  0
 47118  1  0  0  0
 48 56  1  0  0  0
 48 65  1  0  0  0
 48119  1  0  0  0
 49 50  1  0  0  0
 49 53  1  0  0  0
 49 64  1  0  0  0
 49120  1  0  0  0
 50 51  1  0  0  0
 50121  1  0  0  0
 50122  1  0  0  0
 51 52  1  0  0  0
 51123  1  0  0  0
 51124  1  0  0  0
 52125  1  0  0  0
 52126  1  0  0  0
 53 54  1  0  0  0
 54 55  2  0  0  0
 54127  1  0  0  0
 55 57  1  0  0  0
 55128  1  0  0  0
 56 69  2  0  0  0
 57 58  2  0  0  0
 57129  1  0  0  0
 58130  1  0  0  0
 59 60  1  0  0  0
 59 61  1  0  0  0
 59 62  1  0  0  0
 60131  1  0  0  0
 60132  1  0  0  0
 60133  1  0  0  0
 61134  1  0  0  0
 61135  1  0  0  0
 61136  1  0  0  0
 62137  1  0  0  0
 62138  1  0  0  0
 62139  1  0  0  0
 63 65  1  0  0  0
 63140  1  0  0  0
 63141  1  0  0  0
 63142  1  0  0  0
 64143  1  0  0  0
 65144  1  0  0  0
 68 73  1  0  0  0
 71 72  2  0  0  0
 71 73  1  0  0  0
 71 80  1  0  0  0
 72 82  1  0  0  0
 72 84  1  0  0  0
 73 83  2  0  0  0
 74 81  1  0  0  0
 74 82  2  0  0  0
 74 83  1  0  0  0
 75 76  2  0  0  0
 75 79  1  0  0  0
 75 84  1  0  0  0
 76145  1  0  0  0
 76146  1  0  0  0
 77 78  1  0  0  0
 77 79  1  0  0  0
 77147  1  0  0  0
 77148  1  0  0  0
 78 84  1  0  0  0
 78149  1  0  0  0
 78150  1  0  0  0
 79 85  1  0  0  0
 79151  1  0  0  0
 80152  1  0  0  0
 80153  1  0  0  0
 80154  1  0  0  0
 81155  1  0  0  0
 81156  1  0  0  0
 81157  1  0  0  0
 85158  1  0  0  0
M  ISO  4   1 100  68 101  73 101  85 100
M  END
> <chiral flag>
0

> <version>
0

> <s_m_source_file>
/data/baiqing/PycharmProjects/Reinvent-master-3.2/result/LINK_invent/BTK/process_docking_weight1_custom_sum_contain_oxygen_bond_distance_aromatic_linkinvent_7_9_3/rearranged_h_0181.sdf

> <i_m_source_file_index>
53

> <r_mmod_Potential_Energy-OPLS-2005>
278.879272460938

> <r_mmod_Stretch_Energy-OPLS-2005>
345.438842773438

> <r_mmod_Bend_Energy-OPLS-2005>
354.83642578125

> <r_mmod_Torsional_Energy-OPLS-2005>
203.809814453125

> <r_mmod_Improper_Torsional_Energy-OPLS-2005>
4.19411659240723

> <r_mmod_Van_der_Waal_Energy-OPLS-2005>
131.936965942383

> <r_mmod_Electrostatic_Energy-OPLS-2005>
-853.422485351562

> <r_mmod_Solvation_Energy-OPLS-2005>
-220.66130065918

> <b_mmod_Minimization_Converged-OPLS-2005>
0

> <r_mmod_RMS_Derivative-OPLS-2005>
0.947141587734222

$$$$
53
                    3D
 Structure written by MMmdl.
151160  0  0  1  0            999 V2000
  -30.5047  -15.0189   20.3904 C   0  0  0  0  0  0
  -30.4392  -12.6255   19.5288 C   0  0  0  0  0  0
  -29.5337  -12.5484   18.2757 C   0  0  0  0  0  0
  -28.0627  -12.3287   18.6776 C   0  0  0  0  0  0
  -27.6273  -13.2583   19.8400 C   0  0  2  0  0  0
  -28.6629  -13.3079   20.9857 C   0  0  0  0  0  0
  -25.2429  -13.8236   20.5686 C   0  0  0  0  0  0
  -24.1763  -13.0443   20.9228 C   0  0  0  0  0  0
  -24.6391  -11.6936   20.8741 C   0  0  0  0  0  0
  -23.9066  -10.4309   21.0394 C   0  0  0  0  0  0
  -24.3616   -9.4226   21.9176 C   0  0  0  0  0  0
  -23.6308   -8.2249   22.0749 C   0  0  0  0  0  0
  -22.4283   -8.0281   21.3545 C   0  0  0  0  0  0
  -21.9915   -9.0259   20.4638 C   0  0  0  0  0  0
  -22.7233  -10.2146   20.3048 C   0  0  0  0  0  0
  -21.6855   -6.0730   22.5279 C   0  0  0  0  0  0
  -21.4017   -6.5644   23.8214 C   0  0  0  0  0  0
  -21.3667   -5.6794   24.9180 C   0  0  0  0  0  0
  -21.6047   -4.3054   24.7225 C   0  0  0  0  0  0
  -21.8819   -3.8142   23.4346 C   0  0  0  0  0  0
  -21.9194   -4.6961   22.3400 C   0  0  0  0  0  0
  -22.7782  -13.5208   21.1895 C   0  0  0  0  0  0
  -22.1653   -4.2142   21.0978 F   0  0  0  0  0  0
  -21.5639   -3.4541   25.7740 F   0  0  0  0  0  0
  -29.9408  -13.7349   20.4010 N   0  0  0  0  0  0
  -26.2863  -12.9485   20.3223 N   0  0  0  0  0  0
  -25.9328  -11.6602   20.5717 N   0  0  0  0  0  0
  -22.0407  -12.8230   22.0457 N   0  0  0  0  0  0
  -25.4102  -15.1967   20.4087 N   0  0  0  0  0  0
  -31.6846  -15.0916   20.0297 O   0  0  0  0  0  0
  -21.6643   -6.8882   21.4240 O   0  0  0  0  0  0
  -22.3472  -14.5500   20.6715 O   0  0  0  0  0  0
  -24.6450  -31.8372   23.1801 C   0  0  0  0  0  0
  -25.9204  -32.4646   23.8224 C   0  0  1  0  0  0
  -27.2264  -27.0906   20.1578 C   0  0  0  0  0  0
  -25.5934  -33.8458   24.2133 N   0  0  0  0  0  0
  -23.4529  -30.4495   21.5254 C   0  0  2  0  0  0
  -24.9030  -28.8586   20.1067 C   0  0  0  0  0  0
  -22.7584  -29.4494   22.4836 C   0  0  0  0  0  0
  -18.0306  -28.1389   22.8468 C   0  0  0  0  0  0
  -24.1504  -36.7252   23.2647 C   0  0  0  0  0  0
  -26.0085  -30.6922   21.3873 C   0  0  0  0  0  0
  -26.0767  -29.2985   20.7289 C   0  0  0  0  0  0
  -27.2327  -28.4286   20.7376 C   0  0  0  0  0  0
  -26.0288  -26.7516   19.4966 C   0  0  0  0  0  0
  -24.8939  -27.6018   19.4738 C   0  0  0  0  0  0
  -23.6804  -29.7667   20.1485 C   0  0  0  0  0  0
  -25.4139  -36.3002   24.0305 C   0  0  1  0  0  0
  -20.5920  -28.3719   23.1235 C   0  0  2  0  0  0
  -20.6789  -26.9417   22.5408 C   0  0  0  0  0  0
  -19.5763  -26.6371   21.5217 C   0  0  0  0  0  0
  -18.1949  -26.7928   22.1627 C   0  0  0  0  0  0
  -19.1562  -28.8873   23.2841 C   0  0  0  0  0  0
  -18.9477  -30.1476   23.8860 C   0  0  0  0  0  0
  -17.6473  -30.6588   24.0558 C   0  0  0  0  0  0
  -25.9084  -34.9378   23.5037 C   0  0  0  0  0  0
  -16.5366  -29.9077   23.6334 C   0  0  0  0  0  0
  -16.7292  -28.6496   23.0351 C   0  0  0  0  0  0
  -26.4501  -31.6539   25.0695 C   0  0  0  0  0  0
  -25.3676  -31.3768   26.1393 C   0  0  0  0  0  0
  -27.0373  -30.2913   24.6349 C   0  0  0  0  0  0
  -27.6028  -32.4316   25.7482 C   0  0  0  0  0  0
  -27.5574  -37.1794   24.8467 C   0  0  0  0  0  0
  -21.4273  -29.3030   22.3590 N   0  0  0  0  0  0
  -26.4307  -37.3706   23.9376 N   0  0  0  0  0  0
  -24.7216  -31.0181   22.0852 N   0  0  0  0  0  0
  -23.4202  -28.8070   23.3030 O   0  0  0  0  0  0
  -28.3072  -26.1316   20.2669 O   0  0  0  0  0  0
  -26.5699  -34.8884   22.4636 O   0  0  0  0  0  0
  -23.5559  -32.1273   23.6999 O   0  0  0  0  0  0
  -29.2096  -21.5771   20.4862 C   0  0  0  0  0  0
  -31.0071  -20.6703   21.5290 C   0  0  0  0  0  0
  -29.6910  -19.1815   20.4783 C   0  0  0  0  0  0
  -28.5873  -24.1294   21.2780 C   0  0  0  0  0  0
  -28.2707  -22.9791   20.3945 C   0  0  1  0  0  0
  -28.4203  -24.6076   19.8393 C   0  0  1  0  0  0
  -32.2541  -20.9185   22.3503 C   0  0  0  0  0  0
  -29.6626  -17.6312   19.8670 C   0  0  0  0  0  0
  -30.3210  -21.7601   21.1916 N   0  0  0  0  0  0
  -28.8740  -20.2652   20.0835 N   0  0  0  0  0  0
  -30.7565  -19.3962   21.2366 N   0  0  0  0  0  0
  -29.7150  -16.1976   20.5742 N   0  0  0  0  0  0
  -31.4755  -12.7790   19.2260 H   0  0  0  0  0  0
  -30.4299  -11.6776   20.0703 H   0  0  0  0  0  0
  -29.8712  -11.7501   17.6151 H   0  0  0  0  0  0
  -29.6231  -13.4736   17.7053 H   0  0  0  0  0  0
  -27.9561  -11.2862   18.9784 H   0  0  0  0  0  0
  -27.4084  -12.4653   17.8156 H   0  0  0  0  0  0
  -27.5858  -14.2580   19.4076 H   0  0  0  0  0  0
  -28.7555  -12.3360   21.4717 H   0  0  0  0  0  0
  -28.3461  -14.0122   21.7565 H   0  0  0  0  0  0
  -25.2744   -9.5714   22.4770 H   0  0  0  0  0  0
  -24.0010   -7.4644   22.7478 H   0  0  0  0  0  0
  -21.0837   -8.8768   19.8967 H   0  0  0  0  0  0
  -22.3658  -10.9686   19.6170 H   0  0  0  0  0  0
  -21.2001   -7.6146   23.9719 H   0  0  0  0  0  0
  -21.1493   -6.0517   25.9085 H   0  0  0  0  0  0
  -22.0587   -2.7600   23.2841 H   0  0  0  0  0  0
  -22.3982  -11.9905   22.4889 H   0  0  0  0  0  0
  -21.1022  -13.1286   22.2610 H   0  0  0  0  0  0
  -24.6417  -15.8489   20.5165 H   0  0  0  0  0  0
  -26.2451  -15.6285   20.0353 H   0  0  0  0  0  0
  -26.7274  -32.5212   23.0950 H   0  0  0  0  0  0
  -24.9991  -33.9559   25.0217 H   0  0  0  0  0  0
  -22.7571  -31.2761   21.3645 H   0  0  0  0  0  0
  -23.3733  -35.9625   23.3354 H   0  0  0  0  0  0
  -24.3575  -36.8844   22.2055 H   0  0  0  0  0  0
  -23.7322  -37.6483   23.6672 H   0  0  0  0  0  0
  -26.1769  -31.4430   20.6149 H   0  0  0  0  0  0
  -26.8743  -30.7392   22.0365 H   0  0  0  0  0  0
  -28.1256  -28.7584   21.2505 H   0  0  0  0  0  0
  -25.9478  -25.7823   19.0276 H   0  0  0  0  0  0
  -23.9971  -27.2584   18.9767 H   0  0  0  0  0  0
  -23.8174  -30.5359   19.3872 H   0  0  0  0  0  0
  -22.7950  -29.2075   19.8410 H   0  0  0  0  0  0
  -25.1344  -36.1829   25.0801 H   0  0  0  0  0  0
  -21.0020  -28.3321   24.1357 H   0  0  0  0  0  0
  -20.5685  -26.2345   23.3635 H   0  0  0  0  0  0
  -21.6657  -26.7419   22.1214 H   0  0  0  0  0  0
  -19.6935  -25.6273   21.1266 H   0  0  0  0  0  0
  -19.6706  -27.3168   20.6740 H   0  0  0  0  0  0
  -17.4226  -26.6676   21.4022 H   0  0  0  0  0  0
  -18.0336  -26.0074   22.9019 H   0  0  0  0  0  0
  -19.7956  -30.7300   24.2211 H   0  0  0  0  0  0
  -17.5026  -31.6266   24.5169 H   0  0  0  0  0  0
  -15.5364  -30.2971   23.7668 H   0  0  0  0  0  0
  -15.8696  -28.0810   22.7073 H   0  0  0  0  0  0
  -24.5841  -30.7131   25.7712 H   0  0  0  0  0  0
  -24.8879  -32.2968   26.4748 H   0  0  0  0  0  0
  -25.7932  -30.8972   27.0219 H   0  0  0  0  0  0
  -26.3000  -29.6616   24.1354 H   0  0  0  0  0  0
  -27.3929  -29.7238   25.4959 H   0  0  0  0  0  0
  -27.8934  -30.4098   23.9708 H   0  0  0  0  0  0
  -27.2603  -33.3623   26.2025 H   0  0  0  0  0  0
  -28.3852  -32.6877   25.0324 H   0  0  0  0  0  0
  -28.0696  -31.8480   26.5425 H   0  0  0  0  0  0
  -28.2620  -38.0049   24.7417 H   0  0  0  0  0  0
  -28.1032  -36.2575   24.6416 H   0  0  0  0  0  0
  -27.2281  -37.1588   25.8867 H   0  0  0  0  0  0
  -20.9500  -29.8715   21.6735 H   0  0  0  0  0  0
  -26.0170  -38.2790   24.1300 H   0  0  0  0  0  0
  -29.5945  -24.2144   21.6785 H   0  0  0  0  0  0
  -27.8135  -24.3874   21.9973 H   0  0  0  0  0  0
  -27.2407  -22.6321   20.4278 H   0  0  0  0  0  0
  -29.2641  -24.6325   19.1532 H   0  0  0  0  0  0
  -32.2626  -21.9282   22.7629 H   0  0  0  0  0  0
  -33.1449  -20.8003   21.7336 H   0  0  0  0  0  0
  -32.3155  -20.2169   23.1810 H   0  0  0  0  0  0
  -30.4750  -17.6125   19.1392 H   0  0  0  0  0  0
  -28.7635  -17.5987   19.2525 H   0  0  0  0  0  0
  -28.8400  -16.0035   21.0362 H   0  0  0  0  0  0
  1 25  1  0  0  0
  1 30  2  0  0  0
  1 82  1  0  0  0
  2  3  1  0  0  0
  2 25  1  0  0  0
  2 83  1  0  0  0
  2 84  1  0  0  0
  3  4  1  0  0  0
  3 85  1  0  0  0
  3 86  1  0  0  0
  4  5  1  0  0  0
  4 87  1  0  0  0
  4 88  1  0  0  0
  5  6  1  0  0  0
  5 26  1  0  0  0
  5 89  1  0  0  0
  6 25  1  0  0  0
  6 90  1  0  0  0
  6 91  1  0  0  0
  7  8  2  0  0  0
  7 26  1  0  0  0
  7 29  1  0  0  0
  8  9  1  0  0  0
  8 22  1  0  0  0
  9 10  1  0  0  0
  9 27  2  0  0  0
 10 11  2  0  0  0
 10 15  1  0  0  0
 11 12  1  0  0  0
 11 92  1  0  0  0
 12 13  2  0  0  0
 12 93  1  0  0  0
 13 14  1  0  0  0
 13 31  1  0  0  0
 14 15  2  0  0  0
 14 94  1  0  0  0
 15 95  1  0  0  0
 16 17  2  0  0  0
 16 21  1  0  0  0
 16 31  1  0  0  0
 17 18  1  0  0  0
 17 96  1  0  0  0
 18 19  2  0  0  0
 18 97  1  0  0  0
 19 20  1  0  0  0
 19 24  1  0  0  0
 20 21  2  0  0  0
 20 98  1  0  0  0
 21 23  1  0  0  0
 22 28  1  0  0  0
 22 32  2  0  0  0
 26 27  1  0  0  0
 28 99  1  0  0  0
 28100  1  0  0  0
 29101  1  0  0  0
 29102  1  0  0  0
 33 34  1  0  0  0
 33 66  1  0  0  0
 33 70  2  0  0  0
 34 36  1  0  0  0
 34 59  1  0  0  0
 34103  1  0  0  0
 35 44  2  0  0  0
 35 45  1  0  0  0
 35 68  1  0  0  0
 36 56  1  0  0  0
 36104  1  0  0  0
 37 39  1  0  0  0
 37 47  1  0  0  0
 37 66  1  0  0  0
 37105  1  0  0  0
 38 43  2  0  0  0
 38 46  1  0  0  0
 38 47  1  0  0  0
 39 64  1  0  0  0
 39 67  2  0  0  0
 40 52  1  0  0  0
 40 53  2  0  0  0
 40 58  1  0  0  0
 41106  1  0  0  0
 41107  1  0  0  0
 41108  1  0  0  0
 41 48  1  0  0  0
 42 43  1  0  0  0
 42 66  1  0  0  0
 42109  1  0  0  0
 42110  1  0  0  0
 43 44  1  0  0  0
 44111  1  0  0  0
 45 46  2  0  0  0
 45112  1  0  0  0
 46113  1  0  0  0
 47114  1  0  0  0
 47115  1  0  0  0
 48 56  1  0  0  0
 48 65  1  0  0  0
 48116  1  0  0  0
 49 50  1  0  0  0
 49 53  1  0  0  0
 49 64  1  0  0  0
 49117  1  0  0  0
 50 51  1  0  0  0
 50118  1  0  0  0
 50119  1  0  0  0
 51 52  1  0  0  0
 51120  1  0  0  0
 51121  1  0  0  0
 52122  1  0  0  0
 52123  1  0  0  0
 53 54  1  0  0  0
 54 55  2  0  0  0
 54124  1  0  0  0
 55 57  1  0  0  0
 55125  1  0  0  0
 56 69  2  0  0  0
 57 58  2  0  0  0
 57126  1  0  0  0
 58127  1  0  0  0
 59 60  1  0  0  0
 59 61  1  0  0  0
 59 62  1  0  0  0
 60128  1  0  0  0
 60129  1  0  0  0
 60130  1  0  0  0
 61131  1  0  0  0
 61132  1  0  0  0
 61133  1  0  0  0
 62134  1  0  0  0
 62135  1  0  0  0
 62136  1  0  0  0
 63 65  1  0  0  0
 63137  1  0  0  0
 63138  1  0  0  0
 63139  1  0  0  0
 64140  1  0  0  0
 65141  1  0  0  0
 68 76  1  0  0  0
 71 79  1  0  0  0
 71 80  2  0  0  0
 71 75  1  0  0  0
 72 77  1  0  0  0
 72 79  2  0  0  0
 72 81  1  0  0  0
 73 78  1  0  0  0
 73 80  1  0  0  0
 73 81  2  0  0  0
 74 75  1  0  0  0
 74 76  1  0  0  0
 74142  1  0  0  0
 74143  1  0  0  0
 75 76  1  0  0  0
 75144  1  0  0  0
 76145  1  0  0  0
 77146  1  0  0  0
 77147  1  0  0  0
 77148  1  0  0  0
 78 82  1  0  0  0
 78149  1  0  0  0
 78150  1  0  0  0
 82151  1  0  0  0
M  ISO  4   1 100  68 101  76 101  82 100
M  END
> <chiral flag>
0

> <version>
0

> <s_m_source_file>
/data/baiqing/PycharmProjects/Reinvent-master-3.2/result/LINK_invent/BTK/process_docking_weight1_custom_sum_contain_oxygen_bond_distance_aromatic_linkinvent_7_9_3/rearranged_h_0181.sdf

> <i_m_source_file_index>
54

> <r_mmod_Potential_Energy-OPLS-2005>
-53.9691390991211

> <r_mmod_Stretch_Energy-OPLS-2005>
327.841064453125

> <r_mmod_Bend_Energy-OPLS-2005>
398.051879882812

> <r_mmod_Torsional_Energy-OPLS-2005>
223.307861328125

> <r_mmod_Improper_Torsional_Energy-OPLS-2005>
8.08716106414795

> <r_mmod_Van_der_Waal_Energy-OPLS-2005>
143.271041870117

> <r_mmod_Electrostatic_Energy-OPLS-2005>
-1134.55529785156

> <r_mmod_Solvation_Energy-OPLS-2005>
-257.407470703125

> <b_mmod_Minimization_Converged-OPLS-2005>
0

> <r_mmod_RMS_Derivative-OPLS-2005>
2.15951657295227

$$$$
54
                    3D
 Structure written by MMmdl.
154163  0  0  1  0            999 V2000
  -30.5748  -14.9083   20.3706 C   0  0  0  0  0  0
  -30.4260  -12.5555   19.4742 C   0  0  0  0  0  0
  -29.5102  -12.5170   18.2290 C   0  0  0  0  0  0
  -28.0441  -12.3050   18.6598 C   0  0  0  0  0  0
  -27.6271  -13.2379   19.8237 C   0  0  2  0  0  0
  -28.6704  -13.2945   20.9555 C   0  0  0  0  0  0
  -25.2472  -13.8194   20.5664 C   0  0  0  0  0  0
  -24.1787  -13.0418   20.9211 C   0  0  0  0  0  0
  -24.6385  -11.6888   20.8718 C   0  0  0  0  0  0
  -23.9088  -10.4258   21.0384 C   0  0  0  0  0  0
  -24.3625   -9.4179   21.9159 C   0  0  0  0  0  0
  -23.6262   -8.2223   22.0768 C   0  0  0  0  0  0
  -22.4237   -8.0272   21.3560 C   0  0  0  0  0  0
  -21.9872   -9.0256   20.4651 C   0  0  0  0  0  0
  -22.7243  -10.2107   20.3047 C   0  0  0  0  0  0
  -21.6882   -6.0682   22.5255 C   0  0  0  0  0  0
  -21.4028   -6.5598   23.8167 C   0  0  0  0  0  0
  -21.3666   -5.6772   24.9141 C   0  0  0  0  0  0
  -21.6030   -4.3028   24.7236 C   0  0  0  0  0  0
  -21.8826   -3.8097   23.4360 C   0  0  0  0  0  0
  -21.9211   -4.6899   22.3397 C   0  0  0  0  0  0
  -22.7831  -13.5200   21.1898 C   0  0  0  0  0  0
  -22.1689   -4.2057   21.1000 F   0  0  0  0  0  0
  -21.5631   -3.4531   25.7759 F   0  0  0  0  0  0
  -29.9434  -13.6746   20.3301 N   0  0  0  0  0  0
  -26.2880  -12.9407   20.3179 N   0  0  0  0  0  0
  -25.9315  -11.6548   20.5690 N   0  0  0  0  0  0
  -22.0479  -12.8191   22.0453 N   0  0  0  0  0  0
  -25.4171  -15.1899   20.3965 N   0  0  0  0  0  0
  -31.7927  -14.9149   20.1599 O   0  0  0  0  0  0
  -21.6655   -6.8823   21.4208 O   0  0  0  0  0  0
  -22.3531  -14.5509   20.6776 O   0  0  0  0  0  0
  -24.6438  -31.8482   23.1876 C   0  0  0  0  0  0
  -25.9219  -32.4696   23.8270 C   0  0  1  0  0  0
  -27.1918  -27.1688   20.1294 C   0  0  0  0  0  0
  -25.5989  -33.8501   24.2202 N   0  0  0  0  0  0
  -23.4440  -30.4688   21.5319 C   0  0  2  0  0  0
  -24.8850  -28.9023   20.1081 C   0  0  0  0  0  0
  -22.7575  -29.4577   22.4855 C   0  0  0  0  0  0
  -18.0338  -28.1369   22.8476 C   0  0  0  0  0  0
  -24.1492  -36.7264   23.2642 C   0  0  0  0  0  0
  -25.9971  -30.7334   21.3797 C   0  0  0  0  0  0
  -26.0652  -29.3464   20.7188 C   0  0  0  0  0  0
  -27.2300  -28.4961   20.7092 C   0  0  0  0  0  0
  -25.9869  -26.8150   19.4943 C   0  0  0  0  0  0
  -24.8555  -27.6478   19.4847 C   0  0  0  0  0  0
  -23.6645  -29.8012   20.1482 C   0  0  0  0  0  0
  -25.4121  -36.3049   24.0313 C   0  0  1  0  0  0
  -20.5949  -28.3715   23.1227 C   0  0  2  0  0  0
  -20.6864  -26.9442   22.5361 C   0  0  0  0  0  0
  -19.5862  -26.6468   21.5161 C   0  0  0  0  0  0
  -18.2001  -26.7955   22.1537 C   0  0  0  0  0  0
  -19.1583  -28.8839   23.2888 C   0  0  0  0  0  0
  -18.9496  -30.1426   23.8937 C   0  0  0  0  0  0
  -17.6493  -30.6555   24.0585 C   0  0  0  0  0  0
  -25.9067  -34.9422   23.5059 C   0  0  0  0  0  0
  -16.5397  -29.9025   23.6342 C   0  0  0  0  0  0
  -16.7329  -28.6448   23.0361 C   0  0  0  0  0  0
  -26.4522  -31.6582   25.0739 C   0  0  0  0  0  0
  -25.3710  -31.3795   26.1454 C   0  0  0  0  0  0
  -27.0396  -30.2986   24.6324 C   0  0  0  0  0  0
  -27.6049  -32.4363   25.7532 C   0  0  0  0  0  0
  -27.5570  -37.1782   24.8459 C   0  0  0  0  0  0
  -21.4264  -29.3075   22.3629 N   0  0  0  0  0  0
  -26.4287  -37.3747   23.9394 N   0  0  0  0  0  0
  -24.7145  -31.0366   22.0890 N   0  0  0  0  0  0
  -23.4238  -28.8111   23.2981 O   0  0  0  0  0  0
  -28.2226  -26.1801   20.1237 O   0  0  0  0  0  0
  -26.5637  -34.8923   22.4633 O   0  0  0  0  0  0
  -23.5565  -32.1354   23.7090 O   0  0  0  0  0  0
  -28.5075  -22.0192   20.3461 C   0  0  0  0  0  0
  -28.2501  -23.3567   19.7826 C   0  0  0  0  0  0
  -28.5599  -20.8310   19.5001 C   0  0  0  0  0  0
  -28.0851  -22.2792   17.7322 C   0  0  0  0  0  0
  -28.8353  -16.9415   20.8688 C   0  0  0  0  0  0
  -30.2655  -17.3676   19.4042 C   0  0  0  0  0  0
  -29.4681  -18.3166   20.3760 C   0  0  0  0  0  0
  -27.6888  -22.3890   16.2639 C   0  0  0  0  0  0
  -27.9057  -24.7399   20.5871 C   0  0  0  0  0  0
  -28.0531  -23.4106   18.4444 N   0  0  0  0  0  0
  -28.3249  -21.0468   18.1929 N   0  0  0  0  0  0
  -29.8633  -16.1210   20.1486 N   0  0  0  0  0  0
  -28.5189  -19.3948   19.8057 N   0  0  0  0  0  0
  -31.4701  -12.6764   19.1761 H   0  0  0  0  0  0
  -30.3862  -11.6134   20.0189 H   0  0  0  0  0  0
  -29.8217  -11.7236   17.5415 H   0  0  0  0  0  0
  -29.6077  -13.4580   17.6861 H   0  0  0  0  0  0
  -27.9379  -11.2649   18.9726 H   0  0  0  0  0  0
  -27.3628  -12.4338   17.8140 H   0  0  0  0  0  0
  -27.5833  -14.2375   19.3882 H   0  0  0  0  0  0
  -28.7546  -12.3419   21.4758 H   0  0  0  0  0  0
  -28.3696  -14.0381   21.6980 H   0  0  0  0  0  0
  -25.2788   -9.5645   22.4716 H   0  0  0  0  0  0
  -23.9933   -7.4603   22.7513 H   0  0  0  0  0  0
  -21.0784   -8.8814   19.8942 H   0  0  0  0  0  0
  -22.3736  -10.9637   19.6137 H   0  0  0  0  0  0
  -21.2042   -7.6109   23.9641 H   0  0  0  0  0  0
  -21.1492   -6.0515   25.9034 H   0  0  0  0  0  0
  -22.0606   -2.7551   23.2911 H   0  0  0  0  0  0
  -22.4154  -11.9828   22.4721 H   0  0  0  0  0  0
  -21.1067  -13.1142   22.2677 H   0  0  0  0  0  0
  -24.6395  -15.8394   20.4598 H   0  0  0  0  0  0
  -26.2532  -15.6006   20.0053 H   0  0  0  0  0  0
  -26.7305  -32.5307   23.1014 H   0  0  0  0  0  0
  -25.0189  -33.9614   25.0392 H   0  0  0  0  0  0
  -22.7465  -31.2953   21.3768 H   0  0  0  0  0  0
  -23.3767  -35.9575   23.3303 H   0  0  0  0  0  0
  -24.3594  -36.8897   22.2060 H   0  0  0  0  0  0
  -23.7244  -37.6447   23.6688 H   0  0  0  0  0  0
  -26.1588  -31.4941   20.6128 H   0  0  0  0  0  0
  -26.8669  -30.7751   22.0217 H   0  0  0  0  0  0
  -28.1358  -28.8311   21.1941 H   0  0  0  0  0  0
  -25.9128  -25.8483   19.0116 H   0  0  0  0  0  0
  -23.9524  -27.3023   18.9992 H   0  0  0  0  0  0
  -23.7980  -30.5753   19.3928 H   0  0  0  0  0  0
  -22.7826  -29.2355   19.8440 H   0  0  0  0  0  0
  -25.1293  -36.1870   25.0792 H   0  0  0  0  0  0
  -21.0059  -28.3313   24.1338 H   0  0  0  0  0  0
  -20.5767  -26.2304   23.3529 H   0  0  0  0  0  0
  -21.6701  -26.7475   22.1094 H   0  0  0  0  0  0
  -19.7133  -25.6435   21.1071 H   0  0  0  0  0  0
  -19.6831  -27.3368   20.6751 H   0  0  0  0  0  0
  -18.0349  -26.0051   22.8817 H   0  0  0  0  0  0
  -17.4314  -26.6784   21.3868 H   0  0  0  0  0  0
  -19.7997  -30.7229   24.2293 H   0  0  0  0  0  0
  -17.5041  -31.6243   24.5139 H   0  0  0  0  0  0
  -15.5383  -30.2923   23.7585 H   0  0  0  0  0  0
  -15.8757  -28.0777   22.6988 H   0  0  0  0  0  0
  -24.5846  -30.7185   25.7788 H   0  0  0  0  0  0
  -24.8973  -32.3004   26.4868 H   0  0  0  0  0  0
  -25.8015  -30.8971   27.0244 H   0  0  0  0  0  0
  -26.3029  -29.6714   24.1294 H   0  0  0  0  0  0
  -27.3974  -29.7279   25.4898 H   0  0  0  0  0  0
  -27.8942  -30.4222   23.9671 H   0  0  0  0  0  0
  -27.2599  -33.3648   26.2084 H   0  0  0  0  0  0
  -28.3870  -32.6947   25.0392 H   0  0  0  0  0  0
  -28.0706  -31.8533   26.5477 H   0  0  0  0  0  0
  -28.2560  -38.0096   24.7473 H   0  0  0  0  0  0
  -28.1074  -36.2614   24.6290 H   0  0  0  0  0  0
  -27.2288  -37.1438   25.8862 H   0  0  0  0  0  0
  -20.9475  -29.8828   21.6845 H   0  0  0  0  0  0
  -26.0167  -38.2808   24.1398 H   0  0  0  0  0  0
  -28.5616  -21.9025   21.4231 H   0  0  0  0  0  0
  -27.8260  -16.7836   20.4931 H   0  0  0  0  0  0
  -28.8568  -16.8289   21.9561 H   0  0  0  0  0  0
  -31.3353  -17.5768   19.4116 H   0  0  0  0  0  0
  -29.8947  -17.3776   18.3786 H   0  0  0  0  0  0
  -30.1211  -18.7401   21.1404 H   0  0  0  0  0  0
  -27.7136  -23.4198   15.9125 H   0  0  0  0  0  0
  -26.6760  -22.0093   16.1078 H   0  0  0  0  0  0
  -28.3541  -21.8155   15.6154 H   0  0  0  0  0  0
  -28.3318  -24.6332   21.5859 H   0  0  0  0  0  0
  -26.8317  -24.6758   20.7709 H   0  0  0  0  0  0
  -28.0415  -18.9728   19.0180 H   0  0  0  0  0  0
  1 25  1  0  0  0
  1 30  2  0  0  0
  1 82  1  0  0  0
  2  3  1  0  0  0
  2 25  1  0  0  0
  2 84  1  0  0  0
  2 85  1  0  0  0
  3  4  1  0  0  0
  3 86  1  0  0  0
  3 87  1  0  0  0
  4  5  1  0  0  0
  4 88  1  0  0  0
  4 89  1  0  0  0
  5  6  1  0  0  0
  5 26  1  0  0  0
  5 90  1  0  0  0
  6 25  1  0  0  0
  6 91  1  0  0  0
  6 92  1  0  0  0
  7  8  2  0  0  0
  7 26  1  0  0  0
  7 29  1  0  0  0
  8  9  1  0  0  0
  8 22  1  0  0  0
  9 10  1  0  0  0
  9 27  2  0  0  0
 10 11  2  0  0  0
 10 15  1  0  0  0
 11 12  1  0  0  0
 11 93  1  0  0  0
 12 13  2  0  0  0
 12 94  1  0  0  0
 13 14  1  0  0  0
 13 31  1  0  0  0
 14 15  2  0  0  0
 14 95  1  0  0  0
 15 96  1  0  0  0
 16 17  2  0  0  0
 16 21  1  0  0  0
 16 31  1  0  0  0
 17 18  1  0  0  0
 17 97  1  0  0  0
 18 19  2  0  0  0
 18 98  1  0  0  0
 19 20  1  0  0  0
 19 24  1  0  0  0
 20 21  2  0  0  0
 20 99  1  0  0  0
 21 23  1  0  0  0
 22 28  1  0  0  0
 22 32  2  0  0  0
 26 27  1  0  0  0
 28100  1  0  0  0
 28101  1  0  0  0
 29102  1  0  0  0
 29103  1  0  0  0
 33 34  1  0  0  0
 33 66  1  0  0  0
 33 70  2  0  0  0
 34 36  1  0  0  0
 34 59  1  0  0  0
 34104  1  0  0  0
 35 44  2  0  0  0
 35 45  1  0  0  0
 35 68  1  0  0  0
 36 56  1  0  0  0
 36105  1  0  0  0
 37 39  1  0  0  0
 37 47  1  0  0  0
 37 66  1  0  0  0
 37106  1  0  0  0
 38 43  2  0  0  0
 38 46  1  0  0  0
 38 47  1  0  0  0
 39 64  1  0  0  0
 39 67  2  0  0  0
 40 52  1  0  0  0
 40 53  2  0  0  0
 40 58  1  0  0  0
 41107  1  0  0  0
 41108  1  0  0  0
 41109  1  0  0  0
 41 48  1  0  0  0
 42 43  1  0  0  0
 42 66  1  0  0  0
 42110  1  0  0  0
 42111  1  0  0  0
 43 44  1  0  0  0
 44112  1  0  0  0
 45 46  2  0  0  0
 45113  1  0  0  0
 46114  1  0  0  0
 47115  1  0  0  0
 47116  1  0  0  0
 48 56  1  0  0  0
 48 65  1  0  0  0
 48117  1  0  0  0
 49 50  1  0  0  0
 49 53  1  0  0  0
 49 64  1  0  0  0
 49118  1  0  0  0
 50 51  1  0  0  0
 50119  1  0  0  0
 50120  1  0  0  0
 51 52  1  0  0  0
 51121  1  0  0  0
 51122  1  0  0  0
 52123  1  0  0  0
 52124  1  0  0  0
 53 54  1  0  0  0
 54 55  2  0  0  0
 54125  1  0  0  0
 55 57  1  0  0  0
 55126  1  0  0  0
 56 69  2  0  0  0
 57 58  2  0  0  0
 57127  1  0  0  0
 58128  1  0  0  0
 59 60  1  0  0  0
 59 61  1  0  0  0
 59 62  1  0  0  0
 60129  1  0  0  0
 60130  1  0  0  0
 60131  1  0  0  0
 61132  1  0  0  0
 61133  1  0  0  0
 61134  1  0  0  0
 62135  1  0  0  0
 62136  1  0  0  0
 62137  1  0  0  0
 63 65  1  0  0  0
 63138  1  0  0  0
 63139  1  0  0  0
 63140  1  0  0  0
 64141  1  0  0  0
 65142  1  0  0  0
 68 79  1  0  0  0
 71 72  2  0  0  0
 71 73  1  0  0  0
 71143  1  0  0  0
 72 79  1  0  0  0
 72 80  1  0  0  0
 73 81  2  0  0  0
 73 83  1  0  0  0
 74 78  1  0  0  0
 74 80  2  0  0  0
 74 81  1  0  0  0
 75 77  1  0  0  0
 75 82  1  0  0  0
 75144  1  0  0  0
 75145  1  0  0  0
 76 77  1  0  0  0
 76 82  1  0  0  0
 76146  1  0  0  0
 76147  1  0  0  0
 77 83  1  0  0  0
 77148  1  0  0  0
 78149  1  0  0  0
 78150  1  0  0  0
 78151  1  0  0  0
 79152  1  0  0  0
 79153  1  0  0  0
 83154  1  0  0  0
M  ISO  4   1 100  68 101  79 101  82 100
M  END
> <chiral flag>
0

> <version>
0

> <s_m_source_file>
/data/baiqing/PycharmProjects/Reinvent-master-3.2/result/LINK_invent/BTK/process_docking_weight1_custom_sum_contain_oxygen_bond_distance_aromatic_linkinvent_7_9_3/rearranged_h_0181.sdf

> <i_m_source_file_index>
55

> <r_mmod_Potential_Energy-OPLS-2005>
0.837464272975922

> <r_mmod_Stretch_Energy-OPLS-2005>
176.56201171875

> <r_mmod_Bend_Energy-OPLS-2005>
284.3203125

> <r_mmod_Torsional_Energy-OPLS-2005>
306.628845214844

> <r_mmod_Improper_Torsional_Energy-OPLS-2005>
26.0135822296143

> <r_mmod_Van_der_Waal_Energy-OPLS-2005>
130.300201416016

> <r_mmod_Electrostatic_Energy-OPLS-2005>
-861.035339355469

> <r_mmod_Solvation_Energy-OPLS-2005>
-233.654495239258

> <b_mmod_Minimization_Converged-OPLS-2005>
0

> <r_mmod_RMS_Derivative-OPLS-2005>
6.9321117401123

$$$$
55
                    3D
 Structure written by MMmdl.
171180  0  0  1  0            999 V2000
  -30.4116  -15.3471   20.3972 C   0  0  0  0  0  0
  -30.4291  -12.8588   19.5542 C   0  0  0  0  0  0
  -29.5353  -12.5963   18.3126 C   0  0  0  0  0  0
  -28.0913  -12.3019   18.7428 C   0  0  0  0  0  0
  -27.6091  -13.2825   19.8382 C   0  0  2  0  0  0
  -28.6345  -13.4899   20.9760 C   0  0  0  0  0  0
  -25.2352  -13.8260   20.5747 C   0  0  0  0  0  0
  -24.1715  -13.0423   20.9282 C   0  0  0  0  0  0
  -24.6406  -11.6934   20.8790 C   0  0  0  0  0  0
  -23.9109  -10.4282   21.0426 C   0  0  0  0  0  0
  -24.3644   -9.4204   21.9209 C   0  0  0  0  0  0
  -23.6305   -8.2246   22.0785 C   0  0  0  0  0  0
  -22.4282   -8.0298   21.3566 C   0  0  0  0  0  0
  -21.9924   -9.0280   20.4678 C   0  0  0  0  0  0
  -22.7279  -10.2152   20.3086 C   0  0  0  0  0  0
  -21.6876   -6.0748   22.5294 C   0  0  0  0  0  0
  -21.4030   -6.5651   23.8228 C   0  0  0  0  0  0
  -21.3648   -5.6806   24.9185 C   0  0  0  0  0  0
  -21.6033   -4.3064   24.7238 C   0  0  0  0  0  0
  -21.8817   -3.8160   23.4357 C   0  0  0  0  0  0
  -21.9193   -4.6970   22.3412 C   0  0  0  0  0  0
  -22.7751  -13.5188   21.1933 C   0  0  0  0  0  0
  -22.1664   -4.2139   21.0992 F   0  0  0  0  0  0
  -21.5620   -3.4553   25.7756 F   0  0  0  0  0  0
  -29.8631  -14.0197   20.3576 N   0  0  0  0  0  0
  -26.2792  -12.9549   20.3303 N   0  0  0  0  0  0
  -25.9340  -11.6643   20.5779 N   0  0  0  0  0  0
  -22.0429  -12.8132   22.0502 N   0  0  0  0  0  0
  -25.3936  -15.1990   20.4133 N   0  0  0  0  0  0
  -31.6242  -15.3432   20.1291 O   0  0  0  0  0  0
  -21.6655   -6.8880   21.4263 O   0  0  0  0  0  0
  -22.3406  -14.5488   20.6826 O   0  0  0  0  0  0
  -24.6689  -31.8140   23.1565 C   0  0  0  0  0  0
  -25.9349  -32.4533   23.8084 C   0  0  1  0  0  0
  -27.2157  -26.8324   20.2234 C   0  0  0  0  0  0
  -25.5983  -33.8354   24.2002 N   0  0  0  0  0  0
  -23.4890  -30.4177   21.5038 C   0  0  2  0  0  0
  -24.9476  -28.7837   20.1118 C   0  0  0  0  0  0
  -22.7655  -29.4390   22.4683 C   0  0  0  0  0  0
  -18.0300  -28.1383   22.8415 C   0  0  0  0  0  0
  -24.1519  -36.7220   23.2637 C   0  0  0  0  0  0
  -26.0612  -30.5884   21.4105 C   0  0  0  0  0  0
  -26.1280  -29.1671   20.7591 C   0  0  0  0  0  0
  -27.2497  -28.2112   20.7932 C   0  0  0  0  0  0
  -26.0156  -26.6281   19.5019 C   0  0  0  0  0  0
  -24.9222  -27.5388   19.4616 C   0  0  0  0  0  0
  -23.7381  -29.7223   20.1366 C   0  0  0  0  0  0
  -25.4146  -36.2942   24.0292 C   0  0  1  0  0  0
  -20.5938  -28.3746   23.1161 C   0  0  2  0  0  0
  -20.6765  -26.9422   22.5344 C   0  0  0  0  0  0
  -19.5741  -26.6481   21.5089 C   0  0  0  0  0  0
  -18.1927  -26.7957   22.1484 C   0  0  0  0  0  0
  -19.1566  -28.8855   23.2818 C   0  0  0  0  0  0
  -18.9449  -30.1422   23.8887 C   0  0  0  0  0  0
  -17.6434  -30.6538   24.0572 C   0  0  0  0  0  0
  -25.9089  -34.9318   23.4969 C   0  0  0  0  0  0
  -16.5340  -29.9045   23.6285 C   0  0  0  0  0  0
  -16.7273  -28.6471   23.0311 C   0  0  0  0  0  0
  -26.4523  -31.6482   25.0662 C   0  0  0  0  0  0
  -25.3624  -31.3845   26.1315 C   0  0  0  0  0  0
  -27.0389  -30.2813   24.6483 C   0  0  0  0  0  0
  -27.5997  -32.4304   25.7458 C   0  0  0  0  0  0
  -27.5583  -37.1761   24.8444 C   0  0  0  0  0  0
  -21.4308  -29.3045   22.3453 N   0  0  0  0  0  0
  -26.4287  -37.3677   23.9386 N   0  0  0  0  0  0
  -24.7604  -30.9699   22.0755 N   0  0  0  0  0  0
  -23.4141  -28.7967   23.2978 O   0  0  0  0  0  0
  -28.1822  -25.6806   20.4031 O   0  0  0  0  0  0
  -26.5700  -34.8858   22.4568 O   0  0  0  0  0  0
  -23.5741  -32.1179   23.6576 O   0  0  0  0  0  0
  -27.2370  -20.8396   22.3616 C   0  0  0  0  0  0
  -28.0912  -19.7472   21.9445 C   0  0  0  0  0  0
  -27.3828  -22.1648   21.7637 C   0  0  0  0  0  0
  -28.9300  -19.7997   20.7978 C   0  0  0  0  0  0
  -28.2807  -22.4309   20.6789 C   0  0  0  0  0  0
  -28.0335  -18.9857   24.3358 C   0  0  0  0  0  0
  -28.2485  -18.5452   22.8885 C   0  0  1  0  0  0
  -26.1239  -20.4088   23.4161 C   0  0  0  0  0  0
  -26.5701  -23.3613   22.2567 C   0  0  0  0  0  0
  -27.4718  -17.2577   22.5321 C   0  0  0  0  0  0
  -25.1294  -21.4669   23.9875 C   0  0  0  0  0  0
  -25.1135  -19.5223   22.6400 C   0  0  0  0  0  0
  -26.6871  -20.2237   25.9155 C   0  0  0  0  0  0
  -29.8393  -18.3211   20.3499 C   0  0  0  0  0  0
  -28.2246  -24.0591   19.9060 C   0  0  0  0  0  0
  -28.9744  -21.1801   20.2336 N   0  0  0  0  0  0
  -29.6478  -16.6343   20.5406 N   0  0  0  0  0  0
  -26.7063  -19.6037   24.5613 N   0  3  2  0  0  0
  -31.4482  -13.0548   19.2240 H   0  0  0  0  0  0
  -30.4970  -11.9553   20.1635 H   0  0  0  0  0  0
  -29.9227  -11.7646   17.7214 H   0  0  0  0  0  0
  -29.5548  -13.4735   17.6645 H   0  0  0  0  0  0
  -28.0671  -11.2845   19.1375 H   0  0  0  0  0  0
  -27.4126  -12.3172   17.8891 H   0  0  0  0  0  0
  -27.5161  -14.2415   19.3323 H   0  0  0  0  0  0
  -28.8119  -12.5702   21.5351 H   0  0  0  0  0  0
  -28.2484  -14.2143   21.6933 H   0  0  0  0  0  0
  -25.2784   -9.5675   22.4787 H   0  0  0  0  0  0
  -24.0024   -7.4631   22.7508 H   0  0  0  0  0  0
  -21.0852   -8.8817   19.8966 H   0  0  0  0  0  0
  -22.3756  -10.9707   19.6198 H   0  0  0  0  0  0
  -21.2053   -7.6158   23.9726 H   0  0  0  0  0  0
  -21.1462   -6.0535   25.9079 H   0  0  0  0  0  0
  -22.0592   -2.7615   23.2878 H   0  0  0  0  0  0
  -22.4068  -11.9744   22.4758 H   0  0  0  0  0  0
  -21.1090  -13.1195   22.2817 H   0  0  0  0  0  0
  -24.6122  -15.8342   20.5240 H   0  0  0  0  0  0
  -26.2087  -15.6410   20.0116 H   0  0  0  0  0  0
  -26.7472  -32.5081   23.0828 H   0  0  0  0  0  0
  -25.0082  -33.9390   25.0126 H   0  0  0  0  0  0
  -22.8042  -31.2490   21.3225 H   0  0  0  0  0  0
  -23.3793  -35.9542   23.3245 H   0  0  0  0  0  0
  -24.3618  -36.8903   22.2062 H   0  0  0  0  0  0
  -23.7286  -37.6392   23.6740 H   0  0  0  0  0  0
  -26.2552  -31.3274   20.6325 H   0  0  0  0  0  0
  -26.9143  -30.6503   22.0758 H   0  0  0  0  0  0
  -28.1321  -28.4980   21.3488 H   0  0  0  0  0  0
  -25.8770  -25.6749   19.0126 H   0  0  0  0  0  0
  -24.0277  -27.2424   18.9310 H   0  0  0  0  0  0
  -23.8986  -30.4828   19.3726 H   0  0  0  0  0  0
  -22.8510  -29.1721   19.8219 H   0  0  0  0  0  0
  -25.1355  -36.1692   25.0792 H   0  0  0  0  0  0
  -21.0039  -28.3357   24.1280 H   0  0  0  0  0  0
  -20.5626  -26.2334   23.3540 H   0  0  0  0  0  0
  -21.6646  -26.7381   22.1195 H   0  0  0  0  0  0
  -19.6866  -25.6462   21.0921 H   0  0  0  0  0  0
  -19.6592  -27.3458   20.6766 H   0  0  0  0  0  0
  -17.4242  -26.6880   21.3812 H   0  0  0  0  0  0
  -18.0223  -25.9998   22.8764 H   0  0  0  0  0  0
  -19.7939  -30.7162   24.2316 H   0  0  0  0  0  0
  -17.4959  -31.6167   24.5252 H   0  0  0  0  0  0
  -15.5331  -30.2904   23.7623 H   0  0  0  0  0  0
  -15.8646  -28.0777   22.7118 H   0  0  0  0  0  0
  -24.5704  -30.7315   25.7625 H   0  0  0  0  0  0
  -24.8949  -32.3120   26.4645 H   0  0  0  0  0  0
  -25.7793  -30.9011   27.0166 H   0  0  0  0  0  0
  -26.3031  -29.6522   24.1457 H   0  0  0  0  0  0
  -27.3787  -29.7196   25.5201 H   0  0  0  0  0  0
  -27.9044  -30.3963   23.9961 H   0  0  0  0  0  0
  -27.2589  -33.3668   26.1891 H   0  0  0  0  0  0
  -28.3886  -32.6754   25.0348 H   0  0  0  0  0  0
  -28.0573  -31.8522   26.5474 H   0  0  0  0  0  0
  -28.2544  -38.0107   24.7453 H   0  0  0  0  0  0
  -28.1126  -36.2610   24.6295 H   0  0  0  0  0  0
  -27.2266  -37.1394   25.8836 H   0  0  0  0  0  0
  -20.9565  -29.8638   21.6502 H   0  0  0  0  0  0
  -26.0130  -38.2729   24.1395 H   0  0  0  0  0  0
  -28.1435  -18.1386   25.0164 H   0  0  0  0  0  0
  -28.8181  -19.6965   24.6055 H   0  0  0  0  0  0
  -29.3057  -18.2792   22.8594 H   0  0  0  0  0  0
  -26.5776  -23.4194   23.3376 H   0  0  0  0  0  0
  -25.5493  -23.3537   21.8733 H   0  0  0  0  0  0
  -26.9938  -24.3191   21.9917 H   0  0  0  0  0  0
  -26.5177  -17.1562   23.0501 H   0  0  0  0  0  0
  -28.0563  -16.3919   22.8363 H   0  0  0  0  0  0
  -27.2835  -17.1783   21.4601 H   0  0  0  0  0  0
  -24.3335  -20.9735   24.5550 H   0  0  0  0  0  0
  -25.5755  -22.1831   24.6736 H   0  0  0  0  0  0
  -24.5914  -22.0087   23.2141 H   0  0  0  0  0  0
  -25.5628  -18.7752   21.9964 H   0  0  0  0  0  0
  -24.4999  -20.1220   21.9664 H   0  0  0  0  0  0
  -24.4352  -18.9969   23.3142 H   0  0  0  0  0  0
  -27.1735  -19.5882   26.6565 H   0  0  0  0  0  0
  -25.6738  -20.3774   26.2836 H   0  0  0  0  0  0
  -27.2142  -21.1782   25.9246 H   0  0  0  0  0  0
  -30.8109  -18.4990   20.8167 H   0  0  0  0  0  0
  -30.0400  -18.4503   19.2876 H   0  0  0  0  0  0
  -27.4499  -23.9720   19.1443 H   0  0  0  0  0  0
  -29.1426  -24.0448   19.3205 H   0  0  0  0  0  0
  -28.6876  -16.4316   20.7703 H   0  0  0  0  0  0
  -26.0801  -18.8191   24.6337 H   0  0  0  0  0  0
  1 25  1  0  0  0
  1 30  2  0  0  0
  1 87  1  0  0  0
  2  3  1  0  0  0
  2 25  1  0  0  0
  2 89  1  0  0  0
  2 90  1  0  0  0
  3  4  1  0  0  0
  3 91  1  0  0  0
  3 92  1  0  0  0
  4  5  1  0  0  0
  4 93  1  0  0  0
  4 94  1  0  0  0
  5  6  1  0  0  0
  5 26  1  0  0  0
  5 95  1  0  0  0
  6 25  1  0  0  0
  6 96  1  0  0  0
  6 97  1  0  0  0
  7  8  2  0  0  0
  7 26  1  0  0  0
  7 29  1  0  0  0
  8  9  1  0  0  0
  8 22  1  0  0  0
  9 10  1  0  0  0
  9 27  2  0  0  0
 10 11  2  0  0  0
 10 15  1  0  0  0
 11 12  1  0  0  0
 11 98  1  0  0  0
 12 13  2  0  0  0
 12 99  1  0  0  0
 13 14  1  0  0  0
 13 31  1  0  0  0
 14 15  2  0  0  0
 14100  1  0  0  0
 15101  1  0  0  0
 16 17  2  0  0  0
 16 21  1  0  0  0
 16 31  1  0  0  0
 17 18  1  0  0  0
 17102  1  0  0  0
 18 19  2  0  0  0
 18103  1  0  0  0
 19 20  1  0  0  0
 19 24  1  0  0  0
 20 21  2  0  0  0
 20104  1  0  0  0
 21 23  1  0  0  0
 22 28  1  0  0  0
 22 32  2  0  0  0
 26 27  1  0  0  0
 28105  1  0  0  0
 28106  1  0  0  0
 29107  1  0  0  0
 29108  1  0  0  0
 33 34  1  0  0  0
 33 66  1  0  0  0
 33 70  2  0  0  0
 34 36  1  0  0  0
 34 59  1  0  0  0
 34109  1  0  0  0
 35 44  2  0  0  0
 35 45  1  0  0  0
 35 68  1  0  0  0
 36 56  1  0  0  0
 36110  1  0  0  0
 37 39  1  0  0  0
 37 47  1  0  0  0
 37 66  1  0  0  0
 37111  1  0  0  0
 38 43  2  0  0  0
 38 46  1  0  0  0
 38 47  1  0  0  0
 39 64  1  0  0  0
 39 67  2  0  0  0
 40 52  1  0  0  0
 40 53  2  0  0  0
 40 58  1  0  0  0
 41112  1  0  0  0
 41113  1  0  0  0
 41114  1  0  0  0
 41 48  1  0  0  0
 42 43  1  0  0  0
 42 66  1  0  0  0
 42115  1  0  0  0
 42116  1  0  0  0
 43 44  1  0  0  0
 44117  1  0  0  0
 45 46  2  0  0  0
 45118  1  0  0  0
 46119  1  0  0  0
 47120  1  0  0  0
 47121  1  0  0  0
 48 56  1  0  0  0
 48 65  1  0  0  0
 48122  1  0  0  0
 49 50  1  0  0  0
 49 53  1  0  0  0
 49 64  1  0  0  0
 49123  1  0  0  0
 50 51  1  0  0  0
 50124  1  0  0  0
 50125  1  0  0  0
 51 52  1  0  0  0
 51126  1  0  0  0
 51127  1  0  0  0
 52128  1  0  0  0
 52129  1  0  0  0
 53 54  1  0  0  0
 54 55  2  0  0  0
 54130  1  0  0  0
 55 57  1  0  0  0
 55131  1  0  0  0
 56 69  2  0  0  0
 57 58  2  0  0  0
 57132  1  0  0  0
 58133  1  0  0  0
 59 60  1  0  0  0
 59 61  1  0  0  0
 59 62  1  0  0  0
 60134  1  0  0  0
 60135  1  0  0  0
 60136  1  0  0  0
 61137  1  0  0  0
 61138  1  0  0  0
 61139  1  0  0  0
 62140  1  0  0  0
 62141  1  0  0  0
 62142  1  0  0  0
 63 65  1  0  0  0
 63143  1  0  0  0
 63144  1  0  0  0
 63145  1  0  0  0
 64146  1  0  0  0
 65147  1  0  0  0
 68 85  1  0  0  0
 71 72  1  0  0  0
 71 73  2  0  0  0
 71 78  1  0  0  0
 72 74  2  0  0  0
 72 77  1  0  0  0
 73 75  1  0  0  0
 73 79  1  0  0  0
 74 84  1  0  0  0
 74 86  1  0  0  0
 75 85  1  0  0  0
 75 86  2  0  0  0
 76 77  1  0  0  0
 76 88  1  0  0  0
 76148  1  0  0  0
 76149  1  0  0  0
 77 80  1  0  0  0
 77150  1  0  0  0
 78 81  1  0  0  0
 78 82  1  0  0  0
 78 88  1  0  0  0
 79151  1  0  0  0
 79152  1  0  0  0
 79153  1  0  0  0
 80154  1  0  0  0
 80155  1  0  0  0
 80156  1  0  0  0
 81157  1  0  0  0
 81158  1  0  0  0
 81159  1  0  0  0
 82160  1  0  0  0
 82161  1  0  0  0
 82162  1  0  0  0
 83163  1  0  0  0
 83164  1  0  0  0
 83165  1  0  0  0
 83 88  1  0  0  0
 84 87  1  0  0  0
 84166  1  0  0  0
 84167  1  0  0  0
 85168  1  0  0  0
 85169  1  0  0  0
 87170  1  0  0  0
 88171  1  0  0  0
M  CHG  1  88   1
M  ISO  4   1 100  68 101  85 101  87 100
M  END
> <chiral flag>
0

> <version>
0

> <s_m_source_file>
/data/baiqing/PycharmProjects/Reinvent-master-3.2/result/LINK_invent/BTK/process_docking_weight1_custom_sum_contain_oxygen_bond_distance_aromatic_linkinvent_7_9_3/rearranged_h_0181.sdf

> <i_m_source_file_index>
56

> <r_mmod_Potential_Energy-OPLS-2005>
1335.52551269531

> <r_mmod_Stretch_Energy-OPLS-2005>
751.295837402344

> <r_mmod_Bend_Energy-OPLS-2005>
541.838073730469

> <r_mmod_Torsional_Energy-OPLS-2005>
275.108245849609

> <r_mmod_Improper_Torsional_Energy-OPLS-2005>
6.71455383300781

> <r_mmod_Van_der_Waal_Energy-OPLS-2005>
171.439392089844

> <r_mmod_Electrostatic_Energy-OPLS-2005>
-518.255126953125

> <r_mmod_Solvation_Energy-OPLS-2005>
-474.835510253906

> <b_mmod_Minimization_Converged-OPLS-2005>
0

> <r_mmod_RMS_Derivative-OPLS-2005>
5.78151416778564

$$$$
56
                    3D
 Structure written by MMmdl.
152161  0  0  1  0            999 V2000
  -30.5000  -15.0145   20.4037 C   0  0  0  0  0  0
  -30.4457  -12.6355   19.5084 C   0  0  0  0  0  0
  -29.5309  -12.5422   18.2641 C   0  0  0  0  0  0
  -28.0628  -12.3181   18.6798 C   0  0  0  0  0  0
  -27.6288  -13.2536   19.8365 C   0  0  2  0  0  0
  -28.6649  -13.3044   20.9785 C   0  0  0  0  0  0
  -25.2458  -13.8220   20.5707 C   0  0  0  0  0  0
  -24.1782  -13.0439   20.9241 C   0  0  0  0  0  0
  -24.6412  -11.6922   20.8760 C   0  0  0  0  0  0
  -23.9108  -10.4284   21.0409 C   0  0  0  0  0  0
  -24.3649   -9.4201   21.9190 C   0  0  0  0  0  0
  -23.6314   -8.2247   22.0771 C   0  0  0  0  0  0
  -22.4299   -8.0297   21.3561 C   0  0  0  0  0  0
  -21.9929   -9.0270   20.4669 C   0  0  0  0  0  0
  -22.7275  -10.2145   20.3060 C   0  0  0  0  0  0
  -21.6860   -6.0755   22.5263 C   0  0  0  0  0  0
  -21.4025   -6.5642   23.8204 C   0  0  0  0  0  0
  -21.3656   -5.6796   24.9163 C   0  0  0  0  0  0
  -21.6033   -4.3047   24.7214 C   0  0  0  0  0  0
  -21.8825   -3.8159   23.4318 C   0  0  0  0  0  0
  -21.9186   -4.6981   22.3386 C   0  0  0  0  0  0
  -22.7795  -13.5200   21.1869 C   0  0  0  0  0  0
  -22.1660   -4.2162   21.0965 F   0  0  0  0  0  0
  -21.5626   -3.4537   25.7726 F   0  0  0  0  0  0
  -29.9346  -13.7348   20.3817 N   0  0  0  0  0  0
  -26.2877  -12.9451   20.3213 N   0  0  0  0  0  0
  -25.9339  -11.6580   20.5723 N   0  0  0  0  0  0
  -22.0445  -12.8198   22.0421 N   0  0  0  0  0  0
  -25.4121  -15.1953   20.4103 N   0  0  0  0  0  0
  -31.6990  -15.0872   20.1115 O   0  0  0  0  0  0
  -21.6660   -6.8900   21.4235 O   0  0  0  0  0  0
  -22.3457  -14.5497   20.6712 O   0  0  0  0  0  0
  -24.6451  -31.8436   23.1896 C   0  0  0  0  0  0
  -25.9221  -32.4686   23.8275 C   0  0  1  0  0  0
  -27.1935  -27.1042   20.1617 C   0  0  0  0  0  0
  -25.5975  -33.8494   24.2199 N   0  0  0  0  0  0
  -23.4485  -30.4630   21.5375 C   0  0  2  0  0  0
  -24.8941  -28.8941   20.1087 C   0  0  0  0  0  0
  -22.7580  -29.4529   22.4888 C   0  0  0  0  0  0
  -18.0312  -28.1384   22.8477 C   0  0  0  0  0  0
  -24.1497  -36.7261   23.2635 C   0  0  0  0  0  0
  -26.0058  -30.7090   21.3902 C   0  0  0  0  0  0
  -26.0739  -29.3166   20.7369 C   0  0  0  0  0  0
  -27.2271  -28.4387   20.7464 C   0  0  0  0  0  0
  -25.9972  -26.8068   19.4734 C   0  0  0  0  0  0
  -24.8746  -27.6560   19.4555 C   0  0  0  0  0  0
  -23.6743  -29.8005   20.1535 C   0  0  0  0  0  0
  -25.4124  -36.3020   24.0310 C   0  0  1  0  0  0
  -20.5917  -28.3710   23.1248 C   0  0  2  0  0  0
  -20.6792  -26.9416   22.5410 C   0  0  0  0  0  0
  -19.5767  -26.6379   21.5208 C   0  0  0  0  0  0
  -18.1950  -26.7924   22.1625 C   0  0  0  0  0  0
  -19.1556  -28.8870   23.2850 C   0  0  0  0  0  0
  -18.9473  -30.1469   23.8868 C   0  0  0  0  0  0
  -17.6470  -30.6584   24.0553 C   0  0  0  0  0  0
  -25.9070  -34.9399   23.5052 C   0  0  0  0  0  0
  -16.5368  -29.9073   23.6327 C   0  0  0  0  0  0
  -16.7288  -28.6491   23.0338 C   0  0  0  0  0  0
  -26.4543  -31.6544   25.0713 C   0  0  0  0  0  0
  -25.3739  -31.3742   26.1415 C   0  0  0  0  0  0
  -27.0374  -30.2928   24.6279 C   0  0  0  0  0  0
  -27.6083  -32.4289   25.7501 C   0  0  0  0  0  0
  -27.5572  -37.1784   24.8465 C   0  0  0  0  0  0
  -21.4270  -29.3034   22.3630 N   0  0  0  0  0  0
  -26.4286  -37.3735   23.9402 N   0  0  0  0  0  0
  -24.7195  -31.0272   22.0937 N   0  0  0  0  0  0
  -23.4215  -28.8052   23.3014 O   0  0  0  0  0  0
  -28.2153  -26.0777   20.2154 O   0  0  0  0  0  0
  -26.5651  -34.8908   22.4621 O   0  0  0  0  0  0
  -23.5572  -32.1316   23.7112 O   0  0  0  0  0  0
  -30.0428  -23.4227   19.5189 C   0  0  0  0  0  0
  -30.8611  -22.3083   19.2646 C   0  0  0  0  0  0
  -28.8197  -23.2400   20.1702 C   0  0  0  0  0  0
  -29.3799  -20.8019   20.2379 C   0  0  0  0  0  0
  -28.7241  -18.3078   19.4183 C   0  0  0  0  0  0
  -29.1136  -19.1843   20.5690 C   0  0  1  0  0  0
  -29.9043  -17.7182   20.1807 C   0  0  1  0  0  0
  -32.1697  -22.4813   18.5213 C   0  0  0  0  0  0
  -27.8329  -24.5573   20.3801 C   0  0  0  0  0  0
  -30.5374  -21.0458   19.6298 N   0  0  0  0  0  0
  -28.5160  -21.8819   20.5012 N   0  0  0  0  0  0
  -29.6870  -16.1909   20.5324 N   0  0  0  0  0  0
  -31.4765  -12.8106   19.1950 H   0  0  0  0  0  0
  -30.4620  -11.6934   20.0539 H   0  0  0  0  0  0
  -29.8644  -11.7396   17.6023 H   0  0  0  0  0  0
  -29.6082  -13.4627   17.6829 H   0  0  0  0  0  0
  -27.9662  -11.2787   18.9942 H   0  0  0  0  0  0
  -27.4005  -12.4448   17.8225 H   0  0  0  0  0  0
  -27.5876  -14.2524   19.3988 H   0  0  0  0  0  0
  -28.7681  -12.3388   21.4745 H   0  0  0  0  0  0
  -28.3518  -14.0176   21.7425 H   0  0  0  0  0  0
  -25.2796   -9.5677   22.4763 H   0  0  0  0  0  0
  -24.0026   -7.4631   22.7470 H   0  0  0  0  0  0
  -21.0874   -8.8791   19.8964 H   0  0  0  0  0  0
  -22.3739  -10.9690   19.6164 H   0  0  0  0  0  0
  -21.2053   -7.6155   23.9711 H   0  0  0  0  0  0
  -21.1470   -6.0528   25.9068 H   0  0  0  0  0  0
  -22.0614   -2.7620   23.2809 H   0  0  0  0  0  0
  -22.4084  -11.9886   22.4834 H   0  0  0  0  0  0
  -21.1063  -13.1217   22.2627 H   0  0  0  0  0  0
  -24.6438  -15.8463   20.5363 H   0  0  0  0  0  0
  -26.2339  -15.6239   20.0056 H   0  0  0  0  0  0
  -26.7293  -32.5286   23.1007 H   0  0  0  0  0  0
  -25.0123  -33.9605   25.0352 H   0  0  0  0  0  0
  -22.7518  -31.2896   21.3881 H   0  0  0  0  0  0
  -23.3745  -35.9600   23.3276 H   0  0  0  0  0  0
  -24.3605  -36.8913   22.2056 H   0  0  0  0  0  0
  -23.7276  -37.6463   23.6692 H   0  0  0  0  0  0
  -26.1586  -31.4581   20.6115 H   0  0  0  0  0  0
  -26.8781  -30.7649   22.0283 H   0  0  0  0  0  0
  -28.1231  -28.7568   21.2600 H   0  0  0  0  0  0
  -25.8911  -25.8777   18.9370 H   0  0  0  0  0  0
  -23.9861  -27.3358   18.9277 H   0  0  0  0  0  0
  -23.8165  -30.5791   19.4009 H   0  0  0  0  0  0
  -22.7869  -29.2480   19.8380 H   0  0  0  0  0  0
  -25.1309  -36.1840   25.0804 H   0  0  0  0  0  0
  -21.0010  -28.3287   24.1362 H   0  0  0  0  0  0
  -20.5682  -26.2314   23.3621 H   0  0  0  0  0  0
  -21.6661  -26.7426   22.1202 H   0  0  0  0  0  0
  -19.6916  -25.6279   21.1260 H   0  0  0  0  0  0
  -19.6690  -27.3173   20.6723 H   0  0  0  0  0  0
  -17.4211  -26.6656   21.4040 H   0  0  0  0  0  0
  -18.0351  -26.0088   22.9047 H   0  0  0  0  0  0
  -19.7946  -30.7295   24.2227 H   0  0  0  0  0  0
  -17.5013  -31.6262   24.5161 H   0  0  0  0  0  0
  -15.5361  -30.2946   23.7671 H   0  0  0  0  0  0
  -15.8700  -28.0804   22.7053 H   0  0  0  0  0  0
  -24.5912  -30.7093   25.7748 H   0  0  0  0  0  0
  -24.8934  -32.2926   26.4793 H   0  0  0  0  0  0
  -25.8022  -30.8949   27.0225 H   0  0  0  0  0  0
  -26.2963  -29.6664   24.1294 H   0  0  0  0  0  0
  -27.3991  -29.7213   25.4838 H   0  0  0  0  0  0
  -27.8889  -30.4142   23.9577 H   0  0  0  0  0  0
  -27.2699  -33.3629   26.1994 H   0  0  0  0  0  0
  -28.3941  -32.6764   25.0354 H   0  0  0  0  0  0
  -28.0688  -31.8453   26.5481 H   0  0  0  0  0  0
  -28.2573  -38.0093   24.7496 H   0  0  0  0  0  0
  -28.1087  -36.2617   24.6301 H   0  0  0  0  0  0
  -27.2303  -37.1458   25.8874 H   0  0  0  0  0  0
  -20.9479  -29.8772   21.6836 H   0  0  0  0  0  0
  -26.0141  -38.2802   24.1384 H   0  0  0  0  0  0
  -30.3357  -24.4129   19.1940 H   0  0  0  0  0  0
  -28.9338  -18.6892   18.4203 H   0  0  0  0  0  0
  -27.7480  -17.8341   19.5046 H   0  0  0  0  0  0
  -28.4946  -19.1384   21.4633 H   0  0  0  0  0  0
  -30.8955  -17.9121   19.7732 H   0  0  0  0  0  0
  -32.1270  -23.3441   17.8560 H   0  0  0  0  0  0
  -32.3972  -21.6070   17.9106 H   0  0  0  0  0  0
  -32.9861  -22.6419   19.2239 H   0  0  0  0  0  0
  -27.4181  -24.4586   21.3839 H   0  0  0  0  0  0
  -26.9954  -24.3332   19.7239 H   0  0  0  0  0  0
  -28.7399  -15.9743   20.8017 H   0  0  0  0  0  0
  1 25  1  0  0  0
  1 30  2  0  0  0
  1 82  1  0  0  0
  2  3  1  0  0  0
  2 25  1  0  0  0
  2 83  1  0  0  0
  2 84  1  0  0  0
  3  4  1  0  0  0
  3 85  1  0  0  0
  3 86  1  0  0  0
  4  5  1  0  0  0
  4 87  1  0  0  0
  4 88  1  0  0  0
  5  6  1  0  0  0
  5 26  1  0  0  0
  5 89  1  0  0  0
  6 25  1  0  0  0
  6 90  1  0  0  0
  6 91  1  0  0  0
  7  8  2  0  0  0
  7 26  1  0  0  0
  7 29  1  0  0  0
  8  9  1  0  0  0
  8 22  1  0  0  0
  9 10  1  0  0  0
  9 27  2  0  0  0
 10 11  2  0  0  0
 10 15  1  0  0  0
 11 12  1  0  0  0
 11 92  1  0  0  0
 12 13  2  0  0  0
 12 93  1  0  0  0
 13 14  1  0  0  0
 13 31  1  0  0  0
 14 15  2  0  0  0
 14 94  1  0  0  0
 15 95  1  0  0  0
 16 17  2  0  0  0
 16 21  1  0  0  0
 16 31  1  0  0  0
 17 18  1  0  0  0
 17 96  1  0  0  0
 18 19  2  0  0  0
 18 97  1  0  0  0
 19 20  1  0  0  0
 19 24  1  0  0  0
 20 21  2  0  0  0
 20 98  1  0  0  0
 21 23  1  0  0  0
 22 28  1  0  0  0
 22 32  2  0  0  0
 26 27  1  0  0  0
 28 99  1  0  0  0
 28100  1  0  0  0
 29101  1  0  0  0
 29102  1  0  0  0
 33 34  1  0  0  0
 33 66  1  0  0  0
 33 70  2  0  0  0
 34 36  1  0  0  0
 34 59  1  0  0  0
 34103  1  0  0  0
 35 44  2  0  0  0
 35 45  1  0  0  0
 35 68  1  0  0  0
 36 56  1  0  0  0
 36104  1  0  0  0
 37 39  1  0  0  0
 37 47  1  0  0  0
 37 66  1  0  0  0
 37105  1  0  0  0
 38 43  2  0  0  0
 38 46  1  0  0  0
 38 47  1  0  0  0
 39 64  1  0  0  0
 39 67  2  0  0  0
 40 52  1  0  0  0
 40 53  2  0  0  0
 40 58  1  0  0  0
 41106  1  0  0  0
 41107  1  0  0  0
 41108  1  0  0  0
 41 48  1  0  0  0
 42 43  1  0  0  0
 42 66  1  0  0  0
 42109  1  0  0  0
 42110  1  0  0  0
 43 44  1  0  0  0
 44111  1  0  0  0
 45 46  2  0  0  0
 45112  1  0  0  0
 46113  1  0  0  0
 47114  1  0  0  0
 47115  1  0  0  0
 48 56  1  0  0  0
 48 65  1  0  0  0
 48116  1  0  0  0
 49 50  1  0  0  0
 49 53  1  0  0  0
 49 64  1  0  0  0
 49117  1  0  0  0
 50 51  1  0  0  0
 50118  1  0  0  0
 50119  1  0  0  0
 51 52  1  0  0  0
 51120  1  0  0  0
 51121  1  0  0  0
 52122  1  0  0  0
 52123  1  0  0  0
 53 54  1  0  0  0
 54 55  2  0  0  0
 54124  1  0  0  0
 55 57  1  0  0  0
 55125  1  0  0  0
 56 69  2  0  0  0
 57 58  2  0  0  0
 57126  1  0  0  0
 58127  1  0  0  0
 59 60  1  0  0  0
 59 61  1  0  0  0
 59 62  1  0  0  0
 60128  1  0  0  0
 60129  1  0  0  0
 60130  1  0  0  0
 61131  1  0  0  0
 61132  1  0  0  0
 61133  1  0  0  0
 62134  1  0  0  0
 62135  1  0  0  0
 62136  1  0  0  0
 63 65  1  0  0  0
 63137  1  0  0  0
 63138  1  0  0  0
 63139  1  0  0  0
 64140  1  0  0  0
 65141  1  0  0  0
 68 79  1  0  0  0
 71 72  2  0  0  0
 71 73  1  0  0  0
 71142  1  0  0  0
 72 78  1  0  0  0
 72 80  1  0  0  0
 73 79  1  0  0  0
 73 81  2  0  0  0
 74 80  2  0  0  0
 74 81  1  0  0  0
 74 76  1  0  0  0
 75 76  1  0  0  0
 75 77  1  0  0  0
 75143  1  0  0  0
 75144  1  0  0  0
 76 77  1  0  0  0
 76145  1  0  0  0
 77 82  1  0  0  0
 77146  1  0  0  0
 78147  1  0  0  0
 78148  1  0  0  0
 78149  1  0  0  0
 79150  1  0  0  0
 79151  1  0  0  0
 82152  1  0  0  0
M  ISO  4   1 100  68 101  79 101  82 100
M  END
> <chiral flag>
0

> <version>
0

> <s_m_source_file>
/data/baiqing/PycharmProjects/Reinvent-master-3.2/result/LINK_invent/BTK/process_docking_weight1_custom_sum_contain_oxygen_bond_distance_aromatic_linkinvent_7_9_3/rearranged_h_0181.sdf

> <i_m_source_file_index>
57

> <r_mmod_Potential_Energy-OPLS-2005>
248.701446533203

> <r_mmod_Stretch_Energy-OPLS-2005>
307.014312744141

> <r_mmod_Bend_Energy-OPLS-2005>
263.334991455078

> <r_mmod_Torsional_Energy-OPLS-2005>
258.615936279297

> <r_mmod_Improper_Torsional_Energy-OPLS-2005>
5.42144775390625

> <r_mmod_Van_der_Waal_Energy-OPLS-2005>
134.545593261719

> <r_mmod_Electrostatic_Energy-OPLS-2005>
-710.119262695312

> <r_mmod_Solvation_Energy-OPLS-2005>
-246.650024414062

> <b_mmod_Minimization_Converged-OPLS-2005>
0

> <r_mmod_RMS_Derivative-OPLS-2005>
3.45850920677185

$$$$
57
                    3D
 Structure written by MMmdl.
158167  0  0  1  0            999 V2000
  -30.6386  -14.7624   20.4422 C   0  0  0  0  0  0
  -30.4227  -12.4667   19.4762 C   0  0  0  0  0  0
  -29.5061  -12.4983   18.2354 C   0  0  0  0  0  0
  -28.0346  -12.3233   18.6549 C   0  0  0  0  0  0
  -27.6358  -13.2409   19.8427 C   0  0  2  0  0  0
  -28.6815  -13.2156   20.9772 C   0  0  0  0  0  0
  -25.2493  -13.8223   20.5721 C   0  0  0  0  0  0
  -24.1788  -13.0451   20.9207 C   0  0  0  0  0  0
  -24.6393  -11.6933   20.8747 C   0  0  0  0  0  0
  -23.9075  -10.4302   21.0405 C   0  0  0  0  0  0
  -24.3627   -9.4214   21.9181 C   0  0  0  0  0  0
  -23.6298   -8.2248   22.0754 C   0  0  0  0  0  0
  -22.4277   -8.0288   21.3550 C   0  0  0  0  0  0
  -21.9914   -9.0260   20.4650 C   0  0  0  0  0  0
  -22.7246  -10.2139   20.3056 C   0  0  0  0  0  0
  -21.6854   -6.0737   22.5278 C   0  0  0  0  0  0
  -21.4019   -6.5641   23.8212 C   0  0  0  0  0  0
  -21.3661   -5.6792   24.9174 C   0  0  0  0  0  0
  -21.6041   -4.3055   24.7226 C   0  0  0  0  0  0
  -21.8817   -3.8148   23.4347 C   0  0  0  0  0  0
  -21.9192   -4.6965   22.3403 C   0  0  0  0  0  0
  -22.7807  -13.5222   21.1868 C   0  0  0  0  0  0
  -22.1660   -4.2150   21.0980 F   0  0  0  0  0  0
  -21.5628   -3.4540   25.7739 F   0  0  0  0  0  0
  -29.9753  -13.5551   20.3779 N   0  0  0  0  0  0
  -26.2917  -12.9445   20.3279 N   0  0  0  0  0  0
  -25.9327  -11.6577   20.5758 N   0  0  0  0  0  0
  -22.0461  -12.8211   22.0430 N   0  0  0  0  0  0
  -25.4202  -15.1949   20.4189 N   0  0  0  0  0  0
  -31.8452  -14.7902   20.1758 O   0  0  0  0  0  0
  -21.6641   -6.8883   21.4242 O   0  0  0  0  0  0
  -22.3482  -14.5522   20.6713 O   0  0  0  0  0  0
  -24.6349  -31.8536   23.1977 C   0  0  0  0  0  0
  -25.9163  -32.4744   23.8325 C   0  0  1  0  0  0
  -27.2130  -27.2325   20.1097 C   0  0  0  0  0  0
  -25.5946  -33.8547   24.2245 N   0  0  0  0  0  0
  -23.4315  -30.4796   21.5424 C   0  0  2  0  0  0
  -24.8751  -28.9288   20.1076 C   0  0  0  0  0  0
  -22.7521  -29.4600   22.4893 C   0  0  0  0  0  0
  -18.0298  -28.1385   22.8481 C   0  0  0  0  0  0
  -24.1491  -36.7280   23.2639 C   0  0  0  0  0  0
  -25.9826  -30.7565   21.3830 C   0  0  0  0  0  0
  -26.0512  -29.3792   20.7184 C   0  0  0  0  0  0
  -27.2186  -28.5431   20.7113 C   0  0  0  0  0  0
  -25.9980  -26.8559   19.4880 C   0  0  0  0  0  0
  -24.8556  -27.6756   19.4850 C   0  0  0  0  0  0
  -23.6500  -29.8206   20.1566 C   0  0  0  0  0  0
  -25.4118  -36.3061   24.0322 C   0  0  1  0  0  0
  -20.5906  -28.3704   23.1255 C   0  0  2  0  0  0
  -20.6785  -26.9416   22.5403 C   0  0  0  0  0  0
  -19.5759  -26.6381   21.5208 C   0  0  0  0  0  0
  -18.1941  -26.7925   22.1623 C   0  0  0  0  0  0
  -19.1552  -28.8861   23.2863 C   0  0  0  0  0  0
  -18.9470  -30.1459   23.8889 C   0  0  0  0  0  0
  -17.6468  -30.6584   24.0561 C   0  0  0  0  0  0
  -25.9062  -34.9433   23.5085 C   0  0  0  0  0  0
  -16.5361  -29.9079   23.6330 C   0  0  0  0  0  0
  -16.7284  -28.6495   23.0354 C   0  0  0  0  0  0
  -26.4511  -31.6579   25.0731 C   0  0  0  0  0  0
  -25.3719  -31.3757   26.1445 C   0  0  0  0  0  0
  -27.0351  -30.2980   24.6254 C   0  0  0  0  0  0
  -27.6056  -32.4329   25.7509 C   0  0  0  0  0  0
  -27.5579  -37.1796   24.8463 C   0  0  0  0  0  0
  -21.4224  -29.3049   22.3639 N   0  0  0  0  0  0
  -26.4289  -37.3764   23.9409 N   0  0  0  0  0  0
  -24.7025  -31.0482   22.0968 N   0  0  0  0  0  0
  -23.4210  -28.8132   23.2993 O   0  0  0  0  0  0
  -28.3041  -26.3208   20.1951 O   0  0  0  0  0  0
  -26.5635  -34.8911   22.4656 O   0  0  0  0  0  0
  -23.5492  -32.1373   23.7257 O   0  0  0  0  0  0
  -27.7690  -22.5150   20.1615 C   0  0  0  0  0  0
  -29.3928  -20.7742   20.2688 C   0  0  0  0  0  0
  -28.7309  -23.5667   20.0005 C   0  0  0  0  0  0
  -30.3605  -21.8349   20.1519 C   0  0  0  0  0  0
  -29.6013  -18.3868   21.6329 C   0  0  0  0  0  0
  -29.1852  -18.2303   19.2653 C   0  0  0  0  0  0
  -30.2520  -16.9293   21.6263 C   0  0  0  0  0  0
  -29.8168  -16.7675   19.2408 C   0  0  0  0  0  0
  -29.7871  -19.2018   20.3206 C   0  0  0  0  0  0
  -31.8501  -21.5477   20.1287 C   0  0  0  0  0  0
  -28.3630  -25.0231   19.4164 C   0  0  0  0  0  0
  -28.0822  -21.1707   20.3034 N   0  0  0  0  0  0
  -30.0404  -23.1728   20.0194 N   0  0  0  0  0  0
  -29.9299  -15.9745   20.5127 N   0  0  0  0  0  0
  -31.4655  -12.5736   19.1733 H   0  0  0  0  0  0
  -30.3585  -11.5018   19.9816 H   0  0  0  0  0  0
  -29.7913  -11.7133   17.5335 H   0  0  0  0  0  0
  -29.6306  -13.4440   17.7059 H   0  0  0  0  0  0
  -27.9006  -11.2783   18.9371 H   0  0  0  0  0  0
  -27.3735  -12.4956   17.8049 H   0  0  0  0  0  0
  -27.6189  -14.2553   19.4429 H   0  0  0  0  0  0
  -28.7214  -12.2362   21.4556 H   0  0  0  0  0  0
  -28.4190  -13.9345   21.7552 H   0  0  0  0  0  0
  -25.2774   -9.5687   22.4755 H   0  0  0  0  0  0
  -24.0010   -7.4635   22.7468 H   0  0  0  0  0  0
  -21.0847   -8.8779   19.8955 H   0  0  0  0  0  0
  -22.3704  -10.9676   19.6165 H   0  0  0  0  0  0
  -21.2018   -7.6148   23.9717 H   0  0  0  0  0  0
  -21.1484   -6.0524   25.9077 H   0  0  0  0  0  0
  -22.0596   -2.7610   23.2843 H   0  0  0  0  0  0
  -22.4090  -11.9884   22.4829 H   0  0  0  0  0  0
  -21.1077  -13.1225   22.2641 H   0  0  0  0  0  0
  -24.6609  -15.8547   20.5477 H   0  0  0  0  0  0
  -26.2867  -15.6368   20.1378 H   0  0  0  0  0  0
  -26.7227  -32.5374   23.1058 H   0  0  0  0  0  0
  -25.0084  -33.9683   25.0384 H   0  0  0  0  0  0
  -22.7291  -31.3034   21.3988 H   0  0  0  0  0  0
  -23.3754  -35.9612   23.3295 H   0  0  0  0  0  0
  -24.3579  -36.8913   22.2054 H   0  0  0  0  0  0
  -23.7245  -37.6478   23.6673 H   0  0  0  0  0  0
  -26.1296  -31.5192   20.6170 H   0  0  0  0  0  0
  -26.8568  -30.7993   22.0209 H   0  0  0  0  0  0
  -28.1169  -28.8836   21.2073 H   0  0  0  0  0  0
  -25.8486  -25.8951   19.0284 H   0  0  0  0  0  0
  -23.9495  -27.3189   19.0145 H   0  0  0  0  0  0
  -23.7818  -30.6008   19.4061 H   0  0  0  0  0  0
  -22.7656  -29.2617   19.8457 H   0  0  0  0  0  0
  -25.1301  -36.1902   25.0814 H   0  0  0  0  0  0
  -21.0000  -28.3285   24.1375 H   0  0  0  0  0  0
  -20.5681  -26.2315   23.3612 H   0  0  0  0  0  0
  -21.6653  -26.7434   22.1200 H   0  0  0  0  0  0
  -19.6922  -25.6289   21.1246 H   0  0  0  0  0  0
  -19.6693  -27.3185   20.6732 H   0  0  0  0  0  0
  -17.4208  -26.6668   21.4028 H   0  0  0  0  0  0
  -18.0347  -26.0070   22.9023 H   0  0  0  0  0  0
  -19.7946  -30.7274   24.2257 H   0  0  0  0  0  0
  -17.5023  -31.6263   24.5166 H   0  0  0  0  0  0
  -15.5360  -30.2977   23.7659 H   0  0  0  0  0  0
  -15.8684  -28.0808   22.7078 H   0  0  0  0  0  0
  -24.5890  -30.7109   25.7782 H   0  0  0  0  0  0
  -24.8916  -32.2936   26.4841 H   0  0  0  0  0  0
  -25.8019  -30.8955   27.0242 H   0  0  0  0  0  0
  -26.2939  -29.6729   24.1260 H   0  0  0  0  0  0
  -27.3982  -29.7253   25.4798 H   0  0  0  0  0  0
  -27.8847  -30.4230   23.9535 H   0  0  0  0  0  0
  -27.2652  -33.3634   26.2066 H   0  0  0  0  0  0
  -28.3876  -32.6882   25.0346 H   0  0  0  0  0  0
  -28.0712  -31.8469   26.5444 H   0  0  0  0  0  0
  -28.2592  -38.0097   24.7506 H   0  0  0  0  0  0
  -28.1077  -36.2626   24.6289 H   0  0  0  0  0  0
  -27.2298  -37.1448   25.8866 H   0  0  0  0  0  0
  -20.9410  -29.8778   21.6849 H   0  0  0  0  0  0
  -26.0163  -38.2836   24.1410 H   0  0  0  0  0  0
  -26.7153  -22.7417   20.0878 H   0  0  0  0  0  0
  -30.0364  -18.9533   22.4570 H   0  0  0  0  0  0
  -28.5373  -18.3104   21.8607 H   0  0  0  0  0  0
  -28.1077  -18.1575   19.4206 H   0  0  0  0  0  0
  -29.3069  -18.6727   18.2756 H   0  0  0  0  0  0
  -30.0009  -16.4367   22.5669 H   0  0  0  0  0  0
  -31.3364  -17.0547   21.6476 H   0  0  0  0  0  0
  -30.8182  -16.8550   18.8142 H   0  0  0  0  0  0
  -29.2539  -16.1653   18.5256 H   0  0  0  0  0  0
  -30.8573  -19.1794   20.1256 H   0  0  0  0  0  0
  -32.1145  -20.9796   19.2366 H   0  0  0  0  0  0
  -32.1434  -20.9729   21.0073 H   0  0  0  0  0  0
  -32.4377  -22.4665   20.1227 H   0  0  0  0  0  0
  -27.5087  -24.8613   18.7710 H   0  0  0  0  0  0
  -29.1498  -25.2206   18.6880 H   0  0  0  0  0  0
  1 25  1  0  0  0
  1 30  2  0  0  0
  1 84  1  0  0  0
  2  3  1  0  0  0
  2 25  1  0  0  0
  2 85  1  0  0  0
  2 86  1  0  0  0
  3  4  1  0  0  0
  3 87  1  0  0  0
  3 88  1  0  0  0
  4  5  1  0  0  0
  4 89  1  0  0  0
  4 90  1  0  0  0
  5  6  1  0  0  0
  5 26  1  0  0  0
  5 91  1  0  0  0
  6 25  1  0  0  0
  6 92  1  0  0  0
  6 93  1  0  0  0
  7  8  2  0  0  0
  7 26  1  0  0  0
  7 29  1  0  0  0
  8  9  1  0  0  0
  8 22  1  0  0  0
  9 10  1  0  0  0
  9 27  2  0  0  0
 10 11  2  0  0  0
 10 15  1  0  0  0
 11 12  1  0  0  0
 11 94  1  0  0  0
 12 13  2  0  0  0
 12 95  1  0  0  0
 13 14  1  0  0  0
 13 31  1  0  0  0
 14 15  2  0  0  0
 14 96  1  0  0  0
 15 97  1  0  0  0
 16 17  2  0  0  0
 16 21  1  0  0  0
 16 31  1  0  0  0
 17 18  1  0  0  0
 17 98  1  0  0  0
 18 19  2  0  0  0
 18 99  1  0  0  0
 19 20  1  0  0  0
 19 24  1  0  0  0
 20 21  2  0  0  0
 20100  1  0  0  0
 21 23  1  0  0  0
 22 28  1  0  0  0
 22 32  2  0  0  0
 26 27  1  0  0  0
 28101  1  0  0  0
 28102  1  0  0  0
 29103  1  0  0  0
 29104  1  0  0  0
 33 34  1  0  0  0
 33 66  1  0  0  0
 33 70  2  0  0  0
 34 36  1  0  0  0
 34 59  1  0  0  0
 34105  1  0  0  0
 35 44  2  0  0  0
 35 45  1  0  0  0
 35 68  1  0  0  0
 36 56  1  0  0  0
 36106  1  0  0  0
 37 39  1  0  0  0
 37 47  1  0  0  0
 37 66  1  0  0  0
 37107  1  0  0  0
 38 43  2  0  0  0
 38 46  1  0  0  0
 38 47  1  0  0  0
 39 64  1  0  0  0
 39 67  2  0  0  0
 40 52  1  0  0  0
 40 53  2  0  0  0
 40 58  1  0  0  0
 41108  1  0  0  0
 41109  1  0  0  0
 41110  1  0  0  0
 41 48  1  0  0  0
 42 43  1  0  0  0
 42 66  1  0  0  0
 42111  1  0  0  0
 42112  1  0  0  0
 43 44  1  0  0  0
 44113  1  0  0  0
 45 46  2  0  0  0
 45114  1  0  0  0
 46115  1  0  0  0
 47116  1  0  0  0
 47117  1  0  0  0
 48 56  1  0  0  0
 48 65  1  0  0  0
 48118  1  0  0  0
 49 50  1  0  0  0
 49 53  1  0  0  0
 49 64  1  0  0  0
 49119  1  0  0  0
 50 51  1  0  0  0
 50120  1  0  0  0
 50121  1  0  0  0
 51 52  1  0  0  0
 51122  1  0  0  0
 51123  1  0  0  0
 52124  1  0  0  0
 52125  1  0  0  0
 53 54  1  0  0  0
 54 55  2  0  0  0
 54126  1  0  0  0
 55 57  1  0  0  0
 55127  1  0  0  0
 56 69  2  0  0  0
 57 58  2  0  0  0
 57128  1  0  0  0
 58129  1  0  0  0
 59 60  1  0  0  0
 59 61  1  0  0  0
 59 62  1  0  0  0
 60130  1  0  0  0
 60131  1  0  0  0
 60132  1  0  0  0
 61133  1  0  0  0
 61134  1  0  0  0
 61135  1  0  0  0
 62136  1  0  0  0
 62137  1  0  0  0
 62138  1  0  0  0
 63 65  1  0  0  0
 63139  1  0  0  0
 63140  1  0  0  0
 63141  1  0  0  0
 64142  1  0  0  0
 65143  1  0  0  0
 68 81  1  0  0  0
 71 73  2  0  0  0
 71 82  1  0  0  0
 71144  1  0  0  0
 72 74  1  0  0  0
 72 82  2  0  0  0
 72 79  1  0  0  0
 73 81  1  0  0  0
 73 83  1  0  0  0
 74 80  1  0  0  0
 74 83  2  0  0  0
 75 77  1  0  0  0
 75 79  1  0  0  0
 75145  1  0  0  0
 75146  1  0  0  0
 76 78  1  0  0  0
 76 79  1  0  0  0
 76147  1  0  0  0
 76148  1  0  0  0
 77 84  1  0  0  0
 77149  1  0  0  0
 77150  1  0  0  0
 78 84  1  0  0  0
 78151  1  0  0  0
 78152  1  0  0  0
 79153  1  0  0  0
 80154  1  0  0  0
 80155  1  0  0  0
 80156  1  0  0  0
 81157  1  0  0  0
 81158  1  0  0  0
M  ISO  4   1 100  68 101  81 101  84 100
M  END
> <chiral flag>
0

> <version>
0

> <s_m_source_file>
/data/baiqing/PycharmProjects/Reinvent-master-3.2/result/LINK_invent/BTK/process_docking_weight1_custom_sum_contain_oxygen_bond_distance_aromatic_linkinvent_7_9_3/rearranged_h_0181.sdf

> <i_m_source_file_index>
58

> <r_mmod_Potential_Energy-OPLS-2005>
525.593444824219

> <r_mmod_Stretch_Energy-OPLS-2005>
139.376220703125

> <r_mmod_Bend_Energy-OPLS-2005>
216.513168334961

> <r_mmod_Torsional_Energy-OPLS-2005>
326.396759033203

> <r_mmod_Improper_Torsional_Energy-OPLS-2005>
14.2064847946167

> <r_mmod_Van_der_Waal_Energy-OPLS-2005>
146.873107910156

> <r_mmod_Electrostatic_Energy-OPLS-2005>
-208.896240234375

> <r_mmod_Solvation_Energy-OPLS-2005>
-210.205963134766

> <b_mmod_Minimization_Converged-OPLS-2005>
0

> <r_mmod_RMS_Derivative-OPLS-2005>
0.621193647384644

$$$$
58
                    3D
 Structure written by MMmdl.
148156  0  0  1  0            999 V2000
  -30.2891  -15.7031   20.3165 C   0  0  0  0  0  0
  -30.4424  -13.1324   19.5551 C   0  0  0  0  0  0
  -29.5783  -12.6945   18.3354 C   0  0  0  0  0  0
  -28.1532  -12.3070   18.7617 C   0  0  0  0  0  0
  -27.5883  -13.3247   19.7733 C   0  0  2  0  0  0
  -28.5941  -13.6894   20.8876 C   0  0  0  0  0  0
  -25.2323  -13.8292   20.5736 C   0  0  0  0  0  0
  -24.1716  -13.0404   20.9237 C   0  0  0  0  0  0
  -24.6449  -11.6942   20.8700 C   0  0  0  0  0  0
  -23.9118  -10.4267   21.0369 C   0  0  0  0  0  0
  -24.3642   -9.4187   21.9172 C   0  0  0  0  0  0
  -23.6267   -8.2240   22.0771 C   0  0  0  0  0  0
  -22.4253   -8.0279   21.3557 C   0  0  0  0  0  0
  -21.9897   -9.0248   20.4675 C   0  0  0  0  0  0
  -22.7267  -10.2103   20.3035 C   0  0  0  0  0  0
  -21.6836   -6.0735   22.5270 C   0  0  0  0  0  0
  -21.4038   -6.5636   23.8214 C   0  0  0  0  0  0
  -21.3647   -5.6786   24.9156 C   0  0  0  0  0  0
  -21.6025   -4.3053   24.7211 C   0  0  0  0  0  0
  -21.8809   -3.8140   23.4338 C   0  0  0  0  0  0
  -21.9186   -4.6957   22.3394 C   0  0  0  0  0  0
  -22.7726  -13.5140   21.1857 C   0  0  0  0  0  0
  -22.1654   -4.2164   21.0973 F   0  0  0  0  0  0
  -21.5609   -3.4531   25.7719 F   0  0  0  0  0  0
  -29.7721  -14.3306   20.2538 N   0  0  0  0  0  0
  -26.2755  -12.9654   20.3020 N   0  0  0  0  0  0
  -25.9384  -11.6697   20.5500 N   0  0  0  0  0  0
  -22.0335  -12.8177   22.0448 N   0  0  0  0  0  0
  -25.3964  -15.2007   20.4379 N   0  0  0  0  0  0
  -31.5259  -15.5795   20.3464 O   0  0  0  0  0  0
  -21.6610   -6.8887   21.4237 O   0  0  0  0  0  0
  -22.3390  -14.5394   20.6644 O   0  0  0  0  0  0
  -24.6882  -31.7925   23.1442 C   0  0  0  0  0  0
  -25.9455  -32.4429   23.8009 C   0  0  1  0  0  0
  -27.2495  -26.6473   20.2517 C   0  0  0  0  0  0
  -25.6008  -33.8249   24.1909 N   0  0  0  0  0  0
  -23.5238  -30.3853   21.4945 C   0  0  2  0  0  0
  -24.9952  -28.7143   20.1213 C   0  0  0  0  0  0
  -22.7810  -29.4286   22.4681 C   0  0  0  0  0  0
  -18.0356  -28.1422   22.8441 C   0  0  0  0  0  0
  -24.1510  -36.7136   23.2651 C   0  0  0  0  0  0
  -26.1022  -30.5163   21.4203 C   0  0  0  0  0  0
  -26.1768  -29.0700   20.7806 C   0  0  0  0  0  0
  -27.2840  -28.0619   20.8208 C   0  0  0  0  0  0
  -26.0439  -26.5203   19.5211 C   0  0  0  0  0  0
  -24.9713  -27.4655   19.4648 C   0  0  0  0  0  0
  -23.7851  -29.6634   20.1372 C   0  0  0  0  0  0
  -25.4154  -36.2856   24.0277 C   0  0  1  0  0  0
  -20.5994  -28.3782   23.1119 C   0  0  2  0  0  0
  -20.6817  -26.9431   22.5403 C   0  0  0  0  0  0
  -19.5784  -26.6363   21.5212 C   0  0  0  0  0  0
  -18.1976  -26.7950   22.1620 C   0  0  0  0  0  0
  -19.1631  -28.8926   23.2768 C   0  0  0  0  0  0
  -18.9522  -30.1524   23.8801 C   0  0  0  0  0  0
  -17.6514  -30.6599   24.0540 C   0  0  0  0  0  0
  -25.9123  -34.9258   23.4916 C   0  0  0  0  0  0
  -16.5401  -29.9066   23.6361 C   0  0  0  0  0  0
  -16.7345  -28.6501   23.0346 C   0  0  0  0  0  0
  -26.4605  -31.6493   25.0664 C   0  0  0  0  0  0
  -25.3660  -31.3826   26.1266 C   0  0  0  0  0  0
  -27.0557  -30.2820   24.6647 C   0  0  0  0  0  0
  -27.6036  -32.4362   25.7505 C   0  0  0  0  0  0
  -27.5575  -37.1707   24.8451 C   0  0  0  0  0  0
  -21.4460  -29.3024   22.3426 N   0  0  0  0  0  0
  -26.4259  -37.3638   23.9424 N   0  0  0  0  0  0
  -24.7938  -30.9318   22.0725 N   0  0  0  0  0  0
  -23.4222  -28.7922   23.3089 O   0  0  0  0  0  0
  -28.1942  -25.3981   20.3878 O   0  0  0  0  0  0
  -26.5762  -34.8852   22.4540 O   0  0  0  0  0  0
  -23.5899  -32.1007   23.6376 O   0  0  0  0  0  0
  -29.3360  -18.5946   20.3898 C   0  0  0  0  0  0
  -28.8833  -19.2675   21.7428 C   0  0  0  0  0  0
  -28.2477  -20.8111   21.6067 C   0  0  0  0  0  0
  -29.1824  -20.2250   19.6113 C   0  0  1  0  0  0
  -28.8302  -21.8096   20.4744 C   0  0  1  0  0  0
  -30.4957  -20.4154   18.8491 C   0  0  0  0  0  0
  -28.1239  -23.6347   20.0490 C   0  0  0  0  0  0
  -29.6092  -17.1762   19.9549 N   0  0  0  0  0  0
  -31.4514  -13.3676   19.2061 H   0  0  0  0  0  0
  -30.6097  -12.3061   20.2513 H   0  0  0  0  0  0
  -30.0609  -11.8647   17.8240 H   0  0  0  0  0  0
  -29.5293  -13.5278   17.6292 H   0  0  0  0  0  0
  -28.2072  -11.3253   19.2285 H   0  0  0  0  0  0
  -27.5062  -12.2133   17.8886 H   0  0  0  0  0  0
  -27.4355  -14.2213   19.1679 H   0  0  0  0  0  0
  -28.8564  -12.8064   21.4745 H   0  0  0  0  0  0
  -28.1531  -14.3998   21.5868 H   0  0  0  0  0  0
  -25.2783   -9.5635   22.4760 H   0  0  0  0  0  0
  -23.9961   -7.4604   22.7475 H   0  0  0  0  0  0
  -21.0820   -8.8709   19.8999 H   0  0  0  0  0  0
  -22.3677  -10.9594   19.6111 H   0  0  0  0  0  0
  -21.2079   -7.6158   23.9723 H   0  0  0  0  0  0
  -21.1472   -6.0529   25.9073 H   0  0  0  0  0  0
  -22.0616   -2.7608   23.2813 H   0  0  0  0  0  0
  -22.3932  -11.9888   22.4931 H   0  0  0  0  0  0
  -21.0950  -13.1225   22.2595 H   0  0  0  0  0  0
  -24.6374  -15.8617   20.5719 H   0  0  0  0  0  0
  -26.2678  -15.6389   20.1633 H   0  0  0  0  0  0
  -26.7568  -32.4931   23.0757 H   0  0  0  0  0  0
  -25.0030  -33.9247   24.9970 H   0  0  0  0  0  0
  -22.8564  -31.2231   21.2859 H   0  0  0  0  0  0
  -23.3787  -35.9446   23.3215 H   0  0  0  0  0  0
  -24.3598  -36.8890   22.2089 H   0  0  0  0  0  0
  -23.7253  -37.6283   23.6783 H   0  0  0  0  0  0
  -26.3057  -31.2449   20.6333 H   0  0  0  0  0  0
  -26.9468  -30.5946   22.0906 H   0  0  0  0  0  0
  -28.1585  -28.3364   21.3955 H   0  0  0  0  0  0
  -25.8920  -25.5713   19.0303 H   0  0  0  0  0  0
  -24.0824  -27.1830   18.9211 H   0  0  0  0  0  0
  -23.9619  -30.4036   19.3581 H   0  0  0  0  0  0
  -22.8998  -29.1117   19.8181 H   0  0  0  0  0  0
  -25.1370  -36.1578   25.0757 H   0  0  0  0  0  0
  -21.0092  -28.3417   24.1242 H   0  0  0  0  0  0
  -20.5663  -26.2407   23.3670 H   0  0  0  0  0  0
  -21.6674  -26.7343   22.1232 H   0  0  0  0  0  0
  -19.6926  -25.6249   21.1298 H   0  0  0  0  0  0
  -19.6729  -27.3119   20.6692 H   0  0  0  0  0  0
  -17.4245  -26.6693   21.4032 H   0  0  0  0  0  0
  -18.0367  -26.0127   22.9037 H   0  0  0  0  0  0
  -19.7998  -30.7374   24.2120 H   0  0  0  0  0  0
  -17.5047  -31.6262   24.5156 H   0  0  0  0  0  0
  -15.5395  -30.2907   23.7738 H   0  0  0  0  0  0
  -15.8757  -28.0782   22.7077 H   0  0  0  0  0  0
  -24.5880  -30.7140   25.7562 H   0  0  0  0  0  0
  -24.8815  -32.3052   26.4466 H   0  0  0  0  0  0
  -25.7815  -30.9137   27.0198 H   0  0  0  0  0  0
  -26.3295  -29.6411   24.1645 H   0  0  0  0  0  0
  -27.3938  -29.7301   25.5435 H   0  0  0  0  0  0
  -27.9288  -30.3913   24.0216 H   0  0  0  0  0  0
  -27.2555  -33.3717   26.1904 H   0  0  0  0  0  0
  -28.3941  -32.6852   25.0409 H   0  0  0  0  0  0
  -28.0620  -31.8636   26.5585 H   0  0  0  0  0  0
  -28.2497  -38.0092   24.7562 H   0  0  0  0  0  0
  -28.1153  -36.2611   24.6165 H   0  0  0  0  0  0
  -27.2301  -37.1215   25.8850 H   0  0  0  0  0  0
  -20.9786  -29.8672   21.6463 H   0  0  0  0  0  0
  -26.0070  -38.2673   24.1452 H   0  0  0  0  0  0
  -29.6925  -19.2346   22.4788 H   0  0  0  0  0  0
  -28.1089  -18.6248   22.1636 H   0  0  0  0  0  0
  -28.2476  -21.2839   22.5880 H   0  0  0  0  0  0
  -27.1859  -20.6963   21.3741 H   0  0  0  0  0  0
  -28.4095  -20.0981   18.8507 H   0  0  0  0  0  0
  -29.8225  -22.0833   20.8330 H   0  0  0  0  0  0
  -31.3049  -20.5158   19.5763 H   0  0  0  0  0  0
  -30.4948  -21.2998   18.2123 H   0  0  0  0  0  0
  -30.6959  -19.5503   18.2132 H   0  0  0  0  0  0
  -27.0576  -23.4888   19.8898 H   0  0  0  0  0  0
  -28.5120  -23.7188   19.0342 H   0  0  0  0  0  0
  1 25  1  0  0  0
  1 30  2  0  0  0
  1 78  1  0  0  0
  2  3  1  0  0  0
  2 25  1  0  0  0
  2 79  1  0  0  0
  2 80  1  0  0  0
  3  4  1  0  0  0
  3 81  1  0  0  0
  3 82  1  0  0  0
  4  5  1  0  0  0
  4 83  1  0  0  0
  4 84  1  0  0  0
  5  6  1  0  0  0
  5 26  1  0  0  0
  5 85  1  0  0  0
  6 25  1  0  0  0
  6 86  1  0  0  0
  6 87  1  0  0  0
  7  8  2  0  0  0
  7 26  1  0  0  0
  7 29  1  0  0  0
  8  9  1  0  0  0
  8 22  1  0  0  0
  9 10  1  0  0  0
  9 27  2  0  0  0
 10 11  2  0  0  0
 10 15  1  0  0  0
 11 12  1  0  0  0
 11 88  1  0  0  0
 12 13  2  0  0  0
 12 89  1  0  0  0
 13 14  1  0  0  0
 13 31  1  0  0  0
 14 15  2  0  0  0
 14 90  1  0  0  0
 15 91  1  0  0  0
 16 17  2  0  0  0
 16 21  1  0  0  0
 16 31  1  0  0  0
 17 18  1  0  0  0
 17 92  1  0  0  0
 18 19  2  0  0  0
 18 93  1  0  0  0
 19 20  1  0  0  0
 19 24  1  0  0  0
 20 21  2  0  0  0
 20 94  1  0  0  0
 21 23  1  0  0  0
 22 28  1  0  0  0
 22 32  2  0  0  0
 26 27  1  0  0  0
 28 95  1  0  0  0
 28 96  1  0  0  0
 29 97  1  0  0  0
 29 98  1  0  0  0
 33 34  1  0  0  0
 33 66  1  0  0  0
 33 70  2  0  0  0
 34 36  1  0  0  0
 34 59  1  0  0  0
 34 99  1  0  0  0
 35 44  2  0  0  0
 35 45  1  0  0  0
 35 68  1  0  0  0
 36 56  1  0  0  0
 36100  1  0  0  0
 37 39  1  0  0  0
 37 47  1  0  0  0
 37 66  1  0  0  0
 37101  1  0  0  0
 38 43  2  0  0  0
 38 46  1  0  0  0
 38 47  1  0  0  0
 39 64  1  0  0  0
 39 67  2  0  0  0
 40 52  1  0  0  0
 40 53  2  0  0  0
 40 58  1  0  0  0
 41102  1  0  0  0
 41103  1  0  0  0
 41104  1  0  0  0
 41 48  1  0  0  0
 42 43  1  0  0  0
 42 66  1  0  0  0
 42105  1  0  0  0
 42106  1  0  0  0
 43 44  1  0  0  0
 44107  1  0  0  0
 45 46  2  0  0  0
 45108  1  0  0  0
 46109  1  0  0  0
 47110  1  0  0  0
 47111  1  0  0  0
 48 56  1  0  0  0
 48 65  1  0  0  0
 48112  1  0  0  0
 49 50  1  0  0  0
 49 53  1  0  0  0
 49 64  1  0  0  0
 49113  1  0  0  0
 50 51  1  0  0  0
 50114  1  0  0  0
 50115  1  0  0  0
 51 52  1  0  0  0
 51116  1  0  0  0
 51117  1  0  0  0
 52118  1  0  0  0
 52119  1  0  0  0
 53 54  1  0  0  0
 54 55  2  0  0  0
 54120  1  0  0  0
 55 57  1  0  0  0
 55121  1  0  0  0
 56 69  2  0  0  0
 57 58  2  0  0  0
 57122  1  0  0  0
 58123  1  0  0  0
 59 60  1  0  0  0
 59 61  1  0  0  0
 59 62  1  0  0  0
 60124  1  0  0  0
 60125  1  0  0  0
 60126  1  0  0  0
 61127  1  0  0  0
 61128  1  0  0  0
 61129  1  0  0  0
 62130  1  0  0  0
 62131  1  0  0  0
 62132  1  0  0  0
 63 65  1  0  0  0
 63133  1  0  0  0
 63134  1  0  0  0
 63135  1  0  0  0
 64136  1  0  0  0
 65137  1  0  0  0
 68 77  1  0  0  0
 71 72  1  0  0  0
 71 74  1  0  0  0
 71 78  2  0  0  0
 72 73  1  0  0  0
 72138  1  0  0  0
 72139  1  0  0  0
 73 75  1  0  0  0
 73140  1  0  0  0
 73141  1  0  0  0
 74 75  1  0  0  0
 74 76  1  0  0  0
 74142  1  0  0  0
 75 77  1  0  0  0
 75143  1  0  0  0
 76144  1  0  0  0
 76145  1  0  0  0
 76146  1  0  0  0
 77147  1  0  0  0
 77148  1  0  0  0
M  ISO  4   1 100  68 101  77 101  78 100
M  END
> <chiral flag>
0

> <version>
0

> <s_m_source_file>
/data/baiqing/PycharmProjects/Reinvent-master-3.2/result/LINK_invent/BTK/process_docking_weight1_custom_sum_contain_oxygen_bond_distance_aromatic_linkinvent_7_9_3/rearranged_h_0181.sdf

> <i_m_source_file_index>
59

> <r_mmod_Potential_Energy-OPLS-2005>
2962.18237304688

> <r_mmod_Stretch_Energy-OPLS-2005>
1209.74401855469

> <r_mmod_Bend_Energy-OPLS-2005>
833.018005371094

> <r_mmod_Torsional_Energy-OPLS-2005>
288.577239990234

> <r_mmod_Improper_Torsional_Energy-OPLS-2005>
14.0102167129517

> <r_mmod_Van_der_Waal_Energy-OPLS-2005>
104.13395690918

> <r_mmod_Electrostatic_Energy-OPLS-2005>
-334.401306152344

> <r_mmod_Solvation_Energy-OPLS-2005>
-180.985916137695

> <b_mmod_Minimization_Converged-OPLS-2005>
0

> <r_mmod_RMS_Derivative-OPLS-2005>
9.41554641723633

$$$$
59
                    3D
 Structure written by MMmdl.
169178  0  0  1  0            999 V2000
  -30.7479  -14.4197   20.5460 C   0  0  0  0  0  0
  -30.4040  -12.2707   19.4272 C   0  0  0  0  0  0
  -29.4879  -12.4797   18.2059 C   0  0  0  0  0  0
  -28.0090  -12.3579   18.6195 C   0  0  0  0  0  0
  -27.6567  -13.2111   19.8687 C   0  0  2  0  0  0
  -28.6989  -13.0222   20.9955 C   0  0  0  0  0  0
  -25.2562  -13.8176   20.5685 C   0  0  0  0  0  0
  -24.1823  -13.0444   20.9187 C   0  0  0  0  0  0
  -24.6384  -11.6912   20.8740 C   0  0  0  0  0  0
  -23.9056  -10.4295   21.0405 C   0  0  0  0  0  0
  -24.3610   -9.4210   21.9184 C   0  0  0  0  0  0
  -23.6288   -8.2243   22.0752 C   0  0  0  0  0  0
  -22.4269   -8.0282   21.3542 C   0  0  0  0  0  0
  -21.9905   -9.0256   20.4646 C   0  0  0  0  0  0
  -22.7230  -10.2134   20.3053 C   0  0  0  0  0  0
  -21.6853   -6.0734   22.5278 C   0  0  0  0  0  0
  -21.4014   -6.5637   23.8209 C   0  0  0  0  0  0
  -21.3657   -5.6790   24.9173 C   0  0  0  0  0  0
  -21.6044   -4.3054   24.7224 C   0  0  0  0  0  0
  -21.8819   -3.8144   23.4346 C   0  0  0  0  0  0
  -21.9193   -4.6961   22.3403 C   0  0  0  0  0  0
  -22.7844  -13.5238   21.1850 C   0  0  0  0  0  0
  -22.1662   -4.2147   21.0980 F   0  0  0  0  0  0
  -21.5629   -3.4539   25.7736 F   0  0  0  0  0  0
  -30.0307  -13.2773   20.4302 N   0  0  0  0  0  0
  -26.2998  -12.9355   20.3350 N   0  0  0  0  0  0
  -25.9312  -11.6512   20.5770 N   0  0  0  0  0  0
  -22.0482  -12.8231   22.0403 N   0  0  0  0  0  0
  -25.4270  -15.1893   20.4091 N   0  0  0  0  0  0
  -31.9053  -14.5309   20.1389 O   0  0  0  0  0  0
  -21.6639   -6.8876   21.4238 O   0  0  0  0  0  0
  -22.3532  -14.5547   20.6700 O   0  0  0  0  0  0
  -24.6097  -31.8711   23.2128 C   0  0  0  0  0  0
  -25.9011  -32.4839   23.8412 C   0  0  1  0  0  0
  -27.2340  -27.4778   20.0928 C   0  0  0  0  0  0
  -25.5887  -33.8636   24.2350 N   0  0  0  0  0  0
  -23.3963  -30.4934   21.5518 C   0  0  2  0  0  0
  -24.8457  -28.9642   20.1141 C   0  0  0  0  0  0
  -22.7385  -29.4664   22.5006 C   0  0  0  0  0  0
  -18.0262  -28.1368   22.8489 C   0  0  0  0  0  0
  -24.1486  -36.7320   23.2638 C   0  0  0  0  0  0
  -25.9199  -30.8499   21.3599 C   0  0  0  0  0  0
  -26.0010  -29.4859   20.7114 C   0  0  0  0  0  0
  -27.2015  -28.7468   20.7045 C   0  0  0  0  0  0
  -26.0718  -26.9588   19.4903 C   0  0  0  0  0  0
  -24.8730  -27.6970   19.5031 C   0  0  0  0  0  0
  -23.6036  -29.8238   20.1661 C   0  0  0  0  0  0
  -25.4104  -36.3123   24.0345 C   0  0  1  0  0  0
  -20.5850  -28.3648   23.1329 C   0  0  2  0  0  0
  -20.6753  -26.9389   22.5421 C   0  0  0  0  0  0
  -19.5738  -26.6380   21.5207 C   0  0  0  0  0  0
  -18.1911  -26.7918   22.1612 C   0  0  0  0  0  0
  -19.1512  -28.8824   23.2905 C   0  0  0  0  0  0
  -18.9445  -30.1433   23.8913 C   0  0  0  0  0  0
  -17.6451  -30.6581   24.0560 C   0  0  0  0  0  0
  -25.9027  -34.9487   23.5145 C   0  0  0  0  0  0
  -16.5340  -29.9083   23.6326 C   0  0  0  0  0  0
  -16.7253  -28.6496   23.0351 C   0  0  0  0  0  0
  -26.4463  -31.6599   25.0718 C   0  0  0  0  0  0
  -25.3748  -31.3693   26.1480 C   0  0  0  0  0  0
  -27.0285  -30.3050   24.6054 C   0  0  0  0  0  0
  -27.6051  -32.4306   25.7475 C   0  0  0  0  0  0
  -27.5583  -37.1809   24.8463 C   0  0  0  0  0  0
  -21.4119  -29.3024   22.3745 N   0  0  0  0  0  0
  -26.4293  -37.3803   23.9412 N   0  0  0  0  0  0
  -24.6598  -31.0845   22.1009 N   0  0  0  0  0  0
  -23.4178  -28.8206   23.3030 O   0  0  0  0  0  0
  -28.3744  -26.7249   20.0921 O   0  0  0  0  0  0
  -26.5586  -34.8929   22.4703 O   0  0  0  0  0  0
  -23.5301  -32.1442   23.7549 O   0  0  0  0  0  0
  -30.4835  -22.2992   20.4686 C   0  0  0  0  0  0
  -29.4399  -22.7790   19.6554 C   0  0  0  0  0  0
  -30.7986  -23.0891   21.5935 C   0  0  0  0  0  0
  -29.1945  -24.6057   21.0132 C   0  0  0  0  0  0
  -29.7501  -17.9321   21.5056 C   0  0  0  0  0  0
  -30.3921  -19.3409   21.4752 C   0  0  0  0  0  0
  -31.4700  -18.8458   19.3854 C   0  0  0  0  0  0
  -30.6261  -16.9034   20.7618 C   0  0  2  0  0  0
  -30.8394  -17.4422   19.3147 C   0  0  2  0  0  0
  -28.9930  -22.0722   18.3892 C   0  0  0  0  0  0
  -31.1942  -16.2896   17.1303 C   0  0  0  0  0  0
  -31.3148  -21.0854   20.0730 C   0  0  0  0  0  0
  -28.4998  -25.9335   21.2768 C   0  0  0  0  0  0
  -28.8009  -23.9262   19.9401 N   0  0  0  0  0  0
  -30.1489  -24.2362   21.8570 N   0  0  0  0  0  0
  -30.6112  -19.7986   20.0943 N   0  0  0  0  0  0
  -30.0639  -15.5350   20.8428 N   0  0  0  0  0  0
  -31.7061  -16.5817   18.4836 N   0  3  0  0  0  0
  -32.0568  -22.6350   22.6874 Cl  0  0  0  0  0  0
  -31.4527  -12.3325   19.1301 H   0  0  0  0  0  0
  -30.2719  -11.2688   19.8389 H   0  0  0  0  0  0
  -29.7185  -11.7452   17.4331 H   0  0  0  0  0  0
  -29.6703  -13.4588   17.7619 H   0  0  0  0  0  0
  -27.8129  -11.3049   18.8248 H   0  0  0  0  0  0
  -27.3610  -12.6289   17.7850 H   0  0  0  0  0  0
  -27.6937  -14.2540   19.5533 H   0  0  0  0  0  0
  -28.6581  -12.0049   21.3875 H   0  0  0  0  0  0
  -28.4824  -13.6780   21.8404 H   0  0  0  0  0  0
  -25.2754   -9.5691   22.4759 H   0  0  0  0  0  0
  -24.0001   -7.4635   22.7467 H   0  0  0  0  0  0
  -21.0836   -8.8773   19.8950 H   0  0  0  0  0  0
  -22.3689  -10.9673   19.6160 H   0  0  0  0  0  0
  -21.2003   -7.6143   23.9712 H   0  0  0  0  0  0
  -21.1478   -6.0520   25.9076 H   0  0  0  0  0  0
  -22.0598   -2.7607   23.2847 H   0  0  0  0  0  0
  -22.4084  -11.9886   22.4793 H   0  0  0  0  0  0
  -21.1103  -13.1268   22.2613 H   0  0  0  0  0  0
  -24.6587  -15.8424   20.5199 H   0  0  0  0  0  0
  -26.2750  -15.6307   20.0772 H   0  0  0  0  0  0
  -26.7084  -32.5578   23.1185 H   0  0  0  0  0  0
  -25.0062  -33.9807   25.0513 H   0  0  0  0  0  0
  -22.6822  -31.3079   21.4136 H   0  0  0  0  0  0
  -23.3747  -35.9654   23.3311 H   0  0  0  0  0  0
  -24.3584  -36.8920   22.2050 H   0  0  0  0  0  0
  -23.7237  -37.6530   23.6640 H   0  0  0  0  0  0
  -26.0232  -31.6159   20.5902 H   0  0  0  0  0  0
  -26.8108  -30.9082   21.9730 H   0  0  0  0  0  0
  -28.0950  -29.1433   21.1667 H   0  0  0  0  0  0
  -26.0961  -25.9838   19.0233 H   0  0  0  0  0  0
  -23.9840  -27.2885   19.0428 H   0  0  0  0  0  0
  -23.7046  -30.5974   19.4041 H   0  0  0  0  0  0
  -22.7304  -29.2371   19.8748 H   0  0  0  0  0  0
  -25.1275  -36.1996   25.0837 H   0  0  0  0  0  0
  -20.9935  -28.3210   24.1451 H   0  0  0  0  0  0
  -20.5649  -26.2253   23.3601 H   0  0  0  0  0  0
  -21.6628  -26.7435   22.1220 H   0  0  0  0  0  0
  -19.6902  -25.6294   21.1227 H   0  0  0  0  0  0
  -19.6686  -27.3199   20.6744 H   0  0  0  0  0  0
  -17.4186  -26.6670   21.4007 H   0  0  0  0  0  0
  -18.0308  -26.0053   22.9000 H   0  0  0  0  0  0
  -19.7925  -30.7236   24.2293 H   0  0  0  0  0  0
  -17.5013  -31.6268   24.5150 H   0  0  0  0  0  0
  -15.5343  -30.2993   23.7646 H   0  0  0  0  0  0
  -15.8648  -28.0821   22.7067 H   0  0  0  0  0  0
  -24.5915  -30.7042   25.7825 H   0  0  0  0  0  0
  -24.8946  -32.2846   26.4951 H   0  0  0  0  0  0
  -25.8122  -30.8852   27.0221 H   0  0  0  0  0  0
  -26.2810  -29.6818   24.1132 H   0  0  0  0  0  0
  -27.4098  -29.7275   25.4486 H   0  0  0  0  0  0
  -27.8626  -30.4383   23.9161 H   0  0  0  0  0  0
  -27.2679  -33.3587   26.2101 H   0  0  0  0  0  0
  -28.3836  -32.6892   25.0286 H   0  0  0  0  0  0
  -28.0747  -31.8398   26.5351 H   0  0  0  0  0  0
  -28.2604  -38.0104   24.7519 H   0  0  0  0  0  0
  -28.1074  -36.2638   24.6272 H   0  0  0  0  0  0
  -27.2306  -37.1446   25.8867 H   0  0  0  0  0  0
  -20.9267  -29.8752   21.6981 H   0  0  0  0  0  0
  -26.0189  -38.2883   24.1415 H   0  0  0  0  0  0
  -28.7538  -17.9749   21.0627 H   0  0  0  0  0  0
  -29.6108  -17.6238   22.5427 H   0  0  0  0  0  0
  -31.3361  -19.3255   22.0247 H   0  0  0  0  0  0
  -29.7430  -20.0474   21.9954 H   0  0  0  0  0  0
  -31.6364  -19.2085   18.3690 H   0  0  0  0  0  0
  -32.4494  -18.7946   19.8670 H   0  0  0  0  0  0
  -31.5937  -16.8831   21.2696 H   0  0  0  0  0  0
  -29.8615  -17.5197   18.8343 H   0  0  0  0  0  0
  -29.8176  -21.9953   17.6812 H   0  0  0  0  0  0
  -28.1800  -22.6071   17.8976 H   0  0  0  0  0  0
  -28.6387  -21.0675   18.6176 H   0  0  0  0  0  0
  -31.8889  -15.6431   16.5940 H   0  0  0  0  0  0
  -31.0720  -17.2060   16.5524 H   0  0  0  0  0  0
  -30.2304  -15.7822   17.1763 H   0  0  0  0  0  0
  -32.2272  -21.0228   20.6676 H   0  0  0  0  0  0
  -31.6615  -21.2905   19.0580 H   0  0  0  0  0  0
  -29.0571  -26.5075   22.0189 H   0  0  0  0  0  0
  -27.5280  -25.7094   21.7227 H   0  0  0  0  0  0
  -29.0959  -15.4309   21.1081 H   0  0  0  0  0  0
  -31.8366  -15.7080   18.9964 H   0  0  0  0  0  0
  -32.6168  -17.0038   18.4089 H   0  0  0  0  0  0
  1 25  1  0  0  0
  1 30  2  0  0  0
  1 87  1  0  0  0
  2  3  1  0  0  0
  2 25  1  0  0  0
  2 90  1  0  0  0
  2 91  1  0  0  0
  3  4  1  0  0  0
  3 92  1  0  0  0
  3 93  1  0  0  0
  4  5  1  0  0  0
  4 94  1  0  0  0
  4 95  1  0  0  0
  5  6  1  0  0  0
  5 26  1  0  0  0
  5 96  1  0  0  0
  6 25  1  0  0  0
  6 97  1  0  0  0
  6 98  1  0  0  0
  7  8  2  0  0  0
  7 26  1  0  0  0
  7 29  1  0  0  0
  8  9  1  0  0  0
  8 22  1  0  0  0
  9 10  1  0  0  0
  9 27  2  0  0  0
 10 11  2  0  0  0
 10 15  1  0  0  0
 11 12  1  0  0  0
 11 99  1  0  0  0
 12 13  2  0  0  0
 12100  1  0  0  0
 13 14  1  0  0  0
 13 31  1  0  0  0
 14 15  2  0  0  0
 14101  1  0  0  0
 15102  1  0  0  0
 16 17  2  0  0  0
 16 21  1  0  0  0
 16 31  1  0  0  0
 17 18  1  0  0  0
 17103  1  0  0  0
 18 19  2  0  0  0
 18104  1  0  0  0
 19 20  1  0  0  0
 19 24  1  0  0  0
 20 21  2  0  0  0
 20105  1  0  0  0
 21 23  1  0  0  0
 22 28  1  0  0  0
 22 32  2  0  0  0
 26 27  1  0  0  0
 28106  1  0  0  0
 28107  1  0  0  0
 29108  1  0  0  0
 29109  1  0  0  0
 33 34  1  0  0  0
 33 66  1  0  0  0
 33 70  2  0  0  0
 34 36  1  0  0  0
 34 59  1  0  0  0
 34110  1  0  0  0
 35 44  2  0  0  0
 35 45  1  0  0  0
 35 68  1  0  0  0
 36 56  1  0  0  0
 36111  1  0  0  0
 37 39  1  0  0  0
 37 47  1  0  0  0
 37 66  1  0  0  0
 37112  1  0  0  0
 38 43  2  0  0  0
 38 46  1  0  0  0
 38 47  1  0  0  0
 39 64  1  0  0  0
 39 67  2  0  0  0
 40 52  1  0  0  0
 40 53  2  0  0  0
 40 58  1  0  0  0
 41113  1  0  0  0
 41114  1  0  0  0
 41115  1  0  0  0
 41 48  1  0  0  0
 42 43  1  0  0  0
 42 66  1  0  0  0
 42116  1  0  0  0
 42117  1  0  0  0
 43 44  1  0  0  0
 44118  1  0  0  0
 45 46  2  0  0  0
 45119  1  0  0  0
 46120  1  0  0  0
 47121  1  0  0  0
 47122  1  0  0  0
 48 56  1  0  0  0
 48 65  1  0  0  0
 48123  1  0  0  0
 49 50  1  0  0  0
 49 53  1  0  0  0
 49 64  1  0  0  0
 49124  1  0  0  0
 50 51  1  0  0  0
 50125  1  0  0  0
 50126  1  0  0  0
 51 52  1  0  0  0
 51127  1  0  0  0
 51128  1  0  0  0
 52129  1  0  0  0
 52130  1  0  0  0
 53 54  1  0  0  0
 54 55  2  0  0  0
 54131  1  0  0  0
 55 57  1  0  0  0
 55132  1  0  0  0
 56 69  2  0  0  0
 57 58  2  0  0  0
 57133  1  0  0  0
 58134  1  0  0  0
 59 60  1  0  0  0
 59 61  1  0  0  0
 59 62  1  0  0  0
 60135  1  0  0  0
 60136  1  0  0  0
 60137  1  0  0  0
 61138  1  0  0  0
 61139  1  0  0  0
 61140  1  0  0  0
 62141  1  0  0  0
 62142  1  0  0  0
 62143  1  0  0  0
 63 65  1  0  0  0
 63144  1  0  0  0
 63145  1  0  0  0
 63146  1  0  0  0
 64147  1  0  0  0
 65148  1  0  0  0
 68 83  1  0  0  0
 71 72  2  0  0  0
 71 73  1  0  0  0
 71 82  1  0  0  0
 72 80  1  0  0  0
 72 84  1  0  0  0
 73 85  2  0  0  0
 73 89  1  0  0  0
 74 83  1  0  0  0
 74 84  2  0  0  0
 74 85  1  0  0  0
 75 76  1  0  0  0
 75 78  1  0  0  0
 75149  1  0  0  0
 75150  1  0  0  0
 76 86  1  0  0  0
 76151  1  0  0  0
 76152  1  0  0  0
 77 79  1  0  0  0
 77 86  1  0  0  0
 77153  1  0  0  0
 77154  1  0  0  0
 78 79  1  0  0  0
 78 87  1  0  0  0
 78155  1  0  0  0
 79 88  1  0  0  0
 79156  1  0  0  0
 80157  1  0  0  0
 80158  1  0  0  0
 80159  1  0  0  0
 81 88  1  0  0  0
 81160  1  0  0  0
 81161  1  0  0  0
 81162  1  0  0  0
 82 86  1  0  0  0
 82163  1  0  0  0
 82164  1  0  0  0
 83165  1  0  0  0
 83166  1  0  0  0
 87167  1  0  0  0
 88168  1  0  0  0
 88169  1  0  0  0
M  CHG  1  88   1
M  ISO  4   1 100  68 101  83 101  87 100
M  END
> <chiral flag>
0

> <version>
0

> <s_m_source_file>
/data/baiqing/PycharmProjects/Reinvent-master-3.2/result/LINK_invent/BTK/process_docking_weight1_custom_sum_contain_oxygen_bond_distance_aromatic_linkinvent_7_9_3/rearranged_h_0181.sdf

> <i_m_source_file_index>
60

> <r_mmod_Potential_Energy-OPLS-2005>
-544.87109375

> <r_mmod_Stretch_Energy-OPLS-2005>
34.5219955444336

> <r_mmod_Bend_Energy-OPLS-2005>
101.930023193359

> <r_mmod_Torsional_Energy-OPLS-2005>
304.607421875

> <r_mmod_Improper_Torsional_Energy-OPLS-2005>
7.66574668884277

> <r_mmod_Van_der_Waal_Energy-OPLS-2005>
178.936294555664

> <r_mmod_Electrostatic_Energy-OPLS-2005>
-742.671569824219

> <r_mmod_Solvation_Energy-OPLS-2005>
-443.833709716797

> <b_mmod_Minimization_Converged-OPLS-2005>
0

> <r_mmod_RMS_Derivative-OPLS-2005>
0.553234994411469

$$$$
60
                    3D
 Structure written by MMmdl.
155164  0  0  1  0            999 V2000
  -30.6157  -14.6849   20.4800 C   0  0  0  0  0  0
  -30.4394  -12.4165   19.4661 C   0  0  0  0  0  0
  -29.5099  -12.5080   18.2336 C   0  0  0  0  0  0
  -28.0346  -12.3388   18.6466 C   0  0  0  0  0  0
  -27.6515  -13.2203   19.8644 C   0  0  2  0  0  0
  -28.6976  -13.1046   20.9977 C   0  0  0  0  0  0
  -25.2535  -13.8168   20.5690 C   0  0  0  0  0  0
  -24.1812  -13.0433   20.9202 C   0  0  0  0  0  0
  -24.6392  -11.6909   20.8753 C   0  0  0  0  0  0
  -23.9064  -10.4292   21.0413 C   0  0  0  0  0  0
  -24.3614   -9.4203   21.9188 C   0  0  0  0  0  0
  -23.6291   -8.2240   22.0757 C   0  0  0  0  0  0
  -22.4273   -8.0280   21.3545 C   0  0  0  0  0  0
  -21.9907   -9.0251   20.4646 C   0  0  0  0  0  0
  -22.7236  -10.2133   20.3059 C   0  0  0  0  0  0
  -21.6851   -6.0732   22.5278 C   0  0  0  0  0  0
  -21.4015   -6.5636   23.8210 C   0  0  0  0  0  0
  -21.3662   -5.6790   24.9172 C   0  0  0  0  0  0
  -21.6044   -4.3052   24.7223 C   0  0  0  0  0  0
  -21.8820   -3.8144   23.4344 C   0  0  0  0  0  0
  -21.9192   -4.6961   22.3401 C   0  0  0  0  0  0
  -22.7835  -13.5224   21.1852 C   0  0  0  0  0  0
  -22.1660   -4.2147   21.0977 F   0  0  0  0  0  0
  -21.5629   -3.4539   25.7735 F   0  0  0  0  0  0
  -30.0110  -13.4515   20.4328 N   0  0  0  0  0  0
  -26.2979  -12.9366   20.3336 N   0  0  0  0  0  0
  -25.9321  -11.6519   20.5777 N   0  0  0  0  0  0
  -22.0482  -12.8220   22.0415 N   0  0  0  0  0  0
  -25.4211  -15.1890   20.4066 N   0  0  0  0  0  0
  -31.7746  -14.8388   20.0840 O   0  0  0  0  0  0
  -21.6638   -6.8875   21.4241 O   0  0  0  0  0  0
  -22.3524  -14.5533   20.6698 O   0  0  0  0  0  0
  -24.6289  -31.8578   23.2020 C   0  0  0  0  0  0
  -25.9129  -32.4768   23.8351 C   0  0  1  0  0  0
  -27.2232  -27.2919   20.1219 C   0  0  0  0  0  0
  -25.5937  -33.8567   24.2274 N   0  0  0  0  0  0
  -23.4238  -30.4827   21.5443 C   0  0  2  0  0  0
  -24.8728  -28.9416   20.1076 C   0  0  0  0  0  0
  -22.7477  -29.4626   22.4921 C   0  0  0  0  0  0
  -18.0303  -28.1378   22.8483 C   0  0  0  0  0  0
  -24.1494  -36.7293   23.2639 C   0  0  0  0  0  0
  -25.9689  -30.7812   21.3790 C   0  0  0  0  0  0
  -26.0434  -29.4078   20.7192 C   0  0  0  0  0  0
  -27.2211  -28.5951   20.7183 C   0  0  0  0  0  0
  -26.0292  -26.8989   19.4700 C   0  0  0  0  0  0
  -24.8703  -27.6941   19.4709 C   0  0  0  0  0  0
  -23.6406  -29.8211   20.1590 C   0  0  0  0  0  0
  -25.4119  -36.3076   24.0326 C   0  0  1  0  0  0
  -20.5902  -28.3689   23.1275 C   0  0  2  0  0  0
  -20.6800  -26.9419   22.5390 C   0  0  0  0  0  0
  -19.5755  -26.6360   21.5222 C   0  0  0  0  0  0
  -18.1937  -26.7920   22.1630 C   0  0  0  0  0  0
  -19.1555  -28.8840   23.2880 C   0  0  0  0  0  0
  -18.9481  -30.1439   23.8890 C   0  0  0  0  0  0
  -17.6485  -30.6571   24.0554 C   0  0  0  0  0  0
  -25.9053  -34.9446   23.5099 C   0  0  0  0  0  0
  -16.5365  -29.9082   23.6316 C   0  0  0  0  0  0
  -16.7289  -28.6500   23.0334 C   0  0  0  0  0  0
  -26.4504  -31.6580   25.0725 C   0  0  0  0  0  0
  -25.3729  -31.3718   26.1438 C   0  0  0  0  0  0
  -27.0353  -30.3004   24.6195 C   0  0  0  0  0  0
  -27.6052  -32.4318   25.7509 C   0  0  0  0  0  0
  -27.5578  -37.1803   24.8463 C   0  0  0  0  0  0
  -21.4181  -29.3058   22.3661 N   0  0  0  0  0  0
  -26.4295  -37.3771   23.9398 N   0  0  0  0  0  0
  -24.6925  -31.0572   22.0983 N   0  0  0  0  0  0
  -23.4181  -28.8158   23.3007 O   0  0  0  0  0  0
  -28.3158  -26.3975   20.1975 O   0  0  0  0  0  0
  -26.5615  -34.8917   22.4662 O   0  0  0  0  0  0
  -23.5448  -32.1380   23.7337 O   0  0  0  0  0  0
  -27.0422  -19.8863   20.1457 C   0  0  0  0  0  0
  -28.4140  -19.8554   20.4493 C   0  0  0  0  0  0
  -26.4072  -21.1073   19.9406 C   0  0  0  0  0  0
  -28.3761  -22.2420   20.3132 C   0  0  0  0  0  0
  -28.6447  -17.5595   19.5900 C   0  0  0  0  0  0
  -28.9527  -18.4040   20.8188 C   0  0  1  0  0  0
  -29.8856  -17.1851   20.2847 C   0  0  1  0  0  0
  -24.9227  -21.2011   19.6622 C   0  0  0  0  0  0
  -28.9716  -23.7057   20.4793 C   0  0  0  0  0  0
  -28.0163  -24.9373   20.0421 C   0  0  0  0  0  0
  -29.0780  -21.0757   20.5392 N   0  0  0  0  0  0
  -27.0804  -22.2575   20.0211 N   0  0  0  0  0  0
  -29.7974  -15.7603   20.7399 N   0  0  0  0  0  0
  -30.3813  -11.4272   19.9220 H   0  0  0  0  0  0
  -31.4801  -12.5440   19.1609 H   0  0  0  0  0  0
  -29.7810  -11.7477   17.4996 H   0  0  0  0  0  0
  -29.6444  -13.4720   17.7402 H   0  0  0  0  0  0
  -27.8805  -11.2874   18.8905 H   0  0  0  0  0  0
  -27.3779  -12.5529   17.8027 H   0  0  0  0  0  0
  -27.6611  -14.2501   19.5086 H   0  0  0  0  0  0
  -28.4379  -13.7566   21.8332 H   0  0  0  0  0  0
  -28.7161  -12.0910   21.4015 H   0  0  0  0  0  0
  -25.2761   -9.5679   22.4759 H   0  0  0  0  0  0
  -24.0002   -7.4631   22.7471 H   0  0  0  0  0  0
  -21.0843   -8.8764   19.8949 H   0  0  0  0  0  0
  -22.3696  -10.9668   19.6166 H   0  0  0  0  0  0
  -21.2010   -7.6147   23.9711 H   0  0  0  0  0  0
  -21.1484   -6.0522   25.9073 H   0  0  0  0  0  0
  -22.0599   -2.7610   23.2844 H   0  0  0  0  0  0
  -22.4101  -11.9891   22.4816 H   0  0  0  0  0  0
  -21.1092  -13.1238   22.2611 H   0  0  0  0  0  0
  -24.6420  -15.8326   20.4911 H   0  0  0  0  0  0
  -26.2518  -15.6205   20.0262 H   0  0  0  0  0  0
  -26.7192  -32.5439   23.1096 H   0  0  0  0  0  0
  -25.0095  -33.9706   25.0429 H   0  0  0  0  0  0
  -22.7203  -31.3053   21.4003 H   0  0  0  0  0  0
  -23.3754  -35.9627   23.3302 H   0  0  0  0  0  0
  -24.3586  -36.8910   22.2053 H   0  0  0  0  0  0
  -23.7253  -37.6498   23.6663 H   0  0  0  0  0  0
  -26.1033  -31.5449   20.6114 H   0  0  0  0  0  0
  -26.8479  -30.8284   22.0100 H   0  0  0  0  0  0
  -28.1135  -28.9451   21.2183 H   0  0  0  0  0  0
  -25.9519  -25.9500   18.9627 H   0  0  0  0  0  0
  -23.9783  -27.3333   18.9781 H   0  0  0  0  0  0
  -23.7569  -30.5988   19.4031 H   0  0  0  0  0  0
  -22.7621  -29.2475   19.8578 H   0  0  0  0  0  0
  -25.1303  -36.1924   25.0818 H   0  0  0  0  0  0
  -21.0007  -28.3265   24.1391 H   0  0  0  0  0  0
  -20.5744  -26.2297   23.3591 H   0  0  0  0  0  0
  -21.6673  -26.7488   22.1156 H   0  0  0  0  0  0
  -19.6902  -25.6249   21.1292 H   0  0  0  0  0  0
  -19.6680  -27.3141   20.6728 H   0  0  0  0  0  0
  -17.4195  -26.6654   21.4043 H   0  0  0  0  0  0
  -18.0336  -26.0087   22.9054 H   0  0  0  0  0  0
  -19.7964  -30.7244   24.2255 H   0  0  0  0  0  0
  -17.5041  -31.6256   24.5138 H   0  0  0  0  0  0
  -15.5375  -30.3002   23.7617 H   0  0  0  0  0  0
  -15.8684  -28.0832   22.7031 H   0  0  0  0  0  0
  -24.5910  -30.7064   25.7761 H   0  0  0  0  0  0
  -24.8918  -32.2886   26.4854 H   0  0  0  0  0  0
  -25.8042  -30.8900   27.0220 H   0  0  0  0  0  0
  -26.2941  -29.6750   24.1206 H   0  0  0  0  0  0
  -27.4027  -29.7258   25.4707 H   0  0  0  0  0  0
  -27.8821  -30.4280   23.9449 H   0  0  0  0  0  0
  -27.2652  -33.3611   26.2092 H   0  0  0  0  0  0
  -28.3875  -32.6882   25.0353 H   0  0  0  0  0  0
  -28.0714  -31.8439   26.5425 H   0  0  0  0  0  0
  -28.2597  -38.0100   24.7506 H   0  0  0  0  0  0
  -28.1073  -36.2627   24.6300 H   0  0  0  0  0  0
  -27.2293  -37.1468   25.8867 H   0  0  0  0  0  0
  -20.9352  -29.8773   21.6867 H   0  0  0  0  0  0
  -26.0174  -38.2845   24.1396 H   0  0  0  0  0  0
  -26.4619  -18.9737   20.1091 H   0  0  0  0  0  0
  -28.7815  -18.0138   18.6095 H   0  0  0  0  0  0
  -27.7647  -16.9252   19.6639 H   0  0  0  0  0  0
  -28.4619  -18.1519   21.7565 H   0  0  0  0  0  0
  -30.8292  -17.4895   19.8350 H   0  0  0  0  0  0
  -24.4922  -22.0786   20.1458 H   0  0  0  0  0  0
  -24.7405  -21.2783   18.5909 H   0  0  0  0  0  0
  -24.3990  -20.3241   20.0418 H   0  0  0  0  0  0
  -29.9058  -23.7599   19.9202 H   0  0  0  0  0  0
  -29.2405  -23.8277   21.5279 H   0  0  0  0  0  0
  -27.0881  -24.7759   20.5913 H   0  0  0  0  0  0
  -27.7878  -24.7780   18.9873 H   0  0  0  0  0  0
  -28.8980  -15.4914   21.1086 H   0  0  0  0  0  0
  1 25  1  0  0  0
  1 30  2  0  0  0
  1 83  1  0  0  0
  2  3  1  0  0  0
  2 25  1  0  0  0
  2 84  1  0  0  0
  2 85  1  0  0  0
  3  4  1  0  0  0
  3 86  1  0  0  0
  3 87  1  0  0  0
  4  5  1  0  0  0
  4 88  1  0  0  0
  4 89  1  0  0  0
  5  6  1  0  0  0
  5 26  1  0  0  0
  5 90  1  0  0  0
  6 25  1  0  0  0
  6 91  1  0  0  0
  6 92  1  0  0  0
  7  8  2  0  0  0
  7 26  1  0  0  0
  7 29  1  0  0  0
  8  9  1  0  0  0
  8 22  1  0  0  0
  9 10  1  0  0  0
  9 27  2  0  0  0
 10 11  2  0  0  0
 10 15  1  0  0  0
 11 12  1  0  0  0
 11 93  1  0  0  0
 12 13  2  0  0  0
 12 94  1  0  0  0
 13 14  1  0  0  0
 13 31  1  0  0  0
 14 15  2  0  0  0
 14 95  1  0  0  0
 15 96  1  0  0  0
 16 17  2  0  0  0
 16 21  1  0  0  0
 16 31  1  0  0  0
 17 18  1  0  0  0
 17 97  1  0  0  0
 18 19  2  0  0  0
 18 98  1  0  0  0
 19 20  1  0  0  0
 19 24  1  0  0  0
 20 21  2  0  0  0
 20 99  1  0  0  0
 21 23  1  0  0  0
 22 28  1  0  0  0
 22 32  2  0  0  0
 26 27  1  0  0  0
 28100  1  0  0  0
 28101  1  0  0  0
 29102  1  0  0  0
 29103  1  0  0  0
 33 34  1  0  0  0
 33 66  1  0  0  0
 33 70  2  0  0  0
 34 36  1  0  0  0
 34 59  1  0  0  0
 34104  1  0  0  0
 35 44  2  0  0  0
 35 45  1  0  0  0
 35 68  1  0  0  0
 36 56  1  0  0  0
 36105  1  0  0  0
 37 39  1  0  0  0
 37 47  1  0  0  0
 37 66  1  0  0  0
 37106  1  0  0  0
 38 43  2  0  0  0
 38 46  1  0  0  0
 38 47  1  0  0  0
 39 64  1  0  0  0
 39 67  2  0  0  0
 40 52  1  0  0  0
 40 53  2  0  0  0
 40 58  1  0  0  0
 41107  1  0  0  0
 41108  1  0  0  0
 41109  1  0  0  0
 41 48  1  0  0  0
 42 43  1  0  0  0
 42 66  1  0  0  0
 42110  1  0  0  0
 42111  1  0  0  0
 43 44  1  0  0  0
 44112  1  0  0  0
 45 46  2  0  0  0
 45113  1  0  0  0
 46114  1  0  0  0
 47115  1  0  0  0
 47116  1  0  0  0
 48 56  1  0  0  0
 48 65  1  0  0  0
 48117  1  0  0  0
 49 50  1  0  0  0
 49 53  1  0  0  0
 49 64  1  0  0  0
 49118  1  0  0  0
 50 51  1  0  0  0
 50119  1  0  0  0
 50120  1  0  0  0
 51 52  1  0  0  0
 51121  1  0  0  0
 51122  1  0  0  0
 52123  1  0  0  0
 52124  1  0  0  0
 53 54  1  0  0  0
 54 55  2  0  0  0
 54125  1  0  0  0
 55 57  1  0  0  0
 55126  1  0  0  0
 56 69  2  0  0  0
 57 58  2  0  0  0
 57127  1  0  0  0
 58128  1  0  0  0
 59 60  1  0  0  0
 59 61  1  0  0  0
 59 62  1  0  0  0
 60129  1  0  0  0
 60130  1  0  0  0
 60131  1  0  0  0
 61132  1  0  0  0
 61133  1  0  0  0
 61134  1  0  0  0
 62135  1  0  0  0
 62136  1  0  0  0
 62137  1  0  0  0
 63 65  1  0  0  0
 63138  1  0  0  0
 63139  1  0  0  0
 63140  1  0  0  0
 64141  1  0  0  0
 65142  1  0  0  0
 68 80  1  0  0  0
 71 72  2  0  0  0
 71 73  1  0  0  0
 71143  1  0  0  0
 72 81  1  0  0  0
 72 76  1  0  0  0
 73 78  1  0  0  0
 73 82  2  0  0  0
 74 79  1  0  0  0
 74 81  2  0  0  0
 74 82  1  0  0  0
 75 76  1  0  0  0
 75 77  1  0  0  0
 75144  1  0  0  0
 75145  1  0  0  0
 76 77  1  0  0  0
 76146  1  0  0  0
 77 83  1  0  0  0
 77147  1  0  0  0
 78148  1  0  0  0
 78149  1  0  0  0
 78150  1  0  0  0
 79 80  1  0  0  0
 79151  1  0  0  0
 79152  1  0  0  0
 80153  1  0  0  0
 80154  1  0  0  0
 83155  1  0  0  0
M  ISO  4   1 100  68 101  80 101  83 100
M  END
> <chiral flag>
0

> <version>
0

> <s_m_source_file>
/data/baiqing/PycharmProjects/Reinvent-master-3.2/result/LINK_invent/BTK/process_docking_weight1_custom_sum_contain_oxygen_bond_distance_aromatic_linkinvent_7_9_3/rearranged_h_0181.sdf

> <i_m_source_file_index>
61

> <r_mmod_Potential_Energy-OPLS-2005>
-123.124328613281

> <r_mmod_Stretch_Energy-OPLS-2005>
122.101547241211

> <r_mmod_Bend_Energy-OPLS-2005>
237.132797241211

> <r_mmod_Torsional_Energy-OPLS-2005>
258.477416992188

> <r_mmod_Improper_Torsional_Energy-OPLS-2005>
7.805495262146

> <r_mmod_Van_der_Waal_Energy-OPLS-2005>
156.802185058594

> <r_mmod_Electrostatic_Energy-OPLS-2005>
-726.028930664062

> <r_mmod_Solvation_Energy-OPLS-2005>
-244.936904907227

> <b_mmod_Minimization_Converged-OPLS-2005>
0

> <r_mmod_RMS_Derivative-OPLS-2005>
1.28064429759979

$$$$
61
                    3D
 Structure written by MMmdl.
153162  0  0  1  0            999 V2000
  -30.5023  -15.0438   20.4194 C   0  0  0  0  0  0
  -30.4336  -12.6508   19.5217 C   0  0  0  0  0  0
  -29.5257  -12.5415   18.2736 C   0  0  0  0  0  0
  -28.0605  -12.3155   18.6872 C   0  0  0  0  0  0
  -27.6195  -13.2593   19.8360 C   0  0  2  0  0  0
  -28.6546  -13.3296   20.9776 C   0  0  0  0  0  0
  -25.2405  -13.8226   20.5735 C   0  0  0  0  0  0
  -24.1754  -13.0427   20.9267 C   0  0  0  0  0  0
  -24.6389  -11.6924   20.8784 C   0  0  0  0  0  0
  -23.9079  -10.4293   21.0427 C   0  0  0  0  0  0
  -24.3621   -9.4196   21.9194 C   0  0  0  0  0  0
  -23.6284   -8.2237   22.0757 C   0  0  0  0  0  0
  -22.4265   -8.0278   21.3559 C   0  0  0  0  0  0
  -21.9914   -9.0261   20.4676 C   0  0  0  0  0  0
  -22.7251  -10.2128   20.3081 C   0  0  0  0  0  0
  -21.6843   -6.0746   22.5297 C   0  0  0  0  0  0
  -21.4023   -6.5649   23.8234 C   0  0  0  0  0  0
  -21.3662   -5.6798   24.9199 C   0  0  0  0  0  0
  -21.6033   -4.3059   24.7237 C   0  0  0  0  0  0
  -21.8804   -3.8159   23.4361 C   0  0  0  0  0  0
  -21.9185   -4.6976   22.3419 C   0  0  0  0  0  0
  -22.7771  -13.5192   21.1916 C   0  0  0  0  0  0
  -22.1653   -4.2166   21.0995 F   0  0  0  0  0  0
  -21.5619   -3.4538   25.7748 F   0  0  0  0  0  0
  -29.9187  -13.7675   20.3754 N   0  0  0  0  0  0
  -26.2824  -12.9484   20.3221 N   0  0  0  0  0  0
  -25.9317  -11.6602   20.5737 N   0  0  0  0  0  0
  -22.0431  -12.8175   22.0477 N   0  0  0  0  0  0
  -25.4009  -15.1964   20.4182 N   0  0  0  0  0  0
  -31.7118  -15.0847   20.1656 O   0  0  0  0  0  0
  -21.6619   -6.8880   21.4259 O   0  0  0  0  0  0
  -22.3460  -14.5506   20.6767 O   0  0  0  0  0  0
  -24.6504  -31.8380   23.1826 C   0  0  0  0  0  0
  -25.9245  -32.4664   23.8234 C   0  0  1  0  0  0
  -27.2079  -27.0597   20.1702 C   0  0  0  0  0  0
  -25.5966  -33.8477   24.2151 N   0  0  0  0  0  0
  -23.4579  -30.4568   21.5284 C   0  0  2  0  0  0
  -24.9101  -28.8772   20.1044 C   0  0  0  0  0  0
  -22.7605  -29.4513   22.4810 C   0  0  0  0  0  0
  -18.0313  -28.1397   22.8476 C   0  0  0  0  0  0
  -24.1492  -36.7266   23.2639 C   0  0  0  0  0  0
  -26.0187  -30.6886   21.3943 C   0  0  0  0  0  0
  -26.0887  -29.2923   20.7384 C   0  0  0  0  0  0
  -27.2358  -28.4003   20.7563 C   0  0  0  0  0  0
  -26.0117  -26.7803   19.4712 C   0  0  0  0  0  0
  -24.8921  -27.6380   19.4484 C   0  0  0  0  0  0
  -23.6914  -29.7885   20.1468 C   0  0  0  0  0  0
  -25.4120  -36.3020   24.0307 C   0  0  1  0  0  0
  -20.5931  -28.3732   23.1212 C   0  0  2  0  0  0
  -20.6797  -26.9429   22.5392 C   0  0  0  0  0  0
  -19.5766  -26.6379   21.5208 C   0  0  0  0  0  0
  -18.1950  -26.7930   22.1627 C   0  0  0  0  0  0
  -19.1572  -28.8879   23.2838 C   0  0  0  0  0  0
  -18.9486  -30.1473   23.8875 C   0  0  0  0  0  0
  -17.6482  -30.6588   24.0561 C   0  0  0  0  0  0
  -25.9077  -34.9390   23.5034 C   0  0  0  0  0  0
  -16.5373  -29.9088   23.6330 C   0  0  0  0  0  0
  -16.7300  -28.6506   23.0353 C   0  0  0  0  0  0
  -26.4531  -31.6559   25.0711 C   0  0  0  0  0  0
  -25.3700  -31.3784   26.1401 C   0  0  0  0  0  0
  -27.0390  -30.2936   24.6337 C   0  0  0  0  0  0
  -27.6039  -32.4339   25.7518 C   0  0  0  0  0  0
  -27.5568  -37.1793   24.8460 C   0  0  0  0  0  0
  -21.4286  -29.3050   22.3568 N   0  0  0  0  0  0
  -26.4283  -37.3737   23.9402 N   0  0  0  0  0  0
  -24.7293  -31.0173   22.0898 N   0  0  0  0  0  0
  -23.4219  -28.8056   23.2986 O   0  0  0  0  0  0
  -28.2062  -25.9974   20.2813 O   0  0  0  0  0  0
  -26.5661  -34.8895   22.4615 O   0  0  0  0  0  0
  -23.5608  -32.1284   23.7005 O   0  0  0  0  0  0
  -29.6627  -22.7121   21.3339 C   0  0  0  0  0  0
  -28.6142  -23.0310   20.4008 C   0  0  0  0  0  0
  -28.8616  -18.7445   18.8911 C   0  0  0  0  0  0
  -30.2862  -18.1638   18.9450 C   0  0  0  0  0  0
  -28.9999  -19.1878   20.3506 C   0  0  1  0  0  0
  -30.0772  -17.8351   20.4278 C   0  0  1  0  0  0
  -30.3806  -23.6988   22.2026 C   0  0  0  0  0  0
  -27.8236  -24.4750   20.0381 C   0  0  0  0  0  0
  -29.9458  -21.4026   21.4012 N   0  0  0  0  0  0
  -28.2859  -21.7871   19.9273 N   0  0  0  0  0  0
  -29.1200  -20.7721   20.5137 N   0  0  0  0  0  0
  -29.7280  -16.2577   20.5454 N   0  0  0  0  0  0
  -31.4678  -12.8157   19.2159 H   0  0  0  0  0  0
  -30.4373  -11.7133   20.0797 H   0  0  0  0  0  0
  -29.8608  -11.7284   17.6277 H   0  0  0  0  0  0
  -29.6057  -13.4570   17.6862 H   0  0  0  0  0  0
  -27.9674  -11.2773   19.0071 H   0  0  0  0  0  0
  -27.3976  -12.4270   17.8293 H   0  0  0  0  0  0
  -27.5657  -14.2532   19.3897 H   0  0  0  0  0  0
  -28.7634  -12.3663   21.4786 H   0  0  0  0  0  0
  -28.3338  -14.0412   21.7395 H   0  0  0  0  0  0
  -25.2776   -9.5643   22.4757 H   0  0  0  0  0  0
  -23.9996   -7.4620   22.7453 H   0  0  0  0  0  0
  -21.0847   -8.8787   19.8981 H   0  0  0  0  0  0
  -22.3726  -10.9663   19.6187 H   0  0  0  0  0  0
  -21.2033   -7.6159   23.9745 H   0  0  0  0  0  0
  -21.1493   -6.0536   25.9095 H   0  0  0  0  0  0
  -22.0578   -2.7617   23.2861 H   0  0  0  0  0  0
  -22.4034  -11.9825   22.4866 H   0  0  0  0  0  0
  -21.1058  -13.1226   22.2690 H   0  0  0  0  0  0
  -24.6212  -15.8349   20.5333 H   0  0  0  0  0  0
  -26.2208  -15.6451   20.0317 H   0  0  0  0  0  0
  -26.7317  -32.5249   23.0965 H   0  0  0  0  0  0
  -25.0086  -33.9573   25.0277 H   0  0  0  0  0  0
  -22.7642  -31.2854   21.3706 H   0  0  0  0  0  0
  -23.3741  -35.9614   23.3290 H   0  0  0  0  0  0
  -24.3576  -36.8914   22.2058 H   0  0  0  0  0  0
  -23.7264  -37.6463   23.6692 H   0  0  0  0  0  0
  -26.1772  -31.4390   20.6184 H   0  0  0  0  0  0
  -26.8885  -30.7465   22.0371 H   0  0  0  0  0  0
  -28.1223  -28.7099   21.2906 H   0  0  0  0  0  0
  -25.8947  -25.8403   18.9527 H   0  0  0  0  0  0
  -24.0009  -27.3202   18.9240 H   0  0  0  0  0  0
  -23.8375  -30.5661   19.3956 H   0  0  0  0  0  0
  -22.8044  -29.2380   19.8283 H   0  0  0  0  0  0
  -25.1311  -36.1835   25.0802 H   0  0  0  0  0  0
  -21.0026  -28.3329   24.1333 H   0  0  0  0  0  0
  -20.5677  -26.2355   23.3621 H   0  0  0  0  0  0
  -21.6661  -26.7411   22.1194 H   0  0  0  0  0  0
  -19.6919  -25.6281   21.1259 H   0  0  0  0  0  0
  -19.6691  -27.3175   20.6726 H   0  0  0  0  0  0
  -17.4207  -26.6660   21.4045 H   0  0  0  0  0  0
  -18.0360  -26.0086   22.9039 H   0  0  0  0  0  0
  -19.7961  -30.7292   24.2239 H   0  0  0  0  0  0
  -17.5035  -31.6263   24.5171 H   0  0  0  0  0  0
  -15.5375  -30.2982   23.7660 H   0  0  0  0  0  0
  -15.8702  -28.0816   22.7079 H   0  0  0  0  0  0
  -24.5885  -30.7119   25.7736 H   0  0  0  0  0  0
  -24.8887  -32.2982   26.4735 H   0  0  0  0  0  0
  -25.7978  -30.9023   27.0232 H   0  0  0  0  0  0
  -26.3010  -29.6662   24.1325 H   0  0  0  0  0  0
  -27.3944  -29.7248   25.4938 H   0  0  0  0  0  0
  -27.8951  -30.4145   23.9701 H   0  0  0  0  0  0
  -27.2604  -33.3659   26.2020 H   0  0  0  0  0  0
  -28.3903  -32.6864   25.0397 H   0  0  0  0  0  0
  -28.0645  -31.8511   26.5503 H   0  0  0  0  0  0
  -28.2576  -38.0094   24.7480 H   0  0  0  0  0  0
  -28.1070  -36.2615   24.6316 H   0  0  0  0  0  0
  -27.2285  -37.1476   25.8864 H   0  0  0  0  0  0
  -20.9504  -29.8809   21.6778 H   0  0  0  0  0  0
  -26.0138  -38.2807   24.1389 H   0  0  0  0  0  0
  -28.0854  -17.9906   18.7496 H   0  0  0  0  0  0
  -28.7441  -19.5669   18.1837 H   0  0  0  0  0  0
  -31.0531  -18.9251   18.7921 H   0  0  0  0  0  0
  -30.4428  -17.3117   18.2833 H   0  0  0  0  0  0
  -28.0903  -18.9397   20.8995 H   0  0  0  0  0  0
  -30.9572  -18.0899   21.0187 H   0  0  0  0  0  0
  -29.7153  -24.4995   22.5256 H   0  0  0  0  0  0
  -31.2116  -24.1590   21.6687 H   0  0  0  0  0  0
  -30.7800  -23.2332   23.1035 H   0  0  0  0  0  0
  -26.8365  -24.3746   20.4901 H   0  0  0  0  0  0
  -27.6315  -24.4267   18.9665 H   0  0  0  0  0  0
  -28.7514  -16.0725   20.7186 H   0  0  0  0  0  0
  1 25  1  0  0  0
  1 30  2  0  0  0
  1 82  1  0  0  0
  2  3  1  0  0  0
  2 25  1  0  0  0
  2 83  1  0  0  0
  2 84  1  0  0  0
  3  4  1  0  0  0
  3 85  1  0  0  0
  3 86  1  0  0  0
  4  5  1  0  0  0
  4 87  1  0  0  0
  4 88  1  0  0  0
  5  6  1  0  0  0
  5 26  1  0  0  0
  5 89  1  0  0  0
  6 25  1  0  0  0
  6 90  1  0  0  0
  6 91  1  0  0  0
  7  8  2  0  0  0
  7 26  1  0  0  0
  7 29  1  0  0  0
  8  9  1  0  0  0
  8 22  1  0  0  0
  9 10  1  0  0  0
  9 27  2  0  0  0
 10 11  2  0  0  0
 10 15  1  0  0  0
 11 12  1  0  0  0
 11 92  1  0  0  0
 12 13  2  0  0  0
 12 93  1  0  0  0
 13 14  1  0  0  0
 13 31  1  0  0  0
 14 15  2  0  0  0
 14 94  1  0  0  0
 15 95  1  0  0  0
 16 17  2  0  0  0
 16 21  1  0  0  0
 16 31  1  0  0  0
 17 18  1  0  0  0
 17 96  1  0  0  0
 18 19  2  0  0  0
 18 97  1  0  0  0
 19 20  1  0  0  0
 19 24  1  0  0  0
 20 21  2  0  0  0
 20 98  1  0  0  0
 21 23  1  0  0  0
 22 28  1  0  0  0
 22 32  2  0  0  0
 26 27  1  0  0  0
 28 99  1  0  0  0
 28100  1  0  0  0
 29101  1  0  0  0
 29102  1  0  0  0
 33 34  1  0  0  0
 33 66  1  0  0  0
 33 70  2  0  0  0
 34 36  1  0  0  0
 34 59  1  0  0  0
 34103  1  0  0  0
 35 44  2  0  0  0
 35 45  1  0  0  0
 35 68  1  0  0  0
 36 56  1  0  0  0
 36104  1  0  0  0
 37 39  1  0  0  0
 37 47  1  0  0  0
 37 66  1  0  0  0
 37105  1  0  0  0
 38 43  2  0  0  0
 38 46  1  0  0  0
 38 47  1  0  0  0
 39 64  1  0  0  0
 39 67  2  0  0  0
 40 52  1  0  0  0
 40 53  2  0  0  0
 40 58  1  0  0  0
 41106  1  0  0  0
 41107  1  0  0  0
 41108  1  0  0  0
 41 48  1  0  0  0
 42 43  1  0  0  0
 42 66  1  0  0  0
 42109  1  0  0  0
 42110  1  0  0  0
 43 44  1  0  0  0
 44111  1  0  0  0
 45 46  2  0  0  0
 45112  1  0  0  0
 46113  1  0  0  0
 47114  1  0  0  0
 47115  1  0  0  0
 48 56  1  0  0  0
 48 65  1  0  0  0
 48116  1  0  0  0
 49 50  1  0  0  0
 49 53  1  0  0  0
 49 64  1  0  0  0
 49117  1  0  0  0
 50 51  1  0  0  0
 50118  1  0  0  0
 50119  1  0  0  0
 51 52  1  0  0  0
 51120  1  0  0  0
 51121  1  0  0  0
 52122  1  0  0  0
 52123  1  0  0  0
 53 54  1  0  0  0
 54 55  2  0  0  0
 54124  1  0  0  0
 55 57  1  0  0  0
 55125  1  0  0  0
 56 69  2  0  0  0
 57 58  2  0  0  0
 57126  1  0  0  0
 58127  1  0  0  0
 59 60  1  0  0  0
 59 61  1  0  0  0
 59 62  1  0  0  0
 60128  1  0  0  0
 60129  1  0  0  0
 60130  1  0  0  0
 61131  1  0  0  0
 61132  1  0  0  0
 61133  1  0  0  0
 62134  1  0  0  0
 62135  1  0  0  0
 62136  1  0  0  0
 63 65  1  0  0  0
 63137  1  0  0  0
 63138  1  0  0  0
 63139  1  0  0  0
 64140  1  0  0  0
 65141  1  0  0  0
 68 78  1  0  0  0
 71 72  1  0  0  0
 71 77  1  0  0  0
 71 79  2  0  0  0
 72 78  1  0  0  0
 72 80  2  0  0  0
 73 74  1  0  0  0
 73 75  1  0  0  0
 73142  1  0  0  0
 73143  1  0  0  0
 74 76  1  0  0  0
 74144  1  0  0  0
 74145  1  0  0  0
 75 76  1  0  0  0
 75 81  1  0  0  0
 75146  1  0  0  0
 76 82  1  0  0  0
 76147  1  0  0  0
 77148  1  0  0  0
 77149  1  0  0  0
 77150  1  0  0  0
 78151  1  0  0  0
 78152  1  0  0  0
 79 81  1  0  0  0
 80 81  1  0  0  0
 82153  1  0  0  0
M  ISO  4   1 100  68 101  78 101  82 100
M  END
> <chiral flag>
0

> <version>
0

> <s_m_source_file>
/data/baiqing/PycharmProjects/Reinvent-master-3.2/result/LINK_invent/BTK/process_docking_weight1_custom_sum_contain_oxygen_bond_distance_aromatic_linkinvent_7_9_3/rearranged_h_0181.sdf

> <i_m_source_file_index>
62

> <r_mmod_Potential_Energy-OPLS-2005>
772.838012695312

> <r_mmod_Stretch_Energy-OPLS-2005>
343.804412841797

> <r_mmod_Bend_Energy-OPLS-2005>
323.979370117188

> <r_mmod_Torsional_Energy-OPLS-2005>
262.059234619141

> <r_mmod_Improper_Torsional_Energy-OPLS-2005>
5.35899496078491

> <r_mmod_Van_der_Waal_Energy-OPLS-2005>
109.085639953613

> <r_mmod_Electrostatic_Energy-OPLS-2005>
-322.443542480469

> <r_mmod_Solvation_Energy-OPLS-2005>
-223.13786315918

> <b_mmod_Minimization_Converged-OPLS-2005>
0

> <r_mmod_RMS_Derivative-OPLS-2005>
2.67529630661011

$$$$
62
                    3D
 Structure written by MMmdl.
156165  0  0  1  0            999 V2000
  -30.4778  -15.2194   20.3674 C   0  0  0  0  0  0
  -30.4370  -12.7787   19.5154 C   0  0  0  0  0  0
  -29.5325  -12.5628   18.2782 C   0  0  0  0  0  0
  -28.0788  -12.3003   18.7073 C   0  0  0  0  0  0
  -27.6129  -13.2737   19.8191 C   0  0  2  0  0  0
  -28.6508  -13.4402   20.9497 C   0  0  0  0  0  0
  -25.2410  -13.8250   20.5754 C   0  0  0  0  0  0
  -24.1756  -13.0441   20.9260 C   0  0  0  0  0  0
  -24.6403  -11.6935   20.8766 C   0  0  0  0  0  0
  -23.9096  -10.4297   21.0417 C   0  0  0  0  0  0
  -24.3640   -9.4208   21.9190 C   0  0  0  0  0  0
  -23.6306   -8.2245   22.0759 C   0  0  0  0  0  0
  -22.4288   -8.0290   21.3550 C   0  0  0  0  0  0
  -21.9930   -9.0266   20.4651 C   0  0  0  0  0  0
  -22.7265  -10.2142   20.3062 C   0  0  0  0  0  0
  -21.6852   -6.0744   22.5281 C   0  0  0  0  0  0
  -21.4018   -6.5649   23.8218 C   0  0  0  0  0  0
  -21.3656   -5.6799   24.9175 C   0  0  0  0  0  0
  -21.6046   -4.3061   24.7226 C   0  0  0  0  0  0
  -21.8814   -3.8157   23.4344 C   0  0  0  0  0  0
  -21.9194   -4.6973   22.3404 C   0  0  0  0  0  0
  -22.7769  -13.5200   21.1898 C   0  0  0  0  0  0
  -22.1660   -4.2161   21.0977 F   0  0  0  0  0  0
  -21.5623   -3.4543   25.7735 F   0  0  0  0  0  0
  -29.8857  -13.9297   20.3176 N   0  0  0  0  0  0
  -26.2827  -12.9521   20.3201 N   0  0  0  0  0  0
  -25.9338  -11.6628   20.5709 N   0  0  0  0  0  0
  -22.0415  -12.8192   22.0448 N   0  0  0  0  0  0
  -25.4052  -15.1987   20.4223 N   0  0  0  0  0  0
  -31.7030  -15.1833   20.1888 O   0  0  0  0  0  0
  -21.6642   -6.8892   21.4247 O   0  0  0  0  0  0
  -22.3450  -14.5490   20.6717 O   0  0  0  0  0  0
  -24.6621  -31.8279   23.1747 C   0  0  0  0  0  0
  -25.9321  -32.4613   23.8205 C   0  0  1  0  0  0
  -27.2143  -26.9576   20.1695 C   0  0  0  0  0  0
  -25.6006  -33.8423   24.2117 N   0  0  0  0  0  0
  -23.4748  -30.4422   21.5241 C   0  0  2  0  0  0
  -24.9257  -28.8406   20.1116 C   0  0  0  0  0  0
  -22.7659  -29.4466   22.4801 C   0  0  0  0  0  0
  -18.0324  -28.1417   22.8470 C   0  0  0  0  0  0
  -24.1476  -36.7198   23.2643 C   0  0  0  0  0  0
  -26.0433  -30.6435   21.4004 C   0  0  0  0  0  0
  -26.1116  -29.2368   20.7440 C   0  0  0  0  0  0
  -27.2526  -28.3165   20.7513 C   0  0  0  0  0  0
  -25.9988  -26.7152   19.4874 C   0  0  0  0  0  0
  -24.8933  -27.5986   19.4644 C   0  0  0  0  0  0
  -23.7114  -29.7644   20.1484 C   0  0  0  0  0  0
  -25.4117  -36.2973   24.0308 C   0  0  1  0  0  0
  -20.5946  -28.3749   23.1192 C   0  0  2  0  0  0
  -20.6798  -26.9433   22.5397 C   0  0  0  0  0  0
  -19.5766  -26.6382   21.5212 C   0  0  0  0  0  0
  -18.1949  -26.7949   22.1623 C   0  0  0  0  0  0
  -19.1584  -28.8905   23.2817 C   0  0  0  0  0  0
  -18.9491  -30.1497   23.8844 C   0  0  0  0  0  0
  -17.6484  -30.6598   24.0554 C   0  0  0  0  0  0
  -25.9095  -34.9363   23.5022 C   0  0  0  0  0  0
  -16.5376  -29.9082   23.6355 C   0  0  0  0  0  0
  -16.7307  -28.6510   23.0368 C   0  0  0  0  0  0
  -26.4577  -31.6543   25.0716 C   0  0  0  0  0  0
  -25.3727  -31.3817   26.1392 C   0  0  0  0  0  0
  -27.0459  -30.2913   24.6417 C   0  0  0  0  0  0
  -27.6100  -32.4326   25.7503 C   0  0  0  0  0  0
  -27.5557  -37.1745   24.8465 C   0  0  0  0  0  0
  -21.4332  -29.3046   22.3542 N   0  0  0  0  0  0
  -26.4256  -37.3713   23.9422 N   0  0  0  0  0  0
  -24.7483  -30.9969   22.0870 N   0  0  0  0  0  0
  -23.4214  -28.8037   23.3038 O   0  0  0  0  0  0
  -28.2006  -25.8445   20.2373 O   0  0  0  0  0  0
  -26.5672  -34.8892   22.4596 O   0  0  0  0  0  0
  -23.5700  -32.1232   23.6863 O   0  0  0  0  0  0
  -29.5467  -22.1126   21.0157 C   0  0  0  0  0  0
  -29.9110  -20.6723   21.0209 C   0  0  0  0  0  0
  -29.3308  -19.6270   20.2376 C   0  0  0  0  0  0
  -28.5300  -22.6923   20.1513 C   0  0  0  0  0  0
  -28.3249  -20.2630   19.4084 C   0  0  0  0  0  0
  -31.0366  -20.0441   21.8138 C   0  0  0  0  0  0
  -30.9914  -18.4893   21.5694 C   0  0  0  0  0  0
  -30.1635  -18.1225   20.2967 C   0  0  2  0  0  0
  -27.5639  -19.4193   18.4071 C   0  0  0  0  0  0
  -31.0892  -18.1977   19.0645 C   0  0  0  0  0  0
  -27.7856  -24.2732   20.0701 C   0  0  0  0  0  0
  -27.9708  -21.6447   19.3985 N   0  0  0  0  0  0
  -29.7524  -16.5127   20.4080 N   0  0  0  0  0  0
  -31.4578  -12.9713   19.1825 H   0  0  0  0  0  0
  -30.4922  -11.8722   20.1197 H   0  0  0  0  0  0
  -29.9050  -11.7333   17.6752 H   0  0  0  0  0  0
  -29.5728  -13.4467   17.6398 H   0  0  0  0  0  0
  -28.0264  -11.2751   19.0752 H   0  0  0  0  0  0
  -27.4113  -12.3507   17.8464 H   0  0  0  0  0  0
  -27.5305  -14.2418   19.3241 H   0  0  0  0  0  0
  -28.8110  -12.5049   21.4878 H   0  0  0  0  0  0
  -28.3001  -14.1675   21.6835 H   0  0  0  0  0  0
  -25.2787   -9.5682   22.4758 H   0  0  0  0  0  0
  -24.0019   -7.4637   22.7477 H   0  0  0  0  0  0
  -21.0858   -8.8791   19.8955 H   0  0  0  0  0  0
  -22.3731  -10.9680   19.6167 H   0  0  0  0  0  0
  -21.2013   -7.6157   23.9721 H   0  0  0  0  0  0
  -21.1479   -6.0528   25.9078 H   0  0  0  0  0  0
  -22.0596   -2.7618   23.2837 H   0  0  0  0  0  0
  -22.4041  -11.9873   22.4870 H   0  0  0  0  0  0
  -21.1020  -13.1204   22.2624 H   0  0  0  0  0  0
  -24.6392  -15.8507   20.5513 H   0  0  0  0  0  0
  -26.2485  -15.6425   20.0845 H   0  0  0  0  0  0
  -26.7395  -32.5159   23.0930 H   0  0  0  0  0  0
  -25.0183  -33.9518   25.0289 H   0  0  0  0  0  0
  -22.7880  -31.2742   21.3583 H   0  0  0  0  0  0
  -23.3762  -35.9501   23.3270 H   0  0  0  0  0  0
  -24.3574  -36.8870   22.2065 H   0  0  0  0  0  0
  -23.7193  -37.6366   23.6713 H   0  0  0  0  0  0
  -26.2168  -31.3867   20.6211 H   0  0  0  0  0  0
  -26.9071  -30.7017   22.0515 H   0  0  0  0  0  0
  -28.1491  -28.6153   21.2767 H   0  0  0  0  0  0
  -25.8539  -25.7744   18.9807 H   0  0  0  0  0  0
  -23.9944  -27.2907   18.9474 H   0  0  0  0  0  0
  -23.8651  -30.5343   19.3915 H   0  0  0  0  0  0
  -22.8211  -29.2181   19.8311 H   0  0  0  0  0  0
  -25.1308  -36.1776   25.0798 H   0  0  0  0  0  0
  -21.0034  -28.3341   24.1316 H   0  0  0  0  0  0
  -20.5672  -26.2368   23.3636 H   0  0  0  0  0  0
  -21.6662  -26.7410   22.1205 H   0  0  0  0  0  0
  -19.6912  -25.6276   21.1280 H   0  0  0  0  0  0
  -19.6702  -27.3164   20.6718 H   0  0  0  0  0  0
  -17.4220  -26.6701   21.4024 H   0  0  0  0  0  0
  -18.0336  -26.0103   22.9032 H   0  0  0  0  0  0
  -19.7968  -30.7336   24.2170 H   0  0  0  0  0  0
  -17.5045  -31.6276   24.5164 H   0  0  0  0  0  0
  -15.5377  -30.2972   23.7715 H   0  0  0  0  0  0
  -15.8710  -28.0821   22.7102 H   0  0  0  0  0  0
  -24.5872  -30.7198   25.7721 H   0  0  0  0  0  0
  -24.8960  -32.3039   26.4726 H   0  0  0  0  0  0
  -25.7968  -30.9036   27.0231 H   0  0  0  0  0  0
  -26.3119  -29.6608   24.1382 H   0  0  0  0  0  0
  -27.3966  -29.7254   25.5056 H   0  0  0  0  0  0
  -27.9077  -30.4108   23.9850 H   0  0  0  0  0  0
  -27.2711  -33.3688   26.1950 H   0  0  0  0  0  0
  -28.3984  -32.6772   25.0376 H   0  0  0  0  0  0
  -28.0686  -31.8525   26.5517 H   0  0  0  0  0  0
  -28.2557  -38.0059   24.7545 H   0  0  0  0  0  0
  -28.1066  -36.2594   24.6249 H   0  0  0  0  0  0
  -27.2299  -37.1354   25.8874 H   0  0  0  0  0  0
  -20.9576  -29.8749   21.6687 H   0  0  0  0  0  0
  -26.0103  -38.2759   24.1478 H   0  0  0  0  0  0
  -30.0672  -22.7790   21.6903 H   0  0  0  0  0  0
  -30.9542  -20.2886   22.8732 H   0  0  0  0  0  0
  -31.9806  -20.4542   21.4523 H   0  0  0  0  0  0
  -30.4597  -18.0678   22.4237 H   0  0  0  0  0  0
  -31.9830  -18.0361   21.5870 H   0  0  0  0  0  0
  -28.1163  -18.5155   18.1502 H   0  0  0  0  0  0
  -27.3845  -19.9728   17.4851 H   0  0  0  0  0  0
  -26.6010  -19.1202   18.8221 H   0  0  0  0  0  0
  -31.5680  -19.1741   18.9779 H   0  0  0  0  0  0
  -30.5320  -18.0276   18.1438 H   0  0  0  0  0  0
  -31.8966  -17.4681   19.0968 H   0  0  0  0  0  0
  -26.9090  -24.1659   20.7089 H   0  0  0  0  0  0
  -27.3870  -24.2490   19.0559 H   0  0  0  0  0  0
  -28.7587  -16.3726   20.5161 H   0  0  0  0  0  0
  1 25  1  0  0  0
  1 30  2  0  0  0
  1 83  1  0  0  0
  2  3  1  0  0  0
  2 25  1  0  0  0
  2 84  1  0  0  0
  2 85  1  0  0  0
  3  4  1  0  0  0
  3 86  1  0  0  0
  3 87  1  0  0  0
  4  5  1  0  0  0
  4 88  1  0  0  0
  4 89  1  0  0  0
  5  6  1  0  0  0
  5 26  1  0  0  0
  5 90  1  0  0  0
  6 25  1  0  0  0
  6 91  1  0  0  0
  6 92  1  0  0  0
  7  8  2  0  0  0
  7 26  1  0  0  0
  7 29  1  0  0  0
  8  9  1  0  0  0
  8 22  1  0  0  0
  9 10  1  0  0  0
  9 27  2  0  0  0
 10 11  2  0  0  0
 10 15  1  0  0  0
 11 12  1  0  0  0
 11 93  1  0  0  0
 12 13  2  0  0  0
 12 94  1  0  0  0
 13 14  1  0  0  0
 13 31  1  0  0  0
 14 15  2  0  0  0
 14 95  1  0  0  0
 15 96  1  0  0  0
 16 17  2  0  0  0
 16 21  1  0  0  0
 16 31  1  0  0  0
 17 18  1  0  0  0
 17 97  1  0  0  0
 18 19  2  0  0  0
 18 98  1  0  0  0
 19 20  1  0  0  0
 19 24  1  0  0  0
 20 21  2  0  0  0
 20 99  1  0  0  0
 21 23  1  0  0  0
 22 28  1  0  0  0
 22 32  2  0  0  0
 26 27  1  0  0  0
 28100  1  0  0  0
 28101  1  0  0  0
 29102  1  0  0  0
 29103  1  0  0  0
 33 34  1  0  0  0
 33 66  1  0  0  0
 33 70  2  0  0  0
 34 36  1  0  0  0
 34 59  1  0  0  0
 34104  1  0  0  0
 35 44  2  0  0  0
 35 45  1  0  0  0
 35 68  1  0  0  0
 36 56  1  0  0  0
 36105  1  0  0  0
 37 39  1  0  0  0
 37 47  1  0  0  0
 37 66  1  0  0  0
 37106  1  0  0  0
 38 43  2  0  0  0
 38 46  1  0  0  0
 38 47  1  0  0  0
 39 64  1  0  0  0
 39 67  2  0  0  0
 40 52  1  0  0  0
 40 53  2  0  0  0
 40 58  1  0  0  0
 41107  1  0  0  0
 41108  1  0  0  0
 41109  1  0  0  0
 41 48  1  0  0  0
 42 43  1  0  0  0
 42 66  1  0  0  0
 42110  1  0  0  0
 42111  1  0  0  0
 43 44  1  0  0  0
 44112  1  0  0  0
 45 46  2  0  0  0
 45113  1  0  0  0
 46114  1  0  0  0
 47115  1  0  0  0
 47116  1  0  0  0
 48 56  1  0  0  0
 48 65  1  0  0  0
 48117  1  0  0  0
 49 50  1  0  0  0
 49 53  1  0  0  0
 49 64  1  0  0  0
 49118  1  0  0  0
 50 51  1  0  0  0
 50119  1  0  0  0
 50120  1  0  0  0
 51 52  1  0  0  0
 51121  1  0  0  0
 51122  1  0  0  0
 52123  1  0  0  0
 52124  1  0  0  0
 53 54  1  0  0  0
 54 55  2  0  0  0
 54125  1  0  0  0
 55 57  1  0  0  0
 55126  1  0  0  0
 56 69  2  0  0  0
 57 58  2  0  0  0
 57127  1  0  0  0
 58128  1  0  0  0
 59 60  1  0  0  0
 59 61  1  0  0  0
 59 62  1  0  0  0
 60129  1  0  0  0
 60130  1  0  0  0
 60131  1  0  0  0
 61132  1  0  0  0
 61133  1  0  0  0
 61134  1  0  0  0
 62135  1  0  0  0
 62136  1  0  0  0
 62137  1  0  0  0
 63 65  1  0  0  0
 63138  1  0  0  0
 63139  1  0  0  0
 63140  1  0  0  0
 64141  1  0  0  0
 65142  1  0  0  0
 68 81  1  0  0  0
 71 72  2  0  0  0
 71 74  1  0  0  0
 71143  1  0  0  0
 72 73  1  0  0  0
 72 76  1  0  0  0
 73 75  2  0  0  0
 73 78  1  0  0  0
 74 81  1  0  0  0
 74 82  2  0  0  0
 75 79  1  0  0  0
 75 82  1  0  0  0
 76 77  1  0  0  0
 76144  1  0  0  0
 76145  1  0  0  0
 77 78  1  0  0  0
 77146  1  0  0  0
 77147  1  0  0  0
 78 80  1  0  0  0
 78 83  1  0  0  0
 79148  1  0  0  0
 79149  1  0  0  0
 79150  1  0  0  0
 80151  1  0  0  0
 80152  1  0  0  0
 80153  1  0  0  0
 81154  1  0  0  0
 81155  1  0  0  0
 83156  1  0  0  0
M  ISO  4   1 100  68 101  81 101  83 100
M  END
> <chiral flag>
0

> <version>
0

> <s_m_source_file>
/data/baiqing/PycharmProjects/Reinvent-master-3.2/result/LINK_invent/BTK/process_docking_weight1_custom_sum_contain_oxygen_bond_distance_aromatic_linkinvent_7_9_3/rearranged_h_0181.sdf

> <i_m_source_file_index>
63

> <r_mmod_Potential_Energy-OPLS-2005>
1058.46179199219

> <r_mmod_Stretch_Energy-OPLS-2005>
472.868133544922

> <r_mmod_Bend_Energy-OPLS-2005>
498.340057373047

> <r_mmod_Torsional_Energy-OPLS-2005>
225.574737548828

> <r_mmod_Improper_Torsional_Energy-OPLS-2005>
7.35293006896973

> <r_mmod_Van_der_Waal_Energy-OPLS-2005>
127.462181091309

> <r_mmod_Electrostatic_Energy-OPLS-2005>
-464.317657470703

> <r_mmod_Solvation_Energy-OPLS-2005>
-223.09895324707

> <b_mmod_Minimization_Converged-OPLS-2005>
0

> <r_mmod_RMS_Derivative-OPLS-2005>
1.55403625965118

$$$$
63
                    3D
 Structure written by MMmdl.
161169  0  0  1  0            999 V2000
  -30.6321  -14.5784   20.4853 C   0  0  0  0  0  0
  -30.4294  -12.3396   19.4769 C   0  0  0  0  0  0
  -29.5209  -12.4984   18.2368 C   0  0  0  0  0  0
  -28.0331  -12.3643   18.6280 C   0  0  0  0  0  0
  -27.6517  -13.2045   19.8758 C   0  0  2  0  0  0
  -28.6939  -13.0447   21.0060 C   0  0  0  0  0  0
  -25.2518  -13.8129   20.5654 C   0  0  0  0  0  0
  -24.1779  -13.0411   20.9188 C   0  0  0  0  0  0
  -24.6351  -11.6895   20.8777 C   0  0  0  0  0  0
  -23.9038  -10.4288   21.0407 C   0  0  0  0  0  0
  -24.3606   -9.4207   21.9170 C   0  0  0  0  0  0
  -23.6293   -8.2246   22.0731 C   0  0  0  0  0  0
  -22.4272   -8.0287   21.3532 C   0  0  0  0  0  0
  -21.9888   -9.0260   20.4644 C   0  0  0  0  0  0
  -22.7213  -10.2132   20.3061 C   0  0  0  0  0  0
  -21.6864   -6.0751   22.5283 C   0  0  0  0  0  0
  -21.4040   -6.5645   23.8218 C   0  0  0  0  0  0
  -21.3660   -5.6773   24.9163 C   0  0  0  0  0  0
  -21.6050   -4.3045   24.7197 C   0  0  0  0  0  0
  -21.8814   -3.8153   23.4309 C   0  0  0  0  0  0
  -21.9170   -4.6993   22.3379 C   0  0  0  0  0  0
  -22.7817  -13.5255   21.1815 C   0  0  0  0  0  0
  -22.1635   -4.2187   21.0963 F   0  0  0  0  0  0
  -21.5609   -3.4509   25.7699 F   0  0  0  0  0  0
  -30.0186  -13.3602   20.4527 N   0  0  0  0  0  0
  -26.2952  -12.9263   20.3346 N   0  0  0  0  0  0
  -25.9281  -11.6440   20.5798 N   0  0  0  0  0  0
  -22.0408  -12.8322   22.0381 N   0  0  0  0  0  0
  -25.4152  -15.1852   20.4054 N   0  0  0  0  0  0
  -31.7972  -14.7347   20.0981 O   0  0  0  0  0  0
  -21.6622   -6.8906   21.4255 O   0  0  0  0  0  0
  -22.3550  -14.5556   20.6617 O   0  0  0  0  0  0
  -24.6190  -31.8650   23.2104 C   0  0  0  0  0  0
  -25.9068  -32.4808   23.8427 C   0  0  1  0  0  0
  -27.2373  -27.3927   20.1246 C   0  0  0  0  0  0
  -25.5916  -33.8611   24.2356 N   0  0  0  0  0  0
  -23.4127  -30.4913   21.5477 C   0  0  2  0  0  0
  -24.8587  -28.9459   20.1232 C   0  0  0  0  0  0
  -22.7458  -29.4659   22.4940 C   0  0  0  0  0  0
  -18.0290  -28.1391   22.8485 C   0  0  0  0  0  0
  -24.1484  -36.7307   23.2651 C   0  0  0  0  0  0
  -25.9451  -30.8210   21.3714 C   0  0  0  0  0  0
  -26.0207  -29.4503   20.7188 C   0  0  0  0  0  0
  -27.2152  -28.6875   20.7034 C   0  0  0  0  0  0
  -26.0591  -26.9075   19.5189 C   0  0  0  0  0  0
  -24.8761  -27.6765   19.5139 C   0  0  0  0  0  0
  -23.6260  -29.8265   20.1631 C   0  0  0  0  0  0
  -25.4097  -36.3095   24.0351 C   0  0  1  0  0  0
  -20.5884  -28.3690   23.1289 C   0  0  2  0  0  0
  -20.6776  -26.9409   22.5427 C   0  0  0  0  0  0
  -19.5760  -26.6378   21.5228 C   0  0  0  0  0  0
  -18.1929  -26.7944   22.1611 C   0  0  0  0  0  0
  -19.1538  -28.8856   23.2902 C   0  0  0  0  0  0
  -18.9457  -30.1450   23.8932 C   0  0  0  0  0  0
  -17.6457  -30.6588   24.0561 C   0  0  0  0  0  0
  -25.9021  -34.9457   23.5140 C   0  0  0  0  0  0
  -16.5349  -29.9083   23.6313 C   0  0  0  0  0  0
  -16.7284  -28.6497   23.0350 C   0  0  0  0  0  0
  -26.4515  -31.6603   25.0768 C   0  0  0  0  0  0
  -25.3803  -31.3683   26.1549 C   0  0  0  0  0  0
  -27.0387  -30.3049   24.6159 C   0  0  0  0  0  0
  -27.6097  -32.4364   25.7489 C   0  0  0  0  0  0
  -27.5581  -37.1806   24.8460 C   0  0  0  0  0  0
  -21.4173  -29.3044   22.3679 N   0  0  0  0  0  0
  -26.4280  -37.3776   23.9429 N   0  0  0  0  0  0
  -24.6763  -31.0752   22.0997 N   0  0  0  0  0  0
  -23.4211  -28.8173   23.2985 O   0  0  0  0  0  0
  -28.4073  -26.6558   20.0577 O   0  0  0  0  0  0
  -26.5573  -34.8918   22.4703 O   0  0  0  0  0  0
  -23.5369  -32.1412   23.7478 O   0  0  0  0  0  0
  -29.0370  -16.5784   18.7165 C   0  0  0  0  0  0
  -29.2045  -18.9367   18.2098 C   0  0  0  0  0  0
  -28.8100  -17.6418   17.8436 C   0  0  0  0  0  0
  -29.7170  -19.1412   19.5141 C   0  0  0  0  0  0
  -29.6504  -16.7991   19.9647 C   0  0  0  0  0  0
  -29.0907  -20.0462   17.1733 C   0  0  0  0  0  0
  -29.2822  -22.8871   22.2155 C   0  0  0  0  0  0
  -30.0931  -20.5588   20.0206 C   0  0  0  0  0  0
  -28.9184  -21.5961   20.1342 C   0  0  0  0  0  0
  -28.5219  -24.0983   20.1135 C   0  0  0  0  0  0
  -28.5408  -25.4667   20.8824 C   0  0  0  0  0  0
  -29.9236  -18.0812   20.3650 N   0  0  0  0  0  0
  -29.8370  -15.6365   20.7913 N   0  0  0  0  0  0
  -29.2777  -22.9347   20.7275 N   0  3  1  0  0  0
  -28.2198  -17.4069   16.6471 F   0  0  0  0  0  0
  -31.4815  -12.4228   19.2027 H   0  0  0  0  0  0
  -30.3156  -11.3445   19.9157 H   0  0  0  0  0  0
  -29.7828  -11.7576   17.4814 H   0  0  0  0  0  0
  -29.6960  -13.4719   17.7735 H   0  0  0  0  0  0
  -27.8411  -11.3103   18.8315 H   0  0  0  0  0  0
  -27.3970  -12.6294   17.7850 H   0  0  0  0  0  0
  -27.6589  -14.2417   19.5627 H   0  0  0  0  0  0
  -28.6806  -12.0284   21.3995 H   0  0  0  0  0  0
  -28.4511  -13.6880   21.8529 H   0  0  0  0  0  0
  -25.2747   -9.5710   22.4739 H   0  0  0  0  0  0
  -24.0004   -7.4651   22.7455 H   0  0  0  0  0  0
  -21.0780   -8.8828   19.8963 H   0  0  0  0  0  0
  -22.3684  -10.9693   19.6191 H   0  0  0  0  0  0
  -21.2101   -7.6163   23.9769 H   0  0  0  0  0  0
  -21.1463   -6.0467   25.9063 H   0  0  0  0  0  0
  -22.0595   -2.7626   23.2773 H   0  0  0  0  0  0
  -22.3953  -12.0053   22.4969 H   0  0  0  0  0  0
  -21.1044  -13.1445   22.2540 H   0  0  0  0  0  0
  -24.6317  -15.8212   20.5132 H   0  0  0  0  0  0
  -26.2494  -15.6389   20.0609 H   0  0  0  0  0  0
  -26.7142  -32.5516   23.1198 H   0  0  0  0  0  0
  -25.0112  -33.9763   25.0534 H   0  0  0  0  0  0
  -22.7033  -31.3103   21.4083 H   0  0  0  0  0  0
  -23.3744  -35.9641   23.3285 H   0  0  0  0  0  0
  -24.3586  -36.8949   22.2072 H   0  0  0  0  0  0
  -23.7239  -37.6503   23.6685 H   0  0  0  0  0  0
  -26.0774  -31.5913   20.6092 H   0  0  0  0  0  0
  -26.8253  -30.8641   22.0026 H   0  0  0  0  0  0
  -28.1205  -29.0850   21.1404 H   0  0  0  0  0  0
  -26.0571  -25.9425   19.0314 H   0  0  0  0  0  0
  -23.9833  -27.2895   19.0405 H   0  0  0  0  0  0
  -23.7527  -30.6071   19.4115 H   0  0  0  0  0  0
  -22.7465  -29.2601   19.8537 H   0  0  0  0  0  0
  -25.1267  -36.1955   25.0836 H   0  0  0  0  0  0
  -21.0000  -28.3282   24.1403 H   0  0  0  0  0  0
  -20.5673  -26.2302   23.3633 H   0  0  0  0  0  0
  -21.6647  -26.7432   22.1231 H   0  0  0  0  0  0
  -19.6901  -25.6279   21.1279 H   0  0  0  0  0  0
  -19.6717  -27.3169   20.6744 H   0  0  0  0  0  0
  -17.4216  -26.6752   21.3980 H   0  0  0  0  0  0
  -18.0271  -26.0071   22.8980 H   0  0  0  0  0  0
  -19.7927  -30.7261   24.2325 H   0  0  0  0  0  0
  -17.5000  -31.6263   24.5174 H   0  0  0  0  0  0
  -15.5343  -30.2994   23.7607 H   0  0  0  0  0  0
  -15.8693  -28.0821   22.7047 H   0  0  0  0  0  0
  -24.5885  -30.7145   25.7879 H   0  0  0  0  0  0
  -24.9117  -32.2827   26.5182 H   0  0  0  0  0  0
  -25.8169  -30.8690   27.0206 H   0  0  0  0  0  0
  -26.2933  -29.6758   24.1267 H   0  0  0  0  0  0
  -27.4233  -29.7343   25.4628 H   0  0  0  0  0  0
  -27.8739  -30.4409   23.9284 H   0  0  0  0  0  0
  -27.2696  -33.3623   26.2145 H   0  0  0  0  0  0
  -28.3809  -32.7010   25.0240 H   0  0  0  0  0  0
  -28.0892  -31.8475   26.5321 H   0  0  0  0  0  0
  -28.2581  -38.0116   24.7494 H   0  0  0  0  0  0
  -28.1083  -36.2642   24.6258 H   0  0  0  0  0  0
  -27.2316  -37.1432   25.8867 H   0  0  0  0  0  0
  -20.9331  -29.8773   21.6900 H   0  0  0  0  0  0
  -26.0159  -38.2847   24.1444 H   0  0  0  0  0  0
  -28.7533  -15.5925   18.3856 H   0  0  0  0  0  0
  -29.1501  -19.6344   16.1664 H   0  0  0  0  0  0
  -29.9068  -20.7609   17.2542 H   0  0  0  0  0  0
  -28.1384  -20.5715   17.2511 H   0  0  0  0  0  0
  -29.5547  -21.8985   22.5821 H   0  0  0  0  0  0
  -28.3157  -23.1364   22.6571 H   0  0  0  0  0  0
  -30.0310  -23.5670   22.6227 H   0  0  0  0  0  0
  -30.8475  -20.9659   19.3457 H   0  0  0  0  0  0
  -30.6043  -20.4542   20.9778 H   0  0  0  0  0  0
  -28.0865  -21.1646   20.6908 H   0  0  0  0  0  0
  -28.5292  -21.7713   19.1313 H   0  0  0  0  0  0
  -28.9601  -24.2573   19.1276 H   0  0  0  0  0  0
  -27.4841  -23.8140   19.9342 H   0  0  0  0  0  0
  -29.5084  -25.5773   21.3692 H   0  0  0  0  0  0
  -27.8030  -25.4549   21.6883 H   0  0  0  0  0  0
  -28.9935  -15.3608   21.2718 H   0  0  0  0  0  0
  -30.2430  -23.0980   20.4795 H   0  0  0  0  0  0
  1 25  1  0  0  0
  1 30  2  0  0  0
  1 83  1  0  0  0
  2  3  1  0  0  0
  2 25  1  0  0  0
  2 86  1  0  0  0
  2 87  1  0  0  0
  3  4  1  0  0  0
  3 88  1  0  0  0
  3 89  1  0  0  0
  4  5  1  0  0  0
  4 90  1  0  0  0
  4 91  1  0  0  0
  5  6  1  0  0  0
  5 26  1  0  0  0
  5 92  1  0  0  0
  6 25  1  0  0  0
  6 93  1  0  0  0
  6 94  1  0  0  0
  7  8  2  0  0  0
  7 26  1  0  0  0
  7 29  1  0  0  0
  8  9  1  0  0  0
  8 22  1  0  0  0
  9 10  1  0  0  0
  9 27  2  0  0  0
 10 11  2  0  0  0
 10 15  1  0  0  0
 11 12  1  0  0  0
 11 95  1  0  0  0
 12 13  2  0  0  0
 12 96  1  0  0  0
 13 14  1  0  0  0
 13 31  1  0  0  0
 14 15  2  0  0  0
 14 97  1  0  0  0
 15 98  1  0  0  0
 16 17  2  0  0  0
 16 21  1  0  0  0
 16 31  1  0  0  0
 17 18  1  0  0  0
 17 99  1  0  0  0
 18 19  2  0  0  0
 18100  1  0  0  0
 19 20  1  0  0  0
 19 24  1  0  0  0
 20 21  2  0  0  0
 20101  1  0  0  0
 21 23  1  0  0  0
 22 28  1  0  0  0
 22 32  2  0  0  0
 26 27  1  0  0  0
 28102  1  0  0  0
 28103  1  0  0  0
 29104  1  0  0  0
 29105  1  0  0  0
 33 34  1  0  0  0
 33 66  1  0  0  0
 33 70  2  0  0  0
 34 36  1  0  0  0
 34 59  1  0  0  0
 34106  1  0  0  0
 35 44  2  0  0  0
 35 45  1  0  0  0
 35 68  1  0  0  0
 36 56  1  0  0  0
 36107  1  0  0  0
 37 39  1  0  0  0
 37 47  1  0  0  0
 37 66  1  0  0  0
 37108  1  0  0  0
 38 43  2  0  0  0
 38 46  1  0  0  0
 38 47  1  0  0  0
 39 64  1  0  0  0
 39 67  2  0  0  0
 40 52  1  0  0  0
 40 53  2  0  0  0
 40 58  1  0  0  0
 41109  1  0  0  0
 41110  1  0  0  0
 41111  1  0  0  0
 41 48  1  0  0  0
 42 43  1  0  0  0
 42 66  1  0  0  0
 42112  1  0  0  0
 42113  1  0  0  0
 43 44  1  0  0  0
 44114  1  0  0  0
 45 46  2  0  0  0
 45115  1  0  0  0
 46116  1  0  0  0
 47117  1  0  0  0
 47118  1  0  0  0
 48 56  1  0  0  0
 48 65  1  0  0  0
 48119  1  0  0  0
 49 50  1  0  0  0
 49 53  1  0  0  0
 49 64  1  0  0  0
 49120  1  0  0  0
 50 51  1  0  0  0
 50121  1  0  0  0
 50122  1  0  0  0
 51 52  1  0  0  0
 51123  1  0  0  0
 51124  1  0  0  0
 52125  1  0  0  0
 52126  1  0  0  0
 53 54  1  0  0  0
 54 55  2  0  0  0
 54127  1  0  0  0
 55 57  1  0  0  0
 55128  1  0  0  0
 56 69  2  0  0  0
 57 58  2  0  0  0
 57129  1  0  0  0
 58130  1  0  0  0
 59 60  1  0  0  0
 59 61  1  0  0  0
 59 62  1  0  0  0
 60131  1  0  0  0
 60132  1  0  0  0
 60133  1  0  0  0
 61134  1  0  0  0
 61135  1  0  0  0
 61136  1  0  0  0
 62137  1  0  0  0
 62138  1  0  0  0
 62139  1  0  0  0
 63 65  1  0  0  0
 63140  1  0  0  0
 63141  1  0  0  0
 63142  1  0  0  0
 64143  1  0  0  0
 65144  1  0  0  0
 68 81  1  0  0  0
 71 73  2  0  0  0
 71 75  1  0  0  0
 71145  1  0  0  0
 72 73  1  0  0  0
 72 74  2  0  0  0
 72 76  1  0  0  0
 73 85  1  0  0  0
 74 78  1  0  0  0
 74 82  1  0  0  0
 75 82  2  0  0  0
 75 83  1  0  0  0
 76146  1  0  0  0
 76147  1  0  0  0
 76148  1  0  0  0
 77149  1  0  0  0
 77150  1  0  0  0
 77151  1  0  0  0
 77 84  1  0  0  0
 78 79  1  0  0  0
 78152  1  0  0  0
 78153  1  0  0  0
 79 84  1  0  0  0
 79154  1  0  0  0
 79155  1  0  0  0
 80 81  1  0  0  0
 80 84  1  0  0  0
 80156  1  0  0  0
 80157  1  0  0  0
 81158  1  0  0  0
 81159  1  0  0  0
 83160  1  0  0  0
 84161  1  0  0  0
M  CHG  1  84   1
M  ISO  4   1 100  68 101  81 101  83 100
M  END
> <chiral flag>
0

> <version>
0

> <s_m_source_file>
/data/baiqing/PycharmProjects/Reinvent-master-3.2/result/LINK_invent/BTK/process_docking_weight1_custom_sum_contain_oxygen_bond_distance_aromatic_linkinvent_7_9_3/rearranged_h_0181.sdf

> <i_m_source_file_index>
64

> <r_mmod_Potential_Energy-OPLS-2005>
-234.071762084961

> <r_mmod_Stretch_Energy-OPLS-2005>
54.1293144226074

> <r_mmod_Bend_Energy-OPLS-2005>
117.765884399414

> <r_mmod_Torsional_Energy-OPLS-2005>
291.230865478516

> <r_mmod_Improper_Torsional_Energy-OPLS-2005>
7.9304347038269

> <r_mmod_Van_der_Waal_Energy-OPLS-2005>
144.414916992188

> <r_mmod_Electrostatic_Energy-OPLS-2005>
-418.835723876953

> <r_mmod_Solvation_Energy-OPLS-2005>
-456.632293701172

> <b_mmod_Minimization_Converged-OPLS-2005>
0

> <r_mmod_RMS_Derivative-OPLS-2005>
5.58218336105347

$$$$
64
                    3D
 Structure written by MMmdl.
167176  0  0  1  0            999 V2000
  -30.5779  -14.7797   20.4680 C   0  0  0  0  0  0
  -30.4452  -12.4797   19.4821 C   0  0  0  0  0  0
  -29.5206  -12.5119   18.2434 C   0  0  0  0  0  0
  -28.0449  -12.3300   18.6503 C   0  0  0  0  0  0
  -27.6420  -13.2277   19.8501 C   0  0  2  0  0  0
  -28.6830  -13.1636   20.9895 C   0  0  0  0  0  0
  -25.2521  -13.8186   20.5677 C   0  0  0  0  0  0
  -24.1797  -13.0440   20.9179 C   0  0  0  0  0  0
  -24.6379  -11.6915   20.8711 C   0  0  0  0  0  0
  -23.9042  -10.4296   21.0381 C   0  0  0  0  0  0
  -24.3607   -9.4226   21.9164 C   0  0  0  0  0  0
  -23.6296   -8.2254   22.0744 C   0  0  0  0  0  0
  -22.4278   -8.0274   21.3535 C   0  0  0  0  0  0
  -21.9900   -9.0240   20.4628 C   0  0  0  0  0  0
  -22.7218  -10.2127   20.3030 C   0  0  0  0  0  0
  -21.6860   -6.0724   22.5277 C   0  0  0  0  0  0
  -21.4013   -6.5625   23.8212 C   0  0  0  0  0  0
  -21.3663   -5.6782   24.9177 C   0  0  0  0  0  0
  -21.6060   -4.3046   24.7229 C   0  0  0  0  0  0
  -21.8821   -3.8134   23.4350 C   0  0  0  0  0  0
  -21.9199   -4.6948   22.3408 C   0  0  0  0  0  0
  -22.7833  -13.5232   21.1871 C   0  0  0  0  0  0
  -22.1666   -4.2136   21.0982 F   0  0  0  0  0  0
  -21.5643   -3.4526   25.7742 F   0  0  0  0  0  0
  -29.9842  -13.5338   20.4176 N   0  0  0  0  0  0
  -26.2932  -12.9377   20.3252 N   0  0  0  0  0  0
  -25.9307  -11.6518   20.5713 N   0  0  0  0  0  0
  -22.0487  -12.8205   22.0420 N   0  0  0  0  0  0
  -25.4246  -15.1904   20.4158 N   0  0  0  0  0  0
  -31.7557  -14.9080   20.1249 O   0  0  0  0  0  0
  -21.6647   -6.8868   21.4241 O   0  0  0  0  0  0
  -22.3515  -14.5570   20.6774 O   0  0  0  0  0  0
  -24.6336  -31.8508   23.1942 C   0  0  0  0  0  0
  -25.9136  -32.4747   23.8316 C   0  0  1  0  0  0
  -27.2306  -27.2398   20.1574 C   0  0  0  0  0  0
  -25.5908  -33.8550   24.2234 N   0  0  0  0  0  0
  -23.4325  -30.4692   21.5371 C   0  0  2  0  0  0
  -24.8830  -28.9029   20.1163 C   0  0  0  0  0  0
  -22.7538  -29.4581   22.4921 C   0  0  0  0  0  0
  -18.0305  -28.1388   22.8474 C   0  0  0  0  0  0
  -24.1499  -36.7290   23.2649 C   0  0  0  0  0  0
  -25.9776  -30.7592   21.3738 C   0  0  0  0  0  0
  -26.0532  -29.3758   20.7256 C   0  0  0  0  0  0
  -27.2311  -28.5591   20.7279 C   0  0  0  0  0  0
  -26.0376  -26.8276   19.5303 C   0  0  0  0  0  0
  -24.8815  -27.6366   19.5077 C   0  0  0  0  0  0
  -23.6525  -29.7907   20.1578 C   0  0  0  0  0  0
  -25.4120  -36.3067   24.0322 C   0  0  1  0  0  0
  -20.5914  -28.3694   23.1284 C   0  0  2  0  0  0
  -20.6804  -26.9411   22.5420 C   0  0  0  0  0  0
  -19.5771  -26.6371   21.5246 C   0  0  0  0  0  0
  -18.1948  -26.7923   22.1630 C   0  0  0  0  0  0
  -19.1561  -28.8853   23.2864 C   0  0  0  0  0  0
  -18.9489  -30.1456   23.8880 C   0  0  0  0  0  0
  -17.6489  -30.6585   24.0557 C   0  0  0  0  0  0
  -25.9055  -34.9441   23.5091 C   0  0  0  0  0  0
  -16.5375  -29.9087   23.6336 C   0  0  0  0  0  0
  -16.7296  -28.6506   23.0355 C   0  0  0  0  0  0
  -26.4474  -31.6589   25.0721 C   0  0  0  0  0  0
  -25.3668  -31.3736   26.1421 C   0  0  0  0  0  0
  -27.0322  -30.3019   24.6185 C   0  0  0  0  0  0
  -27.6035  -32.4330   25.7483 C   0  0  0  0  0  0
  -27.5576  -37.1800   24.8461 C   0  0  0  0  0  0
  -21.4247  -29.3030   22.3674 N   0  0  0  0  0  0
  -26.4294  -37.3767   23.9405 N   0  0  0  0  0  0
  -24.7006  -31.0460   22.0919 N   0  0  0  0  0  0
  -23.4224  -28.8147   23.3050 O   0  0  0  0  0  0
  -28.3413  -26.3639   20.1330 O   0  0  0  0  0  0
  -26.5669  -34.8903   22.4684 O   0  0  0  0  0  0
  -23.5476  -32.1328   23.7225 O   0  0  0  0  0  0
  -27.8219  -19.1061   23.7904 C   0  0  0  0  0  0
  -28.5572  -20.0725   23.0769 C   0  0  0  0  0  0
  -28.9890  -19.7949   21.7260 C   0  0  0  0  0  0
  -27.6008  -17.8494   23.2389 C   0  0  0  0  0  0
  -28.9977  -18.3307   21.4322 C   0  0  0  0  0  0
  -30.2272  -21.8010   24.2044 C   0  0  0  0  0  0
  -29.4114  -21.1731   25.2988 C   0  0  0  0  0  0
  -28.8254  -21.3076   23.9020 C   0  0  0  0  0  0
  -26.7613  -16.7971   23.9323 C   0  0  0  0  0  0
  -30.8550  -22.7591   21.0768 C   0  0  0  0  0  0
  -29.9531  -17.4125   20.5500 C   0  0  0  0  0  0
  -28.6023  -23.5565   20.1639 C   0  0  0  0  0  0
  -28.2944  -25.0265   20.8321 C   0  0  0  0  0  0
  -29.3571  -22.4136   21.0595 C   0  0  1  0  0  0
  -28.2156  -17.4663   22.1209 N   0  0  0  0  0  0
  -29.2434  -20.8998   20.7883 N   0  0  0  0  0  0
  -29.7697  -15.8831   20.6994 N   0  0  0  0  0  0
  -31.4803  -12.6317   19.1727 H   0  0  0  0  0  0
  -30.4214  -11.5017   19.9652 H   0  0  0  0  0  0
  -29.8128  -11.7346   17.5365 H   0  0  0  0  0  0
  -29.6419  -13.4618   17.7203 H   0  0  0  0  0  0
  -27.9072  -11.2805   18.9095 H   0  0  0  0  0  0
  -27.3921  -12.5197   17.7958 H   0  0  0  0  0  0
  -27.6342  -14.2489   19.4685 H   0  0  0  0  0  0
  -28.7250  -12.1631   21.4236 H   0  0  0  0  0  0
  -28.4032  -13.8373   21.8007 H   0  0  0  0  0  0
  -25.2751   -9.5738   22.4728 H   0  0  0  0  0  0
  -24.0025   -7.4656   22.7464 H   0  0  0  0  0  0
  -21.0835   -8.8742   19.8931 H   0  0  0  0  0  0
  -22.3661  -10.9658   19.6133 H   0  0  0  0  0  0
  -21.1986   -7.6130   23.9712 H   0  0  0  0  0  0
  -21.1490   -6.0506   25.9081 H   0  0  0  0  0  0
  -22.0599   -2.7594   23.2850 H   0  0  0  0  0  0
  -22.4104  -11.9832   22.4757 H   0  0  0  0  0  0
  -21.1109  -13.1223   22.2647 H   0  0  0  0  0  0
  -24.6695  -15.8531   20.5509 H   0  0  0  0  0  0
  -26.2979  -15.6361   20.1669 H   0  0  0  0  0  0
  -26.7204  -32.5378   23.1059 H   0  0  0  0  0  0
  -25.0023  -33.9693   25.0353 H   0  0  0  0  0  0
  -22.7290  -31.2906   21.3820 H   0  0  0  0  0  0
  -23.3768  -35.9626   23.3316 H   0  0  0  0  0  0
  -24.3594  -36.8916   22.2068 H   0  0  0  0  0  0
  -23.7240  -37.6478   23.6680 H   0  0  0  0  0  0
  -26.1113  -31.5125   20.5958 H   0  0  0  0  0  0
  -26.8602  -30.8190   21.9993 H   0  0  0  0  0  0
  -28.1302  -28.9194   21.2076 H   0  0  0  0  0  0
  -25.9974  -25.8522   19.0651 H   0  0  0  0  0  0
  -23.9856  -27.2650   19.0309 H   0  0  0  0  0  0
  -23.7759  -30.5607   19.3951 H   0  0  0  0  0  0
  -22.7697  -29.2222   19.8579 H   0  0  0  0  0  0
  -25.1300  -36.1918   25.0816 H   0  0  0  0  0  0
  -20.9977  -28.3267   24.1421 H   0  0  0  0  0  0
  -20.5753  -26.2295   23.3617 H   0  0  0  0  0  0
  -21.6662  -26.7466   22.1175 H   0  0  0  0  0  0
  -19.6942  -25.6294   21.1265 H   0  0  0  0  0  0
  -19.6714  -27.3205   20.6801 H   0  0  0  0  0  0
  -17.4224  -26.6706   21.4024 H   0  0  0  0  0  0
  -18.0282  -26.0086   22.9026 H   0  0  0  0  0  0
  -19.7974  -30.7271   24.2228 H   0  0  0  0  0  0
  -17.5056  -31.6267   24.5169 H   0  0  0  0  0  0
  -15.5376  -30.2982   23.7671 H   0  0  0  0  0  0
  -15.8692  -28.0824   22.7072 H   0  0  0  0  0  0
  -24.5863  -30.7059   25.7740 H   0  0  0  0  0  0
  -24.8807  -32.2891   26.4815 H   0  0  0  0  0  0
  -25.7949  -30.8932   27.0225 H   0  0  0  0  0  0
  -26.2902  -29.6772   24.1201 H   0  0  0  0  0  0
  -27.4027  -29.7264   25.4681 H   0  0  0  0  0  0
  -27.8760  -30.4327   23.9405 H   0  0  0  0  0  0
  -27.2670  -33.3665   26.2007 H   0  0  0  0  0  0
  -28.3856  -32.6848   25.0303 H   0  0  0  0  0  0
  -28.0672  -31.8471   26.5418 H   0  0  0  0  0  0
  -28.2586  -38.0107   24.7528 H   0  0  0  0  0  0
  -28.1075  -36.2640   24.6270 H   0  0  0  0  0  0
  -27.2292  -37.1429   25.8861 H   0  0  0  0  0  0
  -20.9450  -29.8714   21.6836 H   0  0  0  0  0  0
  -26.0181  -38.2840   24.1414 H   0  0  0  0  0  0
  -27.4279  -19.3385   24.7708 H   0  0  0  0  0  0
  -31.0626  -21.2239   23.8134 H   0  0  0  0  0  0
  -30.3901  -22.8747   24.2698 H   0  0  0  0  0  0
  -29.0428  -21.8406   26.0751 H   0  0  0  0  0  0
  -29.7286  -20.1893   25.6416 H   0  0  0  0  0  0
  -28.0058  -22.0198   23.8203 H   0  0  0  0  0  0
  -26.2761  -17.1917   24.8250 H   0  0  0  0  0  0
  -27.3870  -15.9555   24.2310 H   0  0  0  0  0  0
  -25.9842  -16.4227   23.2645 H   0  0  0  0  0  0
  -31.0273  -23.7801   21.4190 H   0  0  0  0  0  0
  -31.2864  -22.6774   20.0781 H   0  0  0  0  0  0
  -31.4269  -22.0981   21.7256 H   0  0  0  0  0  0
  -30.9770  -17.6654   20.8234 H   0  0  0  0  0  0
  -29.8254  -17.6900   19.5044 H   0  0  0  0  0  0
  -29.1815  -23.7141   19.2538 H   0  0  0  0  0  0
  -27.6493  -23.1570   19.8177 H   0  0  0  0  0  0
  -29.0225  -25.1445   21.6344 H   0  0  0  0  0  0
  -27.3449  -24.9498   21.3624 H   0  0  0  0  0  0
  -28.9679  -22.6357   22.0357 H   0  0  0  0  0  0
  -29.4088  -20.6276   19.8218 H   0  0  0  0  0  0
  -28.8417  -15.6772   21.0397 H   0  0  0  0  0  0
  1 25  1  0  0  0
  1 30  2  0  0  0
  1 87  1  0  0  0
  2  3  1  0  0  0
  2 25  1  0  0  0
  2 88  1  0  0  0
  2 89  1  0  0  0
  3  4  1  0  0  0
  3 90  1  0  0  0
  3 91  1  0  0  0
  4  5  1  0  0  0
  4 92  1  0  0  0
  4 93  1  0  0  0
  5  6  1  0  0  0
  5 26  1  0  0  0
  5 94  1  0  0  0
  6 25  1  0  0  0
  6 95  1  0  0  0
  6 96  1  0  0  0
  7  8  2  0  0  0
  7 26  1  0  0  0
  7 29  1  0  0  0
  8  9  1  0  0  0
  8 22  1  0  0  0
  9 10  1  0  0  0
  9 27  2  0  0  0
 10 11  2  0  0  0
 10 15  1  0  0  0
 11 12  1  0  0  0
 11 97  1  0  0  0
 12 13  2  0  0  0
 12 98  1  0  0  0
 13 14  1  0  0  0
 13 31  1  0  0  0
 14 15  2  0  0  0
 14 99  1  0  0  0
 15100  1  0  0  0
 16 17  2  0  0  0
 16 21  1  0  0  0
 16 31  1  0  0  0
 17 18  1  0  0  0
 17101  1  0  0  0
 18 19  2  0  0  0
 18102  1  0  0  0
 19 20  1  0  0  0
 19 24  1  0  0  0
 20 21  2  0  0  0
 20103  1  0  0  0
 21 23  1  0  0  0
 22 28  1  0  0  0
 22 32  2  0  0  0
 26 27  1  0  0  0
 28104  1  0  0  0
 28105  1  0  0  0
 29106  1  0  0  0
 29107  1  0  0  0
 33 34  1  0  0  0
 33 66  1  0  0  0
 33 70  2  0  0  0
 34 36  1  0  0  0
 34 59  1  0  0  0
 34108  1  0  0  0
 35 44  2  0  0  0
 35 45  1  0  0  0
 35 68  1  0  0  0
 36 56  1  0  0  0
 36109  1  0  0  0
 37 39  1  0  0  0
 37 47  1  0  0  0
 37 66  1  0  0  0
 37110  1  0  0  0
 38 43  2  0  0  0
 38 46  1  0  0  0
 38 47  1  0  0  0
 39 64  1  0  0  0
 39 67  2  0  0  0
 40 52  1  0  0  0
 40 53  2  0  0  0
 40 58  1  0  0  0
 41111  1  0  0  0
 41112  1  0  0  0
 41113  1  0  0  0
 41 48  1  0  0  0
 42 43  1  0  0  0
 42 66  1  0  0  0
 42114  1  0  0  0
 42115  1  0  0  0
 43 44  1  0  0  0
 44116  1  0  0  0
 45 46  2  0  0  0
 45117  1  0  0  0
 46118  1  0  0  0
 47119  1  0  0  0
 47120  1  0  0  0
 48 56  1  0  0  0
 48 65  1  0  0  0
 48121  1  0  0  0
 49 50  1  0  0  0
 49 53  1  0  0  0
 49 64  1  0  0  0
 49122  1  0  0  0
 50 51  1  0  0  0
 50123  1  0  0  0
 50124  1  0  0  0
 51 52  1  0  0  0
 51125  1  0  0  0
 51126  1  0  0  0
 52127  1  0  0  0
 52128  1  0  0  0
 53 54  1  0  0  0
 54 55  2  0  0  0
 54129  1  0  0  0
 55 57  1  0  0  0
 55130  1  0  0  0
 56 69  2  0  0  0
 57 58  2  0  0  0
 57131  1  0  0  0
 58132  1  0  0  0
 59 60  1  0  0  0
 59 61  1  0  0  0
 59 62  1  0  0  0
 60133  1  0  0  0
 60134  1  0  0  0
 60135  1  0  0  0
 61136  1  0  0  0
 61137  1  0  0  0
 61138  1  0  0  0
 62139  1  0  0  0
 62140  1  0  0  0
 62141  1  0  0  0
 63 65  1  0  0  0
 63142  1  0  0  0
 63143  1  0  0  0
 63144  1  0  0  0
 64145  1  0  0  0
 65146  1  0  0  0
 68 83  1  0  0  0
 71 72  2  0  0  0
 71 74  1  0  0  0
 71147  1  0  0  0
 72 73  1  0  0  0
 72 78  1  0  0  0
 73 75  2  0  0  0
 73 86  1  0  0  0
 74 79  1  0  0  0
 74 85  2  0  0  0
 75 81  1  0  0  0
 75 85  1  0  0  0
 76 77  1  0  0  0
 76 78  1  0  0  0
 76148  1  0  0  0
 76149  1  0  0  0
 77 78  1  0  0  0
 77150  1  0  0  0
 77151  1  0  0  0
 78152  1  0  0  0
 79153  1  0  0  0
 79154  1  0  0  0
 79155  1  0  0  0
 80156  1  0  0  0
 80157  1  0  0  0
 80158  1  0  0  0
 80 84  1  0  0  0
 81 87  1  0  0  0
 81159  1  0  0  0
 81160  1  0  0  0
 82 83  1  0  0  0
 82 84  1  0  0  0
 82161  1  0  0  0
 82162  1  0  0  0
 83163  1  0  0  0
 83164  1  0  0  0
 84 86  1  0  0  0
 84165  1  0  0  0
 86166  1  0  0  0
 87167  1  0  0  0
M  ISO  4   1 100  68 101  83 101  87 100
M  END
> <chiral flag>
0

> <version>
0

> <s_m_source_file>
/data/baiqing/PycharmProjects/Reinvent-master-3.2/result/LINK_invent/BTK/process_docking_weight1_custom_sum_contain_oxygen_bond_distance_aromatic_linkinvent_7_9_3/rearranged_h_0181.sdf

> <i_m_source_file_index>
65

> <r_mmod_Potential_Energy-OPLS-2005>
140.427459716797

> <r_mmod_Stretch_Energy-OPLS-2005>
163.18815612793

> <r_mmod_Bend_Energy-OPLS-2005>
242.006484985352

> <r_mmod_Torsional_Energy-OPLS-2005>
322.860687255859

> <r_mmod_Improper_Torsional_Energy-OPLS-2005>
6.10576295852661

> <r_mmod_Van_der_Waal_Energy-OPLS-2005>
144.318817138672

> <r_mmod_Electrostatic_Energy-OPLS-2005>
-618.174743652344

> <r_mmod_Solvation_Energy-OPLS-2005>
-215.840484619141

> <b_mmod_Minimization_Converged-OPLS-2005>
0

> <r_mmod_RMS_Derivative-OPLS-2005>
2.78884410858154

$$$$
65
                    3D
 Structure written by MMmdl.
160169  0  0  1  0            999 V2000
  -30.5754  -15.1259   20.4204 C   0  0  0  0  0  0
  -30.4190  -12.7313   19.5099 C   0  0  0  0  0  0
  -29.5200  -12.5552   18.2669 C   0  0  0  0  0  0
  -28.0631  -12.3121   18.6938 C   0  0  0  0  0  0
  -27.6094  -13.2782   19.8191 C   0  0  2  0  0  0
  -28.6489  -13.4397   20.9495 C   0  0  0  0  0  0
  -25.2379  -13.8293   20.5749 C   0  0  0  0  0  0
  -24.1729  -13.0465   20.9275 C   0  0  0  0  0  0
  -24.6390  -11.6964   20.8788 C   0  0  0  0  0  0
  -23.9087  -10.4307   21.0414 C   0  0  0  0  0  0
  -24.3633   -9.4224   21.9184 C   0  0  0  0  0  0
  -23.6308   -8.2255   22.0754 C   0  0  0  0  0  0
  -22.4287   -8.0290   21.3544 C   0  0  0  0  0  0
  -21.9926   -9.0265   20.4642 C   0  0  0  0  0  0
  -22.7263  -10.2143   20.3056 C   0  0  0  0  0  0
  -21.6861   -6.0745   22.5276 C   0  0  0  0  0  0
  -21.4011   -6.5639   23.8212 C   0  0  0  0  0  0
  -21.3658   -5.6788   24.9172 C   0  0  0  0  0  0
  -21.6047   -4.3052   24.7225 C   0  0  0  0  0  0
  -21.8820   -3.8146   23.4345 C   0  0  0  0  0  0
  -21.9194   -4.6969   22.3402 C   0  0  0  0  0  0
  -22.7742  -13.5217   21.1890 C   0  0  0  0  0  0
  -22.1663   -4.2155   21.0983 F   0  0  0  0  0  0
  -21.5643   -3.4535   25.7736 F   0  0  0  0  0  0
  -29.8915  -13.8939   20.3111 N   0  0  0  0  0  0
  -26.2806  -12.9561   20.3225 N   0  0  0  0  0  0
  -25.9334  -11.6662   20.5744 N   0  0  0  0  0  0
  -22.0369  -12.8206   22.0432 N   0  0  0  0  0  0
  -25.4032  -15.2005   20.4139 N   0  0  0  0  0  0
  -31.7956  -15.0089   20.2406 O   0  0  0  0  0  0
  -21.6653   -6.8886   21.4236 O   0  0  0  0  0  0
  -22.3413  -14.5507   20.6719 O   0  0  0  0  0  0
  -24.6572  -31.8301   23.1764 C   0  0  0  0  0  0
  -25.9299  -32.4598   23.8189 C   0  0  1  0  0  0
  -27.2158  -27.0149   20.1692 C   0  0  0  0  0  0
  -25.5990  -33.8413   24.2108 N   0  0  0  0  0  0
  -23.4663  -30.4463   21.5238 C   0  0  2  0  0  0
  -24.9152  -28.8536   20.1016 C   0  0  0  0  0  0
  -22.7629  -29.4483   22.4789 C   0  0  0  0  0  0
  -18.0319  -28.1401   22.8460 C   0  0  0  0  0  0
  -24.1501  -36.7225   23.2642 C   0  0  0  0  0  0
  -26.0286  -30.6660   21.3919 C   0  0  0  0  0  0
  -26.0950  -29.2670   20.7315 C   0  0  0  0  0  0
  -27.2413  -28.3683   20.7407 C   0  0  0  0  0  0
  -26.0131  -26.7367   19.4802 C   0  0  0  0  0  0
  -24.8975  -27.6086   19.4518 C   0  0  0  0  0  0
  -23.6958  -29.7694   20.1449 C   0  0  0  0  0  0
  -25.4135  -36.2979   24.0301 C   0  0  1  0  0  0
  -20.5938  -28.3752   23.1185 C   0  0  2  0  0  0
  -20.6800  -26.9439   22.5393 C   0  0  0  0  0  0
  -19.5780  -26.6382   21.5196 C   0  0  0  0  0  0
  -18.1960  -26.7941   22.1609 C   0  0  0  0  0  0
  -19.1580  -28.8894   23.2817 C   0  0  0  0  0  0
  -18.9487  -30.1479   23.8853 C   0  0  0  0  0  0
  -17.6478  -30.6585   24.0552 C   0  0  0  0  0  0
  -25.9101  -34.9354   23.5026 C   0  0  0  0  0  0
  -16.5364  -29.9068   23.6344 C   0  0  0  0  0  0
  -16.7305  -28.6498   23.0352 C   0  0  0  0  0  0
  -26.4570  -31.6506   25.0692 C   0  0  0  0  0  0
  -25.3722  -31.3724   26.1366 C   0  0  0  0  0  0
  -27.0445  -30.2875   24.6369 C   0  0  0  0  0  0
  -27.6066  -32.4308   25.7500 C   0  0  0  0  0  0
  -27.5575  -37.1767   24.8461 C   0  0  0  0  0  0
  -21.4310  -29.3040   22.3528 N   0  0  0  0  0  0
  -26.4286  -37.3707   23.9399 N   0  0  0  0  0  0
  -24.7379  -31.0057   22.0836 N   0  0  0  0  0  0
  -23.4202  -28.8059   23.3022 O   0  0  0  0  0  0
  -28.2415  -25.9654   20.2829 O   0  0  0  0  0  0
  -26.5697  -34.8875   22.4618 O   0  0  0  0  0  0
  -23.5670  -32.1197   23.6935 O   0  0  0  0  0  0
  -28.7185  -17.2562   20.6858 C   0  0  0  0  0  0
  -30.9162  -17.7590   20.4126 C   0  0  0  0  0  0
  -28.1327  -20.2447   20.5968 C   0  0  0  0  0  0
  -28.7246  -18.7942   20.0652 C   0  0  1  0  0  0
  -30.1661  -19.0898   19.8664 C   0  0  1  0  0  0
  -30.3483  -20.6502   20.3275 C   0  0  1  0  0  0
  -32.8915  -20.6404   19.9036 C   0  0  0  0  0  0
  -31.5378  -21.3027   19.5903 C   0  0  0  0  0  0
  -28.8740  -22.9840   20.6867 C   0  0  0  0  0  0
  -28.0849  -24.3838   19.9805 C   0  0  0  0  0  0
  -30.0406  -16.5007   20.4586 N   0  0  0  0  0  0
  -29.0235  -21.4311   20.1396 N   0  3  2  0  0  0
  -31.4485  -12.8800   19.1787 H   0  0  0  0  0  0
  -30.4399  -11.8207   20.1087 H   0  0  0  0  0  0
  -29.8760  -11.7272   17.6521 H   0  0  0  0  0  0
  -29.5793  -13.4501   17.6456 H   0  0  0  0  0  0
  -27.9919  -11.2809   19.0404 H   0  0  0  0  0  0
  -27.3962  -12.3906   17.8346 H   0  0  0  0  0  0
  -27.5303  -14.2503   19.3299 H   0  0  0  0  0  0
  -28.7898  -12.5089   21.5014 H   0  0  0  0  0  0
  -28.3139  -14.1872   21.6708 H   0  0  0  0  0  0
  -25.2778   -9.5720   22.4760 H   0  0  0  0  0  0
  -24.0034   -7.4644   22.7469 H   0  0  0  0  0  0
  -21.0875   -8.8781   19.8933 H   0  0  0  0  0  0
  -22.3722  -10.9685   19.6163 H   0  0  0  0  0  0
  -21.1992   -7.6142   23.9719 H   0  0  0  0  0  0
  -21.1484   -6.0516   25.9077 H   0  0  0  0  0  0
  -22.0599   -2.7611   23.2848 H   0  0  0  0  0  0
  -22.3976  -11.9913   22.4913 H   0  0  0  0  0  0
  -21.0950  -13.1199   22.2543 H   0  0  0  0  0  0
  -24.6394  -15.8592   20.5292 H   0  0  0  0  0  0
  -26.2499  -15.6311   20.0667 H   0  0  0  0  0  0
  -26.7379  -32.5174   23.0914 H   0  0  0  0  0  0
  -25.0113  -33.9488   25.0240 H   0  0  0  0  0  0
  -22.7768  -31.2767   21.3632 H   0  0  0  0  0  0
  -23.3764  -35.9558   23.3276 H   0  0  0  0  0  0
  -24.3584  -36.8899   22.2066 H   0  0  0  0  0  0
  -23.7259  -37.6407   23.6711 H   0  0  0  0  0  0
  -26.2024  -31.4148   20.6180 H   0  0  0  0  0  0
  -26.8930  -30.7135   22.0429 H   0  0  0  0  0  0
  -28.1395  -28.6844   21.2525 H   0  0  0  0  0  0
  -25.8999  -25.7872   18.9780 H   0  0  0  0  0  0
  -24.0032  -27.2922   18.9324 H   0  0  0  0  0  0
  -23.8341  -30.5392   19.3853 H   0  0  0  0  0  0
  -22.8049  -29.2170   19.8407 H   0  0  0  0  0  0
  -25.1333  -36.1783   25.0790 H   0  0  0  0  0  0
  -21.0027  -28.3365   24.1305 H   0  0  0  0  0  0
  -20.5682  -26.2369   23.3632 H   0  0  0  0  0  0
  -21.6668  -26.7422   22.1202 H   0  0  0  0  0  0
  -19.6948  -25.6281   21.1258 H   0  0  0  0  0  0
  -19.6725  -27.3161   20.6702 H   0  0  0  0  0  0
  -17.4232  -26.6673   21.4009 H   0  0  0  0  0  0
  -18.0361  -26.0080   22.9011 H   0  0  0  0  0  0
  -19.7955  -30.7317   24.2189 H   0  0  0  0  0  0
  -17.5023  -31.6261   24.5158 H   0  0  0  0  0  0
  -15.5365  -30.2954   23.7685 H   0  0  0  0  0  0
  -15.8712  -28.0805   22.7075 H   0  0  0  0  0  0
  -24.5913  -30.7066   25.7664 H   0  0  0  0  0  0
  -24.8918  -32.2928   26.4704 H   0  0  0  0  0  0
  -25.7982  -30.8937   27.0201 H   0  0  0  0  0  0
  -26.3078  -29.6569   24.1379 H   0  0  0  0  0  0
  -27.3986  -29.7216   25.5000 H   0  0  0  0  0  0
  -27.9026  -30.4046   23.9746 H   0  0  0  0  0  0
  -27.2605  -33.3623   26.1992 H   0  0  0  0  0  0
  -28.3918  -32.6848   25.0363 H   0  0  0  0  0  0
  -28.0697  -31.8508   26.5497 H   0  0  0  0  0  0
  -28.2566  -38.0082   24.7509 H   0  0  0  0  0  0
  -28.1097  -36.2617   24.6289 H   0  0  0  0  0  0
  -27.2298  -37.1406   25.8861 H   0  0  0  0  0  0
  -20.9531  -29.8700   21.6648 H   0  0  0  0  0  0
  -26.0147  -38.2776   24.1379 H   0  0  0  0  0  0
  -27.8974  -16.6743   20.2699 H   0  0  0  0  0  0
  -28.5466  -17.2999   21.7621 H   0  0  0  0  0  0
  -31.2909  -17.9391   21.4217 H   0  0  0  0  0  0
  -31.7977  -17.5669   19.7990 H   0  0  0  0  0  0
  -28.0862  -20.2377   21.6872 H   0  0  0  0  0  0
  -27.1139  -20.3996   20.2405 H   0  0  0  0  0  0
  -28.2964  -18.6828   19.0685 H   0  0  0  0  0  0
  -30.3342  -19.0805   18.7885 H   0  0  0  0  0  0
  -30.5635  -20.6620   21.3998 H   0  0  0  0  0  0
  -33.7029  -21.1425   19.3765 H   0  0  0  0  0  0
  -32.9149  -19.5971   19.5931 H   0  0  0  0  0  0
  -33.1194  -20.6800   20.9691 H   0  0  0  0  0  0
  -31.6153  -22.3546   19.8551 H   0  0  0  0  0  0
  -31.3610  -21.2750   18.5153 H   0  0  0  0  0  0
  -28.5158  -22.9112   21.7129 H   0  0  0  0  0  0
  -29.8979  -23.3313   20.8075 H   0  0  0  0  0  0
  -27.0215  -24.1731   20.0803 H   0  0  0  0  0  0
  -28.2761  -24.3101   18.9103 H   0  0  0  0  0  0
  -28.9042  -21.4963   19.1383 H   0  0  0  0  0  0
  1 25  1  0  0  0
  1 30  2  0  0  0
  1 81  1  0  0  0
  2  3  1  0  0  0
  2 25  1  0  0  0
  2 83  1  0  0  0
  2 84  1  0  0  0
  3  4  1  0  0  0
  3 85  1  0  0  0
  3 86  1  0  0  0
  4  5  1  0  0  0
  4 87  1  0  0  0
  4 88  1  0  0  0
  5  6  1  0  0  0
  5 26  1  0  0  0
  5 89  1  0  0  0
  6 25  1  0  0  0
  6 90  1  0  0  0
  6 91  1  0  0  0
  7  8  2  0  0  0
  7 26  1  0  0  0
  7 29  1  0  0  0
  8  9  1  0  0  0
  8 22  1  0  0  0
  9 10  1  0  0  0
  9 27  2  0  0  0
 10 11  2  0  0  0
 10 15  1  0  0  0
 11 12  1  0  0  0
 11 92  1  0  0  0
 12 13  2  0  0  0
 12 93  1  0  0  0
 13 14  1  0  0  0
 13 31  1  0  0  0
 14 15  2  0  0  0
 14 94  1  0  0  0
 15 95  1  0  0  0
 16 17  2  0  0  0
 16 21  1  0  0  0
 16 31  1  0  0  0
 17 18  1  0  0  0
 17 96  1  0  0  0
 18 19  2  0  0  0
 18 97  1  0  0  0
 19 20  1  0  0  0
 19 24  1  0  0  0
 20 21  2  0  0  0
 20 98  1  0  0  0
 21 23  1  0  0  0
 22 28  1  0  0  0
 22 32  2  0  0  0
 26 27  1  0  0  0
 28 99  1  0  0  0
 28100  1  0  0  0
 29101  1  0  0  0
 29102  1  0  0  0
 33 34  1  0  0  0
 33 66  1  0  0  0
 33 70  2  0  0  0
 34 36  1  0  0  0
 34 59  1  0  0  0
 34103  1  0  0  0
 35 44  2  0  0  0
 35 45  1  0  0  0
 35 68  1  0  0  0
 36 56  1  0  0  0
 36104  1  0  0  0
 37 39  1  0  0  0
 37 47  1  0  0  0
 37 66  1  0  0  0
 37105  1  0  0  0
 38 43  2  0  0  0
 38 46  1  0  0  0
 38 47  1  0  0  0
 39 64  1  0  0  0
 39 67  2  0  0  0
 40 52  1  0  0  0
 40 53  2  0  0  0
 40 58  1  0  0  0
 41106  1  0  0  0
 41107  1  0  0  0
 41108  1  0  0  0
 41 48  1  0  0  0
 42 43  1  0  0  0
 42 66  1  0  0  0
 42109  1  0  0  0
 42110  1  0  0  0
 43 44  1  0  0  0
 44111  1  0  0  0
 45 46  2  0  0  0
 45112  1  0  0  0
 46113  1  0  0  0
 47114  1  0  0  0
 47115  1  0  0  0
 48 56  1  0  0  0
 48 65  1  0  0  0
 48116  1  0  0  0
 49 50  1  0  0  0
 49 53  1  0  0  0
 49 64  1  0  0  0
 49117  1  0  0  0
 50 51  1  0  0  0
 50118  1  0  0  0
 50119  1  0  0  0
 51 52  1  0  0  0
 51120  1  0  0  0
 51121  1  0  0  0
 52122  1  0  0  0
 52123  1  0  0  0
 53 54  1  0  0  0
 54 55  2  0  0  0
 54124  1  0  0  0
 55 57  1  0  0  0
 55125  1  0  0  0
 56 69  2  0  0  0
 57 58  2  0  0  0
 57126  1  0  0  0
 58127  1  0  0  0
 59 60  1  0  0  0
 59 61  1  0  0  0
 59 62  1  0  0  0
 60128  1  0  0  0
 60129  1  0  0  0
 60130  1  0  0  0
 61131  1  0  0  0
 61132  1  0  0  0
 61133  1  0  0  0
 62134  1  0  0  0
 62135  1  0  0  0
 62136  1  0  0  0
 63 65  1  0  0  0
 63137  1  0  0  0
 63138  1  0  0  0
 63139  1  0  0  0
 64140  1  0  0  0
 65141  1  0  0  0
 68 80  1  0  0  0
 71 81  1  0  0  0
 71142  1  0  0  0
 71143  1  0  0  0
 71 74  1  0  0  0
 72 81  1  0  0  0
 72144  1  0  0  0
 72145  1  0  0  0
 72 75  1  0  0  0
 73 74  1  0  0  0
 73 82  1  0  0  0
 73146  1  0  0  0
 73147  1  0  0  0
 74 75  1  0  0  0
 74148  1  0  0  0
 75 76  1  0  0  0
 75149  1  0  0  0
 76 78  1  0  0  0
 76 82  1  0  0  0
 76150  1  0  0  0
 77 78  1  0  0  0
 77151  1  0  0  0
 77152  1  0  0  0
 77153  1  0  0  0
 78154  1  0  0  0
 78155  1  0  0  0
 79 80  1  0  0  0
 79156  1  0  0  0
 79157  1  0  0  0
 79 82  1  0  0  0
 80158  1  0  0  0
 80159  1  0  0  0
 82160  1  0  0  0
M  CHG  1  82   1
M  ISO  4   1 100  68 101  80 101  81 100
M  END
> <chiral flag>
0

> <version>
0

> <s_m_source_file>
/data/baiqing/PycharmProjects/Reinvent-master-3.2/result/LINK_invent/BTK/process_docking_weight1_custom_sum_contain_oxygen_bond_distance_aromatic_linkinvent_7_9_3/rearranged_h_0181.sdf

> <i_m_source_file_index>
66

> <r_mmod_Potential_Energy-OPLS-2005>
1131.19311523438

> <r_mmod_Stretch_Energy-OPLS-2005>
398.386199951172

> <r_mmod_Bend_Energy-OPLS-2005>
468.724517822266

> <r_mmod_Torsional_Energy-OPLS-2005>
386.741790771484

> <r_mmod_Improper_Torsional_Energy-OPLS-2005>
6.17452335357666

> <r_mmod_Van_der_Waal_Energy-OPLS-2005>
105.875152587891

> <r_mmod_Electrostatic_Energy-OPLS-2005>
-135.498107910156

> <r_mmod_Solvation_Energy-OPLS-2005>
-429.886962890625

> <b_mmod_Minimization_Converged-OPLS-2005>
0

> <r_mmod_RMS_Derivative-OPLS-2005>
2.62777161598206

$$$$
66
                    3D
 Structure written by MMmdl.
152161  0  0  1  0            999 V2000
  -30.3991  -15.5054   20.3337 C   0  0  0  0  0  0
  -30.4187  -12.9917   19.5112 C   0  0  0  0  0  0
  -29.5338  -12.6195   18.2954 C   0  0  0  0  0  0
  -28.1020  -12.2938   18.7437 C   0  0  0  0  0  0
  -27.5952  -13.2996   19.8044 C   0  0  2  0  0  0
  -28.6238  -13.6066   20.9165 C   0  0  0  0  0  0
  -25.2345  -13.8291   20.5797 C   0  0  0  0  0  0
  -24.1725  -13.0445   20.9291 C   0  0  0  0  0  0
  -24.6413  -11.6948   20.8768 C   0  0  0  0  0  0
  -23.9115  -10.4296   21.0394 C   0  0  0  0  0  0
  -24.3656   -9.4209   21.9174 C   0  0  0  0  0  0
  -23.6314   -8.2249   22.0742 C   0  0  0  0  0  0
  -22.4293   -8.0295   21.3541 C   0  0  0  0  0  0
  -21.9944   -9.0270   20.4642 C   0  0  0  0  0  0
  -22.7281  -10.2141   20.3047 C   0  0  0  0  0  0
  -21.6860   -6.0745   22.5281 C   0  0  0  0  0  0
  -21.4024   -6.5647   23.8217 C   0  0  0  0  0  0
  -21.3655   -5.6796   24.9175 C   0  0  0  0  0  0
  -21.6040   -4.3058   24.7221 C   0  0  0  0  0  0
  -21.8816   -3.8150   23.4340 C   0  0  0  0  0  0
  -21.9196   -4.6972   22.3400 C   0  0  0  0  0  0
  -22.7738  -13.5180   21.1924 C   0  0  0  0  0  0
  -22.1658   -4.2154   21.0976 F   0  0  0  0  0  0
  -21.5623   -3.4542   25.7733 F   0  0  0  0  0  0
  -29.8062  -14.1850   20.2414 N   0  0  0  0  0  0
  -26.2777  -12.9601   20.3221 N   0  0  0  0  0  0
  -25.9357  -11.6683   20.5709 N   0  0  0  0  0  0
  -22.0406  -12.8151   22.0472 N   0  0  0  0  0  0
  -25.4002  -15.2032   20.4278 N   0  0  0  0  0  0
  -31.6330  -15.3667   20.2370 O   0  0  0  0  0  0
  -21.6652   -6.8892   21.4242 O   0  0  0  0  0  0
  -22.3410  -14.5478   20.6759 O   0  0  0  0  0  0
  -24.6778  -31.8078   23.1564 C   0  0  0  0  0  0
  -25.9388  -32.4505   23.8088 C   0  0  1  0  0  0
  -27.2178  -26.7693   20.2012 C   0  0  0  0  0  0
  -25.6011  -33.8326   24.1992 N   0  0  0  0  0  0
  -23.4999  -30.4137   21.5102 C   0  0  2  0  0  0
  -24.9536  -28.7680   20.1197 C   0  0  0  0  0  0
  -22.7736  -29.4367   22.4737 C   0  0  0  0  0  0
  -18.0336  -28.1426   22.8459 C   0  0  0  0  0  0
  -24.1493  -36.7164   23.2652 C   0  0  0  0  0  0
  -26.0776  -30.5630   21.4083 C   0  0  0  0  0  0
  -26.1442  -29.1342   20.7597 C   0  0  0  0  0  0
  -27.2675  -28.1625   20.7665 C   0  0  0  0  0  0
  -25.9925  -26.5956   19.5127 C   0  0  0  0  0  0
  -24.9126  -27.5225   19.4737 C   0  0  0  0  0  0
  -23.7485  -29.7162   20.1433 C   0  0  0  0  0  0
  -25.4139  -36.2917   24.0291 C   0  0  1  0  0  0
  -20.5970  -28.3783   23.1158 C   0  0  2  0  0  0
  -20.6811  -26.9453   22.5402 C   0  0  0  0  0  0
  -19.5784  -26.6377   21.5221 C   0  0  0  0  0  0
  -18.1966  -26.7956   22.1621 C   0  0  0  0  0  0
  -19.1604  -28.8926   23.2796 C   0  0  0  0  0  0
  -18.9512  -30.1512   23.8840 C   0  0  0  0  0  0
  -17.6500  -30.6608   24.0554 C   0  0  0  0  0  0
  -25.9120  -34.9308   23.4970 C   0  0  0  0  0  0
  -16.5392  -29.9095   23.6350 C   0  0  0  0  0  0
  -16.7316  -28.6514   23.0372 C   0  0  0  0  0  0
  -26.4588  -31.6506   25.0678 C   0  0  0  0  0  0
  -25.3678  -31.3804   26.1309 C   0  0  0  0  0  0
  -27.0496  -30.2849   24.6515 C   0  0  0  0  0  0
  -27.6057  -32.4346   25.7485 C   0  0  0  0  0  0
  -27.5555  -37.1756   24.8474 C   0  0  0  0  0  0
  -21.4392  -29.3042   22.3489 N   0  0  0  0  0  0
  -26.4275  -37.3665   23.9401 N   0  0  0  0  0  0
  -24.7753  -30.9590   22.0782 N   0  0  0  0  0  0
  -23.4208  -28.7954   23.3051 O   0  0  0  0  0  0
  -28.1910  -25.5821   20.2190 O   0  0  0  0  0  0
  -26.5732  -34.8877   22.4570 O   0  0  0  0  0  0
  -23.5813  -32.1121   23.6550 O   0  0  0  0  0  0
  -29.7052  -20.7098   18.5060 C   0  0  0  0  0  0
  -29.6321  -19.4866   19.2650 C   0  0  0  0  0  0
  -29.0924  -19.6719   20.4924 C   0  0  0  0  0  0
  -28.6888  -22.2594   20.1084 C   0  0  0  0  0  0
  -29.1976  -18.1047   21.1022 C   0  0  0  0  0  0
  -30.0522  -17.9356   18.9796 C   0  0  0  0  0  0
  -31.5476  -17.9305   18.5946 C   0  0  0  0  0  0
  -29.2479  -17.4450   17.7585 C   0  0  0  0  0  0
  -27.8775  -23.8893   20.3640 C   0  0  0  0  0  0
  -29.2664  -21.9820   18.9058 N   0  0  0  0  0  0
  -28.6122  -21.0232   20.8915 N   0  0  0  0  0  0
  -29.7658  -16.9096   20.1463 N   0  0  0  0  0  0
  -31.4215  -13.2183   19.1461 H   0  0  0  0  0  0
  -30.5430  -12.1374   20.1784 H   0  0  0  0  0  0
  -29.9629  -11.7751   17.7550 H   0  0  0  0  0  0
  -29.5117  -13.4563   17.5954 H   0  0  0  0  0  0
  -28.1065  -11.2902   19.1705 H   0  0  0  0  0  0
  -27.4278  -12.2585   17.8865 H   0  0  0  0  0  0
  -27.4653  -14.2288   19.2474 H   0  0  0  0  0  0
  -28.8639  -12.7198   21.5043 H   0  0  0  0  0  0
  -28.2166  -14.3412   21.6133 H   0  0  0  0  0  0
  -25.2793   -9.5689   22.4759 H   0  0  0  0  0  0
  -24.0018   -7.4649   22.7473 H   0  0  0  0  0  0
  -21.0865   -8.8801   19.8957 H   0  0  0  0  0  0
  -22.3733  -10.9688   19.6163 H   0  0  0  0  0  0
  -21.2019   -7.6155   23.9720 H   0  0  0  0  0  0
  -21.1472   -6.0523   25.9077 H   0  0  0  0  0  0
  -22.0595   -2.7616   23.2837 H   0  0  0  0  0  0
  -22.4041  -11.9814   22.4850 H   0  0  0  0  0  0
  -21.1016  -13.1141   22.2678 H   0  0  0  0  0  0
  -24.6368  -15.8585   20.5543 H   0  0  0  0  0  0
  -26.2552  -15.6456   20.1158 H   0  0  0  0  0  0
  -26.7457  -32.4987   23.0793 H   0  0  0  0  0  0
  -25.0162  -33.9390   25.0148 H   0  0  0  0  0  0
  -22.8224  -31.2502   21.3256 H   0  0  0  0  0  0
  -23.3766  -35.9491   23.3304 H   0  0  0  0  0  0
  -24.3559  -36.8813   22.2067 H   0  0  0  0  0  0
  -23.7241  -37.6348   23.6710 H   0  0  0  0  0  0
  -26.2705  -31.2903   20.6182 H   0  0  0  0  0  0
  -26.9326  -30.6306   22.0689 H   0  0  0  0  0  0
  -28.1699  -28.4519   21.2857 H   0  0  0  0  0  0
  -25.8340  -25.6537   19.0073 H   0  0  0  0  0  0
  -24.0129  -27.2345   18.9473 H   0  0  0  0  0  0
  -23.9183  -30.4791   19.3822 H   0  0  0  0  0  0
  -22.8543  -29.1799   19.8196 H   0  0  0  0  0  0
  -25.1343  -36.1707   25.0783 H   0  0  0  0  0  0
  -21.0061  -28.3398   24.1281 H   0  0  0  0  0  0
  -20.5694  -26.2410   23.3661 H   0  0  0  0  0  0
  -21.6670  -26.7416   22.1208 H   0  0  0  0  0  0
  -19.6953  -25.6272   21.1294 H   0  0  0  0  0  0
  -19.6725  -27.3159   20.6734 H   0  0  0  0  0  0
  -17.4238  -26.6711   21.4020 H   0  0  0  0  0  0
  -18.0351  -26.0107   22.9025 H   0  0  0  0  0  0
  -19.7992  -30.7341   24.2189 H   0  0  0  0  0  0
  -17.5054  -31.6286   24.5165 H   0  0  0  0  0  0
  -15.5389  -30.2980   23.7709 H   0  0  0  0  0  0
  -15.8717  -28.0808   22.7133 H   0  0  0  0  0  0
  -24.5904  -30.7103   25.7610 H   0  0  0  0  0  0
  -24.8829  -32.3020   26.4541 H   0  0  0  0  0  0
  -25.7883  -30.9101   27.0208 H   0  0  0  0  0  0
  -26.3193  -29.6500   24.1490 H   0  0  0  0  0  0
  -27.3927  -29.7245   25.5223 H   0  0  0  0  0  0
  -27.9168  -30.3975   24.0008 H   0  0  0  0  0  0
  -27.2608  -33.3707   26.1885 H   0  0  0  0  0  0
  -28.3951  -32.6815   25.0371 H   0  0  0  0  0  0
  -28.0636  -31.8599   26.5544 H   0  0  0  0  0  0
  -28.2577  -38.0050   24.7464 H   0  0  0  0  0  0
  -28.1047  -36.2563   24.6362 H   0  0  0  0  0  0
  -27.2271  -37.1462   25.8884 H   0  0  0  0  0  0
  -20.9690  -29.8704   21.6566 H   0  0  0  0  0  0
  -26.0113  -38.2725   24.1391 H   0  0  0  0  0  0
  -30.1266  -20.6744   17.5123 H   0  0  0  0  0  0
  -28.2039  -17.8124   21.4405 H   0  0  0  0  0  0
  -29.8158  -18.1368   21.9990 H   0  0  0  0  0  0
  -31.7510  -18.6253   17.7780 H   0  0  0  0  0  0
  -31.8820  -16.9513   18.2478 H   0  0  0  0  0  0
  -32.1812  -18.2210   19.4334 H   0  0  0  0  0  0
  -29.4423  -18.0552   16.8750 H   0  0  0  0  0  0
  -28.1728  -17.4816   17.9470 H   0  0  0  0  0  0
  -29.4954  -16.4139   17.4989 H   0  0  0  0  0  0
  -27.5212  -23.8052   21.3905 H   0  0  0  0  0  0
  -26.9706  -23.7698   19.7722 H   0  0  0  0  0  0
  1 25  1  0  0  0
  1 30  2  0  0  0
  1 82  1  0  0  0
  2  3  1  0  0  0
  2 25  1  0  0  0
  2 83  1  0  0  0
  2 84  1  0  0  0
  3  4  1  0  0  0
  3 85  1  0  0  0
  3 86  1  0  0  0
  4  5  1  0  0  0
  4 87  1  0  0  0
  4 88  1  0  0  0
  5  6  1  0  0  0
  5 26  1  0  0  0
  5 89  1  0  0  0
  6 25  1  0  0  0
  6 90  1  0  0  0
  6 91  1  0  0  0
  7  8  2  0  0  0
  7 26  1  0  0  0
  7 29  1  0  0  0
  8  9  1  0  0  0
  8 22  1  0  0  0
  9 10  1  0  0  0
  9 27  2  0  0  0
 10 11  2  0  0  0
 10 15  1  0  0  0
 11 12  1  0  0  0
 11 92  1  0  0  0
 12 13  2  0  0  0
 12 93  1  0  0  0
 13 14  1  0  0  0
 13 31  1  0  0  0
 14 15  2  0  0  0
 14 94  1  0  0  0
 15 95  1  0  0  0
 16 17  2  0  0  0
 16 21  1  0  0  0
 16 31  1  0  0  0
 17 18  1  0  0  0
 17 96  1  0  0  0
 18 19  2  0  0  0
 18 97  1  0  0  0
 19 20  1  0  0  0
 19 24  1  0  0  0
 20 21  2  0  0  0
 20 98  1  0  0  0
 21 23  1  0  0  0
 22 28  1  0  0  0
 22 32  2  0  0  0
 26 27  1  0  0  0
 28 99  1  0  0  0
 28100  1  0  0  0
 29101  1  0  0  0
 29102  1  0  0  0
 33 34  1  0  0  0
 33 66  1  0  0  0
 33 70  2  0  0  0
 34 36  1  0  0  0
 34 59  1  0  0  0
 34103  1  0  0  0
 35 44  2  0  0  0
 35 45  1  0  0  0
 35 68  1  0  0  0
 36 56  1  0  0  0
 36104  1  0  0  0
 37 39  1  0  0  0
 37 47  1  0  0  0
 37 66  1  0  0  0
 37105  1  0  0  0
 38 43  2  0  0  0
 38 46  1  0  0  0
 38 47  1  0  0  0
 39 64  1  0  0  0
 39 67  2  0  0  0
 40 52  1  0  0  0
 40 53  2  0  0  0
 40 58  1  0  0  0
 41106  1  0  0  0
 41107  1  0  0  0
 41108  1  0  0  0
 41 48  1  0  0  0
 42 43  1  0  0  0
 42 66  1  0  0  0
 42109  1  0  0  0
 42110  1  0  0  0
 43 44  1  0  0  0
 44111  1  0  0  0
 45 46  2  0  0  0
 45112  1  0  0  0
 46113  1  0  0  0
 47114  1  0  0  0
 47115  1  0  0  0
 48 56  1  0  0  0
 48 65  1  0  0  0
 48116  1  0  0  0
 49 50  1  0  0  0
 49 53  1  0  0  0
 49 64  1  0  0  0
 49117  1  0  0  0
 50 51  1  0  0  0
 50118  1  0  0  0
 50119  1  0  0  0
 51 52  1  0  0  0
 51120  1  0  0  0
 51121  1  0  0  0
 52122  1  0  0  0
 52123  1  0  0  0
 53 54  1  0  0  0
 54 55  2  0  0  0
 54124  1  0  0  0
 55 57  1  0  0  0
 55125  1  0  0  0
 56 69  2  0  0  0
 57 58  2  0  0  0
 57126  1  0  0  0
 58127  1  0  0  0
 59 60  1  0  0  0
 59 61  1  0  0  0
 59 62  1  0  0  0
 60128  1  0  0  0
 60129  1  0  0  0
 60130  1  0  0  0
 61131  1  0  0  0
 61132  1  0  0  0
 61133  1  0  0  0
 62134  1  0  0  0
 62135  1  0  0  0
 62136  1  0  0  0
 63 65  1  0  0  0
 63137  1  0  0  0
 63138  1  0  0  0
 63139  1  0  0  0
 64140  1  0  0  0
 65141  1  0  0  0
 68 79  1  0  0  0
 71 72  2  0  0  0
 71 80  1  0  0  0
 71142  1  0  0  0
 72 73  1  0  0  0
 72 76  1  0  0  0
 73 75  1  0  0  0
 73 81  2  0  0  0
 74 79  1  0  0  0
 74 80  2  0  0  0
 74 81  1  0  0  0
 75 82  1  0  0  0
 75143  1  0  0  0
 75144  1  0  0  0
 76 77  1  0  0  0
 76 78  1  0  0  0
 76 82  1  0  0  0
 77145  1  0  0  0
 77146  1  0  0  0
 77147  1  0  0  0
 78148  1  0  0  0
 78149  1  0  0  0
 78150  1  0  0  0
 79151  1  0  0  0
 79152  1  0  0  0
M  ISO  4   1 100  68 101  79 101  82 100
M  END
> <chiral flag>
0

> <version>
0

> <s_m_source_file>
/data/baiqing/PycharmProjects/Reinvent-master-3.2/result/LINK_invent/BTK/process_docking_weight1_custom_sum_contain_oxygen_bond_distance_aromatic_linkinvent_7_9_3/rearranged_h_0181.sdf

> <i_m_source_file_index>
67

> <r_mmod_Potential_Energy-OPLS-2005>
1718.83020019531

> <r_mmod_Stretch_Energy-OPLS-2005>
782.689514160156

> <r_mmod_Bend_Energy-OPLS-2005>
612.360473632812

> <r_mmod_Torsional_Energy-OPLS-2005>
294.34912109375

> <r_mmod_Improper_Torsional_Energy-OPLS-2005>
15.8188924789429

> <r_mmod_Van_der_Waal_Energy-OPLS-2005>
124.208320617676

> <r_mmod_Electrostatic_Energy-OPLS-2005>
-605.854431152344

> <r_mmod_Solvation_Energy-OPLS-2005>
-234.370239257812

> <b_mmod_Minimization_Converged-OPLS-2005>
0

> <r_mmod_RMS_Derivative-OPLS-2005>
1.75293946266174

$$$$
67
                    3D
 Structure written by MMmdl.
148156  0  0  1  0            999 V2000
  -30.3984  -15.3682   20.3453 C   0  0  0  0  0  0
  -30.4335  -12.8733   19.5523 C   0  0  0  0  0  0
  -29.5468  -12.6151   18.3063 C   0  0  0  0  0  0
  -28.0956  -12.3203   18.7197 C   0  0  0  0  0  0
  -27.6085  -13.2898   19.8246 C   0  0  2  0  0  0
  -28.6324  -13.5002   20.9624 C   0  0  0  0  0  0
  -25.2352  -13.8263   20.5731 C   0  0  0  0  0  0
  -24.1723  -13.0436   20.9231 C   0  0  0  0  0  0
  -24.6399  -11.6937   20.8734 C   0  0  0  0  0  0
  -23.9105  -10.4290   21.0386 C   0  0  0  0  0  0
  -24.3647   -9.4208   21.9167 C   0  0  0  0  0  0
  -23.6307   -8.2253   22.0759 C   0  0  0  0  0  0
  -22.4293   -8.0283   21.3543 C   0  0  0  0  0  0
  -21.9927   -9.0259   20.4645 C   0  0  0  0  0  0
  -22.7268  -10.2133   20.3043 C   0  0  0  0  0  0
  -21.6860   -6.0732   22.5269 C   0  0  0  0  0  0
  -21.4024   -6.5633   23.8205 C   0  0  0  0  0  0
  -21.3669   -5.6785   24.9163 C   0  0  0  0  0  0
  -21.6059   -4.3051   24.7212 C   0  0  0  0  0  0
  -21.8821   -3.8143   23.4330 C   0  0  0  0  0  0
  -21.9189   -4.6957   22.3387 C   0  0  0  0  0  0
  -22.7739  -13.5177   21.1876 C   0  0  0  0  0  0
  -22.1659   -4.2144   21.0966 F   0  0  0  0  0  0
  -21.5635   -3.4536   25.7729 F   0  0  0  0  0  0
  -29.8593  -14.0343   20.3439 N   0  0  0  0  0  0
  -26.2797  -12.9563   20.3199 N   0  0  0  0  0  0
  -25.9343  -11.6652   20.5676 N   0  0  0  0  0  0
  -22.0416  -12.8167   22.0449 N   0  0  0  0  0  0
  -25.3975  -15.2009   20.4209 N   0  0  0  0  0  0
  -31.6137  -15.3446   20.0821 O   0  0  0  0  0  0
  -21.6654   -6.8882   21.4239 O   0  0  0  0  0  0
  -22.3406  -14.5468   20.6699 O   0  0  0  0  0  0
  -24.6671  -31.8172   23.1657 C   0  0  0  0  0  0
  -25.9327  -32.4568   23.8144 C   0  0  1  0  0  0
  -27.2227  -26.8677   20.1970 C   0  0  0  0  0  0
  -25.5971  -33.8389   24.2056 N   0  0  0  0  0  0
  -23.4876  -30.4242   21.5161 C   0  0  2  0  0  0
  -24.9428  -28.7999   20.1103 C   0  0  0  0  0  0
  -22.7699  -29.4398   22.4770 C   0  0  0  0  0  0
  -18.0327  -28.1407   22.8470 C   0  0  0  0  0  0
  -24.1495  -36.7199   23.2658 C   0  0  0  0  0  0
  -26.0569  -30.6033   21.4069 C   0  0  0  0  0  0
  -26.1235  -29.1864   20.7537 C   0  0  0  0  0  0
  -27.2514  -28.2407   20.7737 C   0  0  0  0  0  0
  -26.0153  -26.6489   19.4933 C   0  0  0  0  0  0
  -24.9177  -27.5538   19.4590 C   0  0  0  0  0  0
  -23.7309  -29.7337   20.1439 C   0  0  0  0  0  0
  -25.4148  -36.2974   24.0298 C   0  0  1  0  0  0
  -20.5951  -28.3758   23.1187 C   0  0  2  0  0  0
  -20.6806  -26.9432   22.5421 C   0  0  0  0  0  0
  -19.5781  -26.6368   21.5233 C   0  0  0  0  0  0
  -18.1957  -26.7944   22.1623 C   0  0  0  0  0  0
  -19.1588  -28.8905   23.2815 C   0  0  0  0  0  0
  -18.9489  -30.1493   23.8857 C   0  0  0  0  0  0
  -17.6480  -30.6604   24.0549 C   0  0  0  0  0  0
  -25.9102  -34.9346   23.5011 C   0  0  0  0  0  0
  -16.5373  -29.9084   23.6339 C   0  0  0  0  0  0
  -16.7308  -28.6496   23.0378 C   0  0  0  0  0  0
  -26.4555  -31.6534   25.0704 C   0  0  0  0  0  0
  -25.3651  -31.3797   26.1342 C   0  0  0  0  0  0
  -27.0458  -30.2897   24.6475 C   0  0  0  0  0  0
  -27.6054  -32.4341   25.7510 C   0  0  0  0  0  0
  -27.5566  -37.1784   24.8477 C   0  0  0  0  0  0
  -21.4360  -29.3029   22.3520 N   0  0  0  0  0  0
  -26.4308  -37.3690   23.9378 N   0  0  0  0  0  0
  -24.7587  -30.9771   22.0830 N   0  0  0  0  0  0
  -23.4214  -28.7994   23.3059 O   0  0  0  0  0  0
  -28.2204  -25.7447   20.3303 O   0  0  0  0  0  0
  -26.5723  -34.8876   22.4616 O   0  0  0  0  0  0
  -23.5724  -32.1170   23.6700 O   0  0  0  0  0  0
  -30.5679  -18.5797   19.0737 C   0  0  0  0  0  0
  -30.6796  -19.8953   18.5628 C   0  0  0  0  0  0
  -29.7213  -18.2604   20.1484 C   0  0  0  0  0  0
  -29.1924  -20.8897   20.0736 C   0  0  0  0  0  0
  -31.5928  -20.1684   17.3862 C   0  0  0  0  0  0
  -28.7121  -22.4995   20.6637 C   0  0  0  0  0  0
  -28.1925  -24.1081   19.9259 C   0  0  0  0  0  0
  -30.0305  -20.9840   19.0475 N   0  0  0  0  0  0
  -29.0566  -19.5230   20.6086 N   0  0  0  0  0  0
  -29.6327  -16.6579   20.5148 N   0  0  0  0  0  0
  -31.4555  -13.0736   19.2290 H   0  0  0  0  0  0
  -30.4999  -11.9753   20.1697 H   0  0  0  0  0  0
  -29.9463  -11.7922   17.7116 H   0  0  0  0  0  0
  -29.5678  -13.4977   17.6655 H   0  0  0  0  0  0
  -28.0551  -11.2923   19.0805 H   0  0  0  0  0  0
  -27.4360  -12.3693   17.8526 H   0  0  0  0  0  0
  -27.5114  -14.2499   19.3157 H   0  0  0  0  0  0
  -28.8162  -12.5748   21.5113 H   0  0  0  0  0  0
  -28.2477  -14.2195   21.6868 H   0  0  0  0  0  0
  -25.2798   -9.5681   22.4728 H   0  0  0  0  0  0
  -24.0013   -7.4651   22.7489 H   0  0  0  0  0  0
  -21.0857   -8.8778   19.8952 H   0  0  0  0  0  0
  -22.3726  -10.9666   19.6147 H   0  0  0  0  0  0
  -21.2028   -7.6144   23.9698 H   0  0  0  0  0  0
  -21.1496   -6.0520   25.9062 H   0  0  0  0  0  0
  -22.0593   -2.7602   23.2829 H   0  0  0  0  0  0
  -22.4057  -11.9853   22.4870 H   0  0  0  0  0  0
  -21.1023  -13.1180   22.2654 H   0  0  0  0  0  0
  -24.6260  -15.8491   20.5355 H   0  0  0  0  0  0
  -26.2358  -15.6460   20.0728 H   0  0  0  0  0  0
  -26.7415  -32.5082   23.0871 H   0  0  0  0  0  0
  -25.0040  -33.9455   25.0155 H   0  0  0  0  0  0
  -22.8034  -31.2575   21.3405 H   0  0  0  0  0  0
  -23.3753  -35.9535   23.3358 H   0  0  0  0  0  0
  -24.3548  -36.8802   22.2061 H   0  0  0  0  0  0
  -23.7263  -37.6407   23.6683 H   0  0  0  0  0  0
  -26.2436  -31.3386   20.6232 H   0  0  0  0  0  0
  -26.9152  -30.6642   22.0648 H   0  0  0  0  0  0
  -28.1380  -28.5311   21.3196 H   0  0  0  0  0  0
  -25.8774  -25.6990   18.9981 H   0  0  0  0  0  0
  -24.0217  -27.2541   18.9335 H   0  0  0  0  0  0
  -23.8857  -30.4990   19.3822 H   0  0  0  0  0  0
  -22.8397  -29.1874   19.8294 H   0  0  0  0  0  0
  -25.1361  -36.1792   25.0791 H   0  0  0  0  0  0
  -21.0030  -28.3377   24.1315 H   0  0  0  0  0  0
  -20.5685  -26.2379   23.3675 H   0  0  0  0  0  0
  -21.6671  -26.7406   22.1233 H   0  0  0  0  0  0
  -19.6940  -25.6261   21.1315 H   0  0  0  0  0  0
  -19.6734  -27.3140   20.6734 H   0  0  0  0  0  0
  -17.4240  -26.6701   21.4017 H   0  0  0  0  0  0
  -18.0329  -26.0099   22.9023 H   0  0  0  0  0  0
  -19.7957  -30.7322   24.2219 H   0  0  0  0  0  0
  -17.5025  -31.6280   24.5153 H   0  0  0  0  0  0
  -15.5373  -30.2971   23.7684 H   0  0  0  0  0  0
  -15.8710  -28.0793   22.7138 H   0  0  0  0  0  0
  -24.5855  -30.7143   25.7620 H   0  0  0  0  0  0
  -24.8813  -32.2996   26.4627 H   0  0  0  0  0  0
  -25.7838  -30.9037   27.0215 H   0  0  0  0  0  0
  -26.3130  -29.6571   24.1465 H   0  0  0  0  0  0
  -27.3952  -29.7282   25.5147 H   0  0  0  0  0  0
  -27.9084  -30.4082   23.9924 H   0  0  0  0  0  0
  -27.2646  -33.3695   26.1958 H   0  0  0  0  0  0
  -28.3928  -32.6812   25.0379 H   0  0  0  0  0  0
  -28.0653  -31.8550   26.5527 H   0  0  0  0  0  0
  -28.2643  -38.0022   24.7428 H   0  0  0  0  0  0
  -28.1010  -36.2545   24.6450 H   0  0  0  0  0  0
  -27.2262  -37.1600   25.8880 H   0  0  0  0  0  0
  -20.9636  -29.8674   21.6596 H   0  0  0  0  0  0
  -26.0169  -38.2775   24.1299 H   0  0  0  0  0  0
  -31.1350  -17.7920   18.5958 H   0  0  0  0  0  0
  -31.5520  -19.3500   16.6670 H   0  0  0  0  0  0
  -32.6222  -20.2775   17.7276 H   0  0  0  0  0  0
  -31.3091  -21.0829   16.8646 H   0  0  0  0  0  0
  -29.5811  -22.7692   21.2625 H   0  0  0  0  0  0
  -27.9520  -22.2815   21.4120 H   0  0  0  0  0  0
  -27.1857  -23.9256   19.5536 H   0  0  0  0  0  0
  -28.7910  -24.1348   19.0159 H   0  0  0  0  0  0
  -28.7345  -16.4461   20.9193 H   0  0  0  0  0  0
  1 25  1  0  0  0
  1 30  2  0  0  0
  1 80  1  0  0  0
  2  3  1  0  0  0
  2 25  1  0  0  0
  2 81  1  0  0  0
  2 82  1  0  0  0
  3  4  1  0  0  0
  3 83  1  0  0  0
  3 84  1  0  0  0
  4  5  1  0  0  0
  4 85  1  0  0  0
  4 86  1  0  0  0
  5  6  1  0  0  0
  5 26  1  0  0  0
  5 87  1  0  0  0
  6 25  1  0  0  0
  6 88  1  0  0  0
  6 89  1  0  0  0
  7  8  2  0  0  0
  7 26  1  0  0  0
  7 29  1  0  0  0
  8  9  1  0  0  0
  8 22  1  0  0  0
  9 10  1  0  0  0
  9 27  2  0  0  0
 10 11  2  0  0  0
 10 15  1  0  0  0
 11 12  1  0  0  0
 11 90  1  0  0  0
 12 13  2  0  0  0
 12 91  1  0  0  0
 13 14  1  0  0  0
 13 31  1  0  0  0
 14 15  2  0  0  0
 14 92  1  0  0  0
 15 93  1  0  0  0
 16 17  2  0  0  0
 16 21  1  0  0  0
 16 31  1  0  0  0
 17 18  1  0  0  0
 17 94  1  0  0  0
 18 19  2  0  0  0
 18 95  1  0  0  0
 19 20  1  0  0  0
 19 24  1  0  0  0
 20 21  2  0  0  0
 20 96  1  0  0  0
 21 23  1  0  0  0
 22 28  1  0  0  0
 22 32  2  0  0  0
 26 27  1  0  0  0
 28 97  1  0  0  0
 28 98  1  0  0  0
 29 99  1  0  0  0
 29100  1  0  0  0
 33 34  1  0  0  0
 33 66  1  0  0  0
 33 70  2  0  0  0
 34 36  1  0  0  0
 34 59  1  0  0  0
 34101  1  0  0  0
 35 44  2  0  0  0
 35 45  1  0  0  0
 35 68  1  0  0  0
 36 56  1  0  0  0
 36102  1  0  0  0
 37 39  1  0  0  0
 37 47  1  0  0  0
 37 66  1  0  0  0
 37103  1  0  0  0
 38 43  2  0  0  0
 38 46  1  0  0  0
 38 47  1  0  0  0
 39 64  1  0  0  0
 39 67  2  0  0  0
 40 52  1  0  0  0
 40 53  2  0  0  0
 40 58  1  0  0  0
 41104  1  0  0  0
 41105  1  0  0  0
 41106  1  0  0  0
 41 48  1  0  0  0
 42 43  1  0  0  0
 42 66  1  0  0  0
 42107  1  0  0  0
 42108  1  0  0  0
 43 44  1  0  0  0
 44109  1  0  0  0
 45 46  2  0  0  0
 45110  1  0  0  0
 46111  1  0  0  0
 47112  1  0  0  0
 47113  1  0  0  0
 48 56  1  0  0  0
 48 65  1  0  0  0
 48114  1  0  0  0
 49 50  1  0  0  0
 49 53  1  0  0  0
 49 64  1  0  0  0
 49115  1  0  0  0
 50 51  1  0  0  0
 50116  1  0  0  0
 50117  1  0  0  0
 51 52  1  0  0  0
 51118  1  0  0  0
 51119  1  0  0  0
 52120  1  0  0  0
 52121  1  0  0  0
 53 54  1  0  0  0
 54 55  2  0  0  0
 54122  1  0  0  0
 55 57  1  0  0  0
 55123  1  0  0  0
 56 69  2  0  0  0
 57 58  2  0  0  0
 57124  1  0  0  0
 58125  1  0  0  0
 59 60  1  0  0  0
 59 61  1  0  0  0
 59 62  1  0  0  0
 60126  1  0  0  0
 60127  1  0  0  0
 60128  1  0  0  0
 61129  1  0  0  0
 61130  1  0  0  0
 61131  1  0  0  0
 62132  1  0  0  0
 62133  1  0  0  0
 62134  1  0  0  0
 63 65  1  0  0  0
 63135  1  0  0  0
 63136  1  0  0  0
 63137  1  0  0  0
 64138  1  0  0  0
 65139  1  0  0  0
 68 77  1  0  0  0
 71 72  2  0  0  0
 71 73  1  0  0  0
 71140  1  0  0  0
 72 75  1  0  0  0
 72 78  1  0  0  0
 73 79  2  0  0  0
 73 80  1  0  0  0
 74 76  1  0  0  0
 74 78  2  0  0  0
 74 79  1  0  0  0
 75141  1  0  0  0
 75142  1  0  0  0
 75143  1  0  0  0
 76 77  1  0  0  0
 76144  1  0  0  0
 76145  1  0  0  0
 77146  1  0  0  0
 77147  1  0  0  0
 80148  1  0  0  0
M  ISO  4   1 100  68 101  77 101  80 100
M  END
> <chiral flag>
0

> <version>
0

> <s_m_source_file>
/data/baiqing/PycharmProjects/Reinvent-master-3.2/result/LINK_invent/BTK/process_docking_weight1_custom_sum_contain_oxygen_bond_distance_aromatic_linkinvent_7_9_3/rearranged_h_0181.sdf

> <i_m_source_file_index>
68

> <r_mmod_Potential_Energy-OPLS-2005>
1120.30651855469

> <r_mmod_Stretch_Energy-OPLS-2005>
694.433776855469

> <r_mmod_Bend_Energy-OPLS-2005>
486.462097167969

> <r_mmod_Torsional_Energy-OPLS-2005>
222.378494262695

> <r_mmod_Improper_Torsional_Energy-OPLS-2005>
4.54206848144531

> <r_mmod_Van_der_Waal_Energy-OPLS-2005>
130.072219848633

> <r_mmod_Electrostatic_Energy-OPLS-2005>
-731.711547851562

> <r_mmod_Solvation_Energy-OPLS-2005>
-247.007949829102

> <b_mmod_Minimization_Converged-OPLS-2005>
0

> <r_mmod_RMS_Derivative-OPLS-2005>
1.86314535140991

$$$$
68
                    3D
 Structure written by MMmdl.
149158  0  0  1  0            999 V2000
  -30.3895  -15.4177   20.3847 C   0  0  0  0  0  0
  -30.4362  -12.9330   19.5110 C   0  0  0  0  0  0
  -29.5382  -12.6017   18.2907 C   0  0  0  0  0  0
  -28.0976  -12.2947   18.7335 C   0  0  0  0  0  0
  -27.6038  -13.2876   19.8128 C   0  0  2  0  0  0
  -28.6366  -13.5318   20.9329 C   0  0  0  0  0  0
  -25.2381  -13.8265   20.5786 C   0  0  0  0  0  0
  -24.1745  -13.0441   20.9283 C   0  0  0  0  0  0
  -24.6417  -11.6944   20.8777 C   0  0  0  0  0  0
  -23.9115  -10.4296   21.0413 C   0  0  0  0  0  0
  -24.3653   -9.4206   21.9188 C   0  0  0  0  0  0
  -23.6314   -8.2246   22.0754 C   0  0  0  0  0  0
  -22.4296   -8.0293   21.3546 C   0  0  0  0  0  0
  -21.9943   -9.0272   20.4646 C   0  0  0  0  0  0
  -22.7287  -10.2142   20.3057 C   0  0  0  0  0  0
  -21.6856   -6.0748   22.5281 C   0  0  0  0  0  0
  -21.4014   -6.5647   23.8216 C   0  0  0  0  0  0
  -21.3657   -5.6798   24.9176 C   0  0  0  0  0  0
  -21.6043   -4.3059   24.7223 C   0  0  0  0  0  0
  -21.8819   -3.8156   23.4345 C   0  0  0  0  0  0
  -21.9194   -4.6975   22.3401 C   0  0  0  0  0  0
  -22.7759  -13.5184   21.1922 C   0  0  0  0  0  0
  -22.1666   -4.2162   21.0980 F   0  0  0  0  0  0
  -21.5627   -3.4541   25.7734 F   0  0  0  0  0  0
  -29.8308  -14.0961   20.2752 N   0  0  0  0  0  0
  -26.2808  -12.9558   20.3224 N   0  0  0  0  0  0
  -25.9356  -11.6653   20.5720 N   0  0  0  0  0  0
  -22.0417  -12.8158   22.0469 N   0  0  0  0  0  0
  -25.4024  -15.2001   20.4231 N   0  0  0  0  0  0
  -31.6246  -15.3745   20.2480 O   0  0  0  0  0  0
  -21.6648   -6.8897   21.4246 O   0  0  0  0  0  0
  -22.3439  -14.5485   20.6763 O   0  0  0  0  0  0
  -24.6712  -31.8153   23.1638 C   0  0  0  0  0  0
  -25.9360  -32.4546   23.8125 C   0  0  1  0  0  0
  -27.2152  -26.8254   20.2144 C   0  0  0  0  0  0
  -25.5997  -33.8363   24.2026 N   0  0  0  0  0  0
  -23.4907  -30.4242   21.5146 C   0  0  2  0  0  0
  -24.9452  -28.7880   20.1241 C   0  0  0  0  0  0
  -22.7701  -29.4404   22.4747 C   0  0  0  0  0  0
  -18.0326  -28.1421   22.8466 C   0  0  0  0  0  0
  -24.1484  -36.7186   23.2646 C   0  0  0  0  0  0
  -26.0652  -30.5884   21.4108 C   0  0  0  0  0  0
  -26.1307  -29.1629   20.7692 C   0  0  0  0  0  0
  -27.2580  -28.2063   20.7875 C   0  0  0  0  0  0
  -26.0007  -26.6330   19.5131 C   0  0  0  0  0  0
  -24.9102  -27.5437   19.4759 C   0  0  0  0  0  0
  -23.7391  -29.7324   20.1452 C   0  0  0  0  0  0
  -25.4127  -36.2936   24.0288 C   0  0  1  0  0  0
  -20.5956  -28.3773   23.1170 C   0  0  2  0  0  0
  -20.6796  -26.9444   22.5403 C   0  0  0  0  0  0
  -19.5769  -26.6379   21.5218 C   0  0  0  0  0  0
  -18.1952  -26.7954   22.1623 C   0  0  0  0  0  0
  -19.1591  -28.8919   23.2806 C   0  0  0  0  0  0
  -18.9501  -30.1505   23.8846 C   0  0  0  0  0  0
  -17.6492  -30.6609   24.0558 C   0  0  0  0  0  0
  -25.9104  -34.9327   23.4980 C   0  0  0  0  0  0
  -16.5383  -29.9098   23.6346 C   0  0  0  0  0  0
  -16.7308  -28.6516   23.0366 C   0  0  0  0  0  0
  -26.4577  -31.6522   25.0692 C   0  0  0  0  0  0
  -25.3675  -31.3814   26.1329 C   0  0  0  0  0  0
  -27.0484  -30.2874   24.6495 C   0  0  0  0  0  0
  -27.6043  -32.4352   25.7515 C   0  0  0  0  0  0
  -27.5553  -37.1751   24.8466 C   0  0  0  0  0  0
  -21.4360  -29.3053   22.3507 N   0  0  0  0  0  0
  -26.4259  -37.3688   23.9415 N   0  0  0  0  0  0
  -24.7647  -30.9724   22.0828 N   0  0  0  0  0  0
  -23.4208  -28.7971   23.3018 O   0  0  0  0  0  0
  -28.2168  -25.6822   20.1635 O   0  0  0  0  0  0
  -26.5717  -34.8884   22.4577 O   0  0  0  0  0  0
  -23.5763  -32.1171   23.6672 O   0  0  0  0  0  0
  -27.1177  -22.7974   22.1267 C   0  0  0  0  0  0
  -27.7465  -21.5972   21.6969 C   0  0  0  0  0  0
  -28.6088  -21.5862   20.5795 C   0  0  0  0  0  0
  -28.0529  -24.2098   20.5407 C   0  0  0  0  0  0
  -28.6188  -17.2902   21.1099 C   0  0  0  0  0  0
  -29.6589  -18.3570   20.7112 C   0  0  2  0  0  0
  -27.4381  -20.3106   22.4443 C   0  0  0  0  0  0
  -29.1568  -19.9732   19.9869 C   0  0  0  0  0  0
  -27.2494  -24.0294   21.5772 N   0  0  0  0  0  0
  -28.7272  -22.9882   20.0488 N   0  0  0  0  0  0
  -29.6431  -16.7414   20.2827 N   0  0  0  0  0  0
  -31.4382  -13.1754   19.1545 H   0  0  0  0  0  0
  -30.5599  -12.0612   20.1552 H   0  0  0  0  0  0
  -29.9493  -11.7590   17.7334 H   0  0  0  0  0  0
  -29.5345  -13.4510   17.6054 H   0  0  0  0  0  0
  -28.0871  -11.2827   19.1403 H   0  0  0  0  0  0
  -27.4239  -12.2891   17.8757 H   0  0  0  0  0  0
  -27.4939  -14.2351   19.2829 H   0  0  0  0  0  0
  -28.8561  -12.6196   21.4895 H   0  0  0  0  0  0
  -28.2474  -14.2524   21.6540 H   0  0  0  0  0  0
  -25.2793   -9.5675   22.4773 H   0  0  0  0  0  0
  -24.0018   -7.4633   22.7470 H   0  0  0  0  0  0
  -21.0876   -8.8808   19.8946 H   0  0  0  0  0  0
  -22.3759  -10.9691   19.6171 H   0  0  0  0  0  0
  -21.2007   -7.6155   23.9725 H   0  0  0  0  0  0
  -21.1475   -6.0524   25.9079 H   0  0  0  0  0  0
  -22.0599   -2.7619   23.2840 H   0  0  0  0  0  0
  -22.4052  -11.9824   22.4851 H   0  0  0  0  0  0
  -21.1026  -13.1157   22.2670 H   0  0  0  0  0  0
  -24.6332  -15.8512   20.5352 H   0  0  0  0  0  0
  -26.2489  -15.6373   20.0835 H   0  0  0  0  0  0
  -26.7434  -32.5063   23.0837 H   0  0  0  0  0  0
  -25.0114  -33.9426   25.0159 H   0  0  0  0  0  0
  -22.8088  -31.2582   21.3352 H   0  0  0  0  0  0
  -23.3756  -35.9506   23.3272 H   0  0  0  0  0  0
  -24.3556  -36.8872   22.2067 H   0  0  0  0  0  0
  -23.7232  -37.6357   23.6733 H   0  0  0  0  0  0
  -26.2488  -31.3157   20.6189 H   0  0  0  0  0  0
  -26.9248  -30.6592   22.0651 H   0  0  0  0  0  0
  -28.1605  -28.5044   21.3025 H   0  0  0  0  0  0
  -25.8651  -25.6908   19.0017 H   0  0  0  0  0  0
  -24.0150  -27.2505   18.9450 H   0  0  0  0  0  0
  -23.9112  -30.4978   19.3872 H   0  0  0  0  0  0
  -22.8453  -29.1978   19.8189 H   0  0  0  0  0  0
  -25.1328  -36.1707   25.0777 H   0  0  0  0  0  0
  -21.0050  -28.3387   24.1291 H   0  0  0  0  0  0
  -20.5668  -26.2395   23.3655 H   0  0  0  0  0  0
  -21.6659  -26.7402   22.1216 H   0  0  0  0  0  0
  -19.6921  -25.6273   21.1288 H   0  0  0  0  0  0
  -19.6709  -27.3156   20.6723 H   0  0  0  0  0  0
  -17.4220  -26.6705   21.4028 H   0  0  0  0  0  0
  -18.0339  -26.0112   22.9034 H   0  0  0  0  0  0
  -19.7978  -30.7339   24.2189 H   0  0  0  0  0  0
  -17.5046  -31.6283   24.5174 H   0  0  0  0  0  0
  -15.5383  -30.2987   23.7701 H   0  0  0  0  0  0
  -15.8706  -28.0823   22.7107 H   0  0  0  0  0  0
  -24.5887  -30.7124   25.7649 H   0  0  0  0  0  0
  -24.8832  -32.3031   26.4569 H   0  0  0  0  0  0
  -25.7887  -30.9115   27.0226 H   0  0  0  0  0  0
  -26.3174  -29.6532   24.1471 H   0  0  0  0  0  0
  -27.3943  -29.7267   25.5188 H   0  0  0  0  0  0
  -27.9142  -30.4026   23.9972 H   0  0  0  0  0  0
  -27.2590  -33.3715   26.1915 H   0  0  0  0  0  0
  -28.3961  -32.6810   25.0426 H   0  0  0  0  0  0
  -28.0588  -31.8592   26.5589 H   0  0  0  0  0  0
  -28.2551  -38.0065   24.7507 H   0  0  0  0  0  0
  -28.1063  -36.2587   24.6294 H   0  0  0  0  0  0
  -27.2270  -37.1395   25.8870 H   0  0  0  0  0  0
  -20.9621  -29.8751   21.6638 H   0  0  0  0  0  0
  -26.0088  -38.2733   24.1447 H   0  0  0  0  0  0
  -26.4495  -22.7644   22.9749 H   0  0  0  0  0  0
  -27.6325  -17.3590   20.6567 H   0  0  0  0  0  0
  -28.6054  -16.9753   22.1518 H   0  0  0  0  0  0
  -30.4417  -18.5503   21.4417 H   0  0  0  0  0  0
  -26.7917  -20.4884   23.3051 H   0  0  0  0  0  0
  -28.3551  -19.8513   22.8148 H   0  0  0  0  0  0
  -26.9289  -19.5998   21.7928 H   0  0  0  0  0  0
  -30.0004  -20.2432   19.3526 H   0  0  0  0  0  0
  -28.3775  -19.7101   19.2725 H   0  0  0  0  0  0
  1 25  1  0  0  0
  1 30  2  0  0  0
  1 81  1  0  0  0
  2  3  1  0  0  0
  2 25  1  0  0  0
  2 82  1  0  0  0
  2 83  1  0  0  0
  3  4  1  0  0  0
  3 84  1  0  0  0
  3 85  1  0  0  0
  4  5  1  0  0  0
  4 86  1  0  0  0
  4 87  1  0  0  0
  5  6  1  0  0  0
  5 26  1  0  0  0
  5 88  1  0  0  0
  6 25  1  0  0  0
  6 89  1  0  0  0
  6 90  1  0  0  0
  7  8  2  0  0  0
  7 26  1  0  0  0
  7 29  1  0  0  0
  8  9  1  0  0  0
  8 22  1  0  0  0
  9 10  1  0  0  0
  9 27  2  0  0  0
 10 11  2  0  0  0
 10 15  1  0  0  0
 11 12  1  0  0  0
 11 91  1  0  0  0
 12 13  2  0  0  0
 12 92  1  0  0  0
 13 14  1  0  0  0
 13 31  1  0  0  0
 14 15  2  0  0  0
 14 93  1  0  0  0
 15 94  1  0  0  0
 16 17  2  0  0  0
 16 21  1  0  0  0
 16 31  1  0  0  0
 17 18  1  0  0  0
 17 95  1  0  0  0
 18 19  2  0  0  0
 18 96  1  0  0  0
 19 20  1  0  0  0
 19 24  1  0  0  0
 20 21  2  0  0  0
 20 97  1  0  0  0
 21 23  1  0  0  0
 22 28  1  0  0  0
 22 32  2  0  0  0
 26 27  1  0  0  0
 28 98  1  0  0  0
 28 99  1  0  0  0
 29100  1  0  0  0
 29101  1  0  0  0
 33 34  1  0  0  0
 33 66  1  0  0  0
 33 70  2  0  0  0
 34 36  1  0  0  0
 34 59  1  0  0  0
 34102  1  0  0  0
 35 44  2  0  0  0
 35 45  1  0  0  0
 35 68  1  0  0  0
 36 56  1  0  0  0
 36103  1  0  0  0
 37 39  1  0  0  0
 37 47  1  0  0  0
 37 66  1  0  0  0
 37104  1  0  0  0
 38 43  2  0  0  0
 38 46  1  0  0  0
 38 47  1  0  0  0
 39 64  1  0  0  0
 39 67  2  0  0  0
 40 52  1  0  0  0
 40 53  2  0  0  0
 40 58  1  0  0  0
 41105  1  0  0  0
 41106  1  0  0  0
 41107  1  0  0  0
 41 48  1  0  0  0
 42 43  1  0  0  0
 42 66  1  0  0  0
 42108  1  0  0  0
 42109  1  0  0  0
 43 44  1  0  0  0
 44110  1  0  0  0
 45 46  2  0  0  0
 45111  1  0  0  0
 46112  1  0  0  0
 47113  1  0  0  0
 47114  1  0  0  0
 48 56  1  0  0  0
 48 65  1  0  0  0
 48115  1  0  0  0
 49 50  1  0  0  0
 49 53  1  0  0  0
 49 64  1  0  0  0
 49116  1  0  0  0
 50 51  1  0  0  0
 50117  1  0  0  0
 50118  1  0  0  0
 51 52  1  0  0  0
 51119  1  0  0  0
 51120  1  0  0  0
 52121  1  0  0  0
 52122  1  0  0  0
 53 54  1  0  0  0
 54 55  2  0  0  0
 54123  1  0  0  0
 55 57  1  0  0  0
 55124  1  0  0  0
 56 69  2  0  0  0
 57 58  2  0  0  0
 57125  1  0  0  0
 58126  1  0  0  0
 59 60  1  0  0  0
 59 61  1  0  0  0
 59 62  1  0  0  0
 60127  1  0  0  0
 60128  1  0  0  0
 60129  1  0  0  0
 61130  1  0  0  0
 61131  1  0  0  0
 61132  1  0  0  0
 62133  1  0  0  0
 62134  1  0  0  0
 62135  1  0  0  0
 63 65  1  0  0  0
 63136  1  0  0  0
 63137  1  0  0  0
 63138  1  0  0  0
 64139  1  0  0  0
 65140  1  0  0  0
 68 74  1  0  0  0
 71 72  2  0  0  0
 71 79  1  0  0  0
 71141  1  0  0  0
 72 73  1  0  0  0
 72 77  1  0  0  0
 73 78  1  0  0  0
 73 80  2  0  0  0
 74 79  2  0  0  0
 74 80  1  0  0  0
 75 76  1  0  0  0
 75 81  1  0  0  0
 75142  1  0  0  0
 75143  1  0  0  0
 76 78  1  0  0  0
 76 81  1  0  0  0
 76144  1  0  0  0
 77145  1  0  0  0
 77146  1  0  0  0
 77147  1  0  0  0
 78148  1  0  0  0
 78149  1  0  0  0
M  ISO  4   1 100  68 101  74 101  81 100
M  END
> <chiral flag>
0

> <version>
0

> <s_m_source_file>
/data/baiqing/PycharmProjects/Reinvent-master-3.2/result/LINK_invent/BTK/process_docking_weight1_custom_sum_contain_oxygen_bond_distance_aromatic_linkinvent_7_9_3/rearranged_h_0181.sdf

> <i_m_source_file_index>
69

> <r_mmod_Potential_Energy-OPLS-2005>
1432.19812011719

> <r_mmod_Stretch_Energy-OPLS-2005>
727.631774902344

> <r_mmod_Bend_Energy-OPLS-2005>
522.398681640625

> <r_mmod_Torsional_Energy-OPLS-2005>
324.239868164062

> <r_mmod_Improper_Torsional_Energy-OPLS-2005>
19.7051086425781

> <r_mmod_Van_der_Waal_Energy-OPLS-2005>
123.818214416504

> <r_mmod_Electrostatic_Energy-OPLS-2005>
-659.901123046875

> <r_mmod_Solvation_Energy-OPLS-2005>
-247.997131347656

> <b_mmod_Minimization_Converged-OPLS-2005>
0

> <r_mmod_RMS_Derivative-OPLS-2005>
0.709978520870209

$$$$
69
                    3D
 Structure written by MMmdl.
157166  0  0  1  0            999 V2000
  -30.6985  -14.7572   20.4700 C   0  0  0  0  0  0
  -30.4078  -12.4776   19.4888 C   0  0  0  0  0  0
  -29.4975  -12.5091   18.2445 C   0  0  0  0  0  0
  -28.0285  -12.3339   18.6629 C   0  0  0  0  0  0
  -27.6326  -13.2490   19.8520 C   0  0  2  0  0  0
  -28.6812  -13.2489   20.9881 C   0  0  0  0  0  0
  -25.2446  -13.8246   20.5745 C   0  0  0  0  0  0
  -24.1758  -13.0459   20.9225 C   0  0  0  0  0  0
  -24.6389  -11.6945   20.8769 C   0  0  0  0  0  0
  -23.9078  -10.4307   21.0407 C   0  0  0  0  0  0
  -24.3624   -9.4222   21.9188 C   0  0  0  0  0  0
  -23.6303   -8.2254   22.0765 C   0  0  0  0  0  0
  -22.4278   -8.0290   21.3557 C   0  0  0  0  0  0
  -21.9930   -9.0257   20.4645 C   0  0  0  0  0  0
  -22.7256  -10.2137   20.3059 C   0  0  0  0  0  0
  -21.6854   -6.0731   22.5272 C   0  0  0  0  0  0
  -21.4005   -6.5634   23.8203 C   0  0  0  0  0  0
  -21.3667   -5.6797   24.9171 C   0  0  0  0  0  0
  -21.6054   -4.3056   24.7216 C   0  0  0  0  0  0
  -21.8816   -3.8144   23.4346 C   0  0  0  0  0  0
  -21.9185   -4.6962   22.3402 C   0  0  0  0  0  0
  -22.7777  -13.5214   21.1875 C   0  0  0  0  0  0
  -22.1657   -4.2147   21.0976 F   0  0  0  0  0  0
  -21.5641   -3.4546   25.7744 F   0  0  0  0  0  0
  -29.9783  -13.5804   20.3895 N   0  0  0  0  0  0
  -26.2899  -12.9499   20.3355 N   0  0  0  0  0  0
  -25.9329  -11.6622   20.5826 N   0  0  0  0  0  0
  -22.0426  -12.8169   22.0400 N   0  0  0  0  0  0
  -25.4106  -15.1980   20.4173 N   0  0  0  0  0  0
  -31.8862  -14.7358   20.1443 O   0  0  0  0  0  0
  -21.6650   -6.8875   21.4245 O   0  0  0  0  0  0
  -22.3457  -14.5513   20.6725 O   0  0  0  0  0  0
  -24.6376  -31.8536   23.2036 C   0  0  0  0  0  0
  -25.9180  -32.4751   23.8374 C   0  0  1  0  0  0
  -27.1968  -27.2233   20.1315 C   0  0  0  0  0  0
  -25.5941  -33.8553   24.2275 N   0  0  0  0  0  0
  -23.4351  -30.4841   21.5462 C   0  0  2  0  0  0
  -24.8792  -28.9461   20.0987 C   0  0  0  0  0  0
  -22.7549  -29.4602   22.4880 C   0  0  0  0  0  0
  -18.0303  -28.1398   22.8491 C   0  0  0  0  0  0
  -24.1474  -36.7285   23.2641 C   0  0  0  0  0  0
  -25.9867  -30.7539   21.3935 C   0  0  0  0  0  0
  -26.0537  -29.3784   20.7288 C   0  0  0  0  0  0
  -27.2144  -28.5299   20.7398 C   0  0  0  0  0  0
  -26.0031  -26.8967   19.4377 C   0  0  0  0  0  0
  -24.8635  -27.7152   19.4371 C   0  0  0  0  0  0
  -23.6541  -29.8393   20.1545 C   0  0  0  0  0  0
  -25.4110  -36.3058   24.0324 C   0  0  1  0  0  0
  -20.5919  -28.3725   23.1240 C   0  0  2  0  0  0
  -20.6784  -26.9431   22.5397 C   0  0  0  0  0  0
  -19.5743  -26.6390   21.5211 C   0  0  0  0  0  0
  -18.1928  -26.7944   22.1633 C   0  0  0  0  0  0
  -19.1561  -28.8874   23.2857 C   0  0  0  0  0  0
  -18.9489  -30.1478   23.8879 C   0  0  0  0  0  0
  -17.6485  -30.6601   24.0578 C   0  0  0  0  0  0
  -25.9065  -34.9429   23.5106 C   0  0  0  0  0  0
  -16.5377  -29.9111   23.6332 C   0  0  0  0  0  0
  -16.7294  -28.6527   23.0356 C   0  0  0  0  0  0
  -26.4537  -31.6609   25.0783 C   0  0  0  0  0  0
  -25.3740  -31.3701   26.1482 C   0  0  0  0  0  0
  -27.0452  -30.3035   24.6315 C   0  0  0  0  0  0
  -27.6043  -32.4400   25.7576 C   0  0  0  0  0  0
  -27.5580  -37.1794   24.8476 C   0  0  0  0  0  0
  -21.4243  -29.3068   22.3632 N   0  0  0  0  0  0
  -26.4287  -37.3766   23.9416 N   0  0  0  0  0  0
  -24.7059  -31.0483   22.1027 N   0  0  0  0  0  0
  -23.4231  -28.8104   23.2966 O   0  0  0  0  0  0
  -28.2305  -26.2425   20.2428 O   0  0  0  0  0  0
  -26.5644  -34.8908   22.4683 O   0  0  0  0  0  0
  -23.5511  -32.1385   23.7282 O   0  0  0  0  0  0
  -28.8344  -23.0558   21.6157 C   0  0  0  0  0  0
  -29.1294  -21.6973   21.9644 C   0  0  0  0  0  0
  -28.5649  -23.4303   20.2733 C   0  0  0  0  0  0
  -28.6649  -22.3167   19.3574 C   0  0  0  0  0  0
  -29.1734  -20.6584   20.9964 C   0  0  0  0  0  0
  -30.9027  -17.2910   20.9324 C   0  0  0  0  0  0
  -28.8795  -16.7475   20.7263 C   0  0  0  0  0  0
  -29.6475  -18.1120   20.5149 C   0  0  0  0  0  0
  -28.6993  -21.3407   16.9486 C   0  0  0  0  0  0
  -27.8577  -24.8221   19.8666 C   0  0  0  0  0  0
  -28.3218  -22.5077   17.8806 C   0  0  0  0  0  0
  -28.9555  -21.0067   19.7051 N   0  0  0  0  0  0
  -30.1637  -16.0005   20.8193 N   0  0  0  0  0  0
  -29.3688  -19.2938   21.3863 O   0  0  0  0  0  0
  -31.4510  -12.5633   19.1792 H   0  0  0  0  0  0
  -30.3326  -11.5176   20.0023 H   0  0  0  0  0  0
  -29.7828  -11.7221   17.5452 H   0  0  0  0  0  0
  -29.6234  -13.4546   17.7154 H   0  0  0  0  0  0
  -27.8863  -11.2880   18.9370 H   0  0  0  0  0  0
  -27.3700  -12.5190   17.8139 H   0  0  0  0  0  0
  -27.6089  -14.2582   19.4452 H   0  0  0  0  0  0
  -28.7243  -12.2812   21.4884 H   0  0  0  0  0  0
  -28.4163  -13.9826   21.7519 H   0  0  0  0  0  0
  -25.2759   -9.5699   22.4779 H   0  0  0  0  0  0
  -24.0009   -7.4647   22.7488 H   0  0  0  0  0  0
  -21.0871   -8.8766   19.8934 H   0  0  0  0  0  0
  -22.3713  -10.9679   19.6172 H   0  0  0  0  0  0
  -21.1992   -7.6136   23.9707 H   0  0  0  0  0  0
  -21.1498   -6.0523   25.9077 H   0  0  0  0  0  0
  -22.0584   -2.7610   23.2848 H   0  0  0  0  0  0
  -22.4087  -11.9852   22.4786 H   0  0  0  0  0  0
  -21.1036  -13.1157   22.2616 H   0  0  0  0  0  0
  -24.6416  -15.8484   20.5365 H   0  0  0  0  0  0
  -26.2562  -15.6407   20.0831 H   0  0  0  0  0  0
  -26.7262  -32.5370   23.1126 H   0  0  0  0  0  0
  -25.0048  -33.9686   25.0386 H   0  0  0  0  0  0
  -22.7352  -31.3102   21.4094 H   0  0  0  0  0  0
  -23.3733  -35.9626   23.3288 H   0  0  0  0  0  0
  -24.3539  -36.8943   22.2062 H   0  0  0  0  0  0
  -23.7254  -37.6482   23.6700 H   0  0  0  0  0  0
  -26.1373  -31.5151   20.6267 H   0  0  0  0  0  0
  -26.8593  -30.7951   22.0341 H   0  0  0  0  0  0
  -28.1006  -28.8472   21.2713 H   0  0  0  0  0  0
  -25.8817  -25.9718   18.8964 H   0  0  0  0  0  0
  -23.9745  -27.3903   18.9139 H   0  0  0  0  0  0
  -23.7853  -30.6301   19.4142 H   0  0  0  0  0  0
  -22.7696  -29.2854   19.8388 H   0  0  0  0  0  0
  -25.1282  -36.1897   25.0818 H   0  0  0  0  0  0
  -21.0018  -28.3311   24.1358 H   0  0  0  0  0  0
  -20.5697  -26.2338   23.3616 H   0  0  0  0  0  0
  -21.6644  -26.7437   22.1173 H   0  0  0  0  0  0
  -19.6900  -25.6298   21.1248 H   0  0  0  0  0  0
  -19.6668  -27.3196   20.6742 H   0  0  0  0  0  0
  -17.4195  -26.6723   21.4030 H   0  0  0  0  0  0
  -18.0295  -26.0082   22.9016 H   0  0  0  0  0  0
  -19.7973  -30.7300   24.2239 H   0  0  0  0  0  0
  -17.5044  -31.6275   24.5200 H   0  0  0  0  0  0
  -15.5380  -30.3009   23.7657 H   0  0  0  0  0  0
  -15.8695  -28.0852   22.7054 H   0  0  0  0  0  0
  -24.5920  -30.7082   25.7762 H   0  0  0  0  0  0
  -24.8931  -32.2843   26.4967 H   0  0  0  0  0  0
  -25.8028  -30.8813   27.0243 H   0  0  0  0  0  0
  -26.3102  -29.6722   24.1323 H   0  0  0  0  0  0
  -27.4137  -29.7350   25.4872 H   0  0  0  0  0  0
  -27.8954  -30.4341   23.9614 H   0  0  0  0  0  0
  -27.2626  -33.3720   26.2099 H   0  0  0  0  0  0
  -28.3877  -32.6961   25.0425 H   0  0  0  0  0  0
  -28.0710  -31.8593   26.5547 H   0  0  0  0  0  0
  -28.2563  -38.0113   24.7512 H   0  0  0  0  0  0
  -28.1096  -36.2635   24.6302 H   0  0  0  0  0  0
  -27.2271  -37.1458   25.8867 H   0  0  0  0  0  0
  -20.9439  -29.8875   21.6895 H   0  0  0  0  0  0
  -26.0145  -38.2837   24.1404 H   0  0  0  0  0  0
  -28.7404  -23.7934   22.4012 H   0  0  0  0  0  0
  -29.2855  -21.4497   23.0068 H   0  0  0  0  0  0
  -31.2427  -17.5009   21.9469 H   0  0  0  0  0  0
  -31.7278  -17.4028   20.2283 H   0  0  0  0  0  0
  -28.2732  -16.4776   19.8618 H   0  0  0  0  0  0
  -28.2928  -16.7143   21.6460 H   0  0  0  0  0  0
  -29.6909  -18.3825   19.4588 H   0  0  0  0  0  0
  -28.4788  -21.5960   15.9119 H   0  0  0  0  0  0
  -28.1334  -20.4393   17.1872 H   0  0  0  0  0  0
  -29.7612  -21.1015   17.0186 H   0  0  0  0  0  0
  -26.8578  -24.6440   20.2608 H   0  0  0  0  0  0
  -27.7587  -24.8453   18.7847 H   0  0  0  0  0  0
  -28.8405  -23.3960   17.5207 H   0  0  0  0  0  0
  -27.2534  -22.7068   17.7976 H   0  0  0  0  0  0
  1 25  1  0  0  0
  1 30  2  0  0  0
  1 83  1  0  0  0
  2  3  1  0  0  0
  2 25  1  0  0  0
  2 85  1  0  0  0
  2 86  1  0  0  0
  3  4  1  0  0  0
  3 87  1  0  0  0
  3 88  1  0  0  0
  4  5  1  0  0  0
  4 89  1  0  0  0
  4 90  1  0  0  0
  5  6  1  0  0  0
  5 26  1  0  0  0
  5 91  1  0  0  0
  6 25  1  0  0  0
  6 92  1  0  0  0
  6 93  1  0  0  0
  7  8  2  0  0  0
  7 26  1  0  0  0
  7 29  1  0  0  0
  8  9  1  0  0  0
  8 22  1  0  0  0
  9 10  1  0  0  0
  9 27  2  0  0  0
 10 11  2  0  0  0
 10 15  1  0  0  0
 11 12  1  0  0  0
 11 94  1  0  0  0
 12 13  2  0  0  0
 12 95  1  0  0  0
 13 14  1  0  0  0
 13 31  1  0  0  0
 14 15  2  0  0  0
 14 96  1  0  0  0
 15 97  1  0  0  0
 16 17  2  0  0  0
 16 21  1  0  0  0
 16 31  1  0  0  0
 17 18  1  0  0  0
 17 98  1  0  0  0
 18 19  2  0  0  0
 18 99  1  0  0  0
 19 20  1  0  0  0
 19 24  1  0  0  0
 20 21  2  0  0  0
 20100  1  0  0  0
 21 23  1  0  0  0
 22 28  1  0  0  0
 22 32  2  0  0  0
 26 27  1  0  0  0
 28101  1  0  0  0
 28102  1  0  0  0
 29103  1  0  0  0
 29104  1  0  0  0
 33 34  1  0  0  0
 33 66  1  0  0  0
 33 70  2  0  0  0
 34 36  1  0  0  0
 34 59  1  0  0  0
 34105  1  0  0  0
 35 44  2  0  0  0
 35 45  1  0  0  0
 35 68  1  0  0  0
 36 56  1  0  0  0
 36106  1  0  0  0
 37 39  1  0  0  0
 37 47  1  0  0  0
 37 66  1  0  0  0
 37107  1  0  0  0
 38 43  2  0  0  0
 38 46  1  0  0  0
 38 47  1  0  0  0
 39 64  1  0  0  0
 39 67  2  0  0  0
 40 52  1  0  0  0
 40 53  2  0  0  0
 40 58  1  0  0  0
 41108  1  0  0  0
 41109  1  0  0  0
 41110  1  0  0  0
 41 48  1  0  0  0
 42 43  1  0  0  0
 42 66  1  0  0  0
 42111  1  0  0  0
 42112  1  0  0  0
 43 44  1  0  0  0
 44113  1  0  0  0
 45 46  2  0  0  0
 45114  1  0  0  0
 46115  1  0  0  0
 47116  1  0  0  0
 47117  1  0  0  0
 48 56  1  0  0  0
 48 65  1  0  0  0
 48118  1  0  0  0
 49 50  1  0  0  0
 49 53  1  0  0  0
 49 64  1  0  0  0
 49119  1  0  0  0
 50 51  1  0  0  0
 50120  1  0  0  0
 50121  1  0  0  0
 51 52  1  0  0  0
 51122  1  0  0  0
 51123  1  0  0  0
 52124  1  0  0  0
 52125  1  0  0  0
 53 54  1  0  0  0
 54 55  2  0  0  0
 54126  1  0  0  0
 55 57  1  0  0  0
 55127  1  0  0  0
 56 69  2  0  0  0
 57 58  2  0  0  0
 57128  1  0  0  0
 58129  1  0  0  0
 59 60  1  0  0  0
 59 61  1  0  0  0
 59 62  1  0  0  0
 60130  1  0  0  0
 60131  1  0  0  0
 60132  1  0  0  0
 61133  1  0  0  0
 61134  1  0  0  0
 61135  1  0  0  0
 62136  1  0  0  0
 62137  1  0  0  0
 62138  1  0  0  0
 63 65  1  0  0  0
 63139  1  0  0  0
 63140  1  0  0  0
 63141  1  0  0  0
 64142  1  0  0  0
 65143  1  0  0  0
 68 80  1  0  0  0
 71 72  2  0  0  0
 71 73  1  0  0  0
 71144  1  0  0  0
 72 75  1  0  0  0
 72145  1  0  0  0
 73 74  2  0  0  0
 73 80  1  0  0  0
 74 81  1  0  0  0
 74 82  1  0  0  0
 75 82  2  0  0  0
 75 84  1  0  0  0
 76 78  1  0  0  0
 76 83  1  0  0  0
 76146  1  0  0  0
 76147  1  0  0  0
 77 78  1  0  0  0
 77 83  1  0  0  0
 77148  1  0  0  0
 77149  1  0  0  0
 78 84  1  0  0  0
 78150  1  0  0  0
 79 81  1  0  0  0
 79151  1  0  0  0
 79152  1  0  0  0
 79153  1  0  0  0
 80154  1  0  0  0
 80155  1  0  0  0
 81156  1  0  0  0
 81157  1  0  0  0
M  ISO  4   1 100  68 101  80 101  83 100
M  END
> <chiral flag>
0

> <version>
0

> <s_m_source_file>
/data/baiqing/PycharmProjects/Reinvent-master-3.2/result/LINK_invent/BTK/process_docking_weight1_custom_sum_contain_oxygen_bond_distance_aromatic_linkinvent_7_9_3/rearranged_h_0181.sdf

> <i_m_source_file_index>
70

> <r_mmod_Potential_Energy-OPLS-2005>
165.634033203125

> <r_mmod_Stretch_Energy-OPLS-2005>
126.40251159668

> <r_mmod_Bend_Energy-OPLS-2005>
248.241958618164

> <r_mmod_Torsional_Energy-OPLS-2005>
269.053527832031

> <r_mmod_Improper_Torsional_Energy-OPLS-2005>
7.10261106491089

> <r_mmod_Van_der_Waal_Energy-OPLS-2005>
152.958221435547

> <r_mmod_Electrostatic_Energy-OPLS-2005>
-535.402893066406

> <r_mmod_Solvation_Energy-OPLS-2005>
-217.266616821289

> <b_mmod_Minimization_Converged-OPLS-2005>
0

> <r_mmod_RMS_Derivative-OPLS-2005>
2.70477342605591

$$$$
70
                    3D
 Structure written by MMmdl.
162172  0  0  1  0            999 V2000
  -30.6387  -14.6582   20.5323 C   0  0  0  0  0  0
  -30.4313  -12.4119   19.4641 C   0  0  0  0  0  0
  -29.5065  -12.5130   18.2314 C   0  0  0  0  0  0
  -28.0307  -12.3469   18.6419 C   0  0  0  0  0  0
  -27.6506  -13.2229   19.8656 C   0  0  2  0  0  0
  -28.6916  -13.0944   20.9990 C   0  0  0  0  0  0
  -25.2544  -13.8183   20.5696 C   0  0  0  0  0  0
  -24.1815  -13.0441   20.9183 C   0  0  0  0  0  0
  -24.6392  -11.6913   20.8738 C   0  0  0  0  0  0
  -23.9066  -10.4292   21.0401 C   0  0  0  0  0  0
  -24.3619   -9.4209   21.9181 C   0  0  0  0  0  0
  -23.6292   -8.2245   22.0756 C   0  0  0  0  0  0
  -22.4275   -8.0280   21.3544 C   0  0  0  0  0  0
  -21.9910   -9.0255   20.4648 C   0  0  0  0  0  0
  -22.7238  -10.2132   20.3053 C   0  0  0  0  0  0
  -21.6854   -6.0733   22.5277 C   0  0  0  0  0  0
  -21.4015   -6.5640   23.8210 C   0  0  0  0  0  0
  -21.3659   -5.6792   24.9175 C   0  0  0  0  0  0
  -21.6044   -4.3055   24.7227 C   0  0  0  0  0  0
  -21.8819   -3.8145   23.4350 C   0  0  0  0  0  0
  -21.9193   -4.6960   22.3403 C   0  0  0  0  0  0
  -22.7839  -13.5229   21.1844 C   0  0  0  0  0  0
  -22.1660   -4.2145   21.0980 F   0  0  0  0  0  0
  -21.5630   -3.4541   25.7741 F   0  0  0  0  0  0
  -30.0032  -13.4429   20.4355 N   0  0  0  0  0  0
  -26.2975  -12.9377   20.3330 N   0  0  0  0  0  0
  -25.9324  -11.6523   20.5764 N   0  0  0  0  0  0
  -22.0490  -12.8220   22.0402 N   0  0  0  0  0  0
  -25.4269  -15.1905   20.4131 N   0  0  0  0  0  0
  -31.7758  -14.8074   20.0715 O   0  0  0  0  0  0
  -21.6641   -6.8876   21.4239 O   0  0  0  0  0  0
  -22.3523  -14.5538   20.6694 O   0  0  0  0  0  0
  -24.6258  -31.8590   23.2018 C   0  0  0  0  0  0
  -25.9106  -32.4772   23.8356 C   0  0  1  0  0  0
  -27.2145  -27.2925   20.1485 C   0  0  0  0  0  0
  -25.5921  -33.8574   24.2278 N   0  0  0  0  0  0
  -23.4215  -30.4804   21.5439 C   0  0  2  0  0  0
  -24.8692  -28.9284   20.1149 C   0  0  0  0  0  0
  -22.7481  -29.4611   22.4935 C   0  0  0  0  0  0
  -18.0290  -28.1383   22.8489 C   0  0  0  0  0  0
  -24.1490  -36.7289   23.2640 C   0  0  0  0  0  0
  -25.9627  -30.7788   21.3809 C   0  0  0  0  0  0
  -26.0336  -29.4002   20.7347 C   0  0  0  0  0  0
  -27.2094  -28.5918   20.7454 C   0  0  0  0  0  0
  -26.0499  -26.8981   19.4603 C   0  0  0  0  0  0
  -24.8789  -27.6819   19.4684 C   0  0  0  0  0  0
  -23.6388  -29.8125   20.1602 C   0  0  0  0  0  0
  -25.4118  -36.3075   24.0324 C   0  0  1  0  0  0
  -20.5889  -28.3688   23.1281 C   0  0  2  0  0  0
  -20.6777  -26.9410   22.5411 C   0  0  0  0  0  0
  -19.5750  -26.6384   21.5216 C   0  0  0  0  0  0
  -18.1930  -26.7930   22.1625 C   0  0  0  0  0  0
  -19.1542  -28.8855   23.2881 C   0  0  0  0  0  0
  -18.9465  -30.1459   23.8893 C   0  0  0  0  0  0
  -17.6464  -30.6586   24.0563 C   0  0  0  0  0  0
  -25.9055  -34.9444   23.5103 C   0  0  0  0  0  0
  -16.5355  -29.9084   23.6332 C   0  0  0  0  0  0
  -16.7278  -28.6503   23.0352 C   0  0  0  0  0  0
  -26.4494  -31.6586   25.0730 C   0  0  0  0  0  0
  -25.3728  -31.3722   26.1455 C   0  0  0  0  0  0
  -27.0351  -30.3013   24.6192 C   0  0  0  0  0  0
  -27.6056  -32.4326   25.7495 C   0  0  0  0  0  0
  -27.5580  -37.1795   24.8466 C   0  0  0  0  0  0
  -21.4193  -29.3037   22.3674 N   0  0  0  0  0  0
  -26.4296  -37.3766   23.9404 N   0  0  0  0  0  0
  -24.6884  -31.0580   22.0984 N   0  0  0  0  0  0
  -23.4201  -28.8147   23.3015 O   0  0  0  0  0  0
  -28.3418  -26.4616   20.1109 O   0  0  0  0  0  0
  -26.5629  -34.8908   22.4671 O   0  0  0  0  0  0
  -23.5414  -32.1398   23.7327 O   0  0  0  0  0  0
  -27.3529  -20.0017   21.2218 C   0  0  0  0  0  0
  -26.9948  -21.3688   21.1259 C   0  0  0  0  0  0
  -28.6664  -19.5788   20.9261 C   0  0  0  0  0  0
  -27.9670  -22.3358   20.7254 C   0  0  0  0  0  0
  -25.5560  -21.7398   21.4618 C   0  0  0  0  0  0
  -29.8203  -17.7142   22.4560 C   0  0  0  0  0  0
  -29.9958  -16.1726   22.3760 C   0  0  0  0  0  0
  -29.6471  -17.0230   20.1925 C   0  0  0  0  0  0
  -26.1852  -24.0748   21.2226 C   0  0  0  0  0  0
  -29.0287  -18.0528   21.2043 C   0  0  2  0  0  0
  -27.5049  -23.8479   20.4359 C   0  0  1  0  0  0
  -28.4347  -25.1150   20.7676 C   0  0  0  0  0  0
  -29.5705  -20.5408   20.5447 N   0  0  0  0  0  0
  -29.2216  -21.8611   20.4120 N   0  0  0  0  0  0
  -29.9062  -15.7502   20.9634 N   0  0  0  0  0  0
  -25.1718  -23.0499   20.9256 N   0  3  0  0  0  0
  -31.4734  -12.5308   19.1626 H   0  0  0  0  0  0
  -30.3663  -11.4198   19.9139 H   0  0  0  0  0  0
  -29.7767  -11.7565   17.4936 H   0  0  0  0  0  0
  -29.6454  -13.4791   17.7441 H   0  0  0  0  0  0
  -27.8716  -11.2939   18.8781 H   0  0  0  0  0  0
  -27.3760  -12.5701   17.7990 H   0  0  0  0  0  0
  -27.6664  -14.2574   19.5213 H   0  0  0  0  0  0
  -28.7085  -12.0777   21.3946 H   0  0  0  0  0  0
  -28.4263  -13.7385   21.8375 H   0  0  0  0  0  0
  -25.2768   -9.5685   22.4753 H   0  0  0  0  0  0
  -24.0003   -7.4639   22.7479 H   0  0  0  0  0  0
  -21.0842   -8.8769   19.8957 H   0  0  0  0  0  0
  -22.3694  -10.9669   19.6162 H   0  0  0  0  0  0
  -21.2006   -7.6149   23.9711 H   0  0  0  0  0  0
  -21.1481   -6.0526   25.9076 H   0  0  0  0  0  0
  -22.0598   -2.7607   23.2852 H   0  0  0  0  0  0
  -22.4117  -11.9881   22.4781 H   0  0  0  0  0  0
  -21.1108  -13.1237   22.2615 H   0  0  0  0  0  0
  -24.6618  -15.8472   20.5203 H   0  0  0  0  0  0
  -26.2855  -15.6269   20.1033 H   0  0  0  0  0  0
  -26.7169  -32.5438   23.1098 H   0  0  0  0  0  0
  -25.0063  -33.9722   25.0418 H   0  0  0  0  0  0
  -22.7159  -31.3009   21.3985 H   0  0  0  0  0  0
  -23.3747  -35.9628   23.3309 H   0  0  0  0  0  0
  -24.3577  -36.8908   22.2054 H   0  0  0  0  0  0
  -23.7254  -37.6493   23.6668 H   0  0  0  0  0  0
  -26.0969  -31.5353   20.6061 H   0  0  0  0  0  0
  -26.8424  -30.8317   22.0102 H   0  0  0  0  0  0
  -28.1067  -28.9510   21.2295 H   0  0  0  0  0  0
  -26.0383  -25.9633   18.9194 H   0  0  0  0  0  0
  -23.9936  -27.3255   18.9599 H   0  0  0  0  0  0
  -23.7604  -30.5877   19.4029 H   0  0  0  0  0  0
  -22.7580  -29.2426   19.8582 H   0  0  0  0  0  0
  -25.1295  -36.1925   25.0817 H   0  0  0  0  0  0
  -20.9980  -28.3262   24.1402 H   0  0  0  0  0  0
  -20.5680  -26.2300   23.3614 H   0  0  0  0  0  0
  -21.6645  -26.7441   22.1203 H   0  0  0  0  0  0
  -19.6913  -25.6296   21.1243 H   0  0  0  0  0  0
  -19.6685  -27.3196   20.6749 H   0  0  0  0  0  0
  -17.4204  -26.6683   21.4025 H   0  0  0  0  0  0
  -18.0315  -26.0075   22.9019 H   0  0  0  0  0  0
  -19.7941  -30.7275   24.2256 H   0  0  0  0  0  0
  -17.5019  -31.6264   24.5163 H   0  0  0  0  0  0
  -15.5353  -30.2978   23.7667 H   0  0  0  0  0  0
  -15.8680  -28.0821   22.7061 H   0  0  0  0  0  0
  -24.5915  -30.7052   25.7789 H   0  0  0  0  0  0
  -24.8898  -32.2884   26.4865 H   0  0  0  0  0  0
  -25.8049  -30.8921   27.0245 H   0  0  0  0  0  0
  -26.2934  -29.6744   24.1225 H   0  0  0  0  0  0
  -27.4068  -29.7279   25.4696 H   0  0  0  0  0  0
  -27.8792  -30.4304   23.9412 H   0  0  0  0  0  0
  -27.2679  -33.3640   26.2049 H   0  0  0  0  0  0
  -28.3873  -32.6862   25.0325 H   0  0  0  0  0  0
  -28.0716  -31.8470   26.5425 H   0  0  0  0  0  0
  -28.2594  -38.0094   24.7509 H   0  0  0  0  0  0
  -28.1079  -36.2623   24.6302 H   0  0  0  0  0  0
  -27.2294  -37.1451   25.8868 H   0  0  0  0  0  0
  -20.9373  -29.8768   21.6889 H   0  0  0  0  0  0
  -26.0175  -38.2841   24.1400 H   0  0  0  0  0  0
  -26.6169  -19.2813   21.5506 H   0  0  0  0  0  0
  -25.4430  -21.7425   22.5472 H   0  0  0  0  0  0
  -24.8711  -20.9828   21.0762 H   0  0  0  0  0  0
  -30.7898  -18.2135   22.4270 H   0  0  0  0  0  0
  -29.3112  -18.0267   23.3684 H   0  0  0  0  0  0
  -29.1961  -15.6814   22.9322 H   0  0  0  0  0  0
  -30.9380  -15.8672   22.8371 H   0  0  0  0  0  0
  -30.5849  -17.4030   19.7845 H   0  0  0  0  0  0
  -28.9741  -16.8366   19.3553 H   0  0  0  0  0  0
  -25.7400  -25.0439   21.0431 H   0  0  0  0  0  0
  -26.3896  -24.0583   22.2952 H   0  0  0  0  0  0
  -28.0460  -17.6183   21.3949 H   0  0  0  0  0  0
  -27.3001  -23.8799   19.3657 H   0  0  0  0  0  0
  -29.4500  -24.7990   20.5275 H   0  0  0  0  0  0
  -28.4548  -25.2742   21.8463 H   0  0  0  0  0  0
  -24.2957  -23.3124   21.3490 H   0  0  0  0  0  0
  -25.0174  -22.9805   19.9331 H   0  0  0  0  0  0
  1 25  1  0  0  0
  1 30  2  0  0  0
  1 85  1  0  0  0
  2  3  1  0  0  0
  2 25  1  0  0  0
  2 87  1  0  0  0
  2 88  1  0  0  0
  3  4  1  0  0  0
  3 89  1  0  0  0
  3 90  1  0  0  0
  4  5  1  0  0  0
  4 91  1  0  0  0
  4 92  1  0  0  0
  5  6  1  0  0  0
  5 26  1  0  0  0
  5 93  1  0  0  0
  6 25  1  0  0  0
  6 94  1  0  0  0
  6 95  1  0  0  0
  7  8  2  0  0  0
  7 26  1  0  0  0
  7 29  1  0  0  0
  8  9  1  0  0  0
  8 22  1  0  0  0
  9 10  1  0  0  0
  9 27  2  0  0  0
 10 11  2  0  0  0
 10 15  1  0  0  0
 11 12  1  0  0  0
 11 96  1  0  0  0
 12 13  2  0  0  0
 12 97  1  0  0  0
 13 14  1  0  0  0
 13 31  1  0  0  0
 14 15  2  0  0  0
 14 98  1  0  0  0
 15 99  1  0  0  0
 16 17  2  0  0  0
 16 21  1  0  0  0
 16 31  1  0  0  0
 17 18  1  0  0  0
 17100  1  0  0  0
 18 19  2  0  0  0
 18101  1  0  0  0
 19 20  1  0  0  0
 19 24  1  0  0  0
 20 21  2  0  0  0
 20102  1  0  0  0
 21 23  1  0  0  0
 22 28  1  0  0  0
 22 32  2  0  0  0
 26 27  1  0  0  0
 28103  1  0  0  0
 28104  1  0  0  0
 29105  1  0  0  0
 29106  1  0  0  0
 33 34  1  0  0  0
 33 66  1  0  0  0
 33 70  2  0  0  0
 34 36  1  0  0  0
 34 59  1  0  0  0
 34107  1  0  0  0
 35 44  2  0  0  0
 35 45  1  0  0  0
 35 68  1  0  0  0
 36 56  1  0  0  0
 36108  1  0  0  0
 37 39  1  0  0  0
 37 47  1  0  0  0
 37 66  1  0  0  0
 37109  1  0  0  0
 38 43  2  0  0  0
 38 46  1  0  0  0
 38 47  1  0  0  0
 39 64  1  0  0  0
 39 67  2  0  0  0
 40 52  1  0  0  0
 40 53  2  0  0  0
 40 58  1  0  0  0
 41110  1  0  0  0
 41111  1  0  0  0
 41112  1  0  0  0
 41 48  1  0  0  0
 42 43  1  0  0  0
 42 66  1  0  0  0
 42113  1  0  0  0
 42114  1  0  0  0
 43 44  1  0  0  0
 44115  1  0  0  0
 45 46  2  0  0  0
 45116  1  0  0  0
 46117  1  0  0  0
 47118  1  0  0  0
 47119  1  0  0  0
 48 56  1  0  0  0
 48 65  1  0  0  0
 48120  1  0  0  0
 49 50  1  0  0  0
 49 53  1  0  0  0
 49 64  1  0  0  0
 49121  1  0  0  0
 50 51  1  0  0  0
 50122  1  0  0  0
 50123  1  0  0  0
 51 52  1  0  0  0
 51124  1  0  0  0
 51125  1  0  0  0
 52126  1  0  0  0
 52127  1  0  0  0
 53 54  1  0  0  0
 54 55  2  0  0  0
 54128  1  0  0  0
 55 57  1  0  0  0
 55129  1  0  0  0
 56 69  2  0  0  0
 57 58  2  0  0  0
 57130  1  0  0  0
 58131  1  0  0  0
 59 60  1  0  0  0
 59 61  1  0  0  0
 59 62  1  0  0  0
 60132  1  0  0  0
 60133  1  0  0  0
 60134  1  0  0  0
 61135  1  0  0  0
 61136  1  0  0  0
 61137  1  0  0  0
 62138  1  0  0  0
 62139  1  0  0  0
 62140  1  0  0  0
 63 65  1  0  0  0
 63141  1  0  0  0
 63142  1  0  0  0
 63143  1  0  0  0
 64144  1  0  0  0
 65145  1  0  0  0
 68 82  1  0  0  0
 71 72  2  0  0  0
 71 73  1  0  0  0
 71146  1  0  0  0
 72 74  1  0  0  0
 72 75  1  0  0  0
 73 83  2  0  0  0
 73 80  1  0  0  0
 74 81  1  0  0  0
 74 84  2  0  0  0
 75 86  1  0  0  0
 75147  1  0  0  0
 75148  1  0  0  0
 76 77  1  0  0  0
 76 80  1  0  0  0
 76149  1  0  0  0
 76150  1  0  0  0
 77 85  1  0  0  0
 77151  1  0  0  0
 77152  1  0  0  0
 78 80  1  0  0  0
 78 85  1  0  0  0
 78153  1  0  0  0
 78154  1  0  0  0
 79 81  1  0  0  0
 79 86  1  0  0  0
 79155  1  0  0  0
 79156  1  0  0  0
 80157  1  0  0  0
 81 82  1  0  0  0
 81158  1  0  0  0
 82159  1  0  0  0
 82160  1  0  0  0
 83 84  1  0  0  0
 86161  1  0  0  0
 86162  1  0  0  0
M  CHG  1  86   1
M  ISO  4   1 100  68 101  82 101  85 100
M  END
> <chiral flag>
0

> <version>
0

> <s_m_source_file>
/data/baiqing/PycharmProjects/Reinvent-master-3.2/result/LINK_invent/BTK/process_docking_weight1_custom_sum_contain_oxygen_bond_distance_aromatic_linkinvent_7_9_3/rearranged_h_0181.sdf

> <i_m_source_file_index>
71

> <r_mmod_Potential_Energy-OPLS-2005>
141.479232788086

> <r_mmod_Stretch_Energy-OPLS-2005>
105.738632202148

> <r_mmod_Bend_Energy-OPLS-2005>
235.363891601562

> <r_mmod_Torsional_Energy-OPLS-2005>
346.787567138672

> <r_mmod_Improper_Torsional_Energy-OPLS-2005>
9.3251371383667

> <r_mmod_Van_der_Waal_Energy-OPLS-2005>
138.689346313477

> <r_mmod_Electrostatic_Energy-OPLS-2005>
-224.153717041016

> <r_mmod_Solvation_Energy-OPLS-2005>
-522.974426269531

> <b_mmod_Minimization_Converged-OPLS-2005>
0

> <r_mmod_RMS_Derivative-OPLS-2005>
0.815058588981628

$$$$
71
                    3D
 Structure written by MMmdl.
159167  0  0  1  0            999 V2000
  -30.6067  -14.7829   20.4578 C   0  0  0  0  0  0
  -30.4410  -12.4844   19.4654 C   0  0  0  0  0  0
  -29.5109  -12.4995   18.2325 C   0  0  0  0  0  0
  -28.0404  -12.3161   18.6554 C   0  0  0  0  0  0
  -27.6404  -13.2310   19.8434 C   0  0  2  0  0  0
  -28.6896  -13.1906   20.9752 C   0  0  0  0  0  0
  -25.2526  -13.8191   20.5700 C   0  0  0  0  0  0
  -24.1814  -13.0441   20.9226 C   0  0  0  0  0  0
  -24.6397  -11.6918   20.8763 C   0  0  0  0  0  0
  -23.9072  -10.4298   21.0420 C   0  0  0  0  0  0
  -24.3620   -9.4217   21.9204 C   0  0  0  0  0  0
  -23.6297   -8.2250   22.0764 C   0  0  0  0  0  0
  -22.4284   -8.0286   21.3548 C   0  0  0  0  0  0
  -21.9919   -9.0260   20.4654 C   0  0  0  0  0  0
  -22.7243  -10.2142   20.3069 C   0  0  0  0  0  0
  -21.6857   -6.0743   22.5287 C   0  0  0  0  0  0
  -21.4010   -6.5643   23.8219 C   0  0  0  0  0  0
  -21.3654   -5.6795   24.9179 C   0  0  0  0  0  0
  -21.6044   -4.3061   24.7228 C   0  0  0  0  0  0
  -21.8817   -3.8155   23.4350 C   0  0  0  0  0  0
  -21.9191   -4.6972   22.3407 C   0  0  0  0  0  0
  -22.7836  -13.5233   21.1877 C   0  0  0  0  0  0
  -22.1665   -4.2153   21.0987 F   0  0  0  0  0  0
  -21.5625   -3.4546   25.7745 F   0  0  0  0  0  0
  -29.9817  -13.5560   20.3805 N   0  0  0  0  0  0
  -26.2943  -12.9393   20.3266 N   0  0  0  0  0  0
  -25.9328  -11.6541   20.5759 N   0  0  0  0  0  0
  -22.0461  -12.8221   22.0412 N   0  0  0  0  0  0
  -25.4216  -15.1912   20.4096 N   0  0  0  0  0  0
  -31.8070  -14.8704   20.1878 O   0  0  0  0  0  0
  -21.6645   -6.8887   21.4245 O   0  0  0  0  0  0
  -22.3533  -14.5541   20.6723 O   0  0  0  0  0  0
  -24.6355  -31.8526   23.1955 C   0  0  0  0  0  0
  -25.9156  -32.4743   23.8315 C   0  0  1  0  0  0
  -27.2188  -27.2266   20.1301 C   0  0  0  0  0  0
  -25.5936  -33.8542   24.2245 N   0  0  0  0  0  0
  -23.4341  -30.4750   21.5406 C   0  0  2  0  0  0
  -24.8815  -28.9187   20.1105 C   0  0  0  0  0  0
  -22.7528  -29.4589   22.4896 C   0  0  0  0  0  0
  -18.0296  -28.1384   22.8476 C   0  0  0  0  0  0
  -24.1491  -36.7281   23.2638 C   0  0  0  0  0  0
  -25.9831  -30.7558   21.3799 C   0  0  0  0  0  0
  -26.0570  -29.3752   20.7212 C   0  0  0  0  0  0
  -27.2283  -28.5439   20.7168 C   0  0  0  0  0  0
  -26.0139  -26.8484   19.4925 C   0  0  0  0  0  0
  -24.8674  -27.6647   19.4856 C   0  0  0  0  0  0
  -23.6551  -29.8109   20.1567 C   0  0  0  0  0  0
  -25.4114  -36.3059   24.0326 C   0  0  1  0  0  0
  -20.5906  -28.3704   23.1256 C   0  0  2  0  0  0
  -20.6788  -26.9418   22.5405 C   0  0  0  0  0  0
  -19.5758  -26.6386   21.5212 C   0  0  0  0  0  0
  -18.1935  -26.7923   22.1620 C   0  0  0  0  0  0
  -19.1552  -28.8859   23.2857 C   0  0  0  0  0  0
  -18.9474  -30.1457   23.8880 C   0  0  0  0  0  0
  -17.6474  -30.6585   24.0562 C   0  0  0  0  0  0
  -25.9060  -34.9430   23.5094 C   0  0  0  0  0  0
  -16.5363  -29.9087   23.6328 C   0  0  0  0  0  0
  -16.7285  -28.6505   23.0345 C   0  0  0  0  0  0
  -26.4507  -31.6566   25.0718 C   0  0  0  0  0  0
  -25.3721  -31.3715   26.1434 C   0  0  0  0  0  0
  -27.0363  -30.2980   24.6215 C   0  0  0  0  0  0
  -27.6053  -32.4316   25.7490 C   0  0  0  0  0  0
  -27.5582  -37.1785   24.8462 C   0  0  0  0  0  0
  -21.4231  -29.3051   22.3644 N   0  0  0  0  0  0
  -26.4283  -37.3765   23.9419 N   0  0  0  0  0  0
  -24.7038  -31.0462   22.0952 N   0  0  0  0  0  0
  -23.4215  -28.8122   23.2995 O   0  0  0  0  0  0
  -28.3034  -26.3056   20.1788 O   0  0  0  0  0  0
  -26.5646  -34.8912   22.4675 O   0  0  0  0  0  0
  -23.5495  -32.1361   23.7230 O   0  0  0  0  0  0
  -28.8559  -20.7472   18.5693 C   0  0  0  0  0  0
  -29.0786  -19.4384   18.0640 C   0  0  0  0  0  0
  -29.0732  -20.9540   19.9534 C   0  0  0  0  0  0
  -29.6530  -18.6187   20.1320 C   0  0  0  0  0  0
  -28.8863  -19.0861   16.5971 C   0  0  0  0  0  0
  -26.7946  -21.8656   17.5642 C   0  0  0  0  0  0
  -28.3276  -21.8377   17.6339 C   0  0  0  0  0  0
  -30.2567  -17.3718   20.9265 C   0  0  0  0  0  0
  -29.1633  -23.6521   20.2905 C   0  0  0  0  0  0
  -28.0234  -24.8118   20.1266 C   0  0  0  0  0  0
  -29.4610  -18.4047   18.8398 N   0  0  0  0  0  0
  -29.4635  -19.8552   20.7042 N   0  0  0  0  0  0
  -28.7681  -22.2083   20.6221 N   0  0  0  0  0  0
  -29.8391  -15.9188   20.6628 N   0  0  0  0  0  0
  -31.4769  -12.6262   19.1532 H   0  0  0  0  0  0
  -30.4094  -11.5154   19.9667 H   0  0  0  0  0  0
  -29.7988  -11.7120   17.5344 H   0  0  0  0  0  0
  -29.6242  -13.4418   17.6956 H   0  0  0  0  0  0
  -27.9111  -11.2709   18.9402 H   0  0  0  0  0  0
  -27.3769  -12.4839   17.8060 H   0  0  0  0  0  0
  -27.6261  -14.2455   19.4453 H   0  0  0  0  0  0
  -28.7404  -12.1995   21.4284 H   0  0  0  0  0  0
  -28.4201  -13.8803   21.7776 H   0  0  0  0  0  0
  -25.2758   -9.5697   22.4788 H   0  0  0  0  0  0
  -24.0006   -7.4644   22.7483 H   0  0  0  0  0  0
  -21.0855   -8.8782   19.8955 H   0  0  0  0  0  0
  -22.3705  -10.9687   19.6185 H   0  0  0  0  0  0
  -21.2002   -7.6153   23.9720 H   0  0  0  0  0  0
  -21.1474   -6.0533   25.9082 H   0  0  0  0  0  0
  -22.0595   -2.7616   23.2855 H   0  0  0  0  0  0
  -22.4059  -11.9875   22.4801 H   0  0  0  0  0  0
  -21.1077  -13.1255   22.2596 H   0  0  0  0  0  0
  -24.6494  -15.8413   20.5129 H   0  0  0  0  0  0
  -26.2562  -15.6263   20.0387 H   0  0  0  0  0  0
  -26.7219  -32.5381   23.1049 H   0  0  0  0  0  0
  -25.0046  -33.9665   25.0362 H   0  0  0  0  0  0
  -22.7325  -31.2991   21.3922 H   0  0  0  0  0  0
  -23.3755  -35.9610   23.3289 H   0  0  0  0  0  0
  -24.3575  -36.8929   22.2054 H   0  0  0  0  0  0
  -23.7239  -37.6474   23.6679 H   0  0  0  0  0  0
  -26.1234  -31.5145   20.6092 H   0  0  0  0  0  0
  -26.8600  -30.8078   22.0141 H   0  0  0  0  0  0
  -28.1264  -28.8864   21.2119 H   0  0  0  0  0  0
  -25.9175  -25.8945   18.9985 H   0  0  0  0  0  0
  -23.9686  -27.3092   19.0009 H   0  0  0  0  0  0
  -23.7855  -30.5897   19.4035 H   0  0  0  0  0  0
  -22.7719  -29.2496   19.8468 H   0  0  0  0  0  0
  -25.1285  -36.1905   25.0815 H   0  0  0  0  0  0
  -20.9985  -28.3290   24.1385 H   0  0  0  0  0  0
  -20.5698  -26.2311   23.3613 H   0  0  0  0  0  0
  -21.6652  -26.7447   22.1184 H   0  0  0  0  0  0
  -19.6930  -25.6302   21.1235 H   0  0  0  0  0  0
  -19.6695  -27.3205   20.6745 H   0  0  0  0  0  0
  -17.4207  -26.6674   21.4025 H   0  0  0  0  0  0
  -18.0329  -26.0067   22.9018 H   0  0  0  0  0  0
  -19.7957  -30.7264   24.2256 H   0  0  0  0  0  0
  -17.5035  -31.6261   24.5171 H   0  0  0  0  0  0
  -15.5366  -30.2983   23.7659 H   0  0  0  0  0  0
  -15.8685  -28.0825   22.7063 H   0  0  0  0  0  0
  -24.5910  -30.7054   25.7752 H   0  0  0  0  0  0
  -24.8887  -32.2876   26.4834 H   0  0  0  0  0  0
  -25.8022  -30.8906   27.0229 H   0  0  0  0  0  0
  -26.2953  -29.6710   24.1244 H   0  0  0  0  0  0
  -27.4048  -29.7258   25.4736 H   0  0  0  0  0  0
  -27.8828  -30.4250   23.9466 H   0  0  0  0  0  0
  -27.2675  -33.3648   26.2011 H   0  0  0  0  0  0
  -28.3887  -32.6829   25.0328 H   0  0  0  0  0  0
  -28.0696  -31.8478   26.5448 H   0  0  0  0  0  0
  -28.2565  -38.0114   24.7535 H   0  0  0  0  0  0
  -28.1115  -36.2641   24.6251 H   0  0  0  0  0  0
  -27.2307  -37.1389   25.8865 H   0  0  0  0  0  0
  -20.9432  -29.8797   21.6863 H   0  0  0  0  0  0
  -26.0167  -38.2840   24.1435 H   0  0  0  0  0  0
  -27.8662  -19.2976   16.2781 H   0  0  0  0  0  0
  -29.0765  -18.0287   16.4088 H   0  0  0  0  0  0
  -29.5704  -19.6544   15.9667 H   0  0  0  0  0  0
  -26.4533  -22.6477   16.8847 H   0  0  0  0  0  0
  -26.3556  -22.0651   18.5418 H   0  0  0  0  0  0
  -26.3868  -20.9205   17.2046 H   0  0  0  0  0  0
  -28.7323  -21.7029   16.6317 H   0  0  0  0  0  0
  -28.6897  -22.8167   17.9217 H   0  0  0  0  0  0
  -30.0809  -17.5580   21.9862 H   0  0  0  0  0  0
  -31.3391  -17.4363   20.8097 H   0  0  0  0  0  0
  -29.7888  -23.9617   21.1287 H   0  0  0  0  0  0
  -29.8442  -23.6707   19.4401 H   0  0  0  0  0  0
  -27.2629  -24.6218   20.8848 H   0  0  0  0  0  0
  -27.5497  -24.5973   19.1706 H   0  0  0  0  0  0
  -28.7257  -22.0686   21.6254 H   0  0  0  0  0  0
  -28.8468  -15.7648   20.7352 H   0  0  0  0  0  0
  1 25  1  0  0  0
  1 30  2  0  0  0
  1 84  1  0  0  0
  2  3  1  0  0  0
  2 25  1  0  0  0
  2 85  1  0  0  0
  2 86  1  0  0  0
  3  4  1  0  0  0
  3 87  1  0  0  0
  3 88  1  0  0  0
  4  5  1  0  0  0
  4 89  1  0  0  0
  4 90  1  0  0  0
  5  6  1  0  0  0
  5 26  1  0  0  0
  5 91  1  0  0  0
  6 25  1  0  0  0
  6 92  1  0  0  0
  6 93  1  0  0  0
  7  8  2  0  0  0
  7 26  1  0  0  0
  7 29  1  0  0  0
  8  9  1  0  0  0
  8 22  1  0  0  0
  9 10  1  0  0  0
  9 27  2  0  0  0
 10 11  2  0  0  0
 10 15  1  0  0  0
 11 12  1  0  0  0
 11 94  1  0  0  0
 12 13  2  0  0  0
 12 95  1  0  0  0
 13 14  1  0  0  0
 13 31  1  0  0  0
 14 15  2  0  0  0
 14 96  1  0  0  0
 15 97  1  0  0  0
 16 17  2  0  0  0
 16 21  1  0  0  0
 16 31  1  0  0  0
 17 18  1  0  0  0
 17 98  1  0  0  0
 18 19  2  0  0  0
 18 99  1  0  0  0
 19 20  1  0  0  0
 19 24  1  0  0  0
 20 21  2  0  0  0
 20100  1  0  0  0
 21 23  1  0  0  0
 22 28  1  0  0  0
 22 32  2  0  0  0
 26 27  1  0  0  0
 28101  1  0  0  0
 28102  1  0  0  0
 29103  1  0  0  0
 29104  1  0  0  0
 33 34  1  0  0  0
 33 66  1  0  0  0
 33 70  2  0  0  0
 34 36  1  0  0  0
 34 59  1  0  0  0
 34105  1  0  0  0
 35 44  2  0  0  0
 35 45  1  0  0  0
 35 68  1  0  0  0
 36 56  1  0  0  0
 36106  1  0  0  0
 37 39  1  0  0  0
 37 47  1  0  0  0
 37 66  1  0  0  0
 37107  1  0  0  0
 38 43  2  0  0  0
 38 46  1  0  0  0
 38 47  1  0  0  0
 39 64  1  0  0  0
 39 67  2  0  0  0
 40 52  1  0  0  0
 40 53  2  0  0  0
 40 58  1  0  0  0
 41108  1  0  0  0
 41109  1  0  0  0
 41110  1  0  0  0
 41 48  1  0  0  0
 42 43  1  0  0  0
 42 66  1  0  0  0
 42111  1  0  0  0
 42112  1  0  0  0
 43 44  1  0  0  0
 44113  1  0  0  0
 45 46  2  0  0  0
 45114  1  0  0  0
 46115  1  0  0  0
 47116  1  0  0  0
 47117  1  0  0  0
 48 56  1  0  0  0
 48 65  1  0  0  0
 48118  1  0  0  0
 49 50  1  0  0  0
 49 53  1  0  0  0
 49 64  1  0  0  0
 49119  1  0  0  0
 50 51  1  0  0  0
 50120  1  0  0  0
 50121  1  0  0  0
 51 52  1  0  0  0
 51122  1  0  0  0
 51123  1  0  0  0
 52124  1  0  0  0
 52125  1  0  0  0
 53 54  1  0  0  0
 54 55  2  0  0  0
 54126  1  0  0  0
 55 57  1  0  0  0
 55127  1  0  0  0
 56 69  2  0  0  0
 57 58  2  0  0  0
 57128  1  0  0  0
 58129  1  0  0  0
 59 60  1  0  0  0
 59 61  1  0  0  0
 59 62  1  0  0  0
 60130  1  0  0  0
 60131  1  0  0  0
 60132  1  0  0  0
 61133  1  0  0  0
 61134  1  0  0  0
 61135  1  0  0  0
 62136  1  0  0  0
 62137  1  0  0  0
 62138  1  0  0  0
 63 65  1  0  0  0
 63139  1  0  0  0
 63140  1  0  0  0
 63141  1  0  0  0
 64142  1  0  0  0
 65143  1  0  0  0
 68 80  1  0  0  0
 71 72  2  0  0  0
 71 73  1  0  0  0
 71 77  1  0  0  0
 72 75  1  0  0  0
 72 81  1  0  0  0
 73 82  2  0  0  0
 73 83  1  0  0  0
 74 78  1  0  0  0
 74 81  2  0  0  0
 74 82  1  0  0  0
 75144  1  0  0  0
 75145  1  0  0  0
 75146  1  0  0  0
 76 77  1  0  0  0
 76147  1  0  0  0
 76148  1  0  0  0
 76149  1  0  0  0
 77150  1  0  0  0
 77151  1  0  0  0
 78 84  1  0  0  0
 78152  1  0  0  0
 78153  1  0  0  0
 79 80  1  0  0  0
 79 83  1  0  0  0
 79154  1  0  0  0
 79155  1  0  0  0
 80156  1  0  0  0
 80157  1  0  0  0
 83158  1  0  0  0
 84159  1  0  0  0
M  ISO  4   1 100  68 101  80 101  84 100
M  END
> <chiral flag>
0

> <version>
0

> <s_m_source_file>
/data/baiqing/PycharmProjects/Reinvent-master-3.2/result/LINK_invent/BTK/process_docking_weight1_custom_sum_contain_oxygen_bond_distance_aromatic_linkinvent_7_9_3/rearranged_h_0181.sdf

> <i_m_source_file_index>
72

> <r_mmod_Potential_Energy-OPLS-2005>
-449.3818359375

> <r_mmod_Stretch_Energy-OPLS-2005>
133.130310058594

> <r_mmod_Bend_Energy-OPLS-2005>
196.271850585938

> <r_mmod_Torsional_Energy-OPLS-2005>
209.844299316406

> <r_mmod_Improper_Torsional_Energy-OPLS-2005>
7.53533363342285

> <r_mmod_Van_der_Waal_Energy-OPLS-2005>
146.012786865234

> <r_mmod_Electrostatic_Energy-OPLS-2005>
-1005.80615234375

> <r_mmod_Solvation_Energy-OPLS-2005>
-242.70849609375

> <b_mmod_Minimization_Converged-OPLS-2005>
0

> <r_mmod_RMS_Derivative-OPLS-2005>
1.49657762050629

$$$$
72
                    3D
 Structure written by MMmdl.
153162  0  0  1  0            999 V2000
  -30.4252  -15.2159   20.3735 C   0  0  0  0  0  0
  -30.4488  -12.7681   19.5233 C   0  0  0  0  0  0
  -29.5399  -12.5729   18.2824 C   0  0  0  0  0  0
  -28.0831  -12.3100   18.7035 C   0  0  0  0  0  0
  -27.6201  -13.2689   19.8294 C   0  0  2  0  0  0
  -28.6556  -13.3985   20.9677 C   0  0  0  0  0  0
  -25.2429  -13.8237   20.5723 C   0  0  0  0  0  0
  -24.1775  -13.0448   20.9262 C   0  0  0  0  0  0
  -24.6418  -11.6940   20.8777 C   0  0  0  0  0  0
  -23.9101  -10.4311   21.0419 C   0  0  0  0  0  0
  -24.3645   -9.4223   21.9193 C   0  0  0  0  0  0
  -23.6320   -8.2257   22.0752 C   0  0  0  0  0  0
  -22.4305   -8.0296   21.3539 C   0  0  0  0  0  0
  -21.9941   -9.0271   20.4647 C   0  0  0  0  0  0
  -22.7275  -10.2151   20.3065 C   0  0  0  0  0  0
  -21.6855   -6.0752   22.5277 C   0  0  0  0  0  0
  -21.4017   -6.5649   23.8214 C   0  0  0  0  0  0
  -21.3663   -5.6795   24.9175 C   0  0  0  0  0  0
  -21.6047   -4.3056   24.7221 C   0  0  0  0  0  0
  -21.8821   -3.8152   23.4340 C   0  0  0  0  0  0
  -21.9192   -4.6979   22.3398 C   0  0  0  0  0  0
  -22.7800  -13.5216   21.1894 C   0  0  0  0  0  0
  -22.1662   -4.2168   21.0974 F   0  0  0  0  0  0
  -21.5628   -3.4532   25.7729 F   0  0  0  0  0  0
  -29.8993  -13.8954   20.3572 N   0  0  0  0  0  0
  -26.2853  -12.9504   20.3209 N   0  0  0  0  0  0
  -25.9347  -11.6614   20.5719 N   0  0  0  0  0  0
  -22.0424  -12.8211   22.0443 N   0  0  0  0  0  0
  -25.4067  -15.1961   20.4106 N   0  0  0  0  0  0
  -31.6358  -15.2654   20.1046 O   0  0  0  0  0  0
  -21.6651   -6.8903   21.4241 O   0  0  0  0  0  0
  -22.3497  -14.5515   20.6719 O   0  0  0  0  0  0
  -24.6583  -31.8269   23.1749 C   0  0  0  0  0  0
  -25.9288  -32.4602   23.8193 C   0  0  1  0  0  0
  -27.2167  -26.9645   20.1873 C   0  0  0  0  0  0
  -25.5977  -33.8414   24.2107 N   0  0  0  0  0  0
  -23.4719  -30.4396   21.5221 C   0  0  2  0  0  0
  -24.9247  -28.8323   20.1128 C   0  0  0  0  0  0
  -22.7651  -29.4455   22.4801 C   0  0  0  0  0  0
  -18.0320  -28.1400   22.8478 C   0  0  0  0  0  0
  -24.1491  -36.7214   23.2650 C   0  0  0  0  0  0
  -26.0370  -30.6477   21.3973 C   0  0  0  0  0  0
  -26.1068  -29.2406   20.7426 C   0  0  0  0  0  0
  -27.2501  -28.3274   20.7542 C   0  0  0  0  0  0
  -26.0066  -26.6961   19.5119 C   0  0  0  0  0  0
  -24.8979  -27.5800   19.4764 C   0  0  0  0  0  0
  -23.7096  -29.7569   20.1471 C   0  0  0  0  0  0
  -25.4134  -36.2979   24.0303 C   0  0  1  0  0  0
  -20.5943  -28.3733   23.1205 C   0  0  2  0  0  0
  -20.6800  -26.9417   22.5404 C   0  0  0  0  0  0
  -19.5772  -26.6368   21.5219 C   0  0  0  0  0  0
  -18.1958  -26.7938   22.1629 C   0  0  0  0  0  0
  -19.1585  -28.8888   23.2830 C   0  0  0  0  0  0
  -18.9491  -30.1486   23.8846 C   0  0  0  0  0  0
  -17.6484  -30.6589   24.0553 C   0  0  0  0  0  0
  -25.9089  -34.9355   23.5024 C   0  0  0  0  0  0
  -16.5375  -29.9070   23.6346 C   0  0  0  0  0  0
  -16.7305  -28.6497   23.0357 C   0  0  0  0  0  0
  -26.4560  -31.6530   25.0705 C   0  0  0  0  0  0
  -25.3703  -31.3772   26.1377 C   0  0  0  0  0  0
  -27.0445  -30.2901   24.6402 C   0  0  0  0  0  0
  -27.6060  -32.4333   25.7506 C   0  0  0  0  0  0
  -27.5572  -37.1774   24.8475 C   0  0  0  0  0  0
  -21.4322  -29.3029   22.3551 N   0  0  0  0  0  0
  -26.4293  -37.3707   23.9401 N   0  0  0  0  0  0
  -24.7432  -30.9974   22.0854 N   0  0  0  0  0  0
  -23.4228  -28.8025   23.3022 O   0  0  0  0  0  0
  -28.2347  -25.8897   20.2702 O   0  0  0  0  0  0
  -26.5690  -34.8882   22.4611 O   0  0  0  0  0  0
  -23.5666  -32.1211   23.6873 O   0  0  0  0  0  0
  -28.2832  -20.2601   21.0924 C   0  0  0  0  0  0
  -30.0542  -20.3537   19.6874 C   0  0  0  0  0  0
  -29.0796  -21.2217   20.3555 C   0  0  0  0  0  0
  -28.4602  -18.7851   21.1361 C   0  0  0  0  0  0
  -29.5019  -18.0145   20.4581 C   0  0  0  0  0  0
  -30.5670  -23.5068   20.3069 C   0  0  0  0  0  0
  -30.0138  -23.3583   21.6850 C   0  0  0  0  0  0
  -29.1522  -22.9727   20.4909 C   0  0  0  0  0  0
  -27.4670  -18.0379   22.0150 C   0  0  0  0  0  0
  -28.0234  -24.2680   20.1482 C   0  0  0  0  0  0
  -30.2529  -18.9377   19.7327 N   0  0  0  0  0  0
  -29.5777  -16.4076   20.5585 N   0  0  0  0  0  0
  -31.4677  -12.9745   19.1936 H   0  0  0  0  0  0
  -30.5115  -11.8477   20.1068 H   0  0  0  0  0  0
  -29.9099  -11.7505   17.6686 H   0  0  0  0  0  0
  -29.5837  -13.4657   17.6567 H   0  0  0  0  0  0
  -28.0259  -11.2796   19.0551 H   0  0  0  0  0  0
  -27.4157  -12.3786   17.8428 H   0  0  0  0  0  0
  -27.5508  -14.2497   19.3575 H   0  0  0  0  0  0
  -28.8062  -12.4485   21.4819 H   0  0  0  0  0  0
  -28.3043  -14.1043   21.7216 H   0  0  0  0  0  0
  -25.2787   -9.5701   22.4774 H   0  0  0  0  0  0
  -24.0029   -7.4650   22.7470 H   0  0  0  0  0  0
  -21.0861   -8.8808   19.8961 H   0  0  0  0  0  0
  -22.3731  -10.9698   19.6188 H   0  0  0  0  0  0
  -21.2009   -7.6161   23.9731 H   0  0  0  0  0  0
  -21.1479   -6.0518   25.9083 H   0  0  0  0  0  0
  -22.0595   -2.7617   23.2823 H   0  0  0  0  0  0
  -22.4025  -11.9901   22.4878 H   0  0  0  0  0  0
  -21.1034  -13.1248   22.2604 H   0  0  0  0  0  0
  -24.6188  -15.8292   20.4953 H   0  0  0  0  0  0
  -26.2047  -15.6192   19.9569 H   0  0  0  0  0  0
  -26.7362  -32.5154   23.0918 H   0  0  0  0  0  0
  -25.0087  -33.9492   25.0235 H   0  0  0  0  0  0
  -22.7837  -31.2701   21.3546 H   0  0  0  0  0  0
  -23.3752  -35.9547   23.3312 H   0  0  0  0  0  0
  -24.3569  -36.8851   22.2065 H   0  0  0  0  0  0
  -23.7247  -37.6408   23.6692 H   0  0  0  0  0  0
  -26.2110  -31.3928   20.6197 H   0  0  0  0  0  0
  -26.8995  -30.7067   22.0490 H   0  0  0  0  0  0
  -28.1440  -28.6377   21.2756 H   0  0  0  0  0  0
  -25.8871  -25.7353   19.0326 H   0  0  0  0  0  0
  -23.9992  -27.2636   18.9650 H   0  0  0  0  0  0
  -23.8601  -30.5247   19.3868 H   0  0  0  0  0  0
  -22.8203  -29.2073   19.8341 H   0  0  0  0  0  0
  -25.1329  -36.1797   25.0796 H   0  0  0  0  0  0
  -21.0042  -28.3330   24.1326 H   0  0  0  0  0  0
  -20.5686  -26.2342   23.3638 H   0  0  0  0  0  0
  -21.6660  -26.7402   22.1201 H   0  0  0  0  0  0
  -19.6921  -25.6268   21.1270 H   0  0  0  0  0  0
  -19.6703  -27.3159   20.6737 H   0  0  0  0  0  0
  -17.4225  -26.6689   21.4034 H   0  0  0  0  0  0
  -18.0345  -26.0087   22.9030 H   0  0  0  0  0  0
  -19.7965  -30.7328   24.2180 H   0  0  0  0  0  0
  -17.5027  -31.6263   24.5162 H   0  0  0  0  0  0
  -15.5372  -30.2945   23.7689 H   0  0  0  0  0  0
  -15.8719  -28.0796   22.7079 H   0  0  0  0  0  0
  -24.5887  -30.7119   25.7704 H   0  0  0  0  0  0
  -24.8885  -32.2960   26.4718 H   0  0  0  0  0  0
  -25.7944  -30.9002   27.0217 H   0  0  0  0  0  0
  -26.3095  -29.6592   24.1389 H   0  0  0  0  0  0
  -27.3977  -29.7257   25.5044 H   0  0  0  0  0  0
  -27.9037  -30.4104   23.9804 H   0  0  0  0  0  0
  -27.2634  -33.3667   26.1985 H   0  0  0  0  0  0
  -28.3917  -32.6840   25.0369 H   0  0  0  0  0  0
  -28.0669  -31.8522   26.5506 H   0  0  0  0  0  0
  -28.2596  -38.0062   24.7481 H   0  0  0  0  0  0
  -28.1054  -36.2583   24.6347 H   0  0  0  0  0  0
  -27.2278  -37.1475   25.8877 H   0  0  0  0  0  0
  -20.9567  -29.8719   21.6683 H   0  0  0  0  0  0
  -26.0144  -38.2773   24.1377 H   0  0  0  0  0  0
  -27.5042  -20.6767   21.7147 H   0  0  0  0  0  0
  -30.8040  -20.8418   19.0827 H   0  0  0  0  0  0
  -31.3609  -22.8264   20.0144 H   0  0  0  0  0  0
  -30.6776  -24.5226   19.9303 H   0  0  0  0  0  0
  -29.7760  -24.2772   22.2171 H   0  0  0  0  0  0
  -30.4126  -22.5583   22.3066 H   0  0  0  0  0  0
  -26.4686  -18.4676   21.9201 H   0  0  0  0  0  0
  -27.7688  -18.1085   23.0608 H   0  0  0  0  0  0
  -27.3791  -16.9816   21.7633 H   0  0  0  0  0  0
  -27.1463  -24.0554   20.7603 H   0  0  0  0  0  0
  -27.6853  -24.1011   19.1252 H   0  0  0  0  0  0
  -28.6829  -16.0592   20.8582 H   0  0  0  0  0  0
  1 25  1  0  0  0
  1 30  2  0  0  0
  1 82  1  0  0  0
  2  3  1  0  0  0
  2 25  1  0  0  0
  2 83  1  0  0  0
  2 84  1  0  0  0
  3  4  1  0  0  0
  3 85  1  0  0  0
  3 86  1  0  0  0
  4  5  1  0  0  0
  4 87  1  0  0  0
  4 88  1  0  0  0
  5  6  1  0  0  0
  5 26  1  0  0  0
  5 89  1  0  0  0
  6 25  1  0  0  0
  6 90  1  0  0  0
  6 91  1  0  0  0
  7  8  2  0  0  0
  7 26  1  0  0  0
  7 29  1  0  0  0
  8  9  1  0  0  0
  8 22  1  0  0  0
  9 10  1  0  0  0
  9 27  2  0  0  0
 10 11  2  0  0  0
 10 15  1  0  0  0
 11 12  1  0  0  0
 11 92  1  0  0  0
 12 13  2  0  0  0
 12 93  1  0  0  0
 13 14  1  0  0  0
 13 31  1  0  0  0
 14 15  2  0  0  0
 14 94  1  0  0  0
 15 95  1  0  0  0
 16 17  2  0  0  0
 16 21  1  0  0  0
 16 31  1  0  0  0
 17 18  1  0  0  0
 17 96  1  0  0  0
 18 19  2  0  0  0
 18 97  1  0  0  0
 19 20  1  0  0  0
 19 24  1  0  0  0
 20 21  2  0  0  0
 20 98  1  0  0  0
 21 23  1  0  0  0
 22 28  1  0  0  0
 22 32  2  0  0  0
 26 27  1  0  0  0
 28 99  1  0  0  0
 28100  1  0  0  0
 29101  1  0  0  0
 29102  1  0  0  0
 33 34  1  0  0  0
 33 66  1  0  0  0
 33 70  2  0  0  0
 34 36  1  0  0  0
 34 59  1  0  0  0
 34103  1  0  0  0
 35 44  2  0  0  0
 35 45  1  0  0  0
 35 68  1  0  0  0
 36 56  1  0  0  0
 36104  1  0  0  0
 37 39  1  0  0  0
 37 47  1  0  0  0
 37 66  1  0  0  0
 37105  1  0  0  0
 38 43  2  0  0  0
 38 46  1  0  0  0
 38 47  1  0  0  0
 39 64  1  0  0  0
 39 67  2  0  0  0
 40 52  1  0  0  0
 40 53  2  0  0  0
 40 58  1  0  0  0
 41106  1  0  0  0
 41107  1  0  0  0
 41108  1  0  0  0
 41 48  1  0  0  0
 42 43  1  0  0  0
 42 66  1  0  0  0
 42109  1  0  0  0
 42110  1  0  0  0
 43 44  1  0  0  0
 44111  1  0  0  0
 45 46  2  0  0  0
 45112  1  0  0  0
 46113  1  0  0  0
 47114  1  0  0  0
 47115  1  0  0  0
 48 56  1  0  0  0
 48 65  1  0  0  0
 48116  1  0  0  0
 49 50  1  0  0  0
 49 53  1  0  0  0
 49 64  1  0  0  0
 49117  1  0  0  0
 50 51  1  0  0  0
 50118  1  0  0  0
 50119  1  0  0  0
 51 52  1  0  0  0
 51120  1  0  0  0
 51121  1  0  0  0
 52122  1  0  0  0
 52123  1  0  0  0
 53 54  1  0  0  0
 54 55  2  0  0  0
 54124  1  0  0  0
 55 57  1  0  0  0
 55125  1  0  0  0
 56 69  2  0  0  0
 57 58  2  0  0  0
 57126  1  0  0  0
 58127  1  0  0  0
 59 60  1  0  0  0
 59 61  1  0  0  0
 59 62  1  0  0  0
 60128  1  0  0  0
 60129  1  0  0  0
 60130  1  0  0  0
 61131  1  0  0  0
 61132  1  0  0  0
 61133  1  0  0  0
 62134  1  0  0  0
 62135  1  0  0  0
 62136  1  0  0  0
 63 65  1  0  0  0
 63137  1  0  0  0
 63138  1  0  0  0
 63139  1  0  0  0
 64140  1  0  0  0
 65141  1  0  0  0
 68 80  1  0  0  0
 71 73  2  0  0  0
 71 74  1  0  0  0
 71142  1  0  0  0
 72 73  1  0  0  0
 72 81  2  0  0  0
 72143  1  0  0  0
 73 78  1  0  0  0
 74 75  2  0  0  0
 74 79  1  0  0  0
 75 81  1  0  0  0
 75 82  1  0  0  0
 76 77  1  0  0  0
 76 78  1  0  0  0
 76144  1  0  0  0
 76145  1  0  0  0
 77 78  1  0  0  0
 77146  1  0  0  0
 77147  1  0  0  0
 78 80  1  0  0  0
 79148  1  0  0  0
 79149  1  0  0  0
 79150  1  0  0  0
 80151  1  0  0  0
 80152  1  0  0  0
 82153  1  0  0  0
M  ISO  4   1 100  68 101  80 101  82 100
M  END
> <chiral flag>
0

> <version>
0

> <s_m_source_file>
/data/baiqing/PycharmProjects/Reinvent-master-3.2/result/LINK_invent/BTK/process_docking_weight1_custom_sum_contain_oxygen_bond_distance_aromatic_linkinvent_7_9_3/rearranged_h_0181.sdf

> <i_m_source_file_index>
73

> <r_mmod_Potential_Energy-OPLS-2005>
975.261352539062

> <r_mmod_Stretch_Energy-OPLS-2005>
488.556396484375

> <r_mmod_Bend_Energy-OPLS-2005>
422.681030273438

> <r_mmod_Torsional_Energy-OPLS-2005>
247.036682128906

> <r_mmod_Improper_Torsional_Energy-OPLS-2005>
6.22634029388428

> <r_mmod_Van_der_Waal_Energy-OPLS-2005>
127.937088012695

> <r_mmod_Electrostatic_Energy-OPLS-2005>
-492.113098144531

> <r_mmod_Solvation_Energy-OPLS-2005>
-230.455718994141

> <b_mmod_Minimization_Converged-OPLS-2005>
0

> <r_mmod_RMS_Derivative-OPLS-2005>
1.86453771591187

$$$$
73
                    3D
 Structure written by MMmdl.
147155  0  0  1  0            999 V2000
  -30.3729  -15.3841   20.3499 C   0  0  0  0  0  0
  -30.4393  -12.8882   19.5448 C   0  0  0  0  0  0
  -29.5455  -12.6066   18.3070 C   0  0  0  0  0  0
  -28.0989  -12.3050   18.7324 C   0  0  0  0  0  0
  -27.6096  -13.2855   19.8255 C   0  0  2  0  0  0
  -28.6355  -13.4966   20.9615 C   0  0  0  0  0  0
  -25.2375  -13.8263   20.5756 C   0  0  0  0  0  0
  -24.1738  -13.0439   20.9263 C   0  0  0  0  0  0
  -24.6405  -11.6939   20.8759 C   0  0  0  0  0  0
  -23.9102  -10.4295   21.0402 C   0  0  0  0  0  0
  -24.3643   -9.4208   21.9182 C   0  0  0  0  0  0
  -23.6308   -8.2247   22.0754 C   0  0  0  0  0  0
  -22.4288   -8.0286   21.3544 C   0  0  0  0  0  0
  -21.9932   -9.0261   20.4645 C   0  0  0  0  0  0
  -22.7270  -10.2136   20.3052 C   0  0  0  0  0  0
  -21.6858   -6.0740   22.5279 C   0  0  0  0  0  0
  -21.4018   -6.5642   23.8212 C   0  0  0  0  0  0
  -21.3660   -5.6794   24.9174 C   0  0  0  0  0  0
  -21.6044   -4.3056   24.7224 C   0  0  0  0  0  0
  -21.8818   -3.8149   23.4345 C   0  0  0  0  0  0
  -21.9194   -4.6966   22.3401 C   0  0  0  0  0  0
  -22.7753  -13.5184   21.1908 C   0  0  0  0  0  0
  -22.1662   -4.2152   21.0979 F   0  0  0  0  0  0
  -21.5627   -3.4540   25.7736 F   0  0  0  0  0  0
  -29.8567  -14.0422   20.3403 N   0  0  0  0  0  0
  -26.2809  -12.9553   20.3225 N   0  0  0  0  0  0
  -25.9346  -11.6647   20.5714 N   0  0  0  0  0  0
  -22.0415  -12.8161   22.0460 N   0  0  0  0  0  0
  -25.3997  -15.2001   20.4188 N   0  0  0  0  0  0
  -31.5863  -15.3993   20.0851 O   0  0  0  0  0  0
  -21.6647   -6.8886   21.4242 O   0  0  0  0  0  0
  -22.3430  -14.5485   20.6748 O   0  0  0  0  0  0
  -24.6695  -31.8145   23.1628 C   0  0  0  0  0  0
  -25.9342  -32.4540   23.8124 C   0  0  1  0  0  0
  -27.2249  -26.8486   20.1951 C   0  0  0  0  0  0
  -25.5979  -33.8359   24.2023 N   0  0  0  0  0  0
  -23.4889  -30.4214   21.5127 C   0  0  2  0  0  0
  -24.9452  -28.7914   20.1100 C   0  0  0  0  0  0
  -22.7701  -29.4389   22.4749 C   0  0  0  0  0  0
  -18.0328  -28.1412   22.8464 C   0  0  0  0  0  0
  -24.1495  -36.7186   23.2652 C   0  0  0  0  0  0
  -26.0613  -30.5945   21.4058 C   0  0  0  0  0  0
  -26.1282  -29.1756   20.7521 C   0  0  0  0  0  0
  -27.2562  -28.2259   20.7697 C   0  0  0  0  0  0
  -26.0150  -26.6378   19.4932 C   0  0  0  0  0  0
  -24.9189  -27.5456   19.4591 C   0  0  0  0  0  0
  -23.7338  -29.7282   20.1421 C   0  0  0  0  0  0
  -25.4140  -36.2939   24.0293 C   0  0  1  0  0  0
  -20.5957  -28.3761   23.1173 C   0  0  2  0  0  0
  -20.6800  -26.9434   22.5404 C   0  0  0  0  0  0
  -19.5775  -26.6373   21.5217 C   0  0  0  0  0  0
  -18.1957  -26.7944   22.1622 C   0  0  0  0  0  0
  -19.1591  -28.8909   23.2804 C   0  0  0  0  0  0
  -18.9500  -30.1498   23.8842 C   0  0  0  0  0  0
  -17.6492  -30.6600   24.0553 C   0  0  0  0  0  0
  -25.9107  -34.9324   23.4987 C   0  0  0  0  0  0
  -16.5382  -29.9085   23.6346 C   0  0  0  0  0  0
  -16.7309  -28.6506   23.0365 C   0  0  0  0  0  0
  -26.4569  -31.6521   25.0689 C   0  0  0  0  0  0
  -25.3673  -31.3799   26.1331 C   0  0  0  0  0  0
  -27.0482  -30.2877   24.6487 C   0  0  0  0  0  0
  -27.6043  -32.4352   25.7497 C   0  0  0  0  0  0
  -27.5563  -37.1758   24.8473 C   0  0  0  0  0  0
  -21.4362  -29.3034   22.3507 N   0  0  0  0  0  0
  -26.4281  -37.3681   23.9398 N   0  0  0  0  0  0
  -24.7618  -30.9730   22.0803 N   0  0  0  0  0  0
  -23.4212  -28.7975   23.3032 O   0  0  0  0  0  0
  -28.2181  -25.7121   20.3160 O   0  0  0  0  0  0
  -26.5732  -34.8876   22.4592 O   0  0  0  0  0  0
  -23.5747  -32.1152   23.6671 O   0  0  0  0  0  0
  -30.3641  -19.1076   19.4158 C   0  0  0  0  0  0
  -29.5774  -18.2912   20.3073 C   0  0  0  0  0  0
  -28.8082  -19.4383   20.8221 C   0  0  0  0  0  0
  -27.7712  -19.3313   21.8886 C   0  0  0  0  0  0
  -28.7807  -22.4835   20.7135 C   0  0  0  0  0  0
  -28.1422  -24.0546   19.9678 C   0  0  0  0  0  0
  -30.1045  -20.4702   19.4175 N   0  0  0  0  0  0
  -29.0897  -20.8355   20.2828 N   0  0  0  0  0  0
  -29.5662  -16.6461   20.5298 N   0  0  0  0  0  0
  -31.4529  -13.1104   19.2091 H   0  0  0  0  0  0
  -30.5322  -11.9954   20.1655 H   0  0  0  0  0  0
  -29.9483  -11.7766   17.7252 H   0  0  0  0  0  0
  -29.5566  -13.4770   17.6493 H   0  0  0  0  0  0
  -28.0732  -11.2855   19.1189 H   0  0  0  0  0  0
  -27.4321  -12.3236   17.8694 H   0  0  0  0  0  0
  -27.5131  -14.2430   19.3122 H   0  0  0  0  0  0
  -28.8272  -12.5712   21.5069 H   0  0  0  0  0  0
  -28.2498  -14.2104   21.6909 H   0  0  0  0  0  0
  -25.2783   -9.5683   22.4763 H   0  0  0  0  0  0
  -24.0012   -7.4639   22.7477 H   0  0  0  0  0  0
  -21.0862   -8.8786   19.8951 H   0  0  0  0  0  0
  -22.3728  -10.9676   19.6164 H   0  0  0  0  0  0
  -21.2012   -7.6151   23.9716 H   0  0  0  0  0  0
  -21.1481   -6.0524   25.9077 H   0  0  0  0  0  0
  -22.0596   -2.7611   23.2844 H   0  0  0  0  0  0
  -22.4053  -11.9833   22.4850 H   0  0  0  0  0  0
  -21.1025  -13.1162   22.2664 H   0  0  0  0  0  0
  -24.6238  -15.8452   20.5220 H   0  0  0  0  0  0
  -26.2312  -15.6393   20.0464 H   0  0  0  0  0  0
  -26.7414  -32.5052   23.0836 H   0  0  0  0  0  0
  -25.0060  -33.9422   25.0131 H   0  0  0  0  0  0
  -22.8067  -31.2551   21.3342 H   0  0  0  0  0  0
  -23.3762  -35.9512   23.3301 H   0  0  0  0  0  0
  -24.3560  -36.8850   22.2068 H   0  0  0  0  0  0
  -23.7253  -37.6369   23.6723 H   0  0  0  0  0  0
  -26.2507  -31.3299   20.6227 H   0  0  0  0  0  0
  -26.9178  -30.6548   22.0652 H   0  0  0  0  0  0
  -28.1460  -28.5173   21.3097 H   0  0  0  0  0  0
  -25.8773  -25.6883   18.9966 H   0  0  0  0  0  0
  -24.0223  -27.2456   18.9343 H   0  0  0  0  0  0
  -23.8944  -30.4931   19.3814 H   0  0  0  0  0  0
  -22.8421  -29.1854   19.8236 H   0  0  0  0  0  0
  -25.1347  -36.1727   25.0785 H   0  0  0  0  0  0
  -21.0045  -28.3376   24.1296 H   0  0  0  0  0  0
  -20.5673  -26.2382   23.3653 H   0  0  0  0  0  0
  -21.6662  -26.7395   22.1216 H   0  0  0  0  0  0
  -19.6932  -25.6270   21.1282 H   0  0  0  0  0  0
  -19.6715  -27.3154   20.6724 H   0  0  0  0  0  0
  -17.4226  -26.6687   21.4027 H   0  0  0  0  0  0
  -18.0348  -26.0100   22.9032 H   0  0  0  0  0  0
  -19.7976  -30.7330   24.2184 H   0  0  0  0  0  0
  -17.5043  -31.6274   24.5166 H   0  0  0  0  0  0
  -15.5381  -30.2969   23.7702 H   0  0  0  0  0  0
  -15.8710  -28.0806   22.7112 H   0  0  0  0  0  0
  -24.5874  -30.7128   25.7638 H   0  0  0  0  0  0
  -24.8843  -32.3009   26.4603 H   0  0  0  0  0  0
  -25.7885  -30.9065   27.0209 H   0  0  0  0  0  0
  -26.3169  -29.6528   24.1475 H   0  0  0  0  0  0
  -27.3962  -29.7274   25.5176 H   0  0  0  0  0  0
  -27.9129  -30.4040   23.9952 H   0  0  0  0  0  0
  -27.2599  -33.3708   26.1916 H   0  0  0  0  0  0
  -28.3936  -32.6825   25.0386 H   0  0  0  0  0  0
  -28.0620  -31.8585   26.5545 H   0  0  0  0  0  0
  -28.2582  -38.0049   24.7479 H   0  0  0  0  0  0
  -28.1054  -36.2571   24.6354 H   0  0  0  0  0  0
  -27.2269  -37.1466   25.8874 H   0  0  0  0  0  0
  -20.9634  -29.8707   21.6609 H   0  0  0  0  0  0
  -26.0123  -38.2742   24.1382 H   0  0  0  0  0  0
  -31.1326  -18.7576   18.7410 H   0  0  0  0  0  0
  -27.4668  -18.2961   22.0404 H   0  0  0  0  0  0
  -26.8825  -19.9050   21.6259 H   0  0  0  0  0  0
  -28.1519  -19.7126   22.8357 H   0  0  0  0  0  0
  -28.2003  -22.3947   21.6317 H   0  0  0  0  0  0
  -29.7570  -22.8012   21.0784 H   0  0  0  0  0  0
  -27.0769  -23.8672   19.8373 H   0  0  0  0  0  0
  -28.5305  -24.0269   18.9497 H   0  0  0  0  0  0
  -28.6661  -16.3566   20.8834 H   0  0  0  0  0  0
  1 25  1  0  0  0
  1 30  2  0  0  0
  1 79  1  0  0  0
  2  3  1  0  0  0
  2 25  1  0  0  0
  2 80  1  0  0  0
  2 81  1  0  0  0
  3  4  1  0  0  0
  3 82  1  0  0  0
  3 83  1  0  0  0
  4  5  1  0  0  0
  4 84  1  0  0  0
  4 85  1  0  0  0
  5  6  1  0  0  0
  5 26  1  0  0  0
  5 86  1  0  0  0
  6 25  1  0  0  0
  6 87  1  0  0  0
  6 88  1  0  0  0
  7  8  2  0  0  0
  7 26  1  0  0  0
  7 29  1  0  0  0
  8  9  1  0  0  0
  8 22  1  0  0  0
  9 10  1  0  0  0
  9 27  2  0  0  0
 10 11  2  0  0  0
 10 15  1  0  0  0
 11 12  1  0  0  0
 11 89  1  0  0  0
 12 13  2  0  0  0
 12 90  1  0  0  0
 13 14  1  0  0  0
 13 31  1  0  0  0
 14 15  2  0  0  0
 14 91  1  0  0  0
 15 92  1  0  0  0
 16 17  2  0  0  0
 16 21  1  0  0  0
 16 31  1  0  0  0
 17 18  1  0  0  0
 17 93  1  0  0  0
 18 19  2  0  0  0
 18 94  1  0  0  0
 19 20  1  0  0  0
 19 24  1  0  0  0
 20 21  2  0  0  0
 20 95  1  0  0  0
 21 23  1  0  0  0
 22 28  1  0  0  0
 22 32  2  0  0  0
 26 27  1  0  0  0
 28 96  1  0  0  0
 28 97  1  0  0  0
 29 98  1  0  0  0
 29 99  1  0  0  0
 33 34  1  0  0  0
 33 66  1  0  0  0
 33 70  2  0  0  0
 34 36  1  0  0  0
 34 59  1  0  0  0
 34100  1  0  0  0
 35 44  2  0  0  0
 35 45  1  0  0  0
 35 68  1  0  0  0
 36 56  1  0  0  0
 36101  1  0  0  0
 37 39  1  0  0  0
 37 47  1  0  0  0
 37 66  1  0  0  0
 37102  1  0  0  0
 38 43  2  0  0  0
 38 46  1  0  0  0
 38 47  1  0  0  0
 39 64  1  0  0  0
 39 67  2  0  0  0
 40 52  1  0  0  0
 40 53  2  0  0  0
 40 58  1  0  0  0
 41103  1  0  0  0
 41104  1  0  0  0
 41105  1  0  0  0
 41 48  1  0  0  0
 42 43  1  0  0  0
 42 66  1  0  0  0
 42106  1  0  0  0
 42107  1  0  0  0
 43 44  1  0  0  0
 44108  1  0  0  0
 45 46  2  0  0  0
 45109  1  0  0  0
 46110  1  0  0  0
 47111  1  0  0  0
 47112  1  0  0  0
 48 56  1  0  0  0
 48 65  1  0  0  0
 48113  1  0  0  0
 49 50  1  0  0  0
 49 53  1  0  0  0
 49 64  1  0  0  0
 49114  1  0  0  0
 50 51  1  0  0  0
 50115  1  0  0  0
 50116  1  0  0  0
 51 52  1  0  0  0
 51117  1  0  0  0
 51118  1  0  0  0
 52119  1  0  0  0
 52120  1  0  0  0
 53 54  1  0  0  0
 54 55  2  0  0  0
 54121  1  0  0  0
 55 57  1  0  0  0
 55122  1  0  0  0
 56 69  2  0  0  0
 57 58  2  0  0  0
 57123  1  0  0  0
 58124  1  0  0  0
 59 60  1  0  0  0
 59 61  1  0  0  0
 59 62  1  0  0  0
 60125  1  0  0  0
 60126  1  0  0  0
 60127  1  0  0  0
 61128  1  0  0  0
 61129  1  0  0  0
 61130  1  0  0  0
 62131  1  0  0  0
 62132  1  0  0  0
 62133  1  0  0  0
 63 65  1  0  0  0
 63134  1  0  0  0
 63135  1  0  0  0
 63136  1  0  0  0
 64137  1  0  0  0
 65138  1  0  0  0
 68 76  1  0  0  0
 71 72  1  0  0  0
 71 77  2  0  0  0
 71139  1  0  0  0
 72 73  2  0  0  0
 72 79  1  0  0  0
 73 74  1  0  0  0
 73 78  1  0  0  0
 74140  1  0  0  0
 74141  1  0  0  0
 74142  1  0  0  0
 75 76  1  0  0  0
 75 78  1  0  0  0
 75143  1  0  0  0
 75144  1  0  0  0
 76145  1  0  0  0
 76146  1  0  0  0
 77 78  1  0  0  0
 79147  1  0  0  0
M  ISO  4   1 100  68 101  76 101  79 100
M  END
> <chiral flag>
0

> <version>
0

> <s_m_source_file>
/data/baiqing/PycharmProjects/Reinvent-master-3.2/result/LINK_invent/BTK/process_docking_weight1_custom_sum_contain_oxygen_bond_distance_aromatic_linkinvent_7_9_3/rearranged_h_0181.sdf

> <i_m_source_file_index>
74

> <r_mmod_Potential_Energy-OPLS-2005>
1545.025390625

> <r_mmod_Stretch_Energy-OPLS-2005>
709.6552734375

> <r_mmod_Bend_Energy-OPLS-2005>
515.614624023438

> <r_mmod_Torsional_Energy-OPLS-2005>
231.777572631836

> <r_mmod_Improper_Torsional_Energy-OPLS-2005>
4.7142014503479

> <r_mmod_Van_der_Waal_Energy-OPLS-2005>
103.12907409668

> <r_mmod_Electrostatic_Energy-OPLS-2005>
-377.382415771484

> <r_mmod_Solvation_Energy-OPLS-2005>
-233.589172363281

> <b_mmod_Minimization_Converged-OPLS-2005>
0

> <r_mmod_RMS_Derivative-OPLS-2005>
0.168782696127892

$$$$
74
                    3D
 Structure written by MMmdl.
157166  0  0  1  0            999 V2000
  -30.4060  -15.4067   20.3843 C   0  0  0  0  0  0
  -30.4420  -12.9279   19.5231 C   0  0  0  0  0  0
  -29.5466  -12.5958   18.3016 C   0  0  0  0  0  0
  -28.1094  -12.2796   18.7493 C   0  0  0  0  0  0
  -27.6065  -13.2840   19.8140 C   0  0  2  0  0  0
  -28.6344  -13.5365   20.9379 C   0  0  0  0  0  0
  -25.2388  -13.8261   20.5772 C   0  0  0  0  0  0
  -24.1743  -13.0445   20.9271 C   0  0  0  0  0  0
  -24.6410  -11.6944   20.8772 C   0  0  0  0  0  0
  -23.9108  -10.4298   21.0403 C   0  0  0  0  0  0
  -24.3650   -9.4203   21.9174 C   0  0  0  0  0  0
  -23.6318   -8.2239   22.0744 C   0  0  0  0  0  0
  -22.4296   -8.0284   21.3539 C   0  0  0  0  0  0
  -21.9934   -9.0263   20.4640 C   0  0  0  0  0  0
  -22.7277  -10.2139   20.3050 C   0  0  0  0  0  0
  -21.6857   -6.0741   22.5279 C   0  0  0  0  0  0
  -21.4016   -6.5640   23.8213 C   0  0  0  0  0  0
  -21.3660   -5.6791   24.9175 C   0  0  0  0  0  0
  -21.6045   -4.3052   24.7225 C   0  0  0  0  0  0
  -21.8818   -3.8144   23.4342 C   0  0  0  0  0  0
  -21.9190   -4.6966   22.3399 C   0  0  0  0  0  0
  -22.7757  -13.5192   21.1915 C   0  0  0  0  0  0
  -22.1659   -4.2147   21.0978 F   0  0  0  0  0  0
  -21.5632   -3.4535   25.7734 F   0  0  0  0  0  0
  -29.8364  -14.0911   20.2856 N   0  0  0  0  0  0
  -26.2812  -12.9544   20.3215 N   0  0  0  0  0  0
  -25.9346  -11.6644   20.5721 N   0  0  0  0  0  0
  -22.0399  -12.8185   22.0465 N   0  0  0  0  0  0
  -25.4057  -15.1996   20.4244 N   0  0  0  0  0  0
  -31.6464  -15.3448   20.3034 O   0  0  0  0  0  0
  -21.6650   -6.8887   21.4240 O   0  0  0  0  0  0
  -22.3435  -14.5482   20.6740 O   0  0  0  0  0  0
  -24.6735  -31.8147   23.1628 C   0  0  0  0  0  0
  -25.9364  -32.4552   23.8143 C   0  0  1  0  0  0
  -27.2279  -26.8305   20.2217 C   0  0  0  0  0  0
  -25.5996  -33.8368   24.2046 N   0  0  0  0  0  0
  -23.4941  -30.4199   21.5158 C   0  0  2  0  0  0
  -24.9484  -28.7811   20.1282 C   0  0  0  0  0  0
  -22.7718  -29.4399   22.4781 C   0  0  0  0  0  0
  -18.0322  -28.1409   22.8473 C   0  0  0  0  0  0
  -24.1494  -36.7192   23.2646 C   0  0  0  0  0  0
  -26.0686  -30.5896   21.4073 C   0  0  0  0  0  0
  -26.1364  -29.1659   20.7620 C   0  0  0  0  0  0
  -27.2705  -28.2178   20.7717 C   0  0  0  0  0  0
  -26.0066  -26.6176   19.5395 C   0  0  0  0  0  0
  -24.9133  -27.5278   19.4940 C   0  0  0  0  0  0
  -23.7411  -29.7233   20.1489 C   0  0  0  0  0  0
  -25.4133  -36.2945   24.0301 C   0  0  1  0  0  0
  -20.5958  -28.3770   23.1167 C   0  0  2  0  0  0
  -20.6806  -26.9444   22.5386 C   0  0  0  0  0  0
  -19.5766  -26.6370   21.5213 C   0  0  0  0  0  0
  -18.1956  -26.7941   22.1634 C   0  0  0  0  0  0
  -19.1589  -28.8914   23.2800 C   0  0  0  0  0  0
  -18.9494  -30.1499   23.8833 C   0  0  0  0  0  0
  -17.6488  -30.6602   24.0545 C   0  0  0  0  0  0
  -25.9109  -34.9331   23.5005 C   0  0  0  0  0  0
  -16.5377  -29.9085   23.6344 C   0  0  0  0  0  0
  -16.7304  -28.6503   23.0377 C   0  0  0  0  0  0
  -26.4573  -31.6536   25.0717 C   0  0  0  0  0  0
  -25.3695  -31.3827   26.1387 C   0  0  0  0  0  0
  -27.0465  -30.2895   24.6516 C   0  0  0  0  0  0
  -27.6063  -32.4360   25.7504 C   0  0  0  0  0  0
  -27.5566  -37.1742   24.8464 C   0  0  0  0  0  0
  -21.4378  -29.3046   22.3515 N   0  0  0  0  0  0
  -26.4267  -37.3697   23.9422 N   0  0  0  0  0  0
  -24.7682  -30.9710   22.0822 N   0  0  0  0  0  0
  -23.4212  -28.7982   23.3073 O   0  0  0  0  0  0
  -28.2362  -25.6953   20.2045 O   0  0  0  0  0  0
  -26.5714  -34.8886   22.4595 O   0  0  0  0  0  0
  -23.5780  -32.1154   23.6663 O   0  0  0  0  0  0
  -28.4149  -20.8391   18.2119 C   0  0  0  0  0  0
  -28.7213  -19.6663   18.9659 C   0  0  0  0  0  0
  -28.4211  -22.1736   18.7338 C   0  0  0  0  0  0
  -29.1423  -19.7996   20.2851 C   0  0  0  0  0  0
  -28.6060  -22.4485   20.1127 C   0  0  0  0  0  0
  -28.5373  -18.2418   18.3907 C   0  0  0  0  0  0
  -29.7156  -18.2714   20.9204 C   0  0  0  0  0  0
  -29.5480  -17.1013   18.7969 C   0  0  0  0  0  0
  -29.2444  -25.0420   16.6428 C   0  0  0  0  0  0
  -28.1001  -24.0775   20.6959 C   0  0  0  0  0  0
  -29.4834  -23.8226   17.5268 C   0  0  0  0  0  0
  -29.0083  -21.1917   20.8289 N   0  0  0  0  0  0
  -29.6882  -16.7391   20.2318 N   0  0  0  0  0  0
  -28.2392  -23.2140   17.8649 O   0  0  0  0  0  0
  -31.4428  -13.1720   19.1647 H   0  0  0  0  0  0
  -30.5686  -12.0579   20.1690 H   0  0  0  0  0  0
  -29.9641  -11.7561   17.7438 H   0  0  0  0  0  0
  -29.5375  -13.4451   17.6169 H   0  0  0  0  0  0
  -28.1163  -11.2777   19.1807 H   0  0  0  0  0  0
  -27.4348  -12.2428   17.8934 H   0  0  0  0  0  0
  -27.4975  -14.2261   19.2744 H   0  0  0  0  0  0
  -28.8468  -12.6279   21.5040 H   0  0  0  0  0  0
  -28.2436  -14.2662   21.6490 H   0  0  0  0  0  0
  -25.2789   -9.5682   22.4758 H   0  0  0  0  0  0
  -24.0015   -7.4634   22.7471 H   0  0  0  0  0  0
  -21.0849   -8.8799   19.8964 H   0  0  0  0  0  0
  -22.3723  -10.9684   19.6168 H   0  0  0  0  0  0
  -21.2011   -7.6148   23.9720 H   0  0  0  0  0  0
  -21.1484   -6.0518   25.9080 H   0  0  0  0  0  0
  -22.0596   -2.7606   23.2845 H   0  0  0  0  0  0
  -22.4023  -11.9876   22.4902 H   0  0  0  0  0  0
  -21.1005  -13.1191   22.2639 H   0  0  0  0  0  0
  -24.6434  -15.8565   20.5512 H   0  0  0  0  0  0
  -26.2665  -15.6414   20.1290 H   0  0  0  0  0  0
  -26.7446  -32.5066   23.0863 H   0  0  0  0  0  0
  -25.0109  -33.9420   25.0181 H   0  0  0  0  0  0
  -22.8145  -31.2548   21.3338 H   0  0  0  0  0  0
  -23.3774  -35.9501   23.3254 H   0  0  0  0  0  0
  -24.3586  -36.8889   22.2071 H   0  0  0  0  0  0
  -23.7220  -37.6353   23.6739 H   0  0  0  0  0  0
  -26.2581  -31.3186   20.6189 H   0  0  0  0  0  0
  -26.9266  -30.6555   22.0651 H   0  0  0  0  0  0
  -28.1768  -28.5222   21.2744 H   0  0  0  0  0  0
  -25.8743  -25.6650   19.0450 H   0  0  0  0  0  0
  -24.0144  -27.2234   18.9760 H   0  0  0  0  0  0
  -23.9123  -30.4850   19.3876 H   0  0  0  0  0  0
  -22.8487  -29.1849   19.8245 H   0  0  0  0  0  0
  -25.1329  -36.1728   25.0790 H   0  0  0  0  0  0
  -21.0034  -28.3362   24.1300 H   0  0  0  0  0  0
  -20.5701  -26.2378   23.3635 H   0  0  0  0  0  0
  -21.6664  -26.7422   22.1170 H   0  0  0  0  0  0
  -19.6922  -25.6265   21.1281 H   0  0  0  0  0  0
  -19.6685  -27.3149   20.6721 H   0  0  0  0  0  0
  -17.4213  -26.6657   21.4053 H   0  0  0  0  0  0
  -18.0363  -26.0105   22.9056 H   0  0  0  0  0  0
  -19.7967  -30.7333   24.2172 H   0  0  0  0  0  0
  -17.5039  -31.6279   24.5146 H   0  0  0  0  0  0
  -15.5378  -30.2963   23.7722 H   0  0  0  0  0  0
  -15.8699  -28.0797   22.7143 H   0  0  0  0  0  0
  -24.5750  -30.7358   25.7661 H   0  0  0  0  0  0
  -24.9054  -32.3061   26.4868 H   0  0  0  0  0  0
  -25.7893  -30.8863   27.0153 H   0  0  0  0  0  0
  -26.3144  -29.6562   24.1506 H   0  0  0  0  0  0
  -27.3936  -29.7291   25.5208 H   0  0  0  0  0  0
  -27.9119  -30.4057   23.9993 H   0  0  0  0  0  0
  -27.2640  -33.3716   26.1949 H   0  0  0  0  0  0
  -28.3933  -32.6842   25.0366 H   0  0  0  0  0  0
  -28.0685  -31.8580   26.5520 H   0  0  0  0  0  0
  -28.2544  -38.0076   24.7557 H   0  0  0  0  0  0
  -28.1093  -36.2605   24.6233 H   0  0  0  0  0  0
  -27.2292  -37.1318   25.8865 H   0  0  0  0  0  0
  -20.9675  -29.8701   21.6593 H   0  0  0  0  0  0
  -26.0104  -38.2747   24.1448 H   0  0  0  0  0  0
  -28.1581  -20.7168   17.1703 H   0  0  0  0  0  0
  -28.5285  -18.3165   17.3030 H   0  0  0  0  0  0
  -27.5319  -17.9164   18.6647 H   0  0  0  0  0  0
  -29.2525  -18.1604   21.9006 H   0  0  0  0  0  0
  -30.7683  -18.4503   21.1410 H   0  0  0  0  0  0
  -30.5403  -17.3647   18.4244 H   0  0  0  0  0  0
  -29.2582  -16.2058   18.2422 H   0  0  0  0  0  0
  -30.1966  -25.4807   16.3460 H   0  0  0  0  0  0
  -28.6773  -25.8049   17.1755 H   0  0  0  0  0  0
  -28.7016  -24.7735   15.7373 H   0  0  0  0  0  0
  -28.5141  -24.1058   21.7029 H   0  0  0  0  0  0
  -27.0298  -23.9544   20.8609 H   0  0  0  0  0  0
  -30.0278  -24.1349   18.4208 H   0  0  0  0  0  0
  -30.1168  -23.1036   17.0035 H   0  0  0  0  0  0
  1 25  1  0  0  0
  1 30  2  0  0  0
  1 83  1  0  0  0
  2  3  1  0  0  0
  2 25  1  0  0  0
  2 85  1  0  0  0
  2 86  1  0  0  0
  3  4  1  0  0  0
  3 87  1  0  0  0
  3 88  1  0  0  0
  4  5  1  0  0  0
  4 89  1  0  0  0
  4 90  1  0  0  0
  5  6  1  0  0  0
  5 26  1  0  0  0
  5 91  1  0  0  0
  6 25  1  0  0  0
  6 92  1  0  0  0
  6 93  1  0  0  0
  7  8  2  0  0  0
  7 26  1  0  0  0
  7 29  1  0  0  0
  8  9  1  0  0  0
  8 22  1  0  0  0
  9 10  1  0  0  0
  9 27  2  0  0  0
 10 11  2  0  0  0
 10 15  1  0  0  0
 11 12  1  0  0  0
 11 94  1  0  0  0
 12 13  2  0  0  0
 12 95  1  0  0  0
 13 14  1  0  0  0
 13 31  1  0  0  0
 14 15  2  0  0  0
 14 96  1  0  0  0
 15 97  1  0  0  0
 16 17  2  0  0  0
 16 21  1  0  0  0
 16 31  1  0  0  0
 17 18  1  0  0  0
 17 98  1  0  0  0
 18 19  2  0  0  0
 18 99  1  0  0  0
 19 20  1  0  0  0
 19 24  1  0  0  0
 20 21  2  0  0  0
 20100  1  0  0  0
 21 23  1  0  0  0
 22 28  1  0  0  0
 22 32  2  0  0  0
 26 27  1  0  0  0
 28101  1  0  0  0
 28102  1  0  0  0
 29103  1  0  0  0
 29104  1  0  0  0
 33 34  1  0  0  0
 33 66  1  0  0  0
 33 70  2  0  0  0
 34 36  1  0  0  0
 34 59  1  0  0  0
 34105  1  0  0  0
 35 44  2  0  0  0
 35 45  1  0  0  0
 35 68  1  0  0  0
 36 56  1  0  0  0
 36106  1  0  0  0
 37 39  1  0  0  0
 37 47  1  0  0  0
 37 66  1  0  0  0
 37107  1  0  0  0
 38 43  2  0  0  0
 38 46  1  0  0  0
 38 47  1  0  0  0
 39 64  1  0  0  0
 39 67  2  0  0  0
 40 52  1  0  0  0
 40 53  2  0  0  0
 40 58  1  0  0  0
 41108  1  0  0  0
 41109  1  0  0  0
 41110  1  0  0  0
 41 48  1  0  0  0
 42 43  1  0  0  0
 42 66  1  0  0  0
 42111  1  0  0  0
 42112  1  0  0  0
 43 44  1  0  0  0
 44113  1  0  0  0
 45 46  2  0  0  0
 45114  1  0  0  0
 46115  1  0  0  0
 47116  1  0  0  0
 47117  1  0  0  0
 48 56  1  0  0  0
 48 65  1  0  0  0
 48118  1  0  0  0
 49 50  1  0  0  0
 49 53  1  0  0  0
 49 64  1  0  0  0
 49119  1  0  0  0
 50 51  1  0  0  0
 50120  1  0  0  0
 50121  1  0  0  0
 51 52  1  0  0  0
 51122  1  0  0  0
 51123  1  0  0  0
 52124  1  0  0  0
 52125  1  0  0  0
 53 54  1  0  0  0
 54 55  2  0  0  0
 54126  1  0  0  0
 55 57  1  0  0  0
 55127  1  0  0  0
 56 69  2  0  0  0
 57 58  2  0  0  0
 57128  1  0  0  0
 58129  1  0  0  0
 59 60  1  0  0  0
 59 61  1  0  0  0
 59 62  1  0  0  0
 60130  1  0  0  0
 60131  1  0  0  0
 60132  1  0  0  0
 61133  1  0  0  0
 61134  1  0  0  0
 61135  1  0  0  0
 62136  1  0  0  0
 62137  1  0  0  0
 62138  1  0  0  0
 63 65  1  0  0  0
 63139  1  0  0  0
 63140  1  0  0  0
 63141  1  0  0  0
 64142  1  0  0  0
 65143  1  0  0  0
 68 80  1  0  0  0
 71 72  2  0  0  0
 71 73  1  0  0  0
 71144  1  0  0  0
 72 74  1  0  0  0
 72 76  1  0  0  0
 73 75  2  0  0  0
 73 84  1  0  0  0
 74 77  1  0  0  0
 74 82  2  0  0  0
 75 80  1  0  0  0
 75 82  1  0  0  0
 76 78  1  0  0  0
 76145  1  0  0  0
 76146  1  0  0  0
 77 83  1  0  0  0
 77147  1  0  0  0
 77148  1  0  0  0
 78 83  1  0  0  0
 78149  1  0  0  0
 78150  1  0  0  0
 79 81  1  0  0  0
 79151  1  0  0  0
 79152  1  0  0  0
 79153  1  0  0  0
 80154  1  0  0  0
 80155  1  0  0  0
 81 84  1  0  0  0
 81156  1  0  0  0
 81157  1  0  0  0
M  ISO  4   1 100  68 101  80 101  83 100
M  END
> <chiral flag>
0

> <version>
0

> <s_m_source_file>
/data/baiqing/PycharmProjects/Reinvent-master-3.2/result/LINK_invent/BTK/process_docking_weight1_custom_sum_contain_oxygen_bond_distance_aromatic_linkinvent_7_9_3/rearranged_h_0181.sdf

> <i_m_source_file_index>
75

> <r_mmod_Potential_Energy-OPLS-2005>
1662.34973144531

> <r_mmod_Stretch_Energy-OPLS-2005>
706.341979980469

> <r_mmod_Bend_Energy-OPLS-2005>
504.641693115234

> <r_mmod_Torsional_Energy-OPLS-2005>
374.228973388672

> <r_mmod_Improper_Torsional_Energy-OPLS-2005>
14.4212217330933

> <r_mmod_Van_der_Waal_Energy-OPLS-2005>
120.241157531738

> <r_mmod_Electrostatic_Energy-OPLS-2005>
-446.751953125

> <r_mmod_Solvation_Energy-OPLS-2005>
-225.322952270508

> <b_mmod_Minimization_Converged-OPLS-2005>
0

> <r_mmod_RMS_Derivative-OPLS-2005>
2.31348562240601

$$$$
75
                    3D
 Structure written by MMmdl.
152161  0  0  1  0            999 V2000
  -30.2575  -15.8380   20.3248 C   0  0  0  0  0  0
  -30.3989  -13.2373   19.5408 C   0  0  0  0  0  0
  -29.5495  -12.7076   18.3452 C   0  0  0  0  0  0
  -28.1449  -12.3030   18.8063 C   0  0  0  0  0  0
  -27.5864  -13.3304   19.8126 C   0  0  2  0  0  0
  -28.5877  -13.7641   20.9160 C   0  0  0  0  0  0
  -25.2285  -13.8328   20.5853 C   0  0  0  0  0  0
  -24.1689  -13.0443   20.9302 C   0  0  0  0  0  0
  -24.6421  -11.6962   20.8767 C   0  0  0  0  0  0
  -23.9130  -10.4298   21.0391 C   0  0  0  0  0  0
  -24.3662   -9.4210   21.9175 C   0  0  0  0  0  0
  -23.6320   -8.2252   22.0751 C   0  0  0  0  0  0
  -22.4300   -8.0291   21.3543 C   0  0  0  0  0  0
  -21.9950   -9.0267   20.4641 C   0  0  0  0  0  0
  -22.7294  -10.2138   20.3044 C   0  0  0  0  0  0
  -21.6862   -6.0744   22.5280 C   0  0  0  0  0  0
  -21.4020   -6.5645   23.8213 C   0  0  0  0  0  0
  -21.3662   -5.6797   24.9173 C   0  0  0  0  0  0
  -21.6043   -4.3059   24.7224 C   0  0  0  0  0  0
  -21.8817   -3.8153   23.4346 C   0  0  0  0  0  0
  -21.9195   -4.6970   22.3402 C   0  0  0  0  0  0
  -22.7697  -13.5154   21.1933 C   0  0  0  0  0  0
  -22.1662   -4.2153   21.0979 F   0  0  0  0  0  0
  -21.5628   -3.4542   25.7738 F   0  0  0  0  0  0
  -29.7248  -14.4487   20.2387 N   0  0  0  0  0  0
  -26.2754  -12.9697   20.3304 N   0  0  0  0  0  0
  -25.9377  -11.6740   20.5709 N   0  0  0  0  0  0
  -22.0375  -12.8118   22.0484 N   0  0  0  0  0  0
  -25.3878  -15.2072   20.4326 N   0  0  0  0  0  0
  -31.4916  -15.6930   20.1629 O   0  0  0  0  0  0
  -21.6652   -6.8892   21.4243 O   0  0  0  0  0  0
  -22.3361  -14.5449   20.6772 O   0  0  0  0  0  0
  -24.6976  -31.7829   23.1394 C   0  0  0  0  0  0
  -25.9488  -32.4380   23.7994 C   0  0  1  0  0  0
  -27.2308  -26.5549   20.2301 C   0  0  0  0  0  0
  -25.6005  -33.8215   24.1865 N   0  0  0  0  0  0
  -23.5308  -30.3784   21.4962 C   0  0  2  0  0  0
  -24.9902  -28.6889   20.1206 C   0  0  0  0  0  0
  -22.7831  -29.4227   22.4663 C   0  0  0  0  0  0
  -18.0347  -28.1430   22.8455 C   0  0  0  0  0  0
  -24.1497  -36.7117   23.2655 C   0  0  0  0  0  0
  -26.1173  -30.4670   21.4265 C   0  0  0  0  0  0
  -26.1810  -29.0154   20.7794 C   0  0  0  0  0  0
  -27.2783  -27.9806   20.7985 C   0  0  0  0  0  0
  -26.0076  -26.4773   19.5060 C   0  0  0  0  0  0
  -24.9514  -27.4477   19.4589 C   0  0  0  0  0  0
  -23.7932  -29.6619   20.1376 C   0  0  0  0  0  0
  -25.4153  -36.2846   24.0270 C   0  0  1  0  0  0
  -20.5991  -28.3796   23.1101 C   0  0  2  0  0  0
  -20.6813  -26.9445   22.5388 C   0  0  0  0  0  0
  -19.5772  -26.6332   21.5236 C   0  0  0  0  0  0
  -18.1959  -26.7948   22.1639 C   0  0  0  0  0  0
  -19.1620  -28.8942   23.2752 C   0  0  0  0  0  0
  -18.9531  -30.1517   23.8815 C   0  0  0  0  0  0
  -17.6523  -30.6610   24.0567 C   0  0  0  0  0  0
  -25.9142  -34.9240   23.4916 C   0  0  0  0  0  0
  -16.5407  -29.9090   23.6380 C   0  0  0  0  0  0
  -16.7328  -28.6514   23.0391 C   0  0  0  0  0  0
  -26.4619  -31.6481   25.0681 C   0  0  0  0  0  0
  -25.3644  -31.3844   26.1267 C   0  0  0  0  0  0
  -27.0574  -30.2800   24.6693 C   0  0  0  0  0  0
  -27.6038  -32.4380   25.7507 C   0  0  0  0  0  0
  -27.5559  -37.1715   24.8465 C   0  0  0  0  0  0
  -21.4466  -29.3020   22.3414 N   0  0  0  0  0  0
  -26.4266  -37.3623   23.9408 N   0  0  0  0  0  0
  -24.8069  -30.9129   22.0727 N   0  0  0  0  0  0
  -23.4210  -28.7848   23.3073 O   0  0  0  0  0  0
  -28.1645  -25.2624   20.3227 O   0  0  0  0  0  0
  -26.5802  -34.8846   22.4547 O   0  0  0  0  0  0
  -23.5964  -32.0973   23.6253 O   0  0  0  0  0  0
  -26.7586  -20.1365   21.4119 C   0  0  0  0  0  0
  -29.6947  -20.3879   19.4290 C   0  0  0  0  0  0
  -29.8459  -18.5821   19.2606 C   0  0  0  0  0  0
  -29.0934  -18.4402   21.3250 C   0  0  0  0  0  0
  -27.0760  -21.1629   19.3440 C   0  0  0  0  0  0
  -28.2059  -19.9628   21.0092 C   0  0  1  0  0  0
  -28.4552  -21.4280   20.0692 C   0  0  1  0  0  0
  -27.9772  -23.4571   20.0743 C   0  0  0  0  0  0
  -26.1465  -20.7981   20.4274 N   0  0  0  0  0  0
  -29.5952  -17.3163   20.2642 N   0  0  0  0  0  0
  -26.2512  -19.7152   22.4504 O   0  0  0  0  0  0
  -30.6058  -12.4357   20.2520 H   0  0  0  0  0  0
  -31.3780  -13.5140   19.1493 H   0  0  0  0  0  0
  -30.0464  -11.8651   17.8622 H   0  0  0  0  0  0
  -29.4693  -13.4923   17.5914 H   0  0  0  0  0  0
  -28.2186  -11.3277   19.2893 H   0  0  0  0  0  0
  -27.4739  -12.1794   17.9554 H   0  0  0  0  0  0
  -27.4171  -14.2187   19.2019 H   0  0  0  0  0  0
  -28.1121  -14.4817   21.5864 H   0  0  0  0  0  0
  -28.8978  -12.9249   21.5408 H   0  0  0  0  0  0
  -25.2798   -9.5683   22.4764 H   0  0  0  0  0  0
  -24.0019   -7.4645   22.7479 H   0  0  0  0  0  0
  -21.0879   -8.8796   19.8948 H   0  0  0  0  0  0
  -22.3752  -10.9680   19.6157 H   0  0  0  0  0  0
  -21.2014   -7.6153   23.9718 H   0  0  0  0  0  0
  -21.1484   -6.0527   25.9076 H   0  0  0  0  0  0
  -22.0593   -2.7614   23.2847 H   0  0  0  0  0  0
  -22.4032  -11.9793   22.4863 H   0  0  0  0  0  0
  -21.0981  -13.1102   22.2694 H   0  0  0  0  0  0
  -24.6196  -15.8577   20.5542 H   0  0  0  0  0  0
  -26.2441  -15.6559   20.1338 H   0  0  0  0  0  0
  -26.7581  -32.4814   23.0711 H   0  0  0  0  0  0
  -25.0039  -33.9228   24.9941 H   0  0  0  0  0  0
  -22.8641  -31.2196   21.2936 H   0  0  0  0  0  0
  -23.3780  -35.9424   23.3254 H   0  0  0  0  0  0
  -24.3558  -36.8855   22.2082 H   0  0  0  0  0  0
  -23.7238  -37.6265   23.6787 H   0  0  0  0  0  0
  -26.3360  -31.1816   20.6322 H   0  0  0  0  0  0
  -26.9623  -30.5404   22.0982 H   0  0  0  0  0  0
  -28.1684  -28.2401   21.3538 H   0  0  0  0  0  0
  -25.8153  -25.5462   18.9921 H   0  0  0  0  0  0
  -24.0571  -27.1867   18.9099 H   0  0  0  0  0  0
  -23.9801  -30.4161   19.3722 H   0  0  0  0  0  0
  -22.8948  -29.1364   19.8098 H   0  0  0  0  0  0
  -25.1370  -36.1585   25.0758 H   0  0  0  0  0  0
  -21.0070  -28.3425   24.1226 H   0  0  0  0  0  0
  -20.5708  -26.2430   23.3669 H   0  0  0  0  0  0
  -21.6661  -26.7385   22.1177 H   0  0  0  0  0  0
  -19.6920  -25.6198   21.1380 H   0  0  0  0  0  0
  -19.6712  -27.3046   20.6689 H   0  0  0  0  0  0
  -18.0339  -26.0125   22.9067 H   0  0  0  0  0  0
  -17.4221  -26.6678   21.4051 H   0  0  0  0  0  0
  -19.8014  -30.7348   24.2144 H   0  0  0  0  0  0
  -17.5083  -31.6279   24.5196 H   0  0  0  0  0  0
  -15.5406  -30.2961   23.7779 H   0  0  0  0  0  0
  -15.8725  -28.0800   22.7178 H   0  0  0  0  0  0
  -24.5861  -30.7161   25.7563 H   0  0  0  0  0  0
  -24.8800  -32.3080   26.4443 H   0  0  0  0  0  0
  -25.7785  -30.9168   27.0209 H   0  0  0  0  0  0
  -26.3320  -29.6368   24.1704 H   0  0  0  0  0  0
  -27.3956  -29.7309   25.5492 H   0  0  0  0  0  0
  -27.9318  -30.3890   24.0277 H   0  0  0  0  0  0
  -27.2557  -33.3769   26.1825 H   0  0  0  0  0  0
  -28.3978  -32.6802   25.0431 H   0  0  0  0  0  0
  -28.0563  -31.8687   26.5636 H   0  0  0  0  0  0
  -28.2535  -38.0046   24.7512 H   0  0  0  0  0  0
  -28.1095  -36.2567   24.6294 H   0  0  0  0  0  0
  -27.2272  -37.1349   25.8865 H   0  0  0  0  0  0
  -20.9802  -29.8670   21.6454 H   0  0  0  0  0  0
  -26.0078  -38.2663   24.1423 H   0  0  0  0  0  0
  -29.8871  -20.7753   18.4279 H   0  0  0  0  0  0
  -30.5900  -20.6796   19.9801 H   0  0  0  0  0  0
  -30.8559  -18.4142   18.8847 H   0  0  0  0  0  0
  -29.2148  -18.3329   18.4067 H   0  0  0  0  0  0
  -28.4772  -17.8765   22.0270 H   0  0  0  0  0  0
  -29.9732  -18.7057   21.9129 H   0  0  0  0  0  0
  -27.1467  -20.3516   18.6150 H   0  0  0  0  0  0
  -26.6506  -21.9731   18.7554 H   0  0  0  0  0  0
  -27.8015  -19.2654   20.2701 H   0  0  0  0  0  0
  -26.9626  -23.4161   20.4718 H   0  0  0  0  0  0
  -27.8873  -23.5988   18.9976 H   0  0  0  0  0  0
  -25.1640  -21.0415   20.4241 H   0  0  0  0  0  0
  1 25  1  0  0  0
  1 30  2  0  0  0
  1 80  1  0  0  0
  2  3  1  0  0  0
  2 25  1  0  0  0
  2 82  1  0  0  0
  2 83  1  0  0  0
  3  4  1  0  0  0
  3 84  1  0  0  0
  3 85  1  0  0  0
  4  5  1  0  0  0
  4 86  1  0  0  0
  4 87  1  0  0  0
  5  6  1  0  0  0
  5 26  1  0  0  0
  5 88  1  0  0  0
  6 25  1  0  0  0
  6 89  1  0  0  0
  6 90  1  0  0  0
  7  8  2  0  0  0
  7 26  1  0  0  0
  7 29  1  0  0  0
  8  9  1  0  0  0
  8 22  1  0  0  0
  9 10  1  0  0  0
  9 27  2  0  0  0
 10 11  2  0  0  0
 10 15  1  0  0  0
 11 12  1  0  0  0
 11 91  1  0  0  0
 12 13  2  0  0  0
 12 92  1  0  0  0
 13 14  1  0  0  0
 13 31  1  0  0  0
 14 15  2  0  0  0
 14 93  1  0  0  0
 15 94  1  0  0  0
 16 17  2  0  0  0
 16 21  1  0  0  0
 16 31  1  0  0  0
 17 18  1  0  0  0
 17 95  1  0  0  0
 18 19  2  0  0  0
 18 96  1  0  0  0
 19 20  1  0  0  0
 19 24  1  0  0  0
 20 21  2  0  0  0
 20 97  1  0  0  0
 21 23  1  0  0  0
 22 28  1  0  0  0
 22 32  2  0  0  0
 26 27  1  0  0  0
 28 98  1  0  0  0
 28 99  1  0  0  0
 29100  1  0  0  0
 29101  1  0  0  0
 33 34  1  0  0  0
 33 66  1  0  0  0
 33 70  2  0  0  0
 34 36  1  0  0  0
 34 59  1  0  0  0
 34102  1  0  0  0
 35 44  2  0  0  0
 35 45  1  0  0  0
 35 68  1  0  0  0
 36 56  1  0  0  0
 36103  1  0  0  0
 37 39  1  0  0  0
 37 47  1  0  0  0
 37 66  1  0  0  0
 37104  1  0  0  0
 38 43  2  0  0  0
 38 46  1  0  0  0
 38 47  1  0  0  0
 39 64  1  0  0  0
 39 67  2  0  0  0
 40 52  1  0  0  0
 40 53  2  0  0  0
 40 58  1  0  0  0
 41105  1  0  0  0
 41106  1  0  0  0
 41107  1  0  0  0
 41 48  1  0  0  0
 42 43  1  0  0  0
 42 66  1  0  0  0
 42108  1  0  0  0
 42109  1  0  0  0
 43 44  1  0  0  0
 44110  1  0  0  0
 45 46  2  0  0  0
 45111  1  0  0  0
 46112  1  0  0  0
 47113  1  0  0  0
 47114  1  0  0  0
 48 56  1  0  0  0
 48 65  1  0  0  0
 48115  1  0  0  0
 49 50  1  0  0  0
 49 53  1  0  0  0
 49 64  1  0  0  0
 49116  1  0  0  0
 50 51  1  0  0  0
 50117  1  0  0  0
 50118  1  0  0  0
 51 52  1  0  0  0
 51119  1  0  0  0
 51120  1  0  0  0
 52121  1  0  0  0
 52122  1  0  0  0
 53 54  1  0  0  0
 54 55  2  0  0  0
 54123  1  0  0  0
 55 57  1  0  0  0
 55124  1  0  0  0
 56 69  2  0  0  0
 57 58  2  0  0  0
 57125  1  0  0  0
 58126  1  0  0  0
 59 60  1  0  0  0
 59 61  1  0  0  0
 59 62  1  0  0  0
 60127  1  0  0  0
 60128  1  0  0  0
 60129  1  0  0  0
 61130  1  0  0  0
 61131  1  0  0  0
 61132  1  0  0  0
 62133  1  0  0  0
 62134  1  0  0  0
 62135  1  0  0  0
 63 65  1  0  0  0
 63136  1  0  0  0
 63137  1  0  0  0
 63138  1  0  0  0
 64139  1  0  0  0
 65140  1  0  0  0
 68 78  1  0  0  0
 71 76  1  0  0  0
 71 79  1  0  0  0
 71 81  2  0  0  0
 72 73  1  0  0  0
 72 77  1  0  0  0
 72141  1  0  0  0
 72142  1  0  0  0
 73 80  1  0  0  0
 73143  1  0  0  0
 73144  1  0  0  0
 74 80  1  0  0  0
 74145  1  0  0  0
 74146  1  0  0  0
 74 76  1  0  0  0
 75 77  1  0  0  0
 75 79  1  0  0  0
 75147  1  0  0  0
 75148  1  0  0  0
 76 77  1  0  0  0
 76149  1  0  0  0
 77 78  1  0  0  0
 78150  1  0  0  0
 78151  1  0  0  0
 79152  1  0  0  0
M  ISO  4   1 100  68 101  78 101  80 100
M  END
> <chiral flag>
0

> <version>
0

> <s_m_source_file>
/data/baiqing/PycharmProjects/Reinvent-master-3.2/result/LINK_invent/BTK/process_docking_weight1_custom_sum_contain_oxygen_bond_distance_aromatic_linkinvent_7_9_3/rearranged_h_0181.sdf

> <i_m_source_file_index>
76

> <r_mmod_Potential_Energy-OPLS-2005>
3834.69018554688

> <r_mmod_Stretch_Energy-OPLS-2005>
1410.66467285156

> <r_mmod_Bend_Energy-OPLS-2005>
1218.544921875

> <r_mmod_Torsional_Energy-OPLS-2005>
366.406402587891

> <r_mmod_Improper_Torsional_Energy-OPLS-2005>
12.0927772521973

> <r_mmod_Van_der_Waal_Energy-OPLS-2005>
155.50602722168

> <r_mmod_Electrostatic_Energy-OPLS-2005>
-313.173583984375

> <r_mmod_Solvation_Energy-OPLS-2005>
-244.974151611328

> <b_mmod_Minimization_Converged-OPLS-2005>
0

> <r_mmod_RMS_Derivative-OPLS-2005>
0.586152374744415

$$$$
76
                    3D
 Structure written by MMmdl.
172182  0  0  1  0            999 V2000
  -30.7033  -14.7537   20.4640 C   0  0  0  0  0  0
  -30.4089  -12.4727   19.4800 C   0  0  0  0  0  0
  -29.4963  -12.4931   18.2383 C   0  0  0  0  0  0
  -28.0282  -12.3164   18.6603 C   0  0  0  0  0  0
  -27.6328  -13.2336   19.8470 C   0  0  2  0  0  0
  -28.6843  -13.2240   20.9804 C   0  0  0  0  0  0
  -25.2483  -13.8198   20.5725 C   0  0  0  0  0  0
  -24.1789  -13.0432   20.9237 C   0  0  0  0  0  0
  -24.6390  -11.6915   20.8771 C   0  0  0  0  0  0
  -23.9077  -10.4284   21.0423 C   0  0  0  0  0  0
  -24.3623   -9.4198   21.9200 C   0  0  0  0  0  0
  -23.6298   -8.2234   22.0759 C   0  0  0  0  0  0
  -22.4286   -8.0273   21.3542 C   0  0  0  0  0  0
  -21.9919   -9.0252   20.4650 C   0  0  0  0  0  0
  -22.7250  -10.2132   20.3074 C   0  0  0  0  0  0
  -21.6854   -6.0734   22.5280 C   0  0  0  0  0  0
  -21.4006   -6.5639   23.8210 C   0  0  0  0  0  0
  -21.3658   -5.6799   24.9178 C   0  0  0  0  0  0
  -21.6052   -4.3063   24.7232 C   0  0  0  0  0  0
  -21.8820   -3.8150   23.4354 C   0  0  0  0  0  0
  -21.9189   -4.6961   22.3408 C   0  0  0  0  0  0
  -22.7808  -13.5192   21.1883 C   0  0  0  0  0  0
  -22.1666   -4.2142   21.0989 F   0  0  0  0  0  0
  -21.5624   -3.4552   25.7745 F   0  0  0  0  0  0
  -29.9712  -13.5812   20.3719 N   0  0  0  0  0  0
  -26.2907  -12.9408   20.3334 N   0  0  0  0  0  0
  -25.9322  -11.6549   20.5800 N   0  0  0  0  0  0
  -22.0464  -12.8173   22.0447 N   0  0  0  0  0  0
  -25.4153  -15.1916   20.4091 N   0  0  0  0  0  0
  -31.9065  -14.6763   20.1961 O   0  0  0  0  0  0
  -21.6647   -6.8874   21.4242 O   0  0  0  0  0  0
  -22.3483  -14.5498   20.6732 O   0  0  0  0  0  0
  -24.6323  -31.8552   23.2047 C   0  0  0  0  0  0
  -25.9155  -32.4742   23.8378 C   0  0  1  0  0  0
  -27.1936  -27.2549   20.1294 C   0  0  0  0  0  0
  -25.5941  -33.8553   24.2274 N   0  0  0  0  0  0
  -23.4288  -30.4849   21.5450 C   0  0  2  0  0  0
  -24.8723  -28.9428   20.1039 C   0  0  0  0  0  0
  -22.7500  -29.4622   22.4901 C   0  0  0  0  0  0
  -18.0303  -28.1400   22.8468 C   0  0  0  0  0  0
  -24.1485  -36.7288   23.2637 C   0  0  0  0  0  0
  -25.9771  -30.7682   21.3860 C   0  0  0  0  0  0
  -26.0474  -29.3942   20.7221 C   0  0  0  0  0  0
  -27.2155  -28.5617   20.7247 C   0  0  0  0  0  0
  -26.0030  -26.8895   19.4650 C   0  0  0  0  0  0
  -24.8571  -27.7001   19.4622 C   0  0  0  0  0  0
  -23.6449  -29.8291   20.1578 C   0  0  0  0  0  0
  -25.4113  -36.3067   24.0312 C   0  0  1  0  0  0
  -20.5899  -28.3709   23.1250 C   0  0  2  0  0  0
  -20.6794  -26.9421   22.5407 C   0  0  0  0  0  0
  -19.5769  -26.6392   21.5212 C   0  0  0  0  0  0
  -18.1947  -26.7940   22.1615 C   0  0  0  0  0  0
  -19.1552  -28.8871   23.2862 C   0  0  0  0  0  0
  -18.9480  -30.1468   23.8885 C   0  0  0  0  0  0
  -17.6482  -30.6598   24.0559 C   0  0  0  0  0  0
  -25.9052  -34.9427   23.5094 C   0  0  0  0  0  0
  -16.5371  -29.9088   23.6353 C   0  0  0  0  0  0
  -16.7291  -28.6511   23.0368 C   0  0  0  0  0  0
  -26.4523  -31.6577   25.0773 C   0  0  0  0  0  0
  -25.3746  -31.3705   26.1488 C   0  0  0  0  0  0
  -27.0364  -30.2983   24.6293 C   0  0  0  0  0  0
  -27.6074  -32.4331   25.7532 C   0  0  0  0  0  0
  -27.5580  -37.1803   24.8464 C   0  0  0  0  0  0
  -21.4202  -29.3055   22.3627 N   0  0  0  0  0  0
  -26.4299  -37.3759   23.9401 N   0  0  0  0  0  0
  -24.6984  -31.0543   22.1009 N   0  0  0  0  0  0
  -23.4197  -28.8157   23.3001 O   0  0  0  0  0  0
  -28.2293  -26.2936   20.1758 O   0  0  0  0  0  0
  -26.5626  -34.8882   22.4666 O   0  0  0  0  0  0
  -23.5477  -32.1367   23.7350 O   0  0  0  0  0  0
  -29.1416  -21.4388   21.3913 C   0  0  0  0  0  0
  -29.1502  -20.6921   20.1843 C   0  0  0  0  0  0
  -28.8579  -21.4984   19.0126 C   0  0  0  0  0  0
  -28.4480  -22.8860   19.1837 C   0  0  0  0  0  0
  -28.4812  -23.5325   20.4538 C   0  0  0  0  0  0
  -27.9025  -23.7084   18.0218 C   0  0  0  0  0  0
  -27.4859  -22.8690   16.8258 C   0  0  0  0  0  0
  -28.6384  -21.9546   16.4608 C   0  0  0  0  0  0
  -30.6932  -18.6545   21.0664 C   0  0  0  0  0  0
  -28.4211  -18.0751   20.6213 C   0  0  0  0  0  0
  -31.1628  -17.1721   20.7936 C   0  0  0  0  0  0
  -28.7858  -16.5345   20.3974 C   0  0  0  0  0  0
  -29.5057  -19.1136   20.1981 C   0  0  0  0  0  0
  -28.9811  -20.9187   17.5654 C   0  0  0  0  0  0
  -27.9998  -19.7385   17.3342 C   0  0  0  0  0  0
  -30.4518  -20.5403   17.2482 C   0  0  0  0  0  0
  -27.8453  -24.9719   20.7960 C   0  0  0  0  0  0
  -28.8525  -22.7713   21.5194 N   0  0  0  0  0  0
  -30.1688  -16.0425   20.6960 N   0  0  0  0  0  0
  -31.4504  -12.5555   19.1671 H   0  0  0  0  0  0
  -30.3390  -11.5137   19.9962 H   0  0  0  0  0  0
  -29.7794  -11.7006   17.5445 H   0  0  0  0  0  0
  -29.6182  -13.4337   17.6996 H   0  0  0  0  0  0
  -27.8952  -11.2716   18.9412 H   0  0  0  0  0  0
  -27.3660  -12.4887   17.8114 H   0  0  0  0  0  0
  -27.6050  -14.2360   19.4275 H   0  0  0  0  0  0
  -28.7369  -12.2401   21.4488 H   0  0  0  0  0  0
  -28.4236  -13.9197   21.7782 H   0  0  0  0  0  0
  -25.2758   -9.5671   22.4796 H   0  0  0  0  0  0
  -24.0003   -7.4613   22.7471 H   0  0  0  0  0  0
  -21.0857   -8.8773   19.8938 H   0  0  0  0  0  0
  -22.3710  -10.9682   19.6195 H   0  0  0  0  0  0
  -21.2000   -7.6146   23.9710 H   0  0  0  0  0  0
  -21.1484   -6.0534   25.9077 H   0  0  0  0  0  0
  -22.0601   -2.7612   23.2866 H   0  0  0  0  0  0
  -22.4049  -11.9809   22.4805 H   0  0  0  0  0  0
  -21.1088  -13.1206   22.2664 H   0  0  0  0  0  0
  -24.6498  -15.8471   20.5228 H   0  0  0  0  0  0
  -26.2689  -15.6315   20.0919 H   0  0  0  0  0  0
  -26.7207  -32.5374   23.1107 H   0  0  0  0  0  0
  -25.0074  -33.9687   25.0406 H   0  0  0  0  0  0
  -22.7272  -31.3094   21.4006 H   0  0  0  0  0  0
  -23.3742  -35.9629   23.3308 H   0  0  0  0  0  0
  -24.3588  -36.8926   22.2061 H   0  0  0  0  0  0
  -23.7246  -37.6485   23.6675 H   0  0  0  0  0  0
  -26.1202  -31.5352   20.6233 H   0  0  0  0  0  0
  -26.8531  -30.8099   22.0219 H   0  0  0  0  0  0
  -28.1103  -28.8949   21.2324 H   0  0  0  0  0  0
  -25.9269  -25.9429   18.9591 H   0  0  0  0  0  0
  -23.9622  -27.3579   18.9615 H   0  0  0  0  0  0
  -23.7624  -30.6083   19.4031 H   0  0  0  0  0  0
  -22.7638  -29.2602   19.8564 H   0  0  0  0  0  0
  -25.1292  -36.1916   25.0802 H   0  0  0  0  0  0
  -20.9994  -28.3303   24.1373 H   0  0  0  0  0  0
  -20.5710  -26.2309   23.3613 H   0  0  0  0  0  0
  -21.6664  -26.7454   22.1192 H   0  0  0  0  0  0
  -19.6938  -25.6303   21.1253 H   0  0  0  0  0  0
  -19.6737  -27.3185   20.6728 H   0  0  0  0  0  0
  -17.4226  -26.6690   21.4011 H   0  0  0  0  0  0
  -18.0344  -26.0078   22.9003 H   0  0  0  0  0  0
  -19.7963  -30.7281   24.2252 H   0  0  0  0  0  0
  -17.5046  -31.6275   24.5165 H   0  0  0  0  0  0
  -15.5376  -30.2995   23.7692 H   0  0  0  0  0  0
  -15.8686  -28.0827   22.7113 H   0  0  0  0  0  0
  -24.5992  -30.6953   25.7847 H   0  0  0  0  0  0
  -24.8831  -32.2827   26.4868 H   0  0  0  0  0  0
  -25.8084  -30.8966   27.0298 H   0  0  0  0  0  0
  -26.2941  -29.6722   24.1324 H   0  0  0  0  0  0
  -27.4001  -29.7274   25.4851 H   0  0  0  0  0  0
  -27.8843  -30.4236   23.9553 H   0  0  0  0  0  0
  -27.2712  -33.3670   26.2047 H   0  0  0  0  0  0
  -28.3918  -32.6830   25.0375 H   0  0  0  0  0  0
  -28.0691  -31.8479   26.5503 H   0  0  0  0  0  0
  -28.2592  -38.0108   24.7512 H   0  0  0  0  0  0
  -28.1072  -36.2633   24.6281 H   0  0  0  0  0  0
  -27.2286  -37.1443   25.8864 H   0  0  0  0  0  0
  -20.9386  -29.8787   21.6838 H   0  0  0  0  0  0
  -26.0167  -38.2819   24.1435 H   0  0  0  0  0  0
  -29.3803  -20.9396   22.3184 H   0  0  0  0  0  0
  -28.6539  -24.4424   17.7261 H   0  0  0  0  0  0
  -27.0267  -24.2643   18.3422 H   0  0  0  0  0  0
  -27.2334  -23.5144   15.9847 H   0  0  0  0  0  0
  -26.5896  -22.2900   17.0525 H   0  0  0  0  0  0
  -29.4944  -22.6041   16.2726 H   0  0  0  0  0  0
  -28.4431  -21.4638   15.5064 H   0  0  0  0  0  0
  -31.5405  -19.3164   20.8853 H   0  0  0  0  0  0
  -30.4515  -18.7751   22.1237 H   0  0  0  0  0  0
  -28.1826  -18.2270   21.6755 H   0  0  0  0  0  0
  -27.4891  -18.2850   20.0952 H   0  0  0  0  0  0
  -31.9057  -16.9142   21.5510 H   0  0  0  0  0  0
  -31.7067  -17.1946   19.8466 H   0  0  0  0  0  0
  -28.5934  -16.2957   19.3510 H   0  0  0  0  0  0
  -28.0805  -15.9534   20.9860 H   0  0  0  0  0  0
  -29.7881  -18.8192   19.2015 H   0  0  0  0  0  0
  -26.9712  -20.0412   17.5271 H   0  0  0  0  0  0
  -28.1766  -18.8610   17.9419 H   0  0  0  0  0  0
  -28.0403  -19.3847   16.3048 H   0  0  0  0  0  0
  -31.0876  -21.4266   17.2763 H   0  0  0  0  0  0
  -30.5370  -20.1139   16.2483 H   0  0  0  0  0  0
  -30.9281  -19.8442   17.9270 H   0  0  0  0  0  0
  -27.9976  -25.1264   21.8654 H   0  0  0  0  0  0
  -26.7689  -24.8123   20.7252 H   0  0  0  0  0  0
  1 25  1  0  0  0
  1 30  2  0  0  0
  1 89  1  0  0  0
  2  3  1  0  0  0
  2 25  1  0  0  0
  2 90  1  0  0  0
  2 91  1  0  0  0
  3  4  1  0  0  0
  3 92  1  0  0  0
  3 93  1  0  0  0
  4  5  1  0  0  0
  4 94  1  0  0  0
  4 95  1  0  0  0
  5  6  1  0  0  0
  5 26  1  0  0  0
  5 96  1  0  0  0
  6 25  1  0  0  0
  6 97  1  0  0  0
  6 98  1  0  0  0
  7  8  2  0  0  0
  7 26  1  0  0  0
  7 29  1  0  0  0
  8  9  1  0  0  0
  8 22  1  0  0  0
  9 10  1  0  0  0
  9 27  2  0  0  0
 10 11  2  0  0  0
 10 15  1  0  0  0
 11 12  1  0  0  0
 11 99  1  0  0  0
 12 13  2  0  0  0
 12100  1  0  0  0
 13 14  1  0  0  0
 13 31  1  0  0  0
 14 15  2  0  0  0
 14101  1  0  0  0
 15102  1  0  0  0
 16 17  2  0  0  0
 16 21  1  0  0  0
 16 31  1  0  0  0
 17 18  1  0  0  0
 17103  1  0  0  0
 18 19  2  0  0  0
 18104  1  0  0  0
 19 20  1  0  0  0
 19 24  1  0  0  0
 20 21  2  0  0  0
 20105  1  0  0  0
 21 23  1  0  0  0
 22 28  1  0  0  0
 22 32  2  0  0  0
 26 27  1  0  0  0
 28106  1  0  0  0
 28107  1  0  0  0
 29108  1  0  0  0
 29109  1  0  0  0
 33 34  1  0  0  0
 33 66  1  0  0  0
 33 70  2  0  0  0
 34 36  1  0  0  0
 34 59  1  0  0  0
 34110  1  0  0  0
 35 44  2  0  0  0
 35 45  1  0  0  0
 35 68  1  0  0  0
 36 56  1  0  0  0
 36111  1  0  0  0
 37 39  1  0  0  0
 37 47  1  0  0  0
 37 66  1  0  0  0
 37112  1  0  0  0
 38 43  2  0  0  0
 38 46  1  0  0  0
 38 47  1  0  0  0
 39 64  1  0  0  0
 39 67  2  0  0  0
 40 52  1  0  0  0
 40 53  2  0  0  0
 40 58  1  0  0  0
 41113  1  0  0  0
 41114  1  0  0  0
 41115  1  0  0  0
 41 48  1  0  0  0
 42 43  1  0  0  0
 42 66  1  0  0  0
 42116  1  0  0  0
 42117  1  0  0  0
 43 44  1  0  0  0
 44118  1  0  0  0
 45 46  2  0  0  0
 45119  1  0  0  0
 46120  1  0  0  0
 47121  1  0  0  0
 47122  1  0  0  0
 48 56  1  0  0  0
 48 65  1  0  0  0
 48123  1  0  0  0
 49 50  1  0  0  0
 49 53  1  0  0  0
 49 64  1  0  0  0
 49124  1  0  0  0
 50 51  1  0  0  0
 50125  1  0  0  0
 50126  1  0  0  0
 51 52  1  0  0  0
 51127  1  0  0  0
 51128  1  0  0  0
 52129  1  0  0  0
 52130  1  0  0  0
 53 54  1  0  0  0
 54 55  2  0  0  0
 54131  1  0  0  0
 55 57  1  0  0  0
 55132  1  0  0  0
 56 69  2  0  0  0
 57 58  2  0  0  0
 57133  1  0  0  0
 58134  1  0  0  0
 59 60  1  0  0  0
 59 61  1  0  0  0
 59 62  1  0  0  0
 60135  1  0  0  0
 60136  1  0  0  0
 60137  1  0  0  0
 61138  1  0  0  0
 61139  1  0  0  0
 61140  1  0  0  0
 62141  1  0  0  0
 62142  1  0  0  0
 62143  1  0  0  0
 63 65  1  0  0  0
 63144  1  0  0  0
 63145  1  0  0  0
 63146  1  0  0  0
 64147  1  0  0  0
 65148  1  0  0  0
 68 87  1  0  0  0
 71 72  2  0  0  0
 71 88  1  0  0  0
 71149  1  0  0  0
 72 73  1  0  0  0
 72 83  1  0  0  0
 73 74  2  0  0  0
 73 84  1  0  0  0
 74 75  1  0  0  0
 74 76  1  0  0  0
 75 87  1  0  0  0
 75 88  2  0  0  0
 76 77  1  0  0  0
 76150  1  0  0  0
 76151  1  0  0  0
 77 78  1  0  0  0
 77152  1  0  0  0
 77153  1  0  0  0
 78 84  1  0  0  0
 78154  1  0  0  0
 78155  1  0  0  0
 79 81  1  0  0  0
 79 83  1  0  0  0
 79156  1  0  0  0
 79157  1  0  0  0
 80 82  1  0  0  0
 80 83  1  0  0  0
 80158  1  0  0  0
 80159  1  0  0  0
 81 89  1  0  0  0
 81160  1  0  0  0
 81161  1  0  0  0
 82 89  1  0  0  0
 82162  1  0  0  0
 82163  1  0  0  0
 83164  1  0  0  0
 84 85  1  0  0  0
 84 86  1  0  0  0
 85165  1  0  0  0
 85166  1  0  0  0
 85167  1  0  0  0
 86168  1  0  0  0
 86169  1  0  0  0
 86170  1  0  0  0
 87171  1  0  0  0
 87172  1  0  0  0
M  ISO  4   1 100  68 101  87 101  89 100
M  END
> <chiral flag>
0

> <version>
0

> <s_m_source_file>
/data/baiqing/PycharmProjects/Reinvent-master-3.2/result/LINK_invent/BTK/process_docking_weight1_custom_sum_contain_oxygen_bond_distance_aromatic_linkinvent_7_9_3/rearranged_h_0181.sdf

> <i_m_source_file_index>
77

> <r_mmod_Potential_Energy-OPLS-2005>
360.671539306641

> <r_mmod_Stretch_Energy-OPLS-2005>
140.390472412109

> <r_mmod_Bend_Energy-OPLS-2005>
238.902526855469

> <r_mmod_Torsional_Energy-OPLS-2005>
347.488159179688

> <r_mmod_Improper_Torsional_Energy-OPLS-2005>
5.55377817153931

> <r_mmod_Van_der_Waal_Energy-OPLS-2005>
171.292144775391

> <r_mmod_Electrostatic_Energy-OPLS-2005>
-433.369018554688

> <r_mmod_Solvation_Energy-OPLS-2005>
-211.505432128906

> <b_mmod_Minimization_Converged-OPLS-2005>
0

> <r_mmod_RMS_Derivative-OPLS-2005>
2.048832654953

$$$$
77
                    3D
 Structure written by MMmdl.
165174  0  0  1  0            999 V2000
  -30.6592  -14.6074   20.4989 C   0  0  0  0  0  0
  -30.4242  -12.3733   19.4511 C   0  0  0  0  0  0
  -29.5021  -12.5030   18.2197 C   0  0  0  0  0  0
  -28.0228  -12.3528   18.6284 C   0  0  0  0  0  0
  -27.6495  -13.2184   19.8625 C   0  0  2  0  0  0
  -28.6941  -13.0667   20.9895 C   0  0  0  0  0  0
  -25.2540  -13.8174   20.5687 C   0  0  0  0  0  0
  -24.1810  -13.0438   20.9192 C   0  0  0  0  0  0
  -24.6381  -11.6910   20.8739 C   0  0  0  0  0  0
  -23.9050  -10.4294   21.0404 C   0  0  0  0  0  0
  -24.3603   -9.4211   21.9182 C   0  0  0  0  0  0
  -23.6282   -8.2243   22.0751 C   0  0  0  0  0  0
  -22.4266   -8.0276   21.3541 C   0  0  0  0  0  0
  -21.9896   -9.0252   20.4647 C   0  0  0  0  0  0
  -22.7221  -10.2133   20.3057 C   0  0  0  0  0  0
  -21.6852   -6.0726   22.5273 C   0  0  0  0  0  0
  -21.4018   -6.5633   23.8205 C   0  0  0  0  0  0
  -21.3664   -5.6785   24.9169 C   0  0  0  0  0  0
  -21.6046   -4.3047   24.7223 C   0  0  0  0  0  0
  -21.8822   -3.8139   23.4344 C   0  0  0  0  0  0
  -21.9194   -4.6954   22.3398 C   0  0  0  0  0  0
  -22.7832  -13.5233   21.1852 C   0  0  0  0  0  0
  -22.1662   -4.2141   21.0976 F   0  0  0  0  0  0
  -21.5629   -3.4533   25.7734 F   0  0  0  0  0  0
  -30.0045  -13.4057   20.4196 N   0  0  0  0  0  0
  -26.2966  -12.9359   20.3323 N   0  0  0  0  0  0
  -25.9308  -11.6512   20.5754 N   0  0  0  0  0  0
  -22.0473  -12.8234   22.0413 N   0  0  0  0  0  0
  -25.4246  -15.1891   20.4089 N   0  0  0  0  0  0
  -31.8398  -14.6975   20.1444 O   0  0  0  0  0  0
  -21.6637   -6.8869   21.4235 O   0  0  0  0  0  0
  -22.3521  -14.5538   20.6695 O   0  0  0  0  0  0
  -24.6230  -31.8619   23.2043 C   0  0  0  0  0  0
  -25.9089  -32.4786   23.8360 C   0  0  1  0  0  0
  -27.2270  -27.3468   20.0996 C   0  0  0  0  0  0
  -25.5917  -33.8587   24.2289 N   0  0  0  0  0  0
  -23.4143  -30.4862   21.5467 C   0  0  2  0  0  0
  -24.8585  -28.9436   20.1114 C   0  0  0  0  0  0
  -22.7454  -29.4632   22.4950 C   0  0  0  0  0  0
  -18.0282  -28.1381   22.8485 C   0  0  0  0  0  0
  -24.1489  -36.7299   23.2639 C   0  0  0  0  0  0
  -25.9526  -30.7999   21.3708 C   0  0  0  0  0  0
  -26.0250  -29.4292   20.7129 C   0  0  0  0  0  0
  -27.2076  -28.6390   20.7030 C   0  0  0  0  0  0
  -26.0263  -26.8927   19.5046 C   0  0  0  0  0  0
  -24.8590  -27.6787   19.5041 C   0  0  0  0  0  0
  -23.6259  -29.8211   20.1611 C   0  0  0  0  0  0
  -25.4111  -36.3089   24.0331 C   0  0  1  0  0  0
  -20.5878  -28.3679   23.1293 C   0  0  2  0  0  0
  -20.6771  -26.9404   22.5414 C   0  0  0  0  0  0
  -19.5749  -26.6379   21.5211 C   0  0  0  0  0  0
  -18.1927  -26.7925   22.1618 C   0  0  0  0  0  0
  -19.1533  -28.8846   23.2886 C   0  0  0  0  0  0
  -18.9458  -30.1451   23.8902 C   0  0  0  0  0  0
  -17.6457  -30.6584   24.0561 C   0  0  0  0  0  0
  -25.9046  -34.9455   23.5110 C   0  0  0  0  0  0
  -16.5349  -29.9081   23.6327 C   0  0  0  0  0  0
  -16.7270  -28.6499   23.0349 C   0  0  0  0  0  0
  -26.4484  -31.6591   25.0723 C   0  0  0  0  0  0
  -25.3730  -31.3729   26.1463 C   0  0  0  0  0  0
  -27.0321  -30.3017   24.6160 C   0  0  0  0  0  0
  -27.6053  -32.4322   25.7487 C   0  0  0  0  0  0
  -27.5581  -37.1801   24.8461 C   0  0  0  0  0  0
  -21.4172  -29.3038   22.3693 N   0  0  0  0  0  0
  -26.4291  -37.3779   23.9409 N   0  0  0  0  0  0
  -24.6820  -31.0654   22.0978 N   0  0  0  0  0  0
  -23.4192  -28.8169   23.3013 O   0  0  0  0  0  0
  -28.3797  -26.5566   20.1562 O   0  0  0  0  0  0
  -26.5609  -34.8919   22.4674 O   0  0  0  0  0  0
  -23.5404  -32.1401   23.7394 O   0  0  0  0  0  0
  -29.6996  -23.7041   21.0426 C   0  0  0  0  0  0
  -28.7653  -23.9576   20.0043 C   0  0  0  0  0  0
  -29.3560  -21.4294   20.7972 C   0  0  0  0  0  0
  -29.3856  -17.7736   21.9701 C   0  0  0  0  0  0
  -30.2632  -18.1766   19.7077 C   0  0  0  0  0  0
  -29.0937  -16.2770   21.6145 C   0  0  0  0  0  0
  -29.9201  -16.6982   19.3413 C   0  0  0  0  0  0
  -29.3321  -18.7793   20.7842 C   0  0  0  0  0  0
  -32.3969  -25.2773   23.2357 C   0  0  0  0  0  0
  -30.4628  -24.8235   21.7401 C   0  0  0  0  0  0
  -28.5460  -25.3561   19.3283 C   0  0  0  0  0  0
  -29.9811  -22.4236   21.4378 N   0  0  0  0  0  0
  -28.1582  -22.8753   19.4258 N   0  0  0  0  0  0
  -28.4502  -21.6093   19.8197 N   0  0  0  0  0  0
  -29.8803  -15.7455   20.4805 N   0  0  0  0  0  0
  -29.7347  -20.1459   21.2119 N   0  0  0  0  0  0
  -31.7067  -24.3198   22.3511 N   0  3  0  0  0  0
  -31.4686  -12.4761   19.1516 H   0  0  0  0  0  0
  -30.3392  -11.3796   19.8934 H   0  0  0  0  0  0
  -29.7615  -11.7523   17.4719 H   0  0  0  0  0  0
  -29.6559  -13.4735   17.7448 H   0  0  0  0  0  0
  -27.8493  -11.2989   18.8498 H   0  0  0  0  0  0
  -27.3722  -12.5963   17.7877 H   0  0  0  0  0  0
  -27.6686  -14.2555   19.5285 H   0  0  0  0  0  0
  -28.7020  -12.0433   21.3673 H   0  0  0  0  0  0
  -28.4426  -13.6922   21.8435 H   0  0  0  0  0  0
  -25.2749   -9.5690   22.4752 H   0  0  0  0  0  0
  -23.9995   -7.4636   22.7471 H   0  0  0  0  0  0
  -21.0826   -8.8768   19.8953 H   0  0  0  0  0  0
  -22.3676  -10.9668   19.6163 H   0  0  0  0  0  0
  -21.2013   -7.6140   23.9705 H   0  0  0  0  0  0
  -21.1484   -6.0516   25.9070 H   0  0  0  0  0  0
  -22.0599   -2.7600   23.2844 H   0  0  0  0  0  0
  -22.4076  -11.9899   22.4816 H   0  0  0  0  0  0
  -21.1091  -13.1267   22.2611 H   0  0  0  0  0  0
  -24.6594  -15.8453   20.5187 H   0  0  0  0  0  0
  -26.2781  -15.6252   20.0847 H   0  0  0  0  0  0
  -26.7157  -32.5459   23.1110 H   0  0  0  0  0  0
  -25.0073  -33.9734   25.0441 H   0  0  0  0  0  0
  -22.7063  -31.3056   21.4060 H   0  0  0  0  0  0
  -23.3748  -35.9635   23.3304 H   0  0  0  0  0  0
  -24.3585  -36.8914   22.2053 H   0  0  0  0  0  0
  -23.7244  -37.6504   23.6658 H   0  0  0  0  0  0
  -26.0815  -31.5648   20.6037 H   0  0  0  0  0  0
  -26.8341  -30.8474   21.9983 H   0  0  0  0  0  0
  -28.1048  -29.0103   21.1781 H   0  0  0  0  0  0
  -25.9383  -25.9125   19.0638 H   0  0  0  0  0  0
  -23.9572  -27.2929   19.0487 H   0  0  0  0  0  0
  -23.7425  -30.5972   19.4039 H   0  0  0  0  0  0
  -22.7462  -29.2489   19.8610 H   0  0  0  0  0  0
  -25.1291  -36.1945   25.0823 H   0  0  0  0  0  0
  -20.9970  -28.3254   24.1414 H   0  0  0  0  0  0
  -20.5667  -26.2288   23.3611 H   0  0  0  0  0  0
  -21.6642  -26.7435   22.1214 H   0  0  0  0  0  0
  -19.6910  -25.6290   21.1240 H   0  0  0  0  0  0
  -19.6689  -27.3190   20.6741 H   0  0  0  0  0  0
  -17.4198  -26.6677   21.4016 H   0  0  0  0  0  0
  -18.0321  -26.0065   22.9012 H   0  0  0  0  0  0
  -19.7935  -30.7263   24.2271 H   0  0  0  0  0  0
  -17.5014  -31.6266   24.5159 H   0  0  0  0  0  0
  -15.5349  -30.2982   23.7653 H   0  0  0  0  0  0
  -15.8670  -28.0817   22.7062 H   0  0  0  0  0  0
  -24.5898  -30.7079   25.7805 H   0  0  0  0  0  0
  -24.8929  -32.2897   26.4894 H   0  0  0  0  0  0
  -25.8066  -30.8909   27.0234 H   0  0  0  0  0  0
  -26.2885  -29.6772   24.1194 H   0  0  0  0  0  0
  -27.4035  -29.7268   25.4653 H   0  0  0  0  0  0
  -27.8749  -30.4309   23.9366 H   0  0  0  0  0  0
  -27.2665  -33.3616   26.2078 H   0  0  0  0  0  0
  -28.3850  -32.6891   25.0304 H   0  0  0  0  0  0
  -28.0736  -31.8440   26.5388 H   0  0  0  0  0  0
  -28.2597  -38.0100   24.7514 H   0  0  0  0  0  0
  -28.1077  -36.2631   24.6278 H   0  0  0  0  0  0
  -27.2305  -37.1445   25.8866 H   0  0  0  0  0  0
  -20.9341  -29.8764   21.6915 H   0  0  0  0  0  0
  -26.0174  -38.2858   24.1407 H   0  0  0  0  0  0
  -30.3744  -17.8186   22.4297 H   0  0  0  0  0  0
  -28.6865  -18.0914   22.7452 H   0  0  0  0  0  0
  -30.2180  -18.7873   18.8050 H   0  0  0  0  0  0
  -31.2985  -18.2203   20.0495 H   0  0  0  0  0  0
  -28.0365  -16.1634   21.3743 H   0  0  0  0  0  0
  -29.2720  -15.6733   22.5055 H   0  0  0  0  0  0
  -30.6180  -16.3541   18.5751 H   0  0  0  0  0  0
  -28.9393  -16.6714   18.8641 H   0  0  0  0  0  0
  -28.3125  -18.8225   20.3965 H   0  0  0  0  0  0
  -33.3040  -24.8296   23.6419 H   0  0  0  0  0  0
  -31.7613  -25.5671   24.0728 H   0  0  0  0  0  0
  -32.6811  -26.1786   22.6917 H   0  0  0  0  0  0
  -29.8149  -25.2546   22.5041 H   0  0  0  0  0  0
  -30.7093  -25.6183   21.0362 H   0  0  0  0  0  0
  -27.8062  -25.2633   18.5373 H   0  0  0  0  0  0
  -29.4637  -25.5385   18.7687 H   0  0  0  0  0  0
  -30.4085  -20.1732   21.9647 H   0  0  0  0  0  0
  -31.4478  -23.4896   22.8601 H   0  0  0  0  0  0
  -32.3237  -24.0269   21.6131 H   0  0  0  0  0  0
  1 25  1  0  0  0
  1 30  2  0  0  0
  1 85  1  0  0  0
  2  3  1  0  0  0
  2 25  1  0  0  0
  2 88  1  0  0  0
  2 89  1  0  0  0
  3  4  1  0  0  0
  3 90  1  0  0  0
  3 91  1  0  0  0
  4  5  1  0  0  0
  4 92  1  0  0  0
  4 93  1  0  0  0
  5  6  1  0  0  0
  5 26  1  0  0  0
  5 94  1  0  0  0
  6 25  1  0  0  0
  6 95  1  0  0  0
  6 96  1  0  0  0
  7  8  2  0  0  0
  7 26  1  0  0  0
  7 29  1  0  0  0
  8  9  1  0  0  0
  8 22  1  0  0  0
  9 10  1  0  0  0
  9 27  2  0  0  0
 10 11  2  0  0  0
 10 15  1  0  0  0
 11 12  1  0  0  0
 11 97  1  0  0  0
 12 13  2  0  0  0
 12 98  1  0  0  0
 13 14  1  0  0  0
 13 31  1  0  0  0
 14 15  2  0  0  0
 14 99  1  0  0  0
 15100  1  0  0  0
 16 17  2  0  0  0
 16 21  1  0  0  0
 16 31  1  0  0  0
 17 18  1  0  0  0
 17101  1  0  0  0
 18 19  2  0  0  0
 18102  1  0  0  0
 19 20  1  0  0  0
 19 24  1  0  0  0
 20 21  2  0  0  0
 20103  1  0  0  0
 21 23  1  0  0  0
 22 28  1  0  0  0
 22 32  2  0  0  0
 26 27  1  0  0  0
 28104  1  0  0  0
 28105  1  0  0  0
 29106  1  0  0  0
 29107  1  0  0  0
 33 34  1  0  0  0
 33 66  1  0  0  0
 33 70  2  0  0  0
 34 36  1  0  0  0
 34 59  1  0  0  0
 34108  1  0  0  0
 35 44  2  0  0  0
 35 45  1  0  0  0
 35 68  1  0  0  0
 36 56  1  0  0  0
 36109  1  0  0  0
 37 39  1  0  0  0
 37 47  1  0  0  0
 37 66  1  0  0  0
 37110  1  0  0  0
 38 43  2  0  0  0
 38 46  1  0  0  0
 38 47  1  0  0  0
 39 64  1  0  0  0
 39 67  2  0  0  0
 40 52  1  0  0  0
 40 53  2  0  0  0
 40 58  1  0  0  0
 41111  1  0  0  0
 41112  1  0  0  0
 41113  1  0  0  0
 41 48  1  0  0  0
 42 43  1  0  0  0
 42 66  1  0  0  0
 42114  1  0  0  0
 42115  1  0  0  0
 43 44  1  0  0  0
 44116  1  0  0  0
 45 46  2  0  0  0
 45117  1  0  0  0
 46118  1  0  0  0
 47119  1  0  0  0
 47120  1  0  0  0
 48 56  1  0  0  0
 48 65  1  0  0  0
 48121  1  0  0  0
 49 50  1  0  0  0
 49 53  1  0  0  0
 49 64  1  0  0  0
 49122  1  0  0  0
 50 51  1  0  0  0
 50123  1  0  0  0
 50124  1  0  0  0
 51 52  1  0  0  0
 51125  1  0  0  0
 51126  1  0  0  0
 52127  1  0  0  0
 52128  1  0  0  0
 53 54  1  0  0  0
 54 55  2  0  0  0
 54129  1  0  0  0
 55 57  1  0  0  0
 55130  1  0  0  0
 56 69  2  0  0  0
 57 58  2  0  0  0
 57131  1  0  0  0
 58132  1  0  0  0
 59 60  1  0  0  0
 59 61  1  0  0  0
 59 62  1  0  0  0
 60133  1  0  0  0
 60134  1  0  0  0
 60135  1  0  0  0
 61136  1  0  0  0
 61137  1  0  0  0
 61138  1  0  0  0
 62139  1  0  0  0
 62140  1  0  0  0
 62141  1  0  0  0
 63 65  1  0  0  0
 63142  1  0  0  0
 63143  1  0  0  0
 63144  1  0  0  0
 64145  1  0  0  0
 65146  1  0  0  0
 68 81  1  0  0  0
 71 72  2  0  0  0
 71 80  1  0  0  0
 71 82  1  0  0  0
 72 81  1  0  0  0
 72 83  1  0  0  0
 73 82  2  0  0  0
 73 84  1  0  0  0
 73 86  1  0  0  0
 74 76  1  0  0  0
 74 78  1  0  0  0
 74147  1  0  0  0
 74148  1  0  0  0
 75 77  1  0  0  0
 75 78  1  0  0  0
 75149  1  0  0  0
 75150  1  0  0  0
 76 85  1  0  0  0
 76151  1  0  0  0
 76152  1  0  0  0
 77 85  1  0  0  0
 77153  1  0  0  0
 77154  1  0  0  0
 78 86  1  0  0  0
 78155  1  0  0  0
 79 87  1  0  0  0
 79156  1  0  0  0
 79157  1  0  0  0
 79158  1  0  0  0
 80 87  1  0  0  0
 80159  1  0  0  0
 80160  1  0  0  0
 81161  1  0  0  0
 81162  1  0  0  0
 83 84  2  0  0  0
 86163  1  0  0  0
 87164  1  0  0  0
 87165  1  0  0  0
M  CHG  1  87   1
M  ISO  4   1 100  68 101  81 101  85 100
M  END
> <chiral flag>
0

> <version>
0

> <s_m_source_file>
/data/baiqing/PycharmProjects/Reinvent-master-3.2/result/LINK_invent/BTK/process_docking_weight1_custom_sum_contain_oxygen_bond_distance_aromatic_linkinvent_7_9_3/rearranged_h_0181.sdf

> <i_m_source_file_index>
78

> <r_mmod_Potential_Energy-OPLS-2005>
-167.698532104492

> <r_mmod_Stretch_Energy-OPLS-2005>
68.0836486816406

> <r_mmod_Bend_Energy-OPLS-2005>
162.707473754883

> <r_mmod_Torsional_Energy-OPLS-2005>
317.831451416016

> <r_mmod_Improper_Torsional_Energy-OPLS-2005>
17.034122467041

> <r_mmod_Van_der_Waal_Energy-OPLS-2005>
155.24787902832

> <r_mmod_Electrostatic_Energy-OPLS-2005>
-438.781829833984

> <r_mmod_Solvation_Energy-OPLS-2005>
-487.306243896484

> <b_mmod_Minimization_Converged-OPLS-2005>
0

> <r_mmod_RMS_Derivative-OPLS-2005>
0.667972326278687

$$$$
78
                    3D
 Structure written by MMmdl.
150158  0  0  1  0            999 V2000
  -30.3858  -15.3182   20.4176 C   0  0  0  0  0  0
  -30.4304  -12.8474   19.5580 C   0  0  0  0  0  0
  -29.5414  -12.5983   18.3106 C   0  0  0  0  0  0
  -28.0902  -12.3107   18.7306 C   0  0  0  0  0  0
  -27.6118  -13.2760   19.8460 C   0  0  2  0  0  0
  -28.6354  -13.4386   20.9897 C   0  0  0  0  0  0
  -25.2368  -13.8226   20.5761 C   0  0  0  0  0  0
  -24.1732  -13.0420   20.9262 C   0  0  0  0  0  0
  -24.6403  -11.6921   20.8781 C   0  0  0  0  0  0
  -23.9116  -10.4286   21.0426 C   0  0  0  0  0  0
  -24.3660   -9.4201   21.9208 C   0  0  0  0  0  0
  -23.6322   -8.2248   22.0773 C   0  0  0  0  0  0
  -22.4295   -8.0290   21.3548 C   0  0  0  0  0  0
  -21.9942   -9.0288   20.4678 C   0  0  0  0  0  0
  -22.7272  -10.2150   20.3085 C   0  0  0  0  0  0
  -21.6868   -6.0773   22.5301 C   0  0  0  0  0  0
  -21.4043   -6.5669   23.8239 C   0  0  0  0  0  0
  -21.3649   -5.6816   24.9181 C   0  0  0  0  0  0
  -21.6021   -4.3074   24.7204 C   0  0  0  0  0  0
  -21.8808   -3.8176   23.4325 C   0  0  0  0  0  0
  -21.9198   -4.6995   22.3394 C   0  0  0  0  0  0
  -22.7755  -13.5191   21.1848 C   0  0  0  0  0  0
  -22.1653   -4.2197   21.0960 F   0  0  0  0  0  0
  -21.5598   -3.4566   25.7721 F   0  0  0  0  0  0
  -29.8510  -13.9921   20.3724 N   0  0  0  0  0  0
  -26.2816  -12.9519   20.3315 N   0  0  0  0  0  0
  -25.9343  -11.6616   20.5759 N   0  0  0  0  0  0
  -22.0386  -12.8197   22.0391 N   0  0  0  0  0  0
  -25.3891  -15.1937   20.4082 N   0  0  0  0  0  0
  -31.5876  -15.3197   20.0946 O   0  0  0  0  0  0
  -21.6641   -6.8912   21.4264 O   0  0  0  0  0  0
  -22.3474  -14.5524   20.6705 O   0  0  0  0  0  0
  -24.6599  -31.8198   23.1743 C   0  0  0  0  0  0
  -25.9285  -32.4565   23.8183 C   0  0  1  0  0  0
  -27.1983  -26.8906   20.2253 C   0  0  0  0  0  0
  -25.5973  -33.8387   24.2060 N   0  0  0  0  0  0
  -23.4766  -30.4330   21.5164 C   0  0  2  0  0  0
  -24.9338  -28.8204   20.1105 C   0  0  0  0  0  0
  -22.7637  -29.4403   22.4719 C   0  0  0  0  0  0
  -18.0322  -28.1397   22.8452 C   0  0  0  0  0  0
  -24.1509  -36.7227   23.2641 C   0  0  0  0  0  0
  -26.0450  -30.6219   21.4112 C   0  0  0  0  0  0
  -26.1125  -29.2058   20.7609 C   0  0  0  0  0  0
  -27.2393  -28.2620   20.7930 C   0  0  0  0  0  0
  -25.9989  -26.6680   19.5135 C   0  0  0  0  0  0
  -24.9066  -27.5746   19.4630 C   0  0  0  0  0  0
  -23.7228  -29.7559   20.1393 C   0  0  0  0  0  0
  -25.4150  -36.2941   24.0269 C   0  0  1  0  0  0
  -20.5940  -28.3749   23.1175 C   0  0  2  0  0  0
  -20.6798  -26.9432   22.5384 C   0  0  0  0  0  0
  -19.5771  -26.6366   21.5195 C   0  0  0  0  0  0
  -18.1964  -26.7926   22.1614 C   0  0  0  0  0  0
  -19.1584  -28.8903   23.2806 C   0  0  0  0  0  0
  -18.9486  -30.1489   23.8855 C   0  0  0  0  0  0
  -17.6475  -30.6582   24.0562 C   0  0  0  0  0  0
  -25.9097  -34.9322   23.4979 C   0  0  0  0  0  0
  -16.5371  -29.9067   23.6341 C   0  0  0  0  0  0
  -16.7306  -28.6490   23.0362 C   0  0  0  0  0  0
  -26.4565  -31.6541   25.0722 C   0  0  0  0  0  0
  -25.3701  -31.3831   26.1393 C   0  0  0  0  0  0
  -27.0445  -30.2879   24.6503 C   0  0  0  0  0  0
  -27.6020  -32.4391   25.7566 C   0  0  0  0  0  0
  -27.5559  -37.1782   24.8453 C   0  0  0  0  0  0
  -21.4306  -29.3025   22.3495 N   0  0  0  0  0  0
  -26.4288  -37.3672   23.9368 N   0  0  0  0  0  0
  -24.7468  -30.9870   22.0877 N   0  0  0  0  0  0
  -23.4202  -28.7939   23.2932 O   0  0  0  0  0  0
  -28.1754  -25.7597   20.3517 O   0  0  0  0  0  0
  -26.5694  -34.8842   22.4563 O   0  0  0  0  0  0
  -23.5674  -32.1163   23.6850 O   0  0  0  0  0  0
  -28.0709  -18.5253   21.4004 C   0  0  0  0  0  0
  -28.6298  -17.0180   21.5568 C   0  0  0  0  0  0
  -29.7888  -18.1270   19.9324 C   0  0  0  0  0  0
  -29.1242  -19.4895   20.7656 C   0  0  1  0  0  0
  -28.7698  -22.5721   20.6840 C   0  0  0  0  0  0
  -27.9382  -24.1151   20.1619 C   0  0  0  0  0  0
  -29.6331  -16.6237   20.5231 N   0  0  0  0  0  0
  -28.5838  -20.9773   20.1739 N   0  3  0  0  0  0
  -31.4511  -13.0548   19.2335 H   0  0  0  0  0  0
  -30.5158  -11.9460   20.1665 H   0  0  0  0  0  0
  -29.9354  -11.7710   17.7177 H   0  0  0  0  0  0
  -29.5748  -13.4757   17.6640 H   0  0  0  0  0  0
  -28.0527  -11.2839   19.0963 H   0  0  0  0  0  0
  -27.4267  -12.3507   17.8650 H   0  0  0  0  0  0
  -27.5263  -14.2489   19.3637 H   0  0  0  0  0  0
  -28.8202  -12.4916   21.5007 H   0  0  0  0  0  0
  -28.2647  -14.1284   21.7478 H   0  0  0  0  0  0
  -25.2803   -9.5687   22.4815 H   0  0  0  0  0  0
  -24.0026   -7.4635   22.7495 H   0  0  0  0  0  0
  -21.0858   -8.8855   19.8976 H   0  0  0  0  0  0
  -22.3754  -10.9734   19.6236 H   0  0  0  0  0  0
  -21.2082   -7.6192   23.9757 H   0  0  0  0  0  0
  -21.1464   -6.0530   25.9083 H   0  0  0  0  0  0
  -22.0592   -2.7630   23.2804 H   0  0  0  0  0  0
  -22.4028  -11.9930   22.4898 H   0  0  0  0  0  0
  -21.1031  -13.1291   22.2606 H   0  0  0  0  0  0
  -24.5929  -15.8144   20.4878 H   0  0  0  0  0  0
  -26.1964  -15.6382   19.9892 H   0  0  0  0  0  0
  -26.7336  -32.5109   23.0881 H   0  0  0  0  0  0
  -25.0088  -33.9476   25.0186 H   0  0  0  0  0  0
  -22.7902  -31.2666   21.3490 H   0  0  0  0  0  0
  -23.3728  -35.9604   23.3310 H   0  0  0  0  0  0
  -24.3568  -36.8879   22.2054 H   0  0  0  0  0  0
  -23.7353  -37.6442   23.6725 H   0  0  0  0  0  0
  -26.2224  -31.3664   20.6337 H   0  0  0  0  0  0
  -26.9054  -30.6840   22.0665 H   0  0  0  0  0  0
  -28.1210  -28.5506   21.3474 H   0  0  0  0  0  0
  -25.8662  -25.7167   19.0215 H   0  0  0  0  0  0
  -24.0154  -27.2774   18.9283 H   0  0  0  0  0  0
  -23.8865  -30.5303   19.3883 H   0  0  0  0  0  0
  -22.8336  -29.2140   19.8128 H   0  0  0  0  0  0
  -25.1364  -36.1714   25.0761 H   0  0  0  0  0  0
  -21.0054  -28.3369   24.1288 H   0  0  0  0  0  0
  -20.5691  -26.2346   23.3612 H   0  0  0  0  0  0
  -21.6663  -26.7395   22.1191 H   0  0  0  0  0  0
  -19.6928  -25.6261   21.1272 H   0  0  0  0  0  0
  -19.6726  -27.3133   20.6698 H   0  0  0  0  0  0
  -17.4218  -26.6647   21.4046 H   0  0  0  0  0  0
  -18.0391  -26.0088   22.9038 H   0  0  0  0  0  0
  -19.7977  -30.7321   24.2197 H   0  0  0  0  0  0
  -17.5038  -31.6265   24.5148 H   0  0  0  0  0  0
  -15.5384  -30.2960   23.7699 H   0  0  0  0  0  0
  -15.8698  -28.0801   22.7102 H   0  0  0  0  0  0
  -24.5796  -30.7286   25.7720 H   0  0  0  0  0  0
  -24.9013  -32.3065   26.4806 H   0  0  0  0  0  0
  -25.7917  -30.8975   27.0199 H   0  0  0  0  0  0
  -26.3076  -29.6562   24.1518 H   0  0  0  0  0  0
  -27.3914  -29.7273   25.5206 H   0  0  0  0  0  0
  -27.9085  -30.4021   23.9945 H   0  0  0  0  0  0
  -27.2485  -33.3667   26.2105 H   0  0  0  0  0  0
  -28.3882  -32.7013   25.0467 H   0  0  0  0  0  0
  -28.0643  -31.8567   26.5552 H   0  0  0  0  0  0
  -28.2570  -38.0072   24.7403 H   0  0  0  0  0  0
  -28.1048  -36.2577   24.6402 H   0  0  0  0  0  0
  -27.2236  -37.1574   25.8844 H   0  0  0  0  0  0
  -20.9517  -29.8759   21.6680 H   0  0  0  0  0  0
  -26.0113  -38.2721   24.1347 H   0  0  0  0  0  0
  -27.7122  -18.9116   22.3552 H   0  0  0  0  0  0
  -27.1950  -18.4918   20.7528 H   0  0  0  0  0  0
  -27.7981  -16.3142   21.5633 H   0  0  0  0  0  0
  -29.1147  -16.9246   22.5301 H   0  0  0  0  0  0
  -30.8401  -18.3149   19.7189 H   0  0  0  0  0  0
  -29.2974  -18.0840   18.9584 H   0  0  0  0  0  0
  -29.8372  -19.7368   21.5511 H   0  0  0  0  0  0
  -28.6163  -22.5282   21.7627 H   0  0  0  0  0  0
  -29.8366  -22.7582   20.5773 H   0  0  0  0  0  0
  -26.9206  -23.9794   20.5248 H   0  0  0  0  0  0
  -27.8371  -24.0097   19.0826 H   0  0  0  0  0  0
  -27.5814  -20.8646   20.1591 H   0  0  0  0  0  0
  -28.8487  -20.9855   19.2017 H   0  0  0  0  0  0
  1 25  1  0  0  0
  1 30  2  0  0  0
  1 77  1  0  0  0
  2  3  1  0  0  0
  2 25  1  0  0  0
  2 79  1  0  0  0
  2 80  1  0  0  0
  3  4  1  0  0  0
  3 81  1  0  0  0
  3 82  1  0  0  0
  4  5  1  0  0  0
  4 83  1  0  0  0
  4 84  1  0  0  0
  5  6  1  0  0  0
  5 26  1  0  0  0
  5 85  1  0  0  0
  6 25  1  0  0  0
  6 86  1  0  0  0
  6 87  1  0  0  0
  7  8  2  0  0  0
  7 26  1  0  0  0
  7 29  1  0  0  0
  8  9  1  0  0  0
  8 22  1  0  0  0
  9 10  1  0  0  0
  9 27  2  0  0  0
 10 11  2  0  0  0
 10 15  1  0  0  0
 11 12  1  0  0  0
 11 88  1  0  0  0
 12 13  2  0  0  0
 12 89  1  0  0  0
 13 14  1  0  0  0
 13 31  1  0  0  0
 14 15  2  0  0  0
 14 90  1  0  0  0
 15 91  1  0  0  0
 16 17  2  0  0  0
 16 21  1  0  0  0
 16 31  1  0  0  0
 17 18  1  0  0  0
 17 92  1  0  0  0
 18 19  2  0  0  0
 18 93  1  0  0  0
 19 20  1  0  0  0
 19 24  1  0  0  0
 20 21  2  0  0  0
 20 94  1  0  0  0
 21 23  1  0  0  0
 22 28  1  0  0  0
 22 32  2  0  0  0
 26 27  1  0  0  0
 28 95  1  0  0  0
 28 96  1  0  0  0
 29 97  1  0  0  0
 29 98  1  0  0  0
 33 34  1  0  0  0
 33 66  1  0  0  0
 33 70  2  0  0  0
 34 36  1  0  0  0
 34 59  1  0  0  0
 34 99  1  0  0  0
 35 44  2  0  0  0
 35 45  1  0  0  0
 35 68  1  0  0  0
 36 56  1  0  0  0
 36100  1  0  0  0
 37 39  1  0  0  0
 37 47  1  0  0  0
 37 66  1  0  0  0
 37101  1  0  0  0
 38 43  2  0  0  0
 38 46  1  0  0  0
 38 47  1  0  0  0
 39 64  1  0  0  0
 39 67  2  0  0  0
 40 52  1  0  0  0
 40 53  2  0  0  0
 40 58  1  0  0  0
 41102  1  0  0  0
 41103  1  0  0  0
 41104  1  0  0  0
 41 48  1  0  0  0
 42 43  1  0  0  0
 42 66  1  0  0  0
 42105  1  0  0  0
 42106  1  0  0  0
 43 44  1  0  0  0
 44107  1  0  0  0
 45 46  2  0  0  0
 45108  1  0  0  0
 46109  1  0  0  0
 47110  1  0  0  0
 47111  1  0  0  0
 48 56  1  0  0  0
 48 65  1  0  0  0
 48112  1  0  0  0
 49 50  1  0  0  0
 49 53  1  0  0  0
 49 64  1  0  0  0
 49113  1  0  0  0
 50 51  1  0  0  0
 50114  1  0  0  0
 50115  1  0  0  0
 51 52  1  0  0  0
 51116  1  0  0  0
 51117  1  0  0  0
 52118  1  0  0  0
 52119  1  0  0  0
 53 54  1  0  0  0
 54 55  2  0  0  0
 54120  1  0  0  0
 55 57  1  0  0  0
 55121  1  0  0  0
 56 69  2  0  0  0
 57 58  2  0  0  0
 57122  1  0  0  0
 58123  1  0  0  0
 59 60  1  0  0  0
 59 61  1  0  0  0
 59 62  1  0  0  0
 60124  1  0  0  0
 60125  1  0  0  0
 60126  1  0  0  0
 61127  1  0  0  0
 61128  1  0  0  0
 61129  1  0  0  0
 62130  1  0  0  0
 62131  1  0  0  0
 62132  1  0  0  0
 63 65  1  0  0  0
 63133  1  0  0  0
 63134  1  0  0  0
 63135  1  0  0  0
 64136  1  0  0  0
 65137  1  0  0  0
 68 76  1  0  0  0
 71 72  1  0  0  0
 71 74  1  0  0  0
 71138  1  0  0  0
 71139  1  0  0  0
 72 77  1  0  0  0
 72140  1  0  0  0
 72141  1  0  0  0
 73 74  1  0  0  0
 73 77  1  0  0  0
 73142  1  0  0  0
 73143  1  0  0  0
 74 78  1  0  0  0
 74144  1  0  0  0
 75 76  1  0  0  0
 75 78  1  0  0  0
 75145  1  0  0  0
 75146  1  0  0  0
 76147  1  0  0  0
 76148  1  0  0  0
 78149  1  0  0  0
 78150  1  0  0  0
M  CHG  1  78   1
M  ISO  4   1 100  68 101  76 101  77 100
M  END
> <chiral flag>
0

> <version>
0

> <s_m_source_file>
/data/baiqing/PycharmProjects/Reinvent-master-3.2/result/LINK_invent/BTK/process_docking_weight1_custom_sum_contain_oxygen_bond_distance_aromatic_linkinvent_7_9_3/rearranged_h_0181.sdf

> <i_m_source_file_index>
79

> <r_mmod_Potential_Energy-OPLS-2005>
1430.38159179688

> <r_mmod_Stretch_Energy-OPLS-2005>
621.534057617188

> <r_mmod_Bend_Energy-OPLS-2005>
506.723510742188

> <r_mmod_Torsional_Energy-OPLS-2005>
330.140411376953

> <r_mmod_Improper_Torsional_Energy-OPLS-2005>
8.20745849609375

> <r_mmod_Van_der_Waal_Energy-OPLS-2005>
104.631088256836

> <r_mmod_Electrostatic_Energy-OPLS-2005>
-195.851898193359

> <r_mmod_Solvation_Energy-OPLS-2005>
-462.917297363281

> <b_mmod_Minimization_Converged-OPLS-2005>
0

> <r_mmod_RMS_Derivative-OPLS-2005>
5.36358022689819

$$$$
79
                    3D
 Structure written by MMmdl.
158167  0  0  1  0            999 V2000
  -29.8116  -16.7282   20.4929 C   0  0  0  0  0  0
  -30.2785  -13.9474   19.6156 C   0  0  0  0  0  0
  -29.5845  -13.0531   18.4873 C   0  0  0  0  0  0
  -28.2679  -12.4283   18.9494 C   0  0  0  0  0  0
  -27.5716  -13.4519   19.8542 C   0  0  2  0  0  0
  -28.4686  -14.1758   20.9345 C   0  0  0  0  0  0
  -25.2074  -13.8508   20.5953 C   0  0  0  0  0  0
  -24.1615  -13.0459   20.9333 C   0  0  0  0  0  0
  -24.6529  -11.7040   20.8730 C   0  0  0  0  0  0
  -23.9256  -10.4322   21.0334 C   0  0  0  0  0  0
  -24.3738   -9.4230   21.9148 C   0  0  0  0  0  0
  -23.6363   -8.2286   22.0747 C   0  0  0  0  0  0
  -22.4340   -8.0322   21.3545 C   0  0  0  0  0  0
  -22.0013   -9.0301   20.4634 C   0  0  0  0  0  0
  -22.7394  -10.2154   20.3014 C   0  0  0  0  0  0
  -21.6877   -6.0760   22.5275 C   0  0  0  0  0  0
  -21.4035   -6.5654   23.8211 C   0  0  0  0  0  0
  -21.3666   -5.6801   24.9169 C   0  0  0  0  0  0
  -21.6042   -4.3063   24.7218 C   0  0  0  0  0  0
  -21.8817   -3.8160   23.4338 C   0  0  0  0  0  0
  -21.9201   -4.6982   22.3396 C   0  0  0  0  0  0
  -22.7593  -13.5070   21.1932 C   0  0  0  0  0  0
  -22.1663   -4.2165   21.0973 F   0  0  0  0  0  0
  -21.5624   -3.4543   25.7728 F   0  0  0  0  0  0
  -29.4420  -15.1696   20.2854 N   0  0  0  0  0  0
  -26.2742  -13.0141   20.3539 N   0  0  0  0  0  0
  -25.9549  -11.7044   20.5692 N   0  0  0  0  0  0
  -22.0303  -12.8019   22.0491 N   0  0  0  0  0  0
  -25.3416  -15.2279   20.4383 N   0  0  0  0  0  0
  -31.0656  -16.5010   20.4004 O   0  0  0  0  0  0
  -21.6678   -6.8927   21.4249 O   0  0  0  0  0  0
  -22.3230  -14.5357   20.6769 O   0  0  0  0  0  0
  -24.7414  -31.7166   23.3327 C   0  0  0  0  0  0
  -25.9652  -32.4319   23.9471 C   0  0  1  0  0  0
  -28.1044  -26.3142   19.0825 C   0  0  0  0  0  0
  -25.5971  -33.8339   24.2386 N   0  0  0  0  0  0
  -23.4522  -30.0336   21.7201 C   0  0  2  0  0  0
  -25.0852  -27.7441   19.8144 C   0  0  0  0  0  0
  -22.5932  -29.3982   22.7530 C   0  0  0  0  0  0
  -17.9137  -28.1436   22.8908 C   0  0  0  0  0  0
  -24.1519  -36.7137   23.2560 C   0  0  0  0  0  0
  -26.7076  -30.1340   22.2307 C   0  0  0  0  0  0
  -27.1766  -28.7108   21.0813 C   0  0  0  0  0  0
  -28.6289  -27.7428   20.3873 C   0  0  0  0  0  0
  -26.6372  -26.1495   18.2975 C   0  0  0  0  0  0
  -25.2137  -26.8411   18.6097 C   0  0  0  0  0  0
  -23.4234  -28.6618   20.2723 C   0  0  0  0  0  0
  -25.4134  -36.2863   24.0227 C   0  0  1  0  0  0
  -20.4424  -28.3245   23.1267 C   0  0  2  0  0  0
  -20.4799  -26.9859   22.3674 C   0  0  0  0  0  0
  -19.3177  -26.6619   21.4684 C   0  0  0  0  0  0
  -18.0343  -26.7745   22.2515 C   0  0  0  0  0  0
  -19.0507  -28.8799   23.3014 C   0  0  0  0  0  0
  -18.8911  -30.1495   23.8911 C   0  0  0  0  0  0
  -17.6055  -30.6890   24.0617 C   0  0  0  0  0  0
  -25.9083  -34.9146   23.5084 C   0  0  0  0  0  0
  -16.4776  -29.9564   23.6527 C   0  0  0  0  0  0
  -16.6319  -28.6867   23.0721 C   0  0  0  0  0  0
  -26.4421  -31.7169   25.2762 C   0  0  0  0  0  0
  -25.2941  -31.5533   26.2909 C   0  0  0  0  0  0
  -27.0309  -30.2967   25.1827 C   0  0  0  0  0  0
  -27.5883  -32.5459   25.8859 C   0  0  0  0  0  0
  -27.5546  -37.1726   24.8447 C   0  0  0  0  0  0
  -21.3055  -29.2820   22.4616 N   0  0  0  0  0  0
  -26.4297  -37.3582   23.9325 N   0  0  0  0  0  0
  -24.9571  -30.6267   22.5546 N   0  0  0  0  0  0
  -23.1364  -28.8737   23.7202 O   0  0  0  0  0  0
  -26.9415  -25.1863   19.1830 O   0  0  0  0  0  0
  -26.5727  -34.8537   22.4718 O   0  0  0  0  0  0
  -23.6045  -32.1335   23.6135 O   0  0  0  0  0  0
  -26.0317  -26.9631   22.1584 C   0  0  0  0  0  0
  -25.3921  -29.8632   20.3541 C   0  0  0  0  0  0
  -25.1146  -28.1804   21.9586 C   0  0  0  0  0  0
  -26.8182  -26.5302   20.9081 C   0  0  0  0  0  0
  -26.3027  -29.6615   19.0597 C   0  0  0  0  0  0
  -23.2225  -25.8643   22.1412 C   0  0  0  0  0  0
  -24.3063  -25.1998   22.8135 C   0  0  0  0  0  0
  -24.5856  -26.2070   21.6041 C   0  0  0  0  0  0
  -25.2950  -24.9503   20.1882 C   0  0  0  0  0  0
  -27.8824  -22.7411   20.8141 C   0  0  0  0  0  0
  -28.9033  -20.5323   20.9449 C   0  0  0  0  0  0
  -27.0145  -28.3074   18.9726 N   0  0  0  0  0  0
  -27.6354  -24.7605   21.3065 N   0  0  0  0  0  0
  -29.0401  -18.3813   20.6393 N   0  0  0  0  0  0
  -26.4443  -30.6245   18.1191 F   0  0  0  0  0  0
  -31.1567  -14.3857   19.1390 H   0  0  0  0  0  0
  -30.7122  -13.3069   20.3863 H   0  0  0  0  0  0
  -30.2682  -12.2784   18.1363 H   0  0  0  0  0  0
  -29.3838  -13.6914   17.6255 H   0  0  0  0  0  0
  -28.4805  -11.5236   19.5202 H   0  0  0  0  0  0
  -27.6436  -12.1372   18.1034 H   0  0  0  0  0  0
  -27.3219  -14.2429   19.1446 H   0  0  0  0  0  0
  -28.9461  -13.4649   21.6114 H   0  0  0  0  0  0
  -27.8302  -14.7751   21.5843 H   0  0  0  0  0  0
  -25.2870   -9.5696   22.4750 H   0  0  0  0  0  0
  -24.0042   -7.4690   22.7495 H   0  0  0  0  0  0
  -21.0935   -8.8851   19.8948 H   0  0  0  0  0  0
  -22.3853  -10.9692   19.6122 H   0  0  0  0  0  0
  -21.2037   -7.6163   23.9720 H   0  0  0  0  0  0
  -21.1484   -6.0528   25.9072 H   0  0  0  0  0  0
  -22.0588   -2.7622   23.2833 H   0  0  0  0  0  0
  -22.3994  -11.9722   22.4898 H   0  0  0  0  0  0
  -21.0892  -13.0963   22.2681 H   0  0  0  0  0  0
  -24.5566  -15.8624   20.5377 H   0  0  0  0  0  0
  -26.1828  -15.6829   20.1090 H   0  0  0  0  0  0
  -26.7932  -32.4619   23.2441 H   0  0  0  0  0  0
  -24.9991  -33.9710   25.0394 H   0  0  0  0  0  0
  -22.9198  -30.9141   21.3550 H   0  0  0  0  0  0
  -23.3746  -35.9508   23.3198 H   0  0  0  0  0  0
  -24.3624  -36.8770   22.1984 H   0  0  0  0  0  0
  -23.7317  -37.6353   23.6597 H   0  0  0  0  0  0
  -27.1820  -31.0010   21.7673 H   0  0  0  0  0  0
  -27.3872  -29.8923   22.9974 H   0  0  0  0  0  0
  -29.6568  -27.9808   20.6160 H   0  0  0  0  0  0
  -26.6579  -25.7128   17.2856 H   0  0  0  0  0  0
  -24.3654  -26.6612   17.9649 H   0  0  0  0  0  0
  -23.0761  -29.1563   19.3628 H   0  0  0  0  0  0
  -22.6604  -27.9140   20.4377 H   0  0  0  0  0  0
  -25.1299  -36.1734   25.0711 H   0  0  0  0  0  0
  -20.8020  -28.1387   24.1411 H   0  0  0  0  0  0
  -20.6394  -26.1549   23.0571 H   0  0  0  0  0  0
  -21.2481  -27.0253   21.6214 H   0  0  0  0  0  0
  -19.4234  -25.6647   21.0392 H   0  0  0  0  0  0
  -19.2889  -27.3642   20.6335 H   0  0  0  0  0  0
  -17.1829  -26.5876   21.5954 H   0  0  0  0  0  0
  -17.9992  -26.0176   23.0369 H   0  0  0  0  0  0
  -19.7549  -30.7148   24.2138 H   0  0  0  0  0  0
  -17.4836  -31.6640   24.5124 H   0  0  0  0  0  0
  -15.4882  -30.3706   23.7891 H   0  0  0  0  0  0
  -15.7545  -28.1335   22.7649 H   0  0  0  0  0  0
  -24.5425  -30.8323   25.9656 H   0  0  0  0  0  0
  -24.7820  -32.4976   26.4724 H   0  0  0  0  0  0
  -25.6560  -31.2134   27.2629 H   0  0  0  0  0  0
  -26.3626  -29.5604   24.7344 H   0  0  0  0  0  0
  -27.1742  -29.9028   26.1894 H   0  0  0  0  0  0
  -28.0524  -30.2776   24.8000 H   0  0  0  0  0  0
  -27.2635  -33.5397   26.1932 H   0  0  0  0  0  0
  -28.4072  -32.6767   25.1780 H   0  0  0  0  0  0
  -28.0047  -32.0737   26.7760 H   0  0  0  0  0  0
  -28.2527  -38.0045   24.7423 H   0  0  0  0  0  0
  -28.1070  -36.2544   24.6383 H   0  0  0  0  0  0
  -27.2204  -37.1472   25.8834 H   0  0  0  0  0  0
  -20.9465  -29.7369   21.6343 H   0  0  0  0  0  0
  -26.0130  -38.2650   24.1239 H   0  0  0  0  0  0
  -26.2463  -26.5379   23.1356 H   0  0  0  0  0  0
  -25.0144  -30.8799   20.2844 H   0  0  0  0  0  0
  -22.7957  -26.5453   22.8581 H   0  0  0  0  0  0
  -22.5579  -25.2443   21.5424 H   0  0  0  0  0  0
  -24.3833  -24.1281   22.6463 H   0  0  0  0  0  0
  -24.4869  -25.5083   23.8429 H   0  0  0  0  0  0
  -24.4738  -24.7310   19.5012 H   0  0  0  0  0  0
  -25.3583  -23.9703   20.6538 H   0  0  0  0  0  0
  -26.8696  -22.4331   21.0695 H   0  0  0  0  0  0
  -27.8520  -22.8485   19.7304 H   0  0  0  0  0  0
  -29.0101  -20.4910   22.0293 H   0  0  0  0  0  0
  -29.9061  -20.7860   20.6007 H   0  0  0  0  0  0
  -27.7612  -24.7660   22.3119 H   0  0  0  0  0  0
  -28.0662  -18.1158   20.5686 H   0  0  0  0  0  0
  1 25  1  0  0  0
  1 30  2  0  0  0
  1 84  1  0  0  0
  2  3  1  0  0  0
  2 25  1  0  0  0
  2 86  1  0  0  0
  2 87  1  0  0  0
  3  4  1  0  0  0
  3 88  1  0  0  0
  3 89  1  0  0  0
  4  5  1  0  0  0
  4 90  1  0  0  0
  4 91  1  0  0  0
  5  6  1  0  0  0
  5 26  1  0  0  0
  5 92  1  0  0  0
  6 25  1  0  0  0
  6 93  1  0  0  0
  6 94  1  0  0  0
  7  8  2  0  0  0
  7 26  1  0  0  0
  7 29  1  0  0  0
  8  9  1  0  0  0
  8 22  1  0  0  0
  9 10  1  0  0  0
  9 27  2  0  0  0
 10 11  2  0  0  0
 10 15  1  0  0  0
 11 12  1  0  0  0
 11 95  1  0  0  0
 12 13  2  0  0  0
 12 96  1  0  0  0
 13 14  1  0  0  0
 13 31  1  0  0  0
 14 15  2  0  0  0
 14 97  1  0  0  0
 15 98  1  0  0  0
 16 17  2  0  0  0
 16 21  1  0  0  0
 16 31  1  0  0  0
 17 18  1  0  0  0
 17 99  1  0  0  0
 18 19  2  0  0  0
 18100  1  0  0  0
 19 20  1  0  0  0
 19 24  1  0  0  0
 20 21  2  0  0  0
 20101  1  0  0  0
 21 23  1  0  0  0
 22 28  1  0  0  0
 22 32  2  0  0  0
 26 27  1  0  0  0
 28102  1  0  0  0
 28103  1  0  0  0
 29104  1  0  0  0
 29105  1  0  0  0
 33 34  1  0  0  0
 33 66  1  0  0  0
 33 70  2  0  0  0
 34 36  1  0  0  0
 34 59  1  0  0  0
 34106  1  0  0  0
 35 44  2  0  0  0
 35 45  1  0  0  0
 35 68  1  0  0  0
 36 56  1  0  0  0
 36107  1  0  0  0
 37 39  1  0  0  0
 37 47  1  0  0  0
 37 66  1  0  0  0
 37108  1  0  0  0
 38 43  2  0  0  0
 38 46  1  0  0  0
 38 47  1  0  0  0
 39 64  1  0  0  0
 39 67  2  0  0  0
 40 52  1  0  0  0
 40 53  2  0  0  0
 40 58  1  0  0  0
 41109  1  0  0  0
 41110  1  0  0  0
 41111  1  0  0  0
 41 48  1  0  0  0
 42 43  1  0  0  0
 42 66  1  0  0  0
 42112  1  0  0  0
 42113  1  0  0  0
 43 44  1  0  0  0
 44114  1  0  0  0
 45 46  2  0  0  0
 45115  1  0  0  0
 46116  1  0  0  0
 47117  1  0  0  0
 47118  1  0  0  0
 48 56  1  0  0  0
 48 65  1  0  0  0
 48119  1  0  0  0
 49 50  1  0  0  0
 49 53  1  0  0  0
 49 64  1  0  0  0
 49120  1  0  0  0
 50 51  1  0  0  0
 50121  1  0  0  0
 50122  1  0  0  0
 51 52  1  0  0  0
 51123  1  0  0  0
 51124  1  0  0  0
 52125  1  0  0  0
 52126  1  0  0  0
 53 54  1  0  0  0
 54 55  2  0  0  0
 54127  1  0  0  0
 55 57  1  0  0  0
 55128  1  0  0  0
 56 69  2  0  0  0
 57 58  2  0  0  0
 57129  1  0  0  0
 58130  1  0  0  0
 59 60  1  0  0  0
 59 61  1  0  0  0
 59 62  1  0  0  0
 60131  1  0  0  0
 60132  1  0  0  0
 60133  1  0  0  0
 61134  1  0  0  0
 61135  1  0  0  0
 61136  1  0  0  0
 62137  1  0  0  0
 62138  1  0  0  0
 62139  1  0  0  0
 63 65  1  0  0  0
 63140  1  0  0  0
 63141  1  0  0  0
 63142  1  0  0  0
 64143  1  0  0  0
 65144  1  0  0  0
 68 79  1  0  0  0
 71 73  2  0  0  0
 71 74  1  0  0  0
 71145  1  0  0  0
 72 73  1  0  0  0
 72 75  2  0  0  0
 72146  1  0  0  0
 73 78  1  0  0  0
 74 82  2  0  0  0
 74 83  1  0  0  0
 75 82  1  0  0  0
 75 85  1  0  0  0
 76 77  1  0  0  0
 76 78  1  0  0  0
 76147  1  0  0  0
 76148  1  0  0  0
 77 78  1  0  0  0
 77149  1  0  0  0
 77150  1  0  0  0
 78 79  1  0  0  0
 79151  1  0  0  0
 79152  1  0  0  0
 80 81  1  0  0  0
 80 83  1  0  0  0
 80153  1  0  0  0
 80154  1  0  0  0
 81 84  1  0  0  0
 81155  1  0  0  0
 81156  1  0  0  0
 83157  1  0  0  0
 84158  1  0  0  0
M  ISO  4   1 100  68 101  79 101  84 100
M  END
> <chiral flag>
0

> <version>
0

> <s_m_source_file>
/data/baiqing/PycharmProjects/Reinvent-master-3.2/result/LINK_invent/BTK/process_docking_weight1_custom_sum_contain_oxygen_bond_distance_aromatic_linkinvent_7_9_3/rearranged_h_0181.sdf

> <i_m_source_file_index>
80

> <r_mmod_Potential_Energy-OPLS-2005>
28478.947265625

> <r_mmod_Stretch_Energy-OPLS-2005>
15894.6943359375

> <r_mmod_Bend_Energy-OPLS-2005>
2269.17236328125

> <r_mmod_Torsional_Energy-OPLS-2005>
546.589660644531

> <r_mmod_Improper_Torsional_Energy-OPLS-2005>
72.9571228027344

> <r_mmod_Van_der_Waal_Energy-OPLS-2005>
5991.34423828125

> <r_mmod_Electrostatic_Energy-OPLS-2005>
-510.627471923828

> <r_mmod_Solvation_Energy-OPLS-2005>
-269.216247558594

> <b_mmod_Minimization_Converged-OPLS-2005>
0

> <r_mmod_RMS_Derivative-OPLS-2005>
3.63268280029297

$$$$
80
                    3D
 Structure written by MMmdl.
146155  0  0  1  0            999 V2000
  -30.3299  -15.7781   20.3261 C   0  0  0  0  0  0
  -30.3898  -13.2070   19.5165 C   0  0  0  0  0  0
  -29.5360  -12.6859   18.3258 C   0  0  0  0  0  0
  -28.1304  -12.2964   18.7943 C   0  0  0  0  0  0
  -27.5823  -13.3268   19.8047 C   0  0  2  0  0  0
  -28.5923  -13.7619   20.8992 C   0  0  0  0  0  0
  -25.2280  -13.8326   20.5858 C   0  0  0  0  0  0
  -24.1685  -13.0445   20.9317 C   0  0  0  0  0  0
  -24.6412  -11.6963   20.8781 C   0  0  0  0  0  0
  -23.9126  -10.4298   21.0398 C   0  0  0  0  0  0
  -24.3658   -9.4208   21.9179 C   0  0  0  0  0  0
  -23.6318   -8.2250   22.0752 C   0  0  0  0  0  0
  -22.4298   -8.0290   21.3544 C   0  0  0  0  0  0
  -21.9946   -9.0267   20.4643 C   0  0  0  0  0  0
  -22.7291  -10.2138   20.3049 C   0  0  0  0  0  0
  -21.6861   -6.0743   22.5278 C   0  0  0  0  0  0
  -21.4020   -6.5644   23.8212 C   0  0  0  0  0  0
  -21.3660   -5.6795   24.9173 C   0  0  0  0  0  0
  -21.6043   -4.3058   24.7223 C   0  0  0  0  0  0
  -21.8818   -3.8151   23.4343 C   0  0  0  0  0  0
  -21.9195   -4.6969   22.3400 C   0  0  0  0  0  0
  -22.7693  -13.5157   21.1934 C   0  0  0  0  0  0
  -22.1662   -4.2155   21.0978 F   0  0  0  0  0  0
  -21.5626   -3.4541   25.7735 F   0  0  0  0  0  0
  -29.7263  -14.4296   20.2013 N   0  0  0  0  0  0
  -26.2739  -12.9689   20.3298 N   0  0  0  0  0  0
  -25.9365  -11.6738   20.5723 N   0  0  0  0  0  0
  -22.0362  -12.8126   22.0481 N   0  0  0  0  0  0
  -25.3868  -15.2072   20.4314 N   0  0  0  0  0  0
  -31.5603  -15.5510   20.2646 O   0  0  0  0  0  0
  -21.6652   -6.8892   21.4243 O   0  0  0  0  0  0
  -22.3367  -14.5453   20.6766 O   0  0  0  0  0  0
  -24.6939  -31.7878   23.1427 C   0  0  0  0  0  0
  -25.9471  -32.4406   23.8012 C   0  0  1  0  0  0
  -27.2232  -26.5950   20.2253 C   0  0  0  0  0  0
  -25.6005  -33.8237   24.1887 N   0  0  0  0  0  0
  -23.5244  -30.3858   21.4993 C   0  0  2  0  0  0
  -24.9812  -28.7044   20.1213 C   0  0  0  0  0  0
  -22.7812  -29.4253   22.4681 C   0  0  0  0  0  0
  -18.0346  -28.1426   22.8450 C   0  0  0  0  0  0
  -24.1495  -36.7127   23.2655 C   0  0  0  0  0  0
  -26.1097  -30.4854   21.4231 C   0  0  0  0  0  0
  -26.1728  -29.0384   20.7751 C   0  0  0  0  0  0
  -27.2749  -28.0154   20.7898 C   0  0  0  0  0  0
  -25.9978  -26.4976   19.5118 C   0  0  0  0  0  0
  -24.9391  -27.4614   19.4649 C   0  0  0  0  0  0
  -23.7839  -29.6740   20.1389 C   0  0  0  0  0  0
  -25.4150  -36.2859   24.0273 C   0  0  1  0  0  0
  -20.5986  -28.3792   23.1122 C   0  0  2  0  0  0
  -20.6806  -26.9441   22.5405 C   0  0  0  0  0  0
  -19.5784  -26.6367   21.5217 C   0  0  0  0  0  0
  -18.1966  -26.7952   22.1618 C   0  0  0  0  0  0
  -19.1614  -28.8936   23.2763 C   0  0  0  0  0  0
  -18.9518  -30.1516   23.8814 C   0  0  0  0  0  0
  -17.6507  -30.6606   24.0548 C   0  0  0  0  0  0
  -25.9138  -34.9253   23.4925 C   0  0  0  0  0  0
  -16.5396  -29.9086   23.6353 C   0  0  0  0  0  0
  -16.7325  -28.6509   23.0369 C   0  0  0  0  0  0
  -26.4612  -31.6487   25.0681 C   0  0  0  0  0  0
  -25.3648  -31.3837   26.1275 C   0  0  0  0  0  0
  -27.0563  -30.2814   24.6661 C   0  0  0  0  0  0
  -27.6037  -32.4376   25.7508 C   0  0  0  0  0  0
  -27.5561  -37.1717   24.8464 C   0  0  0  0  0  0
  -21.4449  -29.3019   22.3430 N   0  0  0  0  0  0
  -26.4264  -37.3635   23.9411 N   0  0  0  0  0  0
  -24.8008  -30.9221   22.0738 N   0  0  0  0  0  0
  -23.4207  -28.7867   23.3071 O   0  0  0  0  0  0
  -28.1707  -25.3273   20.2892 O   0  0  0  0  0  0
  -26.5794  -34.8852   22.4553 O   0  0  0  0  0  0
  -23.5936  -32.1002   23.6316 O   0  0  0  0  0  0
  -30.3797  -22.1995   20.3753 C   0  0  0  0  0  0
  -29.0234  -21.9359   20.2886 C   0  0  0  0  0  0
  -30.4502  -19.9132   20.3702 C   0  0  0  0  0  0
  -30.9477  -18.3954   20.3872 C   0  0  0  0  0  0
  -28.7129  -18.5999   20.2735 C   0  0  0  0  0  0
  -27.9605  -23.5258   20.2040 C   0  0  0  0  0  0
  -29.1693  -20.2893   20.2988 N   0  0  0  0  0  0
  -31.1551  -21.0481   20.4180 N   0  3  0  0  0  0
  -29.8682  -17.3207   20.3275 N   0  0  0  0  0  0
  -31.3707  -13.4661   19.1168 H   0  0  0  0  0  0
  -30.5885  -12.4066   20.2317 H   0  0  0  0  0  0
  -30.0234  -11.8372   17.8440 H   0  0  0  0  0  0
  -29.4623  -13.4689   17.5697 H   0  0  0  0  0  0
  -28.1960  -11.3188   19.2737 H   0  0  0  0  0  0
  -27.4556  -12.1813   17.9449 H   0  0  0  0  0  0
  -27.4105  -14.2144   19.1935 H   0  0  0  0  0  0
  -28.9012  -12.9255   21.5283 H   0  0  0  0  0  0
  -28.1266  -14.4882   21.5671 H   0  0  0  0  0  0
  -25.2795   -9.5682   22.4768 H   0  0  0  0  0  0
  -24.0017   -7.4642   22.7478 H   0  0  0  0  0  0
  -21.0875   -8.8796   19.8950 H   0  0  0  0  0  0
  -22.3747  -10.9681   19.6164 H   0  0  0  0  0  0
  -21.2017   -7.6153   23.9717 H   0  0  0  0  0  0
  -21.1481   -6.0525   25.9076 H   0  0  0  0  0  0
  -22.0595   -2.7613   23.2842 H   0  0  0  0  0  0
  -22.4010  -11.9807   22.4879 H   0  0  0  0  0  0
  -21.0963  -13.1110   22.2672 H   0  0  0  0  0  0
  -24.6169  -15.8566   20.5509 H   0  0  0  0  0  0
  -26.2375  -15.6540   20.1145 H   0  0  0  0  0  0
  -26.7562  -32.4848   23.0728 H   0  0  0  0  0  0
  -25.0044  -33.9258   24.9968 H   0  0  0  0  0  0
  -22.8558  -31.2261   21.3009 H   0  0  0  0  0  0
  -23.3783  -35.9427   23.3244 H   0  0  0  0  0  0
  -24.3563  -36.8871   22.2085 H   0  0  0  0  0  0
  -23.7227  -37.6269   23.6790 H   0  0  0  0  0  0
  -26.3245  -31.2030   20.6302 H   0  0  0  0  0  0
  -26.9565  -30.5564   22.0931 H   0  0  0  0  0  0
  -28.1705  -28.2817   21.3333 H   0  0  0  0  0  0
  -25.8115  -25.5638   19.0005 H   0  0  0  0  0  0
  -24.0428  -27.1957   18.9212 H   0  0  0  0  0  0
  -23.9698  -30.4300   19.3751 H   0  0  0  0  0  0
  -22.8859  -29.1476   19.8112 H   0  0  0  0  0  0
  -25.1363  -36.1603   25.0762 H   0  0  0  0  0  0
  -21.0064  -28.3426   24.1250 H   0  0  0  0  0  0
  -20.5660  -26.2420   23.3677 H   0  0  0  0  0  0
  -21.6667  -26.7367   22.1229 H   0  0  0  0  0  0
  -19.6938  -25.6255   21.1303 H   0  0  0  0  0  0
  -19.6730  -27.3130   20.6710 H   0  0  0  0  0  0
  -17.4236  -26.6694   21.4021 H   0  0  0  0  0  0
  -18.0352  -26.0114   22.9033 H   0  0  0  0  0  0
  -19.7993  -30.7353   24.2148 H   0  0  0  0  0  0
  -17.5057  -31.6278   24.5166 H   0  0  0  0  0  0
  -15.5392  -30.2962   23.7725 H   0  0  0  0  0  0
  -15.8725  -28.0800   22.7133 H   0  0  0  0  0  0
  -24.5864  -30.7155   25.7570 H   0  0  0  0  0  0
  -24.8803  -32.3068   26.4464 H   0  0  0  0  0  0
  -25.7798  -30.9153   27.0208 H   0  0  0  0  0  0
  -26.3301  -29.6392   24.1669 H   0  0  0  0  0  0
  -27.3962  -29.7308   25.5444 H   0  0  0  0  0  0
  -27.9291  -30.3914   24.0225 H   0  0  0  0  0  0
  -27.2561  -33.3760   26.1839 H   0  0  0  0  0  0
  -28.3973  -32.6805   25.0429 H   0  0  0  0  0  0
  -28.0568  -31.8673   26.5627 H   0  0  0  0  0  0
  -28.2530  -38.0058   24.7529 H   0  0  0  0  0  0
  -28.1105  -36.2579   24.6270 H   0  0  0  0  0  0
  -27.2279  -37.1323   25.8866 H   0  0  0  0  0  0
  -20.9777  -29.8663   21.6470 H   0  0  0  0  0  0
  -26.0080  -38.2674   24.1438 H   0  0  0  0  0  0
  -30.8592  -23.1680   20.4051 H   0  0  0  0  0  0
  -31.5370  -18.2707   21.2961 H   0  0  0  0  0  0
  -31.6235  -18.2815   19.5391 H   0  0  0  0  0  0
  -28.1133  -18.4592   19.3739 H   0  0  0  0  0  0
  -28.0284  -18.4560   21.1099 H   0  0  0  0  0  0
  -27.1966  -23.3550   20.9622 H   0  0  0  0  0  0
  -27.4123  -23.4089   19.2694 H   0  0  0  0  0  0
  -32.1661  -21.0664   20.4778 H   0  0  0  0  0  0
  1 25  1  0  0  0
  1 30  2  0  0  0
  1 79  1  0  0  0
  2  3  1  0  0  0
  2 25  1  0  0  0
  2 80  1  0  0  0
  2 81  1  0  0  0
  3  4  1  0  0  0
  3 82  1  0  0  0
  3 83  1  0  0  0
  4  5  1  0  0  0
  4 84  1  0  0  0
  4 85  1  0  0  0
  5  6  1  0  0  0
  5 26  1  0  0  0
  5 86  1  0  0  0
  6 25  1  0  0  0
  6 87  1  0  0  0
  6 88  1  0  0  0
  7  8  2  0  0  0
  7 26  1  0  0  0
  7 29  1  0  0  0
  8  9  1  0  0  0
  8 22  1  0  0  0
  9 10  1  0  0  0
  9 27  2  0  0  0
 10 11  2  0  0  0
 10 15  1  0  0  0
 11 12  1  0  0  0
 11 89  1  0  0  0
 12 13  2  0  0  0
 12 90  1  0  0  0
 13 14  1  0  0  0
 13 31  1  0  0  0
 14 15  2  0  0  0
 14 91  1  0  0  0
 15 92  1  0  0  0
 16 17  2  0  0  0
 16 21  1  0  0  0
 16 31  1  0  0  0
 17 18  1  0  0  0
 17 93  1  0  0  0
 18 19  2  0  0  0
 18 94  1  0  0  0
 19 20  1  0  0  0
 19 24  1  0  0  0
 20 21  2  0  0  0
 20 95  1  0  0  0
 21 23  1  0  0  0
 22 28  1  0  0  0
 22 32  2  0  0  0
 26 27  1  0  0  0
 28 96  1  0  0  0
 28 97  1  0  0  0
 29 98  1  0  0  0
 29 99  1  0  0  0
 33 34  1  0  0  0
 33 66  1  0  0  0
 33 70  2  0  0  0
 34 36  1  0  0  0
 34 59  1  0  0  0
 34100  1  0  0  0
 35 44  2  0  0  0
 35 45  1  0  0  0
 35 68  1  0  0  0
 36 56  1  0  0  0
 36101  1  0  0  0
 37 39  1  0  0  0
 37 47  1  0  0  0
 37 66  1  0  0  0
 37102  1  0  0  0
 38 43  2  0  0  0
 38 46  1  0  0  0
 38 47  1  0  0  0
 39 64  1  0  0  0
 39 67  2  0  0  0
 40 52  1  0  0  0
 40 53  2  0  0  0
 40 58  1  0  0  0
 41103  1  0  0  0
 41104  1  0  0  0
 41105  1  0  0  0
 41 48  1  0  0  0
 42 43  1  0  0  0
 42 66  1  0  0  0
 42106  1  0  0  0
 42107  1  0  0  0
 43 44  1  0  0  0
 44108  1  0  0  0
 45 46  2  0  0  0
 45109  1  0  0  0
 46110  1  0  0  0
 47111  1  0  0  0
 47112  1  0  0  0
 48 56  1  0  0  0
 48 65  1  0  0  0
 48113  1  0  0  0
 49 50  1  0  0  0
 49 53  1  0  0  0
 49 64  1  0  0  0
 49114  1  0  0  0
 50 51  1  0  0  0
 50115  1  0  0  0
 50116  1  0  0  0
 51 52  1  0  0  0
 51117  1  0  0  0
 51118  1  0  0  0
 52119  1  0  0  0
 52120  1  0  0  0
 53 54  1  0  0  0
 54 55  2  0  0  0
 54121  1  0  0  0
 55 57  1  0  0  0
 55122  1  0  0  0
 56 69  2  0  0  0
 57 58  2  0  0  0
 57123  1  0  0  0
 58124  1  0  0  0
 59 60  1  0  0  0
 59 61  1  0  0  0
 59 62  1  0  0  0
 60125  1  0  0  0
 60126  1  0  0  0
 60127  1  0  0  0
 61128  1  0  0  0
 61129  1  0  0  0
 61130  1  0  0  0
 62131  1  0  0  0
 62132  1  0  0  0
 62133  1  0  0  0
 63 65  1  0  0  0
 63134  1  0  0  0
 63135  1  0  0  0
 63136  1  0  0  0
 64137  1  0  0  0
 65138  1  0  0  0
 68 76  1  0  0  0
 71 72  2  0  0  0
 71 78  1  0  0  0
 71139  1  0  0  0
 72 76  1  0  0  0
 72 77  1  0  0  0
 73 74  1  0  0  0
 73 77  1  0  0  0
 73 78  2  0  0  0
 74 79  1  0  0  0
 74140  1  0  0  0
 74141  1  0  0  0
 75 77  1  0  0  0
 75 79  1  0  0  0
 75142  1  0  0  0
 75143  1  0  0  0
 76144  1  0  0  0
 76145  1  0  0  0
 78146  1  0  0  0
M  CHG  1  78   1
M  ISO  4   1 100  68 101  76 101  79 100
M  END
> <chiral flag>
0

> <version>
0

> <s_m_source_file>
/data/baiqing/PycharmProjects/Reinvent-master-3.2/result/LINK_invent/BTK/process_docking_weight1_custom_sum_contain_oxygen_bond_distance_aromatic_linkinvent_7_9_3/rearranged_h_0181.sdf

> <i_m_source_file_index>
81

> <r_mmod_Potential_Energy-OPLS-2005>
2950.47143554688

> <r_mmod_Stretch_Energy-OPLS-2005>
1250.26000976562

> <r_mmod_Bend_Energy-OPLS-2005>
894.863708496094

> <r_mmod_Torsional_Energy-OPLS-2005>
263.7880859375

> <r_mmod_Improper_Torsional_Energy-OPLS-2005>
5.01258945465088

> <r_mmod_Van_der_Waal_Energy-OPLS-2005>
110.342063903809

> <r_mmod_Electrostatic_Energy-OPLS-2005>
-252.328948974609

> <r_mmod_Solvation_Energy-OPLS-2005>
-443.413726806641

> <b_mmod_Minimization_Converged-OPLS-2005>
0

> <r_mmod_RMS_Derivative-OPLS-2005>
0.109161995351315

$$$$
81
                    3D
 Structure written by MMmdl.
160169  0  0  1  0            999 V2000
  -30.5109  -15.0865   20.4058 C   0  0  0  0  0  0
  -30.4389  -12.6906   19.4956 C   0  0  0  0  0  0
  -29.5169  -12.5404   18.2635 C   0  0  0  0  0  0
  -28.0592  -12.2899   18.6916 C   0  0  0  0  0  0
  -27.6174  -13.2387   19.8330 C   0  0  2  0  0  0
  -28.6668  -13.3215   20.9616 C   0  0  0  0  0  0
  -25.2361  -13.8151   20.5690 C   0  0  0  0  0  0
  -24.1709  -13.0399   20.9229 C   0  0  0  0  0  0
  -24.6358  -11.6902   20.8776 C   0  0  0  0  0  0
  -23.9070  -10.4292   21.0405 C   0  0  0  0  0  0
  -24.3646   -9.4215   21.9165 C   0  0  0  0  0  0
  -23.6329   -8.2252   22.0748 C   0  0  0  0  0  0
  -22.4300   -8.0290   21.3546 C   0  0  0  0  0  0
  -21.9925   -9.0253   20.4639 C   0  0  0  0  0  0
  -22.7250  -10.2130   20.3037 C   0  0  0  0  0  0
  -21.6853   -6.0755   22.5284 C   0  0  0  0  0  0
  -21.4009   -6.5656   23.8216 C   0  0  0  0  0  0
  -21.3663   -5.6804   24.9173 C   0  0  0  0  0  0
  -21.6048   -4.3064   24.7212 C   0  0  0  0  0  0
  -21.8819   -3.8165   23.4328 C   0  0  0  0  0  0
  -21.9203   -4.6990   22.3392 C   0  0  0  0  0  0
  -22.7721  -13.5156   21.1884 C   0  0  0  0  0  0
  -22.1659   -4.2185   21.0960 F   0  0  0  0  0  0
  -21.5646   -3.4544   25.7719 F   0  0  0  0  0  0
  -29.9081  -13.8121   20.3400 N   0  0  0  0  0  0
  -26.2815  -12.9394   20.3273 N   0  0  0  0  0  0
  -25.9296  -11.6544   20.5813 N   0  0  0  0  0  0
  -22.0403  -12.8130   22.0441 N   0  0  0  0  0  0
  -25.3878  -15.1875   20.4037 N   0  0  0  0  0  0
  -31.7319  -15.0812   20.1938 O   0  0  0  0  0  0
  -21.6651   -6.8902   21.4252 O   0  0  0  0  0  0
  -22.3399  -14.5483   20.6760 O   0  0  0  0  0  0
  -24.6488  -31.8367   23.1826 C   0  0  0  0  0  0
  -25.9262  -32.4634   23.8220 C   0  0  1  0  0  0
  -27.2133  -27.0765   20.1668 C   0  0  0  0  0  0
  -25.5984  -33.8446   24.2142 N   0  0  0  0  0  0
  -23.4543  -30.4569   21.5284 C   0  0  2  0  0  0
  -24.9054  -28.8697   20.1093 C   0  0  0  0  0  0
  -22.7569  -29.4529   22.4813 C   0  0  0  0  0  0
  -18.0306  -28.1382   22.8484 C   0  0  0  0  0  0
  -24.1493  -36.7235   23.2653 C   0  0  0  0  0  0
  -26.0133  -30.6904   21.3921 C   0  0  0  0  0  0
  -26.0835  -29.2952   20.7361 C   0  0  0  0  0  0
  -27.2406  -28.4184   20.7430 C   0  0  0  0  0  0
  -26.0107  -26.7635   19.5015 C   0  0  0  0  0  0
  -24.8849  -27.6176   19.4727 C   0  0  0  0  0  0
  -23.6854  -29.7823   20.1495 C   0  0  0  0  0  0
  -25.4126  -36.2985   24.0302 C   0  0  1  0  0  0
  -20.5913  -28.3729   23.1207 C   0  0  2  0  0  0
  -20.6782  -26.9426   22.5393 C   0  0  0  0  0  0
  -19.5761  -26.6385   21.5199 C   0  0  0  0  0  0
  -18.1946  -26.7926   22.1615 C   0  0  0  0  0  0
  -19.1564  -28.8874   23.2840 C   0  0  0  0  0  0
  -18.9488  -30.1468   23.8872 C   0  0  0  0  0  0
  -17.6483  -30.6587   24.0563 C   0  0  0  0  0  0
  -25.9091  -34.9365   23.5036 C   0  0  0  0  0  0
  -16.5374  -29.9079   23.6328 C   0  0  0  0  0  0
  -16.7291  -28.6487   23.0369 C   0  0  0  0  0  0
  -26.4578  -31.6506   25.0680 C   0  0  0  0  0  0
  -25.3765  -31.3679   26.1377 C   0  0  0  0  0  0
  -27.0485  -30.2898   24.6294 C   0  0  0  0  0  0
  -27.6068  -32.4298   25.7489 C   0  0  0  0  0  0
  -27.5563  -37.1770   24.8465 C   0  0  0  0  0  0
  -21.4254  -29.3050   22.3565 N   0  0  0  0  0  0
  -26.4273  -37.3712   23.9409 N   0  0  0  0  0  0
  -24.7258  -31.0172   22.0892 N   0  0  0  0  0  0
  -23.4177  -28.8091   23.3009 O   0  0  0  0  0  0
  -28.2447  -26.0510   20.1530 O   0  0  0  0  0  0
  -26.5678  -34.8874   22.4615 O   0  0  0  0  0  0
  -23.5602  -32.1285   23.7020 O   0  0  0  0  0  0
  -29.0693  -21.8336   20.7884 C   0  0  0  0  0  0
  -28.8392  -20.6339   20.0357 C   0  0  0  0  0  0
  -28.4308  -23.0644   20.1987 C   0  0  0  0  0  0
  -27.9689  -18.1095   20.7312 C   0  0  0  0  0  0
  -28.3410  -16.5865   20.5730 C   0  0  0  0  0  0
  -30.2711  -17.8739   20.4003 C   0  0  0  0  0  0
  -29.0502  -18.9498   20.0475 C   0  0  2  0  0  0
  -27.2453  -20.0521   15.4315 C   0  0  0  0  0  0
  -28.0130  -24.6068   20.7496 C   0  0  0  0  0  0
  -27.3208  -20.5475   17.9437 C   0  0  0  0  0  0
  -28.1034  -20.5080   16.6187 C   0  0  1  0  0  0
  -27.8530  -22.5894   19.1014 N   0  0  0  0  0  0
  -28.0452  -21.2188   19.0242 N   0  0  0  0  0  0
  -29.8011  -16.3651   20.4836 N   0  0  0  0  0  0
  -29.1376  -19.6710   16.7253 F   0  0  0  0  0  0
  -31.4606  -12.8753   19.1601 H   0  0  0  0  0  0
  -30.4853  -11.7595   20.0622 H   0  0  0  0  0  0
  -29.8617  -11.7309   17.6197 H   0  0  0  0  0  0
  -29.5683  -13.4508   17.6666 H   0  0  0  0  0  0
  -27.9823  -11.2543   19.0247 H   0  0  0  0  0  0
  -27.3935  -12.3891   17.8347 H   0  0  0  0  0  0
  -27.5491  -14.2102   19.3543 H   0  0  0  0  0  0
  -28.8052  -12.3429   21.4234 H   0  0  0  0  0  0
  -28.3447  -13.9757   21.7689 H   0  0  0  0  0  0
  -25.2797   -9.5730   22.4722 H   0  0  0  0  0  0
  -24.0074   -7.4663   22.7468 H   0  0  0  0  0  0
  -21.0861   -8.8770   19.8934 H   0  0  0  0  0  0
  -22.3705  -10.9678   19.6153 H   0  0  0  0  0  0
  -21.1981   -7.6161   23.9703 H   0  0  0  0  0  0
  -21.1466   -6.0533   25.9074 H   0  0  0  0  0  0
  -22.0589   -2.7630   23.2802 H   0  0  0  0  0  0
  -22.4121  -11.9855   22.4849 H   0  0  0  0  0  0
  -21.1009  -13.1083   22.2695 H   0  0  0  0  0  0
  -24.6082  -15.8267   20.5160 H   0  0  0  0  0  0
  -26.2287  -15.6427   20.0815 H   0  0  0  0  0  0
  -26.7315  -32.5223   23.0930 H   0  0  0  0  0  0
  -25.0094  -33.9537   25.0267 H   0  0  0  0  0  0
  -22.7598  -31.2850   21.3695 H   0  0  0  0  0  0
  -23.3744  -35.9576   23.3285 H   0  0  0  0  0  0
  -24.3580  -36.8917   22.2075 H   0  0  0  0  0  0
  -23.7262  -37.6415   23.6740 H   0  0  0  0  0  0
  -26.1752  -31.4406   20.6160 H   0  0  0  0  0  0
  -26.8805  -30.7405   22.0382 H   0  0  0  0  0  0
  -28.1386  -28.7485   21.2464 H   0  0  0  0  0  0
  -25.9344  -25.8078   19.0015 H   0  0  0  0  0  0
  -23.9934  -27.2906   18.9559 H   0  0  0  0  0  0
  -23.8259  -30.5570   19.3940 H   0  0  0  0  0  0
  -22.7981  -29.2295   19.8360 H   0  0  0  0  0  0
  -25.1312  -36.1784   25.0788 H   0  0  0  0  0  0
  -21.0009  -28.3334   24.1330 H   0  0  0  0  0  0
  -20.5648  -26.2354   23.3622 H   0  0  0  0  0  0
  -21.6653  -26.7400   22.1229 H   0  0  0  0  0  0
  -19.6925  -25.6296   21.1244 H   0  0  0  0  0  0
  -19.6687  -27.3173   20.6713 H   0  0  0  0  0  0
  -17.4207  -26.6666   21.4030 H   0  0  0  0  0  0
  -18.0344  -26.0062   22.9004 H   0  0  0  0  0  0
  -19.7972  -30.7290   24.2221 H   0  0  0  0  0  0
  -17.5046  -31.6269   24.5175 H   0  0  0  0  0  0
  -15.5378  -30.2983   23.7670 H   0  0  0  0  0  0
  -15.8688  -28.0806   22.7096 H   0  0  0  0  0  0
  -24.5995  -30.6959   25.7717 H   0  0  0  0  0  0
  -24.8919  -32.2859   26.4710 H   0  0  0  0  0  0
  -25.8090  -30.8943   27.0210 H   0  0  0  0  0  0
  -26.3135  -29.6557   24.1326 H   0  0  0  0  0  0
  -27.4129  -29.7225   25.4871 H   0  0  0  0  0  0
  -27.9011  -30.4105   23.9605 H   0  0  0  0  0  0
  -27.2634  -33.3649   26.1914 H   0  0  0  0  0  0
  -28.3973  -32.6770   25.0390 H   0  0  0  0  0  0
  -28.0632  -31.8530   26.5539 H   0  0  0  0  0  0
  -28.2542  -38.0098   24.7517 H   0  0  0  0  0  0
  -28.1093  -36.2624   24.6282 H   0  0  0  0  0  0
  -27.2286  -37.1391   25.8868 H   0  0  0  0  0  0
  -20.9456  -29.8768   21.6749 H   0  0  0  0  0  0
  -26.0115  -38.2765   24.1433 H   0  0  0  0  0  0
  -29.5770  -21.8314   21.7419 H   0  0  0  0  0  0
  -27.9261  -18.3730   21.7884 H   0  0  0  0  0  0
  -26.9827  -18.3156   20.3158 H   0  0  0  0  0  0
  -27.9106  -16.2542   19.6321 H   0  0  0  0  0  0
  -27.8903  -16.0224   21.3861 H   0  0  0  0  0  0
  -30.7000  -18.1299   21.3708 H   0  0  0  0  0  0
  -31.0809  -17.9681   19.6758 H   0  0  0  0  0  0
  -28.9391  -18.7071   18.9933 H   0  0  0  0  0  0
  -26.3993  -20.7221   15.2780 H   0  0  0  0  0  0
  -26.8543  -19.0453   15.5812 H   0  0  0  0  0  0
  -27.8292  -20.0515   14.5105 H   0  0  0  0  0  0
  -28.4318  -24.6887   21.7529 H   0  0  0  0  0  0
  -26.9414  -24.5593   20.9439 H   0  0  0  0  0  0
  -27.0312  -19.5436   18.2518 H   0  0  0  0  0  0
  -26.3763  -21.0741   17.7942 H   0  0  0  0  0  0
  -28.5158  -21.4947   16.4041 H   0  0  0  0  0  0
  1 25  1  0  0  0
  1 30  2  0  0  0
  1 84  1  0  0  0
  2  3  1  0  0  0
  2 25  1  0  0  0
  2 86  1  0  0  0
  2 87  1  0  0  0
  3  4  1  0  0  0
  3 88  1  0  0  0
  3 89  1  0  0  0
  4  5  1  0  0  0
  4 90  1  0  0  0
  4 91  1  0  0  0
  5  6  1  0  0  0
  5 26  1  0  0  0
  5 92  1  0  0  0
  6 25  1  0  0  0
  6 93  1  0  0  0
  6 94  1  0  0  0
  7  8  2  0  0  0
  7 26  1  0  0  0
  7 29  1  0  0  0
  8  9  1  0  0  0
  8 22  1  0  0  0
  9 10  1  0  0  0
  9 27  2  0  0  0
 10 11  2  0  0  0
 10 15  1  0  0  0
 11 12  1  0  0  0
 11 95  1  0  0  0
 12 13  2  0  0  0
 12 96  1  0  0  0
 13 14  1  0  0  0
 13 31  1  0  0  0
 14 15  2  0  0  0
 14 97  1  0  0  0
 15 98  1  0  0  0
 16 17  2  0  0  0
 16 21  1  0  0  0
 16 31  1  0  0  0
 17 18  1  0  0  0
 17 99  1  0  0  0
 18 19  2  0  0  0
 18100  1  0  0  0
 19 20  1  0  0  0
 19 24  1  0  0  0
 20 21  2  0  0  0
 20101  1  0  0  0
 21 23  1  0  0  0
 22 28  1  0  0  0
 22 32  2  0  0  0
 26 27  1  0  0  0
 28102  1  0  0  0
 28103  1  0  0  0
 29104  1  0  0  0
 29105  1  0  0  0
 33 34  1  0  0  0
 33 66  1  0  0  0
 33 70  2  0  0  0
 34 36  1  0  0  0
 34 59  1  0  0  0
 34106  1  0  0  0
 35 44  2  0  0  0
 35 45  1  0  0  0
 35 68  1  0  0  0
 36 56  1  0  0  0
 36107  1  0  0  0
 37 39  1  0  0  0
 37 47  1  0  0  0
 37 66  1  0  0  0
 37108  1  0  0  0
 38 43  2  0  0  0
 38 46  1  0  0  0
 38 47  1  0  0  0
 39 64  1  0  0  0
 39 67  2  0  0  0
 40 52  1  0  0  0
 40 53  2  0  0  0
 40 58  1  0  0  0
 41109  1  0  0  0
 41110  1  0  0  0
 41111  1  0  0  0
 41 48  1  0  0  0
 42 43  1  0  0  0
 42 66  1  0  0  0
 42112  1  0  0  0
 42113  1  0  0  0
 43 44  1  0  0  0
 44114  1  0  0  0
 45 46  2  0  0  0
 45115  1  0  0  0
 46116  1  0  0  0
 47117  1  0  0  0
 47118  1  0  0  0
 48 56  1  0  0  0
 48 65  1  0  0  0
 48119  1  0  0  0
 49 50  1  0  0  0
 49 53  1  0  0  0
 49 64  1  0  0  0
 49120  1  0  0  0
 50 51  1  0  0  0
 50121  1  0  0  0
 50122  1  0  0  0
 51 52  1  0  0  0
 51123  1  0  0  0
 51124  1  0  0  0
 52125  1  0  0  0
 52126  1  0  0  0
 53 54  1  0  0  0
 54 55  2  0  0  0
 54127  1  0  0  0
 55 57  1  0  0  0
 55128  1  0  0  0
 56 69  2  0  0  0
 57 58  2  0  0  0
 57129  1  0  0  0
 58130  1  0  0  0
 59 60  1  0  0  0
 59 61  1  0  0  0
 59 62  1  0  0  0
 60131  1  0  0  0
 60132  1  0  0  0
 60133  1  0  0  0
 61134  1  0  0  0
 61135  1  0  0  0
 61136  1  0  0  0
 62137  1  0  0  0
 62138  1  0  0  0
 62139  1  0  0  0
 63 65  1  0  0  0
 63140  1  0  0  0
 63141  1  0  0  0
 63142  1  0  0  0
 64143  1  0  0  0
 65144  1  0  0  0
 68 79  1  0  0  0
 71 72  2  0  0  0
 71 73  1  0  0  0
 71145  1  0  0  0
 72 83  1  0  0  0
 72 77  1  0  0  0
 73 79  1  0  0  0
 73 82  2  0  0  0
 74 75  1  0  0  0
 74 77  1  0  0  0
 74146  1  0  0  0
 74147  1  0  0  0
 75 84  1  0  0  0
 75148  1  0  0  0
 75149  1  0  0  0
 76 77  1  0  0  0
 76 84  1  0  0  0
 76150  1  0  0  0
 76151  1  0  0  0
 77152  1  0  0  0
 78153  1  0  0  0
 78154  1  0  0  0
 78155  1  0  0  0
 78 81  1  0  0  0
 79156  1  0  0  0
 79157  1  0  0  0
 80 81  1  0  0  0
 80 83  1  0  0  0
 80158  1  0  0  0
 80159  1  0  0  0
 81 85  1  0  0  0
 81160  1  0  0  0
 82 83  1  0  0  0
M  ISO  4   1 100  68 101  79 101  84 100
M  END
> <chiral flag>
0

> <version>
0

> <s_m_source_file>
/data/baiqing/PycharmProjects/Reinvent-master-3.2/result/LINK_invent/BTK/process_docking_weight1_custom_sum_contain_oxygen_bond_distance_aromatic_linkinvent_7_9_3/rearranged_h_0181.sdf

> <i_m_source_file_index>
82

> <r_mmod_Potential_Energy-OPLS-2005>
957.741577148438

> <r_mmod_Stretch_Energy-OPLS-2005>
326.806335449219

> <r_mmod_Bend_Energy-OPLS-2005>
384.691986083984

> <r_mmod_Torsional_Energy-OPLS-2005>
351.730346679688

> <r_mmod_Improper_Torsional_Energy-OPLS-2005>
7.3999490737915

> <r_mmod_Van_der_Waal_Energy-OPLS-2005>
106.091484069824

> <r_mmod_Electrostatic_Energy-OPLS-2005>
-275.523193359375

> <r_mmod_Solvation_Energy-OPLS-2005>
-215.402709960938

> <b_mmod_Minimization_Converged-OPLS-2005>
0

> <r_mmod_RMS_Derivative-OPLS-2005>
2.5663595199585

$$$$
82
                    3D
 Structure written by MMmdl.
160170  0  0  1  0            999 V2000
  -30.6244  -14.6177   20.5126 C   0  0  0  0  0  0
  -30.4425  -12.3794   19.4440 C   0  0  0  0  0  0
  -29.5076  -12.5055   18.2198 C   0  0  0  0  0  0
  -28.0296  -12.3447   18.6314 C   0  0  0  0  0  0
  -27.6555  -13.2094   19.8643 C   0  0  2  0  0  0
  -28.7015  -13.0451   20.9912 C   0  0  0  0  0  0
  -25.2575  -13.8150   20.5669 C   0  0  0  0  0  0
  -24.1838  -13.0430   20.9197 C   0  0  0  0  0  0
  -24.6395  -11.6898   20.8747 C   0  0  0  0  0  0
  -23.9059  -10.4287   21.0410 C   0  0  0  0  0  0
  -24.3610   -9.4204   21.9187 C   0  0  0  0  0  0
  -23.6287   -8.2238   22.0757 C   0  0  0  0  0  0
  -22.4270   -8.0277   21.3546 C   0  0  0  0  0  0
  -21.9905   -9.0250   20.4646 C   0  0  0  0  0  0
  -22.7233  -10.2130   20.3055 C   0  0  0  0  0  0
  -21.6849   -6.0733   22.5279 C   0  0  0  0  0  0
  -21.4011   -6.5637   23.8212 C   0  0  0  0  0  0
  -21.3657   -5.6791   24.9174 C   0  0  0  0  0  0
  -21.6042   -4.3053   24.7224 C   0  0  0  0  0  0
  -21.8822   -3.8145   23.4346 C   0  0  0  0  0  0
  -21.9193   -4.6962   22.3403 C   0  0  0  0  0  0
  -22.7860  -13.5233   21.1854 C   0  0  0  0  0  0
  -22.1661   -4.2149   21.0980 F   0  0  0  0  0  0
  -21.5630   -3.4538   25.7737 F   0  0  0  0  0  0
  -30.0200  -13.3903   20.4319 N   0  0  0  0  0  0
  -26.2998  -12.9317   20.3315 N   0  0  0  0  0  0
  -25.9322  -11.6483   20.5758 N   0  0  0  0  0  0
  -22.0494  -12.8229   22.0405 N   0  0  0  0  0  0
  -25.4277  -15.1867   20.4032 N   0  0  0  0  0  0
  -31.7887  -14.7848   20.1322 O   0  0  0  0  0  0
  -21.6636   -6.8875   21.4239 O   0  0  0  0  0  0
  -22.3555  -14.5543   20.6702 O   0  0  0  0  0  0
  -24.6243  -31.8617   23.2046 C   0  0  0  0  0  0
  -25.9100  -32.4791   23.8362 C   0  0  1  0  0  0
  -27.2234  -27.3370   20.1094 C   0  0  0  0  0  0
  -25.5920  -33.8586   24.2287 N   0  0  0  0  0  0
  -23.4164  -30.4877   21.5468 C   0  0  2  0  0  0
  -24.8617  -28.9471   20.1131 C   0  0  0  0  0  0
  -22.7467  -29.4639   22.4940 C   0  0  0  0  0  0
  -18.0280  -28.1386   22.8487 C   0  0  0  0  0  0
  -24.1479  -36.7276   23.2642 C   0  0  0  0  0  0
  -25.9574  -30.7987   21.3736 C   0  0  0  0  0  0
  -26.0317  -29.4286   20.7137 C   0  0  0  0  0  0
  -27.2161  -28.6361   20.7001 C   0  0  0  0  0  0
  -26.0241  -26.9034   19.4942 C   0  0  0  0  0  0
  -24.8593  -27.6890   19.4961 C   0  0  0  0  0  0
  -23.6303  -29.8258   20.1612 C   0  0  0  0  0  0
  -25.4103  -36.3078   24.0336 C   0  0  1  0  0  0
  -20.5885  -28.3682   23.1285 C   0  0  2  0  0  0
  -20.6771  -26.9409   22.5406 C   0  0  0  0  0  0
  -19.5746  -26.6384   21.5213 C   0  0  0  0  0  0
  -18.1925  -26.7930   22.1627 C   0  0  0  0  0  0
  -19.1536  -28.8849   23.2886 C   0  0  0  0  0  0
  -18.9469  -30.1456   23.8898 C   0  0  0  0  0  0
  -17.6471  -30.6593   24.0564 C   0  0  0  0  0  0
  -25.9044  -34.9456   23.5108 C   0  0  0  0  0  0
  -16.5357  -29.9096   23.6340 C   0  0  0  0  0  0
  -16.7269  -28.6514   23.0355 C   0  0  0  0  0  0
  -26.4493  -31.6598   25.0726 C   0  0  0  0  0  0
  -25.3732  -31.3731   26.1457 C   0  0  0  0  0  0
  -27.0344  -30.3030   24.6165 C   0  0  0  0  0  0
  -27.6043  -32.4340   25.7500 C   0  0  0  0  0  0
  -27.5575  -37.1781   24.8467 C   0  0  0  0  0  0
  -21.4181  -29.3044   22.3686 N   0  0  0  0  0  0
  -26.4274  -37.3780   23.9433 N   0  0  0  0  0  0
  -24.6848  -31.0650   22.0989 N   0  0  0  0  0  0
  -23.4202  -28.8177   23.3009 O   0  0  0  0  0  0
  -28.3530  -26.5060   20.1455 O   0  0  0  0  0  0
  -26.5615  -34.8926   22.4678 O   0  0  0  0  0  0
  -23.5411  -32.1402   23.7389 O   0  0  0  0  0  0
  -28.5652  -19.1897   21.0185 C   0  0  0  0  0  0
  -28.6291  -17.7732   20.9634 C   0  0  0  0  0  0
  -30.9242  -19.2057   20.7362 C   0  0  0  0  0  0
  -29.7408  -19.9704   20.9359 C   0  0  0  0  0  0
  -29.8595  -17.0895   20.8083 C   0  0  0  0  0  0
  -30.7429  -21.9442   22.3217 C   0  0  0  0  0  0
  -29.2842  -21.8344   22.6861 C   0  0  0  0  0  0
  -30.3235  -23.9930   19.0621 C   0  0  0  0  0  0
  -29.3655  -24.0859   20.2493 C   0  0  2  0  0  0
  -29.2713  -22.4983   20.1587 C   0  0  2  0  0  0
  -29.7324  -21.4940   21.2789 C   0  0  0  0  0  0
  -28.1315  -25.0479   20.0873 C   0  0  0  0  0  0
  -30.9844  -17.8396   20.6675 N   0  0  0  0  0  0
  -29.7858  -15.6386   20.8631 N   0  0  0  0  0  0
  -30.2451  -22.5363   19.0727 N   0  3  0  0  0  0
  -31.4830  -12.5088   19.1408 H   0  0  0  0  0  0
  -30.3800  -11.3796   19.8768 H   0  0  0  0  0  0
  -29.7686  -11.7586   17.4691 H   0  0  0  0  0  0
  -29.6509  -13.4778   17.7454 H   0  0  0  0  0  0
  -27.8631  -11.2904   18.8564 H   0  0  0  0  0  0
  -27.3757  -12.5815   17.7913 H   0  0  0  0  0  0
  -27.6771  -14.2465   19.5304 H   0  0  0  0  0  0
  -28.7099  -12.0171   21.3558 H   0  0  0  0  0  0
  -28.4486  -13.6597   21.8565 H   0  0  0  0  0  0
  -25.2757   -9.5680   22.4762 H   0  0  0  0  0  0
  -23.9995   -7.4629   22.7476 H   0  0  0  0  0  0
  -21.0839   -8.8766   19.8949 H   0  0  0  0  0  0
  -22.3695  -10.9667   19.6163 H   0  0  0  0  0  0
  -21.1998   -7.6145   23.9716 H   0  0  0  0  0  0
  -21.1475   -6.0520   25.9077 H   0  0  0  0  0  0
  -22.0603   -2.7609   23.2845 H   0  0  0  0  0  0
  -22.4096  -11.9884   22.4789 H   0  0  0  0  0  0
  -21.1114  -13.1265   22.2606 H   0  0  0  0  0  0
  -24.6487  -15.8306   20.4886 H   0  0  0  0  0  0
  -26.2472  -15.6137   19.9918 H   0  0  0  0  0  0
  -26.7162  -32.5463   23.1104 H   0  0  0  0  0  0
  -25.0065  -33.9736   25.0432 H   0  0  0  0  0  0
  -22.7088  -31.3075   21.4051 H   0  0  0  0  0  0
  -23.3761  -35.9591   23.3291 H   0  0  0  0  0  0
  -24.3566  -36.8905   22.2058 H   0  0  0  0  0  0
  -23.7207  -37.6464   23.6668 H   0  0  0  0  0  0
  -26.0876  -31.5656   20.6089 H   0  0  0  0  0  0
  -26.8384  -30.8433   22.0023 H   0  0  0  0  0  0
  -28.1152  -29.0029   21.1748 H   0  0  0  0  0  0
  -25.9465  -25.9456   19.0048 H   0  0  0  0  0  0
  -23.9618  -27.3134   19.0238 H   0  0  0  0  0  0
  -23.7493  -30.6035   19.4058 H   0  0  0  0  0  0
  -22.7509  -29.2551   19.8568 H   0  0  0  0  0  0
  -25.1281  -36.1914   25.0827 H   0  0  0  0  0  0
  -20.9971  -28.3247   24.1408 H   0  0  0  0  0  0
  -20.5671  -26.2294   23.3605 H   0  0  0  0  0  0
  -21.6639  -26.7436   22.1197 H   0  0  0  0  0  0
  -19.6912  -25.6297   21.1237 H   0  0  0  0  0  0
  -19.6688  -27.3200   20.6751 H   0  0  0  0  0  0
  -17.4194  -26.6675   21.4030 H   0  0  0  0  0  0
  -18.0325  -26.0073   22.9024 H   0  0  0  0  0  0
  -19.7950  -30.7267   24.2262 H   0  0  0  0  0  0
  -17.5035  -31.6277   24.5164 H   0  0  0  0  0  0
  -15.5363  -30.3006   23.7676 H   0  0  0  0  0  0
  -15.8662  -28.0840   22.7074 H   0  0  0  0  0  0
  -24.5904  -30.7080   25.7784 H   0  0  0  0  0  0
  -24.8931  -32.2901   26.4881 H   0  0  0  0  0  0
  -25.8061  -30.8907   27.0227 H   0  0  0  0  0  0
  -26.2913  -29.6774   24.1201 H   0  0  0  0  0  0
  -27.4074  -29.7281   25.4651 H   0  0  0  0  0  0
  -27.8764  -30.4332   23.9366 H   0  0  0  0  0  0
  -27.2637  -33.3635   26.2069 H   0  0  0  0  0  0
  -28.3862  -32.6904   25.0342 H   0  0  0  0  0  0
  -28.0703  -31.8476   26.5428 H   0  0  0  0  0  0
  -28.2564  -38.0108   24.7558 H   0  0  0  0  0  0
  -28.1098  -36.2639   24.6231 H   0  0  0  0  0  0
  -27.2300  -37.1349   25.8869 H   0  0  0  0  0  0
  -20.9350  -29.8775   21.6911 H   0  0  0  0  0  0
  -26.0151  -38.2841   24.1487 H   0  0  0  0  0  0
  -27.6137  -19.6703   21.1965 H   0  0  0  0  0  0
  -27.7085  -17.2183   21.0803 H   0  0  0  0  0  0
  -31.8798  -19.7074   20.6923 H   0  0  0  0  0  0
  -31.4109  -21.2005   22.7516 H   0  0  0  0  0  0
  -31.1606  -22.9463   22.2688 H   0  0  0  0  0  0
  -28.7501  -22.7691   22.8474 H   0  0  0  0  0  0
  -28.9933  -21.0182   23.3452 H   0  0  0  0  0  0
  -31.3250  -24.3683   19.2750 H   0  0  0  0  0  0
  -29.9253  -24.4154   18.1390 H   0  0  0  0  0  0
  -29.9290  -24.3663   21.1378 H   0  0  0  0  0  0
  -28.2992  -22.2246   19.7462 H   0  0  0  0  0  0
  -27.3890  -24.7927   20.8453 H   0  0  0  0  0  0
  -27.6781  -24.8064   19.1271 H   0  0  0  0  0  0
  -28.8778  -15.2932   21.1245 H   0  0  0  0  0  0
  -31.1230  -22.1157   19.3262 H   0  0  0  0  0  0
  -29.8915  -22.1504   18.2127 H   0  0  0  0  0  0
  1 25  1  0  0  0
  1 30  2  0  0  0
  1 84  1  0  0  0
  2  3  1  0  0  0
  2 25  1  0  0  0
  2 86  1  0  0  0
  2 87  1  0  0  0
  3  4  1  0  0  0
  3 88  1  0  0  0
  3 89  1  0  0  0
  4  5  1  0  0  0
  4 90  1  0  0  0
  4 91  1  0  0  0
  5  6  1  0  0  0
  5 26  1  0  0  0
  5 92  1  0  0  0
  6 25  1  0  0  0
  6 93  1  0  0  0
  6 94  1  0  0  0
  7  8  2  0  0  0
  7 26  1  0  0  0
  7 29  1  0  0  0
  8  9  1  0  0  0
  8 22  1  0  0  0
  9 10  1  0  0  0
  9 27  2  0  0  0
 10 11  2  0  0  0
 10 15  1  0  0  0
 11 12  1  0  0  0
 11 95  1  0  0  0
 12 13  2  0  0  0
 12 96  1  0  0  0
 13 14  1  0  0  0
 13 31  1  0  0  0
 14 15  2  0  0  0
 14 97  1  0  0  0
 15 98  1  0  0  0
 16 17  2  0  0  0
 16 21  1  0  0  0
 16 31  1  0  0  0
 17 18  1  0  0  0
 17 99  1  0  0  0
 18 19  2  0  0  0
 18100  1  0  0  0
 19 20  1  0  0  0
 19 24  1  0  0  0
 20 21  2  0  0  0
 20101  1  0  0  0
 21 23  1  0  0  0
 22 28  1  0  0  0
 22 32  2  0  0  0
 26 27  1  0  0  0
 28102  1  0  0  0
 28103  1  0  0  0
 29104  1  0  0  0
 29105  1  0  0  0
 33 34  1  0  0  0
 33 66  1  0  0  0
 33 70  2  0  0  0
 34 36  1  0  0  0
 34 59  1  0  0  0
 34106  1  0  0  0
 35 44  2  0  0  0
 35 45  1  0  0  0
 35 68  1  0  0  0
 36 56  1  0  0  0
 36107  1  0  0  0
 37 39  1  0  0  0
 37 47  1  0  0  0
 37 66  1  0  0  0
 37108  1  0  0  0
 38 43  2  0  0  0
 38 46  1  0  0  0
 38 47  1  0  0  0
 39 64  1  0  0  0
 39 67  2  0  0  0
 40 52  1  0  0  0
 40 53  2  0  0  0
 40 58  1  0  0  0
 41109  1  0  0  0
 41110  1  0  0  0
 41111  1  0  0  0
 41 48  1  0  0  0
 42 43  1  0  0  0
 42 66  1  0  0  0
 42112  1  0  0  0
 42113  1  0  0  0
 43 44  1  0  0  0
 44114  1  0  0  0
 45 46  2  0  0  0
 45115  1  0  0  0
 46116  1  0  0  0
 47117  1  0  0  0
 47118  1  0  0  0
 48 56  1  0  0  0
 48 65  1  0  0  0
 48119  1  0  0  0
 49 50  1  0  0  0
 49 53  1  0  0  0
 49 64  1  0  0  0
 49120  1  0  0  0
 50 51  1  0  0  0
 50121  1  0  0  0
 50122  1  0  0  0
 51 52  1  0  0  0
 51123  1  0  0  0
 51124  1  0  0  0
 52125  1  0  0  0
 52126  1  0  0  0
 53 54  1  0  0  0
 54 55  2  0  0  0
 54127  1  0  0  0
 55 57  1  0  0  0
 55128  1  0  0  0
 56 69  2  0  0  0
 57 58  2  0  0  0
 57129  1  0  0  0
 58130  1  0  0  0
 59 60  1  0  0  0
 59 61  1  0  0  0
 59 62  1  0  0  0
 60131  1  0  0  0
 60132  1  0  0  0
 60133  1  0  0  0
 61134  1  0  0  0
 61135  1  0  0  0
 61136  1  0  0  0
 62137  1  0  0  0
 62138  1  0  0  0
 62139  1  0  0  0
 63 65  1  0  0  0
 63140  1  0  0  0
 63141  1  0  0  0
 63142  1  0  0  0
 64143  1  0  0  0
 65144  1  0  0  0
 68 82  1  0  0  0
 71 72  2  0  0  0
 71 74  1  0  0  0
 71145  1  0  0  0
 72 75  1  0  0  0
 72146  1  0  0  0
 73 74  2  0  0  0
 73 83  1  0  0  0
 73147  1  0  0  0
 74 81  1  0  0  0
 75 83  2  0  0  0
 75 84  1  0  0  0
 76 77  1  0  0  0
 76 81  1  0  0  0
 76148  1  0  0  0
 76149  1  0  0  0
 77 81  1  0  0  0
 77150  1  0  0  0
 77151  1  0  0  0
 78 79  1  0  0  0
 78 85  1  0  0  0
 78152  1  0  0  0
 78153  1  0  0  0
 79 80  1  0  0  0
 79 82  1  0  0  0
 79154  1  0  0  0
 80 81  1  0  0  0
 80 85  1  0  0  0
 80155  1  0  0  0
 82156  1  0  0  0
 82157  1  0  0  0
 84158  1  0  0  0
 85159  1  0  0  0
 85160  1  0  0  0
M  CHG  1  85   1
M  ISO  4   1 100  68 101  82 101  84 100
M  END
> <chiral flag>
0

> <version>
0

> <s_m_source_file>
/data/baiqing/PycharmProjects/Reinvent-master-3.2/result/LINK_invent/BTK/process_docking_weight1_custom_sum_contain_oxygen_bond_distance_aromatic_linkinvent_7_9_3/rearranged_h_0181.sdf

> <i_m_source_file_index>
83

> <r_mmod_Potential_Energy-OPLS-2005>
-241.716018676758

> <r_mmod_Stretch_Energy-OPLS-2005>
72.5434951782227

> <r_mmod_Bend_Energy-OPLS-2005>
142.55061340332

> <r_mmod_Torsional_Energy-OPLS-2005>
309.022399902344

> <r_mmod_Improper_Torsional_Energy-OPLS-2005>
5.99269485473633

> <r_mmod_Van_der_Waal_Energy-OPLS-2005>
141.988250732422

> <r_mmod_Electrostatic_Energy-OPLS-2005>
-437.901580810547

> <r_mmod_Solvation_Energy-OPLS-2005>
-516.5849609375

> <b_mmod_Minimization_Converged-OPLS-2005>
0

> <r_mmod_RMS_Derivative-OPLS-2005>
0.784187853336334

$$$$
83
                    3D
 Structure written by MMmdl.
154163  0  0  1  0            999 V2000
  -30.4913  -15.0524   20.4122 C   0  0  0  0  0  0
  -30.4479  -12.6647   19.4908 C   0  0  0  0  0  0
  -29.5246  -12.5394   18.2555 C   0  0  0  0  0  0
  -28.0625  -12.3038   18.6820 C   0  0  0  0  0  0
  -27.6227  -13.2517   19.8272 C   0  0  2  0  0  0
  -28.6671  -13.3223   20.9589 C   0  0  0  0  0  0
  -25.2441  -13.8211   20.5712 C   0  0  0  0  0  0
  -24.1769  -13.0430   20.9238 C   0  0  0  0  0  0
  -24.6393  -11.6919   20.8758 C   0  0  0  0  0  0
  -23.9079  -10.4288   21.0410 C   0  0  0  0  0  0
  -24.3627   -9.4202   21.9187 C   0  0  0  0  0  0
  -23.6298   -8.2240   22.0755 C   0  0  0  0  0  0
  -22.4280   -8.0281   21.3544 C   0  0  0  0  0  0
  -21.9919   -9.0255   20.4647 C   0  0  0  0  0  0
  -22.7251  -10.2132   20.3057 C   0  0  0  0  0  0
  -21.6855   -6.0736   22.5278 C   0  0  0  0  0  0
  -21.4015   -6.5638   23.8211 C   0  0  0  0  0  0
  -21.3660   -5.6791   24.9173 C   0  0  0  0  0  0
  -21.6045   -4.3054   24.7223 C   0  0  0  0  0  0
  -21.8819   -3.8146   23.4344 C   0  0  0  0  0  0
  -21.9193   -4.6963   22.3401 C   0  0  0  0  0  0
  -22.7789  -13.5201   21.1890 C   0  0  0  0  0  0
  -22.1663   -4.2149   21.0978 F   0  0  0  0  0  0
  -21.5628   -3.4537   25.7736 F   0  0  0  0  0  0
  -29.9222  -13.7735   20.3424 N   0  0  0  0  0  0
  -26.2860  -12.9447   20.3211 N   0  0  0  0  0  0
  -25.9322  -11.6575   20.5723 N   0  0  0  0  0  0
  -22.0440  -12.8189   22.0446 N   0  0  0  0  0  0
  -25.4078  -15.1946   20.4131 N   0  0  0  0  0  0
  -31.7136  -15.1153   20.2365 O   0  0  0  0  0  0
  -21.6641   -6.8880   21.4240 O   0  0  0  0  0  0
  -22.3473  -14.5504   20.6732 O   0  0  0  0  0  0
  -24.6497  -31.8380   23.1825 C   0  0  0  0  0  0
  -25.9240  -32.4665   23.8239 C   0  0  1  0  0  0
  -27.2175  -27.0667   20.1772 C   0  0  0  0  0  0
  -25.5961  -33.8473   24.2153 N   0  0  0  0  0  0
  -23.4575  -30.4539   21.5298 C   0  0  2  0  0  0
  -24.9085  -28.8606   20.1230 C   0  0  0  0  0  0
  -22.7599  -29.4518   22.4845 C   0  0  0  0  0  0
  -18.0311  -28.1400   22.8475 C   0  0  0  0  0  0
  -24.1492  -36.7241   23.2643 C   0  0  0  0  0  0
  -26.0179  -30.6894   21.3920 C   0  0  0  0  0  0
  -26.0894  -29.2895   20.7442 C   0  0  0  0  0  0
  -27.2478  -28.4119   20.7482 C   0  0  0  0  0  0
  -26.0100  -26.7513   19.5227 C   0  0  0  0  0  0
  -24.8841  -27.6054   19.4960 C   0  0  0  0  0  0
  -23.6903  -29.7745   20.1541 C   0  0  0  0  0  0
  -25.4127  -36.3013   24.0310 C   0  0  1  0  0  0
  -20.5928  -28.3733   23.1222 C   0  0  2  0  0  0
  -20.6795  -26.9430   22.5403 C   0  0  0  0  0  0
  -19.5767  -26.6380   21.5214 C   0  0  0  0  0  0
  -18.1949  -26.7937   22.1624 C   0  0  0  0  0  0
  -19.1570  -28.8885   23.2839 C   0  0  0  0  0  0
  -18.9484  -30.1479   23.8868 C   0  0  0  0  0  0
  -17.6479  -30.6595   24.0558 C   0  0  0  0  0  0
  -25.9083  -34.9391   23.5045 C   0  0  0  0  0  0
  -16.5370  -29.9087   23.6338 C   0  0  0  0  0  0
  -16.7294  -28.6507   23.0358 C   0  0  0  0  0  0
  -26.4538  -31.6555   25.0707 C   0  0  0  0  0  0
  -25.3701  -31.3764   26.1386 C   0  0  0  0  0  0
  -27.0414  -30.2942   24.6336 C   0  0  0  0  0  0
  -27.6051  -32.4337   25.7502 C   0  0  0  0  0  0
  -27.5574  -37.1778   24.8466 C   0  0  0  0  0  0
  -21.4285  -29.3048   22.3587 N   0  0  0  0  0  0
  -26.4286  -37.3733   23.9407 N   0  0  0  0  0  0
  -24.7287  -31.0172   22.0894 N   0  0  0  0  0  0
  -23.4208  -28.8075   23.3030 O   0  0  0  0  0  0
  -28.2590  -26.0526   20.1149 O   0  0  0  0  0  0
  -26.5675  -34.8901   22.4629 O   0  0  0  0  0  0
  -23.5599  -32.1287   23.7001 O   0  0  0  0  0  0
  -27.4728  -21.0726   19.8946 C   0  0  0  0  0  0
  -28.7803  -20.7129   20.1710 C   0  0  0  0  0  0
  -28.3608  -23.1206   20.3564 C   0  0  0  0  0  0
  -26.2295  -20.3841   19.4745 C   0  0  0  0  0  0
  -25.1520  -21.4960   19.5158 C   0  0  0  0  0  0
  -25.8876  -22.8430   19.7381 C   0  0  0  0  0  0
  -29.4237  -19.1779   19.8600 C   0  0  0  0  0  0
  -28.2394  -24.7010   20.9256 C   0  0  0  0  0  0
  -29.7833  -17.8098   20.8357 C   0  0  0  0  0  0
  -29.3163  -22.0739   20.4737 N   0  0  0  0  0  0
  -27.2482  -22.4456   19.9951 N   0  0  0  0  0  0
  -29.6688  -16.2355   20.4747 N   0  0  0  0  0  0
  -31.4716  -12.8590   19.1672 H   0  0  0  0  0  0
  -30.4830  -11.7288   20.0505 H   0  0  0  0  0  0
  -29.8628  -11.7290   17.6085 H   0  0  0  0  0  0
  -29.5879  -13.4524   17.6613 H   0  0  0  0  0  0
  -27.9804  -11.2681   19.0133 H   0  0  0  0  0  0
  -27.3949  -12.4036   17.8252 H   0  0  0  0  0  0
  -27.5692  -14.2426   19.3754 H   0  0  0  0  0  0
  -28.7868  -12.3555   21.4502 H   0  0  0  0  0  0
  -28.3502  -14.0264   21.7302 H   0  0  0  0  0  0
  -25.2770   -9.5678   22.4763 H   0  0  0  0  0  0
  -24.0002   -7.4630   22.7477 H   0  0  0  0  0  0
  -21.0849   -8.8778   19.8954 H   0  0  0  0  0  0
  -22.3710  -10.9672   19.6168 H   0  0  0  0  0  0
  -21.2010   -7.6146   23.9715 H   0  0  0  0  0  0
  -21.1481   -6.0520   25.9076 H   0  0  0  0  0  0
  -22.0599   -2.7608   23.2843 H   0  0  0  0  0  0
  -22.4067  -11.9859   22.4840 H   0  0  0  0  0  0
  -21.1055  -13.1207   22.2650 H   0  0  0  0  0  0
  -24.6328  -15.8394   20.5234 H   0  0  0  0  0  0
  -26.2395  -15.6385   20.0477 H   0  0  0  0  0  0
  -26.7307  -32.5255   23.0962 H   0  0  0  0  0  0
  -25.0076  -33.9574   25.0281 H   0  0  0  0  0  0
  -22.7637  -31.2814   21.3674 H   0  0  0  0  0  0
  -23.3761  -35.9566   23.3288 H   0  0  0  0  0  0
  -24.3573  -36.8895   22.2061 H   0  0  0  0  0  0
  -23.7242  -37.6428   23.6698 H   0  0  0  0  0  0
  -26.1786  -31.4350   20.6121 H   0  0  0  0  0  0
  -26.8862  -30.7472   22.0366 H   0  0  0  0  0  0
  -28.1548  -28.7458   21.2323 H   0  0  0  0  0  0
  -25.9269  -25.7943   19.0295 H   0  0  0  0  0  0
  -23.9858  -27.2719   18.9949 H   0  0  0  0  0  0
  -23.8377  -30.5442   19.3956 H   0  0  0  0  0  0
  -22.8032  -29.2219   19.8399 H   0  0  0  0  0  0
  -25.1320  -36.1830   25.0803 H   0  0  0  0  0  0
  -21.0017  -28.3327   24.1343 H   0  0  0  0  0  0
  -20.5688  -26.2347   23.3628 H   0  0  0  0  0  0
  -21.6660  -26.7428   22.1201 H   0  0  0  0  0  0
  -19.6928  -25.6282   21.1266 H   0  0  0  0  0  0
  -19.6705  -27.3171   20.6728 H   0  0  0  0  0  0
  -17.4218  -26.6680   21.4028 H   0  0  0  0  0  0
  -18.0347  -26.0089   22.9029 H   0  0  0  0  0  0
  -19.7959  -30.7303   24.2226 H   0  0  0  0  0  0
  -17.5032  -31.6272   24.5165 H   0  0  0  0  0  0
  -15.5369  -30.2979   23.7680 H   0  0  0  0  0  0
  -15.8695  -28.0815   22.7090 H   0  0  0  0  0  0
  -24.5890  -30.7104   25.7700 H   0  0  0  0  0  0
  -24.8878  -32.2952   26.4732 H   0  0  0  0  0  0
  -25.7963  -30.8986   27.0216 H   0  0  0  0  0  0
  -26.3048  -29.6649   24.1328 H   0  0  0  0  0  0
  -27.3986  -29.7264   25.4937 H   0  0  0  0  0  0
  -27.8973  -30.4161   23.9694 H   0  0  0  0  0  0
  -27.2632  -33.3664   26.2001 H   0  0  0  0  0  0
  -28.3905  -32.6855   25.0363 H   0  0  0  0  0  0
  -28.0672  -31.8514   26.5485 H   0  0  0  0  0  0
  -28.2581  -38.0084   24.7510 H   0  0  0  0  0  0
  -28.1080  -36.2611   24.6298 H   0  0  0  0  0  0
  -27.2289  -37.1429   25.8868 H   0  0  0  0  0  0
  -20.9513  -29.8743   21.6737 H   0  0  0  0  0  0
  -26.0145  -38.2799   24.1410 H   0  0  0  0  0  0
  -25.9848  -19.5578   20.1434 H   0  0  0  0  0  0
  -26.3406  -19.9822   18.4667 H   0  0  0  0  0  0
  -24.4762  -21.3154   20.3530 H   0  0  0  0  0  0
  -24.5426  -21.5049   18.6114 H   0  0  0  0  0  0
  -25.4864  -23.4033   20.5833 H   0  0  0  0  0  0
  -25.8616  -23.4668   18.8445 H   0  0  0  0  0  0
  -30.3386  -19.3494   19.2928 H   0  0  0  0  0  0
  -28.7606  -18.7587   19.1033 H   0  0  0  0  0  0
  -29.0448  -24.8079   21.6519 H   0  0  0  0  0  0
  -27.3357  -24.7339   21.5349 H   0  0  0  0  0  0
  -29.1098  -17.9042   21.6879 H   0  0  0  0  0  0
  -30.7718  -17.9671   21.2680 H   0  0  0  0  0  0
  -28.6995  -15.9581   20.4354 H   0  0  0  0  0  0
  1 25  1  0  0  0
  1 30  2  0  0  0
  1 82  1  0  0  0
  2  3  1  0  0  0
  2 25  1  0  0  0
  2 83  1  0  0  0
  2 84  1  0  0  0
  3  4  1  0  0  0
  3 85  1  0  0  0
  3 86  1  0  0  0
  4  5  1  0  0  0
  4 87  1  0  0  0
  4 88  1  0  0  0
  5  6  1  0  0  0
  5 26  1  0  0  0
  5 89  1  0  0  0
  6 25  1  0  0  0
  6 90  1  0  0  0
  6 91  1  0  0  0
  7  8  2  0  0  0
  7 26  1  0  0  0
  7 29  1  0  0  0
  8  9  1  0  0  0
  8 22  1  0  0  0
  9 10  1  0  0  0
  9 27  2  0  0  0
 10 11  2  0  0  0
 10 15  1  0  0  0
 11 12  1  0  0  0
 11 92  1  0  0  0
 12 13  2  0  0  0
 12 93  1  0  0  0
 13 14  1  0  0  0
 13 31  1  0  0  0
 14 15  2  0  0  0
 14 94  1  0  0  0
 15 95  1  0  0  0
 16 17  2  0  0  0
 16 21  1  0  0  0
 16 31  1  0  0  0
 17 18  1  0  0  0
 17 96  1  0  0  0
 18 19  2  0  0  0
 18 97  1  0  0  0
 19 20  1  0  0  0
 19 24  1  0  0  0
 20 21  2  0  0  0
 20 98  1  0  0  0
 21 23  1  0  0  0
 22 28  1  0  0  0
 22 32  2  0  0  0
 26 27  1  0  0  0
 28 99  1  0  0  0
 28100  1  0  0  0
 29101  1  0  0  0
 29102  1  0  0  0
 33 34  1  0  0  0
 33 66  1  0  0  0
 33 70  2  0  0  0
 34 36  1  0  0  0
 34 59  1  0  0  0
 34103  1  0  0  0
 35 44  2  0  0  0
 35 45  1  0  0  0
 35 68  1  0  0  0
 36 56  1  0  0  0
 36104  1  0  0  0
 37 39  1  0  0  0
 37 47  1  0  0  0
 37 66  1  0  0  0
 37105  1  0  0  0
 38 43  2  0  0  0
 38 46  1  0  0  0
 38 47  1  0  0  0
 39 64  1  0  0  0
 39 67  2  0  0  0
 40 52  1  0  0  0
 40 53  2  0  0  0
 40 58  1  0  0  0
 41106  1  0  0  0
 41107  1  0  0  0
 41108  1  0  0  0
 41 48  1  0  0  0
 42 43  1  0  0  0
 42 66  1  0  0  0
 42109  1  0  0  0
 42110  1  0  0  0
 43 44  1  0  0  0
 44111  1  0  0  0
 45 46  2  0  0  0
 45112  1  0  0  0
 46113  1  0  0  0
 47114  1  0  0  0
 47115  1  0  0  0
 48 56  1  0  0  0
 48 65  1  0  0  0
 48116  1  0  0  0
 49 50  1  0  0  0
 49 53  1  0  0  0
 49 64  1  0  0  0
 49117  1  0  0  0
 50 51  1  0  0  0
 50118  1  0  0  0
 50119  1  0  0  0
 51 52  1  0  0  0
 51120  1  0  0  0
 51121  1  0  0  0
 52122  1  0  0  0
 52123  1  0  0  0
 53 54  1  0  0  0
 54 55  2  0  0  0
 54124  1  0  0  0
 55 57  1  0  0  0
 55125  1  0  0  0
 56 69  2  0  0  0
 57 58  2  0  0  0
 57126  1  0  0  0
 58127  1  0  0  0
 59 60  1  0  0  0
 59 61  1  0  0  0
 59 62  1  0  0  0
 60128  1  0  0  0
 60129  1  0  0  0
 60130  1  0  0  0
 61131  1  0  0  0
 61132  1  0  0  0
 61133  1  0  0  0
 62134  1  0  0  0
 62135  1  0  0  0
 62136  1  0  0  0
 63 65  1  0  0  0
 63137  1  0  0  0
 63138  1  0  0  0
 63139  1  0  0  0
 64140  1  0  0  0
 65141  1  0  0  0
 68 78  1  0  0  0
 71 72  2  0  0  0
 71 74  1  0  0  0
 71 81  1  0  0  0
 72 77  1  0  0  0
 72 80  1  0  0  0
 73 78  1  0  0  0
 73 80  2  0  0  0
 73 81  1  0  0  0
 74 75  1  0  0  0
 74142  1  0  0  0
 74143  1  0  0  0
 75 76  1  0  0  0
 75144  1  0  0  0
 75145  1  0  0  0
 76 81  1  0  0  0
 76146  1  0  0  0
 76147  1  0  0  0
 77 79  1  0  0  0
 77148  1  0  0  0
 77149  1  0  0  0
 78150  1  0  0  0
 78151  1  0  0  0
 79 82  1  0  0  0
 79152  1  0  0  0
 79153  1  0  0  0
 82154  1  0  0  0
M  ISO  4   1 100  68 101  78 101  82 100
M  END
> <chiral flag>
0

> <version>
0

> <s_m_source_file>
/data/baiqing/PycharmProjects/Reinvent-master-3.2/result/LINK_invent/BTK/process_docking_weight1_custom_sum_contain_oxygen_bond_distance_aromatic_linkinvent_7_9_3/rearranged_h_0181.sdf

> <i_m_source_file_index>
84

> <r_mmod_Potential_Energy-OPLS-2005>
865.5146484375

> <r_mmod_Stretch_Energy-OPLS-2005>
344.8759765625

> <r_mmod_Bend_Energy-OPLS-2005>
443.950347900391

> <r_mmod_Torsional_Energy-OPLS-2005>
282.327178955078

> <r_mmod_Improper_Torsional_Energy-OPLS-2005>
9.08251476287842

> <r_mmod_Van_der_Waal_Energy-OPLS-2005>
97.1360168457031

> <r_mmod_Electrostatic_Energy-OPLS-2005>
-336.006439208984

> <r_mmod_Solvation_Energy-OPLS-2005>
-241.9365234375

> <b_mmod_Minimization_Converged-OPLS-2005>
0

> <r_mmod_RMS_Derivative-OPLS-2005>
0.328967183828354

$$$$
84
                    3D
 Structure written by MMmdl.
157166  0  0  1  0            999 V2000
  -30.6862  -14.6228   20.4787 C   0  0  0  0  0  0
  -30.4158  -12.3820   19.4554 C   0  0  0  0  0  0
  -29.4984  -12.4934   18.2211 C   0  0  0  0  0  0
  -28.0227  -12.3415   18.6362 C   0  0  0  0  0  0
  -27.6444  -13.2289   19.8533 C   0  0  2  0  0  0
  -28.6912  -13.1385   20.9848 C   0  0  0  0  0  0
  -25.2531  -13.8204   20.5711 C   0  0  0  0  0  0
  -24.1809  -13.0451   20.9194 C   0  0  0  0  0  0
  -24.6394  -11.6925   20.8743 C   0  0  0  0  0  0
  -23.9070  -10.4300   21.0405 C   0  0  0  0  0  0
  -24.3622   -9.4215   21.9183 C   0  0  0  0  0  0
  -23.6297   -8.2248   22.0755 C   0  0  0  0  0  0
  -22.4279   -8.0284   21.3545 C   0  0  0  0  0  0
  -21.9916   -9.0257   20.4645 C   0  0  0  0  0  0
  -22.7242  -10.2138   20.3054 C   0  0  0  0  0  0
  -21.6855   -6.0737   22.5279 C   0  0  0  0  0  0
  -21.4015   -6.5642   23.8212 C   0  0  0  0  0  0
  -21.3660   -5.6797   24.9176 C   0  0  0  0  0  0
  -21.6046   -4.3058   24.7228 C   0  0  0  0  0  0
  -21.8821   -3.8148   23.4349 C   0  0  0  0  0  0
  -21.9195   -4.6964   22.3404 C   0  0  0  0  0  0
  -22.7828  -13.5229   21.1856 C   0  0  0  0  0  0
  -22.1662   -4.2147   21.0982 F   0  0  0  0  0  0
  -21.5629   -3.4543   25.7742 F   0  0  0  0  0  0
  -30.0015  -13.4397   20.3983 N   0  0  0  0  0  0
  -26.2957  -12.9406   20.3314 N   0  0  0  0  0  0
  -25.9327  -11.6548   20.5763 N   0  0  0  0  0  0
  -22.0483  -12.8213   22.0413 N   0  0  0  0  0  0
  -25.4263  -15.1928   20.4159 N   0  0  0  0  0  0
  -31.8828  -14.6771   20.1779 O   0  0  0  0  0  0
  -21.6644   -6.8880   21.4240 O   0  0  0  0  0  0
  -22.3507  -14.5536   20.6709 O   0  0  0  0  0  0
  -24.6269  -31.8620   23.2059 C   0  0  0  0  0  0
  -25.9121  -32.4791   23.8376 C   0  0  1  0  0  0
  -27.2090  -27.3162   20.1080 C   0  0  0  0  0  0
  -25.5944  -33.8593   24.2300 N   0  0  0  0  0  0
  -23.4189  -30.4905   21.5495 C   0  0  2  0  0  0
  -24.8620  -28.9558   20.1083 C   0  0  0  0  0  0
  -22.7474  -29.4646   22.4937 C   0  0  0  0  0  0
  -18.0288  -28.1383   22.8491 C   0  0  0  0  0  0
  -24.1491  -36.7295   23.2634 C   0  0  0  0  0  0
  -25.9634  -30.7911   21.3801 C   0  0  0  0  0  0
  -26.0344  -29.4216   20.7170 C   0  0  0  0  0  0
  -27.2116  -28.6130   20.7111 C   0  0  0  0  0  0
  -26.0116  -26.9198   19.4608 C   0  0  0  0  0  0
  -24.8530  -27.7101   19.4716 C   0  0  0  0  0  0
  -23.6319  -29.8354   20.1619 C   0  0  0  0  0  0
  -25.4114  -36.3091   24.0331 C   0  0  1  0  0  0
  -20.5889  -28.3695   23.1279 C   0  0  2  0  0  0
  -20.6780  -26.9420   22.5405 C   0  0  0  0  0  0
  -19.5755  -26.6386   21.5210 C   0  0  0  0  0  0
  -18.1935  -26.7927   22.1624 C   0  0  0  0  0  0
  -19.1540  -28.8855   23.2880 C   0  0  0  0  0  0
  -18.9462  -30.1455   23.8900 C   0  0  0  0  0  0
  -17.6463  -30.6590   24.0562 C   0  0  0  0  0  0
  -25.9056  -34.9461   23.5111 C   0  0  0  0  0  0
  -16.5354  -29.9087   23.6330 C   0  0  0  0  0  0
  -16.7274  -28.6499   23.0360 C   0  0  0  0  0  0
  -26.4500  -31.6592   25.0740 C   0  0  0  0  0  0
  -25.3733  -31.3724   26.1464 C   0  0  0  0  0  0
  -27.0344  -30.3016   24.6194 C   0  0  0  0  0  0
  -27.6063  -32.4320   25.7514 C   0  0  0  0  0  0
  -27.5586  -37.1796   24.8458 C   0  0  0  0  0  0
  -21.4187  -29.3056   22.3676 N   0  0  0  0  0  0
  -26.4289  -37.3789   23.9416 N   0  0  0  0  0  0
  -24.6888  -31.0634   22.1018 N   0  0  0  0  0  0
  -23.4201  -28.8167   23.3001 O   0  0  0  0  0  0
  -28.3001  -26.4294   20.1780 O   0  0  0  0  0  0
  -26.5614  -34.8922   22.4671 O   0  0  0  0  0  0
  -23.5432  -32.1423   23.7385 O   0  0  0  0  0  0
  -30.3363  -24.0889   20.5655 C   0  0  0  0  0  0
  -31.1542  -22.9697   20.7864 C   0  0  0  0  0  0
  -28.9818  -23.8494   20.3109 C   0  0  0  0  0  0
  -29.3889  -21.5412   20.5134 C   0  0  0  0  0  0
  -29.0012  -17.9123   19.4357 C   0  0  0  0  0  0
  -29.6692  -18.1300   21.7605 C   0  0  0  0  0  0
  -29.7656  -16.5496   19.3411 C   0  0  0  0  0  0
  -30.4270  -16.7550   21.6662 C   0  0  0  0  0  0
  -29.6282  -18.9216   20.4286 C   0  0  0  0  0  0
  -27.9752  -24.9948   19.9684 C   0  0  0  0  0  0
  -30.6794  -21.7036   20.7533 N   0  0  0  0  0  0
  -28.5292  -22.5502   20.2964 N   0  0  0  0  0  0
  -29.9765  -15.8019   20.6120 N   0  0  0  0  0  0
  -28.8897  -20.2239   20.4860 N   0  0  0  0  0  0
  -31.4612  -12.4710   19.1548 H   0  0  0  0  0  0
  -30.3207  -11.4001   19.9216 H   0  0  0  0  0  0
  -29.7596  -11.7319   17.4851 H   0  0  0  0  0  0
  -29.6480  -13.4570   17.7313 H   0  0  0  0  0  0
  -27.8582  -11.2911   18.8793 H   0  0  0  0  0  0
  -27.3688  -12.5621   17.7915 H   0  0  0  0  0  0
  -27.6465  -14.2563   19.4905 H   0  0  0  0  0  0
  -28.6964  -12.1451   21.4352 H   0  0  0  0  0  0
  -28.4516  -13.8411   21.7847 H   0  0  0  0  0  0
  -25.2770   -9.5694   22.4753 H   0  0  0  0  0  0
  -24.0009   -7.4644   22.7478 H   0  0  0  0  0  0
  -21.0848   -8.8774   19.8948 H   0  0  0  0  0  0
  -22.3700  -10.9676   19.6161 H   0  0  0  0  0  0
  -21.2007   -7.6151   23.9711 H   0  0  0  0  0  0
  -21.1479   -6.0530   25.9078 H   0  0  0  0  0  0
  -22.0599   -2.7609   23.2853 H   0  0  0  0  0  0
  -22.4110  -11.9871   22.4786 H   0  0  0  0  0  0
  -21.1099  -13.1224   22.2627 H   0  0  0  0  0  0
  -24.6688  -15.8558   20.5395 H   0  0  0  0  0  0
  -26.2964  -15.6300   20.1393 H   0  0  0  0  0  0
  -26.7188  -32.5458   23.1124 H   0  0  0  0  0  0
  -25.0102  -33.9744   25.0453 H   0  0  0  0  0  0
  -22.7129  -31.3121   21.4117 H   0  0  0  0  0  0
  -23.3764  -35.9612   23.3275 H   0  0  0  0  0  0
  -24.3589  -36.8939   22.2053 H   0  0  0  0  0  0
  -23.7226  -37.6484   23.6671 H   0  0  0  0  0  0
  -26.0985  -31.5568   20.6147 H   0  0  0  0  0  0
  -26.8432  -30.8346   22.0104 H   0  0  0  0  0  0
  -28.1065  -28.9609   21.2080 H   0  0  0  0  0  0
  -25.9181  -25.9771   18.9445 H   0  0  0  0  0  0
  -23.9565  -27.3508   18.9850 H   0  0  0  0  0  0
  -23.7515  -30.6163   19.4102 H   0  0  0  0  0  0
  -22.7509  -29.2677   19.8569 H   0  0  0  0  0  0
  -25.1288  -36.1942   25.0824 H   0  0  0  0  0  0
  -20.9984  -28.3273   24.1399 H   0  0  0  0  0  0
  -20.5692  -26.2305   23.3605 H   0  0  0  0  0  0
  -21.6649  -26.7460   22.1196 H   0  0  0  0  0  0
  -19.6921  -25.6296   21.1242 H   0  0  0  0  0  0
  -19.6690  -27.3191   20.6736 H   0  0  0  0  0  0
  -17.4206  -26.6682   21.4022 H   0  0  0  0  0  0
  -18.0333  -26.0064   22.9016 H   0  0  0  0  0  0
  -19.7938  -30.7267   24.2277 H   0  0  0  0  0  0
  -17.5019  -31.6273   24.5159 H   0  0  0  0  0  0
  -15.5354  -30.2992   23.7651 H   0  0  0  0  0  0
  -15.8673  -28.0811   22.7087 H   0  0  0  0  0  0
  -24.5908  -30.7076   25.7787 H   0  0  0  0  0  0
  -24.8923  -32.2889   26.4893 H   0  0  0  0  0  0
  -25.8057  -30.8896   27.0237 H   0  0  0  0  0  0
  -26.2922  -29.6767   24.1213 H   0  0  0  0  0  0
  -27.4036  -29.7269   25.4697 H   0  0  0  0  0  0
  -27.8797  -30.4300   23.9429 H   0  0  0  0  0  0
  -27.2679  -33.3619   26.2095 H   0  0  0  0  0  0
  -28.3877  -32.6878   25.0346 H   0  0  0  0  0  0
  -28.0728  -31.8440   26.5428 H   0  0  0  0  0  0
  -28.2575  -38.0123   24.7556 H   0  0  0  0  0  0
  -28.1115  -36.2659   24.6222 H   0  0  0  0  0  0
  -27.2313  -37.1373   25.8861 H   0  0  0  0  0  0
  -20.9352  -29.8796   21.6907 H   0  0  0  0  0  0
  -26.0170  -38.2856   24.1446 H   0  0  0  0  0  0
  -30.7380  -25.0935   20.5777 H   0  0  0  0  0  0
  -32.2095  -23.0877   20.9829 H   0  0  0  0  0  0
  -27.9648  -17.7150   19.7143 H   0  0  0  0  0  0
  -28.9618  -18.3596   18.4413 H   0  0  0  0  0  0
  -30.1414  -18.7424   22.5300 H   0  0  0  0  0  0
  -28.6517  -17.9478   22.1097 H   0  0  0  0  0  0
  -30.7380  -16.7392   18.8819 H   0  0  0  0  0  0
  -29.2329  -15.9039   18.6412 H   0  0  0  0  0  0
  -30.3606  -16.2530   22.6328 H   0  0  0  0  0  0
  -31.4881  -16.9642   21.5150 H   0  0  0  0  0  0
  -30.6516  -19.1306   20.1118 H   0  0  0  0  0  0
  -27.0714  -24.7559   20.5319 H   0  0  0  0  0  0
  -27.7455  -24.8535   18.9117 H   0  0  0  0  0  0
  -27.8945  -20.1726   20.3086 H   0  0  0  0  0  0
  1 25  1  0  0  0
  1 30  2  0  0  0
  1 83  1  0  0  0
  2  3  1  0  0  0
  2 25  1  0  0  0
  2 85  1  0  0  0
  2 86  1  0  0  0
  3  4  1  0  0  0
  3 87  1  0  0  0
  3 88  1  0  0  0
  4  5  1  0  0  0
  4 89  1  0  0  0
  4 90  1  0  0  0
  5  6  1  0  0  0
  5 26  1  0  0  0
  5 91  1  0  0  0
  6 25  1  0  0  0
  6 92  1  0  0  0
  6 93  1  0  0  0
  7  8  2  0  0  0
  7 26  1  0  0  0
  7 29  1  0  0  0
  8  9  1  0  0  0
  8 22  1  0  0  0
  9 10  1  0  0  0
  9 27  2  0  0  0
 10 11  2  0  0  0
 10 15  1  0  0  0
 11 12  1  0  0  0
 11 94  1  0  0  0
 12 13  2  0  0  0
 12 95  1  0  0  0
 13 14  1  0  0  0
 13 31  1  0  0  0
 14 15  2  0  0  0
 14 96  1  0  0  0
 15 97  1  0  0  0
 16 17  2  0  0  0
 16 21  1  0  0  0
 16 31  1  0  0  0
 17 18  1  0  0  0
 17 98  1  0  0  0
 18 19  2  0  0  0
 18 99  1  0  0  0
 19 20  1  0  0  0
 19 24  1  0  0  0
 20 21  2  0  0  0
 20100  1  0  0  0
 21 23  1  0  0  0
 22 28  1  0  0  0
 22 32  2  0  0  0
 26 27  1  0  0  0
 28101  1  0  0  0
 28102  1  0  0  0
 29103  1  0  0  0
 29104  1  0  0  0
 33 34  1  0  0  0
 33 66  1  0  0  0
 33 70  2  0  0  0
 34 36  1  0  0  0
 34 59  1  0  0  0
 34105  1  0  0  0
 35 44  2  0  0  0
 35 45  1  0  0  0
 35 68  1  0  0  0
 36 56  1  0  0  0
 36106  1  0  0  0
 37 39  1  0  0  0
 37 47  1  0  0  0
 37 66  1  0  0  0
 37107  1  0  0  0
 38 43  2  0  0  0
 38 46  1  0  0  0
 38 47  1  0  0  0
 39 64  1  0  0  0
 39 67  2  0  0  0
 40 52  1  0  0  0
 40 53  2  0  0  0
 40 58  1  0  0  0
 41108  1  0  0  0
 41109  1  0  0  0
 41110  1  0  0  0
 41 48  1  0  0  0
 42 43  1  0  0  0
 42 66  1  0  0  0
 42111  1  0  0  0
 42112  1  0  0  0
 43 44  1  0  0  0
 44113  1  0  0  0
 45 46  2  0  0  0
 45114  1  0  0  0
 46115  1  0  0  0
 47116  1  0  0  0
 47117  1  0  0  0
 48 56  1  0  0  0
 48 65  1  0  0  0
 48118  1  0  0  0
 49 50  1  0  0  0
 49 53  1  0  0  0
 49 64  1  0  0  0
 49119  1  0  0  0
 50 51  1  0  0  0
 50120  1  0  0  0
 50121  1  0  0  0
 51 52  1  0  0  0
 51122  1  0  0  0
 51123  1  0  0  0
 52124  1  0  0  0
 52125  1  0  0  0
 53 54  1  0  0  0
 54 55  2  0  0  0
 54126  1  0  0  0
 55 57  1  0  0  0
 55127  1  0  0  0
 56 69  2  0  0  0
 57 58  2  0  0  0
 57128  1  0  0  0
 58129  1  0  0  0
 59 60  1  0  0  0
 59 61  1  0  0  0
 59 62  1  0  0  0
 60130  1  0  0  0
 60131  1  0  0  0
 60132  1  0  0  0
 61133  1  0  0  0
 61134  1  0  0  0
 61135  1  0  0  0
 62136  1  0  0  0
 62137  1  0  0  0
 62138  1  0  0  0
 63 65  1  0  0  0
 63139  1  0  0  0
 63140  1  0  0  0
 63141  1  0  0  0
 64142  1  0  0  0
 65143  1  0  0  0
 68 80  1  0  0  0
 71 72  2  0  0  0
 71 73  1  0  0  0
 71144  1  0  0  0
 72 81  1  0  0  0
 72145  1  0  0  0
 73 80  1  0  0  0
 73 82  2  0  0  0
 74 81  2  0  0  0
 74 82  1  0  0  0
 74 84  1  0  0  0
 75 77  1  0  0  0
 75 79  1  0  0  0
 75146  1  0  0  0
 75147  1  0  0  0
 76 78  1  0  0  0
 76 79  1  0  0  0
 76148  1  0  0  0
 76149  1  0  0  0
 77 83  1  0  0  0
 77150  1  0  0  0
 77151  1  0  0  0
 78 83  1  0  0  0
 78152  1  0  0  0
 78153  1  0  0  0
 79 84  1  0  0  0
 79154  1  0  0  0
 80155  1  0  0  0
 80156  1  0  0  0
 84157  1  0  0  0
M  ISO  4   1 100  68 101  80 101  83 100
M  END
> <chiral flag>
0

> <version>
0

> <s_m_source_file>
/data/baiqing/PycharmProjects/Reinvent-master-3.2/result/LINK_invent/BTK/process_docking_weight1_custom_sum_contain_oxygen_bond_distance_aromatic_linkinvent_7_9_3/rearranged_h_0181.sdf

> <i_m_source_file_index>
85

> <r_mmod_Potential_Energy-OPLS-2005>
-257.611236572266

> <r_mmod_Stretch_Energy-OPLS-2005>
72.8657455444336

> <r_mmod_Bend_Energy-OPLS-2005>
154.479934692383

> <r_mmod_Torsional_Energy-OPLS-2005>
319.824066162109

> <r_mmod_Improper_Torsional_Energy-OPLS-2005>
12.0110368728638

> <r_mmod_Van_der_Waal_Energy-OPLS-2005>
160.317123413086

> <r_mmod_Electrostatic_Energy-OPLS-2005>
-803.976501464844

> <r_mmod_Solvation_Energy-OPLS-2005>
-228.173583984375

> <b_mmod_Minimization_Converged-OPLS-2005>
0

> <r_mmod_RMS_Derivative-OPLS-2005>
0.445463001728058

$$$$
85
                    3D
 Structure written by MMmdl.
159168  0  0  1  0            999 V2000
  -30.6362  -14.7557   20.4614 C   0  0  0  0  0  0
  -30.4328  -12.4652   19.4868 C   0  0  0  0  0  0
  -29.5135  -12.5079   18.2461 C   0  0  0  0  0  0
  -28.0404  -12.3264   18.6582 C   0  0  0  0  0  0
  -27.6414  -13.2354   19.8509 C   0  0  2  0  0  0
  -28.6863  -13.1914   20.9908 C   0  0  0  0  0  0
  -25.2494  -13.8187   20.5714 C   0  0  0  0  0  0
  -24.1809  -13.0430   20.9266 C   0  0  0  0  0  0
  -24.6405  -11.6911   20.8789 C   0  0  0  0  0  0
  -23.9079  -10.4286   21.0423 C   0  0  0  0  0  0
  -24.3614   -9.4195   21.9192 C   0  0  0  0  0  0
  -23.6286   -8.2237   22.0750 C   0  0  0  0  0  0
  -22.4274   -8.0277   21.3538 C   0  0  0  0  0  0
  -21.9917   -9.0256   20.4651 C   0  0  0  0  0  0
  -22.7251  -10.2132   20.3069 C   0  0  0  0  0  0
  -21.6850   -6.0737   22.5276 C   0  0  0  0  0  0
  -21.4019   -6.5638   23.8211 C   0  0  0  0  0  0
  -21.3662   -5.6790   24.9170 C   0  0  0  0  0  0
  -21.6040   -4.3050   24.7225 C   0  0  0  0  0  0
  -21.8815   -3.8147   23.4344 C   0  0  0  0  0  0
  -21.9189   -4.6965   22.3403 C   0  0  0  0  0  0
  -22.7824  -13.5210   21.1885 C   0  0  0  0  0  0
  -22.1658   -4.2153   21.0984 F   0  0  0  0  0  0
  -21.5621   -3.4534   25.7738 F   0  0  0  0  0  0
  -29.9901  -13.5374   20.4104 N   0  0  0  0  0  0
  -26.2935  -12.9413   20.3291 N   0  0  0  0  0  0
  -25.9334  -11.6551   20.5779 N   0  0  0  0  0  0
  -22.0441  -12.8224   22.0438 N   0  0  0  0  0  0
  -25.4139  -15.1898   20.4004 N   0  0  0  0  0  0
  -31.8162  -14.8341   20.1152 O   0  0  0  0  0  0
  -21.6631   -6.8880   21.4237 O   0  0  0  0  0  0
  -22.3523  -14.5513   20.6707 O   0  0  0  0  0  0
  -24.6340  -31.8554   23.1998 C   0  0  0  0  0  0
  -25.9147  -32.4769   23.8339 C   0  0  1  0  0  0
  -27.2188  -27.2478   20.1257 C   0  0  0  0  0  0
  -25.5929  -33.8569   24.2255 N   0  0  0  0  0  0
  -23.4311  -30.4805   21.5445 C   0  0  2  0  0  0
  -24.8785  -28.9332   20.1105 C   0  0  0  0  0  0
  -22.7508  -29.4610   22.4911 C   0  0  0  0  0  0
  -18.0292  -28.1394   22.8478 C   0  0  0  0  0  0
  -24.1486  -36.7286   23.2633 C   0  0  0  0  0  0
  -25.9803  -30.7646   21.3833 C   0  0  0  0  0  0
  -26.0527  -29.3872   20.7240 C   0  0  0  0  0  0
  -27.2240  -28.5565   20.7245 C   0  0  0  0  0  0
  -26.0196  -26.8851   19.4623 C   0  0  0  0  0  0
  -24.8684  -27.6911   19.4678 C   0  0  0  0  0  0
  -23.6498  -29.8200   20.1595 C   0  0  0  0  0  0
  -25.4116  -36.3086   24.0318 C   0  0  1  0  0  0
  -20.5896  -28.3716   23.1255 C   0  0  2  0  0  0
  -20.6788  -26.9431   22.5406 C   0  0  0  0  0  0
  -19.5763  -26.6395   21.5211 C   0  0  0  0  0  0
  -18.1943  -26.7937   22.1622 C   0  0  0  0  0  0
  -19.1543  -28.8871   23.2868 C   0  0  0  0  0  0
  -18.9461  -30.1471   23.8894 C   0  0  0  0  0  0
  -17.6460  -30.6597   24.0568 C   0  0  0  0  0  0
  -25.9055  -34.9451   23.5098 C   0  0  0  0  0  0
  -16.5351  -29.9096   23.6336 C   0  0  0  0  0  0
  -16.7283  -28.6513   23.0360 C   0  0  0  0  0  0
  -26.4491  -31.6597   25.0735 C   0  0  0  0  0  0
  -25.3690  -31.3764   26.1439 C   0  0  0  0  0  0
  -27.0332  -30.3007   24.6240 C   0  0  0  0  0  0
  -27.6056  -32.4324   25.7510 C   0  0  0  0  0  0
  -27.5579  -37.1806   24.8460 C   0  0  0  0  0  0
  -21.4215  -29.3065   22.3646 N   0  0  0  0  0  0
  -26.4296  -37.3779   23.9400 N   0  0  0  0  0  0
  -24.7012  -31.0505   22.0991 N   0  0  0  0  0  0
  -23.4218  -28.8138   23.3001 O   0  0  0  0  0  0
  -28.2873  -26.3094   20.2125 O   0  0  0  0  0  0
  -26.5632  -34.8931   22.4669 O   0  0  0  0  0  0
  -23.5488  -32.1358   23.7294 O   0  0  0  0  0  0
  -29.6314  -23.3229   21.4939 C   0  0  0  0  0  0
  -28.8231  -23.5899   20.3472 C   0  0  0  0  0  0
  -29.4305  -19.8438   18.4687 C   0  0  0  0  0  0
  -28.0758  -19.1514   18.6549 C   0  0  0  0  0  0
  -29.9228  -20.0859   19.9022 C   0  0  2  0  0  0
  -29.4354  -18.6912   20.5855 C   0  0  2  0  0  0
  -29.9979  -24.2873   22.5799 C   0  0  0  0  0  0
  -27.9494  -24.8585   19.9504 C   0  0  0  0  0  0
  -30.3911  -17.3661   20.4390 C   0  0  0  0  0  0
  -30.0362  -22.0587   21.5177 N   0  0  0  0  0  0
  -28.7610  -22.4266   19.6835 N   0  0  0  0  0  0
  -29.4940  -21.4823   20.4070 N   0  0  0  0  0  0
  -29.9085  -15.9200   20.6791 N   0  0  0  0  0  0
  -28.1426  -18.4106   19.9314 N   0  3  0  0  0  0
  -31.4741  -12.5828   19.1826 H   0  0  0  0  0  0
  -30.3760  -11.4933   19.9797 H   0  0  0  0  0  0
  -29.8020  -11.7326   17.5353 H   0  0  0  0  0  0
  -29.6367  -13.4603   17.7273 H   0  0  0  0  0  0
  -27.9049  -11.2797   18.9330 H   0  0  0  0  0  0
  -27.3840  -12.5046   17.8061 H   0  0  0  0  0  0
  -27.6315  -14.2536   19.4619 H   0  0  0  0  0  0
  -28.7240  -12.2033   21.4510 H   0  0  0  0  0  0
  -28.4176  -13.8872   21.7869 H   0  0  0  0  0  0
  -25.2743   -9.5665   22.4770 H   0  0  0  0  0  0
  -23.9985   -7.4627   22.7465 H   0  0  0  0  0  0
  -21.0844   -8.8786   19.8959 H   0  0  0  0  0  0
  -22.3708  -10.9672   19.6183 H   0  0  0  0  0  0
  -21.2020   -7.6148   23.9722 H   0  0  0  0  0  0
  -21.1482   -6.0516   25.9074 H   0  0  0  0  0  0
  -22.0595   -2.7615   23.2843 H   0  0  0  0  0  0
  -22.4041  -11.9897   22.4867 H   0  0  0  0  0  0
  -21.1043  -13.1262   22.2588 H   0  0  0  0  0  0
  -24.6007  -15.7957   20.4193 H   0  0  0  0  0  0
  -26.1606  -15.5546   19.8269 H   0  0  0  0  0  0
  -26.7221  -32.5419   23.1095 H   0  0  0  0  0  0
  -25.0080  -33.9675   25.0407 H   0  0  0  0  0  0
  -22.7304  -31.3061   21.4001 H   0  0  0  0  0  0
  -23.3752  -35.9612   23.3298 H   0  0  0  0  0  0
  -24.3591  -36.8910   22.2049 H   0  0  0  0  0  0
  -23.7228  -37.6482   23.6661 H   0  0  0  0  0  0
  -26.1179  -31.5252   20.6129 H   0  0  0  0  0  0
  -26.8597  -30.8156   22.0146 H   0  0  0  0  0  0
  -28.1166  -28.8960   21.2313 H   0  0  0  0  0  0
  -25.9203  -25.9467   18.9397 H   0  0  0  0  0  0
  -23.9717  -27.3411   18.9737 H   0  0  0  0  0  0
  -23.7741  -30.5970   19.4047 H   0  0  0  0  0  0
  -22.7688  -29.2534   19.8545 H   0  0  0  0  0  0
  -25.1307  -36.1937   25.0809 H   0  0  0  0  0  0
  -20.9985  -28.3302   24.1379 H   0  0  0  0  0  0
  -20.5696  -26.2322   23.3615 H   0  0  0  0  0  0
  -21.6655  -26.7471   22.1194 H   0  0  0  0  0  0
  -19.6925  -25.6303   21.1261 H   0  0  0  0  0  0
  -19.6699  -27.3191   20.6730 H   0  0  0  0  0  0
  -17.4210  -26.6667   21.4039 H   0  0  0  0  0  0
  -18.0357  -26.0090   22.9030 H   0  0  0  0  0  0
  -19.7937  -30.7288   24.2268 H   0  0  0  0  0  0
  -17.5019  -31.6281   24.5170 H   0  0  0  0  0  0
  -15.5356  -30.3010   23.7662 H   0  0  0  0  0  0
  -15.8676  -28.0846   22.7081 H   0  0  0  0  0  0
  -24.5876  -30.7101   25.7762 H   0  0  0  0  0  0
  -24.8856  -32.2938   26.4812 H   0  0  0  0  0  0
  -25.7973  -30.8979   27.0252 H   0  0  0  0  0  0
  -26.2925  -29.6768   24.1226 H   0  0  0  0  0  0
  -27.3950  -29.7268   25.4780 H   0  0  0  0  0  0
  -27.8839  -30.4265   23.9537 H   0  0  0  0  0  0
  -27.2680  -33.3636   26.2068 H   0  0  0  0  0  0
  -28.3884  -32.6851   25.0347 H   0  0  0  0  0  0
  -28.0699  -31.8448   26.5437 H   0  0  0  0  0  0
  -28.2609  -38.0095   24.7527 H   0  0  0  0  0  0
  -28.1069  -36.2633   24.6286 H   0  0  0  0  0  0
  -27.2300  -37.1464   25.8863 H   0  0  0  0  0  0
  -20.9391  -29.8786   21.6844 H   0  0  0  0  0  0
  -26.0176  -38.2855   24.1401 H   0  0  0  0  0  0
  -29.3692  -20.7361   17.8465 H   0  0  0  0  0  0
  -30.1163  -19.1654   17.9607 H   0  0  0  0  0  0
  -27.8470  -18.4862   17.8211 H   0  0  0  0  0  0
  -27.2715  -19.8858   18.7161 H   0  0  0  0  0  0
  -31.0124  -20.1050   19.9063 H   0  0  0  0  0  0
  -29.2583  -18.8590   21.6483 H   0  0  0  0  0  0
  -29.2022  -24.3705   23.3201 H   0  0  0  0  0  0
  -30.1773  -25.2837   22.1778 H   0  0  0  0  0  0
  -30.9050  -23.9831   23.1034 H   0  0  0  0  0  0
  -27.7636  -24.7848   18.8785 H   0  0  0  0  0  0
  -26.9863  -24.6800   20.4305 H   0  0  0  0  0  0
  -31.2679  -17.5211   21.0681 H   0  0  0  0  0  0
  -30.7856  -17.3675   19.4223 H   0  0  0  0  0  0
  -28.9659  -15.7828   21.0106 H   0  0  0  0  0  0
  -28.0433  -17.4247   19.7699 H   0  0  0  0  0  0
  -27.3871  -18.7153   20.5258 H   0  0  0  0  0  0
  1 25  1  0  0  0
  1 30  2  0  0  0
  1 83  1  0  0  0
  2  3  1  0  0  0
  2 25  1  0  0  0
  2 85  1  0  0  0
  2 86  1  0  0  0
  3  4  1  0  0  0
  3 87  1  0  0  0
  3 88  1  0  0  0
  4  5  1  0  0  0
  4 89  1  0  0  0
  4 90  1  0  0  0
  5  6  1  0  0  0
  5 26  1  0  0  0
  5 91  1  0  0  0
  6 25  1  0  0  0
  6 92  1  0  0  0
  6 93  1  0  0  0
  7  8  2  0  0  0
  7 26  1  0  0  0
  7 29  1  0  0  0
  8  9  1  0  0  0
  8 22  1  0  0  0
  9 10  1  0  0  0
  9 27  2  0  0  0
 10 11  2  0  0  0
 10 15  1  0  0  0
 11 12  1  0  0  0
 11 94  1  0  0  0
 12 13  2  0  0  0
 12 95  1  0  0  0
 13 14  1  0  0  0
 13 31  1  0  0  0
 14 15  2  0  0  0
 14 96  1  0  0  0
 15 97  1  0  0  0
 16 17  2  0  0  0
 16 21  1  0  0  0
 16 31  1  0  0  0
 17 18  1  0  0  0
 17 98  1  0  0  0
 18 19  2  0  0  0
 18 99  1  0  0  0
 19 20  1  0  0  0
 19 24  1  0  0  0
 20 21  2  0  0  0
 20100  1  0  0  0
 21 23  1  0  0  0
 22 28  1  0  0  0
 22 32  2  0  0  0
 26 27  1  0  0  0
 28101  1  0  0  0
 28102  1  0  0  0
 29103  1  0  0  0
 29104  1  0  0  0
 33 34  1  0  0  0
 33 66  1  0  0  0
 33 70  2  0  0  0
 34 36  1  0  0  0
 34 59  1  0  0  0
 34105  1  0  0  0
 35 44  2  0  0  0
 35 45  1  0  0  0
 35 68  1  0  0  0
 36 56  1  0  0  0
 36106  1  0  0  0
 37 39  1  0  0  0
 37 47  1  0  0  0
 37 66  1  0  0  0
 37107  1  0  0  0
 38 43  2  0  0  0
 38 46  1  0  0  0
 38 47  1  0  0  0
 39 64  1  0  0  0
 39 67  2  0  0  0
 40 52  1  0  0  0
 40 53  2  0  0  0
 40 58  1  0  0  0
 41108  1  0  0  0
 41109  1  0  0  0
 41110  1  0  0  0
 41 48  1  0  0  0
 42 43  1  0  0  0
 42 66  1  0  0  0
 42111  1  0  0  0
 42112  1  0  0  0
 43 44  1  0  0  0
 44113  1  0  0  0
 45 46  2  0  0  0
 45114  1  0  0  0
 46115  1  0  0  0
 47116  1  0  0  0
 47117  1  0  0  0
 48 56  1  0  0  0
 48 65  1  0  0  0
 48118  1  0  0  0
 49 50  1  0  0  0
 49 53  1  0  0  0
 49 64  1  0  0  0
 49119  1  0  0  0
 50 51  1  0  0  0
 50120  1  0  0  0
 50121  1  0  0  0
 51 52  1  0  0  0
 51122  1  0  0  0
 51123  1  0  0  0
 52124  1  0  0  0
 52125  1  0  0  0
 53 54  1  0  0  0
 54 55  2  0  0  0
 54126  1  0  0  0
 55 57  1  0  0  0
 55127  1  0  0  0
 56 69  2  0  0  0
 57 58  2  0  0  0
 57128  1  0  0  0
 58129  1  0  0  0
 59 60  1  0  0  0
 59 61  1  0  0  0
 59 62  1  0  0  0
 60130  1  0  0  0
 60131  1  0  0  0
 60132  1  0  0  0
 61133  1  0  0  0
 61134  1  0  0  0
 61135  1  0  0  0
 62136  1  0  0  0
 62137  1  0  0  0
 62138  1  0  0  0
 63 65  1  0  0  0
 63139  1  0  0  0
 63140  1  0  0  0
 63141  1  0  0  0
 64142  1  0  0  0
 65143  1  0  0  0
 68 78  1  0  0  0
 71 72  1  0  0  0
 71 77  1  0  0  0
 71 80  2  0  0  0
 72 78  1  0  0  0
 72 81  2  0  0  0
 73 74  1  0  0  0
 73 75  1  0  0  0
 73144  1  0  0  0
 73145  1  0  0  0
 74 84  1  0  0  0
 74146  1  0  0  0
 74147  1  0  0  0
 75 76  1  0  0  0
 75 82  1  0  0  0
 75148  1  0  0  0
 76 79  1  0  0  0
 76 84  1  0  0  0
 76149  1  0  0  0
 77150  1  0  0  0
 77151  1  0  0  0
 77152  1  0  0  0
 78153  1  0  0  0
 78154  1  0  0  0
 79 83  1  0  0  0
 79155  1  0  0  0
 79156  1  0  0  0
 80 82  1  0  0  0
 81 82  1  0  0  0
 83157  1  0  0  0
 84158  1  0  0  0
 84159  1  0  0  0
M  CHG  1  84   1
M  ISO  4   1 100  68 101  78 101  83 100
M  END
> <chiral flag>
0

> <version>
0

> <s_m_source_file>
/data/baiqing/PycharmProjects/Reinvent-master-3.2/result/LINK_invent/BTK/process_docking_weight1_custom_sum_contain_oxygen_bond_distance_aromatic_linkinvent_7_9_3/rearranged_h_0181.sdf

> <i_m_source_file_index>
86

> <r_mmod_Potential_Energy-OPLS-2005>
63.8972663879395

> <r_mmod_Stretch_Energy-OPLS-2005>
137.039764404297

> <r_mmod_Bend_Energy-OPLS-2005>
214.017333984375

> <r_mmod_Torsional_Energy-OPLS-2005>
336.689361572266

> <r_mmod_Improper_Torsional_Energy-OPLS-2005>
9.57565307617188

> <r_mmod_Van_der_Waal_Energy-OPLS-2005>
118.544059753418

> <r_mmod_Electrostatic_Energy-OPLS-2005>
-336.984466552734

> <r_mmod_Solvation_Energy-OPLS-2005>
-511.069793701172

> <b_mmod_Minimization_Converged-OPLS-2005>
0

> <r_mmod_RMS_Derivative-OPLS-2005>
1.87113475799561

$$$$
86
                    3D
 Structure written by MMmdl.
161170  0  0  1  0            999 V2000
  -30.6455  -14.7028   20.4803 C   0  0  0  0  0  0
  -30.4306  -12.4338   19.4670 C   0  0  0  0  0  0
  -29.5071  -12.5042   18.2317 C   0  0  0  0  0  0
  -28.0333  -12.3355   18.6471 C   0  0  0  0  0  0
  -27.6453  -13.2306   19.8544 C   0  0  2  0  0  0
  -28.6921  -13.1523   20.9878 C   0  0  0  0  0  0
  -25.2522  -13.8195   20.5697 C   0  0  0  0  0  0
  -24.1813  -13.0442   20.9210 C   0  0  0  0  0  0
  -24.6404  -11.6919   20.8755 C   0  0  0  0  0  0
  -23.9079  -10.4293   21.0412 C   0  0  0  0  0  0
  -24.3625   -9.4206   21.9189 C   0  0  0  0  0  0
  -23.6298   -8.2243   22.0755 C   0  0  0  0  0  0
  -22.4280   -8.0283   21.3544 C   0  0  0  0  0  0
  -21.9920   -9.0258   20.4646 C   0  0  0  0  0  0
  -22.7251  -10.2139   20.3058 C   0  0  0  0  0  0
  -21.6853   -6.0740   22.5279 C   0  0  0  0  0  0
  -21.4010   -6.5641   23.8214 C   0  0  0  0  0  0
  -21.3657   -5.6793   24.9175 C   0  0  0  0  0  0
  -21.6044   -4.3057   24.7222 C   0  0  0  0  0  0
  -21.8820   -3.8150   23.4344 C   0  0  0  0  0  0
  -21.9192   -4.6969   22.3400 C   0  0  0  0  0  0
  -22.7834  -13.5223   21.1866 C   0  0  0  0  0  0
  -22.1663   -4.2156   21.0979 F   0  0  0  0  0  0
  -21.5627   -3.4541   25.7734 F   0  0  0  0  0  0
  -29.9972  -13.4923   20.4060 N   0  0  0  0  0  0
  -26.2960  -12.9405   20.3308 N   0  0  0  0  0  0
  -25.9339  -11.6549   20.5773 N   0  0  0  0  0  0
  -22.0477  -12.8212   22.0420 N   0  0  0  0  0  0
  -25.4206  -15.1919   20.4097 N   0  0  0  0  0  0
  -31.8278  -14.7953   20.1420 O   0  0  0  0  0  0
  -21.6640   -6.8883   21.4242 O   0  0  0  0  0  0
  -22.3524  -14.5536   20.6720 O   0  0  0  0  0  0
  -24.6331  -31.8572   23.2032 C   0  0  0  0  0  0
  -25.9163  -32.4762   23.8360 C   0  0  1  0  0  0
  -27.2087  -27.2594   20.1137 C   0  0  0  0  0  0
  -25.5964  -33.8565   24.2277 N   0  0  0  0  0  0
  -23.4287  -30.4859   21.5470 C   0  0  2  0  0  0
  -24.8734  -28.9470   20.1065 C   0  0  0  0  0  0
  -22.7512  -29.4620   22.4907 C   0  0  0  0  0  0
  -18.0294  -28.1397   22.8481 C   0  0  0  0  0  0
  -24.1479  -36.7263   23.2641 C   0  0  0  0  0  0
  -25.9793  -30.7663   21.3897 C   0  0  0  0  0  0
  -26.0486  -29.3932   20.7247 C   0  0  0  0  0  0
  -27.2174  -28.5610   20.7249 C   0  0  0  0  0  0
  -26.0098  -26.9083   19.4404 C   0  0  0  0  0  0
  -24.8604  -27.7118   19.4542 C   0  0  0  0  0  0
  -23.6462  -29.8336   20.1593 C   0  0  0  0  0  0
  -25.4109  -36.3065   24.0330 C   0  0  1  0  0  0
  -20.5901  -28.3706   23.1257 C   0  0  2  0  0  0
  -20.6782  -26.9419   22.5408 C   0  0  0  0  0  0
  -19.5757  -26.6382   21.5214 C   0  0  0  0  0  0
  -18.1931  -26.7942   22.1613 C   0  0  0  0  0  0
  -19.1550  -28.8868   23.2865 C   0  0  0  0  0  0
  -18.9476  -30.1468   23.8884 C   0  0  0  0  0  0
  -17.6477  -30.6596   24.0569 C   0  0  0  0  0  0
  -25.9060  -34.9440   23.5097 C   0  0  0  0  0  0
  -16.5364  -29.9093   23.6348 C   0  0  0  0  0  0
  -16.7280  -28.6514   23.0359 C   0  0  0  0  0  0
  -26.4523  -31.6589   25.0752 C   0  0  0  0  0  0
  -25.3735  -31.3758   26.1466 C   0  0  0  0  0  0
  -27.0375  -30.2997   24.6260 C   0  0  0  0  0  0
  -27.6070  -32.4339   25.7518 C   0  0  0  0  0  0
  -27.5573  -37.1782   24.8465 C   0  0  0  0  0  0
  -21.4218  -29.3058   22.3647 N   0  0  0  0  0  0
  -26.4275  -37.3772   23.9424 N   0  0  0  0  0  0
  -24.6993  -31.0535   22.1021 N   0  0  0  0  0  0
  -23.4215  -28.8140   23.2990 O   0  0  0  0  0  0
  -28.2697  -26.3140   20.1995 O   0  0  0  0  0  0
  -26.5618  -34.8916   22.4658 O   0  0  0  0  0  0
  -23.5481  -32.1403   23.7317 O   0  0  0  0  0  0
  -29.0242  -21.5072   21.6017 C   0  0  0  0  0  0
  -28.7183  -23.5517   20.2033 C   0  0  0  0  0  0
  -28.6059  -22.8793   21.4599 C   0  0  0  0  0  0
  -29.3182  -22.7497   19.1795 C   0  0  0  0  0  0
  -29.5714  -20.7191   20.5467 C   0  0  0  0  0  0
  -29.6945  -18.3416   21.6633 C   0  0  0  0  0  0
  -29.9746  -18.2833   19.6185 C   0  0  0  0  0  0
  -30.4126  -17.2863   20.7503 C   0  0  0  0  0  0
  -29.5355  -23.2748   17.7712 C   0  0  0  0  0  0
  -28.1274  -23.0510   23.9012 C   0  0  0  0  0  0
  -27.9137  -24.8916   19.8546 C   0  0  0  0  0  0
  -29.6934  -21.4421   19.3930 N   0  3  0  0  0  0
  -30.0908  -19.3346   20.6482 N   0  0  0  0  0  0
  -28.0359  -23.5765   22.5444 N   0  0  0  0  0  0
  -29.9111  -15.8433   20.7404 N   0  0  0  0  0  0
  -31.4723  -12.5485   19.1629 H   0  0  0  0  0  0
  -30.3663  -11.4539   19.9430 H   0  0  0  0  0  0
  -29.7823  -11.7342   17.5101 H   0  0  0  0  0  0
  -29.6393  -13.4612   17.7244 H   0  0  0  0  0  0
  -27.8849  -11.2859   18.9037 H   0  0  0  0  0  0
  -27.3754  -12.5368   17.8009 H   0  0  0  0  0  0
  -27.6439  -14.2552   19.4819 H   0  0  0  0  0  0
  -28.7191  -12.1521   21.4229 H   0  0  0  0  0  0
  -28.4349  -13.8318   21.8018 H   0  0  0  0  0  0
  -25.2771   -9.5680   22.4768 H   0  0  0  0  0  0
  -24.0005   -7.4632   22.7474 H   0  0  0  0  0  0
  -21.0852   -8.8781   19.8949 H   0  0  0  0  0  0
  -22.3713  -10.9681   19.6167 H   0  0  0  0  0  0
  -21.2000   -7.6147   23.9719 H   0  0  0  0  0  0
  -21.1475   -6.0522   25.9079 H   0  0  0  0  0  0
  -22.0600   -2.7613   23.2841 H   0  0  0  0  0  0
  -22.4090  -11.9862   22.4789 H   0  0  0  0  0  0
  -21.1100  -13.1242   22.2638 H   0  0  0  0  0  0
  -24.6458  -15.8395   20.5051 H   0  0  0  0  0  0
  -26.2575  -15.6296   20.0471 H   0  0  0  0  0  0
  -26.7225  -32.5404   23.1094 H   0  0  0  0  0  0
  -25.0150  -33.9712   25.0446 H   0  0  0  0  0  0
  -22.7254  -31.3098   21.4070 H   0  0  0  0  0  0
  -23.3758  -35.9578   23.3299 H   0  0  0  0  0  0
  -24.3568  -36.8889   22.2056 H   0  0  0  0  0  0
  -23.7211  -37.6452   23.6668 H   0  0  0  0  0  0
  -26.1279  -31.5305   20.6257 H   0  0  0  0  0  0
  -26.8537  -30.8054   22.0276 H   0  0  0  0  0  0
  -28.1081  -28.8927   21.2393 H   0  0  0  0  0  0
  -25.8967  -25.9822   18.8996 H   0  0  0  0  0  0
  -23.9657  -27.3708   18.9511 H   0  0  0  0  0  0
  -23.7725  -30.6174   19.4116 H   0  0  0  0  0  0
  -22.7634  -29.2719   19.8481 H   0  0  0  0  0  0
  -25.1285  -36.1906   25.0821 H   0  0  0  0  0  0
  -20.9991  -28.3288   24.1379 H   0  0  0  0  0  0
  -20.5673  -26.2320   23.3621 H   0  0  0  0  0  0
  -21.6648  -26.7436   22.1203 H   0  0  0  0  0  0
  -19.6919  -25.6291   21.1247 H   0  0  0  0  0  0
  -19.6702  -27.3190   20.6744 H   0  0  0  0  0  0
  -17.4209  -26.6712   21.4005 H   0  0  0  0  0  0
  -18.0311  -26.0077   22.8996 H   0  0  0  0  0  0
  -19.7956  -30.7289   24.2236 H   0  0  0  0  0  0
  -17.5036  -31.6274   24.5175 H   0  0  0  0  0  0
  -15.5367  -30.2997   23.7686 H   0  0  0  0  0  0
  -15.8676  -28.0833   22.7083 H   0  0  0  0  0  0
  -24.5959  -30.7038   25.7819 H   0  0  0  0  0  0
  -24.8870  -32.2931   26.4794 H   0  0  0  0  0  0
  -25.8054  -30.9036   27.0298 H   0  0  0  0  0  0
  -26.2978  -29.6736   24.1260 H   0  0  0  0  0  0
  -27.4025  -29.7269   25.4794 H   0  0  0  0  0  0
  -27.8866  -30.4262   23.9540 H   0  0  0  0  0  0
  -27.2681  -33.3663   26.2043 H   0  0  0  0  0  0
  -28.3905  -32.6861   25.0360 H   0  0  0  0  0  0
  -28.0709  -31.8500   26.5477 H   0  0  0  0  0  0
  -28.2582  -38.0087   24.7531 H   0  0  0  0  0  0
  -28.1077  -36.2622   24.6258 H   0  0  0  0  0  0
  -27.2302  -37.1388   25.8871 H   0  0  0  0  0  0
  -20.9405  -29.8793   21.6860 H   0  0  0  0  0  0
  -26.0147  -38.2834   24.1469 H   0  0  0  0  0  0
  -28.9239  -21.0162   22.5560 H   0  0  0  0  0  0
  -30.1606  -18.4912   22.6374 H   0  0  0  0  0  0
  -28.6116  -18.2215   21.7336 H   0  0  0  0  0  0
  -28.9510  -18.1502   19.2641 H   0  0  0  0  0  0
  -30.6883  -18.3832   18.8009 H   0  0  0  0  0  0
  -31.4952  -17.3318   20.9013 H   0  0  0  0  0  0
  -29.9422  -24.2862   17.7976 H   0  0  0  0  0  0
  -28.5955  -23.2942   17.2190 H   0  0  0  0  0  0
  -30.2384  -22.6551   17.2134 H   0  0  0  0  0  0
  -27.7901  -23.8005   24.6182 H   0  0  0  0  0  0
  -29.1548  -22.7877   24.1582 H   0  0  0  0  0  0
  -27.4966  -22.1692   24.0240 H   0  0  0  0  0  0
  -26.9423  -24.6860   20.3064 H   0  0  0  0  0  0
  -27.7390  -24.8741   18.7802 H   0  0  0  0  0  0
  -30.1133  -20.9512   18.5981 H   0  0  0  0  0  0
  -27.9316  -24.5821   22.4448 H   0  0  0  0  0  0
  -28.9373  -15.6973   20.9586 H   0  0  0  0  0  0
  1 25  1  0  0  0
  1 30  2  0  0  0
  1 85  1  0  0  0
  2  3  1  0  0  0
  2 25  1  0  0  0
  2 86  1  0  0  0
  2 87  1  0  0  0
  3  4  1  0  0  0
  3 88  1  0  0  0
  3 89  1  0  0  0
  4  5  1  0  0  0
  4 90  1  0  0  0
  4 91  1  0  0  0
  5  6  1  0  0  0
  5 26  1  0  0  0
  5 92  1  0  0  0
  6 25  1  0  0  0
  6 93  1  0  0  0
  6 94  1  0  0  0
  7  8  2  0  0  0
  7 26  1  0  0  0
  7 29  1  0  0  0
  8  9  1  0  0  0
  8 22  1  0  0  0
  9 10  1  0  0  0
  9 27  2  0  0  0
 10 11  2  0  0  0
 10 15  1  0  0  0
 11 12  1  0  0  0
 11 95  1  0  0  0
 12 13  2  0  0  0
 12 96  1  0  0  0
 13 14  1  0  0  0
 13 31  1  0  0  0
 14 15  2  0  0  0
 14 97  1  0  0  0
 15 98  1  0  0  0
 16 17  2  0  0  0
 16 21  1  0  0  0
 16 31  1  0  0  0
 17 18  1  0  0  0
 17 99  1  0  0  0
 18 19  2  0  0  0
 18100  1  0  0  0
 19 20  1  0  0  0
 19 24  1  0  0  0
 20 21  2  0  0  0
 20101  1  0  0  0
 21 23  1  0  0  0
 22 28  1  0  0  0
 22 32  2  0  0  0
 26 27  1  0  0  0
 28102  1  0  0  0
 28103  1  0  0  0
 29104  1  0  0  0
 29105  1  0  0  0
 33 34  1  0  0  0
 33 66  1  0  0  0
 33 70  2  0  0  0
 34 36  1  0  0  0
 34 59  1  0  0  0
 34106  1  0  0  0
 35 44  2  0  0  0
 35 45  1  0  0  0
 35 68  1  0  0  0
 36 56  1  0  0  0
 36107  1  0  0  0
 37 39  1  0  0  0
 37 47  1  0  0  0
 37 66  1  0  0  0
 37108  1  0  0  0
 38 43  2  0  0  0
 38 46  1  0  0  0
 38 47  1  0  0  0
 39 64  1  0  0  0
 39 67  2  0  0  0
 40 52  1  0  0  0
 40 53  2  0  0  0
 40 58  1  0  0  0
 41109  1  0  0  0
 41110  1  0  0  0
 41111  1  0  0  0
 41 48  1  0  0  0
 42 43  1  0  0  0
 42 66  1  0  0  0
 42112  1  0  0  0
 42113  1  0  0  0
 43 44  1  0  0  0
 44114  1  0  0  0
 45 46  2  0  0  0
 45115  1  0  0  0
 46116  1  0  0  0
 47117  1  0  0  0
 47118  1  0  0  0
 48 56  1  0  0  0
 48 65  1  0  0  0
 48119  1  0  0  0
 49 50  1  0  0  0
 49 53  1  0  0  0
 49 64  1  0  0  0
 49120  1  0  0  0
 50 51  1  0  0  0
 50121  1  0  0  0
 50122  1  0  0  0
 51 52  1  0  0  0
 51123  1  0  0  0
 51124  1  0  0  0
 52125  1  0  0  0
 52126  1  0  0  0
 53 54  1  0  0  0
 54 55  2  0  0  0
 54127  1  0  0  0
 55 57  1  0  0  0
 55128  1  0  0  0
 56 69  2  0  0  0
 57 58  2  0  0  0
 57129  1  0  0  0
 58130  1  0  0  0
 59 60  1  0  0  0
 59 61  1  0  0  0
 59 62  1  0  0  0
 60131  1  0  0  0
 60132  1  0  0  0
 60133  1  0  0  0
 61134  1  0  0  0
 61135  1  0  0  0
 61136  1  0  0  0
 62137  1  0  0  0
 62138  1  0  0  0
 62139  1  0  0  0
 63 65  1  0  0  0
 63140  1  0  0  0
 63141  1  0  0  0
 63142  1  0  0  0
 64143  1  0  0  0
 65144  1  0  0  0
 68 81  1  0  0  0
 71 73  2  0  0  0
 71 75  1  0  0  0
 71145  1  0  0  0
 72 73  1  0  0  0
 72 74  2  0  0  0
 72 81  1  0  0  0
 73 84  1  0  0  0
 74 79  1  0  0  0
 74 82  1  0  0  0
 75 82  2  0  0  0
 75 83  1  0  0  0
 76 78  1  0  0  0
 76 83  1  0  0  0
 76146  1  0  0  0
 76147  1  0  0  0
 77 78  1  0  0  0
 77 83  1  0  0  0
 77148  1  0  0  0
 77149  1  0  0  0
 78 85  1  0  0  0
 78150  1  0  0  0
 79151  1  0  0  0
 79152  1  0  0  0
 79153  1  0  0  0
 80 84  1  0  0  0
 80154  1  0  0  0
 80155  1  0  0  0
 80156  1  0  0  0
 81157  1  0  0  0
 81158  1  0  0  0
 82159  1  0  0  0
 84160  1  0  0  0
 85161  1  0  0  0
M  CHG  1  82   1
M  ISO  4   1 100  68 101  81 101  85 100
M  END
> <chiral flag>
0

> <version>
0

> <s_m_source_file>
/data/baiqing/PycharmProjects/Reinvent-master-3.2/result/LINK_invent/BTK/process_docking_weight1_custom_sum_contain_oxygen_bond_distance_aromatic_linkinvent_7_9_3/rearranged_h_0181.sdf

> <i_m_source_file_index>
87

> <r_mmod_Potential_Energy-OPLS-2005>
183.480056762695

> <r_mmod_Stretch_Energy-OPLS-2005>
109.180816650391

> <r_mmod_Bend_Energy-OPLS-2005>
234.480377197266

> <r_mmod_Torsional_Energy-OPLS-2005>
237.0126953125

> <r_mmod_Improper_Torsional_Energy-OPLS-2005>
15.7182865142822

> <r_mmod_Van_der_Waal_Energy-OPLS-2005>
158.934661865234

> <r_mmod_Electrostatic_Energy-OPLS-2005>
-234.585632324219

> <r_mmod_Solvation_Energy-OPLS-2005>
-420.076934814453

> <b_mmod_Minimization_Converged-OPLS-2005>
0

> <r_mmod_RMS_Derivative-OPLS-2005>
0.728431165218353

$$$$
87
                    3D
 Structure written by MMmdl.
162171  0  0  1  0            999 V2000
  -30.6379  -14.6503   20.3144 C   0  0  0  0  0  0
  -30.4539  -12.3212   19.4977 C   0  0  0  0  0  0
  -29.5245  -12.2015   18.2673 C   0  0  0  0  0  0
  -28.0186  -12.2664   18.6383 C   0  0  0  0  0  0
  -27.6411  -13.1929   19.8351 C   0  0  2  0  0  0
  -28.6989  -13.1564   20.9570 C   0  0  0  0  0  0
  -25.2570  -13.8121   20.5712 C   0  0  0  0  0  0
  -24.1815  -13.0426   20.9225 C   0  0  0  0  0  0
  -24.6353  -11.6889   20.8814 C   0  0  0  0  0  0
  -23.9022  -10.4283   21.0450 C   0  0  0  0  0  0
  -24.3589   -9.4194   21.9208 C   0  0  0  0  0  0
  -23.6281   -8.2224   22.0759 C   0  0  0  0  0  0
  -22.4267   -8.0269   21.3547 C   0  0  0  0  0  0
  -21.9897   -9.0243   20.4651 C   0  0  0  0  0  0
  -22.7209  -10.2130   20.3080 C   0  0  0  0  0  0
  -21.6844   -6.0735   22.5287 C   0  0  0  0  0  0
  -21.4004   -6.5642   23.8219 C   0  0  0  0  0  0
  -21.3650   -5.6791   24.9181 C   0  0  0  0  0  0
  -21.6041   -4.3057   24.7231 C   0  0  0  0  0  0
  -21.8821   -3.8150   23.4352 C   0  0  0  0  0  0
  -21.9193   -4.6967   22.3407 C   0  0  0  0  0  0
  -22.7843  -13.5242   21.1874 C   0  0  0  0  0  0
  -22.1666   -4.2154   21.0985 F   0  0  0  0  0  0
  -21.5631   -3.4535   25.7740 F   0  0  0  0  0  0
  -30.0006  -13.4387   20.3416 N   0  0  0  0  0  0
  -26.2953  -12.9238   20.3318 N   0  0  0  0  0  0
  -25.9272  -11.6440   20.5892 N   0  0  0  0  0  0
  -22.0476  -12.8238   22.0420 N   0  0  0  0  0  0
  -25.4321  -15.1844   20.4132 N   0  0  0  0  0  0
  -31.8684  -14.7250   20.2936 O   0  0  0  0  0  0
  -21.6630   -6.8872   21.4242 O   0  0  0  0  0  0
  -22.3542  -14.5557   20.6728 O   0  0  0  0  0  0
  -24.6147  -31.8669   23.2094 C   0  0  0  0  0  0
  -25.9028  -32.4825   23.8404 C   0  0  1  0  0  0
  -27.2363  -27.3982   20.1297 C   0  0  0  0  0  0
  -25.5885  -33.8627   24.2330 N   0  0  0  0  0  0
  -23.4077  -30.4875   21.5491 C   0  0  2  0  0  0
  -24.8582  -28.9528   20.1142 C   0  0  0  0  0  0
  -22.7431  -29.4643   22.4982 C   0  0  0  0  0  0
  -18.0287  -28.1395   22.8504 C   0  0  0  0  0  0
  -24.1492  -36.7305   23.2640 C   0  0  0  0  0  0
  -25.9381  -30.8209   21.3732 C   0  0  0  0  0  0
  -26.0172  -29.4543   20.7195 C   0  0  0  0  0  0
  -27.2065  -28.6855   20.7226 C   0  0  0  0  0  0
  -26.0626  -26.9317   19.4912 C   0  0  0  0  0  0
  -24.8789  -27.6935   19.4936 C   0  0  0  0  0  0
  -23.6204  -29.8204   20.1633 C   0  0  0  0  0  0
  -25.4121  -36.3119   24.0336 C   0  0  1  0  0  0
  -20.5878  -28.3676   23.1328 C   0  0  2  0  0  0
  -20.6782  -26.9416   22.5416 C   0  0  0  0  0  0
  -19.5755  -26.6398   21.5224 C   0  0  0  0  0  0
  -18.1932  -26.7948   22.1630 C   0  0  0  0  0  0
  -19.1533  -28.8854   23.2918 C   0  0  0  0  0  0
  -18.9454  -30.1465   23.8922 C   0  0  0  0  0  0
  -17.6451  -30.6600   24.0575 C   0  0  0  0  0  0
  -25.9037  -34.9481   23.5134 C   0  0  0  0  0  0
  -16.5347  -29.9091   23.6343 C   0  0  0  0  0  0
  -16.7273  -28.6513   23.0361 C   0  0  0  0  0  0
  -26.4455  -31.6616   25.0738 C   0  0  0  0  0  0
  -25.3691  -31.3726   26.1459 C   0  0  0  0  0  0
  -27.0305  -30.3065   24.6135 C   0  0  0  0  0  0
  -27.6054  -32.4328   25.7470 C   0  0  0  0  0  0
  -27.5595  -37.1815   24.8473 C   0  0  0  0  0  0
  -21.4156  -29.3026   22.3708 N   0  0  0  0  0  0
  -26.4320  -37.3790   23.9392 N   0  0  0  0  0  0
  -24.6714  -31.0735   22.1018 N   0  0  0  0  0  0
  -23.4184  -28.8209   23.3055 O   0  0  0  0  0  0
  -28.3947  -26.6362   20.1980 O   0  0  0  0  0  0
  -26.5601  -34.8926   22.4696 O   0  0  0  0  0  0
  -23.5332  -32.1436   23.7459 O   0  0  0  0  0  0
  -31.4519  -19.1415   20.9293 C   0  0  0  0  0  0
  -30.3835  -18.2045   20.9530 C   0  0  0  0  0  0
  -29.0485  -19.8343   21.9473 C   0  0  0  0  0  0
  -30.0784  -20.8040   21.7942 C   0  0  0  0  0  0
  -30.6023  -16.3090   17.6357 C   0  0  0  0  0  0
  -31.2095  -17.3223   18.6019 C   0  0  0  0  0  0
  -29.4790  -15.6427   18.4563 C   0  0  0  0  0  0
  -30.2788  -17.1715   19.8105 C   0  0  1  0  0  0
  -27.6821  -20.2017   22.4919 C   0  0  0  0  0  0
  -29.8812  -22.3066   22.0949 C   0  0  0  0  0  0
  -28.2743  -25.1890   20.1887 C   0  0  0  0  0  0
  -29.2081  -24.4682   21.2066 C   0  0  0  0  0  0
  -31.3004  -20.4297   21.3365 N   0  0  0  0  0  0
  -29.2044  -18.5410   21.5464 N   0  0  0  0  0  0
  -29.8782  -15.7226   19.8851 N   0  0  0  0  0  0
  -29.2056  -23.0331   21.0471 O   0  0  0  0  0  0
  -31.4895  -12.4441   19.1733 H   0  0  0  0  0  0
  -30.4329  -11.3990   20.0808 H   0  0  0  0  0  0
  -29.7088  -11.2270   17.8114 H   0  0  0  0  0  0
  -29.8097  -12.8728   17.4623 H   0  0  0  0  0  0
  -27.7359  -11.2427   18.8834 H   0  0  0  0  0  0
  -27.4234  -12.5220   17.7610 H   0  0  0  0  0  0
  -27.6030  -14.2029   19.4438 H   0  0  0  0  0  0
  -28.7123  -12.1864   21.4555 H   0  0  0  0  0  0
  -28.4670  -13.9002   21.7225 H   0  0  0  0  0  0
  -25.2733   -9.5672   22.4779 H   0  0  0  0  0  0
  -24.0004   -7.4602   22.7460 H   0  0  0  0  0  0
  -21.0842   -8.8750   19.8941 H   0  0  0  0  0  0
  -22.3669  -10.9675   19.6200 H   0  0  0  0  0  0
  -21.1988   -7.6147   23.9723 H   0  0  0  0  0  0
  -21.1471   -6.0525   25.9083 H   0  0  0  0  0  0
  -22.0609   -2.7614   23.2855 H   0  0  0  0  0  0
  -22.4096  -11.9910   22.4826 H   0  0  0  0  0  0
  -21.1098  -13.1283   22.2618 H   0  0  0  0  0  0
  -24.6741  -15.8466   20.5398 H   0  0  0  0  0  0
  -26.3028  -15.6270   20.1469 H   0  0  0  0  0  0
  -26.7095  -32.5533   23.1170 H   0  0  0  0  0  0
  -25.0042  -33.9802   25.0477 H   0  0  0  0  0  0
  -22.6994  -31.3057   21.4085 H   0  0  0  0  0  0
  -23.3755  -35.9640   23.3341 H   0  0  0  0  0  0
  -24.3574  -36.8871   22.2044 H   0  0  0  0  0  0
  -23.7243  -37.6521   23.6627 H   0  0  0  0  0  0
  -26.0569  -31.5883   20.6072 H   0  0  0  0  0  0
  -26.8210  -30.8712   21.9979 H   0  0  0  0  0  0
  -28.0947  -29.0615   21.2123 H   0  0  0  0  0  0
  -26.0411  -25.9743   18.9913 H   0  0  0  0  0  0
  -23.9909  -27.3041   19.0154 H   0  0  0  0  0  0
  -23.7289  -30.5949   19.4027 H   0  0  0  0  0  0
  -22.7467  -29.2369   19.8668 H   0  0  0  0  0  0
  -25.1305  -36.2006   25.0831 H   0  0  0  0  0  0
  -20.9975  -28.3227   24.1451 H   0  0  0  0  0  0
  -20.5727  -26.2266   23.3590 H   0  0  0  0  0  0
  -21.6648  -26.7480   22.1182 H   0  0  0  0  0  0
  -19.6910  -25.6310   21.1248 H   0  0  0  0  0  0
  -19.6711  -27.3220   20.6767 H   0  0  0  0  0  0
  -17.4210  -26.6723   21.4020 H   0  0  0  0  0  0
  -18.0326  -26.0087   22.9022 H   0  0  0  0  0  0
  -19.7922  -30.7292   24.2297 H   0  0  0  0  0  0
  -17.4996  -31.6285   24.5166 H   0  0  0  0  0  0
  -15.5347  -30.2991   23.7664 H   0  0  0  0  0  0
  -15.8678  -28.0832   22.7069 H   0  0  0  0  0  0
  -24.5860  -30.7108   25.7739 H   0  0  0  0  0  0
  -24.8883  -32.2885   26.4912 H   0  0  0  0  0  0
  -25.7987  -30.8848   27.0215 H   0  0  0  0  0  0
  -26.2871  -29.6814   24.1172 H   0  0  0  0  0  0
  -27.4062  -29.7325   25.4615 H   0  0  0  0  0  0
  -27.8712  -30.4404   23.9320 H   0  0  0  0  0  0
  -27.2714  -33.3625   26.2093 H   0  0  0  0  0  0
  -28.3815  -32.6886   25.0241 H   0  0  0  0  0  0
  -28.0777  -31.8414   26.5325 H   0  0  0  0  0  0
  -28.2642  -38.0085   24.7497 H   0  0  0  0  0  0
  -28.1068  -36.2618   24.6351 H   0  0  0  0  0  0
  -27.2305  -37.1524   25.8875 H   0  0  0  0  0  0
  -20.9334  -29.8693   21.6872 H   0  0  0  0  0  0
  -26.0225  -38.2881   24.1357 H   0  0  0  0  0  0
  -32.3740  -18.9294   20.4089 H   0  0  0  0  0  0
  -31.3550  -15.5775   17.3368 H   0  0  0  0  0  0
  -30.2135  -16.7777   16.7305 H   0  0  0  0  0  0
  -31.1922  -18.3314   18.1870 H   0  0  0  0  0  0
  -32.2420  -17.0745   18.8532 H   0  0  0  0  0  0
  -28.5262  -16.1547   18.2998 H   0  0  0  0  0  0
  -29.2717  -14.6664   18.0766 H   0  0  0  0  0  0
  -29.3818  -17.6668   19.4219 H   0  0  0  0  0  0
  -27.7499  -20.4660   23.5472 H   0  0  0  0  0  0
  -26.9725  -19.3799   22.3916 H   0  0  0  0  0  0
  -27.2773  -21.0556   21.9490 H   0  0  0  0  0  0
  -30.8604  -22.7547   22.2738 H   0  0  0  0  0  0
  -29.3270  -22.4167   23.0282 H   0  0  0  0  0  0
  -27.2613  -24.8628   20.4221 H   0  0  0  0  0  0
  -28.4945  -24.8396   19.1794 H   0  0  0  0  0  0
  -28.8889  -24.7285   22.2167 H   0  0  0  0  0  0
  -30.2292  -24.8329   21.0914 H   0  0  0  0  0  0
  1 25  1  0  0  0
  1 30  2  0  0  0
  1 85  1  0  0  0
  2  3  1  0  0  0
  2 25  1  0  0  0
  2 87  1  0  0  0
  2 88  1  0  0  0
  3  4  1  0  0  0
  3 89  1  0  0  0
  3 90  1  0  0  0
  4  5  1  0  0  0
  4 91  1  0  0  0
  4 92  1  0  0  0
  5  6  1  0  0  0
  5 26  1  0  0  0
  5 93  1  0  0  0
  6 25  1  0  0  0
  6 94  1  0  0  0
  6 95  1  0  0  0
  7  8  2  0  0  0
  7 26  1  0  0  0
  7 29  1  0  0  0
  8  9  1  0  0  0
  8 22  1  0  0  0
  9 10  1  0  0  0
  9 27  2  0  0  0
 10 11  2  0  0  0
 10 15  1  0  0  0
 11 12  1  0  0  0
 11 96  1  0  0  0
 12 13  2  0  0  0
 12 97  1  0  0  0
 13 14  1  0  0  0
 13 31  1  0  0  0
 14 15  2  0  0  0
 14 98  1  0  0  0
 15 99  1  0  0  0
 16 17  2  0  0  0
 16 21  1  0  0  0
 16 31  1  0  0  0
 17 18  1  0  0  0
 17100  1  0  0  0
 18 19  2  0  0  0
 18101  1  0  0  0
 19 20  1  0  0  0
 19 24  1  0  0  0
 20 21  2  0  0  0
 20102  1  0  0  0
 21 23  1  0  0  0
 22 28  1  0  0  0
 22 32  2  0  0  0
 26 27  1  0  0  0
 28103  1  0  0  0
 28104  1  0  0  0
 29105  1  0  0  0
 29106  1  0  0  0
 33 34  1  0  0  0
 33 66  1  0  0  0
 33 70  2  0  0  0
 34 36  1  0  0  0
 34 59  1  0  0  0
 34107  1  0  0  0
 35 44  2  0  0  0
 35 45  1  0  0  0
 35 68  1  0  0  0
 36 56  1  0  0  0
 36108  1  0  0  0
 37 39  1  0  0  0
 37 47  1  0  0  0
 37 66  1  0  0  0
 37109  1  0  0  0
 38 43  2  0  0  0
 38 46  1  0  0  0
 38 47  1  0  0  0
 39 64  1  0  0  0
 39 67  2  0  0  0
 40 52  1  0  0  0
 40 53  2  0  0  0
 40 58  1  0  0  0
 41110  1  0  0  0
 41111  1  0  0  0
 41112  1  0  0  0
 41 48  1  0  0  0
 42 43  1  0  0  0
 42 66  1  0  0  0
 42113  1  0  0  0
 42114  1  0  0  0
 43 44  1  0  0  0
 44115  1  0  0  0
 45 46  2  0  0  0
 45116  1  0  0  0
 46117  1  0  0  0
 47118  1  0  0  0
 47119  1  0  0  0
 48 56  1  0  0  0
 48 65  1  0  0  0
 48120  1  0  0  0
 49 50  1  0  0  0
 49 53  1  0  0  0
 49 64  1  0  0  0
 49121  1  0  0  0
 50 51  1  0  0  0
 50122  1  0  0  0
 50123  1  0  0  0
 51 52  1  0  0  0
 51124  1  0  0  0
 51125  1  0  0  0
 52126  1  0  0  0
 52127  1  0  0  0
 53 54  1  0  0  0
 54 55  2  0  0  0
 54128  1  0  0  0
 55 57  1  0  0  0
 55129  1  0  0  0
 56 69  2  0  0  0
 57 58  2  0  0  0
 57130  1  0  0  0
 58131  1  0  0  0
 59 60  1  0  0  0
 59 61  1  0  0  0
 59 62  1  0  0  0
 60132  1  0  0  0
 60133  1  0  0  0
 60134  1  0  0  0
 61135  1  0  0  0
 61136  1  0  0  0
 61137  1  0  0  0
 62138  1  0  0  0
 62139  1  0  0  0
 62140  1  0  0  0
 63 65  1  0  0  0
 63141  1  0  0  0
 63142  1  0  0  0
 63143  1  0  0  0
 64144  1  0  0  0
 65145  1  0  0  0
 68 81  1  0  0  0
 71 72  2  0  0  0
 71 83  1  0  0  0
 71146  1  0  0  0
 72 84  1  0  0  0
 72 78  1  0  0  0
 73 74  1  0  0  0
 73 79  1  0  0  0
 73 84  2  0  0  0
 74 80  1  0  0  0
 74 83  2  0  0  0
 75 76  1  0  0  0
 75 77  1  0  0  0
 75147  1  0  0  0
 75148  1  0  0  0
 76 78  1  0  0  0
 76149  1  0  0  0
 76150  1  0  0  0
 77 85  1  0  0  0
 77151  1  0  0  0
 77152  1  0  0  0
 78 85  1  0  0  0
 78153  1  0  0  0
 79154  1  0  0  0
 79155  1  0  0  0
 79156  1  0  0  0
 80 86  1  0  0  0
 80157  1  0  0  0
 80158  1  0  0  0
 81 82  1  0  0  0
 81159  1  0  0  0
 81160  1  0  0  0
 82 86  1  0  0  0
 82161  1  0  0  0
 82162  1  0  0  0
M  ISO  4   1 100  68 101  81 101  85 100
M  END
> <chiral flag>
0

> <version>
0

> <s_m_source_file>
/data/baiqing/PycharmProjects/Reinvent-master-3.2/result/LINK_invent/BTK/process_docking_weight1_custom_sum_contain_oxygen_bond_distance_aromatic_linkinvent_7_9_3/rearranged_h_0181.sdf

> <i_m_source_file_index>
88

> <r_mmod_Potential_Energy-OPLS-2005>
511.117004394531

> <r_mmod_Stretch_Energy-OPLS-2005>
59.4397315979004

> <r_mmod_Bend_Energy-OPLS-2005>
217.468475341797

> <r_mmod_Torsional_Energy-OPLS-2005>
379.628997802734

> <r_mmod_Improper_Torsional_Energy-OPLS-2005>
25.9818935394287

> <r_mmod_Van_der_Waal_Energy-OPLS-2005>
180.130569458008

> <r_mmod_Electrostatic_Energy-OPLS-2005>
-212.365921020508

> <r_mmod_Solvation_Energy-OPLS-2005>
-208.147415161133

> <b_mmod_Minimization_Converged-OPLS-2005>
0

> <r_mmod_RMS_Derivative-OPLS-2005>
1.49756491184235

$$$$
88
                    3D
 Structure written by MMmdl.
155164  0  0  1  0            999 V2000
  -30.5652  -15.0979   20.3934 C   0  0  0  0  0  0
  -30.4144  -12.7019   19.5086 C   0  0  0  0  0  0
  -29.5122  -12.5442   18.2658 C   0  0  0  0  0  0
  -28.0571  -12.3022   18.6973 C   0  0  0  0  0  0
  -27.6091  -13.2708   19.8227 C   0  0  2  0  0  0
  -28.6492  -13.4121   20.9537 C   0  0  0  0  0  0
  -25.2364  -13.8251   20.5745 C   0  0  0  0  0  0
  -24.1717  -13.0440   20.9257 C   0  0  0  0  0  0
  -24.6376  -11.6939   20.8779 C   0  0  0  0  0  0
  -23.9079  -10.4294   21.0416 C   0  0  0  0  0  0
  -24.3628   -9.4207   21.9190 C   0  0  0  0  0  0
  -23.6299   -8.2243   22.0758 C   0  0  0  0  0  0
  -22.4281   -8.0283   21.3549 C   0  0  0  0  0  0
  -21.9920   -9.0257   20.4651 C   0  0  0  0  0  0
  -22.7253  -10.2133   20.3062 C   0  0  0  0  0  0
  -21.6854   -6.0737   22.5278 C   0  0  0  0  0  0
  -21.4017   -6.5641   23.8211 C   0  0  0  0  0  0
  -21.3660   -5.6794   24.9173 C   0  0  0  0  0  0
  -21.6044   -4.3056   24.7226 C   0  0  0  0  0  0
  -21.8817   -3.8148   23.4346 C   0  0  0  0  0  0
  -21.9192   -4.6965   22.3402 C   0  0  0  0  0  0
  -22.7735  -13.5190   21.1899 C   0  0  0  0  0  0
  -22.1660   -4.2151   21.0979 F   0  0  0  0  0  0
  -21.5628   -3.4539   25.7739 F   0  0  0  0  0  0
  -29.8947  -13.8593   20.3171 N   0  0  0  0  0  0
  -26.2795  -12.9529   20.3245 N   0  0  0  0  0  0
  -25.9312  -11.6636   20.5754 N   0  0  0  0  0  0
  -22.0395  -12.8177   22.0458 N   0  0  0  0  0  0
  -25.3981  -15.1979   20.4155 N   0  0  0  0  0  0
  -31.7874  -14.9924   20.2183 O   0  0  0  0  0  0
  -21.6644   -6.8882   21.4241 O   0  0  0  0  0  0
  -22.3416  -14.5490   20.6736 O   0  0  0  0  0  0
  -24.6506  -31.8341   23.1793 C   0  0  0  0  0  0
  -25.9245  -32.4636   23.8214 C   0  0  1  0  0  0
  -27.2125  -27.0341   20.1787 C   0  0  0  0  0  0
  -25.5956  -33.8445   24.2128 N   0  0  0  0  0  0
  -23.4594  -30.4480   21.5259 C   0  0  2  0  0  0
  -24.9092  -28.8483   20.1151 C   0  0  0  0  0  0
  -22.7599  -29.4489   22.4821 C   0  0  0  0  0  0
  -18.0308  -28.1397   22.8471 C   0  0  0  0  0  0
  -24.1491  -36.7234   23.2647 C   0  0  0  0  0  0
  -26.0197  -30.6733   21.3937 C   0  0  0  0  0  0
  -26.0863  -29.2715   20.7436 C   0  0  0  0  0  0
  -27.2350  -28.3811   20.7557 C   0  0  0  0  0  0
  -26.0114  -26.7301   19.5061 C   0  0  0  0  0  0
  -24.8888  -27.5943   19.4802 C   0  0  0  0  0  0
  -23.6925  -29.7663   20.1495 C   0  0  0  0  0  0
  -25.4129  -36.2997   24.0307 C   0  0  1  0  0  0
  -20.5925  -28.3727   23.1215 C   0  0  2  0  0  0
  -20.6788  -26.9419   22.5406 C   0  0  0  0  0  0
  -19.5766  -26.6376   21.5209 C   0  0  0  0  0  0
  -18.1947  -26.7934   22.1619 C   0  0  0  0  0  0
  -19.1568  -28.8880   23.2834 C   0  0  0  0  0  0
  -18.9482  -30.1475   23.8861 C   0  0  0  0  0  0
  -17.6478  -30.6590   24.0554 C   0  0  0  0  0  0
  -25.9084  -34.9374   23.5032 C   0  0  0  0  0  0
  -16.5368  -29.9082   23.6336 C   0  0  0  0  0  0
  -16.7293  -28.6501   23.0357 C   0  0  0  0  0  0
  -26.4542  -31.6547   25.0702 C   0  0  0  0  0  0
  -25.3700  -31.3764   26.1379 C   0  0  0  0  0  0
  -27.0432  -30.2928   24.6366 C   0  0  0  0  0  0
  -27.6042  -32.4347   25.7498 C   0  0  0  0  0  0
  -27.5569  -37.1776   24.8467 C   0  0  0  0  0  0
  -21.4282  -29.3039   22.3575 N   0  0  0  0  0  0
  -26.4284  -37.3720   23.9403 N   0  0  0  0  0  0
  -24.7302  -31.0102   22.0873 N   0  0  0  0  0  0
  -23.4200  -28.8049   23.3014 O   0  0  0  0  0  0
  -28.2808  -26.0383   20.2001 O   0  0  0  0  0  0
  -26.5685  -34.8890   22.4623 O   0  0  0  0  0  0
  -23.5607  -32.1262   23.6964 O   0  0  0  0  0  0
  -28.7365  -22.4274   19.0478 C   0  0  0  0  0  0
  -28.7922  -21.5268   20.1867 C   0  0  0  0  0  0
  -28.3052  -23.6389   21.3718 C   0  0  0  0  0  0
  -28.2539  -24.5330   20.2193 C   0  0  0  0  0  0
  -30.5002  -19.2249   20.6407 C   0  0  0  0  0  0
  -28.2202  -18.6390   20.5566 C   0  0  0  0  0  0
  -30.9159  -17.6782   20.2868 C   0  0  0  0  0  0
  -28.5995  -17.0373   20.2907 C   0  0  0  0  0  0
  -29.1597  -19.8543   20.0782 C   0  0  0  0  0  0
  -28.1384  -24.2356   22.7533 C   0  0  0  0  0  0
  -28.5043  -23.8208   19.0588 N   0  0  0  0  0  0
  -28.5505  -22.2373   21.3573 N   0  0  0  0  0  0
  -30.0031  -16.4592   20.4500 N   0  0  0  0  0  0
  -31.4447  -12.8468   19.1821 H   0  0  0  0  0  0
  -30.4251  -11.7851   20.1008 H   0  0  0  0  0  0
  -29.8621  -11.7210   17.6414 H   0  0  0  0  0  0
  -29.5714  -13.4445   17.6521 H   0  0  0  0  0  0
  -27.9899  -11.2729   19.0520 H   0  0  0  0  0  0
  -27.3866  -12.3746   17.8404 H   0  0  0  0  0  0
  -27.5356  -14.2463   19.3409 H   0  0  0  0  0  0
  -28.7821  -12.4739   21.4948 H   0  0  0  0  0  0
  -28.3204  -14.1509   21.6856 H   0  0  0  0  0  0
  -25.2770   -9.5685   22.4768 H   0  0  0  0  0  0
  -24.0009   -7.4633   22.7476 H   0  0  0  0  0  0
  -21.0853   -8.8780   19.8953 H   0  0  0  0  0  0
  -22.3713  -10.9675   19.6175 H   0  0  0  0  0  0
  -21.2014   -7.6150   23.9715 H   0  0  0  0  0  0
  -21.1482   -6.0525   25.9076 H   0  0  0  0  0  0
  -22.0595   -2.7612   23.2844 H   0  0  0  0  0  0
  -22.4026  -11.9858   22.4869 H   0  0  0  0  0  0
  -21.1005  -13.1188   22.2652 H   0  0  0  0  0  0
  -24.6282  -15.8473   20.5333 H   0  0  0  0  0  0
  -26.2433  -15.6415   20.0828 H   0  0  0  0  0  0
  -26.7302  -32.5209   23.0924 H   0  0  0  0  0  0
  -25.0061  -33.9543   25.0248 H   0  0  0  0  0  0
  -22.7673  -31.2763   21.3615 H   0  0  0  0  0  0
  -23.3754  -35.9565   23.3299 H   0  0  0  0  0  0
  -24.3565  -36.8887   22.2063 H   0  0  0  0  0  0
  -23.7253  -37.6425   23.6702 H   0  0  0  0  0  0
  -26.1874  -31.4182   20.6147 H   0  0  0  0  0  0
  -26.8855  -30.7280   22.0416 H   0  0  0  0  0  0
  -28.1360  -28.7038   21.2580 H   0  0  0  0  0  0
  -25.9240  -25.7712   19.0144 H   0  0  0  0  0  0
  -23.9919  -27.2674   18.9728 H   0  0  0  0  0  0
  -23.8410  -30.5354   19.3909 H   0  0  0  0  0  0
  -22.8043  -29.2157   19.8347 H   0  0  0  0  0  0
  -25.1322  -36.1808   25.0799 H   0  0  0  0  0  0
  -21.0015  -28.3327   24.1337 H   0  0  0  0  0  0
  -20.5666  -26.2340   23.3635 H   0  0  0  0  0  0
  -21.6654  -26.7409   22.1210 H   0  0  0  0  0  0
  -19.6925  -25.6277   21.1262 H   0  0  0  0  0  0
  -19.6706  -27.3164   20.6723 H   0  0  0  0  0  0
  -17.4215  -26.6671   21.4026 H   0  0  0  0  0  0
  -18.0346  -26.0083   22.9022 H   0  0  0  0  0  0
  -19.7955  -30.7301   24.2217 H   0  0  0  0  0  0
  -17.5028  -31.6266   24.5163 H   0  0  0  0  0  0
  -15.5368  -30.2972   23.7682 H   0  0  0  0  0  0
  -15.8691  -28.0810   22.7094 H   0  0  0  0  0  0
  -24.5902  -30.7084   25.7702 H   0  0  0  0  0  0
  -24.8865  -32.2952   26.4706 H   0  0  0  0  0  0
  -25.7967  -30.9011   27.0220 H   0  0  0  0  0  0
  -26.3078  -29.6618   24.1362 H   0  0  0  0  0  0
  -27.3987  -29.7270   25.4989 H   0  0  0  0  0  0
  -27.9005  -30.4136   23.9740 H   0  0  0  0  0  0
  -27.2609  -33.3679   26.1974 H   0  0  0  0  0  0
  -28.3903  -32.6864   25.0367 H   0  0  0  0  0  0
  -28.0650  -31.8547   26.5503 H   0  0  0  0  0  0
  -28.2581  -38.0077   24.7493 H   0  0  0  0  0  0
  -28.1070  -36.2603   24.6318 H   0  0  0  0  0  0
  -27.2279  -37.1444   25.8868 H   0  0  0  0  0  0
  -20.9510  -29.8743   21.6731 H   0  0  0  0  0  0
  -26.0142  -38.2784   24.1404 H   0  0  0  0  0  0
  -28.9124  -22.0161   18.0646 H   0  0  0  0  0  0
  -31.3201  -19.8614   20.3061 H   0  0  0  0  0  0
  -30.4927  -19.3350   21.7261 H   0  0  0  0  0  0
  -28.0793  -18.7580   21.6319 H   0  0  0  0  0  0
  -27.2290  -18.8098   20.1362 H   0  0  0  0  0  0
  -31.8287  -17.4743   20.8492 H   0  0  0  0  0  0
  -31.2281  -17.6652   19.2412 H   0  0  0  0  0  0
  -28.3122  -16.8059   19.2643 H   0  0  0  0  0  0
  -27.9390  -16.4346   20.9136 H   0  0  0  0  0  0
  -29.2295  -19.7281   18.9975 H   0  0  0  0  0  0
  -27.3920  -25.0302   22.7388 H   0  0  0  0  0  0
  -29.0816  -24.6606   23.0960 H   0  0  0  0  0  0
  -27.8161  -23.4856   23.4756 H   0  0  0  0  0  0
  1 25  1  0  0  0
  1 30  2  0  0  0
  1 83  1  0  0  0
  2  3  1  0  0  0
  2 25  1  0  0  0
  2 84  1  0  0  0
  2 85  1  0  0  0
  3  4  1  0  0  0
  3 86  1  0  0  0
  3 87  1  0  0  0
  4  5  1  0  0  0
  4 88  1  0  0  0
  4 89  1  0  0  0
  5  6  1  0  0  0
  5 26  1  0  0  0
  5 90  1  0  0  0
  6 25  1  0  0  0
  6 91  1  0  0  0
  6 92  1  0  0  0
  7  8  2  0  0  0
  7 26  1  0  0  0
  7 29  1  0  0  0
  8  9  1  0  0  0
  8 22  1  0  0  0
  9 10  1  0  0  0
  9 27  2  0  0  0
 10 11  2  0  0  0
 10 15  1  0  0  0
 11 12  1  0  0  0
 11 93  1  0  0  0
 12 13  2  0  0  0
 12 94  1  0  0  0
 13 14  1  0  0  0
 13 31  1  0  0  0
 14 15  2  0  0  0
 14 95  1  0  0  0
 15 96  1  0  0  0
 16 17  2  0  0  0
 16 21  1  0  0  0
 16 31  1  0  0  0
 17 18  1  0  0  0
 17 97  1  0  0  0
 18 19  2  0  0  0
 18 98  1  0  0  0
 19 20  1  0  0  0
 19 24  1  0  0  0
 20 21  2  0  0  0
 20 99  1  0  0  0
 21 23  1  0  0  0
 22 28  1  0  0  0
 22 32  2  0  0  0
 26 27  1  0  0  0
 28100  1  0  0  0
 28101  1  0  0  0
 29102  1  0  0  0
 29103  1  0  0  0
 33 34  1  0  0  0
 33 66  1  0  0  0
 33 70  2  0  0  0
 34 36  1  0  0  0
 34 59  1  0  0  0
 34104  1  0  0  0
 35 44  2  0  0  0
 35 45  1  0  0  0
 35 68  1  0  0  0
 36 56  1  0  0  0
 36105  1  0  0  0
 37 39  1  0  0  0
 37 47  1  0  0  0
 37 66  1  0  0  0
 37106  1  0  0  0
 38 43  2  0  0  0
 38 46  1  0  0  0
 38 47  1  0  0  0
 39 64  1  0  0  0
 39 67  2  0  0  0
 40 52  1  0  0  0
 40 53  2  0  0  0
 40 58  1  0  0  0
 41107  1  0  0  0
 41108  1  0  0  0
 41109  1  0  0  0
 41 48  1  0  0  0
 42 43  1  0  0  0
 42 66  1  0  0  0
 42110  1  0  0  0
 42111  1  0  0  0
 43 44  1  0  0  0
 44112  1  0  0  0
 45 46  2  0  0  0
 45113  1  0  0  0
 46114  1  0  0  0
 47115  1  0  0  0
 47116  1  0  0  0
 48 56  1  0  0  0
 48 65  1  0  0  0
 48117  1  0  0  0
 49 50  1  0  0  0
 49 53  1  0  0  0
 49 64  1  0  0  0
 49118  1  0  0  0
 50 51  1  0  0  0
 50119  1  0  0  0
 50120  1  0  0  0
 51 52  1  0  0  0
 51121  1  0  0  0
 51122  1  0  0  0
 52123  1  0  0  0
 52124  1  0  0  0
 53 54  1  0  0  0
 54 55  2  0  0  0
 54125  1  0  0  0
 55 57  1  0  0  0
 55126  1  0  0  0
 56 69  2  0  0  0
 57 58  2  0  0  0
 57127  1  0  0  0
 58128  1  0  0  0
 59 60  1  0  0  0
 59 61  1  0  0  0
 59 62  1  0  0  0
 60129  1  0  0  0
 60130  1  0  0  0
 60131  1  0  0  0
 61132  1  0  0  0
 61133  1  0  0  0
 61134  1  0  0  0
 62135  1  0  0  0
 62136  1  0  0  0
 62137  1  0  0  0
 63 65  1  0  0  0
 63138  1  0  0  0
 63139  1  0  0  0
 63140  1  0  0  0
 64141  1  0  0  0
 65142  1  0  0  0
 68 74  1  0  0  0
 71 72  2  0  0  0
 71 81  1  0  0  0
 71143  1  0  0  0
 72 82  1  0  0  0
 72 79  1  0  0  0
 73 74  1  0  0  0
 73 80  1  0  0  0
 73 82  2  0  0  0
 74 81  2  0  0  0
 75 77  1  0  0  0
 75 79  1  0  0  0
 75144  1  0  0  0
 75145  1  0  0  0
 76 78  1  0  0  0
 76 79  1  0  0  0
 76146  1  0  0  0
 76147  1  0  0  0
 77 83  1  0  0  0
 77148  1  0  0  0
 77149  1  0  0  0
 78 83  1  0  0  0
 78150  1  0  0  0
 78151  1  0  0  0
 79152  1  0  0  0
 80153  1  0  0  0
 80154  1  0  0  0
 80155  1  0  0  0
M  ISO  4   1 100  68 101  74 101  83 100
M  END
> <chiral flag>
0

> <version>
0

> <s_m_source_file>
/data/baiqing/PycharmProjects/Reinvent-master-3.2/result/LINK_invent/BTK/process_docking_weight1_custom_sum_contain_oxygen_bond_distance_aromatic_linkinvent_7_9_3/rearranged_h_0181.sdf

> <i_m_source_file_index>
89

> <r_mmod_Potential_Energy-OPLS-2005>
1021.21075439453

> <r_mmod_Stretch_Energy-OPLS-2005>
324.917510986328

> <r_mmod_Bend_Energy-OPLS-2005>
385.811370849609

> <r_mmod_Torsional_Energy-OPLS-2005>
304.0107421875

> <r_mmod_Improper_Torsional_Energy-OPLS-2005>
6.87330865859985

> <r_mmod_Van_der_Waal_Energy-OPLS-2005>
129.980072021484

> <r_mmod_Electrostatic_Energy-OPLS-2005>
-212.825729370117

> <r_mmod_Solvation_Energy-OPLS-2005>
-213.756164550781

> <b_mmod_Minimization_Converged-OPLS-2005>
0

> <r_mmod_RMS_Derivative-OPLS-2005>
0.74029141664505

$$$$
89
                    3D
 Structure written by MMmdl.
154162  0  0  1  0            999 V2000
  -30.4100  -15.3382   20.3549 C   0  0  0  0  0  0
  -30.4375  -12.8630   19.5198 C   0  0  0  0  0  0
  -29.5359  -12.5868   18.2893 C   0  0  0  0  0  0
  -28.0895  -12.2948   18.7243 C   0  0  0  0  0  0
  -27.6063  -13.2801   19.8167 C   0  0  2  0  0  0
  -28.6398  -13.4900   20.9439 C   0  0  0  0  0  0
  -25.2368  -13.8249   20.5760 C   0  0  0  0  0  0
  -24.1729  -13.0432   20.9270 C   0  0  0  0  0  0
  -24.6393  -11.6932   20.8766 C   0  0  0  0  0  0
  -23.9095  -10.4289   21.0404 C   0  0  0  0  0  0
  -24.3635   -9.4203   21.9185 C   0  0  0  0  0  0
  -23.6302   -8.2244   22.0753 C   0  0  0  0  0  0
  -22.4285   -8.0282   21.3541 C   0  0  0  0  0  0
  -21.9924   -9.0256   20.4645 C   0  0  0  0  0  0
  -22.7260  -10.2133   20.3054 C   0  0  0  0  0  0
  -21.6858   -6.0737   22.5275 C   0  0  0  0  0  0
  -21.4015   -6.5638   23.8208 C   0  0  0  0  0  0
  -21.3659   -5.6792   24.9169 C   0  0  0  0  0  0
  -21.6045   -4.3054   24.7222 C   0  0  0  0  0  0
  -21.8819   -3.8144   23.4342 C   0  0  0  0  0  0
  -21.9192   -4.6964   22.3399 C   0  0  0  0  0  0
  -22.7747  -13.5181   21.1915 C   0  0  0  0  0  0
  -22.1662   -4.2148   21.0979 F   0  0  0  0  0  0
  -21.5628   -3.4537   25.7736 F   0  0  0  0  0  0
  -29.8577  -14.0189   20.3036 N   0  0  0  0  0  0
  -26.2797  -12.9533   20.3212 N   0  0  0  0  0  0
  -25.9331  -11.6633   20.5717 N   0  0  0  0  0  0
  -22.0409  -12.8159   22.0470 N   0  0  0  0  0  0
  -25.3976  -15.1987   20.4191 N   0  0  0  0  0  0
  -31.6395  -15.3281   20.1914 O   0  0  0  0  0  0
  -21.6642   -6.8882   21.4239 O   0  0  0  0  0  0
  -22.3423  -14.5483   20.6761 O   0  0  0  0  0  0
  -24.6675  -31.8185   23.1661 C   0  0  0  0  0  0
  -25.9328  -32.4563   23.8145 C   0  0  1  0  0  0
  -27.2245  -26.8832   20.1927 C   0  0  0  0  0  0
  -25.5970  -33.8379   24.2043 N   0  0  0  0  0  0
  -23.4845  -30.4281   21.5169 C   0  0  2  0  0  0
  -24.9380  -28.8014   20.1185 C   0  0  0  0  0  0
  -22.7686  -29.4416   22.4774 C   0  0  0  0  0  0
  -18.0323  -28.1424   22.8457 C   0  0  0  0  0  0
  -24.1490  -36.7197   23.2653 C   0  0  0  0  0  0
  -26.0565  -30.6114   21.4014 C   0  0  0  0  0  0
  -26.1251  -29.1950   20.7494 C   0  0  0  0  0  0
  -27.2623  -28.2601   20.7548 C   0  0  0  0  0  0
  -26.0040  -26.6499   19.5186 C   0  0  0  0  0  0
  -24.9051  -27.5495   19.4821 C   0  0  0  0  0  0
  -23.7271  -29.7362   20.1468 C   0  0  0  0  0  0
  -25.4133  -36.2953   24.0301 C   0  0  1  0  0  0
  -20.5951  -28.3763   23.1184 C   0  0  2  0  0  0
  -20.6800  -26.9438   22.5410 C   0  0  0  0  0  0
  -19.5776  -26.6379   21.5221 C   0  0  0  0  0  0
  -18.1954  -26.7953   22.1622 C   0  0  0  0  0  0
  -19.1587  -28.8914   23.2803 C   0  0  0  0  0  0
  -18.9505  -30.1502   23.8840 C   0  0  0  0  0  0
  -17.6499  -30.6609   24.0554 C   0  0  0  0  0  0
  -25.9105  -34.9339   23.5001 C   0  0  0  0  0  0
  -16.5383  -29.9094   23.6353 C   0  0  0  0  0  0
  -16.7306  -28.6521   23.0357 C   0  0  0  0  0  0
  -26.4562  -31.6532   25.0698 C   0  0  0  0  0  0
  -25.3671  -31.3801   26.1345 C   0  0  0  0  0  0
  -27.0476  -30.2892   24.6474 C   0  0  0  0  0  0
  -27.6041  -32.4359   25.7505 C   0  0  0  0  0  0
  -27.5565  -37.1751   24.8467 C   0  0  0  0  0  0
  -21.4352  -29.3041   22.3526 N   0  0  0  0  0  0
  -26.4271  -37.3695   23.9414 N   0  0  0  0  0  0
  -24.7583  -30.9802   22.0820 N   0  0  0  0  0  0
  -23.4208  -28.7984   23.3031 O   0  0  0  0  0  0
  -28.2409  -25.7740   20.2169 O   0  0  0  0  0  0
  -26.5729  -34.8881   22.4606 O   0  0  0  0  0  0
  -23.5736  -32.1177   23.6726 O   0  0  0  0  0  0
  -29.0414  -19.6744   19.7686 C   0  0  0  0  0  0
  -29.9402  -20.5773   21.5877 C   0  0  0  0  0  0
  -29.8288  -18.3043   20.4241 C   0  0  1  0  0  0
  -30.0069  -18.9809   21.8114 C   0  0  0  0  0  0
  -28.8509  -18.5638   22.7446 C   0  0  0  0  0  0
  -31.3443  -18.5763   22.4576 C   0  0  0  0  0  0
  -29.0216  -22.6252   19.9775 C   0  0  0  0  0  0
  -28.0357  -24.1163   20.3692 C   0  0  0  0  0  0
  -29.1125  -20.9803   20.4187 N   0  0  0  0  0  0
  -29.6322  -16.6171   20.3887 N   0  0  0  0  0  0
  -28.4667  -19.5455   18.6855 O   0  0  0  0  0  0
  -31.4496  -13.0847   19.1784 H   0  0  0  0  0  0
  -30.5278  -11.9729   20.1447 H   0  0  0  0  0  0
  -29.9301  -11.7528   17.7069 H   0  0  0  0  0  0
  -29.5485  -13.4554   17.6291 H   0  0  0  0  0  0
  -28.0620  -11.2769   19.1144 H   0  0  0  0  0  0
  -27.4183  -12.3120   17.8647 H   0  0  0  0  0  0
  -27.5084  -14.2362   19.3012 H   0  0  0  0  0  0
  -28.8289  -12.5674   21.4945 H   0  0  0  0  0  0
  -28.2666  -14.2151   21.6693 H   0  0  0  0  0  0
  -25.2776   -9.5679   22.4763 H   0  0  0  0  0  0
  -24.0004   -7.4635   22.7475 H   0  0  0  0  0  0
  -21.0855   -8.8783   19.8951 H   0  0  0  0  0  0
  -22.3719  -10.9675   19.6165 H   0  0  0  0  0  0
  -21.2010   -7.6147   23.9712 H   0  0  0  0  0  0
  -21.1480   -6.0521   25.9073 H   0  0  0  0  0  0
  -22.0600   -2.7607   23.2843 H   0  0  0  0  0  0
  -22.4045  -11.9825   22.4854 H   0  0  0  0  0  0
  -21.1021  -13.1159   22.2686 H   0  0  0  0  0  0
  -24.6232  -15.8439   20.5315 H   0  0  0  0  0  0
  -26.2312  -15.6427   20.0587 H   0  0  0  0  0  0
  -26.7403  -32.5083   23.0862 H   0  0  0  0  0  0
  -25.0045  -33.9445   25.0145 H   0  0  0  0  0  0
  -22.8003  -31.2610   21.3395 H   0  0  0  0  0  0
  -23.3768  -35.9512   23.3286 H   0  0  0  0  0  0
  -24.3558  -36.8877   22.2072 H   0  0  0  0  0  0
  -23.7232  -37.6368   23.6732 H   0  0  0  0  0  0
  -26.2396  -31.3482   20.6183 H   0  0  0  0  0  0
  -26.9160  -30.6717   22.0579 H   0  0  0  0  0  0
  -28.1651  -28.5651   21.2658 H   0  0  0  0  0  0
  -25.8722  -25.6981   19.0252 H   0  0  0  0  0  0
  -24.0038  -27.2409   18.9697 H   0  0  0  0  0  0
  -23.8885  -30.5013   19.3870 H   0  0  0  0  0  0
  -22.8350  -29.1943   19.8271 H   0  0  0  0  0  0
  -25.1327  -36.1747   25.0791 H   0  0  0  0  0  0
  -21.0039  -28.3384   24.1309 H   0  0  0  0  0  0
  -20.5695  -26.2375   23.3652 H   0  0  0  0  0  0
  -21.6658  -26.7415   22.1202 H   0  0  0  0  0  0
  -19.6938  -25.6278   21.1280 H   0  0  0  0  0  0
  -19.6728  -27.3165   20.6735 H   0  0  0  0  0  0
  -17.4222  -26.6698   21.4020 H   0  0  0  0  0  0
  -18.0338  -26.0115   22.9042 H   0  0  0  0  0  0
  -19.7983  -30.7328   24.2180 H   0  0  0  0  0  0
  -17.5054  -31.6280   24.5172 H   0  0  0  0  0  0
  -15.5382  -30.2976   23.7722 H   0  0  0  0  0  0
  -15.8704  -28.0825   22.7103 H   0  0  0  0  0  0
  -24.5873  -30.7129   25.7655 H   0  0  0  0  0  0
  -24.8842  -32.3010   26.4626 H   0  0  0  0  0  0
  -25.7891  -30.9064   27.0220 H   0  0  0  0  0  0
  -26.3166  -29.6541   24.1461 H   0  0  0  0  0  0
  -27.3969  -29.7282   25.5154 H   0  0  0  0  0  0
  -27.9110  -30.4057   23.9923 H   0  0  0  0  0  0
  -27.2602  -33.3714   26.1929 H   0  0  0  0  0  0
  -28.3933  -32.6838   25.0395 H   0  0  0  0  0  0
  -28.0618  -31.8590   26.5553 H   0  0  0  0  0  0
  -28.2559  -38.0067   24.7514 H   0  0  0  0  0  0
  -28.1083  -36.2594   24.6294 H   0  0  0  0  0  0
  -27.2280  -37.1389   25.8867 H   0  0  0  0  0  0
  -20.9629  -29.8722   21.6633 H   0  0  0  0  0  0
  -26.0123  -38.2752   24.1430 H   0  0  0  0  0  0
  -30.9468  -20.9606   21.4087 H   0  0  0  0  0  0
  -29.5837  -21.0860   22.4845 H   0  0  0  0  0  0
  -30.7894  -18.3889   19.9143 H   0  0  0  0  0  0
  -27.8780  -18.8363   22.3340 H   0  0  0  0  0  0
  -28.9371  -19.0452   23.7194 H   0  0  0  0  0  0
  -28.8431  -17.4872   22.9170 H   0  0  0  0  0  0
  -32.1928  -18.8548   21.8318 H   0  0  0  0  0  0
  -31.3999  -17.4988   22.6168 H   0  0  0  0  0  0
  -31.4787  -19.0601   23.4250 H   0  0  0  0  0  0
  -30.0348  -22.9554   20.2051 H   0  0  0  0  0  0
  -29.0160  -22.5826   18.8886 H   0  0  0  0  0  0
  -27.8286  -24.0156   21.4348 H   0  0  0  0  0  0
  -27.0699  -23.9248   19.9040 H   0  0  0  0  0  0
  -28.6473  -16.4000   20.4117 H   0  0  0  0  0  0
  1 25  1  0  0  0
  1 30  2  0  0  0
  1 80  1  0  0  0
  2  3  1  0  0  0
  2 25  1  0  0  0
  2 82  1  0  0  0
  2 83  1  0  0  0
  3  4  1  0  0  0
  3 84  1  0  0  0
  3 85  1  0  0  0
  4  5  1  0  0  0
  4 86  1  0  0  0
  4 87  1  0  0  0
  5  6  1  0  0  0
  5 26  1  0  0  0
  5 88  1  0  0  0
  6 25  1  0  0  0
  6 89  1  0  0  0
  6 90  1  0  0  0
  7  8  2  0  0  0
  7 26  1  0  0  0
  7 29  1  0  0  0
  8  9  1  0  0  0
  8 22  1  0  0  0
  9 10  1  0  0  0
  9 27  2  0  0  0
 10 11  2  0  0  0
 10 15  1  0  0  0
 11 12  1  0  0  0
 11 91  1  0  0  0
 12 13  2  0  0  0
 12 92  1  0  0  0
 13 14  1  0  0  0
 13 31  1  0  0  0
 14 15  2  0  0  0
 14 93  1  0  0  0
 15 94  1  0  0  0
 16 17  2  0  0  0
 16 21  1  0  0  0
 16 31  1  0  0  0
 17 18  1  0  0  0
 17 95  1  0  0  0
 18 19  2  0  0  0
 18 96  1  0  0  0
 19 20  1  0  0  0
 19 24  1  0  0  0
 20 21  2  0  0  0
 20 97  1  0  0  0
 21 23  1  0  0  0
 22 28  1  0  0  0
 22 32  2  0  0  0
 26 27  1  0  0  0
 28 98  1  0  0  0
 28 99  1  0  0  0
 29100  1  0  0  0
 29101  1  0  0  0
 33 34  1  0  0  0
 33 66  1  0  0  0
 33 70  2  0  0  0
 34 36  1  0  0  0
 34 59  1  0  0  0
 34102  1  0  0  0
 35 44  2  0  0  0
 35 45  1  0  0  0
 35 68  1  0  0  0
 36 56  1  0  0  0
 36103  1  0  0  0
 37 39  1  0  0  0
 37 47  1  0  0  0
 37 66  1  0  0  0
 37104  1  0  0  0
 38 43  2  0  0  0
 38 46  1  0  0  0
 38 47  1  0  0  0
 39 64  1  0  0  0
 39 67  2  0  0  0
 40 52  1  0  0  0
 40 53  2  0  0  0
 40 58  1  0  0  0
 41105  1  0  0  0
 41106  1  0  0  0
 41107  1  0  0  0
 41 48  1  0  0  0
 42 43  1  0  0  0
 42 66  1  0  0  0
 42108  1  0  0  0
 42109  1  0  0  0
 43 44  1  0  0  0
 44110  1  0  0  0
 45 46  2  0  0  0
 45111  1  0  0  0
 46112  1  0  0  0
 47113  1  0  0  0
 47114  1  0  0  0
 48 56  1  0  0  0
 48 65  1  0  0  0
 48115  1  0  0  0
 49 50  1  0  0  0
 49 53  1  0  0  0
 49 64  1  0  0  0
 49116  1  0  0  0
 50 51  1  0  0  0
 50117  1  0  0  0
 50118  1  0  0  0
 51 52  1  0  0  0
 51119  1  0  0  0
 51120  1  0  0  0
 52121  1  0  0  0
 52122  1  0  0  0
 53 54  1  0  0  0
 54 55  2  0  0  0
 54123  1  0  0  0
 55 57  1  0  0  0
 55124  1  0  0  0
 56 69  2  0  0  0
 57 58  2  0  0  0
 57125  1  0  0  0
 58126  1  0  0  0
 59 60  1  0  0  0
 59 61  1  0  0  0
 59 62  1  0  0  0
 60127  1  0  0  0
 60128  1  0  0  0
 60129  1  0  0  0
 61130  1  0  0  0
 61131  1  0  0  0
 61132  1  0  0  0
 62133  1  0  0  0
 62134  1  0  0  0
 62135  1  0  0  0
 63 65  1  0  0  0
 63136  1  0  0  0
 63137  1  0  0  0
 63138  1  0  0  0
 64139  1  0  0  0
 65140  1  0  0  0
 68 78  1  0  0  0
 71 73  1  0  0  0
 71 79  1  0  0  0
 71 81  2  0  0  0
 72 74  1  0  0  0
 72 79  1  0  0  0
 72141  1  0  0  0
 72142  1  0  0  0
 73 74  1  0  0  0
 73 80  1  0  0  0
 73143  1  0  0  0
 74 75  1  0  0  0
 74 76  1  0  0  0
 75144  1  0  0  0
 75145  1  0  0  0
 75146  1  0  0  0
 76147  1  0  0  0
 76148  1  0  0  0
 76149  1  0  0  0
 77 78  1  0  0  0
 77 79  1  0  0  0
 77150  1  0  0  0
 77151  1  0  0  0
 78152  1  0  0  0
 78153  1  0  0  0
 80154  1  0  0  0
M  ISO  4   1 100  68 101  78 101  80 100
M  END
> <chiral flag>
0

> <version>
0

> <s_m_source_file>
/data/baiqing/PycharmProjects/Reinvent-master-3.2/result/LINK_invent/BTK/process_docking_weight1_custom_sum_contain_oxygen_bond_distance_aromatic_linkinvent_7_9_3/rearranged_h_0181.sdf

> <i_m_source_file_index>
90

> <r_mmod_Potential_Energy-OPLS-2005>
1407.513671875

> <r_mmod_Stretch_Energy-OPLS-2005>
647.997436523438

> <r_mmod_Bend_Energy-OPLS-2005>
531.305786132812

> <r_mmod_Torsional_Energy-OPLS-2005>
257.164123535156

> <r_mmod_Improper_Torsional_Energy-OPLS-2005>
5.96644401550293

> <r_mmod_Van_der_Waal_Energy-OPLS-2005>
103.031532287598

> <r_mmod_Electrostatic_Energy-OPLS-2005>
-430.940826416016

> <r_mmod_Solvation_Energy-OPLS-2005>
-236.506072998047

> <b_mmod_Minimization_Converged-OPLS-2005>
0

> <r_mmod_RMS_Derivative-OPLS-2005>
1.05752336978912

$$$$
90
                    3D
 Structure written by MMmdl.
163172  0  0  1  0            999 V2000
  -30.6110  -14.7873   20.4547 C   0  0  0  0  0  0
  -30.4241  -12.4802   19.4844 C   0  0  0  0  0  0
  -29.5154  -12.5385   18.2375 C   0  0  0  0  0  0
  -28.0355  -12.3595   18.6370 C   0  0  0  0  0  0
  -27.6399  -13.2386   19.8555 C   0  0  2  0  0  0
  -28.6866  -13.1619   20.9902 C   0  0  0  0  0  0
  -25.2472  -13.8172   20.5628 C   0  0  0  0  0  0
  -24.1787  -13.0419   20.9182 C   0  0  0  0  0  0
  -24.6390  -11.6914   20.8747 C   0  0  0  0  0  0
  -23.9062  -10.4303   21.0378 C   0  0  0  0  0  0
  -24.3607   -9.4234   21.9160 C   0  0  0  0  0  0
  -23.6298   -8.2259   22.0738 C   0  0  0  0  0  0
  -22.4295   -8.0299   21.3536 C   0  0  0  0  0  0
  -21.9921   -9.0268   20.4631 C   0  0  0  0  0  0
  -22.7236  -10.2153   20.3017 C   0  0  0  0  0  0
  -21.6834   -6.0766   22.5283 C   0  0  0  0  0  0
  -21.4003   -6.5651   23.8223 C   0  0  0  0  0  0
  -21.3666   -5.6793   24.9185 C   0  0  0  0  0  0
  -21.6068   -4.3056   24.7201 C   0  0  0  0  0  0
  -21.8814   -3.8160   23.4315 C   0  0  0  0  0  0
  -21.9179   -4.6990   22.3386 C   0  0  0  0  0  0
  -22.7831  -13.5248   21.1807 C   0  0  0  0  0  0
  -22.1616   -4.2183   21.0969 F   0  0  0  0  0  0
  -21.5664   -3.4537   25.7709 F   0  0  0  0  0  0
  -29.9742  -13.5569   20.4040 N   0  0  0  0  0  0
  -26.2946  -12.9402   20.3301 N   0  0  0  0  0  0
  -25.9340  -11.6535   20.5789 N   0  0  0  0  0  0
  -22.0455  -12.8275   22.0377 N   0  0  0  0  0  0
  -25.4066  -15.1877   20.3956 N   0  0  0  0  0  0
  -31.7961  -14.8381   20.1066 O   0  0  0  0  0  0
  -21.6621   -6.8916   21.4260 O   0  0  0  0  0  0
  -22.3554  -14.5582   20.6678 O   0  0  0  0  0  0
  -24.6335  -31.8511   23.1945 C   0  0  0  0  0  0
  -25.9149  -32.4714   23.8315 C   0  0  1  0  0  0
  -27.2171  -27.2357   20.1122 C   0  0  0  0  0  0
  -25.5944  -33.8522   24.2231 N   0  0  0  0  0  0
  -23.4309  -30.4690   21.5418 C   0  0  2  0  0  0
  -24.8777  -28.9129   20.1010 C   0  0  0  0  0  0
  -22.7523  -29.4558   22.4938 C   0  0  0  0  0  0
  -18.0293  -28.1380   22.8503 C   0  0  0  0  0  0
  -24.1483  -36.7255   23.2640 C   0  0  0  0  0  0
  -25.9765  -30.7495   21.3777 C   0  0  0  0  0  0
  -26.0470  -29.3721   20.7176 C   0  0  0  0  0  0
  -27.2130  -28.5409   20.7199 C   0  0  0  0  0  0
  -26.0252  -26.8453   19.4688 C   0  0  0  0  0  0
  -24.8752  -27.6618   19.4638 C   0  0  0  0  0  0
  -23.6445  -29.7958   20.1619 C   0  0  0  0  0  0
  -25.4115  -36.3040   24.0322 C   0  0  1  0  0  0
  -20.5891  -28.3670   23.1327 C   0  0  2  0  0  0
  -20.6766  -26.9403   22.5444 C   0  0  0  0  0  0
  -19.5737  -26.6371   21.5251 C   0  0  0  0  0  0
  -18.1920  -26.7928   22.1653 C   0  0  0  0  0  0
  -19.1544  -28.8859   23.2887 C   0  0  0  0  0  0
  -18.9435  -30.1470   23.8881 C   0  0  0  0  0  0
  -17.6421  -30.6573   24.0576 C   0  0  0  0  0  0
  -25.9071  -34.9406   23.5090 C   0  0  0  0  0  0
  -16.5319  -29.9067   23.6335 C   0  0  0  0  0  0
  -16.7275  -28.6494   23.0347 C   0  0  0  0  0  0
  -26.4496  -31.6564   25.0720 C   0  0  0  0  0  0
  -25.3684  -31.3704   26.1401 C   0  0  0  0  0  0
  -27.0324  -30.2987   24.6210 C   0  0  0  0  0  0
  -27.6059  -32.4292   25.7478 C   0  0  0  0  0  0
  -27.5564  -37.1795   24.8444 C   0  0  0  0  0  0
  -21.4221  -29.3017   22.3688 N   0  0  0  0  0  0
  -26.4273  -37.3761   23.9399 N   0  0  0  0  0  0
  -24.6997  -31.0428   22.0944 N   0  0  0  0  0  0
  -23.4213  -28.8086   23.3047 O   0  0  0  0  0  0
  -28.3105  -26.3429   20.2183 O   0  0  0  0  0  0
  -26.5642  -34.8883   22.4667 O   0  0  0  0  0  0
  -23.5483  -32.1343   23.7215 O   0  0  0  0  0  0
  -29.1435  -22.4867   20.0218 C   0  0  0  0  0  0
  -28.1804  -23.5694   19.9324 C   0  0  0  0  0  0
  -28.7125  -21.1129   20.1526 C   0  0  0  0  0  0
  -26.5524  -21.9270   20.0994 C   0  0  0  0  0  0
  -28.8195  -17.9102   21.6543 C   0  0  0  0  0  0
  -28.8871  -16.3567   21.5440 C   0  0  0  0  0  0
  -30.2344  -17.3194   19.8770 C   0  0  0  0  0  0
  -29.1812  -18.4641   20.2727 C   0  0  2  0  0  0
  -24.6169  -20.4326   20.8657 C   0  0  0  0  0  0
  -24.6534  -21.3675   18.4973 C   0  0  0  0  0  0
  -28.4788  -25.0690   19.4246 C   0  0  0  0  0  0
  -25.0631  -21.5980   19.9635 C   0  0  0  0  0  0
  -26.8770  -23.2188   19.9869 N   0  0  0  0  0  0
  -27.3936  -20.8873   20.1603 N   0  0  0  0  0  0
  -29.8733  -15.9866   20.5149 N   0  0  0  0  0  0
  -29.5739  -19.9425   20.2370 N   0  0  0  0  0  0
  -31.4706  -12.5816   19.1976 H   0  0  0  0  0  0
  -30.3498  -11.5061   19.9704 H   0  0  0  0  0  0
  -29.8155  -11.7736   17.5193 H   0  0  0  0  0  0
  -29.6485  -13.5000   17.7366 H   0  0  0  0  0  0
  -27.8811  -11.3075   18.8775 H   0  0  0  0  0  0
  -27.3867  -12.5779   17.7832 H   0  0  0  0  0  0
  -27.6356  -14.2675   19.4977 H   0  0  0  0  0  0
  -28.7441  -12.1523   21.3972 H   0  0  0  0  0  0
  -28.4124  -13.7962   21.8315 H   0  0  0  0  0  0
  -25.2716   -9.5745   22.4767 H   0  0  0  0  0  0
  -24.0039   -7.4667   22.7456 H   0  0  0  0  0  0
  -21.0858   -8.8786   19.8934 H   0  0  0  0  0  0
  -22.3671  -10.9719   19.6139 H   0  0  0  0  0  0
  -21.1960   -7.6155   23.9760 H   0  0  0  0  0  0
  -21.1494   -6.0479   25.9091 H   0  0  0  0  0  0
  -22.0581   -2.7618   23.2767 H   0  0  0  0  0  0
  -22.4047  -11.9915   22.4728 H   0  0  0  0  0  0
  -21.1092  -13.1356   22.2558 H   0  0  0  0  0  0
  -24.6347  -15.8329   20.5235 H   0  0  0  0  0  0
  -26.2436  -15.6307   20.0413 H   0  0  0  0  0  0
  -26.7214  -32.5335   23.1038 H   0  0  0  0  0  0
  -25.0054  -33.9660   25.0354 H   0  0  0  0  0  0
  -22.7280  -31.2908   21.3942 H   0  0  0  0  0  0
  -23.3750  -35.9587   23.3260 H   0  0  0  0  0  0
  -24.3605  -36.8928   22.2070 H   0  0  0  0  0  0
  -23.7192  -37.6434   23.6684 H   0  0  0  0  0  0
  -26.1198  -31.5068   20.6056 H   0  0  0  0  0  0
  -26.8546  -30.8011   22.0116 H   0  0  0  0  0  0
  -28.0978  -28.8809   21.2375 H   0  0  0  0  0  0
  -25.9421  -25.8707   19.0054 H   0  0  0  0  0  0
  -23.9771  -27.3026   18.9812 H   0  0  0  0  0  0
  -23.7549  -30.5654   19.3995 H   0  0  0  0  0  0
  -22.7623  -29.2208   19.8700 H   0  0  0  0  0  0
  -25.1312  -36.1875   25.0818 H   0  0  0  0  0  0
  -21.0026  -28.3208   24.1421 H   0  0  0  0  0  0
  -20.5694  -26.2267   23.3636 H   0  0  0  0  0  0
  -21.6618  -26.7417   22.1203 H   0  0  0  0  0  0
  -19.6896  -25.6289   21.1265 H   0  0  0  0  0  0
  -19.6683  -27.3202   20.6814 H   0  0  0  0  0  0
  -17.4223  -26.6711   21.4020 H   0  0  0  0  0  0
  -18.0271  -26.0042   22.9018 H   0  0  0  0  0  0
  -19.7895  -30.7324   24.2221 H   0  0  0  0  0  0
  -17.4943  -31.6245   24.5182 H   0  0  0  0  0  0
  -15.5314  -30.2939   23.7672 H   0  0  0  0  0  0
  -15.8661  -28.0804   22.7059 H   0  0  0  0  0  0
  -24.5901  -30.7022   25.7667 H   0  0  0  0  0  0
  -24.8809  -32.2858   26.4785 H   0  0  0  0  0  0
  -25.7974  -30.8881   27.0200 H   0  0  0  0  0  0
  -26.2910  -29.6732   24.1224 H   0  0  0  0  0  0
  -27.3972  -29.7245   25.4737 H   0  0  0  0  0  0
  -27.8799  -30.4230   23.9460 H   0  0  0  0  0  0
  -27.2731  -33.3636   26.2018 H   0  0  0  0  0  0
  -28.3910  -32.6805   25.0315 H   0  0  0  0  0  0
  -28.0690  -31.8420   26.5428 H   0  0  0  0  0  0
  -28.2574  -38.0105   24.7568 H   0  0  0  0  0  0
  -28.1088  -36.2662   24.6201 H   0  0  0  0  0  0
  -27.2310  -37.1339   25.8852 H   0  0  0  0  0  0
  -20.9400  -29.8744   21.6890 H   0  0  0  0  0  0
  -26.0127  -38.2829   24.1428 H   0  0  0  0  0  0
  -30.1967  -22.7133   19.9331 H   0  0  0  0  0  0
  -29.5596  -18.2434   22.3845 H   0  0  0  0  0  0
  -27.8443  -18.2542   22.0056 H   0  0  0  0  0  0
  -27.9094  -15.9825   21.2434 H   0  0  0  0  0  0
  -29.1289  -15.9067   22.5079 H   0  0  0  0  0  0
  -31.2359  -17.5918   20.2156 H   0  0  0  0  0  0
  -30.2929  -17.2018   18.7929 H   0  0  0  0  0  0
  -28.3099  -18.3438   19.6262 H   0  0  0  0  0  0
  -24.9062  -20.6164   21.8991 H   0  0  0  0  0  0
  -25.0675  -19.4927   20.5423 H   0  0  0  0  0  0
  -23.5345  -20.3061   20.8339 H   0  0  0  0  0  0
  -24.8548  -22.2509   17.8917 H   0  0  0  0  0  0
  -23.5853  -21.1521   18.4144 H   0  0  0  0  0  0
  -25.1969  -20.5299   18.0628 H   0  0  0  0  0  0
  -27.9542  -25.1859   18.4756 H   0  0  0  0  0  0
  -29.5278  -25.0615   19.1256 H   0  0  0  0  0  0
  -24.5172  -22.4756   20.3144 H   0  0  0  0  0  0
  -30.5698  -20.1395   20.2723 H   0  0  0  0  0  0
  1 25  1  0  0  0
  1 30  2  0  0  0
  1 85  1  0  0  0
  2  3  1  0  0  0
  2 25  1  0  0  0
  2 87  1  0  0  0
  2 88  1  0  0  0
  3  4  1  0  0  0
  3 89  1  0  0  0
  3 90  1  0  0  0
  4  5  1  0  0  0
  4 91  1  0  0  0
  4 92  1  0  0  0
  5  6  1  0  0  0
  5 26  1  0  0  0
  5 93  1  0  0  0
  6 25  1  0  0  0
  6 94  1  0  0  0
  6 95  1  0  0  0
  7  8  2  0  0  0
  7 26  1  0  0  0
  7 29  1  0  0  0
  8  9  1  0  0  0
  8 22  1  0  0  0
  9 10  1  0  0  0
  9 27  2  0  0  0
 10 11  2  0  0  0
 10 15  1  0  0  0
 11 12  1  0  0  0
 11 96  1  0  0  0
 12 13  2  0  0  0
 12 97  1  0  0  0
 13 14  1  0  0  0
 13 31  1  0  0  0
 14 15  2  0  0  0
 14 98  1  0  0  0
 15 99  1  0  0  0
 16 17  2  0  0  0
 16 21  1  0  0  0
 16 31  1  0  0  0
 17 18  1  0  0  0
 17100  1  0  0  0
 18 19  2  0  0  0
 18101  1  0  0  0
 19 20  1  0  0  0
 19 24  1  0  0  0
 20 21  2  0  0  0
 20102  1  0  0  0
 21 23  1  0  0  0
 22 28  1  0  0  0
 22 32  2  0  0  0
 26 27  1  0  0  0
 28103  1  0  0  0
 28104  1  0  0  0
 29105  1  0  0  0
 29106  1  0  0  0
 33 34  1  0  0  0
 33 66  1  0  0  0
 33 70  2  0  0  0
 34 36  1  0  0  0
 34 59  1  0  0  0
 34107  1  0  0  0
 35 44  2  0  0  0
 35 45  1  0  0  0
 35 68  1  0  0  0
 36 56  1  0  0  0
 36108  1  0  0  0
 37 39  1  0  0  0
 37 47  1  0  0  0
 37 66  1  0  0  0
 37109  1  0  0  0
 38 43  2  0  0  0
 38 46  1  0  0  0
 38 47  1  0  0  0
 39 64  1  0  0  0
 39 67  2  0  0  0
 40 52  1  0  0  0
 40 53  2  0  0  0
 40 58  1  0  0  0
 41110  1  0  0  0
 41111  1  0  0  0
 41112  1  0  0  0
 41 48  1  0  0  0
 42 43  1  0  0  0
 42 66  1  0  0  0
 42113  1  0  0  0
 42114  1  0  0  0
 43 44  1  0  0  0
 44115  1  0  0  0
 45 46  2  0  0  0
 45116  1  0  0  0
 46117  1  0  0  0
 47118  1  0  0  0
 47119  1  0  0  0
 48 56  1  0  0  0
 48 65  1  0  0  0
 48120  1  0  0  0
 49 50  1  0  0  0
 49 53  1  0  0  0
 49 64  1  0  0  0
 49121  1  0  0  0
 50 51  1  0  0  0
 50122  1  0  0  0
 50123  1  0  0  0
 51 52  1  0  0  0
 51124  1  0  0  0
 51125  1  0  0  0
 52126  1  0  0  0
 52127  1  0  0  0
 53 54  1  0  0  0
 54 55  2  0  0  0
 54128  1  0  0  0
 55 57  1  0  0  0
 55129  1  0  0  0
 56 69  2  0  0  0
 57 58  2  0  0  0
 57130  1  0  0  0
 58131  1  0  0  0
 59 60  1  0  0  0
 59 61  1  0  0  0
 59 62  1  0  0  0
 60132  1  0  0  0
 60133  1  0  0  0
 60134  1  0  0  0
 61135  1  0  0  0
 61136  1  0  0  0
 61137  1  0  0  0
 62138  1  0  0  0
 62139  1  0  0  0
 62140  1  0  0  0
 63 65  1  0  0  0
 63141  1  0  0  0
 63142  1  0  0  0
 63143  1  0  0  0
 64144  1  0  0  0
 65145  1  0  0  0
 68 81  1  0  0  0
 71 72  2  0  0  0
 71 73  1  0  0  0
 71146  1  0  0  0
 72 81  1  0  0  0
 72 83  1  0  0  0
 73 84  2  0  0  0
 73 86  1  0  0  0
 74 82  1  0  0  0
 74 83  2  0  0  0
 74 84  1  0  0  0
 75 76  1  0  0  0
 75 78  1  0  0  0
 75147  1  0  0  0
 75148  1  0  0  0
 76 85  1  0  0  0
 76149  1  0  0  0
 76150  1  0  0  0
 77 78  1  0  0  0
 77 85  1  0  0  0
 77151  1  0  0  0
 77152  1  0  0  0
 78 86  1  0  0  0
 78153  1  0  0  0
 79154  1  0  0  0
 79155  1  0  0  0
 79156  1  0  0  0
 79 82  1  0  0  0
 80 82  1  0  0  0
 80157  1  0  0  0
 80158  1  0  0  0
 80159  1  0  0  0
 81160  1  0  0  0
 81161  1  0  0  0
 82162  1  0  0  0
 86163  1  0  0  0
M  ISO  4   1 100  68 101  81 101  85 100
M  END
> <chiral flag>
0

> <version>
0

> <s_m_source_file>
/data/baiqing/PycharmProjects/Reinvent-master-3.2/result/LINK_invent/BTK/process_docking_weight1_custom_sum_contain_oxygen_bond_distance_aromatic_linkinvent_7_9_3/rearranged_h_0181.sdf

> <i_m_source_file_index>
91

> <r_mmod_Potential_Energy-OPLS-2005>
-171.557418823242

> <r_mmod_Stretch_Energy-OPLS-2005>
129.689361572266

> <r_mmod_Bend_Energy-OPLS-2005>
239.598037719727

> <r_mmod_Torsional_Energy-OPLS-2005>
289.875732421875

> <r_mmod_Improper_Torsional_Energy-OPLS-2005>
14.6680994033813

> <r_mmod_Van_der_Waal_Energy-OPLS-2005>
135.221954345703

> <r_mmod_Electrostatic_Energy-OPLS-2005>
-851.638122558594

> <r_mmod_Solvation_Energy-OPLS-2005>
-228.915817260742

> <b_mmod_Minimization_Converged-OPLS-2005>
0

> <r_mmod_RMS_Derivative-OPLS-2005>
5.12462186813354

$$$$
91
                    3D
 Structure written by MMmdl.
150159  0  0  1  0            999 V2000
  -30.6300  -14.7566   20.4617 C   0  0  0  0  0  0
  -30.4288  -12.4649   19.4773 C   0  0  0  0  0  0
  -29.5093  -12.5105   18.2379 C   0  0  0  0  0  0
  -28.0368  -12.3334   18.6531 C   0  0  0  0  0  0
  -27.6410  -13.2383   19.8507 C   0  0  2  0  0  0
  -28.6862  -13.1919   20.9862 C   0  0  0  0  0  0
  -25.2510  -13.8214   20.5719 C   0  0  0  0  0  0
  -24.1798  -13.0449   20.9199 C   0  0  0  0  0  0
  -24.6399  -11.6928   20.8743 C   0  0  0  0  0  0
  -23.9078  -10.4300   21.0403 C   0  0  0  0  0  0
  -24.3626   -9.4213   21.9182 C   0  0  0  0  0  0
  -23.6299   -8.2248   22.0752 C   0  0  0  0  0  0
  -22.4281   -8.0286   21.3543 C   0  0  0  0  0  0
  -21.9918   -9.0260   20.4646 C   0  0  0  0  0  0
  -22.7248  -10.2139   20.3054 C   0  0  0  0  0  0
  -21.6856   -6.0739   22.5279 C   0  0  0  0  0  0
  -21.4016   -6.5642   23.8213 C   0  0  0  0  0  0
  -21.3661   -5.6794   24.9175 C   0  0  0  0  0  0
  -21.6044   -4.3057   24.7224 C   0  0  0  0  0  0
  -21.8819   -3.8149   23.4346 C   0  0  0  0  0  0
  -21.9193   -4.6966   22.3402 C   0  0  0  0  0  0
  -22.7818  -13.5224   21.1863 C   0  0  0  0  0  0
  -22.1660   -4.2151   21.0980 F   0  0  0  0  0  0
  -21.5629   -3.4541   25.7737 F   0  0  0  0  0  0
  -29.9860  -13.5382   20.3995 N   0  0  0  0  0  0
  -26.2942  -12.9433   20.3304 N   0  0  0  0  0  0
  -25.9336  -11.6567   20.5759 N   0  0  0  0  0  0
  -22.0470  -12.8210   22.0421 N   0  0  0  0  0  0
  -25.4218  -15.1939   20.4174 N   0  0  0  0  0  0
  -31.8194  -14.8260   20.1379 O   0  0  0  0  0  0
  -21.6644   -6.8883   21.4241 O   0  0  0  0  0  0
  -22.3498  -14.5529   20.6713 O   0  0  0  0  0  0
  -24.6353  -31.8547   23.1999 C   0  0  0  0  0  0
  -25.9169  -32.4750   23.8346 C   0  0  1  0  0  0
  -27.2080  -27.2299   20.1225 C   0  0  0  0  0  0
  -25.5957  -33.8553   24.2261 N   0  0  0  0  0  0
  -23.4329  -30.4815   21.5444 C   0  0  2  0  0  0
  -24.8789  -28.9360   20.1069 C   0  0  0  0  0  0
  -22.7525  -29.4607   22.4898 C   0  0  0  0  0  0
  -18.0298  -28.1389   22.8485 C   0  0  0  0  0  0
  -24.1493  -36.7278   23.2639 C   0  0  0  0  0  0
  -25.9852  -30.7557   21.3895 C   0  0  0  0  0  0
  -26.0548  -29.3790   20.7259 C   0  0  0  0  0  0
  -27.2212  -28.5382   20.7279 C   0  0  0  0  0  0
  -26.0100  -26.8882   19.4462 C   0  0  0  0  0  0
  -24.8643  -27.6993   19.4553 C   0  0  0  0  0  0
  -23.6525  -29.8256   20.1582 C   0  0  0  0  0  0
  -25.4120  -36.3065   24.0325 C   0  0  1  0  0  0
  -20.5906  -28.3709   23.1252 C   0  0  2  0  0  0
  -20.6786  -26.9422   22.5399 C   0  0  0  0  0  0
  -19.5755  -26.6382   21.5212 C   0  0  0  0  0  0
  -18.1939  -26.7929   22.1630 C   0  0  0  0  0  0
  -19.1553  -28.8866   23.2863 C   0  0  0  0  0  0
  -18.9471  -30.1465   23.8883 C   0  0  0  0  0  0
  -17.6468  -30.6588   24.0561 C   0  0  0  0  0  0
  -25.9064  -34.9435   23.5093 C   0  0  0  0  0  0
  -16.5359  -29.9083   23.6334 C   0  0  0  0  0  0
  -16.7283  -28.6501   23.0356 C   0  0  0  0  0  0
  -26.4516  -31.6580   25.0746 C   0  0  0  0  0  0
  -25.3726  -31.3748   26.1459 C   0  0  0  0  0  0
  -27.0364  -30.2984   24.6272 C   0  0  0  0  0  0
  -27.6069  -32.4324   25.7515 C   0  0  0  0  0  0
  -27.5579  -37.1797   24.8464 C   0  0  0  0  0  0
  -21.4228  -29.3056   22.3640 N   0  0  0  0  0  0
  -26.4291  -37.3768   23.9407 N   0  0  0  0  0  0
  -24.7038  -31.0487   22.0999 N   0  0  0  0  0  0
  -23.4212  -28.8132   23.2997 O   0  0  0  0  0  0
  -28.2569  -26.2651   20.2124 O   0  0  0  0  0  0
  -26.5633  -34.8912   22.4660 O   0  0  0  0  0  0
  -23.5493  -32.1388   23.7269 O   0  0  0  0  0  0
  -28.4885  -21.2800   21.1589 C   0  0  0  0  0  0
  -29.4843  -20.7721   20.2754 C   0  0  0  0  0  0
  -28.6761  -23.4653   20.2700 C   0  0  0  0  0  0
  -29.4748  -16.8791   19.6472 C   0  0  0  0  0  0
  -30.4921  -17.1356   21.3814 C   0  0  0  0  0  0
  -29.4757  -18.0706   20.6577 C   0  0  0  0  0  0
  -27.8810  -24.8220   19.9107 C   0  0  0  0  0  0
  -28.0993  -22.6049   21.1471 N   0  0  0  0  0  0
  -30.0511  -21.7149   19.4554 N   0  0  0  0  0  0
  -29.6496  -23.0217   19.4324 N   0  0  0  0  0  0
  -29.9048  -15.9223   20.7177 N   0  0  0  0  0  0
  -29.9805  -19.4109   20.1473 N   0  0  0  0  0  0
  -31.4705  -12.5805   19.1738 H   0  0  0  0  0  0
  -30.3684  -11.4924   19.9684 H   0  0  0  0  0  0
  -29.7935  -11.7343   17.5262 H   0  0  0  0  0  0
  -29.6342  -13.4628   17.7197 H   0  0  0  0  0  0
  -27.8966  -11.2855   18.9207 H   0  0  0  0  0  0
  -27.3785  -12.5198   17.8038 H   0  0  0  0  0  0
  -27.6303  -14.2574   19.4641 H   0  0  0  0  0  0
  -28.7228  -12.2039   21.4470 H   0  0  0  0  0  0
  -28.4211  -13.8944   21.7781 H   0  0  0  0  0  0
  -25.2771   -9.5690   22.4757 H   0  0  0  0  0  0
  -24.0008   -7.4642   22.7473 H   0  0  0  0  0  0
  -21.0848   -8.8781   19.8953 H   0  0  0  0  0  0
  -22.3705  -10.9679   19.6164 H   0  0  0  0  0  0
  -21.2008   -7.6151   23.9718 H   0  0  0  0  0  0
  -21.1482   -6.0524   25.9078 H   0  0  0  0  0  0
  -22.0596   -2.7611   23.2846 H   0  0  0  0  0  0
  -22.4094  -11.9873   22.4805 H   0  0  0  0  0  0
  -21.1089  -13.1230   22.2636 H   0  0  0  0  0  0
  -24.6618  -15.8540   20.5410 H   0  0  0  0  0  0
  -26.2898  -15.6344   20.1400 H   0  0  0  0  0  0
  -26.7237  -32.5383   23.1085 H   0  0  0  0  0  0
  -25.0102  -33.9690   25.0404 H   0  0  0  0  0  0
  -22.7309  -31.3058   21.4014 H   0  0  0  0  0  0
  -23.3759  -35.9606   23.3293 H   0  0  0  0  0  0
  -24.3586  -36.8910   22.2055 H   0  0  0  0  0  0
  -23.7241  -37.6475   23.6669 H   0  0  0  0  0  0
  -26.1348  -31.5176   20.6231 H   0  0  0  0  0  0
  -26.8590  -30.7984   22.0279 H   0  0  0  0  0  0
  -28.1126  -28.8669   21.2435 H   0  0  0  0  0  0
  -25.8988  -25.9594   18.9093 H   0  0  0  0  0  0
  -23.9692  -27.3599   18.9521 H   0  0  0  0  0  0
  -23.7809  -30.6068   19.4081 H   0  0  0  0  0  0
  -22.7693  -29.2642   19.8479 H   0  0  0  0  0  0
  -25.1302  -36.1912   25.0817 H   0  0  0  0  0  0
  -21.0001  -28.3289   24.1372 H   0  0  0  0  0  0
  -20.5691  -26.2321   23.3611 H   0  0  0  0  0  0
  -21.6651  -26.7443   22.1187 H   0  0  0  0  0  0
  -19.6915  -25.6290   21.1248 H   0  0  0  0  0  0
  -19.6684  -27.3188   20.6738 H   0  0  0  0  0  0
  -17.4204  -26.6672   21.4037 H   0  0  0  0  0  0
  -18.0343  -26.0073   22.9031 H   0  0  0  0  0  0
  -19.7945  -30.7287   24.2245 H   0  0  0  0  0  0
  -17.5020  -31.6268   24.5163 H   0  0  0  0  0  0
  -15.5360  -30.2980   23.7663 H   0  0  0  0  0  0
  -15.8683  -28.0814   22.7080 H   0  0  0  0  0  0
  -24.5883  -30.7123   25.7777 H   0  0  0  0  0  0
  -24.8943  -32.2926   26.4886 H   0  0  0  0  0  0
  -25.8025  -30.8907   27.0236 H   0  0  0  0  0  0
  -26.2963  -29.6724   24.1274 H   0  0  0  0  0  0
  -27.3992  -29.7262   25.4821 H   0  0  0  0  0  0
  -27.8869  -30.4234   23.9568 H   0  0  0  0  0  0
  -27.2680  -33.3637   26.2066 H   0  0  0  0  0  0
  -28.3889  -32.6862   25.0347 H   0  0  0  0  0  0
  -28.0723  -31.8464   26.5450 H   0  0  0  0  0  0
  -28.2593  -38.0098   24.7517 H   0  0  0  0  0  0
  -28.1080  -36.2629   24.6285 H   0  0  0  0  0  0
  -27.2297  -37.1437   25.8867 H   0  0  0  0  0  0
  -20.9416  -29.8793   21.6855 H   0  0  0  0  0  0
  -26.0166  -38.2840   24.1409 H   0  0  0  0  0  0
  -27.9922  -20.6280   21.8623 H   0  0  0  0  0  0
  -30.2041  -16.9827   18.8397 H   0  0  0  0  0  0
  -28.4871  -16.6734   19.2330 H   0  0  0  0  0  0
  -30.3834  -17.1482   22.4667 H   0  0  0  0  0  0
  -31.5329  -17.3267   21.1079 H   0  0  0  0  0  0
  -28.5311  -18.1442   21.2000 H   0  0  0  0  0  0
  -26.9035  -24.6524   20.3638 H   0  0  0  0  0  0
  -27.7269  -24.7660   18.8327 H   0  0  0  0  0  0
  -30.7318  -19.3385   19.4696 H   0  0  0  0  0  0
  1 25  1  0  0  0
  1 30  2  0  0  0
  1 81  1  0  0  0
  2  3  1  0  0  0
  2 25  1  0  0  0
  2 83  1  0  0  0
  2 84  1  0  0  0
  3  4  1  0  0  0
  3 85  1  0  0  0
  3 86  1  0  0  0
  4  5  1  0  0  0
  4 87  1  0  0  0
  4 88  1  0  0  0
  5  6  1  0  0  0
  5 26  1  0  0  0
  5 89  1  0  0  0
  6 25  1  0  0  0
  6 90  1  0  0  0
  6 91  1  0  0  0
  7  8  2  0  0  0
  7 26  1  0  0  0
  7 29  1  0  0  0
  8  9  1  0  0  0
  8 22  1  0  0  0
  9 10  1  0  0  0
  9 27  2  0  0  0
 10 11  2  0  0  0
 10 15  1  0  0  0
 11 12  1  0  0  0
 11 92  1  0  0  0
 12 13  2  0  0  0
 12 93  1  0  0  0
 13 14  1  0  0  0
 13 31  1  0  0  0
 14 15  2  0  0  0
 14 94  1  0  0  0
 15 95  1  0  0  0
 16 17  2  0  0  0
 16 21  1  0  0  0
 16 31  1  0  0  0
 17 18  1  0  0  0
 17 96  1  0  0  0
 18 19  2  0  0  0
 18 97  1  0  0  0
 19 20  1  0  0  0
 19 24  1  0  0  0
 20 21  2  0  0  0
 20 98  1  0  0  0
 21 23  1  0  0  0
 22 28  1  0  0  0
 22 32  2  0  0  0
 26 27  1  0  0  0
 28 99  1  0  0  0
 28100  1  0  0  0
 29101  1  0  0  0
 29102  1  0  0  0
 33 34  1  0  0  0
 33 66  1  0  0  0
 33 70  2  0  0  0
 34 36  1  0  0  0
 34 59  1  0  0  0
 34103  1  0  0  0
 35 44  2  0  0  0
 35 45  1  0  0  0
 35 68  1  0  0  0
 36 56  1  0  0  0
 36104  1  0  0  0
 37 39  1  0  0  0
 37 47  1  0  0  0
 37 66  1  0  0  0
 37105  1  0  0  0
 38 43  2  0  0  0
 38 46  1  0  0  0
 38 47  1  0  0  0
 39 64  1  0  0  0
 39 67  2  0  0  0
 40 52  1  0  0  0
 40 53  2  0  0  0
 40 58  1  0  0  0
 41106  1  0  0  0
 41107  1  0  0  0
 41108  1  0  0  0
 41 48  1  0  0  0
 42 43  1  0  0  0
 42 66  1  0  0  0
 42109  1  0  0  0
 42110  1  0  0  0
 43 44  1  0  0  0
 44111  1  0  0  0
 45 46  2  0  0  0
 45112  1  0  0  0
 46113  1  0  0  0
 47114  1  0  0  0
 47115  1  0  0  0
 48 56  1  0  0  0
 48 65  1  0  0  0
 48116  1  0  0  0
 49 50  1  0  0  0
 49 53  1  0  0  0
 49 64  1  0  0  0
 49117  1  0  0  0
 50 51  1  0  0  0
 50118  1  0  0  0
 50119  1  0  0  0
 51 52  1  0  0  0
 51120  1  0  0  0
 51121  1  0  0  0
 52122  1  0  0  0
 52123  1  0  0  0
 53 54  1  0  0  0
 54 55  2  0  0  0
 54124  1  0  0  0
 55 57  1  0  0  0
 55125  1  0  0  0
 56 69  2  0  0  0
 57 58  2  0  0  0
 57126  1  0  0  0
 58127  1  0  0  0
 59 60  1  0  0  0
 59 61  1  0  0  0
 59 62  1  0  0  0
 60128  1  0  0  0
 60129  1  0  0  0
 60130  1  0  0  0
 61131  1  0  0  0
 61132  1  0  0  0
 61133  1  0  0  0
 62134  1  0  0  0
 62135  1  0  0  0
 62136  1  0  0  0
 63 65  1  0  0  0
 63137  1  0  0  0
 63138  1  0  0  0
 63139  1  0  0  0
 64140  1  0  0  0
 65141  1  0  0  0
 68 77  1  0  0  0
 71 72  2  0  0  0
 71 78  1  0  0  0
 71142  1  0  0  0
 72 79  1  0  0  0
 72 82  1  0  0  0
 73 77  1  0  0  0
 73 78  2  0  0  0
 73 80  1  0  0  0
 74 76  1  0  0  0
 74 81  1  0  0  0
 74143  1  0  0  0
 74144  1  0  0  0
 75 76  1  0  0  0
 75 81  1  0  0  0
 75145  1  0  0  0
 75146  1  0  0  0
 76 82  1  0  0  0
 76147  1  0  0  0
 77148  1  0  0  0
 77149  1  0  0  0
 79 80  2  0  0  0
 82150  1  0  0  0
M  ISO  4   1 100  68 101  77 101  81 100
M  END
> <chiral flag>
0

> <version>
0

> <s_m_source_file>
/data/baiqing/PycharmProjects/Reinvent-master-3.2/result/LINK_invent/BTK/process_docking_weight1_custom_sum_contain_oxygen_bond_distance_aromatic_linkinvent_7_9_3/rearranged_h_0181.sdf

> <i_m_source_file_index>
92

> <r_mmod_Potential_Energy-OPLS-2005>
329.972564697266

> <r_mmod_Stretch_Energy-OPLS-2005>
128.824645996094

> <r_mmod_Bend_Energy-OPLS-2005>
225.475967407227

> <r_mmod_Torsional_Energy-OPLS-2005>
261.050964355469

> <r_mmod_Improper_Torsional_Energy-OPLS-2005>
15.2672319412231

> <r_mmod_Van_der_Waal_Energy-OPLS-2005>
150.834579467773

> <r_mmod_Electrostatic_Energy-OPLS-2005>
-317.408447265625

> <r_mmod_Solvation_Energy-OPLS-2005>
-238.079147338867

> <b_mmod_Minimization_Converged-OPLS-2005>
0

> <r_mmod_RMS_Derivative-OPLS-2005>
0.293827742338181

$$$$
92
                    3D
 Structure written by MMmdl.
152161  0  0  1  0            999 V2000
  -30.4691  -15.1041   20.3810 C   0  0  0  0  0  0
  -30.4332  -12.6878   19.5152 C   0  0  0  0  0  0
  -29.5366  -12.5601   18.2630 C   0  0  0  0  0  0
  -28.0618  -12.3460   18.6610 C   0  0  0  0  0  0
  -27.6172  -13.2736   19.8252 C   0  0  2  0  0  0
  -28.6518  -13.3496   20.9628 C   0  0  0  0  0  0
  -25.2387  -13.8238   20.5668 C   0  0  0  0  0  0
  -24.1750  -13.0398   20.9197 C   0  0  0  0  0  0
  -24.6423  -11.6907   20.8731 C   0  0  0  0  0  0
  -23.9117  -10.4260   21.0395 C   0  0  0  0  0  0
  -24.3666   -9.4165   21.9165 C   0  0  0  0  0  0
  -23.6307   -8.2221   22.0760 C   0  0  0  0  0  0
  -22.4274   -8.0298   21.3563 C   0  0  0  0  0  0
  -21.9920   -9.0278   20.4656 C   0  0  0  0  0  0
  -22.7284  -10.2130   20.3048 C   0  0  0  0  0  0
  -21.6839   -6.0742   22.5275 C   0  0  0  0  0  0
  -21.4013   -6.5648   23.8211 C   0  0  0  0  0  0
  -21.3653   -5.6803   24.9176 C   0  0  0  0  0  0
  -21.6037   -4.3066   24.7229 C   0  0  0  0  0  0
  -21.8808   -3.8155   23.4351 C   0  0  0  0  0  0
  -21.9174   -4.6965   22.3400 C   0  0  0  0  0  0
  -22.7761  -13.5152   21.1837 C   0  0  0  0  0  0
  -22.1641   -4.2155   21.0974 F   0  0  0  0  0  0
  -21.5619   -3.4542   25.7739 F   0  0  0  0  0  0
  -29.9025  -13.8148   20.3511 N   0  0  0  0  0  0
  -26.2826  -12.9513   20.3161 N   0  0  0  0  0  0
  -25.9361  -11.6616   20.5679 N   0  0  0  0  0  0
  -22.0405  -12.8194   22.0432 N   0  0  0  0  0  0
  -25.3920  -15.1977   20.4083 N   0  0  0  0  0  0
  -31.6878  -15.1296   20.1471 O   0  0  0  0  0  0
  -21.6628   -6.8907   21.4255 O   0  0  0  0  0  0
  -22.3410  -14.5407   20.6629 O   0  0  0  0  0  0
  -24.6580  -31.8339   23.1729 C   0  0  0  0  0  0
  -25.9303  -32.4629   23.8173 C   0  0  1  0  0  0
  -27.2083  -27.0105   20.1625 C   0  0  0  0  0  0
  -25.6000  -33.8450   24.2095 N   0  0  0  0  0  0
  -23.4656  -30.4509   21.5231 C   0  0  2  0  0  0
  -24.9143  -28.8511   20.1137 C   0  0  0  0  0  0
  -22.7640  -29.4524   22.4821 C   0  0  0  0  0  0
  -18.0328  -28.1438   22.8480 C   0  0  0  0  0  0
  -24.1495  -36.7223   23.2631 C   0  0  0  0  0  0
  -26.0297  -30.6701   21.3844 C   0  0  0  0  0  0
  -26.0995  -29.2652   20.7355 C   0  0  0  0  0  0
  -27.2502  -28.3659   20.7335 C   0  0  0  0  0  0
  -25.9979  -26.7355   19.4935 C   0  0  0  0  0  0
  -24.8831  -27.6045   19.4711 C   0  0  0  0  0  0
  -23.6984  -29.7718   20.1474 C   0  0  0  0  0  0
  -25.4133  -36.2990   24.0291 C   0  0  1  0  0  0
  -20.5948  -28.3780   23.1202 C   0  0  2  0  0  0
  -20.6805  -26.9476   22.5411 C   0  0  0  0  0  0
  -19.5765  -26.6396   21.5235 C   0  0  0  0  0  0
  -18.1947  -26.7961   22.1658 C   0  0  0  0  0  0
  -19.1586  -28.8939   23.2827 C   0  0  0  0  0  0
  -18.9481  -30.1519   23.8866 C   0  0  0  0  0  0
  -17.6472  -30.6614   24.0575 C   0  0  0  0  0  0
  -25.9111  -34.9374   23.5016 C   0  0  0  0  0  0
  -16.5375  -29.9104   23.6329 C   0  0  0  0  0  0
  -16.7308  -28.6540   23.0333 C   0  0  0  0  0  0
  -26.4545  -31.6513   25.0658 C   0  0  0  0  0  0
  -25.3685  -31.3794   26.1326 C   0  0  0  0  0  0
  -27.0352  -30.2863   24.6285 C   0  0  0  0  0  0
  -27.6070  -32.4256   25.7479 C   0  0  0  0  0  0
  -27.5573  -37.1781   24.8456 C   0  0  0  0  0  0
  -21.4326  -29.3064   22.3566 N   0  0  0  0  0  0
  -26.4269  -37.3730   23.9406 N   0  0  0  0  0  0
  -24.7385  -31.0095   22.0809 N   0  0  0  0  0  0
  -23.4211  -28.8092   23.3050 O   0  0  0  0  0  0
  -28.2194  -25.9405   20.1650 O   0  0  0  0  0  0
  -26.5702  -34.8895   22.4592 O   0  0  0  0  0  0
  -23.5676  -32.1264   23.6888 O   0  0  0  0  0  0
  -28.5217  -21.5258   20.5447 C   0  0  0  0  0  0
  -29.1928  -20.3065   19.9791 C   0  0  0  0  0  0
  -28.6563  -22.9277   20.0018 C   0  0  0  0  0  0
  -30.0045  -21.8589   18.4108 C   0  0  0  0  0  0
  -29.2902  -17.3414   19.4201 C   0  0  0  0  0  0
  -30.1831  -17.6639   21.1734 C   0  0  0  0  0  0
  -29.1758  -18.6343   20.3752 C   0  0  0  0  0  0
  -30.7790  -22.0161   17.1148 C   0  0  0  0  0  0
  -27.8884  -24.3881   20.4680 C   0  0  0  0  0  0
  -29.9441  -20.6057   18.8947 N   0  0  0  0  0  0
  -29.4264  -22.9757   18.8909 N   0  0  0  0  0  0
  -29.7123  -16.3483   20.5182 N   0  0  0  0  0  0
  -31.4697  -12.8532   19.2154 H   0  0  0  0  0  0
  -30.4404  -11.7527   20.0763 H   0  0  0  0  0  0
  -29.8819  -11.7433   17.6287 H   0  0  0  0  0  0
  -29.6296  -13.4678   17.6633 H   0  0  0  0  0  0
  -27.9405  -11.3026   18.9507 H   0  0  0  0  0  0
  -27.4164  -12.4983   17.7932 H   0  0  0  0  0  0
  -27.5620  -14.2739   19.3926 H   0  0  0  0  0  0
  -28.7721  -12.3770   21.4474 H   0  0  0  0  0  0
  -28.3318  -14.0533   21.7333 H   0  0  0  0  0  0
  -25.2828   -9.5599   22.4717 H   0  0  0  0  0  0
  -23.9994   -7.4588   22.7458 H   0  0  0  0  0  0
  -21.0833   -8.8825   19.8974 H   0  0  0  0  0  0
  -22.3760  -10.9684   19.6159 H   0  0  0  0  0  0
  -21.2038   -7.6160   23.9726 H   0  0  0  0  0  0
  -21.1474   -6.0533   25.9084 H   0  0  0  0  0  0
  -22.0590   -2.7617   23.2841 H   0  0  0  0  0  0
  -22.4065  -11.9987   22.5028 H   0  0  0  0  0  0
  -21.0985  -13.1195   22.2517 H   0  0  0  0  0  0
  -24.6004  -15.8264   20.4892 H   0  0  0  0  0  0
  -26.2295  -15.6537   20.0720 H   0  0  0  0  0  0
  -26.7407  -32.5209   23.0938 H   0  0  0  0  0  0
  -25.0155  -33.9547   25.0240 H   0  0  0  0  0  0
  -22.7763  -31.2814   21.3564 H   0  0  0  0  0  0
  -23.3762  -35.9558   23.3282 H   0  0  0  0  0  0
  -24.3582  -36.8874   22.2054 H   0  0  0  0  0  0
  -23.7237  -37.6408   23.6680 H   0  0  0  0  0  0
  -26.1950  -31.4119   20.6011 H   0  0  0  0  0  0
  -26.9011  -30.7385   22.0235 H   0  0  0  0  0  0
  -28.1608  -28.6821   21.2206 H   0  0  0  0  0  0
  -25.8962  -25.7921   18.9781 H   0  0  0  0  0  0
  -23.9859  -27.2857   18.9586 H   0  0  0  0  0  0
  -23.8551  -30.5369   19.3853 H   0  0  0  0  0  0
  -22.8086  -29.2250   19.8281 H   0  0  0  0  0  0
  -25.1330  -36.1815   25.0781 H   0  0  0  0  0  0
  -21.0067  -28.3426   24.1315 H   0  0  0  0  0  0
  -20.5677  -26.2444   23.3682 H   0  0  0  0  0  0
  -21.6666  -26.7441   22.1231 H   0  0  0  0  0  0
  -19.6898  -25.6286   21.1308 H   0  0  0  0  0  0
  -19.6654  -27.3191   20.6747 H   0  0  0  0  0  0
  -17.4210  -26.6711   21.4063 H   0  0  0  0  0  0
  -18.0322  -26.0110   22.9064 H   0  0  0  0  0  0
  -19.7946  -30.7351   24.2203 H   0  0  0  0  0  0
  -17.5013  -31.6265   24.5232 H   0  0  0  0  0  0
  -15.5375  -30.3000   23.7622 H   0  0  0  0  0  0
  -15.8716  -28.0844   22.7021 H   0  0  0  0  0  0
  -24.5996  -30.6945   25.7736 H   0  0  0  0  0  0
  -24.8695  -32.2984   26.4413 H   0  0  0  0  0  0
  -25.7966  -30.9299   27.0292 H   0  0  0  0  0  0
  -26.2950  -29.6629   24.1252 H   0  0  0  0  0  0
  -27.3869  -29.7141   25.4877 H   0  0  0  0  0  0
  -27.8924  -30.4026   23.9657 H   0  0  0  0  0  0
  -27.2721  -33.3696   26.1793 H   0  0  0  0  0  0
  -28.4065  -32.6541   25.0418 H   0  0  0  0  0  0
  -28.0489  -31.8481   26.5609 H   0  0  0  0  0  0
  -28.2570  -38.0092   24.7526 H   0  0  0  0  0  0
  -28.1085  -36.2626   24.6266 H   0  0  0  0  0  0
  -27.2301  -37.1432   25.8857 H   0  0  0  0  0  0
  -20.9600  -29.8806   21.6738 H   0  0  0  0  0  0
  -26.0126  -38.2798   24.1378 H   0  0  0  0  0  0
  -27.8682  -21.3930   21.3991 H   0  0  0  0  0  0
  -28.3469  -17.0913   18.9333 H   0  0  0  0  0  0
  -30.0600  -17.4749   18.6575 H   0  0  0  0  0  0
  -30.0173  -17.6977   22.2529 H   0  0  0  0  0  0
  -31.2286  -17.8915   20.9677 H   0  0  0  0  0  0
  -28.2043  -18.5367   20.8586 H   0  0  0  0  0  0
  -31.6347  -21.3401   17.0773 H   0  0  0  0  0  0
  -31.1622  -23.0282   17.0007 H   0  0  0  0  0  0
  -30.1378  -21.7972   16.2603 H   0  0  0  0  0  0
  -26.8399  -24.2399   20.2195 H   0  0  0  0  0  0
  -27.8896  -24.3346   21.5582 H   0  0  0  0  0  0
  1 25  1  0  0  0
  1 30  2  0  0  0
  1 82  1  0  0  0
  2  3  1  0  0  0
  2 25  1  0  0  0
  2 83  1  0  0  0
  2 84  1  0  0  0
  3  4  1  0  0  0
  3 85  1  0  0  0
  3 86  1  0  0  0
  4  5  1  0  0  0
  4 87  1  0  0  0
  4 88  1  0  0  0
  5  6  1  0  0  0
  5 26  1  0  0  0
  5 89  1  0  0  0
  6 25  1  0  0  0
  6 90  1  0  0  0
  6 91  1  0  0  0
  7  8  2  0  0  0
  7 26  1  0  0  0
  7 29  1  0  0  0
  8  9  1  0  0  0
  8 22  1  0  0  0
  9 10  1  0  0  0
  9 27  2  0  0  0
 10 11  2  0  0  0
 10 15  1  0  0  0
 11 12  1  0  0  0
 11 92  1  0  0  0
 12 13  2  0  0  0
 12 93  1  0  0  0
 13 14  1  0  0  0
 13 31  1  0  0  0
 14 15  2  0  0  0
 14 94  1  0  0  0
 15 95  1  0  0  0
 16 17  2  0  0  0
 16 21  1  0  0  0
 16 31  1  0  0  0
 17 18  1  0  0  0
 17 96  1  0  0  0
 18 19  2  0  0  0
 18 97  1  0  0  0
 19 20  1  0  0  0
 19 24  1  0  0  0
 20 21  2  0  0  0
 20 98  1  0  0  0
 21 23  1  0  0  0
 22 28  1  0  0  0
 22 32  2  0  0  0
 26 27  1  0  0  0
 28 99  1  0  0  0
 28100  1  0  0  0
 29101  1  0  0  0
 29102  1  0  0  0
 33 34  1  0  0  0
 33 66  1  0  0  0
 33 70  2  0  0  0
 34 36  1  0  0  0
 34 59  1  0  0  0
 34103  1  0  0  0
 35 44  2  0  0  0
 35 45  1  0  0  0
 35 68  1  0  0  0
 36 56  1  0  0  0
 36104  1  0  0  0
 37 39  1  0  0  0
 37 47  1  0  0  0
 37 66  1  0  0  0
 37105  1  0  0  0
 38 43  2  0  0  0
 38 46  1  0  0  0
 38 47  1  0  0  0
 39 64  1  0  0  0
 39 67  2  0  0  0
 40 52  1  0  0  0
 40 53  2  0  0  0
 40 58  1  0  0  0
 41106  1  0  0  0
 41107  1  0  0  0
 41108  1  0  0  0
 41 48  1  0  0  0
 42 43  1  0  0  0
 42 66  1  0  0  0
 42109  1  0  0  0
 42110  1  0  0  0
 43 44  1  0  0  0
 44111  1  0  0  0
 45 46  2  0  0  0
 45112  1  0  0  0
 46113  1  0  0  0
 47114  1  0  0  0
 47115  1  0  0  0
 48 56  1  0  0  0
 48 65  1  0  0  0
 48116  1  0  0  0
 49 50  1  0  0  0
 49 53  1  0  0  0
 49 64  1  0  0  0
 49117  1  0  0  0
 50 51  1  0  0  0
 50118  1  0  0  0
 50119  1  0  0  0
 51 52  1  0  0  0
 51120  1  0  0  0
 51121  1  0  0  0
 52122  1  0  0  0
 52123  1  0  0  0
 53 54  1  0  0  0
 54 55  2  0  0  0
 54124  1  0  0  0
 55 57  1  0  0  0
 55125  1  0  0  0
 56 69  2  0  0  0
 57 58  2  0  0  0
 57126  1  0  0  0
 58127  1  0  0  0
 59 60  1  0  0  0
 59 61  1  0  0  0
 59 62  1  0  0  0
 60128  1  0  0  0
 60129  1  0  0  0
 60130  1  0  0  0
 61131  1  0  0  0
 61132  1  0  0  0
 61133  1  0  0  0
 62134  1  0  0  0
 62135  1  0  0  0
 62136  1  0  0  0
 63 65  1  0  0  0
 63137  1  0  0  0
 63138  1  0  0  0
 63139  1  0  0  0
 64140  1  0  0  0
 65141  1  0  0  0
 68 79  1  0  0  0
 71 72  2  0  0  0
 71 73  1  0  0  0
 71142  1  0  0  0
 72 80  1  0  0  0
 72 77  1  0  0  0
 73 79  1  0  0  0
 73 81  2  0  0  0
 74 78  1  0  0  0
 74 80  2  0  0  0
 74 81  1  0  0  0
 75 77  1  0  0  0
 75 82  1  0  0  0
 75143  1  0  0  0
 75144  1  0  0  0
 76 77  1  0  0  0
 76 82  1  0  0  0
 76145  1  0  0  0
 76146  1  0  0  0
 77147  1  0  0  0
 78148  1  0  0  0
 78149  1  0  0  0
 78150  1  0  0  0
 79151  1  0  0  0
 79152  1  0  0  0
M  ISO  4   1 100  68 101  79 101  82 100
M  END
> <chiral flag>
0

> <version>
0

> <s_m_source_file>
/data/baiqing/PycharmProjects/Reinvent-master-3.2/result/LINK_invent/BTK/process_docking_weight1_custom_sum_contain_oxygen_bond_distance_aromatic_linkinvent_7_9_3/rearranged_h_0181.sdf

> <i_m_source_file_index>
93

> <r_mmod_Potential_Energy-OPLS-2005>
508.634979248047

> <r_mmod_Stretch_Energy-OPLS-2005>
377.104675292969

> <r_mmod_Bend_Energy-OPLS-2005>
342.3291015625

> <r_mmod_Torsional_Energy-OPLS-2005>
274.774688720703

> <r_mmod_Improper_Torsional_Energy-OPLS-2005>
10.730993270874

> <r_mmod_Van_der_Waal_Energy-OPLS-2005>
132.306671142578

> <r_mmod_Electrostatic_Energy-OPLS-2005>
-706.251953125

> <r_mmod_Solvation_Energy-OPLS-2005>
-240.799499511719

> <b_mmod_Minimization_Converged-OPLS-2005>
0

> <r_mmod_RMS_Derivative-OPLS-2005>
4.84475708007812

$$$$
93
                    3D
 Structure written by MMmdl.
160169  0  0  1  0            999 V2000
  -30.7089  -14.5874   20.4943 C   0  0  0  0  0  0
  -30.4150  -12.3640   19.4509 C   0  0  0  0  0  0
  -29.4983  -12.4970   18.2183 C   0  0  0  0  0  0
  -28.0215  -12.3514   18.6321 C   0  0  0  0  0  0
  -27.6486  -13.2302   19.8573 C   0  0  2  0  0  0
  -28.6961  -13.1225   20.9872 C   0  0  0  0  0  0
  -25.2539  -13.8210   20.5706 C   0  0  0  0  0  0
  -24.1816  -13.0456   20.9192 C   0  0  0  0  0  0
  -24.6402  -11.6932   20.8737 C   0  0  0  0  0  0
  -23.9073  -10.4304   21.0395 C   0  0  0  0  0  0
  -24.3623   -9.4216   21.9173 C   0  0  0  0  0  0
  -23.6301   -8.2246   22.0747 C   0  0  0  0  0  0
  -22.4280   -8.0280   21.3543 C   0  0  0  0  0  0
  -21.9915   -9.0254   20.4645 C   0  0  0  0  0  0
  -22.7244  -10.2134   20.3049 C   0  0  0  0  0  0
  -21.6853   -6.0735   22.5277 C   0  0  0  0  0  0
  -21.4013   -6.5639   23.8210 C   0  0  0  0  0  0
  -21.3662   -5.6788   24.9174 C   0  0  0  0  0  0
  -21.6047   -4.3052   24.7222 C   0  0  0  0  0  0
  -21.8820   -3.8143   23.4338 C   0  0  0  0  0  0
  -21.9193   -4.6960   22.3398 C   0  0  0  0  0  0
  -22.7834  -13.5235   21.1847 C   0  0  0  0  0  0
  -22.1666   -4.2148   21.0975 F   0  0  0  0  0  0
  -21.5632   -3.4533   25.7734 F   0  0  0  0  0  0
  -30.0111  -13.4148   20.4041 N   0  0  0  0  0  0
  -26.2978  -12.9417   20.3328 N   0  0  0  0  0  0
  -25.9336  -11.6557   20.5756 N   0  0  0  0  0  0
  -22.0479  -12.8227   22.0404 N   0  0  0  0  0  0
  -25.4263  -15.1927   20.4148 N   0  0  0  0  0  0
  -31.8988  -14.6443   20.1698 O   0  0  0  0  0  0
  -21.6646   -6.8876   21.4237 O   0  0  0  0  0  0
  -22.3517  -14.5537   20.6690 O   0  0  0  0  0  0
  -24.6244  -31.8637   23.2086 C   0  0  0  0  0  0
  -25.9107  -32.4798   23.8393 C   0  0  1  0  0  0
  -27.2089  -27.3381   20.0980 C   0  0  0  0  0  0
  -25.5940  -33.8598   24.2312 N   0  0  0  0  0  0
  -23.4151  -30.4935   21.5523 C   0  0  2  0  0  0
  -24.8586  -28.9667   20.1062 C   0  0  0  0  0  0
  -22.7465  -29.4647   22.4953 C   0  0  0  0  0  0
  -18.0283  -28.1380   22.8490 C   0  0  0  0  0  0
  -24.1492  -36.7304   23.2635 C   0  0  0  0  0  0
  -25.9588  -30.7988   21.3811 C   0  0  0  0  0  0
  -26.0305  -29.4325   20.7162 C   0  0  0  0  0  0
  -27.2099  -28.6291   20.7085 C   0  0  0  0  0  0
  -26.0128  -26.9437   19.4436 C   0  0  0  0  0  0
  -24.8519  -27.7275   19.4607 C   0  0  0  0  0  0
  -23.6263  -29.8421   20.1636 C   0  0  0  0  0  0
  -25.4112  -36.3091   24.0332 C   0  0  1  0  0  0
  -20.5883  -28.3680   23.1294 C   0  0  2  0  0  0
  -20.6774  -26.9408   22.5411 C   0  0  0  0  0  0
  -19.5751  -26.6385   21.5214 C   0  0  0  0  0  0
  -18.1930  -26.7926   22.1624 C   0  0  0  0  0  0
  -19.1534  -28.8846   23.2889 C   0  0  0  0  0  0
  -18.9456  -30.1452   23.8899 C   0  0  0  0  0  0
  -17.6454  -30.6584   24.0560 C   0  0  0  0  0  0
  -25.9050  -34.9462   23.5116 C   0  0  0  0  0  0
  -16.5348  -29.9078   23.6332 C   0  0  0  0  0  0
  -16.7270  -28.6496   23.0356 C   0  0  0  0  0  0
  -26.4496  -31.6587   25.0744 C   0  0  0  0  0  0
  -25.3735  -31.3715   26.1469 C   0  0  0  0  0  0
  -27.0323  -30.3002   24.6183 C   0  0  0  0  0  0
  -27.6070  -32.4302   25.7507 C   0  0  0  0  0  0
  -27.5586  -37.1800   24.8456 C   0  0  0  0  0  0
  -21.4180  -29.3042   22.3694 N   0  0  0  0  0  0
  -26.4289  -37.3785   23.9412 N   0  0  0  0  0  0
  -24.6850  -31.0672   22.1040 N   0  0  0  0  0  0
  -23.4206  -28.8170   23.3004 O   0  0  0  0  0  0
  -28.2987  -26.4526   20.1694 O   0  0  0  0  0  0
  -26.5607  -34.8918   22.4674 O   0  0  0  0  0  0
  -23.5415  -32.1436   23.7426 O   0  0  0  0  0  0
  -28.3730  -22.5098   20.4483 C   0  0  0  0  0  0
  -28.8801  -23.8420   20.3374 C   0  0  0  0  0  0
  -29.2995  -21.4530   20.6368 C   0  0  0  0  0  0
  -30.9978  -22.9970   20.5926 C   0  0  0  0  0  0
  -29.0469  -17.9002   19.5820 C   0  0  0  0  0  0
  -29.7160  -18.0138   21.9249 C   0  0  0  0  0  0
  -29.8383  -16.5656   19.4311 C   0  0  0  0  0  0
  -30.4842  -16.6589   21.7606 C   0  0  0  0  0  0
  -29.6524  -18.8611   20.6303 C   0  0  0  0  0  0
  -32.4873  -23.2589   20.6543 C   0  0  0  0  0  0
  -27.9295  -25.0294   20.0060 C   0  0  0  0  0  0
  -30.2114  -24.0627   20.4152 N   0  0  0  0  0  0
  -30.6164  -21.7192   20.7027 N   0  0  0  0  0  0
  -30.0138  -15.7629   20.6711 N   0  0  0  0  0  0
  -28.8537  -20.1074   20.7738 N   0  0  0  0  0  0
  -26.6779  -22.1675   20.3254 Cl  0  0  0  0  0  0
  -31.4613  -12.4453   19.1515 H   0  0  0  0  0  0
  -30.3105  -11.3788   19.9082 H   0  0  0  0  0  0
  -29.7554  -11.7420   17.4743 H   0  0  0  0  0  0
  -29.6549  -13.4648   17.7386 H   0  0  0  0  0  0
  -27.8494  -11.3004   18.8649 H   0  0  0  0  0  0
  -27.3690  -12.5853   17.7898 H   0  0  0  0  0  0
  -27.6566  -14.2618   19.5053 H   0  0  0  0  0  0
  -28.6936  -12.1247   21.4280 H   0  0  0  0  0  0
  -28.4623  -13.8187   21.7946 H   0  0  0  0  0  0
  -25.2766   -9.5699   22.4749 H   0  0  0  0  0  0
  -24.0016   -7.4637   22.7462 H   0  0  0  0  0  0
  -21.0845   -8.8769   19.8952 H   0  0  0  0  0  0
  -22.3695  -10.9670   19.6157 H   0  0  0  0  0  0
  -21.2003   -7.6148   23.9716 H   0  0  0  0  0  0
  -21.1489   -6.0517   25.9079 H   0  0  0  0  0  0
  -22.0597   -2.7605   23.2834 H   0  0  0  0  0  0
  -22.4097  -11.9898   22.4815 H   0  0  0  0  0  0
  -21.1090  -13.1242   22.2587 H   0  0  0  0  0  0
  -24.6673  -15.8546   20.5343 H   0  0  0  0  0  0
  -26.2949  -15.6303   20.1337 H   0  0  0  0  0  0
  -26.7172  -32.5467   23.1143 H   0  0  0  0  0  0
  -25.0079  -33.9755   25.0449 H   0  0  0  0  0  0
  -22.7068  -31.3138   21.4176 H   0  0  0  0  0  0
  -23.3757  -35.9634   23.3282 H   0  0  0  0  0  0
  -24.3589  -36.8937   22.2054 H   0  0  0  0  0  0
  -23.7241  -37.6500   23.6663 H   0  0  0  0  0  0
  -26.0917  -31.5669   20.6179 H   0  0  0  0  0  0
  -26.8396  -30.8402   22.0103 H   0  0  0  0  0  0
  -28.1031  -28.9777   21.2078 H   0  0  0  0  0  0
  -25.9176  -26.0104   18.9119 H   0  0  0  0  0  0
  -23.9581  -27.3718   18.9665 H   0  0  0  0  0  0
  -23.7393  -30.6245   19.4124 H   0  0  0  0  0  0
  -22.7468  -29.2711   19.8607 H   0  0  0  0  0  0
  -25.1289  -36.1947   25.0825 H   0  0  0  0  0  0
  -20.9978  -28.3244   24.1413 H   0  0  0  0  0  0
  -20.5684  -26.2286   23.3603 H   0  0  0  0  0  0
  -21.6638  -26.7442   22.1194 H   0  0  0  0  0  0
  -19.6911  -25.6298   21.1240 H   0  0  0  0  0  0
  -19.6697  -27.3200   20.6751 H   0  0  0  0  0  0
  -17.4205  -26.6684   21.4020 H   0  0  0  0  0  0
  -18.0326  -26.0063   22.9013 H   0  0  0  0  0  0
  -19.7930  -30.7270   24.2266 H   0  0  0  0  0  0
  -17.5007  -31.6265   24.5160 H   0  0  0  0  0  0
  -15.5347  -30.2977   23.7656 H   0  0  0  0  0  0
  -15.8671  -28.0817   22.7065 H   0  0  0  0  0  0
  -24.5929  -30.7040   25.7801 H   0  0  0  0  0  0
  -24.8904  -32.2876   26.4880 H   0  0  0  0  0  0
  -25.8069  -30.8910   27.0251 H   0  0  0  0  0  0
  -26.2883  -29.6765   24.1213 H   0  0  0  0  0  0
  -27.4016  -29.7244   25.4680 H   0  0  0  0  0  0
  -27.8767  -30.4275   23.9406 H   0  0  0  0  0  0
  -27.2699  -33.3611   26.2083 H   0  0  0  0  0  0
  -28.3886  -32.6842   25.0334 H   0  0  0  0  0  0
  -28.0731  -31.8420   26.5422 H   0  0  0  0  0  0
  -28.2579  -38.0121   24.7524 H   0  0  0  0  0  0
  -28.1106  -36.2649   24.6247 H   0  0  0  0  0  0
  -27.2310  -37.1404   25.8860 H   0  0  0  0  0  0
  -20.9348  -29.8778   21.6925 H   0  0  0  0  0  0
  -26.0174  -38.2859   24.1422 H   0  0  0  0  0  0
  -28.0130  -17.6677   19.8426 H   0  0  0  0  0  0
  -29.0073  -18.3985   18.6120 H   0  0  0  0  0  0
  -30.1910  -18.5973   22.7151 H   0  0  0  0  0  0
  -28.7051  -17.8021   22.2777 H   0  0  0  0  0  0
  -30.8224  -16.8002   19.0188 H   0  0  0  0  0  0
  -29.3412  -15.9498   18.6794 H   0  0  0  0  0  0
  -30.4341  -16.1118   22.7030 H   0  0  0  0  0  0
  -31.5409  -16.8830   21.6000 H   0  0  0  0  0  0
  -30.6667  -19.1242   20.3255 H   0  0  0  0  0  0
  -32.7077  -24.3267   20.6648 H   0  0  0  0  0  0
  -32.9844  -22.8223   19.7882 H   0  0  0  0  0  0
  -32.9156  -22.8186   21.5544 H   0  0  0  0  0  0
  -27.0319  -24.8498   20.5995 H   0  0  0  0  0  0
  -27.6758  -24.8653   18.9583 H   0  0  0  0  0  0
  -27.8461  -20.0132   20.7105 H   0  0  0  0  0  0
  1 25  1  0  0  0
  1 30  2  0  0  0
  1 84  1  0  0  0
  2  3  1  0  0  0
  2 25  1  0  0  0
  2 87  1  0  0  0
  2 88  1  0  0  0
  3  4  1  0  0  0
  3 89  1  0  0  0
  3 90  1  0  0  0
  4  5  1  0  0  0
  4 91  1  0  0  0
  4 92  1  0  0  0
  5  6  1  0  0  0
  5 26  1  0  0  0
  5 93  1  0  0  0
  6 25  1  0  0  0
  6 94  1  0  0  0
  6 95  1  0  0  0
  7  8  2  0  0  0
  7 26  1  0  0  0
  7 29  1  0  0  0
  8  9  1  0  0  0
  8 22  1  0  0  0
  9 10  1  0  0  0
  9 27  2  0  0  0
 10 11  2  0  0  0
 10 15  1  0  0  0
 11 12  1  0  0  0
 11 96  1  0  0  0
 12 13  2  0  0  0
 12 97  1  0  0  0
 13 14  1  0  0  0
 13 31  1  0  0  0
 14 15  2  0  0  0
 14 98  1  0  0  0
 15 99  1  0  0  0
 16 17  2  0  0  0
 16 21  1  0  0  0
 16 31  1  0  0  0
 17 18  1  0  0  0
 17100  1  0  0  0
 18 19  2  0  0  0
 18101  1  0  0  0
 19 20  1  0  0  0
 19 24  1  0  0  0
 20 21  2  0  0  0
 20102  1  0  0  0
 21 23  1  0  0  0
 22 28  1  0  0  0
 22 32  2  0  0  0
 26 27  1  0  0  0
 28103  1  0  0  0
 28104  1  0  0  0
 29105  1  0  0  0
 29106  1  0  0  0
 33 34  1  0  0  0
 33 66  1  0  0  0
 33 70  2  0  0  0
 34 36  1  0  0  0
 34 59  1  0  0  0
 34107  1  0  0  0
 35 44  2  0  0  0
 35 45  1  0  0  0
 35 68  1  0  0  0
 36 56  1  0  0  0
 36108  1  0  0  0
 37 39  1  0  0  0
 37 47  1  0  0  0
 37 66  1  0  0  0
 37109  1  0  0  0
 38 43  2  0  0  0
 38 46  1  0  0  0
 38 47  1  0  0  0
 39 64  1  0  0  0
 39 67  2  0  0  0
 40 52  1  0  0  0
 40 53  2  0  0  0
 40 58  1  0  0  0
 41110  1  0  0  0
 41111  1  0  0  0
 41112  1  0  0  0
 41 48  1  0  0  0
 42 43  1  0  0  0
 42 66  1  0  0  0
 42113  1  0  0  0
 42114  1  0  0  0
 43 44  1  0  0  0
 44115  1  0  0  0
 45 46  2  0  0  0
 45116  1  0  0  0
 46117  1  0  0  0
 47118  1  0  0  0
 47119  1  0  0  0
 48 56  1  0  0  0
 48 65  1  0  0  0
 48120  1  0  0  0
 49 50  1  0  0  0
 49 53  1  0  0  0
 49 64  1  0  0  0
 49121  1  0  0  0
 50 51  1  0  0  0
 50122  1  0  0  0
 50123  1  0  0  0
 51 52  1  0  0  0
 51124  1  0  0  0
 51125  1  0  0  0
 52126  1  0  0  0
 52127  1  0  0  0
 53 54  1  0  0  0
 54 55  2  0  0  0
 54128  1  0  0  0
 55 57  1  0  0  0
 55129  1  0  0  0
 56 69  2  0  0  0
 57 58  2  0  0  0
 57130  1  0  0  0
 58131  1  0  0  0
 59 60  1  0  0  0
 59 61  1  0  0  0
 59 62  1  0  0  0
 60132  1  0  0  0
 60133  1  0  0  0
 60134  1  0  0  0
 61135  1  0  0  0
 61136  1  0  0  0
 61137  1  0  0  0
 62138  1  0  0  0
 62139  1  0  0  0
 62140  1  0  0  0
 63 65  1  0  0  0
 63141  1  0  0  0
 63142  1  0  0  0
 63143  1  0  0  0
 64144  1  0  0  0
 65145  1  0  0  0
 68 81  1  0  0  0
 71 72  2  0  0  0
 71 73  1  0  0  0
 71 86  1  0  0  0
 72 81  1  0  0  0
 72 82  1  0  0  0
 73 83  2  0  0  0
 73 85  1  0  0  0
 74 80  1  0  0  0
 74 82  2  0  0  0
 74 83  1  0  0  0
 75 77  1  0  0  0
 75 79  1  0  0  0
 75146  1  0  0  0
 75147  1  0  0  0
 76 78  1  0  0  0
 76 79  1  0  0  0
 76148  1  0  0  0
 76149  1  0  0  0
 77 84  1  0  0  0
 77150  1  0  0  0
 77151  1  0  0  0
 78 84  1  0  0  0
 78152  1  0  0  0
 78153  1  0  0  0
 79 85  1  0  0  0
 79154  1  0  0  0
 80155  1  0  0  0
 80156  1  0  0  0
 80157  1  0  0  0
 81158  1  0  0  0
 81159  1  0  0  0
 85160  1  0  0  0
M  ISO  4   1 100  68 101  81 101  84 100
M  END
> <chiral flag>
0

> <version>
0

> <s_m_source_file>
/data/baiqing/PycharmProjects/Reinvent-master-3.2/result/LINK_invent/BTK/process_docking_weight1_custom_sum_contain_oxygen_bond_distance_aromatic_linkinvent_7_9_3/rearranged_h_0181.sdf

> <i_m_source_file_index>
94

> <r_mmod_Potential_Energy-OPLS-2005>
-125.309700012207

> <r_mmod_Stretch_Energy-OPLS-2005>
64.8873825073242

> <r_mmod_Bend_Energy-OPLS-2005>
158.947830200195

> <r_mmod_Torsional_Energy-OPLS-2005>
314.355773925781

> <r_mmod_Improper_Torsional_Energy-OPLS-2005>
12.6456413269043

> <r_mmod_Van_der_Waal_Energy-OPLS-2005>
166.620468139648

> <r_mmod_Electrostatic_Energy-OPLS-2005>
-674.014831542969

> <r_mmod_Solvation_Energy-OPLS-2005>
-215.759521484375

> <b_mmod_Minimization_Converged-OPLS-2005>
0

> <r_mmod_RMS_Derivative-OPLS-2005>
0.886328279972076

$$$$
94
                    3D
 Structure written by MMmdl.
149158  0  0  1  0            999 V2000
  -30.4241  -15.5051   20.3479 C   0  0  0  0  0  0
  -30.4087  -12.9988   19.5167 C   0  0  0  0  0  0
  -29.5279  -12.6164   18.3012 C   0  0  0  0  0  0
  -28.1002  -12.2858   18.7550 C   0  0  0  0  0  0
  -27.5920  -13.2995   19.8066 C   0  0  2  0  0  0
  -28.6159  -13.6240   20.9187 C   0  0  0  0  0  0
  -25.2340  -13.8295   20.5808 C   0  0  0  0  0  0
  -24.1711  -13.0448   20.9278 C   0  0  0  0  0  0
  -24.6397  -11.6950   20.8770 C   0  0  0  0  0  0
  -23.9107  -10.4298   21.0404 C   0  0  0  0  0  0
  -24.3648   -9.4211   21.9184 C   0  0  0  0  0  0
  -23.6310   -8.2252   22.0753 C   0  0  0  0  0  0
  -22.4286   -8.0296   21.3549 C   0  0  0  0  0  0
  -21.9936   -9.0267   20.4643 C   0  0  0  0  0  0
  -22.7274  -10.2144   20.3053 C   0  0  0  0  0  0
  -21.6861   -6.0736   22.5273 C   0  0  0  0  0  0
  -21.4015   -6.5639   23.8203 C   0  0  0  0  0  0
  -21.3657   -5.6792   24.9170 C   0  0  0  0  0  0
  -21.6045   -4.3055   24.7220 C   0  0  0  0  0  0
  -21.8820   -3.8147   23.4338 C   0  0  0  0  0  0
  -21.9189   -4.6962   22.3397 C   0  0  0  0  0  0
  -22.7727  -13.5184   21.1907 C   0  0  0  0  0  0
  -22.1655   -4.2147   21.0974 F   0  0  0  0  0  0
  -21.5628   -3.4540   25.7733 F   0  0  0  0  0  0
  -29.7976  -14.2009   20.2434 N   0  0  0  0  0  0
  -26.2760  -12.9597   20.3241 N   0  0  0  0  0  0
  -25.9341  -11.6678   20.5726 N   0  0  0  0  0  0
  -22.0388  -12.8156   22.0455 N   0  0  0  0  0  0
  -25.3987  -15.2032   20.4265 N   0  0  0  0  0  0
  -31.6541  -15.3316   20.2407 O   0  0  0  0  0  0
  -21.6649   -6.8887   21.4237 O   0  0  0  0  0  0
  -22.3405  -14.5475   20.6737 O   0  0  0  0  0  0
  -24.6770  -31.8081   23.1561 C   0  0  0  0  0  0
  -25.9391  -32.4505   23.8090 C   0  0  1  0  0  0
  -27.2120  -26.7726   20.2037 C   0  0  0  0  0  0
  -25.6023  -33.8326   24.1998 N   0  0  0  0  0  0
  -23.4988  -30.4145   21.5080 C   0  0  2  0  0  0
  -24.9544  -28.7722   20.1129 C   0  0  0  0  0  0
  -22.7737  -29.4364   22.4710 C   0  0  0  0  0  0
  -18.0340  -28.1428   22.8457 C   0  0  0  0  0  0
  -24.1489  -36.7155   23.2648 C   0  0  0  0  0  0
  -26.0757  -30.5660   21.4077 C   0  0  0  0  0  0
  -26.1416  -29.1377   20.7577 C   0  0  0  0  0  0
  -27.2614  -28.1633   20.7738 C   0  0  0  0  0  0
  -25.9944  -26.6015   19.5014 C   0  0  0  0  0  0
  -24.9155  -27.5291   19.4608 C   0  0  0  0  0  0
  -23.7484  -29.7193   20.1397 C   0  0  0  0  0  0
  -25.4132  -36.2909   24.0292 C   0  0  1  0  0  0
  -20.5973  -28.3783   23.1152 C   0  0  2  0  0  0
  -20.6811  -26.9453   22.5392 C   0  0  0  0  0  0
  -19.5785  -26.6380   21.5210 C   0  0  0  0  0  0
  -18.1962  -26.7956   22.1610 C   0  0  0  0  0  0
  -19.1606  -28.8926   23.2789 C   0  0  0  0  0  0
  -18.9516  -30.1509   23.8839 C   0  0  0  0  0  0
  -17.6509  -30.6610   24.0562 C   0  0  0  0  0  0
  -25.9114  -34.9304   23.4968 C   0  0  0  0  0  0
  -16.5396  -29.9095   23.6360 C   0  0  0  0  0  0
  -16.7319  -28.6521   23.0367 C   0  0  0  0  0  0
  -26.4601  -31.6498   25.0668 C   0  0  0  0  0  0
  -25.3691  -31.3786   26.1300 C   0  0  0  0  0  0
  -27.0512  -30.2845   24.6495 C   0  0  0  0  0  0
  -27.6063  -32.4344   25.7478 C   0  0  0  0  0  0
  -27.5549  -37.1739   24.8480 C   0  0  0  0  0  0
  -21.4389  -29.3050   22.3484 N   0  0  0  0  0  0
  -26.4258  -37.3666   23.9421 N   0  0  0  0  0  0
  -24.7735  -30.9604   22.0769 N   0  0  0  0  0  0
  -23.4215  -28.7943   23.3011 O   0  0  0  0  0  0
  -28.1686  -25.5770   20.2824 O   0  0  0  0  0  0
  -26.5713  -34.8879   22.4558 O   0  0  0  0  0  0
  -23.5810  -32.1123   23.6569 O   0  0  0  0  0  0
  -30.2531  -19.6743   20.3630 C   0  0  0  0  0  0
  -28.9000  -19.6376   20.3102 C   0  0  0  0  0  0
  -30.8004  -21.0088   20.3777 C   0  0  0  0  0  0
  -28.7077  -22.2740   20.2717 C   0  0  0  0  0  0
  -30.8923  -18.1833   20.3953 C   0  0  0  0  0  0
  -28.6240  -17.9652   20.3279 C   0  0  0  0  0  0
  -32.2995  -21.2001   20.4447 C   0  0  0  0  0  0
  -27.8498  -23.8903   20.1194 C   0  0  0  0  0  0
  -28.1511  -20.9184   20.2594 N   0  0  0  0  0  0
  -30.0659  -22.2030   20.3331 N   0  0  0  0  0  0
  -29.9153  -16.9707   20.3692 N   0  0  0  0  0  0
  -31.4114  -13.2151   19.1462 H   0  0  0  0  0  0
  -30.5335  -12.1482   20.1903 H   0  0  0  0  0  0
  -29.9603  -11.7710   17.7647 H   0  0  0  0  0  0
  -29.5026  -13.4484   17.5961 H   0  0  0  0  0  0
  -28.1150  -11.2855   19.1895 H   0  0  0  0  0  0
  -27.4251  -12.2377   17.8997 H   0  0  0  0  0  0
  -27.4580  -14.2219   19.2398 H   0  0  0  0  0  0
  -28.8592  -12.7473   21.5201 H   0  0  0  0  0  0
  -28.2036  -14.3664   21.6040 H   0  0  0  0  0  0
  -25.2796   -9.5674   22.4761 H   0  0  0  0  0  0
  -24.0001   -7.4647   22.7494 H   0  0  0  0  0  0
  -21.0857   -8.8799   19.8962 H   0  0  0  0  0  0
  -22.3737  -10.9681   19.6162 H   0  0  0  0  0  0
  -21.2011   -7.6146   23.9705 H   0  0  0  0  0  0
  -21.1473   -6.0522   25.9069 H   0  0  0  0  0  0
  -22.0599   -2.7606   23.2840 H   0  0  0  0  0  0
  -22.4024  -11.9808   22.4821 H   0  0  0  0  0  0
  -21.0999  -13.1154   22.2661 H   0  0  0  0  0  0
  -24.6361  -15.8583   20.5581 H   0  0  0  0  0  0
  -26.2505  -15.6443   20.1056 H   0  0  0  0  0  0
  -26.7465  -32.5013   23.0803 H   0  0  0  0  0  0
  -25.0227  -33.9401   25.0193 H   0  0  0  0  0  0
  -22.8213  -31.2513   21.3238 H   0  0  0  0  0  0
  -23.3766  -35.9475   23.3288 H   0  0  0  0  0  0
  -24.3556  -36.8816   22.2066 H   0  0  0  0  0  0
  -23.7238  -37.6330   23.6722 H   0  0  0  0  0  0
  -26.2664  -31.2942   20.6182 H   0  0  0  0  0  0
  -26.9321  -30.6361   22.0655 H   0  0  0  0  0  0
  -28.1562  -28.4430   21.3121 H   0  0  0  0  0  0
  -25.8343  -25.6576   19.0009 H   0  0  0  0  0  0
  -24.0181  -27.2443   18.9274 H   0  0  0  0  0  0
  -23.9182  -30.4819   19.3788 H   0  0  0  0  0  0
  -22.8551  -29.1825   19.8147 H   0  0  0  0  0  0
  -25.1333  -36.1672   25.0779 H   0  0  0  0  0  0
  -21.0075  -28.3397   24.1270 H   0  0  0  0  0  0
  -20.5689  -26.2407   23.3645 H   0  0  0  0  0  0
  -21.6671  -26.7412   22.1198 H   0  0  0  0  0  0
  -19.6946  -25.6276   21.1273 H   0  0  0  0  0  0
  -19.6717  -27.3173   20.6724 H   0  0  0  0  0  0
  -17.4231  -26.6720   21.4008 H   0  0  0  0  0  0
  -18.0347  -26.0108   22.9016 H   0  0  0  0  0  0
  -19.8000  -30.7340   24.2174 H   0  0  0  0  0  0
  -17.5067  -31.6288   24.5181 H   0  0  0  0  0  0
  -15.5401  -30.2983   23.7720 H   0  0  0  0  0  0
  -15.8717  -28.0823   22.7116 H   0  0  0  0  0  0
  -24.5925  -30.7084   25.7603 H   0  0  0  0  0  0
  -24.8833  -32.2994   26.4539 H   0  0  0  0  0  0
  -25.7892  -30.9078   27.0199 H   0  0  0  0  0  0
  -26.3208  -29.6486   24.1488 H   0  0  0  0  0  0
  -27.3983  -29.7250   25.5191 H   0  0  0  0  0  0
  -27.9166  -30.3983   23.9968 H   0  0  0  0  0  0
  -27.2626  -33.3731   26.1842 H   0  0  0  0  0  0
  -28.3972  -32.6770   25.0368 H   0  0  0  0  0  0
  -28.0625  -31.8616   26.5563 H   0  0  0  0  0  0
  -28.2557  -38.0039   24.7496 H   0  0  0  0  0  0
  -28.1043  -36.2561   24.6334 H   0  0  0  0  0  0
  -27.2270  -37.1415   25.8885 H   0  0  0  0  0  0
  -20.9676  -29.8740   21.6594 H   0  0  0  0  0  0
  -26.0080  -38.2712   24.1436 H   0  0  0  0  0  0
  -31.5104  -18.0955   21.2896 H   0  0  0  0  0  0
  -31.5723  -18.0867   19.5478 H   0  0  0  0  0  0
  -28.0231  -17.7114   19.4555 H   0  0  0  0  0  0
  -28.0029  -17.7443   21.1952 H   0  0  0  0  0  0
  -32.8266  -20.2485   20.3856 H   0  0  0  0  0  0
  -32.5776  -21.6837   21.3809 H   0  0  0  0  0  0
  -32.6394  -21.8249   19.6185 H   0  0  0  0  0  0
  -26.9581  -23.7464   20.7299 H   0  0  0  0  0  0
  -27.4718  -23.8315   19.0989 H   0  0  0  0  0  0
  1 25  1  0  0  0
  1 30  2  0  0  0
  1 81  1  0  0  0
  2  3  1  0  0  0
  2 25  1  0  0  0
  2 82  1  0  0  0
  2 83  1  0  0  0
  3  4  1  0  0  0
  3 84  1  0  0  0
  3 85  1  0  0  0
  4  5  1  0  0  0
  4 86  1  0  0  0
  4 87  1  0  0  0
  5  6  1  0  0  0
  5 26  1  0  0  0
  5 88  1  0  0  0
  6 25  1  0  0  0
  6 89  1  0  0  0
  6 90  1  0  0  0
  7  8  2  0  0  0
  7 26  1  0  0  0
  7 29  1  0  0  0
  8  9  1  0  0  0
  8 22  1  0  0  0
  9 10  1  0  0  0
  9 27  2  0  0  0
 10 11  2  0  0  0
 10 15  1  0  0  0
 11 12  1  0  0  0
 11 91  1  0  0  0
 12 13  2  0  0  0
 12 92  1  0  0  0
 13 14  1  0  0  0
 13 31  1  0  0  0
 14 15  2  0  0  0
 14 93  1  0  0  0
 15 94  1  0  0  0
 16 17  2  0  0  0
 16 21  1  0  0  0
 16 31  1  0  0  0
 17 18  1  0  0  0
 17 95  1  0  0  0
 18 19  2  0  0  0
 18 96  1  0  0  0
 19 20  1  0  0  0
 19 24  1  0  0  0
 20 21  2  0  0  0
 20 97  1  0  0  0
 21 23  1  0  0  0
 22 28  1  0  0  0
 22 32  2  0  0  0
 26 27  1  0  0  0
 28 98  1  0  0  0
 28 99  1  0  0  0
 29100  1  0  0  0
 29101  1  0  0  0
 33 34  1  0  0  0
 33 66  1  0  0  0
 33 70  2  0  0  0
 34 36  1  0  0  0
 34 59  1  0  0  0
 34102  1  0  0  0
 35 44  2  0  0  0
 35 45  1  0  0  0
 35 68  1  0  0  0
 36 56  1  0  0  0
 36103  1  0  0  0
 37 39  1  0  0  0
 37 47  1  0  0  0
 37 66  1  0  0  0
 37104  1  0  0  0
 38 43  2  0  0  0
 38 46  1  0  0  0
 38 47  1  0  0  0
 39 64  1  0  0  0
 39 67  2  0  0  0
 40 52  1  0  0  0
 40 53  2  0  0  0
 40 58  1  0  0  0
 41105  1  0  0  0
 41106  1  0  0  0
 41107  1  0  0  0
 41 48  1  0  0  0
 42 43  1  0  0  0
 42 66  1  0  0  0
 42108  1  0  0  0
 42109  1  0  0  0
 43 44  1  0  0  0
 44110  1  0  0  0
 45 46  2  0  0  0
 45111  1  0  0  0
 46112  1  0  0  0
 47113  1  0  0  0
 47114  1  0  0  0
 48 56  1  0  0  0
 48 65  1  0  0  0
 48115  1  0  0  0
 49 50  1  0  0  0
 49 53  1  0  0  0
 49 64  1  0  0  0
 49116  1  0  0  0
 50 51  1  0  0  0
 50117  1  0  0  0
 50118  1  0  0  0
 51 52  1  0  0  0
 51119  1  0  0  0
 51120  1  0  0  0
 52121  1  0  0  0
 52122  1  0  0  0
 53 54  1  0  0  0
 54 55  2  0  0  0
 54123  1  0  0  0
 55 57  1  0  0  0
 55124  1  0  0  0
 56 69  2  0  0  0
 57 58  2  0  0  0
 57125  1  0  0  0
 58126  1  0  0  0
 59 60  1  0  0  0
 59 61  1  0  0  0
 59 62  1  0  0  0
 60127  1  0  0  0
 60128  1  0  0  0
 60129  1  0  0  0
 61130  1  0  0  0
 61131  1  0  0  0
 61132  1  0  0  0
 62133  1  0  0  0
 62134  1  0  0  0
 62135  1  0  0  0
 63 65  1  0  0  0
 63136  1  0  0  0
 63137  1  0  0  0
 63138  1  0  0  0
 64139  1  0  0  0
 65140  1  0  0  0
 68 78  1  0  0  0
 71 72  1  0  0  0
 71 73  2  0  0  0
 71 75  1  0  0  0
 72 76  1  0  0  0
 72 79  2  0  0  0
 73 77  1  0  0  0
 73 80  1  0  0  0
 74 78  1  0  0  0
 74 79  1  0  0  0
 74 80  2  0  0  0
 75 81  1  0  0  0
 75141  1  0  0  0
 75142  1  0  0  0
 76 81  1  0  0  0
 76143  1  0  0  0
 76144  1  0  0  0
 77145  1  0  0  0
 77146  1  0  0  0
 77147  1  0  0  0
 78148  1  0  0  0
 78149  1  0  0  0
M  ISO  4   1 100  68 101  78 101  81 100
M  END
> <chiral flag>
0

> <version>
0

> <s_m_source_file>
/data/baiqing/PycharmProjects/Reinvent-master-3.2/result/LINK_invent/BTK/process_docking_weight1_custom_sum_contain_oxygen_bond_distance_aromatic_linkinvent_7_9_3/rearranged_h_0181.sdf

> <i_m_source_file_index>
95

> <r_mmod_Potential_Energy-OPLS-2005>
1588.24780273438

> <r_mmod_Stretch_Energy-OPLS-2005>
766.842834472656

> <r_mmod_Bend_Energy-OPLS-2005>
639.687255859375

> <r_mmod_Torsional_Energy-OPLS-2005>
241.610778808594

> <r_mmod_Improper_Torsional_Energy-OPLS-2005>
4.54244899749756

> <r_mmod_Van_der_Waal_Energy-OPLS-2005>
126.899085998535

> <r_mmod_Electrostatic_Energy-OPLS-2005>
-665.883117675781

> <r_mmod_Solvation_Energy-OPLS-2005>
-257.899749755859

> <b_mmod_Minimization_Converged-OPLS-2005>
0

> <r_mmod_RMS_Derivative-OPLS-2005>
1.80926525592804

$$$$
95
                    3D
 Structure written by MMmdl.
168177  0  0  1  0            999 V2000
  -30.5877  -14.8684   20.4306 C   0  0  0  0  0  0
  -30.4313  -12.5371   19.4911 C   0  0  0  0  0  0
  -29.5144  -12.5170   18.2484 C   0  0  0  0  0  0
  -28.0449  -12.3198   18.6643 C   0  0  0  0  0  0
  -27.6310  -13.2451   19.8398 C   0  0  2  0  0  0
  -28.6743  -13.2523   20.9775 C   0  0  0  0  0  0
  -25.2464  -13.8215   20.5706 C   0  0  0  0  0  0
  -24.1779  -13.0442   20.9227 C   0  0  0  0  0  0
  -24.6389  -11.6926   20.8754 C   0  0  0  0  0  0
  -23.9076  -10.4294   21.0400 C   0  0  0  0  0  0
  -24.3628   -9.4208   21.9177 C   0  0  0  0  0  0
  -23.6302   -8.2244   22.0748 C   0  0  0  0  0  0
  -22.4282   -8.0280   21.3539 C   0  0  0  0  0  0
  -21.9920   -9.0253   20.4641 C   0  0  0  0  0  0
  -22.7249  -10.2132   20.3048 C   0  0  0  0  0  0
  -21.6856   -6.0734   22.5274 C   0  0  0  0  0  0
  -21.4018   -6.5639   23.8209 C   0  0  0  0  0  0
  -21.3662   -5.6791   24.9171 C   0  0  0  0  0  0
  -21.6046   -4.3052   24.7221 C   0  0  0  0  0  0
  -21.8823   -3.8145   23.4342 C   0  0  0  0  0  0
  -21.9197   -4.6962   22.3398 C   0  0  0  0  0  0
  -22.7799  -13.5211   21.1880 C   0  0  0  0  0  0
  -22.1662   -4.2149   21.0975 F   0  0  0  0  0  0
  -21.5631   -3.4535   25.7732 F   0  0  0  0  0  0
  -29.9591  -13.6328   20.3804 N   0  0  0  0  0  0
  -26.2887  -12.9444   20.3252 N   0  0  0  0  0  0
  -25.9320  -11.6574   20.5744 N   0  0  0  0  0  0
  -22.0453  -12.8196   22.0437 N   0  0  0  0  0  0
  -25.4131  -15.1941   20.4121 N   0  0  0  0  0  0
  -31.7896  -14.9136   20.1533 O   0  0  0  0  0  0
  -21.6645   -6.8875   21.4234 O   0  0  0  0  0  0
  -22.3481  -14.5513   20.6722 O   0  0  0  0  0  0
  -24.6394  -31.8481   23.1916 C   0  0  0  0  0  0
  -25.9184  -32.4716   23.8296 C   0  0  1  0  0  0
  -27.2135  -27.1749   20.1473 C   0  0  0  0  0  0
  -25.5948  -33.8521   24.2214 N   0  0  0  0  0  0
  -23.4404  -30.4686   21.5370 C   0  0  2  0  0  0
  -24.8876  -28.9006   20.1123 C   0  0  0  0  0  0
  -22.7545  -29.4567   22.4882 C   0  0  0  0  0  0
  -18.0298  -28.1396   22.8478 C   0  0  0  0  0  0
  -24.1491  -36.7265   23.2642 C   0  0  0  0  0  0
  -25.9933  -30.7338   21.3842 C   0  0  0  0  0  0
  -26.0636  -29.3482   20.7271 C   0  0  0  0  0  0
  -27.2294  -28.5016   20.7258 C   0  0  0  0  0  0
  -26.0135  -26.8195   19.4932 C   0  0  0  0  0  0
  -24.8732  -27.6486   19.4805 C   0  0  0  0  0  0
  -23.6637  -29.7990   20.1555 C   0  0  0  0  0  0
  -25.4121  -36.3045   24.0319 C   0  0  1  0  0  0
  -20.5908  -28.3717   23.1246 C   0  0  2  0  0  0
  -20.6784  -26.9426   22.5404 C   0  0  0  0  0  0
  -19.5759  -26.6384   21.5211 C   0  0  0  0  0  0
  -18.1940  -26.7935   22.1622 C   0  0  0  0  0  0
  -19.1554  -28.8874   23.2854 C   0  0  0  0  0  0
  -18.9472  -30.1471   23.8881 C   0  0  0  0  0  0
  -17.6469  -30.6593   24.0561 C   0  0  0  0  0  0
  -25.9069  -34.9419   23.5073 C   0  0  0  0  0  0
  -16.5359  -29.9087   23.6335 C   0  0  0  0  0  0
  -16.7283  -28.6504   23.0356 C   0  0  0  0  0  0
  -26.4521  -31.6570   25.0722 C   0  0  0  0  0  0
  -25.3716  -31.3743   26.1424 C   0  0  0  0  0  0
  -27.0377  -30.2970   24.6274 C   0  0  0  0  0  0
  -27.6058  -32.4330   25.7504 C   0  0  0  0  0  0
  -27.5576  -37.1789   24.8466 C   0  0  0  0  0  0
  -21.4243  -29.3049   22.3626 N   0  0  0  0  0  0
  -26.4289  -37.3754   23.9407 N   0  0  0  0  0  0
  -24.7108  -31.0371   22.0932 N   0  0  0  0  0  0
  -23.4206  -28.8115   23.3018 O   0  0  0  0  0  0
  -28.2922  -26.2329   20.1881 O   0  0  0  0  0  0
  -26.5654  -34.8907   22.4651 O   0  0  0  0  0  0
  -23.5522  -32.1345   23.7157 O   0  0  0  0  0  0
  -29.7026  -19.8301   21.5776 C   0  0  0  0  0  0
  -29.1373  -21.9357   20.2613 C   0  0  0  0  0  0
  -29.4247  -21.2492   21.5053 C   0  0  0  0  0  0
  -29.6607  -18.9616   20.4533 C   0  0  0  0  0  0
  -28.9294  -20.9314   19.2297 C   0  0  0  0  0  0
  -31.0373  -24.9358   18.8099 C   0  0  0  0  0  0
  -30.4497  -24.1020   20.9064 C   0  0  0  0  0  0
  -29.8854  -23.9276   18.6050 C   0  0  1  0  0  0
  -29.2749  -23.5990   20.0216 C   0  0  1  0  0  0
  -29.4642  -21.9856   22.8334 C   0  0  0  0  0  0
  -28.2789  -21.2681   17.9030 C   0  0  0  0  0  0
  -28.9217  -24.4666   17.5179 C   0  0  0  0  0  0
  -30.4125  -17.5094   20.3921 C   0  0  0  0  0  0
  -28.0611  -24.7060   20.3018 C   0  0  0  0  0  0
  -29.2165  -19.5712   19.3152 N   0  0  0  0  0  0
  -29.8604  -16.0667   20.5696 N   0  0  0  0  0  0
  -31.0413  -25.2594   20.2337 N   0  3  0  0  0  0
  -31.4690  -12.6736   19.1823 H   0  0  0  0  0  0
  -30.4001  -11.5795   20.0130 H   0  0  0  0  0  0
  -29.8210  -11.7253   17.5632 H   0  0  0  0  0  0
  -29.6186  -13.4547   17.7002 H   0  0  0  0  0  0
  -27.9261  -11.2760   18.9569 H   0  0  0  0  0  0
  -27.3849  -12.4721   17.8096 H   0  0  0  0  0  0
  -27.6021  -14.2525   19.4240 H   0  0  0  0  0  0
  -28.7410  -12.2752   21.4583 H   0  0  0  0  0  0
  -28.3893  -13.9632   21.7549 H   0  0  0  0  0  0
  -25.2771   -9.5692   22.4754 H   0  0  0  0  0  0
  -24.0014   -7.4638   22.7467 H   0  0  0  0  0  0
  -21.0851   -8.8772   19.8948 H   0  0  0  0  0  0
  -22.3701  -10.9672   19.6161 H   0  0  0  0  0  0
  -21.2005   -7.6146   23.9714 H   0  0  0  0  0  0
  -21.1483   -6.0517   25.9077 H   0  0  0  0  0  0
  -22.0600   -2.7605   23.2841 H   0  0  0  0  0  0
  -22.4084  -11.9868   22.4834 H   0  0  0  0  0  0
  -21.1060  -13.1196   22.2628 H   0  0  0  0  0  0
  -24.6435  -15.8459   20.5218 H   0  0  0  0  0  0
  -26.2549  -15.6339   20.0643 H   0  0  0  0  0  0
  -26.7249  -32.5334   23.1028 H   0  0  0  0  0  0
  -25.0072  -33.9651   25.0345 H   0  0  0  0  0  0
  -22.7407  -31.2930   21.3851 H   0  0  0  0  0  0
  -23.3757  -35.9593   23.3295 H   0  0  0  0  0  0
  -24.3576  -36.8905   22.2058 H   0  0  0  0  0  0
  -23.7240  -37.6458   23.6683 H   0  0  0  0  0  0
  -26.1430  -31.4886   20.6111 H   0  0  0  0  0  0
  -26.8670  -30.7842   22.0225 H   0  0  0  0  0  0
  -28.1290  -28.8424   21.2189 H   0  0  0  0  0  0
  -25.9252  -25.8740   18.9820 H   0  0  0  0  0  0
  -23.9767  -27.3049   18.9825 H   0  0  0  0  0  0
  -23.7970  -30.5738   19.3995 H   0  0  0  0  0  0
  -22.7795  -29.2380   19.8477 H   0  0  0  0  0  0
  -25.1307  -36.1881   25.0811 H   0  0  0  0  0  0
  -20.9997  -28.3302   24.1368 H   0  0  0  0  0  0
  -20.5677  -26.2333   23.3620 H   0  0  0  0  0  0
  -21.6651  -26.7438   22.1200 H   0  0  0  0  0  0
  -19.6921  -25.6290   21.1254 H   0  0  0  0  0  0
  -19.6695  -27.3182   20.6731 H   0  0  0  0  0  0
  -17.4210  -26.6677   21.4027 H   0  0  0  0  0  0
  -18.0340  -26.0083   22.9025 H   0  0  0  0  0  0
  -19.7947  -30.7290   24.2245 H   0  0  0  0  0  0
  -17.5022  -31.6272   24.5165 H   0  0  0  0  0  0
  -15.5360  -30.2984   23.7669 H   0  0  0  0  0  0
  -15.8682  -28.0817   22.7085 H   0  0  0  0  0  0
  -24.5902  -30.7086   25.7743 H   0  0  0  0  0  0
  -24.8899  -32.2918   26.4813 H   0  0  0  0  0  0
  -25.8010  -30.8941   27.0226 H   0  0  0  0  0  0
  -26.2979  -29.6703   24.1279 H   0  0  0  0  0  0
  -27.3997  -29.7260   25.4835 H   0  0  0  0  0  0
  -27.8888  -30.4216   23.9576 H   0  0  0  0  0  0
  -27.2658  -33.3649   26.2037 H   0  0  0  0  0  0
  -28.3892  -32.6863   25.0348 H   0  0  0  0  0  0
  -28.0701  -31.8486   26.5458 H   0  0  0  0  0  0
  -28.2587  -38.0091   24.7509 H   0  0  0  0  0  0
  -28.1078  -36.2619   24.6299 H   0  0  0  0  0  0
  -27.2293  -37.1441   25.8870 H   0  0  0  0  0  0
  -20.9448  -29.8763   21.6810 H   0  0  0  0  0  0
  -26.0159  -38.2824   24.1408 H   0  0  0  0  0  0
  -30.0307  -19.4109   22.5198 H   0  0  0  0  0  0
  -30.9376  -25.8453   18.2159 H   0  0  0  0  0  0
  -31.9917  -24.4801   18.5408 H   0  0  0  0  0  0
  -31.2333  -23.3457   20.9807 H   0  0  0  0  0  0
  -30.1515  -24.3837   21.9156 H   0  0  0  0  0  0
  -30.3731  -23.0320   18.2231 H   0  0  0  0  0  0
  -29.1518  -21.3267   23.6438 H   0  0  0  0  0  0
  -28.7761  -22.8305   22.8425 H   0  0  0  0  0  0
  -30.4726  -22.3268   23.0665 H   0  0  0  0  0  0
  -27.4420  -21.9449   18.0635 H   0  0  0  0  0  0
  -27.8580  -20.3765   17.4367 H   0  0  0  0  0  0
  -28.9824  -21.6912   17.1893 H   0  0  0  0  0  0
  -28.6284  -25.4994   17.7084 H   0  0  0  0  0  0
  -28.0005  -23.9002   17.4267 H   0  0  0  0  0  0
  -29.4035  -24.4542   16.5398 H   0  0  0  0  0  0
  -31.2253  -17.5871   21.1154 H   0  0  0  0  0  0
  -30.9242  -17.5017   19.4290 H   0  0  0  0  0  0
  -27.6992  -24.5427   21.3175 H   0  0  0  0  0  0
  -27.2275  -24.4075   19.6718 H   0  0  0  0  0  0
  -28.8704  -15.9909   20.7424 H   0  0  0  0  0  0
  -30.4434  -26.0589   20.3810 H   0  0  0  0  0  0
  -31.9660  -25.4711   20.5727 H   0  0  0  0  0  0
  1 25  1  0  0  0
  1 30  2  0  0  0
  1 86  1  0  0  0
  2  3  1  0  0  0
  2 25  1  0  0  0
  2 88  1  0  0  0
  2 89  1  0  0  0
  3  4  1  0  0  0
  3 90  1  0  0  0
  3 91  1  0  0  0
  4  5  1  0  0  0
  4 92  1  0  0  0
  4 93  1  0  0  0
  5  6  1  0  0  0
  5 26  1  0  0  0
  5 94  1  0  0  0
  6 25  1  0  0  0
  6 95  1  0  0  0
  6 96  1  0  0  0
  7  8  2  0  0  0
  7 26  1  0  0  0
  7 29  1  0  0  0
  8  9  1  0  0  0
  8 22  1  0  0  0
  9 10  1  0  0  0
  9 27  2  0  0  0
 10 11  2  0  0  0
 10 15  1  0  0  0
 11 12  1  0  0  0
 11 97  1  0  0  0
 12 13  2  0  0  0
 12 98  1  0  0  0
 13 14  1  0  0  0
 13 31  1  0  0  0
 14 15  2  0  0  0
 14 99  1  0  0  0
 15100  1  0  0  0
 16 17  2  0  0  0
 16 21  1  0  0  0
 16 31  1  0  0  0
 17 18  1  0  0  0
 17101  1  0  0  0
 18 19  2  0  0  0
 18102  1  0  0  0
 19 20  1  0  0  0
 19 24  1  0  0  0
 20 21  2  0  0  0
 20103  1  0  0  0
 21 23  1  0  0  0
 22 28  1  0  0  0
 22 32  2  0  0  0
 26 27  1  0  0  0
 28104  1  0  0  0
 28105  1  0  0  0
 29106  1  0  0  0
 29107  1  0  0  0
 33 34  1  0  0  0
 33 66  1  0  0  0
 33 70  2  0  0  0
 34 36  1  0  0  0
 34 59  1  0  0  0
 34108  1  0  0  0
 35 44  2  0  0  0
 35 45  1  0  0  0
 35 68  1  0  0  0
 36 56  1  0  0  0
 36109  1  0  0  0
 37 39  1  0  0  0
 37 47  1  0  0  0
 37 66  1  0  0  0
 37110  1  0  0  0
 38 43  2  0  0  0
 38 46  1  0  0  0
 38 47  1  0  0  0
 39 64  1  0  0  0
 39 67  2  0  0  0
 40 52  1  0  0  0
 40 53  2  0  0  0
 40 58  1  0  0  0
 41111  1  0  0  0
 41112  1  0  0  0
 41113  1  0  0  0
 41 48  1  0  0  0
 42 43  1  0  0  0
 42 66  1  0  0  0
 42114  1  0  0  0
 42115  1  0  0  0
 43 44  1  0  0  0
 44116  1  0  0  0
 45 46  2  0  0  0
 45117  1  0  0  0
 46118  1  0  0  0
 47119  1  0  0  0
 47120  1  0  0  0
 48 56  1  0  0  0
 48 65  1  0  0  0
 48121  1  0  0  0
 49 50  1  0  0  0
 49 53  1  0  0  0
 49 64  1  0  0  0
 49122  1  0  0  0
 50 51  1  0  0  0
 50123  1  0  0  0
 50124  1  0  0  0
 51 52  1  0  0  0
 51125  1  0  0  0
 51126  1  0  0  0
 52127  1  0  0  0
 52128  1  0  0  0
 53 54  1  0  0  0
 54 55  2  0  0  0
 54129  1  0  0  0
 55 57  1  0  0  0
 55130  1  0  0  0
 56 69  2  0  0  0
 57 58  2  0  0  0
 57131  1  0  0  0
 58132  1  0  0  0
 59 60  1  0  0  0
 59 61  1  0  0  0
 59 62  1  0  0  0
 60133  1  0  0  0
 60134  1  0  0  0
 60135  1  0  0  0
 61136  1  0  0  0
 61137  1  0  0  0
 61138  1  0  0  0
 62139  1  0  0  0
 62140  1  0  0  0
 62141  1  0  0  0
 63 65  1  0  0  0
 63142  1  0  0  0
 63143  1  0  0  0
 63144  1  0  0  0
 64145  1  0  0  0
 65146  1  0  0  0
 68 84  1  0  0  0
 71 73  2  0  0  0
 71 74  1  0  0  0
 71147  1  0  0  0
 72 73  1  0  0  0
 72 75  2  0  0  0
 72 79  1  0  0  0
 73 80  1  0  0  0
 74 83  1  0  0  0
 74 85  2  0  0  0
 75 81  1  0  0  0
 75 85  1  0  0  0
 76 78  1  0  0  0
 76 87  1  0  0  0
 76148  1  0  0  0
 76149  1  0  0  0
 77 79  1  0  0  0
 77 87  1  0  0  0
 77150  1  0  0  0
 77151  1  0  0  0
 78 79  1  0  0  0
 78 82  1  0  0  0
 78152  1  0  0  0
 79 84  1  0  0  0
 80153  1  0  0  0
 80154  1  0  0  0
 80155  1  0  0  0
 81156  1  0  0  0
 81157  1  0  0  0
 81158  1  0  0  0
 82159  1  0  0  0
 82160  1  0  0  0
 82161  1  0  0  0
 83 86  1  0  0  0
 83162  1  0  0  0
 83163  1  0  0  0
 84164  1  0  0  0
 84165  1  0  0  0
 86166  1  0  0  0
 87167  1  0  0  0
 87168  1  0  0  0
M  CHG  1  87   1
M  ISO  4   1 100  68 101  84 101  86 100
M  END
> <chiral flag>
0

> <version>
0

> <s_m_source_file>
/data/baiqing/PycharmProjects/Reinvent-master-3.2/result/LINK_invent/BTK/process_docking_weight1_custom_sum_contain_oxygen_bond_distance_aromatic_linkinvent_7_9_3/rearranged_h_0181.sdf

> <i_m_source_file_index>
96

> <r_mmod_Potential_Energy-OPLS-2005>
69.5631561279297

> <r_mmod_Stretch_Energy-OPLS-2005>
217.806991577148

> <r_mmod_Bend_Energy-OPLS-2005>
270.446716308594

> <r_mmod_Torsional_Energy-OPLS-2005>
334.391540527344

> <r_mmod_Improper_Torsional_Energy-OPLS-2005>
8.02413558959961

> <r_mmod_Van_der_Waal_Energy-OPLS-2005>
149.507308959961

> <r_mmod_Electrostatic_Energy-OPLS-2005>
-593.566284179688

> <r_mmod_Solvation_Energy-OPLS-2005>
-463.598785400391

> <b_mmod_Minimization_Converged-OPLS-2005>
0

> <r_mmod_RMS_Derivative-OPLS-2005>
0.631344735622406

$$$$
96
                    3D
 Structure written by MMmdl.
160169  0  0  1  0            999 V2000
  -30.7245  -14.4256   20.5095 C   0  0  0  0  0  0
  -30.4115  -12.2586   19.4157 C   0  0  0  0  0  0
  -29.4811  -12.4588   18.2023 C   0  0  0  0  0  0
  -28.0023  -12.3393   18.6208 C   0  0  0  0  0  0
  -27.6551  -13.1892   19.8706 C   0  0  2  0  0  0
  -28.7062  -12.9974   20.9884 C   0  0  0  0  0  0
  -25.2592  -13.8126   20.5729 C   0  0  0  0  0  0
  -24.1822  -13.0427   20.9224 C   0  0  0  0  0  0
  -24.6359  -11.6884   20.8802 C   0  0  0  0  0  0
  -23.9039  -10.4272   21.0444 C   0  0  0  0  0  0
  -24.3595   -9.4188   21.9205 C   0  0  0  0  0  0
  -23.6279   -8.2219   22.0760 C   0  0  0  0  0  0
  -22.4267   -8.0265   21.3552 C   0  0  0  0  0  0
  -21.9898   -9.0249   20.4664 C   0  0  0  0  0  0
  -22.7223  -10.2124   20.3078 C   0  0  0  0  0  0
  -21.6833   -6.0744   22.5285 C   0  0  0  0  0  0
  -21.4006   -6.5655   23.8226 C   0  0  0  0  0  0
  -21.3655   -5.6807   24.9186 C   0  0  0  0  0  0
  -21.6037   -4.3067   24.7228 C   0  0  0  0  0  0
  -21.8821   -3.8163   23.4351 C   0  0  0  0  0  0
  -21.9188   -4.6980   22.3408 C   0  0  0  0  0  0
  -22.7845  -13.5237   21.1872 C   0  0  0  0  0  0
  -22.1660   -4.2172   21.0985 F   0  0  0  0  0  0
  -21.5619   -3.4550   25.7740 F   0  0  0  0  0  0
  -30.0365  -13.2600   20.4166 N   0  0  0  0  0  0
  -26.2990  -12.9252   20.3415 N   0  0  0  0  0  0
  -25.9276  -11.6436   20.5839 N   0  0  0  0  0  0
  -22.0483  -12.8228   22.0425 N   0  0  0  0  0  0
  -25.4376  -15.1842   20.4134 N   0  0  0  0  0  0
  -31.9029  -14.5557   20.1624 O   0  0  0  0  0  0
  -21.6622   -6.8876   21.4243 O   0  0  0  0  0  0
  -22.3539  -14.5545   20.6723 O   0  0  0  0  0  0
  -24.6102  -31.8724   23.2149 C   0  0  0  0  0  0
  -25.9012  -32.4843   23.8425 C   0  0  1  0  0  0
  -27.2290  -27.4568   20.0834 C   0  0  0  0  0  0
  -25.5894  -33.8646   24.2359 N   0  0  0  0  0  0
  -23.3961  -30.4958   21.5576 C   0  0  2  0  0  0
  -24.8396  -28.9703   20.1164 C   0  0  0  0  0  0
  -22.7390  -29.4655   22.5023 C   0  0  0  0  0  0
  -18.0266  -28.1364   22.8482 C   0  0  0  0  0  0
  -24.1494  -36.7329   23.2634 C   0  0  0  0  0  0
  -25.9225  -30.8436   21.3634 C   0  0  0  0  0  0
  -26.0000  -29.4801   20.7102 C   0  0  0  0  0  0
  -27.1971  -28.7302   20.6928 C   0  0  0  0  0  0
  -26.0479  -26.9673   19.4734 C   0  0  0  0  0  0
  -24.8565  -27.7106   19.4970 C   0  0  0  0  0  0
  -23.5996  -29.8322   20.1711 C   0  0  0  0  0  0
  -25.4111  -36.3129   24.0342 C   0  0  1  0  0  0
  -20.5852  -28.3645   23.1340 C   0  0  2  0  0  0
  -20.6750  -26.9389   22.5419 C   0  0  0  0  0  0
  -19.5737  -26.6381   21.5210 C   0  0  0  0  0  0
  -18.1918  -26.7910   22.1623 C   0  0  0  0  0  0
  -19.1514  -28.8830   23.2908 C   0  0  0  0  0  0
  -18.9436  -30.1435   23.8919 C   0  0  0  0  0  0
  -17.6440  -30.6581   24.0554 C   0  0  0  0  0  0
  -25.9032  -34.9489   23.5146 C   0  0  0  0  0  0
  -16.5336  -29.9071   23.6315 C   0  0  0  0  0  0
  -16.7255  -28.6483   23.0342 C   0  0  0  0  0  0
  -26.4453  -31.6598   25.0725 C   0  0  0  0  0  0
  -25.3724  -31.3683   26.1470 C   0  0  0  0  0  0
  -27.0266  -30.3047   24.6066 C   0  0  0  0  0  0
  -27.6055  -32.4285   25.7480 C   0  0  0  0  0  0
  -27.5583  -37.1828   24.8466 C   0  0  0  0  0  0
  -21.4126  -29.3017   22.3756 N   0  0  0  0  0  0
  -26.4303  -37.3799   23.9394 N   0  0  0  0  0  0
  -24.6607  -31.0835   22.1041 N   0  0  0  0  0  0
  -23.4171  -28.8193   23.3058 O   0  0  0  0  0  0
  -28.4014  -26.7303   20.1066 O   0  0  0  0  0  0
  -26.5587  -34.8925   22.4702 O   0  0  0  0  0  0
  -23.5304  -32.1465   23.7564 O   0  0  0  0  0  0
  -28.2718  -21.1384   21.1392 C   0  0  0  0  0  0
  -28.0584  -22.4879   21.1426 C   0  0  0  0  0  0
  -30.2056  -22.1662   20.5381 C   0  0  0  0  0  0
  -29.6297  -20.9511   20.7655 C   0  0  0  0  0  0
  -29.4545  -17.6992   21.8501 C   0  0  0  0  0  0
  -30.0836  -17.6491   19.3790 C   0  0  0  0  0  0
  -30.2771  -16.3920   21.8379 C   0  0  0  0  0  0
  -29.5297  -16.2230   19.4640 C   0  0  0  0  0  0
  -29.5345  -18.4990   20.5284 C   0  0  0  0  0  0
  -29.4371  -24.5752   20.6799 C   0  0  0  0  0  0
  -28.2640  -25.3092   20.0091 C   0  0  0  0  0  0
  -29.2325  -23.1307   20.7629 N   0  0  0  0  0  0
  -29.9602  -15.5206   20.6930 N   0  0  0  0  0  0
  -30.3043  -19.7304   20.6669 N   0  0  0  0  0  0
  -31.4554  -12.3388   19.1096 H   0  0  0  0  0  0
  -30.2962  -11.2567   19.8339 H   0  0  0  0  0  0
  -29.7074  -11.7183   17.4346 H   0  0  0  0  0  0
  -29.6605  -13.4340   17.7507 H   0  0  0  0  0  0
  -27.8039  -11.2865   18.8253 H   0  0  0  0  0  0
  -27.3495  -12.6140   17.7897 H   0  0  0  0  0  0
  -27.6851  -14.2253   19.5512 H   0  0  0  0  0  0
  -28.6681  -11.9787   21.3748 H   0  0  0  0  0  0
  -28.4950  -13.6486   21.8381 H   0  0  0  0  0  0
  -25.2738   -9.5651   22.4783 H   0  0  0  0  0  0
  -24.0000   -7.4597   22.7453 H   0  0  0  0  0  0
  -21.0842   -8.8775   19.8949 H   0  0  0  0  0  0
  -22.3703  -10.9680   19.6194 H   0  0  0  0  0  0
  -21.2005   -7.6164   23.9740 H   0  0  0  0  0  0
  -21.1469   -6.0535   25.9094 H   0  0  0  0  0  0
  -22.0600   -2.7626   23.2847 H   0  0  0  0  0  0
  -22.4096  -11.9875   22.4796 H   0  0  0  0  0  0
  -21.1118  -13.1266   22.2680 H   0  0  0  0  0  0
  -24.6808  -15.8472   20.5403 H   0  0  0  0  0  0
  -26.3061  -15.6193   20.1298 H   0  0  0  0  0  0
  -26.7076  -32.5570   23.1185 H   0  0  0  0  0  0
  -25.0027  -33.9828   25.0490 H   0  0  0  0  0  0
  -22.6817  -31.3110   21.4242 H   0  0  0  0  0  0
  -23.3749  -35.9668   23.3323 H   0  0  0  0  0  0
  -24.3576  -36.8912   22.2042 H   0  0  0  0  0  0
  -23.7275  -37.6558   23.6625 H   0  0  0  0  0  0
  -26.0285  -31.6100   20.5946 H   0  0  0  0  0  0
  -26.8109  -30.8972   21.9802 H   0  0  0  0  0  0
  -28.0923  -29.1172   21.1583 H   0  0  0  0  0  0
  -26.0272  -26.0115   18.9710 H   0  0  0  0  0  0
  -23.9637  -27.3145   19.0335 H   0  0  0  0  0  0
  -23.7033  -30.6085   19.4125 H   0  0  0  0  0  0
  -22.7226  -29.2518   19.8783 H   0  0  0  0  0  0
  -25.1289  -36.2006   25.0838 H   0  0  0  0  0  0
  -20.9941  -28.3203   24.1468 H   0  0  0  0  0  0
  -20.5654  -26.2255   23.3598 H   0  0  0  0  0  0
  -21.6619  -26.7430   22.1228 H   0  0  0  0  0  0
  -19.6901  -25.6301   21.1226 H   0  0  0  0  0  0
  -19.6691  -27.3197   20.6755 H   0  0  0  0  0  0
  -17.4190  -26.6662   21.4025 H   0  0  0  0  0  0
  -18.0325  -26.0047   22.9024 H   0  0  0  0  0  0
  -19.7914  -30.7238   24.2308 H   0  0  0  0  0  0
  -17.4997  -31.6263   24.5138 H   0  0  0  0  0  0
  -15.5331  -30.2976   23.7644 H   0  0  0  0  0  0
  -15.8654  -28.0815   22.7048 H   0  0  0  0  0  0
  -24.5906  -30.7021   25.7793 H   0  0  0  0  0  0
  -24.8888  -32.2822   26.4931 H   0  0  0  0  0  0
  -25.8064  -30.8839   27.0227 H   0  0  0  0  0  0
  -26.2797  -29.6848   24.1079 H   0  0  0  0  0  0
  -27.4014  -29.7243   25.4512 H   0  0  0  0  0  0
  -27.8647  -30.4380   23.9217 H   0  0  0  0  0  0
  -27.2706  -33.3571   26.2116 H   0  0  0  0  0  0
  -28.3834  -32.6862   25.0279 H   0  0  0  0  0  0
  -28.0752  -31.8360   26.5348 H   0  0  0  0  0  0
  -28.2626  -38.0098   24.7466 H   0  0  0  0  0  0
  -28.1064  -36.2637   24.6353 H   0  0  0  0  0  0
  -27.2288  -37.1529   25.8864 H   0  0  0  0  0  0
  -20.9287  -29.8757   21.6994 H   0  0  0  0  0  0
  -26.0216  -38.2891   24.1361 H   0  0  0  0  0  0
  -27.5326  -20.3932   21.3949 H   0  0  0  0  0  0
  -27.1610  -23.0386   21.3909 H   0  0  0  0  0  0
  -31.2115  -22.4381   20.2442 H   0  0  0  0  0  0
  -29.7398  -18.3138   22.7049 H   0  0  0  0  0  0
  -28.4121  -17.4290   22.0239 H   0  0  0  0  0  0
  -29.8096  -18.0979   18.4224 H   0  0  0  0  0  0
  -31.1740  -17.6069   19.3949 H   0  0  0  0  0  0
  -30.1025  -15.8432   22.7642 H   0  0  0  0  0  0
  -31.3414  -16.6399   21.8208 H   0  0  0  0  0  0
  -28.4431  -16.2728   19.4534 H   0  0  0  0  0  0
  -29.8150  -15.6814   18.5593 H   0  0  0  0  0  0
  -28.5105  -18.7495   20.2472 H   0  0  0  0  0  0
  -29.5829  -24.9510   21.6923 H   0  0  0  0  0  0
  -30.3586  -24.7752   20.1319 H   0  0  0  0  0  0
  -27.3440  -25.0033   20.5033 H   0  0  0  0  0  0
  -28.1901  -25.0136   18.9629 H   0  0  0  0  0  0
  -31.2673  -19.7325   20.3421 H   0  0  0  0  0  0
  1 25  1  0  0  0
  1 30  2  0  0  0
  1 83  1  0  0  0
  2  3  1  0  0  0
  2 25  1  0  0  0
  2 85  1  0  0  0
  2 86  1  0  0  0
  3  4  1  0  0  0
  3 87  1  0  0  0
  3 88  1  0  0  0
  4  5  1  0  0  0
  4 89  1  0  0  0
  4 90  1  0  0  0
  5  6  1  0  0  0
  5 26  1  0  0  0
  5 91  1  0  0  0
  6 25  1  0  0  0
  6 92  1  0  0  0
  6 93  1  0  0  0
  7  8  2  0  0  0
  7 26  1  0  0  0
  7 29  1  0  0  0
  8  9  1  0  0  0
  8 22  1  0  0  0
  9 10  1  0  0  0
  9 27  2  0  0  0
 10 11  2  0  0  0
 10 15  1  0  0  0
 11 12  1  0  0  0
 11 94  1  0  0  0
 12 13  2  0  0  0
 12 95  1  0  0  0
 13 14  1  0  0  0
 13 31  1  0  0  0
 14 15  2  0  0  0
 14 96  1  0  0  0
 15 97  1  0  0  0
 16 17  2  0  0  0
 16 21  1  0  0  0
 16 31  1  0  0  0
 17 18  1  0  0  0
 17 98  1  0  0  0
 18 19  2  0  0  0
 18 99  1  0  0  0
 19 20  1  0  0  0
 19 24  1  0  0  0
 20 21  2  0  0  0
 20100  1  0  0  0
 21 23  1  0  0  0
 22 28  1  0  0  0
 22 32  2  0  0  0
 26 27  1  0  0  0
 28101  1  0  0  0
 28102  1  0  0  0
 29103  1  0  0  0
 29104  1  0  0  0
 33 34  1  0  0  0
 33 66  1  0  0  0
 33 70  2  0  0  0
 34 36  1  0  0  0
 34 59  1  0  0  0
 34105  1  0  0  0
 35 44  2  0  0  0
 35 45  1  0  0  0
 35 68  1  0  0  0
 36 56  1  0  0  0
 36106  1  0  0  0
 37 39  1  0  0  0
 37 47  1  0  0  0
 37 66  1  0  0  0
 37107  1  0  0  0
 38 43  2  0  0  0
 38 46  1  0  0  0
 38 47  1  0  0  0
 39 64  1  0  0  0
 39 67  2  0  0  0
 40 52  1  0  0  0
 40 53  2  0  0  0
 40 58  1  0  0  0
 41108  1  0  0  0
 41109  1  0  0  0
 41110  1  0  0  0
 41 48  1  0  0  0
 42 43  1  0  0  0
 42 66  1  0  0  0
 42111  1  0  0  0
 42112  1  0  0  0
 43 44  1  0  0  0
 44113  1  0  0  0
 45 46  2  0  0  0
 45114  1  0  0  0
 46115  1  0  0  0
 47116  1  0  0  0
 47117  1  0  0  0
 48 56  1  0  0  0
 48 65  1  0  0  0
 48118  1  0  0  0
 49 50  1  0  0  0
 49 53  1  0  0  0
 49 64  1  0  0  0
 49119  1  0  0  0
 50 51  1  0  0  0
 50120  1  0  0  0
 50121  1  0  0  0
 51 52  1  0  0  0
 51122  1  0  0  0
 51123  1  0  0  0
 52124  1  0  0  0
 52125  1  0  0  0
 53 54  1  0  0  0
 54 55  2  0  0  0
 54126  1  0  0  0
 55 57  1  0  0  0
 55127  1  0  0  0
 56 69  2  0  0  0
 57 58  2  0  0  0
 57128  1  0  0  0
 58129  1  0  0  0
 59 60  1  0  0  0
 59 61  1  0  0  0
 59 62  1  0  0  0
 60130  1  0  0  0
 60131  1  0  0  0
 60132  1  0  0  0
 61133  1  0  0  0
 61134  1  0  0  0
 61135  1  0  0  0
 62136  1  0  0  0
 62137  1  0  0  0
 62138  1  0  0  0
 63 65  1  0  0  0
 63139  1  0  0  0
 63140  1  0  0  0
 63141  1  0  0  0
 64142  1  0  0  0
 65143  1  0  0  0
 68 81  1  0  0  0
 71 72  2  0  0  0
 71 74  1  0  0  0
 71144  1  0  0  0
 72 82  1  0  0  0
 72145  1  0  0  0
 73 74  2  0  0  0
 73 82  1  0  0  0
 73146  1  0  0  0
 74 84  1  0  0  0
 75 77  1  0  0  0
 75 79  1  0  0  0
 75147  1  0  0  0
 75148  1  0  0  0
 76 78  1  0  0  0
 76 79  1  0  0  0
 76149  1  0  0  0
 76150  1  0  0  0
 77 83  1  0  0  0
 77151  1  0  0  0
 77152  1  0  0  0
 78 83  1  0  0  0
 78153  1  0  0  0
 78154  1  0  0  0
 79 84  1  0  0  0
 79155  1  0  0  0
 80 81  1  0  0  0
 80 82  1  0  0  0
 80156  1  0  0  0
 80157  1  0  0  0
 81158  1  0  0  0
 81159  1  0  0  0
 84160  1  0  0  0
M  ISO  4   1 100  68 101  81 101  83 100
M  END
> <chiral flag>
0

> <version>
0

> <s_m_source_file>
/data/baiqing/PycharmProjects/Reinvent-master-3.2/result/LINK_invent/BTK/process_docking_weight1_custom_sum_contain_oxygen_bond_distance_aromatic_linkinvent_7_9_3/rearranged_h_0181.sdf

> <i_m_source_file_index>
97

> <r_mmod_Potential_Energy-OPLS-2005>
154.51220703125

> <r_mmod_Stretch_Energy-OPLS-2005>
32.9059906005859

> <r_mmod_Bend_Energy-OPLS-2005>
105.359252929688

> <r_mmod_Torsional_Energy-OPLS-2005>
362.635314941406

> <r_mmod_Improper_Torsional_Energy-OPLS-2005>
12.2954473495483

> <r_mmod_Van_der_Waal_Energy-OPLS-2005>
150.669616699219

> <r_mmod_Electrostatic_Energy-OPLS-2005>
-316.762023925781

> <r_mmod_Solvation_Energy-OPLS-2005>
-208.778244018555

> <b_mmod_Minimization_Converged-OPLS-2005>
0

> <r_mmod_RMS_Derivative-OPLS-2005>
2.80697154998779

$$$$
97
                    3D
 Structure written by MMmdl.
154163  0  0  1  0            999 V2000
  -30.5275  -14.9735   20.4315 C   0  0  0  0  0  0
  -30.4435  -12.6113   19.5203 C   0  0  0  0  0  0
  -29.5326  -12.5327   18.2723 C   0  0  0  0  0  0
  -28.0657  -12.3001   18.6824 C   0  0  0  0  0  0
  -27.6241  -13.2463   19.8279 C   0  0  2  0  0  0
  -28.6528  -13.2961   20.9752 C   0  0  0  0  0  0
  -25.2436  -13.8212   20.5655 C   0  0  0  0  0  0
  -24.1759  -13.0441   20.9196 C   0  0  0  0  0  0
  -24.6356  -11.6910   20.8714 C   0  0  0  0  0  0
  -23.9032  -10.4288   21.0385 C   0  0  0  0  0  0
  -24.3602   -9.4215   21.9176 C   0  0  0  0  0  0
  -23.6279   -8.2247   22.0748 C   0  0  0  0  0  0
  -22.4257   -8.0273   21.3533 C   0  0  0  0  0  0
  -21.9872   -9.0234   20.4636 C   0  0  0  0  0  0
  -22.7193  -10.2120   20.3040 C   0  0  0  0  0  0
  -21.6845   -6.0736   22.5283 C   0  0  0  0  0  0
  -21.4029   -6.5637   23.8225 C   0  0  0  0  0  0
  -21.3667   -5.6782   24.9175 C   0  0  0  0  0  0
  -21.6038   -4.3042   24.7220 C   0  0  0  0  0  0
  -21.8830   -3.8138   23.4343 C   0  0  0  0  0  0
  -21.9190   -4.6963   22.3399 C   0  0  0  0  0  0
  -22.7776  -13.5209   21.1849 C   0  0  0  0  0  0
  -22.1645   -4.2155   21.0970 F   0  0  0  0  0  0
  -21.5628   -3.4525   25.7743 F   0  0  0  0  0  0
  -29.9351  -13.7121   20.3906 N   0  0  0  0  0  0
  -26.2828  -12.9415   20.3134 N   0  0  0  0  0  0
  -25.9285  -11.6556   20.5675 N   0  0  0  0  0  0
  -22.0400  -12.8250   22.0425 N   0  0  0  0  0  0
  -25.4128  -15.1959   20.4098 N   0  0  0  0  0  0
  -31.7294  -15.0347   20.1513 O   0  0  0  0  0  0
  -21.6622   -6.8881   21.4245 O   0  0  0  0  0  0
  -22.3438  -14.5464   20.6606 O   0  0  0  0  0  0
  -24.6470  -31.8408   23.1860 C   0  0  0  0  0  0
  -25.9232  -32.4685   23.8243 C   0  0  1  0  0  0
  -27.2124  -27.1074   20.1733 C   0  0  0  0  0  0
  -25.5971  -33.8496   24.2177 N   0  0  0  0  0  0
  -23.4504  -30.4596   21.5300 C   0  0  2  0  0  0
  -24.9030  -28.8834   20.1095 C   0  0  0  0  0  0
  -22.7568  -29.4527   22.4816 C   0  0  0  0  0  0
  -18.0290  -28.1424   22.8463 C   0  0  0  0  0  0
  -24.1482  -36.7238   23.2631 C   0  0  0  0  0  0
  -26.0071  -30.7114   21.3834 C   0  0  0  0  0  0
  -26.0812  -29.3172   20.7319 C   0  0  0  0  0  0
  -27.2407  -28.4502   20.7396 C   0  0  0  0  0  0
  -26.0130  -26.7830   19.5044 C   0  0  0  0  0  0
  -24.8844  -27.6322   19.4743 C   0  0  0  0  0  0
  -23.6821  -29.7902   20.1493 C   0  0  0  0  0  0
  -25.4112  -36.3009   24.0302 C   0  0  1  0  0  0
  -20.5909  -28.3735   23.1246 C   0  0  2  0  0  0
  -20.6789  -26.9434   22.5418 C   0  0  0  0  0  0
  -19.5763  -26.6395   21.5223 C   0  0  0  0  0  0
  -18.1943  -26.7958   22.1627 C   0  0  0  0  0  0
  -19.1551  -28.8900   23.2839 C   0  0  0  0  0  0
  -18.9465  -30.1497   23.8856 C   0  0  0  0  0  0
  -17.6471  -30.6614   24.0571 C   0  0  0  0  0  0
  -25.9063  -34.9401   23.5041 C   0  0  0  0  0  0
  -16.5357  -29.9116   23.6344 C   0  0  0  0  0  0
  -16.7285  -28.6545   23.0349 C   0  0  0  0  0  0
  -26.4552  -31.6556   25.0687 C   0  0  0  0  0  0
  -25.3743  -31.3756   26.1383 C   0  0  0  0  0  0
  -27.0413  -30.2947   24.6263 C   0  0  0  0  0  0
  -27.6067  -32.4337   25.7484 C   0  0  0  0  0  0
  -27.5567  -37.1766   24.8466 C   0  0  0  0  0  0
  -21.4252  -29.3045   22.3590 N   0  0  0  0  0  0
  -26.4259  -37.3748   23.9416 N   0  0  0  0  0  0
  -24.7216  -31.0265   22.0873 N   0  0  0  0  0  0
  -23.4212  -28.8050   23.2952 O   0  0  0  0  0  0
  -28.2586  -26.1084   20.2045 O   0  0  0  0  0  0
  -26.5651  -34.8921   22.4614 O   0  0  0  0  0  0
  -23.5591  -32.1257   23.7090 O   0  0  0  0  0  0
  -28.0585  -18.8281   21.6748 C   0  0  0  0  0  0
  -27.4483  -20.9437   20.2015 C   0  0  0  0  0  0
  -29.7648  -20.6024   20.5249 C   0  0  0  0  0  0
  -27.7330  -19.4107   20.3294 C   0  0  1  0  0  0
  -29.1797  -19.0890   20.6840 C   0  0  2  0  0  0
  -30.1066  -17.7087   20.3923 C   0  0  0  0  0  0
  -28.8397  -23.2026   20.0338 C   0  0  0  0  0  0
  -27.9952  -24.5928   20.5542 C   0  0  0  0  0  0
  -29.7517  -16.1670   20.5785 N   0  0  0  0  0  0
  -28.6625  -21.7145   20.6145 N   0  3  1  0  0  0
  -31.4763  -12.7800   19.2095 H   0  0  0  0  0  0
  -30.4473  -11.6681   20.0664 H   0  0  0  0  0  0
  -29.8717  -11.7414   17.6030 H   0  0  0  0  0  0
  -29.6089  -13.4685   17.7169 H   0  0  0  0  0  0
  -27.9759  -11.2622   19.0056 H   0  0  0  0  0  0
  -27.4072  -12.4076   17.8208 H   0  0  0  0  0  0
  -27.5855  -14.2423   19.3831 H   0  0  0  0  0  0
  -28.7378  -12.3333   21.4781 H   0  0  0  0  0  0
  -28.3261  -14.0164   21.7283 H   0  0  0  0  0  0
  -25.2761   -9.5707   22.4717 H   0  0  0  0  0  0
  -24.0000   -7.4656   22.7465 H   0  0  0  0  0  0
  -21.0812   -8.8724   19.8956 H   0  0  0  0  0  0
  -22.3638  -10.9630   19.6124 H   0  0  0  0  0  0
  -21.2042   -7.6153   23.9726 H   0  0  0  0  0  0
  -21.1458   -6.0508   25.9089 H   0  0  0  0  0  0
  -22.0606   -2.7596   23.2827 H   0  0  0  0  0  0
  -22.3998  -11.9959   22.4919 H   0  0  0  0  0  0
  -21.1004  -13.1298   22.2563 H   0  0  0  0  0  0
  -24.6426  -15.8468   20.5137 H   0  0  0  0  0  0
  -26.2625  -15.6320   20.0766 H   0  0  0  0  0  0
  -26.7290  -32.5285   23.0966 H   0  0  0  0  0  0
  -25.0144  -33.9604   25.0343 H   0  0  0  0  0  0
  -22.7511  -31.2834   21.3743 H   0  0  0  0  0  0
  -23.3774  -35.9552   23.3284 H   0  0  0  0  0  0
  -24.3536  -36.8881   22.2048 H   0  0  0  0  0  0
  -23.7244  -37.6425   23.6682 H   0  0  0  0  0  0
  -26.1614  -31.4627   20.6083 H   0  0  0  0  0  0
  -26.8799  -30.7636   22.0237 H   0  0  0  0  0  0
  -28.1432  -28.7862   21.2322 H   0  0  0  0  0  0
  -25.9287  -25.8299   19.0035 H   0  0  0  0  0  0
  -23.9898  -27.2951   18.9676 H   0  0  0  0  0  0
  -23.8258  -30.5643   19.3953 H   0  0  0  0  0  0
  -22.7974  -29.2350   19.8334 H   0  0  0  0  0  0
  -25.1317  -36.1794   25.0795 H   0  0  0  0  0  0
  -20.9985  -28.3337   24.1379 H   0  0  0  0  0  0
  -20.5702  -26.2322   23.3621 H   0  0  0  0  0  0
  -21.6648  -26.7462   22.1194 H   0  0  0  0  0  0
  -19.6903  -25.6294   21.1278 H   0  0  0  0  0  0
  -19.6731  -27.3191   20.6747 H   0  0  0  0  0  0
  -17.4205  -26.6696   21.4040 H   0  0  0  0  0  0
  -18.0339  -26.0113   22.9039 H   0  0  0  0  0  0
  -19.7939  -30.7324   24.2210 H   0  0  0  0  0  0
  -17.5029  -31.6280   24.5184 H   0  0  0  0  0  0
  -15.5364  -30.3023   23.7694 H   0  0  0  0  0  0
  -15.8675  -28.0874   22.7095 H   0  0  0  0  0  0
  -24.5910  -30.7118   25.7709 H   0  0  0  0  0  0
  -24.8967  -32.2958   26.4759 H   0  0  0  0  0  0
  -25.8031  -30.8947   27.0182 H   0  0  0  0  0  0
  -26.3015  -29.6660   24.1295 H   0  0  0  0  0  0
  -27.4056  -29.7258   25.4829 H   0  0  0  0  0  0
  -27.8917  -30.4199   23.9560 H   0  0  0  0  0  0
  -27.2625  -33.3632   26.2037 H   0  0  0  0  0  0
  -28.3899  -32.6908   25.0340 H   0  0  0  0  0  0
  -28.0707  -31.8475   26.5425 H   0  0  0  0  0  0
  -28.2577  -38.0077   24.7520 H   0  0  0  0  0  0
  -28.1067  -36.2601   24.6278 H   0  0  0  0  0  0
  -27.2258  -37.1391   25.8862 H   0  0  0  0  0  0
  -20.9443  -29.8746   21.6769 H   0  0  0  0  0  0
  -26.0111  -38.2791   24.1495 H   0  0  0  0  0  0
  -27.7479  -17.7987   21.8476 H   0  0  0  0  0  0
  -28.0231  -19.4613   22.5581 H   0  0  0  0  0  0
  -26.5931  -21.2229   20.8187 H   0  0  0  0  0  0
  -27.1920  -21.1644   19.1660 H   0  0  0  0  0  0
  -30.2512  -20.6706   19.5518 H   0  0  0  0  0  0
  -30.5441  -20.7811   21.2653 H   0  0  0  0  0  0
  -27.2173  -18.7685   19.6152 H   0  0  0  0  0  0
  -30.4701  -17.8017   19.3690 H   0  0  0  0  0  0
  -31.0032  -17.8462   21.0004 H   0  0  0  0  0  0
  -28.6861  -23.1269   18.9578 H   0  0  0  0  0  0
  -29.8985  -23.4301   20.1459 H   0  0  0  0  0  0
  -28.0866  -24.5790   21.6415 H   0  0  0  0  0  0
  -26.9381  -24.3898   20.3936 H   0  0  0  0  0  0
  -28.7776  -15.9928   20.7734 H   0  0  0  0  0  0
  -28.5614  -21.8466   21.6098 H   0  0  0  0  0  0
  1 25  1  0  0  0
  1 30  2  0  0  0
  1 79  1  0  0  0
  2  3  1  0  0  0
  2 25  1  0  0  0
  2 81  1  0  0  0
  2 82  1  0  0  0
  3  4  1  0  0  0
  3 83  1  0  0  0
  3 84  1  0  0  0
  4  5  1  0  0  0
  4 85  1  0  0  0
  4 86  1  0  0  0
  5  6  1  0  0  0
  5 26  1  0  0  0
  5 87  1  0  0  0
  6 25  1  0  0  0
  6 88  1  0  0  0
  6 89  1  0  0  0
  7  8  2  0  0  0
  7 26  1  0  0  0
  7 29  1  0  0  0
  8  9  1  0  0  0
  8 22  1  0  0  0
  9 10  1  0  0  0
  9 27  2  0  0  0
 10 11  2  0  0  0
 10 15  1  0  0  0
 11 12  1  0  0  0
 11 90  1  0  0  0
 12 13  2  0  0  0
 12 91  1  0  0  0
 13 14  1  0  0  0
 13 31  1  0  0  0
 14 15  2  0  0  0
 14 92  1  0  0  0
 15 93  1  0  0  0
 16 17  2  0  0  0
 16 21  1  0  0  0
 16 31  1  0  0  0
 17 18  1  0  0  0
 17 94  1  0  0  0
 18 19  2  0  0  0
 18 95  1  0  0  0
 19 20  1  0  0  0
 19 24  1  0  0  0
 20 21  2  0  0  0
 20 96  1  0  0  0
 21 23  1  0  0  0
 22 28  1  0  0  0
 22 32  2  0  0  0
 26 27  1  0  0  0
 28 97  1  0  0  0
 28 98  1  0  0  0
 29 99  1  0  0  0
 29100  1  0  0  0
 33 34  1  0  0  0
 33 66  1  0  0  0
 33 70  2  0  0  0
 34 36  1  0  0  0
 34 59  1  0  0  0
 34101  1  0  0  0
 35 44  2  0  0  0
 35 45  1  0  0  0
 35 68  1  0  0  0
 36 56  1  0  0  0
 36102  1  0  0  0
 37 39  1  0  0  0
 37 47  1  0  0  0
 37 66  1  0  0  0
 37103  1  0  0  0
 38 43  2  0  0  0
 38 46  1  0  0  0
 38 47  1  0  0  0
 39 64  1  0  0  0
 39 67  2  0  0  0
 40 52  1  0  0  0
 40 53  2  0  0  0
 40 58  1  0  0  0
 41104  1  0  0  0
 41105  1  0  0  0
 41106  1  0  0  0
 41 48  1  0  0  0
 42 43  1  0  0  0
 42 66  1  0  0  0
 42107  1  0  0  0
 42108  1  0  0  0
 43 44  1  0  0  0
 44109  1  0  0  0
 45 46  2  0  0  0
 45110  1  0  0  0
 46111  1  0  0  0
 47112  1  0  0  0
 47113  1  0  0  0
 48 56  1  0  0  0
 48 65  1  0  0  0
 48114  1  0  0  0
 49 50  1  0  0  0
 49 53  1  0  0  0
 49 64  1  0  0  0
 49115  1  0  0  0
 50 51  1  0  0  0
 50116  1  0  0  0
 50117  1  0  0  0
 51 52  1  0  0  0
 51118  1  0  0  0
 51119  1  0  0  0
 52120  1  0  0  0
 52121  1  0  0  0
 53 54  1  0  0  0
 54 55  2  0  0  0
 54122  1  0  0  0
 55 57  1  0  0  0
 55123  1  0  0  0
 56 69  2  0  0  0
 57 58  2  0  0  0
 57124  1  0  0  0
 58125  1  0  0  0
 59 60  1  0  0  0
 59 61  1  0  0  0
 59 62  1  0  0  0
 60126  1  0  0  0
 60127  1  0  0  0
 60128  1  0  0  0
 61129  1  0  0  0
 61130  1  0  0  0
 61131  1  0  0  0
 62132  1  0  0  0
 62133  1  0  0  0
 62134  1  0  0  0
 63 65  1  0  0  0
 63135  1  0  0  0
 63136  1  0  0  0
 63137  1  0  0  0
 64138  1  0  0  0
 65139  1  0  0  0
 68 78  1  0  0  0
 71 75  1  0  0  0
 71140  1  0  0  0
 71141  1  0  0  0
 71 74  1  0  0  0
 72 74  1  0  0  0
 72 80  1  0  0  0
 72142  1  0  0  0
 72143  1  0  0  0
 73 75  1  0  0  0
 73 80  1  0  0  0
 73144  1  0  0  0
 73145  1  0  0  0
 74 75  1  0  0  0
 74146  1  0  0  0
 75 76  1  0  0  0
 76 79  1  0  0  0
 76147  1  0  0  0
 76148  1  0  0  0
 77 78  1  0  0  0
 77149  1  0  0  0
 77150  1  0  0  0
 77 80  1  0  0  0
 78151  1  0  0  0
 78152  1  0  0  0
 79153  1  0  0  0
 80154  1  0  0  0
M  CHG  1  80   1
M  ISO  4   1 100  68 101  78 101  79 100
M  END
> <chiral flag>
0

> <version>
0

> <s_m_source_file>
/data/baiqing/PycharmProjects/Reinvent-master-3.2/result/LINK_invent/BTK/process_docking_weight1_custom_sum_contain_oxygen_bond_distance_aromatic_linkinvent_7_9_3/rearranged_h_0181.sdf

> <i_m_source_file_index>
98

> <r_mmod_Potential_Energy-OPLS-2005>
584.868713378906

> <r_mmod_Stretch_Energy-OPLS-2005>
287.50927734375

> <r_mmod_Bend_Energy-OPLS-2005>
319.981689453125

> <r_mmod_Torsional_Energy-OPLS-2005>
345.233276367188

> <r_mmod_Improper_Torsional_Energy-OPLS-2005>
4.28047800064087

> <r_mmod_Van_der_Waal_Energy-OPLS-2005>
105.380104064941

> <r_mmod_Electrostatic_Energy-OPLS-2005>
-242.9345703125

> <r_mmod_Solvation_Energy-OPLS-2005>
-449.976623535156

> <b_mmod_Minimization_Converged-OPLS-2005>
0

> <r_mmod_RMS_Derivative-OPLS-2005>
4.4211630821228

$$$$
98
                    3D
 Structure written by MMmdl.
147156  0  0  1  0            999 V2000
  -30.3316  -15.5432   20.3298 C   0  0  0  0  0  0
  -30.4286  -13.0046   19.5485 C   0  0  0  0  0  0
  -29.5488  -12.6365   18.3210 C   0  0  0  0  0  0
  -28.1140  -12.3010   18.7555 C   0  0  0  0  0  0
  -27.6001  -13.2999   19.8180 C   0  0  2  0  0  0
  -28.6185  -13.5895   20.9456 C   0  0  0  0  0  0
  -25.2333  -13.8275   20.5777 C   0  0  0  0  0  0
  -24.1717  -13.0433   20.9284 C   0  0  0  0  0  0
  -24.6408  -11.6942   20.8766 C   0  0  0  0  0  0
  -23.9110  -10.4292   21.0401 C   0  0  0  0  0  0
  -24.3648   -9.4205   21.9182 C   0  0  0  0  0  0
  -23.6311   -8.2245   22.0754 C   0  0  0  0  0  0
  -22.4291   -8.0286   21.3545 C   0  0  0  0  0  0
  -21.9937   -9.0261   20.4644 C   0  0  0  0  0  0
  -22.7278  -10.2134   20.3051 C   0  0  0  0  0  0
  -21.6858   -6.0740   22.5279 C   0  0  0  0  0  0
  -21.4018   -6.5642   23.8213 C   0  0  0  0  0  0
  -21.3660   -5.6794   24.9174 C   0  0  0  0  0  0
  -21.6044   -4.3057   24.7224 C   0  0  0  0  0  0
  -21.8818   -3.8149   23.4345 C   0  0  0  0  0  0
  -21.9194   -4.6967   22.3401 C   0  0  0  0  0  0
  -22.7730  -13.5169   21.1920 C   0  0  0  0  0  0
  -22.1662   -4.2153   21.0979 F   0  0  0  0  0  0
  -21.5627   -3.4540   25.7736 F   0  0  0  0  0  0
  -29.8138  -14.1817   20.3066 N   0  0  0  0  0  0
  -26.2776  -12.9593   20.3225 N   0  0  0  0  0  0
  -25.9351  -11.6673   20.5707 N   0  0  0  0  0  0
  -22.0394  -12.8146   22.0471 N   0  0  0  0  0  0
  -25.3928  -15.2015   20.4204 N   0  0  0  0  0  0
  -31.5600  -15.4905   20.1171 O   0  0  0  0  0  0
  -21.6647   -6.8887   21.4243 O   0  0  0  0  0  0
  -22.3407  -14.5468   20.6756 O   0  0  0  0  0  0
  -24.6786  -31.8042   23.1544 C   0  0  0  0  0  0
  -25.9390  -32.4487   23.8074 C   0  0  1  0  0  0
  -27.2265  -26.7510   20.2089 C   0  0  0  0  0  0
  -25.5988  -33.8310   24.1967 N   0  0  0  0  0  0
  -23.5023  -30.4069   21.5069 C   0  0  2  0  0  0
  -24.9589  -28.7555   20.1140 C   0  0  0  0  0  0
  -22.7741  -29.4335   22.4723 C   0  0  0  0  0  0
  -18.0334  -28.1419   22.8457 C   0  0  0  0  0  0
  -24.1495  -36.7163   23.2651 C   0  0  0  0  0  0
  -26.0793  -30.5526   21.4113 C   0  0  0  0  0  0
  -26.1446  -29.1226   20.7606 C   0  0  0  0  0  0
  -27.2627  -28.1455   20.7778 C   0  0  0  0  0  0
  -26.0105  -26.5790   19.5026 C   0  0  0  0  0  0
  -24.9279  -27.5091   19.4625 C   0  0  0  0  0  0
  -23.7526  -29.7051   20.1404 C   0  0  0  0  0  0
  -25.4143  -36.2907   24.0284 C   0  0  1  0  0  0
  -20.5966  -28.3774   23.1154 C   0  0  2  0  0  0
  -20.6801  -26.9438   22.5405 C   0  0  0  0  0  0
  -19.5778  -26.6372   21.5216 C   0  0  0  0  0  0
  -18.1960  -26.7948   22.1620 C   0  0  0  0  0  0
  -19.1599  -28.8920   23.2788 C   0  0  0  0  0  0
  -18.9506  -30.1505   23.8831 C   0  0  0  0  0  0
  -17.6496  -30.6602   24.0551 C   0  0  0  0  0  0
  -25.9121  -34.9296   23.4961 C   0  0  0  0  0  0
  -16.5386  -29.9085   23.6349 C   0  0  0  0  0  0
  -16.7314  -28.6507   23.0365 C   0  0  0  0  0  0
  -26.4586  -31.6506   25.0680 C   0  0  0  0  0  0
  -25.3664  -31.3810   26.1304 C   0  0  0  0  0  0
  -27.0514  -30.2851   24.6546 C   0  0  0  0  0  0
  -27.6041  -32.4359   25.7497 C   0  0  0  0  0  0
  -27.5567  -37.1734   24.8463 C   0  0  0  0  0  0
  -21.4394  -29.3028   22.3479 N   0  0  0  0  0  0
  -26.4271  -37.3666   23.9411 N   0  0  0  0  0  0
  -24.7762  -30.9534   22.0769 N   0  0  0  0  0  0
  -23.4209  -28.7935   23.3049 O   0  0  0  0  0  0
  -28.2179  -25.5783   20.3168 O   0  0  0  0  0  0
  -26.5759  -34.8867   22.4576 O   0  0  0  0  0  0
  -23.5817  -32.1095   23.6531 O   0  0  0  0  0  0
  -30.5828  -20.4867   19.2429 C   0  0  0  0  0  0
  -29.6661  -21.5208   19.6681 C   0  0  0  0  0  0
  -28.6732  -20.9903   20.4544 C   0  0  0  0  0  0
  -29.5669  -18.4963   20.2656 C   0  0  0  0  0  0
  -29.5501  -23.1023   19.4823 C   0  0  0  0  0  0
  -30.5353  -23.7984   18.8930 C   0  0  0  0  0  0
  -27.8210  -22.3853   20.8769 C   0  0  0  0  0  0
  -28.2225  -23.8552   20.0311 C   0  0  1  0  0  0
  -30.5304  -19.1055   19.5220 N   0  0  0  0  0  0
  -28.6271  -19.5196   20.7279 N   0  0  0  0  0  0
  -29.5502  -16.8703   20.4518 N   0  0  0  0  0  0
  -31.4327  -13.2432   19.1961 H   0  0  0  0  0  0
  -30.5578  -12.1412   20.2034 H   0  0  0  0  0  0
  -29.9836  -11.7980   17.7753 H   0  0  0  0  0  0
  -29.5306  -13.4784   17.6274 H   0  0  0  0  0  0
  -28.1209  -11.2945   19.1758 H   0  0  0  0  0  0
  -27.4461  -12.2712   17.8938 H   0  0  0  0  0  0
  -27.4777  -14.2344   19.2688 H   0  0  0  0  0  0
  -28.8508  -12.6916   21.5203 H   0  0  0  0  0  0
  -28.2012  -14.3072   21.6534 H   0  0  0  0  0  0
  -25.2788   -9.5679   22.4765 H   0  0  0  0  0  0
  -24.0013   -7.4637   22.7478 H   0  0  0  0  0  0
  -21.0866   -8.8788   19.8950 H   0  0  0  0  0  0
  -22.3736  -10.9675   19.6164 H   0  0  0  0  0  0
  -21.2013   -7.6151   23.9717 H   0  0  0  0  0  0
  -21.1482   -6.0524   25.9077 H   0  0  0  0  0  0
  -22.0596   -2.7612   23.2844 H   0  0  0  0  0  0
  -22.4034  -11.9822   22.4866 H   0  0  0  0  0  0
  -21.1000  -13.1142   22.2669 H   0  0  0  0  0  0
  -24.6154  -15.8446   20.5258 H   0  0  0  0  0  0
  -26.2197  -15.6416   20.0400 H   0  0  0  0  0  0
  -26.7467  -32.4971   23.0785 H   0  0  0  0  0  0
  -25.0049  -33.9356   25.0062 H   0  0  0  0  0  0
  -22.8249  -31.2429   21.3202 H   0  0  0  0  0  0
  -23.3779  -35.9469   23.3252 H   0  0  0  0  0  0
  -24.3568  -36.8885   22.2078 H   0  0  0  0  0  0
  -23.7229  -37.6316   23.6765 H   0  0  0  0  0  0
  -26.2779  -31.2810   20.6240 H   0  0  0  0  0  0
  -26.9320  -30.6177   22.0748 H   0  0  0  0  0  0
  -28.1550  -28.4291   21.3181 H   0  0  0  0  0  0
  -25.8564  -25.6324   19.0046 H   0  0  0  0  0  0
  -24.0311  -27.2211   18.9311 H   0  0  0  0  0  0
  -23.9223  -30.4659   19.3776 H   0  0  0  0  0  0
  -22.8585  -29.1680   19.8194 H   0  0  0  0  0  0
  -25.1350  -36.1673   25.0773 H   0  0  0  0  0  0
  -21.0050  -28.3396   24.1280 H   0  0  0  0  0  0
  -20.5666  -26.2397   23.3663 H   0  0  0  0  0  0
  -21.6663  -26.7386   22.1223 H   0  0  0  0  0  0
  -19.6934  -25.6265   21.1289 H   0  0  0  0  0  0
  -19.6722  -27.3145   20.6717 H   0  0  0  0  0  0
  -17.4230  -26.6690   21.4023 H   0  0  0  0  0  0
  -18.0350  -26.0106   22.9032 H   0  0  0  0  0  0
  -19.7981  -30.7338   24.2172 H   0  0  0  0  0  0
  -17.5047  -31.6275   24.5166 H   0  0  0  0  0  0
  -15.5383  -30.2965   23.7711 H   0  0  0  0  0  0
  -15.8715  -28.0803   22.7119 H   0  0  0  0  0  0
  -24.5872  -30.7135   25.7606 H   0  0  0  0  0  0
  -24.8827  -32.3028   26.4545 H   0  0  0  0  0  0
  -25.7853  -30.9095   27.0203 H   0  0  0  0  0  0
  -26.3221  -29.6475   24.1540 H   0  0  0  0  0  0
  -27.3962  -29.7285   25.5271 H   0  0  0  0  0  0
  -27.9192  -30.3989   24.0048 H   0  0  0  0  0  0
  -27.2584  -33.3725   26.1885 H   0  0  0  0  0  0
  -28.3950  -32.6818   25.0398 H   0  0  0  0  0  0
  -28.0602  -31.8616   26.5571 H   0  0  0  0  0  0
  -28.2542  -38.0069   24.7530 H   0  0  0  0  0  0
  -28.1105  -36.2593   24.6266 H   0  0  0  0  0  0
  -27.2285  -37.1341   25.8865 H   0  0  0  0  0  0
  -20.9688  -29.8686   21.6553 H   0  0  0  0  0  0
  -26.0100  -38.2712   24.1436 H   0  0  0  0  0  0
  -31.4240  -20.7764   18.6307 H   0  0  0  0  0  0
  -31.4325  -23.3231   18.5228 H   0  0  0  0  0  0
  -30.4586  -24.8707   18.7715 H   0  0  0  0  0  0
  -28.0088  -22.5452   21.9381 H   0  0  0  0  0  0
  -26.7527  -22.1903   20.7901 H   0  0  0  0  0  0
  -27.5584  -23.8017   19.1681 H   0  0  0  0  0  0
  -28.6216  -16.6094   20.7392 H   0  0  0  0  0  0
  1 25  1  0  0  0
  1 30  2  0  0  0
  1 81  1  0  0  0
  2  3  1  0  0  0
  2 25  1  0  0  0
  2 82  1  0  0  0
  2 83  1  0  0  0
  3  4  1  0  0  0
  3 84  1  0  0  0
  3 85  1  0  0  0
  4  5  1  0  0  0
  4 86  1  0  0  0
  4 87  1  0  0  0
  5  6  1  0  0  0
  5 26  1  0  0  0
  5 88  1  0  0  0
  6 25  1  0  0  0
  6 89  1  0  0  0
  6 90  1  0  0  0
  7  8  2  0  0  0
  7 26  1  0  0  0
  7 29  1  0  0  0
  8  9  1  0  0  0
  8 22  1  0  0  0
  9 10  1  0  0  0
  9 27  2  0  0  0
 10 11  2  0  0  0
 10 15  1  0  0  0
 11 12  1  0  0  0
 11 91  1  0  0  0
 12 13  2  0  0  0
 12 92  1  0  0  0
 13 14  1  0  0  0
 13 31  1  0  0  0
 14 15  2  0  0  0
 14 93  1  0  0  0
 15 94  1  0  0  0
 16 17  2  0  0  0
 16 21  1  0  0  0
 16 31  1  0  0  0
 17 18  1  0  0  0
 17 95  1  0  0  0
 18 19  2  0  0  0
 18 96  1  0  0  0
 19 20  1  0  0  0
 19 24  1  0  0  0
 20 21  2  0  0  0
 20 97  1  0  0  0
 21 23  1  0  0  0
 22 28  1  0  0  0
 22 32  2  0  0  0
 26 27  1  0  0  0
 28 98  1  0  0  0
 28 99  1  0  0  0
 29100  1  0  0  0
 29101  1  0  0  0
 33 34  1  0  0  0
 33 66  1  0  0  0
 33 70  2  0  0  0
 34 36  1  0  0  0
 34 59  1  0  0  0
 34102  1  0  0  0
 35 44  2  0  0  0
 35 45  1  0  0  0
 35 68  1  0  0  0
 36 56  1  0  0  0
 36103  1  0  0  0
 37 39  1  0  0  0
 37 47  1  0  0  0
 37 66  1  0  0  0
 37104  1  0  0  0
 38 43  2  0  0  0
 38 46  1  0  0  0
 38 47  1  0  0  0
 39 64  1  0  0  0
 39 67  2  0  0  0
 40 52  1  0  0  0
 40 53  2  0  0  0
 40 58  1  0  0  0
 41105  1  0  0  0
 41106  1  0  0  0
 41107  1  0  0  0
 41 48  1  0  0  0
 42 43  1  0  0  0
 42 66  1  0  0  0
 42108  1  0  0  0
 42109  1  0  0  0
 43 44  1  0  0  0
 44110  1  0  0  0
 45 46  2  0  0  0
 45111  1  0  0  0
 46112  1  0  0  0
 47113  1  0  0  0
 47114  1  0  0  0
 48 56  1  0  0  0
 48 65  1  0  0  0
 48115  1  0  0  0
 49 50  1  0  0  0
 49 53  1  0  0  0
 49 64  1  0  0  0
 49116  1  0  0  0
 50 51  1  0  0  0
 50117  1  0  0  0
 50118  1  0  0  0
 51 52  1  0  0  0
 51119  1  0  0  0
 51120  1  0  0  0
 52121  1  0  0  0
 52122  1  0  0  0
 53 54  1  0  0  0
 54 55  2  0  0  0
 54123  1  0  0  0
 55 57  1  0  0  0
 55124  1  0  0  0
 56 69  2  0  0  0
 57 58  2  0  0  0
 57125  1  0  0  0
 58126  1  0  0  0
 59 60  1  0  0  0
 59 61  1  0  0  0
 59 62  1  0  0  0
 60127  1  0  0  0
 60128  1  0  0  0
 60129  1  0  0  0
 61130  1  0  0  0
 61131  1  0  0  0
 61132  1  0  0  0
 62133  1  0  0  0
 62134  1  0  0  0
 62135  1  0  0  0
 63 65  1  0  0  0
 63136  1  0  0  0
 63137  1  0  0  0
 63138  1  0  0  0
 64139  1  0  0  0
 65140  1  0  0  0
 68 78  1  0  0  0
 71 72  2  0  0  0
 71 79  1  0  0  0
 71141  1  0  0  0
 72 73  1  0  0  0
 72 75  1  0  0  0
 73 77  1  0  0  0
 73 80  2  0  0  0
 74 79  2  0  0  0
 74 80  1  0  0  0
 74 81  1  0  0  0
 75 76  2  0  0  0
 75 78  1  0  0  0
 76142  1  0  0  0
 76143  1  0  0  0
 77 78  1  0  0  0
 77144  1  0  0  0
 77145  1  0  0  0
 78146  1  0  0  0
 81147  1  0  0  0
M  ISO  4   1 100  68 101  78 101  81 100
M  END
> <chiral flag>
0

> <version>
0

> <s_m_source_file>
/data/baiqing/PycharmProjects/Reinvent-master-3.2/result/LINK_invent/BTK/process_docking_weight1_custom_sum_contain_oxygen_bond_distance_aromatic_linkinvent_7_9_3/rearranged_h_0181.sdf

> <i_m_source_file_index>
99

> <r_mmod_Potential_Energy-OPLS-2005>
1571.64758300781

> <r_mmod_Stretch_Energy-OPLS-2005>
787.386413574219

> <r_mmod_Bend_Energy-OPLS-2005>
638.817077636719

> <r_mmod_Torsional_Energy-OPLS-2005>
194.052261352539

> <r_mmod_Improper_Torsional_Energy-OPLS-2005>
2.95806527137756

> <r_mmod_Van_der_Waal_Energy-OPLS-2005>
125.395286560059

> <r_mmod_Electrostatic_Energy-OPLS-2005>
-700.737243652344

> <r_mmod_Solvation_Energy-OPLS-2005>
-251.911102294922

> <b_mmod_Minimization_Converged-OPLS-2005>
0

> <r_mmod_RMS_Derivative-OPLS-2005>
0.0574352964758873

$$$$
99
                    3D
 Structure written by MMmdl.
158166  0  0  1  0            999 V2000
  -30.7014  -14.6602   20.4131 C   0  0  0  0  0  0
  -30.4317  -12.4025   19.4298 C   0  0  0  0  0  0
  -29.4884  -12.4731   18.2097 C   0  0  0  0  0  0
  -28.0167  -12.3371   18.6426 C   0  0  0  0  0  0
  -27.6518  -13.2381   19.8511 C   0  0  2  0  0  0
  -28.7174  -13.1591   20.9690 C   0  0  0  0  0  0
  -25.2582  -13.8247   20.5784 C   0  0  0  0  0  0
  -24.1870  -13.0465   20.9281 C   0  0  0  0  0  0
  -24.6478  -11.6943   20.8842 C   0  0  0  0  0  0
  -23.9163  -10.4297   21.0472 C   0  0  0  0  0  0
  -24.3687   -9.4181   21.9218 C   0  0  0  0  0  0
  -23.6336   -8.2236   22.0756 C   0  0  0  0  0  0
  -22.4309   -8.0316   21.3552 C   0  0  0  0  0  0
  -21.9991   -9.0310   20.4661 C   0  0  0  0  0  0
  -22.7357  -10.2162   20.3091 C   0  0  0  0  0  0
  -21.6837   -6.0786   22.5280 C   0  0  0  0  0  0
  -21.3988   -6.5666   23.8221 C   0  0  0  0  0  0
  -21.3645   -5.6802   24.9184 C   0  0  0  0  0  0
  -21.6046   -4.3064   24.7213 C   0  0  0  0  0  0
  -21.8821   -3.8183   23.4341 C   0  0  0  0  0  0
  -21.9183   -4.7008   22.3407 C   0  0  0  0  0  0
  -22.7869  -13.5226   21.1896 C   0  0  0  0  0  0
  -22.1660   -4.2210   21.0973 F   0  0  0  0  0  0
  -21.5634   -3.4544   25.7724 F   0  0  0  0  0  0
  -30.0188  -13.4690   20.3646 N   0  0  0  0  0  0
  -26.3044  -12.9480   20.3423 N   0  0  0  0  0  0
  -25.9419  -11.6612   20.5881 N   0  0  0  0  0  0
  -22.0509  -12.8190   22.0441 N   0  0  0  0  0  0
  -25.4240  -15.1972   20.4189 N   0  0  0  0  0  0
  -31.8999  -14.7121   20.1442 O   0  0  0  0  0  0
  -21.6620   -6.8943   21.4256 O   0  0  0  0  0  0
  -22.3541  -14.5513   20.6720 O   0  0  0  0  0  0
  -24.6241  -31.8601   23.2019 C   0  0  0  0  0  0
  -25.9039  -32.4798   23.8391 C   0  0  1  0  0  0
  -27.2410  -27.2867   20.1171 C   0  0  0  0  0  0
  -25.5827  -33.8606   24.2349 N   0  0  0  0  0  0
  -23.4219  -30.4827   21.5493 C   0  0  2  0  0  0
  -24.8805  -28.9443   20.1117 C   0  0  0  0  0  0
  -22.7462  -29.4602   22.4950 C   0  0  0  0  0  0
  -18.0259  -28.1360   22.8458 C   0  0  0  0  0  0
  -24.1455  -36.7273   23.2662 C   0  0  0  0  0  0
  -25.9707  -30.7739   21.3897 C   0  0  0  0  0  0
  -26.0491  -29.3983   20.7366 C   0  0  0  0  0  0
  -27.2273  -28.5784   20.7453 C   0  0  0  0  0  0
  -26.0488  -26.9222   19.4391 C   0  0  0  0  0  0
  -24.8878  -27.7124   19.4510 C   0  0  0  0  0  0
  -23.6388  -29.8170   20.1670 C   0  0  0  0  0  0
  -25.4088  -36.3129   24.0385 C   0  0  1  0  0  0
  -20.5863  -28.3650   23.1251 C   0  0  2  0  0  0
  -20.6739  -26.9359   22.5391 C   0  0  0  0  0  0
  -19.5715  -26.6352   21.5170 C   0  0  0  0  0  0
  -18.1898  -26.7884   22.1604 C   0  0  0  0  0  0
  -19.1524  -28.8836   23.2829 C   0  0  0  0  0  0
  -18.9467  -30.1440   23.8823 C   0  0  0  0  0  0
  -17.6471  -30.6560   24.0546 C   0  0  0  0  0  0
  -25.9018  -34.9478   23.5220 C   0  0  0  0  0  0
  -16.5354  -29.9041   23.6360 C   0  0  0  0  0  0
  -16.7247  -28.6480   23.0351 C   0  0  0  0  0  0
  -26.4442  -31.6563   25.0721 C   0  0  0  0  0  0
  -25.3620  -31.3572   26.1386 C   0  0  0  0  0  0
  -27.0365  -30.3016   24.6155 C   0  0  0  0  0  0
  -27.6084  -32.4290   25.7366 C   0  0  0  0  0  0
  -27.5578  -37.1759   24.8472 C   0  0  0  0  0  0
  -21.4185  -29.3001   22.3667 N   0  0  0  0  0  0
  -26.4286  -37.3812   23.9443 N   0  0  0  0  0  0
  -24.6916  -31.0546   22.1037 N   0  0  0  0  0  0
  -23.4181  -28.8115   23.3047 O   0  0  0  0  0  0
  -28.3290  -26.3713   20.1848 O   0  0  0  0  0  0
  -26.5632  -34.8935   22.4805 O   0  0  0  0  0  0
  -23.5395  -32.1480   23.7275 O   0  0  0  0  0  0
  -28.8765  -23.6418   20.1595 C   0  0  0  0  0  0
  -29.9535  -23.2692   19.3144 C   0  0  0  0  0  0
  -28.4468  -22.5527   20.9821 C   0  0  0  0  0  0
  -29.9024  -21.0346   20.0171 C   0  0  0  0  0  0
  -30.6049  -24.2609   18.3710 C   0  0  0  0  0  0
  -25.9988  -22.1507   21.0728 C   0  0  0  0  0  0
  -27.9785  -24.9425   19.9211 C   0  0  0  0  0  0
  -27.2225  -22.6302   21.8687 C   0  0  0  0  0  0
  -30.5128  -17.1824   19.9991 C   0  0  0  0  0  0
  -29.8193  -18.5449   20.4725 C   0  0  0  0  0  0
  -30.4411  -21.9904   19.2507 N   0  0  0  0  0  0
  -28.9560  -21.2856   20.9075 N   0  0  0  0  0  0
  -29.9881  -15.8334   20.4603 N   0  0  0  0  0  0
  -30.3632  -19.7430   19.8048 O   0  0  0  0  0  0
  -31.4647  -12.5143   19.0952 H   0  0  0  0  0  0
  -30.3838  -11.4256   19.9134 H   0  0  0  0  0  0
  -29.7337  -11.6881   17.4923 H   0  0  0  0  0  0
  -29.6319  -13.4209   17.6872 H   0  0  0  0  0  0
  -27.8468  -11.2914   18.9030 H   0  0  0  0  0  0
  -27.3549  -12.5527   17.8031 H   0  0  0  0  0  0
  -27.6475  -14.2610   19.4740 H   0  0  0  0  0  0
  -28.7428  -12.1611   21.4123 H   0  0  0  0  0  0
  -28.4967  -13.8559   21.7787 H   0  0  0  0  0  0
  -25.2825   -9.5598   22.4831 H   0  0  0  0  0  0
  -24.0018   -7.4585   22.7457 H   0  0  0  0  0  0
  -21.0931   -8.8906   19.8949 H   0  0  0  0  0  0
  -22.3887  -10.9750   19.6220 H   0  0  0  0  0  0
  -21.1964   -7.6160   23.9756 H   0  0  0  0  0  0
  -21.1455   -6.0519   25.9091 H   0  0  0  0  0  0
  -22.0612   -2.7658   23.2814 H   0  0  0  0  0  0
  -22.4107  -11.9833   22.4796 H   0  0  0  0  0  0
  -21.1145  -13.1247   22.2675 H   0  0  0  0  0  0
  -24.6665  -15.8573   20.5562 H   0  0  0  0  0  0
  -26.2705  -15.6346   20.0787 H   0  0  0  0  0  0
  -26.7064  -32.5481   23.1109 H   0  0  0  0  0  0
  -24.9849  -33.9746   25.0414 H   0  0  0  0  0  0
  -22.7177  -31.3053   21.4047 H   0  0  0  0  0  0
  -23.3784  -35.9517   23.3322 H   0  0  0  0  0  0
  -24.3551  -36.8918   22.2072 H   0  0  0  0  0  0
  -23.7136  -37.6450   23.6682 H   0  0  0  0  0  0
  -26.1029  -31.5245   20.6091 H   0  0  0  0  0  0
  -26.8510  -30.8358   22.0173 H   0  0  0  0  0  0
  -28.1085  -28.9110   21.2753 H   0  0  0  0  0  0
  -25.9644  -26.0026   18.8825 H   0  0  0  0  0  0
  -24.0028  -27.3709   18.9350 H   0  0  0  0  0  0
  -23.7238  -30.5899   19.4025 H   0  0  0  0  0  0
  -22.7641  -29.2241   19.8911 H   0  0  0  0  0  0
  -25.1256  -36.2037   25.0884 H   0  0  0  0  0  0
  -20.9941  -28.3222   24.1372 H   0  0  0  0  0  0
  -20.5570  -26.2252   23.3595 H   0  0  0  0  0  0
  -21.6619  -26.7328   22.1221 H   0  0  0  0  0  0
  -19.6867  -25.6252   21.1218 H   0  0  0  0  0  0
  -19.6660  -27.3159   20.6696 H   0  0  0  0  0  0
  -17.4149  -26.6593   21.4026 H   0  0  0  0  0  0
  -18.0333  -26.0026   22.9019 H   0  0  0  0  0  0
  -19.7941  -30.7279   24.2137 H   0  0  0  0  0  0
  -17.5021  -31.6220   24.5161 H   0  0  0  0  0  0
  -15.5361  -30.2934   23.7713 H   0  0  0  0  0  0
  -15.8640  -28.0812   22.7063 H   0  0  0  0  0  0
  -24.5885  -30.6884   25.7575 H   0  0  0  0  0  0
  -24.8631  -32.2640   26.4814 H   0  0  0  0  0  0
  -25.7868  -30.8687   27.0164 H   0  0  0  0  0  0
  -26.2988  -29.6651   24.1254 H   0  0  0  0  0  0
  -27.4222  -29.7365   25.4647 H   0  0  0  0  0  0
  -27.8756  -30.4388   23.9340 H   0  0  0  0  0  0
  -27.2894  -33.3745   26.1763 H   0  0  0  0  0  0
  -28.3859  -32.6602   25.0064 H   0  0  0  0  0  0
  -28.0744  -31.8473   26.5324 H   0  0  0  0  0  0
  -28.2597  -38.0055   24.7669 H   0  0  0  0  0  0
  -28.1140  -36.2652   24.6218 H   0  0  0  0  0  0
  -27.2313  -37.1304   25.8869 H   0  0  0  0  0  0
  -20.9367  -29.8751   21.6894 H   0  0  0  0  0  0
  -26.0230  -38.2906   24.1485 H   0  0  0  0  0  0
  -30.3736  -25.2872   18.6581 H   0  0  0  0  0  0
  -30.2844  -24.1002   17.3409 H   0  0  0  0  0  0
  -31.6902  -24.1615   18.4030 H   0  0  0  0  0  0
  -25.1030  -22.1179   21.6875 H   0  0  0  0  0  0
  -26.1654  -21.1471   20.6752 H   0  0  0  0  0  0
  -25.8086  -22.7981   20.2166 H   0  0  0  0  0  0
  -27.0483  -24.7691   20.4515 H   0  0  0  0  0  0
  -27.7302  -24.8741   18.8629 H   0  0  0  0  0  0
  -27.0971  -23.6322   22.2800 H   0  0  0  0  0  0
  -27.3683  -21.9892   22.7380 H   0  0  0  0  0  0
  -31.5766  -17.2474   20.2356 H   0  0  0  0  0  0
  -30.4670  -17.1637   18.9088 H   0  0  0  0  0  0
  -29.9573  -18.6469   21.5499 H   0  0  0  0  0  0
  -28.7456  -18.4837   20.2912 H   0  0  0  0  0  0
  -28.9894  -15.7470   20.5756 H   0  0  0  0  0  0
  1 25  1  0  0  0
  1 30  2  0  0  0
  1 83  1  0  0  0
  2  3  1  0  0  0
  2 25  1  0  0  0
  2 85  1  0  0  0
  2 86  1  0  0  0
  3  4  1  0  0  0
  3 87  1  0  0  0
  3 88  1  0  0  0
  4  5  1  0  0  0
  4 89  1  0  0  0
  4 90  1  0  0  0
  5  6  1  0  0  0
  5 26  1  0  0  0
  5 91  1  0  0  0
  6 25  1  0  0  0
  6 92  1  0  0  0
  6 93  1  0  0  0
  7  8  2  0  0  0
  7 26  1  0  0  0
  7 29  1  0  0  0
  8  9  1  0  0  0
  8 22  1  0  0  0
  9 10  1  0  0  0
  9 27  2  0  0  0
 10 11  2  0  0  0
 10 15  1  0  0  0
 11 12  1  0  0  0
 11 94  1  0  0  0
 12 13  2  0  0  0
 12 95  1  0  0  0
 13 14  1  0  0  0
 13 31  1  0  0  0
 14 15  2  0  0  0
 14 96  1  0  0  0
 15 97  1  0  0  0
 16 17  2  0  0  0
 16 21  1  0  0  0
 16 31  1  0  0  0
 17 18  1  0  0  0
 17 98  1  0  0  0
 18 19  2  0  0  0
 18 99  1  0  0  0
 19 20  1  0  0  0
 19 24  1  0  0  0
 20 21  2  0  0  0
 20100  1  0  0  0
 21 23  1  0  0  0
 22 28  1  0  0  0
 22 32  2  0  0  0
 26 27  1  0  0  0
 28101  1  0  0  0
 28102  1  0  0  0
 29103  1  0  0  0
 29104  1  0  0  0
 33 34  1  0  0  0
 33 66  1  0  0  0
 33 70  2  0  0  0
 34 36  1  0  0  0
 34 59  1  0  0  0
 34105  1  0  0  0
 35 44  2  0  0  0
 35 45  1  0  0  0
 35 68  1  0  0  0
 36 56  1  0  0  0
 36106  1  0  0  0
 37 39  1  0  0  0
 37 47  1  0  0  0
 37 66  1  0  0  0
 37107  1  0  0  0
 38 43  2  0  0  0
 38 46  1  0  0  0
 38 47  1  0  0  0
 39 64  1  0  0  0
 39 67  2  0  0  0
 40 52  1  0  0  0
 40 53  2  0  0  0
 40 58  1  0  0  0
 41108  1  0  0  0
 41109  1  0  0  0
 41110  1  0  0  0
 41 48  1  0  0  0
 42 43  1  0  0  0
 42 66  1  0  0  0
 42111  1  0  0  0
 42112  1  0  0  0
 43 44  1  0  0  0
 44113  1  0  0  0
 45 46  2  0  0  0
 45114  1  0  0  0
 46115  1  0  0  0
 47116  1  0  0  0
 47117  1  0  0  0
 48 56  1  0  0  0
 48 65  1  0  0  0
 48118  1  0  0  0
 49 50  1  0  0  0
 49 53  1  0  0  0
 49 64  1  0  0  0
 49119  1  0  0  0
 50 51  1  0  0  0
 50120  1  0  0  0
 50121  1  0  0  0
 51 52  1  0  0  0
 51122  1  0  0  0
 51123  1  0  0  0
 52124  1  0  0  0
 52125  1  0  0  0
 53 54  1  0  0  0
 54 55  2  0  0  0
 54126  1  0  0  0
 55 57  1  0  0  0
 55127  1  0  0  0
 56 69  2  0  0  0
 57 58  2  0  0  0
 57128  1  0  0  0
 58129  1  0  0  0
 59 60  1  0  0  0
 59 61  1  0  0  0
 59 62  1  0  0  0
 60130  1  0  0  0
 60131  1  0  0  0
 60132  1  0  0  0
 61133  1  0  0  0
 61134  1  0  0  0
 61135  1  0  0  0
 62136  1  0  0  0
 62137  1  0  0  0
 62138  1  0  0  0
 63 65  1  0  0  0
 63139  1  0  0  0
 63140  1  0  0  0
 63141  1  0  0  0
 64142  1  0  0  0
 65143  1  0  0  0
 68 77  1  0  0  0
 71 72  2  0  0  0
 71 73  1  0  0  0
 71 77  1  0  0  0
 72 75  1  0  0  0
 72 81  1  0  0  0
 73 78  1  0  0  0
 73 82  2  0  0  0
 74 81  2  0  0  0
 74 82  1  0  0  0
 74 84  1  0  0  0
 75144  1  0  0  0
 75145  1  0  0  0
 75146  1  0  0  0
 76 78  1  0  0  0
 76147  1  0  0  0
 76148  1  0  0  0
 76149  1  0  0  0
 77150  1  0  0  0
 77151  1  0  0  0
 78152  1  0  0  0
 78153  1  0  0  0
 79 80  1  0  0  0
 79 83  1  0  0  0
 79154  1  0  0  0
 79155  1  0  0  0
 80 84  1  0  0  0
 80156  1  0  0  0
 80157  1  0  0  0
 83158  1  0  0  0
M  ISO  4   1 100  68 101  77 101  83 100
M  END
> <chiral flag>
0

> <version>
0

> <s_m_source_file>
/data/baiqing/PycharmProjects/Reinvent-master-3.2/result/LINK_invent/BTK/process_docking_weight1_custom_sum_contain_oxygen_bond_distance_aromatic_linkinvent_7_9_3/rearranged_h_0181.sdf

> <i_m_source_file_index>
100

> <r_mmod_Potential_Energy-OPLS-2005>
-350.001983642578

> <r_mmod_Stretch_Energy-OPLS-2005>
97.2414321899414

> <r_mmod_Bend_Energy-OPLS-2005>
176.796234130859

> <r_mmod_Torsional_Energy-OPLS-2005>
221.079284667969

> <r_mmod_Improper_Torsional_Energy-OPLS-2005>
12.4573860168457

> <r_mmod_Van_der_Waal_Energy-OPLS-2005>
163.248886108398

> <r_mmod_Electrostatic_Energy-OPLS-2005>
-862.035278320312

> <r_mmod_Solvation_Energy-OPLS-2005>
-228.738525390625

> <b_mmod_Minimization_Converged-OPLS-2005>
0

> <r_mmod_RMS_Derivative-OPLS-2005>
5.2441258430481

$$$$
