0
                    3D
 Structure written by MMmdl.
162170  0  0  1  0            999 V2000
  -30.6659  -14.8210   20.4879 C   0  0  0  0  0  0
  -30.4081  -12.5285   19.4721 C   0  0  0  0  0  0
  -29.4976  -12.5521   18.2271 C   0  0  0  0  0  0
  -28.0262  -12.3659   18.6385 C   0  0  0  0  0  0
  -27.6315  -13.2527   19.8509 C   0  0  2  0  0  0
  -28.6852  -13.2225   20.9828 C   0  0  0  0  0  0
  -25.2428  -13.8214   20.5688 C   0  0  0  0  0  0
  -24.1764  -13.0421   20.9217 C   0  0  0  0  0  0
  -24.6395  -11.6916   20.8763 C   0  0  0  0  0  0
  -23.9069  -10.4278   21.0406 C   0  0  0  0  0  0
  -24.3610   -9.4195   21.9197 C   0  0  0  0  0  0
  -23.6285   -8.2240   22.0758 C   0  0  0  0  0  0
  -22.4269   -8.0273   21.3538 C   0  0  0  0  0  0
  -21.9911   -9.0243   20.4641 C   0  0  0  0  0  0
  -22.7248  -10.2125   20.3059 C   0  0  0  0  0  0
  -21.6849   -6.0727   22.5269 C   0  0  0  0  0  0
  -21.4022   -6.5633   23.8201 C   0  0  0  0  0  0
  -21.3656   -5.6793   24.9165 C   0  0  0  0  0  0
  -21.6050   -4.3057   24.7224 C   0  0  0  0  0  0
  -21.8820   -3.8143   23.4344 C   0  0  0  0  0  0
  -21.9195   -4.6955   22.3395 C   0  0  0  0  0  0
  -22.7789  -13.5196   21.1850 C   0  0  0  0  0  0
  -22.1659   -4.2133   21.0977 F   0  0  0  0  0  0
  -21.5620   -3.4547   25.7739 F   0  0  0  0  0  0
  -29.9569  -13.6295   20.3750 N   0  0  0  0  0  0
  -26.2895  -12.9469   20.3328 N   0  0  0  0  0  0
  -25.9349  -11.6583   20.5789 N   0  0  0  0  0  0
  -22.0431  -12.8184   22.0399 N   0  0  0  0  0  0
  -25.4029  -15.1934   20.3985 N   0  0  0  0  0  0
  -31.8645  -14.7573   20.1948 O   0  0  0  0  0  0
  -21.6636   -6.8871   21.4228 O   0  0  0  0  0  0
  -22.3471  -14.5501   20.6696 O   0  0  0  0  0  0
  -24.6346  -31.8512   23.1931 C   0  0  0  0  0  0
  -25.9149  -32.4742   23.8303 C   0  0  1  0  0  0
  -27.2139  -27.2027   20.1579 C   0  0  0  0  0  0
  -25.5914  -33.8536   24.2236 N   0  0  0  0  0  0
  -23.4355  -30.4696   21.5362 C   0  0  2  0  0  0
  -24.8849  -28.9036   20.1094 C   0  0  0  0  0  0
  -22.7528  -29.4579   22.4880 C   0  0  0  0  0  0
  -18.0299  -28.1377   22.8501 C   0  0  0  0  0  0
  -24.1451  -36.7242   23.2651 C   0  0  0  0  0  0
  -25.9819  -30.7483   21.3780 C   0  0  0  0  0  0
  -26.0529  -29.3627   20.7267 C   0  0  0  0  0  0
  -27.2172  -28.5241   20.7388 C   0  0  0  0  0  0
  -26.0213  -26.8190   19.5088 C   0  0  0  0  0  0
  -24.8766  -27.6454   19.4871 C   0  0  0  0  0  0
  -23.6583  -29.7991   20.1523 C   0  0  0  0  0  0
  -25.4092  -36.3047   24.0327 C   0  0  1  0  0  0
  -20.5905  -28.3701   23.1250 C   0  0  2  0  0  0
  -20.6782  -26.9407   22.5403 C   0  0  0  0  0  0
  -19.5756  -26.6382   21.5209 C   0  0  0  0  0  0
  -18.1933  -26.7926   22.1617 C   0  0  0  0  0  0
  -19.1555  -28.8857   23.2874 C   0  0  0  0  0  0
  -18.9480  -30.1452   23.8907 C   0  0  0  0  0  0
  -17.6487  -30.6589   24.0558 C   0  0  0  0  0  0
  -25.9045  -34.9427   23.5087 C   0  0  0  0  0  0
  -16.5374  -29.9098   23.6328 C   0  0  0  0  0  0
  -16.7291  -28.6498   23.0381 C   0  0  0  0  0  0
  -26.4511  -31.6593   25.0717 C   0  0  0  0  0  0
  -25.3702  -31.3714   26.1412 C   0  0  0  0  0  0
  -27.0433  -30.3034   24.6236 C   0  0  0  0  0  0
  -27.6064  -32.4349   25.7477 C   0  0  0  0  0  0
  -27.5554  -37.1768   24.8483 C   0  0  0  0  0  0
  -21.4233  -29.3049   22.3633 N   0  0  0  0  0  0
  -26.4258  -37.3762   23.9435 N   0  0  0  0  0  0
  -24.7028  -31.0422   22.0934 N   0  0  0  0  0  0
  -23.4194  -28.8129   23.3007 O   0  0  0  0  0  0
  -28.3139  -26.3076   20.2703 O   0  0  0  0  0  0
  -26.5638  -34.8914   22.4676 O   0  0  0  0  0  0
  -23.5482  -32.1379   23.7189 O   0  0  0  0  0  0
  -30.4052  -18.7428   20.0712 C   0  0  0  0  0  0
  -28.2418  -18.0349   20.7968 C   0  0  0  0  0  0
  -30.9879  -17.3500   20.5947 C   0  0  0  0  0  0
  -28.8211  -16.6017   21.2479 C   0  0  0  0  0  0
  -29.1654  -19.3374   20.8258 C   0  0  0  0  0  0
  -30.4747  -22.3983   20.0554 C   0  0  0  0  0  0
  -27.0810  -20.7028   20.2783 C   0  0  0  0  0  0
  -28.2243  -23.5241   20.7869 C   0  0  0  0  0  0
  -28.3658  -24.8497   19.8163 C   0  0  0  0  0  0
  -29.1183  -22.1056   20.7163 C   0  0  1  0  0  0
  -30.0988  -16.1271   20.6317 N   0  0  0  0  0  0
  -28.5647  -20.7018   20.2686 N   0  3  1  0  0  0
  -31.4489  -12.6243   19.1607 H   0  0  0  0  0  0
  -30.3440  -11.5601   19.9702 H   0  0  0  0  0  0
  -29.7924  -11.7807   17.5148 H   0  0  0  0  0  0
  -29.6153  -13.5057   17.7086 H   0  0  0  0  0  0
  -27.8768  -11.3135   18.8772 H   0  0  0  0  0  0
  -27.3733  -12.5847   17.7923 H   0  0  0  0  0  0
  -27.6074  -14.2701   19.4616 H   0  0  0  0  0  0
  -28.7603  -12.2211   21.4099 H   0  0  0  0  0  0
  -28.4190  -13.8722   21.8163 H   0  0  0  0  0  0
  -25.2743   -9.5680   22.4785 H   0  0  0  0  0  0
  -23.9981   -7.4638   22.7500 H   0  0  0  0  0  0
  -21.0837   -8.8778   19.8948 H   0  0  0  0  0  0
  -22.3705  -10.9665   19.6172 H   0  0  0  0  0  0
  -21.2023   -7.6145   23.9698 H   0  0  0  0  0  0
  -21.1476   -6.0523   25.9062 H   0  0  0  0  0  0
  -22.0602   -2.7600   23.2858 H   0  0  0  0  0  0
  -22.4029  -11.9840   22.4794 H   0  0  0  0  0  0
  -21.1035  -13.1200   22.2579 H   0  0  0  0  0  0
  -24.6178  -15.8316   20.4655 H   0  0  0  0  0  0
  -26.2370  -15.6283   20.0264 H   0  0  0  0  0  0
  -26.7219  -32.5408   23.1042 H   0  0  0  0  0  0
  -25.0043  -33.9641   25.0373 H   0  0  0  0  0  0
  -22.7351  -31.2940   21.3845 H   0  0  0  0  0  0
  -23.3727  -35.9551   23.3320 H   0  0  0  0  0  0
  -24.3541  -36.8885   22.2064 H   0  0  0  0  0  0
  -23.7183  -37.6434   23.6693 H   0  0  0  0  0  0
  -26.1158  -31.5014   20.6004 H   0  0  0  0  0  0
  -26.8602  -30.8113   22.0101 H   0  0  0  0  0  0
  -28.1105  -28.8647   21.2438 H   0  0  0  0  0  0
  -25.9377  -25.8496   19.0434 H   0  0  0  0  0  0
  -23.9791  -27.2907   19.0008 H   0  0  0  0  0  0
  -23.7913  -30.5752   19.3965 H   0  0  0  0  0  0
  -22.7761  -29.2361   19.8421 H   0  0  0  0  0  0
  -25.1260  -36.1880   25.0810 H   0  0  0  0  0  0
  -20.9987  -28.3285   24.1384 H   0  0  0  0  0  0
  -20.5677  -26.2308   23.3609 H   0  0  0  0  0  0
  -21.6646  -26.7439   22.1201 H   0  0  0  0  0  0
  -19.6899  -25.6291   21.1257 H   0  0  0  0  0  0
  -19.6672  -27.3176   20.6710 H   0  0  0  0  0  0
  -17.4193  -26.6688   21.4022 H   0  0  0  0  0  0
  -18.0335  -26.0057   22.8991 H   0  0  0  0  0  0
  -19.7958  -30.7251   24.2291 H   0  0  0  0  0  0
  -17.5055  -31.6281   24.5133 H   0  0  0  0  0  0
  -15.5386  -30.3011   23.7648 H   0  0  0  0  0  0
  -15.8681  -28.0816   22.7120 H   0  0  0  0  0  0
  -24.5881  -30.7071   25.7707 H   0  0  0  0  0  0
  -24.8858  -32.2858   26.4836 H   0  0  0  0  0  0
  -25.7970  -30.8882   27.0207 H   0  0  0  0  0  0
  -26.3054  -29.6713   24.1282 H   0  0  0  0  0  0
  -27.4191  -29.7360   25.4763 H   0  0  0  0  0  0
  -27.8872  -30.4368   23.9462 H   0  0  0  0  0  0
  -27.2713  -33.3697   26.1971 H   0  0  0  0  0  0
  -28.3894  -32.6834   25.0302 H   0  0  0  0  0  0
  -28.0712  -31.8534   26.5460 H   0  0  0  0  0  0
  -28.2567  -38.0073   24.7579 H   0  0  0  0  0  0
  -28.1056  -36.2610   24.6256 H   0  0  0  0  0  0
  -27.2283  -37.1373   25.8891 H   0  0  0  0  0  0
  -20.9415  -29.8787   21.6847 H   0  0  0  0  0  0
  -26.0125  -38.2817   24.1505 H   0  0  0  0  0  0
  -30.1596  -18.6240   19.0156 H   0  0  0  0  0  0
  -31.2212  -19.4628   20.1026 H   0  0  0  0  0  0
  -27.3537  -18.2175   21.4051 H   0  0  0  0  0  0
  -27.8776  -17.9002   19.7784 H   0  0  0  0  0  0
  -31.3715  -17.4985   21.6065 H   0  0  0  0  0  0
  -31.8733  -17.1533   19.9882 H   0  0  0  0  0  0
  -28.0411  -15.8717   21.0581 H   0  0  0  0  0  0
  -28.9652  -16.6007   22.3300 H   0  0  0  0  0  0
  -29.4403  -19.5178   21.8671 H   0  0  0  0  0  0
  -30.8887  -23.3377   20.4229 H   0  0  0  0  0  0
  -30.3807  -22.4781   18.9725 H   0  0  0  0  0  0
  -31.2130  -21.6331   20.2793 H   0  0  0  0  0  0
  -26.6662  -19.8205   19.7940 H   0  0  0  0  0  0
  -26.6834  -21.5422   19.7092 H   0  0  0  0  0  0
  -26.6947  -20.7553   21.2966 H   0  0  0  0  0  0
  -27.1659  -23.3120   20.9254 H   0  0  0  0  0  0
  -28.4935  -23.9365   21.7607 H   0  0  0  0  0  0
  -27.7251  -24.7040   18.9487 H   0  0  0  0  0  0
  -29.3648  -24.7921   19.3878 H   0  0  0  0  0  0
  -29.3365  -21.9271   21.7715 H   0  0  0  0  0  0
  -28.7672  -20.6725   19.2808 H   0  0  0  0  0  0
  1 25  1  0  0  0
  1 30  2  0  0  0
  1 81  1  0  0  0
  2  3  1  0  0  0
  2 25  1  0  0  0
  2 83  1  0  0  0
  2 84  1  0  0  0
  3  4  1  0  0  0
  3 85  1  0  0  0
  3 86  1  0  0  0
  4  5  1  0  0  0
  4 87  1  0  0  0
  4 88  1  0  0  0
  5  6  1  0  0  0
  5 26  1  0  0  0
  5 89  1  0  0  0
  6 25  1  0  0  0
  6 90  1  0  0  0
  6 91  1  0  0  0
  7  8  2  0  0  0
  7 26  1  0  0  0
  7 29  1  0  0  0
  8  9  1  0  0  0
  8 22  1  0  0  0
  9 10  1  0  0  0
  9 27  2  0  0  0
 10 11  2  0  0  0
 10 15  1  0  0  0
 11 12  1  0  0  0
 11 92  1  0  0  0
 12 13  2  0  0  0
 12 93  1  0  0  0
 13 14  1  0  0  0
 13 31  1  0  0  0
 14 15  2  0  0  0
 14 94  1  0  0  0
 15 95  1  0  0  0
 16 17  2  0  0  0
 16 21  1  0  0  0
 16 31  1  0  0  0
 17 18  1  0  0  0
 17 96  1  0  0  0
 18 19  2  0  0  0
 18 97  1  0  0  0
 19 20  1  0  0  0
 19 24  1  0  0  0
 20 21  2  0  0  0
 20 98  1  0  0  0
 21 23  1  0  0  0
 22 28  1  0  0  0
 22 32  2  0  0  0
 26 27  1  0  0  0
 28 99  1  0  0  0
 28100  1  0  0  0
 29101  1  0  0  0
 29102  1  0  0  0
 33 34  1  0  0  0
 33 66  1  0  0  0
 33 70  2  0  0  0
 34 36  1  0  0  0
 34 59  1  0  0  0
 34103  1  0  0  0
 35 44  2  0  0  0
 35 45  1  0  0  0
 35 68  1  0  0  0
 36 56  1  0  0  0
 36104  1  0  0  0
 37 39  1  0  0  0
 37 47  1  0  0  0
 37 66  1  0  0  0
 37105  1  0  0  0
 38 43  2  0  0  0
 38 46  1  0  0  0
 38 47  1  0  0  0
 39 64  1  0  0  0
 39 67  2  0  0  0
 40 52  1  0  0  0
 40 53  2  0  0  0
 40 58  1  0  0  0
 41106  1  0  0  0
 41107  1  0  0  0
 41108  1  0  0  0
 41 48  1  0  0  0
 42 43  1  0  0  0
 42 66  1  0  0  0
 42109  1  0  0  0
 42110  1  0  0  0
 43 44  1  0  0  0
 44111  1  0  0  0
 45 46  2  0  0  0
 45112  1  0  0  0
 46113  1  0  0  0
 47114  1  0  0  0
 47115  1  0  0  0
 48 56  1  0  0  0
 48 65  1  0  0  0
 48116  1  0  0  0
 49 50  1  0  0  0
 49 53  1  0  0  0
 49 64  1  0  0  0
 49117  1  0  0  0
 50 51  1  0  0  0
 50118  1  0  0  0
 50119  1  0  0  0
 51 52  1  0  0  0
 51120  1  0  0  0
 51121  1  0  0  0
 52122  1  0  0  0
 52123  1  0  0  0
 53 54  1  0  0  0
 54 55  2  0  0  0
 54124  1  0  0  0
 55 57  1  0  0  0
 55125  1  0  0  0
 56 69  2  0  0  0
 57 58  2  0  0  0
 57126  1  0  0  0
 58127  1  0  0  0
 59 60  1  0  0  0
 59 61  1  0  0  0
 59 62  1  0  0  0
 60128  1  0  0  0
 60129  1  0  0  0
 60130  1  0  0  0
 61131  1  0  0  0
 61132  1  0  0  0
 61133  1  0  0  0
 62134  1  0  0  0
 62135  1  0  0  0
 62136  1  0  0  0
 63 65  1  0  0  0
 63137  1  0  0  0
 63138  1  0  0  0
 63139  1  0  0  0
 64140  1  0  0  0
 65141  1  0  0  0
 68 79  1  0  0  0
 71 73  1  0  0  0
 71142  1  0  0  0
 71143  1  0  0  0
 71 75  1  0  0  0
 72 74  1  0  0  0
 72 75  1  0  0  0
 72144  1  0  0  0
 72145  1  0  0  0
 73 81  1  0  0  0
 73146  1  0  0  0
 73147  1  0  0  0
 74 81  1  0  0  0
 74148  1  0  0  0
 74149  1  0  0  0
 75 82  1  0  0  0
 75150  1  0  0  0
 76151  1  0  0  0
 76152  1  0  0  0
 76153  1  0  0  0
 76 80  1  0  0  0
 77154  1  0  0  0
 77155  1  0  0  0
 77156  1  0  0  0
 77 82  1  0  0  0
 78 79  1  0  0  0
 78 80  1  0  0  0
 78157  1  0  0  0
 78158  1  0  0  0
 79159  1  0  0  0
 79160  1  0  0  0
 80 82  1  0  0  0
 80161  1  0  0  0
 82162  1  0  0  0
M  CHG  1  82   1
M  ISO  4   1 100  68 101  79 101  81 100
M  END
> <chiral flag>
0

> <version>
0

> <s_m_source_file>
/data/baiqing/PycharmProjects/Reinvent-master-3.2/result/LINK_invent/BTK/process_docking_weight1_custom_sum_contain_oxygen_bond_distance_aromatic_linkinvent_7_9_3/rearranged_h_0135.sdf

> <i_m_source_file_index>
1

> <r_mmod_Potential_Energy-OPLS-2005>
523.036743164062

> <r_mmod_Stretch_Energy-OPLS-2005>
197.037246704102

> <r_mmod_Bend_Energy-OPLS-2005>
307.470947265625

> <r_mmod_Torsional_Energy-OPLS-2005>
327.864227294922

> <r_mmod_Improper_Torsional_Energy-OPLS-2005>
8.13047313690186

> <r_mmod_Van_der_Waal_Energy-OPLS-2005>
134.049453735352

> <r_mmod_Electrostatic_Energy-OPLS-2005>
-133.490829467773

> <r_mmod_Solvation_Energy-OPLS-2005>
-439.632537841797

> <b_mmod_Minimization_Converged-OPLS-2005>
0

> <r_mmod_RMS_Derivative-OPLS-2005>
2.9519476890564

$$$$
1
                    3D
 Structure written by MMmdl.
178188  0  0  1  0            999 V2000
  -30.7500  -14.3780   20.6743 C   0  0  0  0  0  0
  -30.4298  -12.2948   19.3951 C   0  0  0  0  0  0
  -29.4946  -12.5414   18.1973 C   0  0  0  0  0  0
  -28.0160  -12.4086   18.6037 C   0  0  0  0  0  0
  -27.6749  -13.2073   19.8900 C   0  0  2  0  0  0
  -28.7115  -12.9252   20.9983 C   0  0  0  0  0  0
  -25.2637  -13.8184   20.5697 C   0  0  0  0  0  0
  -24.1842  -13.0419   20.9175 C   0  0  0  0  0  0
  -24.6417  -11.6928   20.8731 C   0  0  0  0  0  0
  -23.9068  -10.4296   21.0414 C   0  0  0  0  0  0
  -24.3620   -9.4213   21.9194 C   0  0  0  0  0  0
  -23.6281   -8.2243   22.0758 C   0  0  0  0  0  0
  -22.4259   -8.0293   21.3548 C   0  0  0  0  0  0
  -21.9906   -9.0276   20.4659 C   0  0  0  0  0  0
  -22.7243  -10.2149   20.3071 C   0  0  0  0  0  0
  -21.6863   -6.0735   22.5270 C   0  0  0  0  0  0
  -21.4013   -6.5638   23.8204 C   0  0  0  0  0  0
  -21.3653   -5.6790   24.9168 C   0  0  0  0  0  0
  -21.6055   -4.3058   24.7222 C   0  0  0  0  0  0
  -21.8812   -3.8146   23.4345 C   0  0  0  0  0  0
  -21.9187   -4.6957   22.3397 C   0  0  0  0  0  0
  -22.7873  -13.5250   21.1796 C   0  0  0  0  0  0
  -22.1656   -4.2148   21.0972 F   0  0  0  0  0  0
  -21.5631   -3.4538   25.7731 F   0  0  0  0  0  0
  -30.0545  -13.2290   20.4674 N   0  0  0  0  0  0
  -26.3087  -12.9351   20.3417 N   0  0  0  0  0  0
  -25.9354  -11.6513   20.5764 N   0  0  0  0  0  0
  -22.0489  -12.8272   22.0399 N   0  0  0  0  0  0
  -25.4305  -15.1860   20.4070 N   0  0  0  0  0  0
  -31.7894  -14.6660   20.0740 O   0  0  0  0  0  0
  -21.6631   -6.8883   21.4235 O   0  0  0  0  0  0
  -22.3579  -14.5557   20.6681 O   0  0  0  0  0  0
  -24.6060  -31.8685   23.2084 C   0  0  0  0  0  0
  -25.9007  -32.4810   23.8303 C   0  0  1  0  0  0
  -27.2395  -27.4862   20.0585 C   0  0  0  0  0  0
  -25.5936  -33.8593   24.2298 N   0  0  0  0  0  0
  -23.3880  -30.4945   21.5511 C   0  0  2  0  0  0
  -24.8345  -28.9583   20.1146 C   0  0  0  0  0  0
  -22.7317  -29.4669   22.5056 C   0  0  0  0  0  0
  -18.0234  -28.1338   22.8478 C   0  0  0  0  0  0
  -24.1493  -36.7315   23.2615 C   0  0  0  0  0  0
  -25.9089  -30.8493   21.3489 C   0  0  0  0  0  0
  -25.9934  -29.4800   20.7081 C   0  0  0  0  0  0
  -27.1977  -28.7462   20.6877 C   0  0  0  0  0  0
  -26.0758  -26.9629   19.4697 C   0  0  0  0  0  0
  -24.8717  -27.6917   19.5006 C   0  0  0  0  0  0
  -23.5893  -29.8146   20.1684 C   0  0  0  0  0  0
  -25.4099  -36.3082   24.0316 C   0  0  1  0  0  0
  -20.5803  -28.3617   23.1395 C   0  0  2  0  0  0
  -20.6732  -26.9398   22.5447 C   0  0  0  0  0  0
  -19.5741  -26.6358   21.5203 C   0  0  0  0  0  0
  -18.1901  -26.7871   22.1604 C   0  0  0  0  0  0
  -19.1469  -28.8788   23.2935 C   0  0  0  0  0  0
  -18.9400  -30.1378   23.8985 C   0  0  0  0  0  0
  -17.6418  -30.6577   24.0535 C   0  0  0  0  0  0
  -25.9034  -34.9449   23.5094 C   0  0  0  0  0  0
  -16.5318  -29.9078   23.6311 C   0  0  0  0  0  0
  -16.7210  -28.6468   23.0366 C   0  0  0  0  0  0
  -26.4435  -31.6557   25.0620 C   0  0  0  0  0  0
  -25.3700  -31.3765   26.1413 C   0  0  0  0  0  0
  -27.0180  -30.2971   24.5904 C   0  0  0  0  0  0
  -27.6026  -32.4210   25.7408 C   0  0  0  0  0  0
  -27.5598  -37.1784   24.8457 C   0  0  0  0  0  0
  -21.4074  -29.2982   22.3807 N   0  0  0  0  0  0
  -26.4296  -37.3768   23.9411 N   0  0  0  0  0  0
  -24.6530  -31.0807   22.0963 N   0  0  0  0  0  0
  -23.4138  -28.8259   23.3097 O   0  0  0  0  0  0
  -28.4169  -26.7965   19.9422 O   0  0  0  0  0  0
  -26.5576  -34.8899   22.4642 O   0  0  0  0  0  0
  -23.5284  -32.1438   23.7539 O   0  0  0  0  0  0
  -29.9117  -21.2893   20.8596 C   0  0  0  0  0  0
  -30.0433  -22.0967   18.5665 C   0  0  0  0  0  0
  -29.8056  -22.3558   19.9510 C   0  0  0  0  0  0
  -30.4587  -20.7673   18.2170 C   0  0  0  0  0  0
  -30.2553  -20.0117   20.3980 C   0  0  0  0  0  0
  -31.3918  -24.9922   18.6419 C   0  0  0  0  0  0
  -31.5160  -25.0846   17.1496 C   0  0  0  0  0  0
  -27.5450  -23.9246   16.1036 C   0  0  0  0  0  0
  -27.8816  -22.5050   15.7276 C   0  0  0  0  0  0
  -30.2196  -24.5915   17.7558 C   0  0  0  0  0  0
  -28.2796  -23.0255   17.0912 C   0  0  0  0  0  0
  -32.5323  -20.2846   16.8552 C   0  0  0  0  0  0
  -30.9819  -20.2985   16.8559 C   0  0  0  0  0  0
  -30.0373  -17.5923   20.8767 C   0  0  0  0  0  0
  -30.6522  -16.5733   21.8573 C   0  0  0  0  0  0
  -28.6101  -25.7626   20.8980 C   0  0  0  0  0  0
  -28.4114  -24.3310   20.3271 C   0  0  0  0  0  0
  -29.7651  -23.1457   17.4712 C   0  0  0  0  0  0
  -30.5475  -19.7698   19.1180 N   0  0  0  0  0  0
  -30.3576  -18.9530   21.3013 N   0  0  0  0  0  0
  -30.2118  -15.2086   21.5743 N   0  0  0  0  0  0
  -29.6383  -23.6093   20.5101 O   0  0  0  0  0  0
  -31.4700  -12.4153   19.0853 H   0  0  0  0  0  0
  -30.3481  -11.2665   19.7490 H   0  0  0  0  0  0
  -29.7257  -11.8427   17.3953 H   0  0  0  0  0  0
  -29.6757  -13.5388   17.7949 H   0  0  0  0  0  0
  -27.8005  -11.3516   18.7538 H   0  0  0  0  0  0
  -27.3751  -12.7398   17.7858 H   0  0  0  0  0  0
  -27.7369  -14.2670   19.6478 H   0  0  0  0  0  0
  -28.6666  -11.8747   21.2853 H   0  0  0  0  0  0
  -28.4637  -13.4783   21.9041 H   0  0  0  0  0  0
  -25.2772   -9.5662   22.4783 H   0  0  0  0  0  0
  -23.9989   -7.4618   22.7474 H   0  0  0  0  0  0
  -21.0846   -8.8829   19.8955 H   0  0  0  0  0  0
  -22.3737  -10.9709   19.6190 H   0  0  0  0  0  0
  -21.2014   -7.6151   23.9709 H   0  0  0  0  0  0
  -21.1483   -6.0522   25.9071 H   0  0  0  0  0  0
  -22.0601   -2.7609   23.2844 H   0  0  0  0  0  0
  -22.4072  -11.9950   22.4844 H   0  0  0  0  0  0
  -21.1095  -13.1336   22.2522 H   0  0  0  0  0  0
  -24.6656  -15.8444   20.5070 H   0  0  0  0  0  0
  -26.2911  -15.6251   20.1004 H   0  0  0  0  0  0
  -26.7130  -32.5586   23.1115 H   0  0  0  0  0  0
  -25.0135  -33.9720   25.0477 H   0  0  0  0  0  0
  -22.6758  -31.3132   21.4207 H   0  0  0  0  0  0
  -23.3710  -35.9696   23.3263 H   0  0  0  0  0  0
  -24.3698  -36.8910   22.2053 H   0  0  0  0  0  0
  -23.7270  -37.6524   23.6649 H   0  0  0  0  0  0
  -25.9953  -31.6113   20.5716 H   0  0  0  0  0  0
  -26.8068  -30.9233   21.9497 H   0  0  0  0  0  0
  -28.0940  -29.1630   21.1280 H   0  0  0  0  0  0
  -26.1233  -26.0118   18.9560 H   0  0  0  0  0  0
  -23.9885  -27.2828   19.0313 H   0  0  0  0  0  0
  -23.6792  -30.5905   19.4071 H   0  0  0  0  0  0
  -22.7102  -29.2281   19.8925 H   0  0  0  0  0  0
  -25.1256  -36.1919   25.0802 H   0  0  0  0  0  0
  -20.9853  -28.3109   24.1517 H   0  0  0  0  0  0
  -20.5587  -26.2207   23.3574 H   0  0  0  0  0  0
  -21.6618  -26.7422   22.1294 H   0  0  0  0  0  0
  -19.6933  -25.6255   21.1236 H   0  0  0  0  0  0
  -19.6706  -27.3177   20.6736 H   0  0  0  0  0  0
  -17.4171  -26.6552   21.4018 H   0  0  0  0  0  0
  -18.0365  -26.0022   22.9013 H   0  0  0  0  0  0
  -19.7890  -30.7116   24.2428 H   0  0  0  0  0  0
  -17.5012  -31.6293   24.5067 H   0  0  0  0  0  0
  -15.5344  -30.3019   23.7599 H   0  0  0  0  0  0
  -15.8594  -28.0817   22.7093 H   0  0  0  0  0  0
  -24.5850  -30.7106   25.7846 H   0  0  0  0  0  0
  -24.8938  -32.2984   26.4742 H   0  0  0  0  0  0
  -25.8054  -30.9056   27.0225 H   0  0  0  0  0  0
  -26.2698  -29.6865   24.0841 H   0  0  0  0  0  0
  -27.3855  -29.7069   25.4304 H   0  0  0  0  0  0
  -27.8588  -30.4288   23.9090 H   0  0  0  0  0  0
  -27.2655  -33.3483   26.2048 H   0  0  0  0  0  0
  -28.3856  -32.6755   25.0261 H   0  0  0  0  0  0
  -28.0665  -31.8240   26.5273 H   0  0  0  0  0  0
  -28.2556  -38.0135   24.7497 H   0  0  0  0  0  0
  -28.1121  -36.2620   24.6218 H   0  0  0  0  0  0
  -27.2363  -37.1403   25.8885 H   0  0  0  0  0  0
  -20.9172  -29.8762   21.7140 H   0  0  0  0  0  0
  -26.0140  -38.2836   24.1380 H   0  0  0  0  0  0
  -29.7505  -21.4532   21.9182 H   0  0  0  0  0  0
  -31.3226  -25.9334   19.1927 H   0  0  0  0  0  0
  -31.9509  -24.2033   19.1386 H   0  0  0  0  0  0
  -32.1852  -24.3704   16.6752 H   0  0  0  0  0  0
  -31.4773  -26.0706   16.6881 H   0  0  0  0  0  0
  -26.4985  -24.1528   16.3036 H   0  0  0  0  0  0
  -28.0907  -24.7233   15.6037 H   0  0  0  0  0  0
  -28.6602  -22.3762   14.9781 H   0  0  0  0  0  0
  -27.0730  -21.7758   15.6899 H   0  0  0  0  0  0
  -29.4162  -25.3219   17.6790 H   0  0  0  0  0  0
  -27.6566  -22.6563   17.9039 H   0  0  0  0  0  0
  -32.9422  -19.9953   15.8861 H   0  0  0  0  0  0
  -32.9124  -19.5668   17.5905 H   0  0  0  0  0  0
  -32.9639  -21.2487   17.1295 H   0  0  0  0  0  0
  -30.5309  -20.7981   15.9907 H   0  0  0  0  0  0
  -30.6649  -19.2586   16.7282 H   0  0  0  0  0  0
  -28.9505  -17.4976   20.8749 H   0  0  0  0  0  0
  -30.3619  -17.3813   19.8543 H   0  0  0  0  0  0
  -30.3484  -16.8168   22.8801 H   0  0  0  0  0  0
  -31.7452  -16.6432   21.8376 H   0  0  0  0  0  0
  -29.6561  -25.8810   21.1859 H   0  0  0  0  0  0
  -28.0146  -25.9413   21.7961 H   0  0  0  0  0  0
  -28.1830  -24.4184   19.2726 H   0  0  0  0  0  0
  -27.5434  -23.8287   20.7698 H   0  0  0  0  0  0
  -30.3423  -22.8571   16.5993 H   0  0  0  0  0  0
  -30.0097  -19.1976   22.2182 H   0  0  0  0  0  0
  -29.4015  -14.8723   22.0714 H   0  0  0  0  0  0
  1 25  1  0  0  0
  1 30  2  0  0  0
  1 91  1  0  0  0
  2  3  1  0  0  0
  2 25  1  0  0  0
  2 93  1  0  0  0
  2 94  1  0  0  0
  3  4  1  0  0  0
  3 95  1  0  0  0
  3 96  1  0  0  0
  4  5  1  0  0  0
  4 97  1  0  0  0
  4 98  1  0  0  0
  5  6  1  0  0  0
  5 26  1  0  0  0
  5 99  1  0  0  0
  6 25  1  0  0  0
  6100  1  0  0  0
  6101  1  0  0  0
  7  8  2  0  0  0
  7 26  1  0  0  0
  7 29  1  0  0  0
  8  9  1  0  0  0
  8 22  1  0  0  0
  9 10  1  0  0  0
  9 27  2  0  0  0
 10 11  2  0  0  0
 10 15  1  0  0  0
 11 12  1  0  0  0
 11102  1  0  0  0
 12 13  2  0  0  0
 12103  1  0  0  0
 13 14  1  0  0  0
 13 31  1  0  0  0
 14 15  2  0  0  0
 14104  1  0  0  0
 15105  1  0  0  0
 16 17  2  0  0  0
 16 21  1  0  0  0
 16 31  1  0  0  0
 17 18  1  0  0  0
 17106  1  0  0  0
 18 19  2  0  0  0
 18107  1  0  0  0
 19 20  1  0  0  0
 19 24  1  0  0  0
 20 21  2  0  0  0
 20108  1  0  0  0
 21 23  1  0  0  0
 22 28  1  0  0  0
 22 32  2  0  0  0
 26 27  1  0  0  0
 28109  1  0  0  0
 28110  1  0  0  0
 29111  1  0  0  0
 29112  1  0  0  0
 33 34  1  0  0  0
 33 66  1  0  0  0
 33 70  2  0  0  0
 34 36  1  0  0  0
 34 59  1  0  0  0
 34113  1  0  0  0
 35 44  2  0  0  0
 35 45  1  0  0  0
 35 68  1  0  0  0
 36 56  1  0  0  0
 36114  1  0  0  0
 37 39  1  0  0  0
 37 47  1  0  0  0
 37 66  1  0  0  0
 37115  1  0  0  0
 38 43  2  0  0  0
 38 46  1  0  0  0
 38 47  1  0  0  0
 39 64  1  0  0  0
 39 67  2  0  0  0
 40 52  1  0  0  0
 40 53  2  0  0  0
 40 58  1  0  0  0
 41116  1  0  0  0
 41117  1  0  0  0
 41118  1  0  0  0
 41 48  1  0  0  0
 42 43  1  0  0  0
 42 66  1  0  0  0
 42119  1  0  0  0
 42120  1  0  0  0
 43 44  1  0  0  0
 44121  1  0  0  0
 45 46  2  0  0  0
 45122  1  0  0  0
 46123  1  0  0  0
 47124  1  0  0  0
 47125  1  0  0  0
 48 56  1  0  0  0
 48 65  1  0  0  0
 48126  1  0  0  0
 49 50  1  0  0  0
 49 53  1  0  0  0
 49 64  1  0  0  0
 49127  1  0  0  0
 50 51  1  0  0  0
 50128  1  0  0  0
 50129  1  0  0  0
 51 52  1  0  0  0
 51130  1  0  0  0
 51131  1  0  0  0
 52132  1  0  0  0
 52133  1  0  0  0
 53 54  1  0  0  0
 54 55  2  0  0  0
 54134  1  0  0  0
 55 57  1  0  0  0
 55135  1  0  0  0
 56 69  2  0  0  0
 57 58  2  0  0  0
 57136  1  0  0  0
 58137  1  0  0  0
 59 60  1  0  0  0
 59 61  1  0  0  0
 59 62  1  0  0  0
 60138  1  0  0  0
 60139  1  0  0  0
 60140  1  0  0  0
 61141  1  0  0  0
 61142  1  0  0  0
 61143  1  0  0  0
 62144  1  0  0  0
 62145  1  0  0  0
 62146  1  0  0  0
 63 65  1  0  0  0
 63147  1  0  0  0
 63148  1  0  0  0
 63149  1  0  0  0
 64150  1  0  0  0
 65151  1  0  0  0
 68 86  1  0  0  0
 71 73  2  0  0  0
 71 75  1  0  0  0
 71152  1  0  0  0
 72 73  1  0  0  0
 72 74  2  0  0  0
 72 88  1  0  0  0
 73 92  1  0  0  0
 74 83  1  0  0  0
 74 89  1  0  0  0
 75 89  2  0  0  0
 75 90  1  0  0  0
 76 77  1  0  0  0
 76153  1  0  0  0
 76154  1  0  0  0
 76 80  1  0  0  0
 77 80  1  0  0  0
 77155  1  0  0  0
 77156  1  0  0  0
 78 79  1  0  0  0
 78157  1  0  0  0
 78158  1  0  0  0
 78 81  1  0  0  0
 79 81  1  0  0  0
 79159  1  0  0  0
 79160  1  0  0  0
 80 88  1  0  0  0
 80161  1  0  0  0
 81 88  1  0  0  0
 81162  1  0  0  0
 82 83  1  0  0  0
 82163  1  0  0  0
 82164  1  0  0  0
 82165  1  0  0  0
 83166  1  0  0  0
 83167  1  0  0  0
 84 85  1  0  0  0
 84 90  1  0  0  0
 84168  1  0  0  0
 84169  1  0  0  0
 85 91  1  0  0  0
 85170  1  0  0  0
 85171  1  0  0  0
 86 87  1  0  0  0
 86172  1  0  0  0
 86173  1  0  0  0
 87 92  1  0  0  0
 87174  1  0  0  0
 87175  1  0  0  0
 88176  1  0  0  0
 90177  1  0  0  0
 91178  1  0  0  0
M  ISO  4   1 100  68 101  86 101  91 100
M  END
> <chiral flag>
0

> <version>
0

> <s_m_source_file>
/data/baiqing/PycharmProjects/Reinvent-master-3.2/result/LINK_invent/BTK/process_docking_weight1_custom_sum_contain_oxygen_bond_distance_aromatic_linkinvent_7_9_3/rearranged_h_0135.sdf

> <i_m_source_file_index>
2

> <r_mmod_Potential_Energy-OPLS-2005>
-241.803039550781

> <r_mmod_Stretch_Energy-OPLS-2005>
41.6747970581055

> <r_mmod_Bend_Energy-OPLS-2005>
132.979553222656

> <r_mmod_Torsional_Energy-OPLS-2005>
340.16162109375

> <r_mmod_Improper_Torsional_Energy-OPLS-2005>
7.10517644882202

> <r_mmod_Van_der_Waal_Energy-OPLS-2005>
151.565292358398

> <r_mmod_Electrostatic_Energy-OPLS-2005>
-684.301208496094

> <r_mmod_Solvation_Energy-OPLS-2005>
-238.598052978516

> <b_mmod_Minimization_Converged-OPLS-2005>
0

> <r_mmod_RMS_Derivative-OPLS-2005>
10.1015911102295

$$$$
2
                    3D
 Structure written by MMmdl.
175184  0  0  1  0            999 V2000
  -30.7188  -14.4539   20.6458 C   0  0  0  0  0  0
  -30.4272  -12.3193   19.4276 C   0  0  0  0  0  0
  -29.4998  -12.5110   18.2108 C   0  0  0  0  0  0
  -28.0211  -12.3648   18.6202 C   0  0  0  0  0  0
  -27.6621  -13.2051   19.8744 C   0  0  2  0  0  0
  -28.6977  -12.9805   20.9981 C   0  0  0  0  0  0
  -25.2596  -13.8159   20.5675 C   0  0  0  0  0  0
  -24.1842  -13.0439   20.9169 C   0  0  0  0  0  0
  -24.6390  -11.6900   20.8721 C   0  0  0  0  0  0
  -23.9060  -10.4299   21.0400 C   0  0  0  0  0  0
  -24.3615   -9.4217   21.9180 C   0  0  0  0  0  0
  -23.6292   -8.2248   22.0752 C   0  0  0  0  0  0
  -22.4277   -8.0287   21.3545 C   0  0  0  0  0  0
  -21.9910   -9.0256   20.4644 C   0  0  0  0  0  0
  -22.7235  -10.2135   20.3049 C   0  0  0  0  0  0
  -21.6854   -6.0741   22.5283 C   0  0  0  0  0  0
  -21.4013   -6.5643   23.8217 C   0  0  0  0  0  0
  -21.3657   -5.6795   24.9177 C   0  0  0  0  0  0
  -21.6044   -4.3057   24.7225 C   0  0  0  0  0  0
  -21.8815   -3.8146   23.4349 C   0  0  0  0  0  0
  -21.9193   -4.6964   22.3405 C   0  0  0  0  0  0
  -22.7870  -13.5238   21.1832 C   0  0  0  0  0  0
  -22.1663   -4.2153   21.0984 F   0  0  0  0  0  0
  -21.5627   -3.4540   25.7737 F   0  0  0  0  0  0
  -30.0323  -13.2932   20.4585 N   0  0  0  0  0  0
  -26.3020  -12.9312   20.3333 N   0  0  0  0  0  0
  -25.9311  -11.6476   20.5742 N   0  0  0  0  0  0
  -22.0489  -12.8229   22.0372 N   0  0  0  0  0  0
  -25.4340  -15.1876   20.4097 N   0  0  0  0  0  0
  -31.8061  -14.6782   20.1072 O   0  0  0  0  0  0
  -21.6639   -6.8880   21.4246 O   0  0  0  0  0  0
  -22.3565  -14.5555   20.6695 O   0  0  0  0  0  0
  -24.6120  -31.8696   23.2077 C   0  0  0  0  0  0
  -25.9011  -32.4842   23.8398 C   0  0  1  0  0  0
  -27.2376  -27.4322   20.1026 C   0  0  0  0  0  0
  -25.5854  -33.8639   24.2329 N   0  0  0  0  0  0
  -23.3998  -30.4890   21.5513 C   0  0  2  0  0  0
  -24.8462  -28.9456   20.1260 C   0  0  0  0  0  0
  -22.7394  -29.4669   22.5034 C   0  0  0  0  0  0
  -18.0248  -28.1409   22.8501 C   0  0  0  0  0  0
  -24.1464  -36.7330   23.2632 C   0  0  0  0  0  0
  -25.9263  -30.8344   21.3582 C   0  0  0  0  0  0
  -26.0028  -29.4607   20.7213 C   0  0  0  0  0  0
  -27.2001  -28.7102   20.7070 C   0  0  0  0  0  0
  -26.0600  -26.9244   19.5125 C   0  0  0  0  0  0
  -24.8666  -27.6753   19.5232 C   0  0  0  0  0  0
  -23.6084  -29.8136   20.1689 C   0  0  0  0  0  0
  -25.4088  -36.3139   24.0342 C   0  0  1  0  0  0
  -20.5839  -28.3688   23.1338 C   0  0  2  0  0  0
  -20.6737  -26.9437   22.5424 C   0  0  0  0  0  0
  -19.5720  -26.6429   21.5214 C   0  0  0  0  0  0
  -18.1897  -26.7952   22.1630 C   0  0  0  0  0  0
  -19.1500  -28.8863   23.2917 C   0  0  0  0  0  0
  -18.9447  -30.1455   23.8957 C   0  0  0  0  0  0
  -17.6455  -30.6613   24.0572 C   0  0  0  0  0  0
  -25.9025  -34.9499   23.5144 C   0  0  0  0  0  0
  -16.5339  -29.9130   23.6321 C   0  0  0  0  0  0
  -16.7241  -28.6534   23.0364 C   0  0  0  0  0  0
  -26.4449  -31.6595   25.0709 C   0  0  0  0  0  0
  -25.3723  -31.3694   26.1462 C   0  0  0  0  0  0
  -27.0246  -30.3032   24.6058 C   0  0  0  0  0  0
  -27.6055  -32.4275   25.7459 C   0  0  0  0  0  0
  -27.5588  -37.1814   24.8459 C   0  0  0  0  0  0
  -21.4124  -29.3050   22.3763 N   0  0  0  0  0  0
  -26.4279  -37.3823   23.9427 N   0  0  0  0  0  0
  -24.6651  -31.0797   22.0986 N   0  0  0  0  0  0
  -23.4163  -28.8238   23.3100 O   0  0  0  0  0  0
  -28.4484  -26.7756   20.0187 O   0  0  0  0  0  0
  -26.5632  -34.8951   22.4733 O   0  0  0  0  0  0
  -23.5319  -32.1461   23.7476 O   0  0  0  0  0  0
  -29.6412  -23.6121   21.5060 C   0  0  0  0  0  0
  -29.2568  -24.9643   21.3805 C   0  0  0  0  0  0
  -28.2717  -24.4765   19.2204 C   0  0  0  0  0  0
  -29.3587  -22.6734   20.4863 C   0  0  0  0  0  0
  -28.6213  -23.1111   19.3522 C   0  0  0  0  0  0
  -28.5941  -25.4188   20.2225 C   0  0  0  0  0  0
  -31.4035  -17.9860   23.9080 C   0  0  0  0  0  0
  -30.8704  -16.6468   23.3769 C   0  0  0  0  0  0
  -29.7314  -17.8784   21.4754 C   0  0  0  0  0  0
  -30.4659  -19.1686   23.5633 C   0  0  2  0  0  0
  -30.6500  -16.6796   21.8539 C   0  0  2  0  0  0
  -30.2748  -19.2385   22.0185 C   0  0  2  0  0  0
  -28.2569  -22.1603   18.2241 C   0  0  0  0  0  0
  -30.8394  -20.4629   25.7634 C   0  0  0  0  0  0
  -32.3188  -20.9909   23.7852 C   0  0  0  0  0  0
  -29.9866  -21.2692   20.5736 C   0  0  0  0  0  0
  -30.9247  -20.5073   24.2262 C   0  0  0  0  0  0
  -30.1109  -15.3755   21.4211 N   0  0  0  0  0  0
  -29.4186  -20.3993   21.6302 N   0  3  0  0  0  0
  -31.4718  -12.4254   19.1297 H   0  0  0  0  0  0
  -30.3363  -11.3062   19.8230 H   0  0  0  0  0  0
  -29.7442  -11.7857   17.4333 H   0  0  0  0  0  0
  -29.6651  -13.4963   17.7731 H   0  0  0  0  0  0
  -27.8364  -11.3090   18.8178 H   0  0  0  0  0  0
  -27.3714  -12.6331   17.7867 H   0  0  0  0  0  0
  -27.7099  -14.2537   19.5789 H   0  0  0  0  0  0
  -28.6769  -11.9415   21.3307 H   0  0  0  0  0  0
  -28.4407  -13.5665   21.8803 H   0  0  0  0  0  0
  -25.2761   -9.5690   22.4752 H   0  0  0  0  0  0
  -24.0004   -7.4640   22.7466 H   0  0  0  0  0  0
  -21.0845   -8.8780   19.8944 H   0  0  0  0  0  0
  -22.3709  -10.9673   19.6155 H   0  0  0  0  0  0
  -21.2009   -7.6154   23.9727 H   0  0  0  0  0  0
  -21.1481   -6.0522   25.9082 H   0  0  0  0  0  0
  -22.0596   -2.7606   23.2855 H   0  0  0  0  0  0
  -22.4085  -11.9880   22.4753 H   0  0  0  0  0  0
  -21.1089  -13.1240   22.2521 H   0  0  0  0  0  0
  -24.6708  -15.8458   20.5234 H   0  0  0  0  0  0
  -26.2867  -15.6225   20.0791 H   0  0  0  0  0  0
  -26.7104  -32.5585   23.1190 H   0  0  0  0  0  0
  -24.9895  -33.9798   25.0401 H   0  0  0  0  0  0
  -22.6865  -31.3047   21.4093 H   0  0  0  0  0  0
  -23.3734  -35.9654   23.3296 H   0  0  0  0  0  0
  -24.3554  -36.8937   22.2045 H   0  0  0  0  0  0
  -23.7219  -37.6535   23.6644 H   0  0  0  0  0  0
  -26.0204  -31.5871   20.5745 H   0  0  0  0  0  0
  -26.8210  -30.9073   21.9632 H   0  0  0  0  0  0
  -28.1015  -29.1171   21.1425 H   0  0  0  0  0  0
  -26.0530  -25.9628   19.0252 H   0  0  0  0  0  0
  -23.9769  -27.2738   19.0587 H   0  0  0  0  0  0
  -23.7150  -30.5845   19.4047 H   0  0  0  0  0  0
  -22.7327  -29.2315   19.8784 H   0  0  0  0  0  0
  -25.1244  -36.2017   25.0836 H   0  0  0  0  0  0
  -20.9895  -28.3266   24.1466 H   0  0  0  0  0  0
  -20.5611  -26.2322   23.3618 H   0  0  0  0  0  0
  -21.6622  -26.7475   22.1242 H   0  0  0  0  0  0
  -19.6870  -25.6352   21.1214 H   0  0  0  0  0  0
  -19.6638  -27.3275   20.6769 H   0  0  0  0  0  0
  -17.4151  -26.6704   21.4047 H   0  0  0  0  0  0
  -18.0297  -26.0103   22.9030 H   0  0  0  0  0  0
  -19.7923  -30.7236   24.2389 H   0  0  0  0  0  0
  -17.5015  -31.6296   24.5179 H   0  0  0  0  0  0
  -15.5343  -30.3061   23.7621 H   0  0  0  0  0  0
  -15.8631  -28.0859   22.7089 H   0  0  0  0  0  0
  -24.5908  -30.7023   25.7810 H   0  0  0  0  0  0
  -24.8898  -32.2835   26.4919 H   0  0  0  0  0  0
  -25.8068  -30.8867   27.0222 H   0  0  0  0  0  0
  -26.2771  -29.6840   24.1079 H   0  0  0  0  0  0
  -27.3980  -29.7222   25.4509 H   0  0  0  0  0  0
  -27.8624  -30.4352   23.9210 H   0  0  0  0  0  0
  -27.2717  -33.3579   26.2066 H   0  0  0  0  0  0
  -28.3839  -32.6811   25.0247 H   0  0  0  0  0  0
  -28.0741  -31.8363   26.5336 H   0  0  0  0  0  0
  -28.2603  -38.0121   24.7540 H   0  0  0  0  0  0
  -28.1086  -36.2663   24.6208 H   0  0  0  0  0  0
  -27.2320  -37.1371   25.8863 H   0  0  0  0  0  0
  -20.9320  -29.8763   21.6970 H   0  0  0  0  0  0
  -26.0173  -38.2894   24.1453 H   0  0  0  0  0  0
  -30.2183  -23.3222   22.3732 H   0  0  0  0  0  0
  -29.5449  -25.6717   22.1469 H   0  0  0  0  0  0
  -27.7985  -24.8175   18.3104 H   0  0  0  0  0  0
  -32.3988  -18.1589   23.4969 H   0  0  0  0  0  0
  -31.5325  -17.8994   24.9860 H   0  0  0  0  0  0
  -29.9372  -16.4026   23.8874 H   0  0  0  0  0  0
  -31.5751  -15.8537   23.6340 H   0  0  0  0  0  0
  -28.7277  -17.7045   21.8672 H   0  0  0  0  0  0
  -29.6326  -17.9290   20.3903 H   0  0  0  0  0  0
  -29.4893  -18.9348   23.9921 H   0  0  0  0  0  0
  -31.6183  -16.8460   21.3774 H   0  0  0  0  0  0
  -31.2661  -19.3768   21.5834 H   0  0  0  0  0  0
  -27.4851  -22.5872   17.5812 H   0  0  0  0  0  0
  -27.8648  -21.2186   18.6115 H   0  0  0  0  0  0
  -29.1258  -21.9500   17.6003 H   0  0  0  0  0  0
  -29.8535  -20.1400   26.1015 H   0  0  0  0  0  0
  -31.0162  -21.4504   26.1926 H   0  0  0  0  0  0
  -31.5779  -19.7905   26.1997 H   0  0  0  0  0  0
  -32.3925  -21.1093   22.7056 H   0  0  0  0  0  0
  -33.1062  -20.3050   24.0979 H   0  0  0  0  0  0
  -32.5468  -21.9635   24.2243 H   0  0  0  0  0  0
  -31.0472  -21.4323   20.7677 H   0  0  0  0  0  0
  -29.9501  -20.7428   19.6210 H   0  0  0  0  0  0
  -30.2182  -21.2857   23.9369 H   0  0  0  0  0  0
  -29.2187  -15.0984   21.8023 H   0  0  0  0  0  0
  -29.3168  -20.9761   22.4491 H   0  0  0  0  0  0
  -28.4965  -20.0958   21.3629 H   0  0  0  0  0  0
  1 25  1  0  0  0
  1 30  2  0  0  0
  1 88  1  0  0  0
  2  3  1  0  0  0
  2 25  1  0  0  0
  2 90  1  0  0  0
  2 91  1  0  0  0
  3  4  1  0  0  0
  3 92  1  0  0  0
  3 93  1  0  0  0
  4  5  1  0  0  0
  4 94  1  0  0  0
  4 95  1  0  0  0
  5  6  1  0  0  0
  5 26  1  0  0  0
  5 96  1  0  0  0
  6 25  1  0  0  0
  6 97  1  0  0  0
  6 98  1  0  0  0
  7  8  2  0  0  0
  7 26  1  0  0  0
  7 29  1  0  0  0
  8  9  1  0  0  0
  8 22  1  0  0  0
  9 10  1  0  0  0
  9 27  2  0  0  0
 10 11  2  0  0  0
 10 15  1  0  0  0
 11 12  1  0  0  0
 11 99  1  0  0  0
 12 13  2  0  0  0
 12100  1  0  0  0
 13 14  1  0  0  0
 13 31  1  0  0  0
 14 15  2  0  0  0
 14101  1  0  0  0
 15102  1  0  0  0
 16 17  2  0  0  0
 16 21  1  0  0  0
 16 31  1  0  0  0
 17 18  1  0  0  0
 17103  1  0  0  0
 18 19  2  0  0  0
 18104  1  0  0  0
 19 20  1  0  0  0
 19 24  1  0  0  0
 20 21  2  0  0  0
 20105  1  0  0  0
 21 23  1  0  0  0
 22 28  1  0  0  0
 22 32  2  0  0  0
 26 27  1  0  0  0
 28106  1  0  0  0
 28107  1  0  0  0
 29108  1  0  0  0
 29109  1  0  0  0
 33 34  1  0  0  0
 33 66  1  0  0  0
 33 70  2  0  0  0
 34 36  1  0  0  0
 34 59  1  0  0  0
 34110  1  0  0  0
 35 44  2  0  0  0
 35 45  1  0  0  0
 35 68  1  0  0  0
 36 56  1  0  0  0
 36111  1  0  0  0
 37 39  1  0  0  0
 37 47  1  0  0  0
 37 66  1  0  0  0
 37112  1  0  0  0
 38 43  2  0  0  0
 38 46  1  0  0  0
 38 47  1  0  0  0
 39 64  1  0  0  0
 39 67  2  0  0  0
 40 52  1  0  0  0
 40 53  2  0  0  0
 40 58  1  0  0  0
 41113  1  0  0  0
 41114  1  0  0  0
 41115  1  0  0  0
 41 48  1  0  0  0
 42 43  1  0  0  0
 42 66  1  0  0  0
 42116  1  0  0  0
 42117  1  0  0  0
 43 44  1  0  0  0
 44118  1  0  0  0
 45 46  2  0  0  0
 45119  1  0  0  0
 46120  1  0  0  0
 47121  1  0  0  0
 47122  1  0  0  0
 48 56  1  0  0  0
 48 65  1  0  0  0
 48123  1  0  0  0
 49 50  1  0  0  0
 49 53  1  0  0  0
 49 64  1  0  0  0
 49124  1  0  0  0
 50 51  1  0  0  0
 50125  1  0  0  0
 50126  1  0  0  0
 51 52  1  0  0  0
 51127  1  0  0  0
 51128  1  0  0  0
 52129  1  0  0  0
 52130  1  0  0  0
 53 54  1  0  0  0
 54 55  2  0  0  0
 54131  1  0  0  0
 55 57  1  0  0  0
 55132  1  0  0  0
 56 69  2  0  0  0
 57 58  2  0  0  0
 57133  1  0  0  0
 58134  1  0  0  0
 59 60  1  0  0  0
 59 61  1  0  0  0
 59 62  1  0  0  0
 60135  1  0  0  0
 60136  1  0  0  0
 60137  1  0  0  0
 61138  1  0  0  0
 61139  1  0  0  0
 61140  1  0  0  0
 62141  1  0  0  0
 62142  1  0  0  0
 62143  1  0  0  0
 63 65  1  0  0  0
 63144  1  0  0  0
 63145  1  0  0  0
 63146  1  0  0  0
 64147  1  0  0  0
 65148  1  0  0  0
 68 76  1  0  0  0
 71 72  2  0  0  0
 71 74  1  0  0  0
 71149  1  0  0  0
 72 76  1  0  0  0
 72150  1  0  0  0
 73 75  1  0  0  0
 73 76  2  0  0  0
 73151  1  0  0  0
 74 75  2  0  0  0
 74 86  1  0  0  0
 75 83  1  0  0  0
 77 78  1  0  0  0
 77152  1  0  0  0
 77153  1  0  0  0
 77 80  1  0  0  0
 78 81  1  0  0  0
 78154  1  0  0  0
 78155  1  0  0  0
 79 81  1  0  0  0
 79 82  1  0  0  0
 79156  1  0  0  0
 79157  1  0  0  0
 80 82  1  0  0  0
 80 87  1  0  0  0
 80158  1  0  0  0
 81 88  1  0  0  0
 81159  1  0  0  0
 82 89  1  0  0  0
 82160  1  0  0  0
 83161  1  0  0  0
 83162  1  0  0  0
 83163  1  0  0  0
 84164  1  0  0  0
 84165  1  0  0  0
 84166  1  0  0  0
 84 87  1  0  0  0
 85 87  1  0  0  0
 85167  1  0  0  0
 85168  1  0  0  0
 85169  1  0  0  0
 86 89  1  0  0  0
 86170  1  0  0  0
 86171  1  0  0  0
 87172  1  0  0  0
 88173  1  0  0  0
 89174  1  0  0  0
 89175  1  0  0  0
M  CHG  1  89   1
M  ISO  4   1 100  68 101  76 101  88 100
M  END
> <chiral flag>
0

> <version>
0

> <s_m_source_file>
/data/baiqing/PycharmProjects/Reinvent-master-3.2/result/LINK_invent/BTK/process_docking_weight1_custom_sum_contain_oxygen_bond_distance_aromatic_linkinvent_7_9_3/rearranged_h_0135.sdf

> <i_m_source_file_index>
3

> <r_mmod_Potential_Energy-OPLS-2005>
-163.432571411133

> <r_mmod_Stretch_Energy-OPLS-2005>
41.9233551025391

> <r_mmod_Bend_Energy-OPLS-2005>
109.208511352539

> <r_mmod_Torsional_Energy-OPLS-2005>
241.407745361328

> <r_mmod_Improper_Torsional_Energy-OPLS-2005>
3.82244563102722

> <r_mmod_Van_der_Waal_Energy-OPLS-2005>
149.179595947266

> <r_mmod_Electrostatic_Energy-OPLS-2005>
-270.735565185547

> <r_mmod_Solvation_Energy-OPLS-2005>
-448.761016845703

> <b_mmod_Minimization_Converged-OPLS-2005>
0

> <r_mmod_RMS_Derivative-OPLS-2005>
2.47895479202271

$$$$
3
                    3D
 Structure written by MMmdl.
166175  0  0  1  0            999 V2000
  -30.7102  -14.4646   20.4429 C   0  0  0  0  0  0
  -30.3998  -12.2611   19.4503 C   0  0  0  0  0  0
  -29.5031  -12.4718   18.2124 C   0  0  0  0  0  0
  -28.0122  -12.3789   18.5968 C   0  0  0  0  0  0
  -27.6547  -13.2137   19.8600 C   0  0  2  0  0  0
  -28.6961  -13.0406   20.9899 C   0  0  0  0  0  0
  -25.2558  -13.8168   20.5599 C   0  0  0  0  0  0
  -24.1834  -13.0442   20.9135 C   0  0  0  0  0  0
  -24.6378  -11.6901   20.8676 C   0  0  0  0  0  0
  -23.9064  -10.4296   21.0343 C   0  0  0  0  0  0
  -24.3654   -9.4234   21.9127 C   0  0  0  0  0  0
  -23.6329   -8.2272   22.0714 C   0  0  0  0  0  0
  -22.4298   -8.0281   21.3525 C   0  0  0  0  0  0
  -21.9924   -9.0244   20.4620 C   0  0  0  0  0  0
  -22.7234  -10.2129   20.2998 C   0  0  0  0  0  0
  -21.6881   -6.0726   22.5267 C   0  0  0  0  0  0
  -21.4030   -6.5629   23.8203 C   0  0  0  0  0  0
  -21.3676   -5.6782   24.9169 C   0  0  0  0  0  0
  -21.6054   -4.3046   24.7226 C   0  0  0  0  0  0
  -21.8823   -3.8130   23.4352 C   0  0  0  0  0  0
  -21.9201   -4.6944   22.3398 C   0  0  0  0  0  0
  -22.7852  -13.5225   21.1827 C   0  0  0  0  0  0
  -22.1652   -4.2133   21.0963 F   0  0  0  0  0  0
  -21.5656   -3.4528   25.7735 F   0  0  0  0  0  0
  -30.0294  -13.2901   20.4256 N   0  0  0  0  0  0
  -26.2986  -12.9357   20.3263 N   0  0  0  0  0  0
  -25.9308  -11.6510   20.5699 N   0  0  0  0  0  0
  -22.0508  -12.8197   22.0376 N   0  0  0  0  0  0
  -25.4330  -15.1889   20.3944 N   0  0  0  0  0  0
  -31.9155  -14.5520   20.1943 O   0  0  0  0  0  0
  -21.6668   -6.8872   21.4215 O   0  0  0  0  0  0
  -22.3519  -14.5529   20.6664 O   0  0  0  0  0  0
  -24.6080  -31.8691   23.2051 C   0  0  0  0  0  0
  -25.9014  -32.4794   23.8346 C   0  0  1  0  0  0
  -27.2503  -27.4466   20.1240 C   0  0  0  0  0  0
  -25.5884  -33.8594   24.2299 N   0  0  0  0  0  0
  -23.3945  -30.4819   21.5485 C   0  0  2  0  0  0
  -24.8428  -28.9395   20.1132 C   0  0  0  0  0  0
  -22.7425  -29.4633   22.5092 C   0  0  0  0  0  0
  -18.0275  -28.1364   22.8497 C   0  0  0  0  0  0
  -24.1497  -36.7292   23.2653 C   0  0  0  0  0  0
  -25.9190  -30.8312   21.3596 C   0  0  0  0  0  0
  -25.9934  -29.4666   20.7114 C   0  0  0  0  0  0
  -27.1901  -28.7265   20.7117 C   0  0  0  0  0  0
  -26.0903  -26.9237   19.5063 C   0  0  0  0  0  0
  -24.8878  -27.6674   19.5043 C   0  0  0  0  0  0
  -23.5968  -29.7967   20.1667 C   0  0  0  0  0  0
  -25.4123  -36.3112   24.0352 C   0  0  1  0  0  0
  -20.5866  -28.3625   23.1371 C   0  0  2  0  0  0
  -20.6782  -26.9366   22.5475 C   0  0  0  0  0  0
  -19.5760  -26.6371   21.5269 C   0  0  0  0  0  0
  -18.1912  -26.7919   22.1606 C   0  0  0  0  0  0
  -19.1515  -28.8817   23.2916 C   0  0  0  0  0  0
  -18.9450  -30.1438   23.8898 C   0  0  0  0  0  0
  -17.6438  -30.6569   24.0550 C   0  0  0  0  0  0
  -25.9055  -34.9467   23.5138 C   0  0  0  0  0  0
  -16.5333  -29.9055   23.6329 C   0  0  0  0  0  0
  -16.7253  -28.6477   23.0339 C   0  0  0  0  0  0
  -26.4464  -31.6541   25.0647 C   0  0  0  0  0  0
  -25.3747  -31.3578   26.1397 C   0  0  0  0  0  0
  -27.0327  -30.3003   24.5984 C   0  0  0  0  0  0
  -27.6048  -32.4256   25.7383 C   0  0  0  0  0  0
  -27.5610  -37.1808   24.8478 C   0  0  0  0  0  0
  -21.4161  -29.2957   22.3789 N   0  0  0  0  0  0
  -26.4326  -37.3789   23.9412 N   0  0  0  0  0  0
  -24.6568  -31.0806   22.0927 N   0  0  0  0  0  0
  -23.4218  -28.8259   23.3174 O   0  0  0  0  0  0
  -28.4680  -26.8115   20.2153 O   0  0  0  0  0  0
  -26.5643  -34.8935   22.4712 O   0  0  0  0  0  0
  -23.5285  -32.1454   23.7466 O   0  0  0  0  0  0
  -30.7344  -17.3637   17.1910 C   0  0  0  0  0  0
  -30.6523  -16.3540   18.1597 C   0  0  0  0  0  0
  -29.6279  -17.9259   19.7111 C   0  0  0  0  0  0
  -29.6857  -18.9569   18.7308 C   0  0  0  0  0  0
  -30.2390  -18.6536   17.4527 C   0  0  0  0  0  0
  -30.0955  -16.6179   19.4368 C   0  0  0  0  0  0
  -28.1582  -20.4911   20.1991 C   0  0  0  0  0  0
  -30.2636  -21.3963   19.2717 C   0  0  0  0  0  0
  -27.5850  -21.9256   20.3095 C   0  0  0  0  0  0
  -29.6937  -22.8232   19.3698 C   0  0  0  0  0  0
  -29.1462  -20.3705   19.0237 C   0  0  1  0  0  0
  -30.3119  -19.6689   16.3187 C   0  0  0  0  0  0
  -28.1078  -24.3478   20.6654 C   0  0  0  0  0  0
  -28.7105  -25.4778   19.7807 C   0  0  0  0  0  0
  -29.9427  -15.5675   20.4034 N   0  0  0  0  0  0
  -28.6513  -22.9607   20.4343 N   0  3  1  0  0  0
  -31.4554  -12.3056   19.1773 H   0  0  0  0  0  0
  -30.2327  -11.2693   19.8732 H   0  0  0  0  0  0
  -29.7387  -11.7276   17.4507 H   0  0  0  0  0  0
  -29.7143  -13.4427   17.7618 H   0  0  0  0  0  0
  -27.7764  -11.3271   18.7575 H   0  0  0  0  0  0
  -27.3946  -12.7022   17.7574 H   0  0  0  0  0  0
  -27.6843  -14.2563   19.5515 H   0  0  0  0  0  0
  -28.6506  -12.0280   21.3932 H   0  0  0  0  0  0
  -28.4813  -13.7167   21.8209 H   0  0  0  0  0  0
  -25.2793   -9.5748   22.4708 H   0  0  0  0  0  0
  -24.0062   -7.4665   22.7419 H   0  0  0  0  0  0
  -21.0868   -8.8731   19.8921 H   0  0  0  0  0  0
  -22.3642  -10.9672   19.6125 H   0  0  0  0  0  0
  -21.2003   -7.6138   23.9691 H   0  0  0  0  0  0
  -21.1498   -6.0514   25.9072 H   0  0  0  0  0  0
  -22.0580   -2.7590   23.2843 H   0  0  0  0  0  0
  -22.4141  -11.9914   22.4855 H   0  0  0  0  0  0
  -21.1082  -13.1124   22.2507 H   0  0  0  0  0  0
  -24.6727  -15.8542   20.4846 H   0  0  0  0  0  0
  -26.2833  -15.6120   20.0454 H   0  0  0  0  0  0
  -26.7076  -32.5499   23.1104 H   0  0  0  0  0  0
  -25.0021  -33.9722   25.0432 H   0  0  0  0  0  0
  -22.6747  -31.2919   21.4079 H   0  0  0  0  0  0
  -23.3773  -35.9614   23.3318 H   0  0  0  0  0  0
  -24.3612  -36.8889   22.2073 H   0  0  0  0  0  0
  -23.7224  -37.6488   23.6647 H   0  0  0  0  0  0
  -26.0567  -31.5897   20.5887 H   0  0  0  0  0  0
  -26.7975  -30.8709   21.9911 H   0  0  0  0  0  0
  -28.0771  -29.1281   21.1838 H   0  0  0  0  0  0
  -26.0962  -25.9534   19.0328 H   0  0  0  0  0  0
  -24.0062  -27.2517   19.0340 H   0  0  0  0  0  0
  -23.6847  -30.5578   19.3914 H   0  0  0  0  0  0
  -22.7210  -29.2041   19.8947 H   0  0  0  0  0  0
  -25.1310  -36.1999   25.0854 H   0  0  0  0  0  0
  -20.9932  -28.3197   24.1497 H   0  0  0  0  0  0
  -20.5758  -26.2228   23.3669 H   0  0  0  0  0  0
  -21.6647  -26.7470   22.1213 H   0  0  0  0  0  0
  -19.6926  -25.6313   21.1233 H   0  0  0  0  0  0
  -19.6702  -27.3238   20.6847 H   0  0  0  0  0  0
  -17.4258  -26.6771   21.3925 H   0  0  0  0  0  0
  -18.0161  -26.0033   22.8937 H   0  0  0  0  0  0
  -19.7932  -30.7257   24.2252 H   0  0  0  0  0  0
  -17.4992  -31.6238   24.5159 H   0  0  0  0  0  0
  -15.5326  -30.2930   23.7671 H   0  0  0  0  0  0
  -15.8669  -28.0790   22.7032 H   0  0  0  0  0  0
  -24.5935  -30.6919   25.7710 H   0  0  0  0  0  0
  -24.8911  -32.2689   26.4913 H   0  0  0  0  0  0
  -25.8116  -30.8690   27.0114 H   0  0  0  0  0  0
  -26.2845  -29.6680   24.1179 H   0  0  0  0  0  0
  -27.4320  -29.7291   25.4381 H   0  0  0  0  0  0
  -27.8574  -30.4358   23.8978 H   0  0  0  0  0  0
  -27.2673  -33.3530   26.2009 H   0  0  0  0  0  0
  -28.3789  -32.6848   25.0148 H   0  0  0  0  0  0
  -28.0793  -31.8358   26.5234 H   0  0  0  0  0  0
  -28.2652  -38.0086   24.7530 H   0  0  0  0  0  0
  -28.1091  -36.2630   24.6296 H   0  0  0  0  0  0
  -27.2345  -37.1444   25.8886 H   0  0  0  0  0  0
  -20.9406  -29.8526   21.6841 H   0  0  0  0  0  0
  -26.0230  -38.2892   24.1332 H   0  0  0  0  0  0
  -31.1694  -17.1307   16.2265 H   0  0  0  0  0  0
  -31.0115  -15.3701   17.8964 H   0  0  0  0  0  0
  -29.2129  -18.1267   20.6867 H   0  0  0  0  0  0
  -27.3435  -19.7785   20.0638 H   0  0  0  0  0  0
  -28.6506  -20.2320   21.1373 H   0  0  0  0  0  0
  -30.8113  -21.1429   20.1796 H   0  0  0  0  0  0
  -30.9977  -21.3796   18.4672 H   0  0  0  0  0  0
  -26.9239  -21.9787   21.1752 H   0  0  0  0  0  0
  -26.9686  -22.1453   19.4370 H   0  0  0  0  0  0
  -29.2706  -23.1043   18.4052 H   0  0  0  0  0  0
  -30.5362  -23.4857   19.5645 H   0  0  0  0  0  0
  -28.5878  -20.6700   18.1380 H   0  0  0  0  0  0
  -30.4925  -19.1680   15.3658 H   0  0  0  0  0  0
  -31.1294  -20.3725   16.4748 H   0  0  0  0  0  0
  -29.3813  -20.2199   16.1944 H   0  0  0  0  0  0
  -27.0202  -24.3611   20.5784 H   0  0  0  0  0  0
  -28.3033  -24.5805   21.7137 H   0  0  0  0  0  0
  -28.4774  -25.3616   18.7242 H   0  0  0  0  0  0
  -29.7959  -25.4314   19.8728 H   0  0  0  0  0  0
  -29.0271  -15.4807   20.8187 H   0  0  0  0  0  0
  -29.1302  -22.7381   21.2973 H   0  0  0  0  0  0
  1 25  1  0  0  0
  1 30  2  0  0  0
  1 85  1  0  0  0
  2  3  1  0  0  0
  2 25  1  0  0  0
  2 87  1  0  0  0
  2 88  1  0  0  0
  3  4  1  0  0  0
  3 89  1  0  0  0
  3 90  1  0  0  0
  4  5  1  0  0  0
  4 91  1  0  0  0
  4 92  1  0  0  0
  5  6  1  0  0  0
  5 26  1  0  0  0
  5 93  1  0  0  0
  6 25  1  0  0  0
  6 94  1  0  0  0
  6 95  1  0  0  0
  7  8  2  0  0  0
  7 26  1  0  0  0
  7 29  1  0  0  0
  8  9  1  0  0  0
  8 22  1  0  0  0
  9 10  1  0  0  0
  9 27  2  0  0  0
 10 11  2  0  0  0
 10 15  1  0  0  0
 11 12  1  0  0  0
 11 96  1  0  0  0
 12 13  2  0  0  0
 12 97  1  0  0  0
 13 14  1  0  0  0
 13 31  1  0  0  0
 14 15  2  0  0  0
 14 98  1  0  0  0
 15 99  1  0  0  0
 16 17  2  0  0  0
 16 21  1  0  0  0
 16 31  1  0  0  0
 17 18  1  0  0  0
 17100  1  0  0  0
 18 19  2  0  0  0
 18101  1  0  0  0
 19 20  1  0  0  0
 19 24  1  0  0  0
 20 21  2  0  0  0
 20102  1  0  0  0
 21 23  1  0  0  0
 22 28  1  0  0  0
 22 32  2  0  0  0
 26 27  1  0  0  0
 28103  1  0  0  0
 28104  1  0  0  0
 29105  1  0  0  0
 29106  1  0  0  0
 33 34  1  0  0  0
 33 66  1  0  0  0
 33 70  2  0  0  0
 34 36  1  0  0  0
 34 59  1  0  0  0
 34107  1  0  0  0
 35 44  2  0  0  0
 35 45  1  0  0  0
 35 68  1  0  0  0
 36 56  1  0  0  0
 36108  1  0  0  0
 37 39  1  0  0  0
 37 47  1  0  0  0
 37 66  1  0  0  0
 37109  1  0  0  0
 38 43  2  0  0  0
 38 46  1  0  0  0
 38 47  1  0  0  0
 39 64  1  0  0  0
 39 67  2  0  0  0
 40 52  1  0  0  0
 40 53  2  0  0  0
 40 58  1  0  0  0
 41110  1  0  0  0
 41111  1  0  0  0
 41112  1  0  0  0
 41 48  1  0  0  0
 42 43  1  0  0  0
 42 66  1  0  0  0
 42113  1  0  0  0
 42114  1  0  0  0
 43 44  1  0  0  0
 44115  1  0  0  0
 45 46  2  0  0  0
 45116  1  0  0  0
 46117  1  0  0  0
 47118  1  0  0  0
 47119  1  0  0  0
 48 56  1  0  0  0
 48 65  1  0  0  0
 48120  1  0  0  0
 49 50  1  0  0  0
 49 53  1  0  0  0
 49 64  1  0  0  0
 49121  1  0  0  0
 50 51  1  0  0  0
 50122  1  0  0  0
 50123  1  0  0  0
 51 52  1  0  0  0
 51124  1  0  0  0
 51125  1  0  0  0
 52126  1  0  0  0
 52127  1  0  0  0
 53 54  1  0  0  0
 54 55  2  0  0  0
 54128  1  0  0  0
 55 57  1  0  0  0
 55129  1  0  0  0
 56 69  2  0  0  0
 57 58  2  0  0  0
 57130  1  0  0  0
 58131  1  0  0  0
 59 60  1  0  0  0
 59 61  1  0  0  0
 59 62  1  0  0  0
 60132  1  0  0  0
 60133  1  0  0  0
 60134  1  0  0  0
 61135  1  0  0  0
 61136  1  0  0  0
 61137  1  0  0  0
 62138  1  0  0  0
 62139  1  0  0  0
 62140  1  0  0  0
 63 65  1  0  0  0
 63141  1  0  0  0
 63142  1  0  0  0
 63143  1  0  0  0
 64144  1  0  0  0
 65145  1  0  0  0
 68 84  1  0  0  0
 71 72  2  0  0  0
 71 75  1  0  0  0
 71146  1  0  0  0
 72 76  1  0  0  0
 72147  1  0  0  0
 73 74  1  0  0  0
 73 76  2  0  0  0
 73148  1  0  0  0
 74 75  2  0  0  0
 74 81  1  0  0  0
 75 82  1  0  0  0
 76 85  1  0  0  0
 77 79  1  0  0  0
 77 81  1  0  0  0
 77149  1  0  0  0
 77150  1  0  0  0
 78 80  1  0  0  0
 78 81  1  0  0  0
 78151  1  0  0  0
 78152  1  0  0  0
 79 86  1  0  0  0
 79153  1  0  0  0
 79154  1  0  0  0
 80 86  1  0  0  0
 80155  1  0  0  0
 80156  1  0  0  0
 81157  1  0  0  0
 82158  1  0  0  0
 82159  1  0  0  0
 82160  1  0  0  0
 83 84  1  0  0  0
 83161  1  0  0  0
 83162  1  0  0  0
 83 86  1  0  0  0
 84163  1  0  0  0
 84164  1  0  0  0
 85165  1  0  0  0
 86166  1  0  0  0
M  CHG  1  86   1
M  ISO  4   1 100  68 101  84 101  85 100
M  END
> <chiral flag>
0

> <version>
0

> <s_m_source_file>
/data/baiqing/PycharmProjects/Reinvent-master-3.2/result/LINK_invent/BTK/process_docking_weight1_custom_sum_contain_oxygen_bond_distance_aromatic_linkinvent_7_9_3/rearranged_h_0135.sdf

> <i_m_source_file_index>
4

> <r_mmod_Potential_Energy-OPLS-2005>
-39.1472320556641

> <r_mmod_Stretch_Energy-OPLS-2005>
41.8456344604492

> <r_mmod_Bend_Energy-OPLS-2005>
128.664001464844

> <r_mmod_Torsional_Energy-OPLS-2005>
276.903015136719

> <r_mmod_Improper_Torsional_Energy-OPLS-2005>
10.5048151016235

> <r_mmod_Van_der_Waal_Energy-OPLS-2005>
166.261260986328

> <r_mmod_Electrostatic_Energy-OPLS-2005>
-249.205413818359

> <r_mmod_Solvation_Energy-OPLS-2005>
-439.854675292969

> <b_mmod_Minimization_Converged-OPLS-2005>
0

> <r_mmod_RMS_Derivative-OPLS-2005>
4.58406686782837

$$$$
4
                    3D
 Structure written by MMmdl.
172182  0  0  1  0            999 V2000
  -30.7089  -14.5720   20.5414 C   0  0  0  0  0  0
  -30.4130  -12.3660   19.4375 C   0  0  0  0  0  0
  -29.4890  -12.4981   18.2092 C   0  0  0  0  0  0
  -28.0172  -12.3119   18.6313 C   0  0  0  0  0  0
  -27.6414  -13.1853   19.8505 C   0  0  2  0  0  0
  -28.6919  -13.0826   20.9839 C   0  0  0  0  0  0
  -25.2512  -13.8089   20.5630 C   0  0  0  0  0  0
  -24.1780  -13.0392   20.9179 C   0  0  0  0  0  0
  -24.6338  -11.6863   20.8764 C   0  0  0  0  0  0
  -23.9002  -10.4280   21.0421 C   0  0  0  0  0  0
  -24.3574   -9.4211   21.9201 C   0  0  0  0  0  0
  -23.6267   -8.2241   22.0797 C   0  0  0  0  0  0
  -22.4246   -8.0280   21.3587 C   0  0  0  0  0  0
  -21.9849   -9.0244   20.4684 C   0  0  0  0  0  0
  -22.7172  -10.2123   20.3075 C   0  0  0  0  0  0
  -21.6850   -6.0712   22.5263 C   0  0  0  0  0  0
  -21.3996   -6.5622   23.8181 C   0  0  0  0  0  0
  -21.3653   -5.6781   24.9146 C   0  0  0  0  0  0
  -21.6053   -4.3045   24.7223 C   0  0  0  0  0  0
  -21.8818   -3.8139   23.4343 C   0  0  0  0  0  0
  -21.9190   -4.6945   22.3388 C   0  0  0  0  0  0
  -22.7803  -13.5223   21.1820 C   0  0  0  0  0  0
  -22.1676   -4.2138   21.0963 F   0  0  0  0  0  0
  -21.5660   -3.4541   25.7735 F   0  0  0  0  0  0
  -30.0069  -13.4011   20.4108 N   0  0  0  0  0  0
  -26.2910  -12.9209   20.3277 N   0  0  0  0  0  0
  -25.9249  -11.6418   20.5804 N   0  0  0  0  0  0
  -22.0463  -12.8229   22.0400 N   0  0  0  0  0  0
  -25.4193  -15.1802   20.3983 N   0  0  0  0  0  0
  -31.8782  -14.6431   20.1461 O   0  0  0  0  0  0
  -21.6653   -6.8859   21.4240 O   0  0  0  0  0  0
  -22.3486  -14.5517   20.6645 O   0  0  0  0  0  0
  -24.6168  -31.8668   23.2079 C   0  0  0  0  0  0
  -25.9060  -32.4810   23.8381 C   0  0  1  0  0  0
  -27.2296  -27.4029   20.1141 C   0  0  0  0  0  0
  -25.5904  -33.8613   24.2301 N   0  0  0  0  0  0
  -23.4043  -30.4904   21.5495 C   0  0  2  0  0  0
  -24.8505  -28.9548   20.1138 C   0  0  0  0  0  0
  -22.7411  -29.4658   22.4980 C   0  0  0  0  0  0
  -18.0276  -28.1385   22.8491 C   0  0  0  0  0  0
  -24.1476  -36.7317   23.2638 C   0  0  0  0  0  0
  -25.9356  -30.8277   21.3617 C   0  0  0  0  0  0
  -26.0145  -29.4597   20.7078 C   0  0  0  0  0  0
  -27.2070  -28.6962   20.6962 C   0  0  0  0  0  0
  -26.0451  -26.9200   19.5125 C   0  0  0  0  0  0
  -24.8643  -27.6857   19.5100 C   0  0  0  0  0  0
  -23.6132  -29.8245   20.1639 C   0  0  0  0  0  0
  -25.4099  -36.3108   24.0334 C   0  0  1  0  0  0
  -20.5869  -28.3676   23.1320 C   0  0  2  0  0  0
  -20.6768  -26.9406   22.5425 C   0  0  0  0  0  0
  -19.5747  -26.6391   21.5215 C   0  0  0  0  0  0
  -18.1924  -26.7931   22.1623 C   0  0  0  0  0  0
  -19.1527  -28.8848   23.2900 C   0  0  0  0  0  0
  -18.9459  -30.1455   23.8911 C   0  0  0  0  0  0
  -17.6464  -30.6591   24.0574 C   0  0  0  0  0  0
  -25.9033  -34.9476   23.5113 C   0  0  0  0  0  0
  -16.5353  -29.9094   23.6330 C   0  0  0  0  0  0
  -16.7266  -28.6511   23.0343 C   0  0  0  0  0  0
  -26.4475  -31.6604   25.0724 C   0  0  0  0  0  0
  -25.3745  -31.3749   26.1481 C   0  0  0  0  0  0
  -27.0295  -30.3040   24.6114 C   0  0  0  0  0  0
  -27.6048  -32.4337   25.7485 C   0  0  0  0  0  0
  -27.5573  -37.1801   24.8456 C   0  0  0  0  0  0
  -21.4138  -29.3033   22.3712 N   0  0  0  0  0  0
  -26.4275  -37.3801   23.9419 N   0  0  0  0  0  0
  -24.6708  -31.0758   22.0983 N   0  0  0  0  0  0
  -23.4178  -28.8205   23.3032 O   0  0  0  0  0  0
  -28.3885  -26.6425   20.1360 O   0  0  0  0  0  0
  -26.5587  -34.8933   22.4668 O   0  0  0  0  0  0
  -23.5361  -32.1440   23.7463 O   0  0  0  0  0  0
  -28.3499  -22.7973   19.6087 C   0  0  0  0  0  0
  -29.3590  -23.3294   21.8247 C   0  0  0  0  0  0
  -28.3901  -24.3058   19.2284 C   0  0  0  0  0  0
  -29.3751  -24.8411   21.4670 C   0  0  0  0  0  0
  -30.7822  -18.1718   21.5879 C   0  0  0  0  0  0
  -28.6651  -17.7758   20.4374 C   0  0  0  0  0  0
  -30.8937  -16.6415   21.8927 C   0  0  0  0  0  0
  -28.8746  -16.2392   20.4147 C   0  0  0  0  0  0
  -31.4033  -19.6790   17.8300 C   0  0  0  0  0  0
  -29.4899  -22.4138   20.5838 C   0  0  1  0  0  0
  -30.0043  -18.4947   20.3027 C   0  0  0  0  0  0
  -28.2696  -25.2330   20.4621 C   0  0  1  0  0  0
  -31.1346  -20.2910   19.1960 C   0  0  2  0  0  0
  -29.5610  -20.8896   20.9826 C   0  0  0  0  0  0
  -30.0972  -15.6889   21.0622 N   0  0  0  0  0  0
  -29.8968  -19.9277   19.9026 N   0  0  0  0  0  0
  -30.8532  -21.0052   17.9639 N   0  3  0  0  0  0
  -31.4571  -12.4528   19.1317 H   0  0  0  0  0  0
  -30.3241  -11.3739   19.8827 H   0  0  0  0  0  0
  -29.7587  -11.7692   17.4431 H   0  0  0  0  0  0
  -29.6150  -13.4817   17.7517 H   0  0  0  0  0  0
  -27.8643  -11.2602   18.8735 H   0  0  0  0  0  0
  -27.3528  -12.5391   17.7976 H   0  0  0  0  0  0
  -27.6272  -14.1902   19.4494 H   0  0  0  0  0  0
  -28.7055  -12.0758   21.4011 H   0  0  0  0  0  0
  -28.4438  -13.7445   21.8142 H   0  0  0  0  0  0
  -25.2751   -9.5721   22.4735 H   0  0  0  0  0  0
  -24.0021   -7.4614   22.7478 H   0  0  0  0  0  0
  -21.0799   -8.8724   19.8955 H   0  0  0  0  0  0
  -22.3643  -10.9649   19.6161 H   0  0  0  0  0  0
  -21.1986   -7.6129   23.9668 H   0  0  0  0  0  0
  -21.1481   -6.0529   25.9032 H   0  0  0  0  0  0
  -22.0612   -2.7618   23.2830 H   0  0  0  0  0  0
  -22.4074  -11.9873   22.4748 H   0  0  0  0  0  0
  -21.1105  -13.1286   22.2670 H   0  0  0  0  0  0
  -24.6478  -15.8292   20.5016 H   0  0  0  0  0  0
  -26.2601  -15.6164   20.0451 H   0  0  0  0  0  0
  -26.7135  -32.5522   23.1147 H   0  0  0  0  0  0
  -25.0026  -33.9776   25.0426 H   0  0  0  0  0  0
  -22.6919  -31.3072   21.4120 H   0  0  0  0  0  0
  -23.3742  -35.9641   23.3282 H   0  0  0  0  0  0
  -24.3588  -36.8957   22.2059 H   0  0  0  0  0  0
  -23.7222  -37.6509   23.6675 H   0  0  0  0  0  0
  -26.0476  -31.5924   20.5917 H   0  0  0  0  0  0
  -26.8233  -30.8834   21.9798 H   0  0  0  0  0  0
  -28.1049  -29.0844   21.1561 H   0  0  0  0  0  0
  -26.0185  -25.9474   19.0464 H   0  0  0  0  0  0
  -23.9695  -27.2899   19.0493 H   0  0  0  0  0  0
  -23.7220  -30.6018   19.4062 H   0  0  0  0  0  0
  -22.7354  -29.2482   19.8661 H   0  0  0  0  0  0
  -25.1271  -36.1952   25.0824 H   0  0  0  0  0  0
  -20.9961  -28.3258   24.1444 H   0  0  0  0  0  0
  -20.5687  -26.2278   23.3611 H   0  0  0  0  0  0
  -21.6639  -26.7465   22.1217 H   0  0  0  0  0  0
  -19.6905  -25.6304   21.1235 H   0  0  0  0  0  0
  -19.6681  -27.3215   20.6756 H   0  0  0  0  0  0
  -17.4192  -26.6694   21.4019 H   0  0  0  0  0  0
  -18.0313  -26.0077   22.9021 H   0  0  0  0  0  0
  -19.7939  -30.7259   24.2281 H   0  0  0  0  0  0
  -17.5028  -31.6274   24.5176 H   0  0  0  0  0  0
  -15.5357  -30.3000   23.7650 H   0  0  0  0  0  0
  -15.8669  -28.0840   22.7042 H   0  0  0  0  0  0
  -24.5863  -30.7156   25.7839 H   0  0  0  0  0  0
  -24.9009  -32.2928   26.4967 H   0  0  0  0  0  0
  -25.8089  -30.8883   27.0219 H   0  0  0  0  0  0
  -26.2839  -29.6810   24.1164 H   0  0  0  0  0  0
  -27.4049  -29.7269   25.4571 H   0  0  0  0  0  0
  -27.8680  -30.4335   23.9271 H   0  0  0  0  0  0
  -27.2649  -33.3617   26.2088 H   0  0  0  0  0  0
  -28.3833  -32.6935   25.0306 H   0  0  0  0  0  0
  -28.0740  -31.8464   26.5377 H   0  0  0  0  0  0
  -28.2579  -38.0110   24.7539 H   0  0  0  0  0  0
  -28.1076  -36.2652   24.6217 H   0  0  0  0  0  0
  -27.2316  -37.1395   25.8864 H   0  0  0  0  0  0
  -20.9288  -29.8734   21.6925 H   0  0  0  0  0  0
  -26.0152  -38.2867   24.1457 H   0  0  0  0  0  0
  -28.4038  -22.1963   18.7029 H   0  0  0  0  0  0
  -27.3857  -22.5615   20.0626 H   0  0  0  0  0  0
  -28.4379  -23.0936   22.3600 H   0  0  0  0  0  0
  -30.1741  -23.1224   22.5187 H   0  0  0  0  0  0
  -27.6000  -24.5207   18.5108 H   0  0  0  0  0  0
  -29.3267  -24.5217   18.7129 H   0  0  0  0  0  0
  -30.3495  -25.0981   21.0487 H   0  0  0  0  0  0
  -29.2717  -25.4328   22.3770 H   0  0  0  0  0  0
  -31.7820  -18.6099   21.5459 H   0  0  0  0  0  0
  -30.2910  -18.6401   22.4431 H   0  0  0  0  0  0
  -28.1625  -18.0744   21.3599 H   0  0  0  0  0  0
  -27.9884  -18.0542   19.6266 H   0  0  0  0  0  0
  -30.5863  -16.4807   22.9283 H   0  0  0  0  0  0
  -31.9542  -16.3800   21.8855 H   0  0  0  0  0  0
  -28.8783  -15.9387   19.3649 H   0  0  0  0  0  0
  -28.0084  -15.7871   20.8902 H   0  0  0  0  0  0
  -30.6683  -19.0310   17.3540 H   0  0  0  0  0  0
  -32.3897  -19.7437   17.3768 H   0  0  0  0  0  0
  -30.4348  -22.6902   20.1196 H   0  0  0  0  0  0
  -30.5124  -17.9766   19.4879 H   0  0  0  0  0  0
  -27.3140  -25.0438   20.9545 H   0  0  0  0  0  0
  -31.9887  -20.7251   19.7112 H   0  0  0  0  0  0
  -28.6180  -20.5941   21.4442 H   0  0  0  0  0  0
  -30.3189  -20.7947   21.7620 H   0  0  0  0  0  0
  -29.8880  -21.0801   17.6963 H   0  0  0  0  0  0
  -31.4853  -21.7493   17.7246 H   0  0  0  0  0  0
  1 25  1  0  0  0
  1 30  2  0  0  0
  1 85  1  0  0  0
  2  3  1  0  0  0
  2 25  1  0  0  0
  2 88  1  0  0  0
  2 89  1  0  0  0
  3  4  1  0  0  0
  3 90  1  0  0  0
  3 91  1  0  0  0
  4  5  1  0  0  0
  4 92  1  0  0  0
  4 93  1  0  0  0
  5  6  1  0  0  0
  5 26  1  0  0  0
  5 94  1  0  0  0
  6 25  1  0  0  0
  6 95  1  0  0  0
  6 96  1  0  0  0
  7  8  2  0  0  0
  7 26  1  0  0  0
  7 29  1  0  0  0
  8  9  1  0  0  0
  8 22  1  0  0  0
  9 10  1  0  0  0
  9 27  2  0  0  0
 10 11  2  0  0  0
 10 15  1  0  0  0
 11 12  1  0  0  0
 11 97  1  0  0  0
 12 13  2  0  0  0
 12 98  1  0  0  0
 13 14  1  0  0  0
 13 31  1  0  0  0
 14 15  2  0  0  0
 14 99  1  0  0  0
 15100  1  0  0  0
 16 17  2  0  0  0
 16 21  1  0  0  0
 16 31  1  0  0  0
 17 18  1  0  0  0
 17101  1  0  0  0
 18 19  2  0  0  0
 18102  1  0  0  0
 19 20  1  0  0  0
 19 24  1  0  0  0
 20 21  2  0  0  0
 20103  1  0  0  0
 21 23  1  0  0  0
 22 28  1  0  0  0
 22 32  2  0  0  0
 26 27  1  0  0  0
 28104  1  0  0  0
 28105  1  0  0  0
 29106  1  0  0  0
 29107  1  0  0  0
 33 34  1  0  0  0
 33 66  1  0  0  0
 33 70  2  0  0  0
 34 36  1  0  0  0
 34 59  1  0  0  0
 34108  1  0  0  0
 35 44  2  0  0  0
 35 45  1  0  0  0
 35 68  1  0  0  0
 36 56  1  0  0  0
 36109  1  0  0  0
 37 39  1  0  0  0
 37 47  1  0  0  0
 37 66  1  0  0  0
 37110  1  0  0  0
 38 43  2  0  0  0
 38 46  1  0  0  0
 38 47  1  0  0  0
 39 64  1  0  0  0
 39 67  2  0  0  0
 40 52  1  0  0  0
 40 53  2  0  0  0
 40 58  1  0  0  0
 41111  1  0  0  0
 41112  1  0  0  0
 41113  1  0  0  0
 41 48  1  0  0  0
 42 43  1  0  0  0
 42 66  1  0  0  0
 42114  1  0  0  0
 42115  1  0  0  0
 43 44  1  0  0  0
 44116  1  0  0  0
 45 46  2  0  0  0
 45117  1  0  0  0
 46118  1  0  0  0
 47119  1  0  0  0
 47120  1  0  0  0
 48 56  1  0  0  0
 48 65  1  0  0  0
 48121  1  0  0  0
 49 50  1  0  0  0
 49 53  1  0  0  0
 49 64  1  0  0  0
 49122  1  0  0  0
 50 51  1  0  0  0
 50123  1  0  0  0
 50124  1  0  0  0
 51 52  1  0  0  0
 51125  1  0  0  0
 51126  1  0  0  0
 52127  1  0  0  0
 52128  1  0  0  0
 53 54  1  0  0  0
 54 55  2  0  0  0
 54129  1  0  0  0
 55 57  1  0  0  0
 55130  1  0  0  0
 56 69  2  0  0  0
 57 58  2  0  0  0
 57131  1  0  0  0
 58132  1  0  0  0
 59 60  1  0  0  0
 59 61  1  0  0  0
 59 62  1  0  0  0
 60133  1  0  0  0
 60134  1  0  0  0
 60135  1  0  0  0
 61136  1  0  0  0
 61137  1  0  0  0
 61138  1  0  0  0
 62139  1  0  0  0
 62140  1  0  0  0
 62141  1  0  0  0
 63 65  1  0  0  0
 63142  1  0  0  0
 63143  1  0  0  0
 63144  1  0  0  0
 64145  1  0  0  0
 65146  1  0  0  0
 68 82  1  0  0  0
 71 73  1  0  0  0
 71 80  1  0  0  0
 71147  1  0  0  0
 71148  1  0  0  0
 72 74  1  0  0  0
 72 80  1  0  0  0
 72149  1  0  0  0
 72150  1  0  0  0
 73 82  1  0  0  0
 73151  1  0  0  0
 73152  1  0  0  0
 74 82  1  0  0  0
 74153  1  0  0  0
 74154  1  0  0  0
 75 77  1  0  0  0
 75 81  1  0  0  0
 75155  1  0  0  0
 75156  1  0  0  0
 76 78  1  0  0  0
 76 81  1  0  0  0
 76157  1  0  0  0
 76158  1  0  0  0
 77 85  1  0  0  0
 77159  1  0  0  0
 77160  1  0  0  0
 78 85  1  0  0  0
 78161  1  0  0  0
 78162  1  0  0  0
 79 83  1  0  0  0
 79 87  1  0  0  0
 79163  1  0  0  0
 79164  1  0  0  0
 80 84  1  0  0  0
 80165  1  0  0  0
 81 86  1  0  0  0
 81166  1  0  0  0
 82167  1  0  0  0
 83 86  1  0  0  0
 83 87  1  0  0  0
 83168  1  0  0  0
 84 86  1  0  0  0
 84169  1  0  0  0
 84170  1  0  0  0
 87171  1  0  0  0
 87172  1  0  0  0
M  CHG  1  87   1
M  ISO  4   1 100  68 101  82 101  85 100
M  END
> <chiral flag>
0

> <version>
0

> <s_m_source_file>
/data/baiqing/PycharmProjects/Reinvent-master-3.2/result/LINK_invent/BTK/process_docking_weight1_custom_sum_contain_oxygen_bond_distance_aromatic_linkinvent_7_9_3/rearranged_h_0135.sdf

> <i_m_source_file_index>
5

> <r_mmod_Potential_Energy-OPLS-2005>
111.017875671387

> <r_mmod_Stretch_Energy-OPLS-2005>
56.9299659729004

> <r_mmod_Bend_Energy-OPLS-2005>
157.087631225586

> <r_mmod_Torsional_Energy-OPLS-2005>
390.625274658203

> <r_mmod_Improper_Torsional_Energy-OPLS-2005>
3.24002289772034

> <r_mmod_Van_der_Waal_Energy-OPLS-2005>
146.088806152344

> <r_mmod_Electrostatic_Energy-OPLS-2005>
-216.197540283203

> <r_mmod_Solvation_Energy-OPLS-2005>
-454.586700439453

> <b_mmod_Minimization_Converged-OPLS-2005>
0

> <r_mmod_RMS_Derivative-OPLS-2005>
4.02837085723877

$$$$
5
                    3D
 Structure written by MMmdl.
168177  0  0  1  0            999 V2000
  -30.6813  -14.5423   20.6069 C   0  0  0  0  0  0
  -30.4332  -12.3620   19.4501 C   0  0  0  0  0  0
  -29.5050  -12.5165   18.2268 C   0  0  0  0  0  0
  -28.0296  -12.3554   18.6369 C   0  0  0  0  0  0
  -27.6592  -13.2135   19.8753 C   0  0  2  0  0  0
  -28.6946  -13.0361   21.0085 C   0  0  0  0  0  0
  -25.2559  -13.8164   20.5664 C   0  0  0  0  0  0
  -24.1832  -13.0450   20.9190 C   0  0  0  0  0  0
  -24.6376  -11.6903   20.8714 C   0  0  0  0  0  0
  -23.9051  -10.4289   21.0403 C   0  0  0  0  0  0
  -24.3610   -9.4205   21.9185 C   0  0  0  0  0  0
  -23.6286   -8.2247   22.0761 C   0  0  0  0  0  0
  -22.4282   -8.0266   21.3544 C   0  0  0  0  0  0
  -21.9901   -9.0239   20.4657 C   0  0  0  0  0  0
  -22.7223  -10.2122   20.3054 C   0  0  0  0  0  0
  -21.6847   -6.0724   22.5275 C   0  0  0  0  0  0
  -21.4021   -6.5638   23.8198 C   0  0  0  0  0  0
  -21.3649   -5.6797   24.9161 C   0  0  0  0  0  0
  -21.6053   -4.3059   24.7226 C   0  0  0  0  0  0
  -21.8813   -3.8149   23.4348 C   0  0  0  0  0  0
  -21.9197   -4.6955   22.3400 C   0  0  0  0  0  0
  -22.7846  -13.5229   21.1852 C   0  0  0  0  0  0
  -22.1660   -4.2143   21.0975 F   0  0  0  0  0  0
  -21.5626   -3.4540   25.7739 F   0  0  0  0  0  0
  -30.0219  -13.3570   20.4605 N   0  0  0  0  0  0
  -26.3006  -12.9354   20.3349 N   0  0  0  0  0  0
  -25.9318  -11.6508   20.5783 N   0  0  0  0  0  0
  -22.0490  -12.8217   22.0386 N   0  0  0  0  0  0
  -25.4288  -15.1893   20.4065 N   0  0  0  0  0  0
  -31.8165  -14.7133   20.1517 O   0  0  0  0  0  0
  -21.6637   -6.8869   21.4240 O   0  0  0  0  0  0
  -22.3530  -14.5537   20.6686 O   0  0  0  0  0  0
  -24.6123  -31.8615   23.2034 C   0  0  0  0  0  0
  -25.8991  -32.4797   23.8360 C   0  0  1  0  0  0
  -27.2389  -27.3700   20.1394 C   0  0  0  0  0  0
  -25.5846  -33.8595   24.2275 N   0  0  0  0  0  0
  -23.4089  -30.4799   21.5387 C   0  0  2  0  0  0
  -24.8642  -28.9336   20.1144 C   0  0  0  0  0  0
  -22.7406  -29.4602   22.4908 C   0  0  0  0  0  0
  -18.0258  -28.1398   22.8456 C   0  0  0  0  0  0
  -24.1490  -36.7331   23.2642 C   0  0  0  0  0  0
  -25.9411  -30.8082   21.3707 C   0  0  0  0  0  0
  -26.0195  -29.4351   20.7254 C   0  0  0  0  0  0
  -27.2054  -28.6581   20.7369 C   0  0  0  0  0  0
  -26.0683  -26.8960   19.5100 C   0  0  0  0  0  0
  -24.8853  -27.6670   19.4997 C   0  0  0  0  0  0
  -23.6272  -29.8077   20.1551 C   0  0  0  0  0  0
  -25.4116  -36.3091   24.0327 C   0  0  1  0  0  0
  -20.5857  -28.3680   23.1311 C   0  0  2  0  0  0
  -20.6759  -26.9409   22.5435 C   0  0  0  0  0  0
  -19.5750  -26.6387   21.5211 C   0  0  0  0  0  0
  -18.1913  -26.7927   22.1606 C   0  0  0  0  0  0
  -19.1513  -28.8854   23.2864 C   0  0  0  0  0  0
  -18.9458  -30.1447   23.8906 C   0  0  0  0  0  0
  -17.6475  -30.6598   24.0579 C   0  0  0  0  0  0
  -25.9064  -34.9451   23.5104 C   0  0  0  0  0  0
  -16.5351  -29.9115   23.6352 C   0  0  0  0  0  0
  -16.7256  -28.6540   23.0335 C   0  0  0  0  0  0
  -26.4378  -31.6627   25.0744 C   0  0  0  0  0  0
  -25.3611  -31.3875   26.1514 C   0  0  0  0  0  0
  -27.0233  -30.3055   24.6216 C   0  0  0  0  0  0
  -27.5940  -32.4369   25.7511 C   0  0  0  0  0  0
  -27.5578  -37.1823   24.8437 C   0  0  0  0  0  0
  -21.4122  -29.3027   22.3698 N   0  0  0  0  0  0
  -26.4293  -37.3789   23.9397 N   0  0  0  0  0  0
  -24.6715  -31.0664   22.0957 N   0  0  0  0  0  0
  -23.4160  -28.8103   23.2930 O   0  0  0  0  0  0
  -28.4277  -26.6532   20.0991 O   0  0  0  0  0  0
  -26.5622  -34.8890   22.4676 O   0  0  0  0  0  0
  -23.5293  -32.1366   23.7421 O   0  0  0  0  0  0
  -29.0676  -24.8116   21.5870 C   0  0  0  0  0  0
  -29.6117  -23.5056   21.6823 C   0  0  0  0  0  0
  -29.6330  -22.6695   20.5322 C   0  0  0  0  0  0
  -28.9868  -23.1986   19.3730 C   0  0  0  0  0  0
  -28.5516  -25.2870   20.3635 C   0  0  0  0  0  0
  -30.5718  -17.6141   19.7874 C   0  0  0  0  0  0
  -31.0165  -19.0959   19.8276 C   0  0  0  0  0  0
  -29.7641  -19.4612   21.8834 C   0  0  0  0  0  0
  -29.2940  -17.9618   21.8786 C   0  0  1  0  0  0
  -30.3468  -17.0209   21.1964 C   0  0  1  0  0  0
  -30.2742  -23.0849   22.9883 C   0  0  0  0  0  0
  -28.8617  -22.4142   18.0787 C   0  0  0  0  0  0
  -28.9131  -17.5355   23.3078 C   0  0  0  0  0  0
  -30.5752  -21.4194   20.4838 C   0  0  0  0  0  0
  -28.4764  -24.4590   19.2969 N   0  0  0  0  0  0
  -29.9700  -15.5737   21.1406 N   0  0  0  0  0  0
  -30.0497  -20.0027   20.5197 N   0  3  1  0  0  0
  -31.4750  -12.4827   19.1461 H   0  0  0  0  0  0
  -30.3610  -11.3556   19.8664 H   0  0  0  0  0  0
  -29.7615  -11.7819   17.4643 H   0  0  0  0  0  0
  -29.6525  -13.4957   17.7709 H   0  0  0  0  0  0
  -27.8608  -11.3013   18.8569 H   0  0  0  0  0  0
  -27.3736  -12.5986   17.8002 H   0  0  0  0  0  0
  -27.6919  -14.2550   19.5560 H   0  0  0  0  0  0
  -28.6883  -12.0099   21.3790 H   0  0  0  0  0  0
  -28.4409  -13.6603   21.8660 H   0  0  0  0  0  0
  -25.2750   -9.5685   22.4748 H   0  0  0  0  0  0
  -23.9988   -7.4649   22.7478 H   0  0  0  0  0  0
  -21.0832   -8.8761   19.8962 H   0  0  0  0  0  0
  -22.3680  -10.9663   19.6158 H   0  0  0  0  0  0
  -21.2009   -7.6145   23.9701 H   0  0  0  0  0  0
  -21.1480   -6.0526   25.9060 H   0  0  0  0  0  0
  -22.0606   -2.7612   23.2851 H   0  0  0  0  0  0
  -22.4105  -11.9870   22.4766 H   0  0  0  0  0  0
  -21.1110  -13.1247   22.2603 H   0  0  0  0  0  0
  -24.6628  -15.8449   20.5067 H   0  0  0  0  0  0
  -26.2750  -15.6213   20.0602 H   0  0  0  0  0  0
  -26.7064  -32.5500   23.1136 H   0  0  0  0  0  0
  -24.9944  -33.9744   25.0359 H   0  0  0  0  0  0
  -22.7038  -31.2989   21.3882 H   0  0  0  0  0  0
  -23.3721  -35.9704   23.3342 H   0  0  0  0  0  0
  -24.3581  -36.8942   22.2053 H   0  0  0  0  0  0
  -23.7285  -37.6558   23.6664 H   0  0  0  0  0  0
  -26.0624  -31.5714   20.6014 H   0  0  0  0  0  0
  -26.8247  -30.8637   21.9942 H   0  0  0  0  0  0
  -28.0989  -29.0413   21.2076 H   0  0  0  0  0  0
  -26.0753  -25.9363   19.0149 H   0  0  0  0  0  0
  -24.0012  -27.2789   19.0142 H   0  0  0  0  0  0
  -23.7406  -30.5803   19.3935 H   0  0  0  0  0  0
  -22.7550  -29.2260   19.8566 H   0  0  0  0  0  0
  -25.1288  -36.1961   25.0822 H   0  0  0  0  0  0
  -20.9949  -28.3251   24.1422 H   0  0  0  0  0  0
  -20.5676  -26.2256   23.3605 H   0  0  0  0  0  0
  -21.6614  -26.7438   22.1206 H   0  0  0  0  0  0
  -19.6939  -25.6291   21.1237 H   0  0  0  0  0  0
  -19.6743  -27.3201   20.6741 H   0  0  0  0  0  0
  -17.4174  -26.6664   21.3986 H   0  0  0  0  0  0
  -18.0298  -26.0065   22.9006 H   0  0  0  0  0  0
  -19.7948  -30.7228   24.2280 H   0  0  0  0  0  0
  -17.5052  -31.6293   24.5158 H   0  0  0  0  0  0
  -15.5368  -30.3045   23.7707 H   0  0  0  0  0  0
  -15.8619  -28.0928   22.7040 H   0  0  0  0  0  0
  -24.5688  -30.7320   25.7891 H   0  0  0  0  0  0
  -24.8890  -32.3100   26.4896 H   0  0  0  0  0  0
  -25.7860  -30.9066   27.0331 H   0  0  0  0  0  0
  -26.2867  -29.6885   24.1077 H   0  0  0  0  0  0
  -27.3755  -29.7244   25.4749 H   0  0  0  0  0  0
  -27.8774  -30.4357   23.9579 H   0  0  0  0  0  0
  -27.2518  -33.3640   26.2120 H   0  0  0  0  0  0
  -28.3715  -32.7007   25.0326 H   0  0  0  0  0  0
  -28.0641  -31.8490   26.5408 H   0  0  0  0  0  0
  -28.2561  -38.0138   24.7461 H   0  0  0  0  0  0
  -28.1083  -36.2662   24.6260 H   0  0  0  0  0  0
  -27.2295  -37.1488   25.8834 H   0  0  0  0  0  0
  -20.9248  -29.8802   21.6992 H   0  0  0  0  0  0
  -26.0184  -38.2868   24.1393 H   0  0  0  0  0  0
  -29.1540  -25.4853   22.4260 H   0  0  0  0  0  0
  -31.3421  -17.0538   19.2584 H   0  0  0  0  0  0
  -29.6623  -17.5248   19.1917 H   0  0  0  0  0  0
  -31.1705  -19.4407   18.8049 H   0  0  0  0  0  0
  -31.9893  -19.1635   20.3224 H   0  0  0  0  0  0
  -30.6616  -19.5451   22.5017 H   0  0  0  0  0  0
  -29.0076  -20.0877   22.3567 H   0  0  0  0  0  0
  -28.3731  -17.9158   21.2947 H   0  0  0  0  0  0
  -31.2805  -17.0822   21.7631 H   0  0  0  0  0  0
  -29.7513  -23.5149   23.8416 H   0  0  0  0  0  0
  -31.3138  -23.4162   23.0240 H   0  0  0  0  0  0
  -30.2573  -22.0058   23.1291 H   0  0  0  0  0  0
  -29.7932  -21.9314   17.7931 H   0  0  0  0  0  0
  -28.5788  -23.0780   17.2594 H   0  0  0  0  0  0
  -28.0858  -21.6550   18.1719 H   0  0  0  0  0  0
  -29.7606  -17.6068   23.9912 H   0  0  0  0  0  0
  -28.5293  -16.5161   23.3442 H   0  0  0  0  0  0
  -28.1275  -18.1856   23.6994 H   0  0  0  0  0  0
  -31.3459  -21.5032   21.2475 H   0  0  0  0  0  0
  -31.1665  -21.5480   19.5774 H   0  0  0  0  0  0
  -29.0654  -15.3259   21.5146 H   0  0  0  0  0  0
  -29.1877  -19.9807   19.9965 H   0  0  0  0  0  0
  1 25  1  0  0  0
  1 30  2  0  0  0
  1 86  1  0  0  0
  2  3  1  0  0  0
  2 25  1  0  0  0
  2 88  1  0  0  0
  2 89  1  0  0  0
  3  4  1  0  0  0
  3 90  1  0  0  0
  3 91  1  0  0  0
  4  5  1  0  0  0
  4 92  1  0  0  0
  4 93  1  0  0  0
  5  6  1  0  0  0
  5 26  1  0  0  0
  5 94  1  0  0  0
  6 25  1  0  0  0
  6 95  1  0  0  0
  6 96  1  0  0  0
  7  8  2  0  0  0
  7 26  1  0  0  0
  7 29  1  0  0  0
  8  9  1  0  0  0
  8 22  1  0  0  0
  9 10  1  0  0  0
  9 27  2  0  0  0
 10 11  2  0  0  0
 10 15  1  0  0  0
 11 12  1  0  0  0
 11 97  1  0  0  0
 12 13  2  0  0  0
 12 98  1  0  0  0
 13 14  1  0  0  0
 13 31  1  0  0  0
 14 15  2  0  0  0
 14 99  1  0  0  0
 15100  1  0  0  0
 16 17  2  0  0  0
 16 21  1  0  0  0
 16 31  1  0  0  0
 17 18  1  0  0  0
 17101  1  0  0  0
 18 19  2  0  0  0
 18102  1  0  0  0
 19 20  1  0  0  0
 19 24  1  0  0  0
 20 21  2  0  0  0
 20103  1  0  0  0
 21 23  1  0  0  0
 22 28  1  0  0  0
 22 32  2  0  0  0
 26 27  1  0  0  0
 28104  1  0  0  0
 28105  1  0  0  0
 29106  1  0  0  0
 29107  1  0  0  0
 33 34  1  0  0  0
 33 66  1  0  0  0
 33 70  2  0  0  0
 34 36  1  0  0  0
 34 59  1  0  0  0
 34108  1  0  0  0
 35 44  2  0  0  0
 35 45  1  0  0  0
 35 68  1  0  0  0
 36 56  1  0  0  0
 36109  1  0  0  0
 37 39  1  0  0  0
 37 47  1  0  0  0
 37 66  1  0  0  0
 37110  1  0  0  0
 38 43  2  0  0  0
 38 46  1  0  0  0
 38 47  1  0  0  0
 39 64  1  0  0  0
 39 67  2  0  0  0
 40 52  1  0  0  0
 40 53  2  0  0  0
 40 58  1  0  0  0
 41111  1  0  0  0
 41112  1  0  0  0
 41113  1  0  0  0
 41 48  1  0  0  0
 42 43  1  0  0  0
 42 66  1  0  0  0
 42114  1  0  0  0
 42115  1  0  0  0
 43 44  1  0  0  0
 44116  1  0  0  0
 45 46  2  0  0  0
 45117  1  0  0  0
 46118  1  0  0  0
 47119  1  0  0  0
 47120  1  0  0  0
 48 56  1  0  0  0
 48 65  1  0  0  0
 48121  1  0  0  0
 49 50  1  0  0  0
 49 53  1  0  0  0
 49 64  1  0  0  0
 49122  1  0  0  0
 50 51  1  0  0  0
 50123  1  0  0  0
 50124  1  0  0  0
 51 52  1  0  0  0
 51125  1  0  0  0
 51126  1  0  0  0
 52127  1  0  0  0
 52128  1  0  0  0
 53 54  1  0  0  0
 54 55  2  0  0  0
 54129  1  0  0  0
 55 57  1  0  0  0
 55130  1  0  0  0
 56 69  2  0  0  0
 57 58  2  0  0  0
 57131  1  0  0  0
 58132  1  0  0  0
 59 60  1  0  0  0
 59 61  1  0  0  0
 59 62  1  0  0  0
 60133  1  0  0  0
 60134  1  0  0  0
 60135  1  0  0  0
 61136  1  0  0  0
 61137  1  0  0  0
 61138  1  0  0  0
 62139  1  0  0  0
 62140  1  0  0  0
 62141  1  0  0  0
 63 65  1  0  0  0
 63142  1  0  0  0
 63143  1  0  0  0
 63144  1  0  0  0
 64145  1  0  0  0
 65146  1  0  0  0
 68 75  1  0  0  0
 71 72  2  0  0  0
 71 75  1  0  0  0
 71147  1  0  0  0
 72 73  1  0  0  0
 72 81  1  0  0  0
 73 74  2  0  0  0
 73 84  1  0  0  0
 74 82  1  0  0  0
 74 85  1  0  0  0
 75 85  2  0  0  0
 76 77  1  0  0  0
 76 80  1  0  0  0
 76148  1  0  0  0
 76149  1  0  0  0
 77 87  1  0  0  0
 77150  1  0  0  0
 77151  1  0  0  0
 78 79  1  0  0  0
 78 87  1  0  0  0
 78152  1  0  0  0
 78153  1  0  0  0
 79 80  1  0  0  0
 79 83  1  0  0  0
 79154  1  0  0  0
 80 86  1  0  0  0
 80155  1  0  0  0
 81156  1  0  0  0
 81157  1  0  0  0
 81158  1  0  0  0
 82159  1  0  0  0
 82160  1  0  0  0
 82161  1  0  0  0
 83162  1  0  0  0
 83163  1  0  0  0
 83164  1  0  0  0
 84165  1  0  0  0
 84166  1  0  0  0
 84 87  1  0  0  0
 86167  1  0  0  0
 87168  1  0  0  0
M  CHG  1  87   1
M  ISO  4   1 100  68 101  75 101  86 100
M  END
> <chiral flag>
0

> <version>
0

> <s_m_source_file>
/data/baiqing/PycharmProjects/Reinvent-master-3.2/result/LINK_invent/BTK/process_docking_weight1_custom_sum_contain_oxygen_bond_distance_aromatic_linkinvent_7_9_3/rearranged_h_0135.sdf

> <i_m_source_file_index>
6

> <r_mmod_Potential_Energy-OPLS-2005>
-182.019439697266

> <r_mmod_Stretch_Energy-OPLS-2005>
57.6842193603516

> <r_mmod_Bend_Energy-OPLS-2005>
132.688446044922

> <r_mmod_Torsional_Energy-OPLS-2005>
256.418365478516

> <r_mmod_Improper_Torsional_Energy-OPLS-2005>
8.4196081161499

> <r_mmod_Van_der_Waal_Energy-OPLS-2005>
147.806228637695

> <r_mmod_Electrostatic_Energy-OPLS-2005>
-357.955352783203

> <r_mmod_Solvation_Energy-OPLS-2005>
-450.263214111328

> <b_mmod_Minimization_Converged-OPLS-2005>
0

> <r_mmod_RMS_Derivative-OPLS-2005>
4.88619899749756

$$$$
6
                    3D
 Structure written by MMmdl.
169177  0  0  1  0            999 V2000
  -30.6957  -14.4011   20.5976 C   0  0  0  0  0  0
  -30.4333  -12.2658   19.4133 C   0  0  0  0  0  0
  -29.4967  -12.4998   18.2072 C   0  0  0  0  0  0
  -28.0157  -12.3666   18.6169 C   0  0  0  0  0  0
  -27.6726  -13.1858   19.8893 C   0  0  2  0  0  0
  -28.7113  -12.9075   21.0038 C   0  0  0  0  0  0
  -25.2612  -13.8083   20.5594 C   0  0  0  0  0  0
  -24.1864  -13.0413   20.9179 C   0  0  0  0  0  0
  -24.6388  -11.6876   20.8765 C   0  0  0  0  0  0
  -23.9047  -10.4278   21.0429 C   0  0  0  0  0  0
  -24.3600   -9.4192   21.9200 C   0  0  0  0  0  0
  -23.6279   -8.2230   22.0760 C   0  0  0  0  0  0
  -22.4260   -8.0276   21.3551 C   0  0  0  0  0  0
  -21.9899   -9.0253   20.4649 C   0  0  0  0  0  0
  -22.7225  -10.2133   20.3067 C   0  0  0  0  0  0
  -21.6847   -6.0735   22.5283 C   0  0  0  0  0  0
  -21.4007   -6.5640   23.8214 C   0  0  0  0  0  0
  -21.3654   -5.6795   24.9178 C   0  0  0  0  0  0
  -21.6041   -4.3059   24.7228 C   0  0  0  0  0  0
  -21.8819   -3.8150   23.4350 C   0  0  0  0  0  0
  -21.9187   -4.6965   22.3404 C   0  0  0  0  0  0
  -22.7888  -13.5249   21.1838 C   0  0  0  0  0  0
  -22.1658   -4.2152   21.0982 F   0  0  0  0  0  0
  -21.5624   -3.4537   25.7740 F   0  0  0  0  0  0
  -30.0556  -13.2115   20.4721 N   0  0  0  0  0  0
  -26.3071  -12.9233   20.3405 N   0  0  0  0  0  0
  -25.9316  -11.6420   20.5821 N   0  0  0  0  0  0
  -22.0519  -12.8253   22.0390 N   0  0  0  0  0  0
  -25.4324  -15.1757   20.3739 N   0  0  0  0  0  0
  -31.7751  -14.6683   20.0597 O   0  0  0  0  0  0
  -21.6626   -6.8876   21.4245 O   0  0  0  0  0  0
  -22.3597  -14.5569   20.6690 O   0  0  0  0  0  0
  -24.6102  -31.8730   23.2123 C   0  0  0  0  0  0
  -25.9007  -32.4851   23.8411 C   0  0  1  0  0  0
  -27.2405  -27.4743   20.0710 C   0  0  0  0  0  0
  -25.5867  -33.8648   24.2352 N   0  0  0  0  0  0
  -23.3952  -30.4964   21.5534 C   0  0  2  0  0  0
  -24.8375  -28.9595   20.1224 C   0  0  0  0  0  0
  -22.7371  -29.4702   22.5021 C   0  0  0  0  0  0
  -18.0271  -28.1364   22.8496 C   0  0  0  0  0  0
  -24.1485  -36.7336   23.2636 C   0  0  0  0  0  0
  -25.9191  -30.8461   21.3600 C   0  0  0  0  0  0
  -25.9947  -29.4804   20.7126 C   0  0  0  0  0  0
  -27.1934  -28.7411   20.6904 C   0  0  0  0  0  0
  -26.0549  -26.9459   19.5035 C   0  0  0  0  0  0
  -24.8584  -27.6872   19.5249 C   0  0  0  0  0  0
  -23.6007  -29.8257   20.1694 C   0  0  0  0  0  0
  -25.4107  -36.3147   24.0349 C   0  0  1  0  0  0
  -20.5858  -28.3666   23.1333 C   0  0  2  0  0  0
  -20.6779  -26.9413   22.5408 C   0  0  0  0  0  0
  -19.5758  -26.6390   21.5206 C   0  0  0  0  0  0
  -18.1932  -26.7920   22.1615 C   0  0  0  0  0  0
  -19.1517  -28.8826   23.2915 C   0  0  0  0  0  0
  -18.9446  -30.1436   23.8920 C   0  0  0  0  0  0
  -17.6445  -30.6577   24.0556 C   0  0  0  0  0  0
  -25.9022  -34.9503   23.5161 C   0  0  0  0  0  0
  -16.5340  -29.9079   23.6304 C   0  0  0  0  0  0
  -16.7257  -28.6490   23.0337 C   0  0  0  0  0  0
  -26.4459  -31.6602   25.0715 C   0  0  0  0  0  0
  -25.3738  -31.3664   26.1465 C   0  0  0  0  0  0
  -27.0275  -30.3055   24.6040 C   0  0  0  0  0  0
  -27.6067  -32.4292   25.7452 C   0  0  0  0  0  0
  -27.5591  -37.1822   24.8470 C   0  0  0  0  0  0
  -21.4105  -29.3062   22.3755 N   0  0  0  0  0  0
  -26.4311  -37.3816   23.9405 N   0  0  0  0  0  0
  -24.6597  -31.0867   22.1004 N   0  0  0  0  0  0
  -23.4157  -28.8242   23.3048 O   0  0  0  0  0  0
  -28.4619  -26.8389   20.0359 O   0  0  0  0  0  0
  -26.5599  -34.8952   22.4728 O   0  0  0  0  0  0
  -23.5307  -32.1472   23.7548 O   0  0  0  0  0  0
  -28.0303  -23.1749   22.0651 C   0  0  0  0  0  0
  -28.3571  -24.4734   21.6156 C   0  0  0  0  0  0
  -27.7251  -22.4106   20.9749 C   0  0  0  0  0  0
  -28.2469  -24.4911   20.2553 C   0  0  0  0  0  0
  -26.4741  -21.8313   18.1418 C   0  0  0  0  0  0
  -28.8112  -22.6612   17.6265 C   0  0  0  0  0  0
  -27.9668  -17.0564   22.4008 C   0  0  0  0  0  0
  -27.4266  -20.9400   21.0083 C   0  0  0  0  0  0
  -28.6115  -25.6160   19.3228 C   0  0  0  0  0  0
  -29.7078  -16.6315   20.5238 C   0  0  0  0  0  0
  -28.6597  -20.0765   20.6906 C   0  0  0  0  0  0
  -27.5184  -22.9219   18.4140 C   0  0  0  0  0  0
  -28.9807  -17.6653   21.4146 C   0  0  2  0  0  0
  -27.7883  -23.2363   19.8345 N   0  0  0  0  0  0
  -29.9506  -15.3466   21.1758 N   0  0  0  0  0  0
  -28.3029  -18.6511   20.5405 N   0  3  0  0  0  0
  -31.4768  -12.3740   19.1123 H   0  0  0  0  0  0
  -30.3386  -11.2425   19.7808 H   0  0  0  0  0  0
  -29.7291  -11.7906   17.4117 H   0  0  0  0  0  0
  -29.6722  -13.4937   17.7925 H   0  0  0  0  0  0
  -27.8137  -11.3092   18.7941 H   0  0  0  0  0  0
  -27.3673  -12.6646   17.7918 H   0  0  0  0  0  0
  -27.7363  -14.2400   19.6199 H   0  0  0  0  0  0
  -28.6718  -11.8561   21.2939 H   0  0  0  0  0  0
  -28.4737  -13.4606   21.9142 H   0  0  0  0  0  0
  -25.2748   -9.5663   22.4770 H   0  0  0  0  0  0
  -23.9987   -7.4617   22.7474 H   0  0  0  0  0  0
  -21.0831   -8.8773   19.8953 H   0  0  0  0  0  0
  -22.3692  -10.9675   19.6173 H   0  0  0  0  0  0
  -21.1999   -7.6147   23.9722 H   0  0  0  0  0  0
  -21.1476   -6.0523   25.9082 H   0  0  0  0  0  0
  -22.0604   -2.7614   23.2847 H   0  0  0  0  0  0
  -22.4111  -11.9878   22.4732 H   0  0  0  0  0  0
  -21.1154  -13.1318   22.2634 H   0  0  0  0  0  0
  -24.6449  -15.8120   20.4149 H   0  0  0  0  0  0
  -26.2309  -15.5606   19.8896 H   0  0  0  0  0  0
  -26.7066  -32.5586   23.1164 H   0  0  0  0  0  0
  -24.9964  -33.9805   25.0463 H   0  0  0  0  0  0
  -22.6848  -31.3143   21.4145 H   0  0  0  0  0  0
  -23.3754  -35.9661   23.3325 H   0  0  0  0  0  0
  -24.3567  -36.8917   22.2041 H   0  0  0  0  0  0
  -23.7229  -37.6547   23.6630 H   0  0  0  0  0  0
  -26.0249  -31.6129   20.5916 H   0  0  0  0  0  0
  -26.8102  -30.9029   21.9724 H   0  0  0  0  0  0
  -28.0916  -29.1511   21.1324 H   0  0  0  0  0  0
  -26.0295  -25.9711   19.0381 H   0  0  0  0  0  0
  -23.9622  -27.2755   19.0794 H   0  0  0  0  0  0
  -23.7089  -30.6012   19.4105 H   0  0  0  0  0  0
  -22.7255  -29.2451   19.8720 H   0  0  0  0  0  0
  -25.1285  -36.2032   25.0846 H   0  0  0  0  0  0
  -20.9947  -28.3224   24.1452 H   0  0  0  0  0  0
  -20.5689  -26.2271   23.3579 H   0  0  0  0  0  0
  -21.6653  -26.7474   22.1188 H   0  0  0  0  0  0
  -19.6931  -25.6309   21.1213 H   0  0  0  0  0  0
  -19.6691  -27.3214   20.6742 H   0  0  0  0  0  0
  -17.4208  -26.6663   21.4012 H   0  0  0  0  0  0
  -18.0336  -26.0045   22.8989 H   0  0  0  0  0  0
  -19.7915  -30.7246   24.2304 H   0  0  0  0  0  0
  -17.4993  -31.6260   24.5148 H   0  0  0  0  0  0
  -15.5338  -30.2987   23.7597 H   0  0  0  0  0  0
  -15.8660  -28.0807   22.7040 H   0  0  0  0  0  0
  -24.5925  -30.7003   25.7784 H   0  0  0  0  0  0
  -24.8912  -32.2795   26.4963 H   0  0  0  0  0  0
  -25.8111  -30.8790   27.0187 H   0  0  0  0  0  0
  -26.2790  -29.6805   24.1149 H   0  0  0  0  0  0
  -27.4117  -29.7300   25.4472 H   0  0  0  0  0  0
  -27.8601  -30.4393   23.9126 H   0  0  0  0  0  0
  -27.2721  -33.3575   26.2096 H   0  0  0  0  0  0
  -28.3831  -32.6862   25.0233 H   0  0  0  0  0  0
  -28.0787  -31.8360   26.5293 H   0  0  0  0  0  0
  -28.2637  -38.0096   24.7517 H   0  0  0  0  0  0
  -28.1064  -36.2632   24.6310 H   0  0  0  0  0  0
  -27.2303  -37.1486   25.8871 H   0  0  0  0  0  0
  -20.9246  -29.8763   21.6975 H   0  0  0  0  0  0
  -26.0224  -38.2909   24.1383 H   0  0  0  0  0  0
  -28.0569  -22.8241   23.0885 H   0  0  0  0  0  0
  -28.6779  -25.3077   22.2239 H   0  0  0  0  0  0
  -26.1257  -21.8957   17.1098 H   0  0  0  0  0  0
  -25.5983  -21.9431   18.7813 H   0  0  0  0  0  0
  -26.8873  -20.8304   18.2587 H   0  0  0  0  0  0
  -28.5992  -22.5926   16.5594 H   0  0  0  0  0  0
  -29.2826  -21.7272   17.9241 H   0  0  0  0  0  0
  -29.5406  -23.4599   17.7590 H   0  0  0  0  0  0
  -28.4513  -16.3924   23.1170 H   0  0  0  0  0  0
  -27.1951  -16.4873   21.8865 H   0  0  0  0  0  0
  -27.4717  -17.8346   22.9820 H   0  0  0  0  0  0
  -26.5696  -20.6863   20.3935 H   0  0  0  0  0  0
  -27.0954  -20.6821   22.0151 H   0  0  0  0  0  0
  -28.0647  -25.6260   18.3827 H   0  0  0  0  0  0
  -29.6631  -25.5243   19.0507 H   0  0  0  0  0  0
  -30.6442  -17.0616   20.1606 H   0  0  0  0  0  0
  -29.1059  -16.4168   19.6386 H   0  0  0  0  0  0
  -29.4224  -20.2360   21.4534 H   0  0  0  0  0  0
  -29.1070  -20.3947   19.7503 H   0  0  0  0  0  0
  -27.0510  -23.8097   17.9907 H   0  0  0  0  0  0
  -29.7482  -18.1571   22.0132 H   0  0  0  0  0  0
  -29.1713  -14.9831   21.7036 H   0  0  0  0  0  0
  -28.4992  -18.3995   19.5841 H   0  0  0  0  0  0
  -27.3093  -18.5539   20.6676 H   0  0  0  0  0  0
  1 25  1  0  0  0
  1 30  2  0  0  0
  1 85  1  0  0  0
  2  3  1  0  0  0
  2 25  1  0  0  0
  2 87  1  0  0  0
  2 88  1  0  0  0
  3  4  1  0  0  0
  3 89  1  0  0  0
  3 90  1  0  0  0
  4  5  1  0  0  0
  4 91  1  0  0  0
  4 92  1  0  0  0
  5  6  1  0  0  0
  5 26  1  0  0  0
  5 93  1  0  0  0
  6 25  1  0  0  0
  6 94  1  0  0  0
  6 95  1  0  0  0
  7  8  2  0  0  0
  7 26  1  0  0  0
  7 29  1  0  0  0
  8  9  1  0  0  0
  8 22  1  0  0  0
  9 10  1  0  0  0
  9 27  2  0  0  0
 10 11  2  0  0  0
 10 15  1  0  0  0
 11 12  1  0  0  0
 11 96  1  0  0  0
 12 13  2  0  0  0
 12 97  1  0  0  0
 13 14  1  0  0  0
 13 31  1  0  0  0
 14 15  2  0  0  0
 14 98  1  0  0  0
 15 99  1  0  0  0
 16 17  2  0  0  0
 16 21  1  0  0  0
 16 31  1  0  0  0
 17 18  1  0  0  0
 17100  1  0  0  0
 18 19  2  0  0  0
 18101  1  0  0  0
 19 20  1  0  0  0
 19 24  1  0  0  0
 20 21  2  0  0  0
 20102  1  0  0  0
 21 23  1  0  0  0
 22 28  1  0  0  0
 22 32  2  0  0  0
 26 27  1  0  0  0
 28103  1  0  0  0
 28104  1  0  0  0
 29105  1  0  0  0
 29106  1  0  0  0
 33 34  1  0  0  0
 33 66  1  0  0  0
 33 70  2  0  0  0
 34 36  1  0  0  0
 34 59  1  0  0  0
 34107  1  0  0  0
 35 44  2  0  0  0
 35 45  1  0  0  0
 35 68  1  0  0  0
 36 56  1  0  0  0
 36108  1  0  0  0
 37 39  1  0  0  0
 37 47  1  0  0  0
 37 66  1  0  0  0
 37109  1  0  0  0
 38 43  2  0  0  0
 38 46  1  0  0  0
 38 47  1  0  0  0
 39 64  1  0  0  0
 39 67  2  0  0  0
 40 52  1  0  0  0
 40 53  2  0  0  0
 40 58  1  0  0  0
 41110  1  0  0  0
 41111  1  0  0  0
 41112  1  0  0  0
 41 48  1  0  0  0
 42 43  1  0  0  0
 42 66  1  0  0  0
 42113  1  0  0  0
 42114  1  0  0  0
 43 44  1  0  0  0
 44115  1  0  0  0
 45 46  2  0  0  0
 45116  1  0  0  0
 46117  1  0  0  0
 47118  1  0  0  0
 47119  1  0  0  0
 48 56  1  0  0  0
 48 65  1  0  0  0
 48120  1  0  0  0
 49 50  1  0  0  0
 49 53  1  0  0  0
 49 64  1  0  0  0
 49121  1  0  0  0
 50 51  1  0  0  0
 50122  1  0  0  0
 50123  1  0  0  0
 51 52  1  0  0  0
 51124  1  0  0  0
 51125  1  0  0  0
 52126  1  0  0  0
 52127  1  0  0  0
 53 54  1  0  0  0
 54 55  2  0  0  0
 54128  1  0  0  0
 55 57  1  0  0  0
 55129  1  0  0  0
 56 69  2  0  0  0
 57 58  2  0  0  0
 57130  1  0  0  0
 58131  1  0  0  0
 59 60  1  0  0  0
 59 61  1  0  0  0
 59 62  1  0  0  0
 60132  1  0  0  0
 60133  1  0  0  0
 60134  1  0  0  0
 61135  1  0  0  0
 61136  1  0  0  0
 61137  1  0  0  0
 62138  1  0  0  0
 62139  1  0  0  0
 62140  1  0  0  0
 63 65  1  0  0  0
 63141  1  0  0  0
 63142  1  0  0  0
 63143  1  0  0  0
 64144  1  0  0  0
 65145  1  0  0  0
 68 79  1  0  0  0
 71 72  1  0  0  0
 71 73  2  0  0  0
 71146  1  0  0  0
 72 74  2  0  0  0
 72147  1  0  0  0
 73 78  1  0  0  0
 73 84  1  0  0  0
 74 79  1  0  0  0
 74 84  1  0  0  0
 75148  1  0  0  0
 75149  1  0  0  0
 75150  1  0  0  0
 75 82  1  0  0  0
 76 82  1  0  0  0
 76151  1  0  0  0
 76152  1  0  0  0
 76153  1  0  0  0
 77154  1  0  0  0
 77155  1  0  0  0
 77156  1  0  0  0
 77 83  1  0  0  0
 78 81  1  0  0  0
 78157  1  0  0  0
 78158  1  0  0  0
 79159  1  0  0  0
 79160  1  0  0  0
 80 83  1  0  0  0
 80 85  1  0  0  0
 80161  1  0  0  0
 80162  1  0  0  0
 81 86  1  0  0  0
 81163  1  0  0  0
 81164  1  0  0  0
 82 84  1  0  0  0
 82165  1  0  0  0
 83 86  1  0  0  0
 83166  1  0  0  0
 85167  1  0  0  0
 86168  1  0  0  0
 86169  1  0  0  0
M  CHG  1  86   1
M  ISO  4   1 100  68 101  79 101  85 100
M  END
> <chiral flag>
0

> <version>
0

> <s_m_source_file>
/data/baiqing/PycharmProjects/Reinvent-master-3.2/result/LINK_invent/BTK/process_docking_weight1_custom_sum_contain_oxygen_bond_distance_aromatic_linkinvent_7_9_3/rearranged_h_0135.sdf

> <i_m_source_file_index>
7

> <r_mmod_Potential_Energy-OPLS-2005>
-215.510635375977

> <r_mmod_Stretch_Energy-OPLS-2005>
35.0329475402832

> <r_mmod_Bend_Energy-OPLS-2005>
118.362174987793

> <r_mmod_Torsional_Energy-OPLS-2005>
287.230712890625

> <r_mmod_Improper_Torsional_Energy-OPLS-2005>
9.41203022003174

> <r_mmod_Van_der_Waal_Energy-OPLS-2005>
135.28271484375

> <r_mmod_Electrostatic_Energy-OPLS-2005>
-319.288269042969

> <r_mmod_Solvation_Energy-OPLS-2005>
-491.133941650391

> <b_mmod_Minimization_Converged-OPLS-2005>
0

> <r_mmod_RMS_Derivative-OPLS-2005>
1.77340447902679

$$$$
7
                    3D
 Structure written by MMmdl.
162171  0  0  1  0            999 V2000
  -30.5382  -14.9834   20.4038 C   0  0  0  0  0  0
  -30.4357  -12.6079   19.5070 C   0  0  0  0  0  0
  -29.5189  -12.5325   18.2630 C   0  0  0  0  0  0
  -28.0536  -12.3158   18.6810 C   0  0  0  0  0  0
  -27.6272  -13.2531   19.8402 C   0  0  2  0  0  0
  -28.6714  -13.2976   20.9778 C   0  0  0  0  0  0
  -25.2438  -13.8224   20.5726 C   0  0  0  0  0  0
  -24.1760  -13.0442   20.9230 C   0  0  0  0  0  0
  -24.6390  -11.6932   20.8764 C   0  0  0  0  0  0
  -23.9074  -10.4297   21.0412 C   0  0  0  0  0  0
  -24.3622   -9.4212   21.9189 C   0  0  0  0  0  0
  -23.6290   -8.2248   22.0764 C   0  0  0  0  0  0
  -22.4273   -8.0284   21.3559 C   0  0  0  0  0  0
  -21.9916   -9.0254   20.4655 C   0  0  0  0  0  0
  -22.7237  -10.2130   20.3058 C   0  0  0  0  0  0
  -21.6856   -6.0733   22.5278 C   0  0  0  0  0  0
  -21.4015   -6.5638   23.8214 C   0  0  0  0  0  0
  -21.3652   -5.6790   24.9168 C   0  0  0  0  0  0
  -21.6044   -4.3049   24.7217 C   0  0  0  0  0  0
  -21.8815   -3.8142   23.4340 C   0  0  0  0  0  0
  -21.9194   -4.6969   22.3396 C   0  0  0  0  0  0
  -22.7781  -13.5213   21.1879 C   0  0  0  0  0  0
  -22.1662   -4.2154   21.0976 F   0  0  0  0  0  0
  -21.5624   -3.4535   25.7727 F   0  0  0  0  0  0
  -29.9433  -13.7182   20.3767 N   0  0  0  0  0  0
  -26.2883  -12.9476   20.3273 N   0  0  0  0  0  0
  -25.9329  -11.6603   20.5762 N   0  0  0  0  0  0
  -22.0430  -12.8202   22.0439 N   0  0  0  0  0  0
  -25.4080  -15.1942   20.4130 N   0  0  0  0  0  0
  -31.7410  -15.0309   20.1260 O   0  0  0  0  0  0
  -21.6642   -6.8870   21.4243 O   0  0  0  0  0  0
  -22.3473  -14.5524   20.6730 O   0  0  0  0  0  0
  -24.6483  -31.8401   23.1812 C   0  0  0  0  0  0
  -25.9235  -32.4675   23.8205 C   0  0  1  0  0  0
  -27.2119  -27.0789   20.1576 C   0  0  0  0  0  0
  -25.5972  -33.8473   24.2133 N   0  0  0  0  0  0
  -23.4535  -30.4564   21.5300 C   0  0  2  0  0  0
  -24.9008  -28.8706   20.1145 C   0  0  0  0  0  0
  -22.7619  -29.4525   22.4857 C   0  0  0  0  0  0
  -18.0322  -28.1448   22.8465 C   0  0  0  0  0  0
  -24.1496  -36.7205   23.2639 C   0  0  0  0  0  0
  -26.0141  -30.6938   21.3909 C   0  0  0  0  0  0
  -26.0828  -29.2999   20.7316 C   0  0  0  0  0  0
  -27.2380  -28.4235   20.7282 C   0  0  0  0  0  0
  -26.0020  -26.7608   19.5059 C   0  0  0  0  0  0
  -24.8767  -27.6161   19.4862 C   0  0  0  0  0  0
  -23.6804  -29.7800   20.1523 C   0  0  0  0  0  0
  -25.4110  -36.2997   24.0322 C   0  0  1  0  0  0
  -20.5939  -28.3736   23.1266 C   0  0  2  0  0  0
  -20.6828  -26.9437   22.5434 C   0  0  0  0  0  0
  -19.5789  -26.6400   21.5254 C   0  0  0  0  0  0
  -18.1955  -26.7976   22.1635 C   0  0  0  0  0  0
  -19.1588  -28.8912   23.2851 C   0  0  0  0  0  0
  -18.9503  -30.1519   23.8853 C   0  0  0  0  0  0
  -17.6502  -30.6618   24.0568 C   0  0  0  0  0  0
  -25.9105  -34.9392   23.5042 C   0  0  0  0  0  0
  -16.5385  -29.9098   23.6376 C   0  0  0  0  0  0
  -16.7315  -28.6553   23.0341 C   0  0  0  0  0  0
  -26.4530  -31.6556   25.0677 C   0  0  0  0  0  0
  -25.3692  -31.3769   26.1353 C   0  0  0  0  0  0
  -27.0408  -30.2942   24.6302 C   0  0  0  0  0  0
  -27.6040  -32.4354   25.7445 C   0  0  0  0  0  0
  -27.5587  -37.1690   24.8434 C   0  0  0  0  0  0
  -21.4315  -29.3026   22.3604 N   0  0  0  0  0  0
  -26.4238  -37.3747   23.9480 N   0  0  0  0  0  0
  -24.7254  -31.0202   22.0875 N   0  0  0  0  0  0
  -23.4255  -28.8108   23.3051 O   0  0  0  0  0  0
  -28.2636  -26.0761   20.1599 O   0  0  0  0  0  0
  -26.5692  -34.8923   22.4627 O   0  0  0  0  0  0
  -23.5590  -32.1323   23.6981 O   0  0  0  0  0  0
  -28.7830  -21.5769   22.0062 C   0  0  0  0  0  0
  -29.2604  -20.2363   20.0834 C   0  0  0  0  0  0
  -29.4894  -19.0647   20.9185 C   0  0  0  0  0  0
  -28.9289  -21.6117   20.6030 C   0  0  0  0  0  0
  -29.3298  -19.2832   22.2959 C   0  0  0  0  0  0
  -29.7791  -18.1649   18.7490 C   0  0  0  0  0  0
  -29.4528  -19.7267   18.6532 C   0  0  1  0  0  0
  -30.0739  -17.7233   20.2120 C   0  0  2  0  0  0
  -29.6235  -18.1927   23.3060 C   0  0  0  0  0  0
  -28.3312  -19.4900   16.3323 C   0  0  0  0  0  0
  -28.8369  -23.1324   19.8921 C   0  0  0  0  0  0
  -28.2002  -19.9755   17.7864 C   0  0  0  0  0  0
  -28.0320  -24.5407   20.4706 C   0  0  0  0  0  0
  -28.9634  -20.4883   22.8027 N   0  0  0  0  0  0
  -29.7687  -16.1865   20.5277 N   0  0  0  0  0  0
  -31.4706  -12.7628   19.1952 H   0  0  0  0  0  0
  -30.4314  -11.6621   20.0509 H   0  0  0  0  0  0
  -29.8430  -11.7278   17.6020 H   0  0  0  0  0  0
  -29.6021  -13.4564   17.6874 H   0  0  0  0  0  0
  -27.9524  -11.2747   18.9935 H   0  0  0  0  0  0
  -27.3889  -12.4403   17.8260 H   0  0  0  0  0  0
  -27.5841  -14.2514   19.4061 H   0  0  0  0  0  0
  -28.7652  -12.3250   21.4614 H   0  0  0  0  0  0
  -28.3659  -13.9997   21.7553 H   0  0  0  0  0  0
  -25.2762   -9.5698   22.4775 H   0  0  0  0  0  0
  -23.9995   -7.4647   22.7501 H   0  0  0  0  0  0
  -21.0839   -8.8769   19.8964 H   0  0  0  0  0  0
  -22.3686  -10.9680   19.6175 H   0  0  0  0  0  0
  -21.2005   -7.6148   23.9716 H   0  0  0  0  0  0
  -21.1476   -6.0517   25.9071 H   0  0  0  0  0  0
  -22.0598   -2.7614   23.2832 H   0  0  0  0  0  0
  -22.4036  -11.9825   22.4767 H   0  0  0  0  0  0
  -21.1077  -13.1278   22.2703 H   0  0  0  0  0  0
  -24.6318  -15.8392   20.5136 H   0  0  0  0  0  0
  -26.2427  -15.6392   20.0561 H   0  0  0  0  0  0
  -26.7277  -32.5261   23.0903 H   0  0  0  0  0  0
  -25.0087  -33.9577   25.0252 H   0  0  0  0  0  0
  -22.7541  -31.2795   21.3678 H   0  0  0  0  0  0
  -23.3836  -35.9458   23.3212 H   0  0  0  0  0  0
  -24.3614  -36.8942   22.2085 H   0  0  0  0  0  0
  -23.7169  -37.6330   23.6744 H   0  0  0  0  0  0
  -26.1865  -31.4460   20.6215 H   0  0  0  0  0  0
  -26.8787  -30.7379   22.0422 H   0  0  0  0  0  0
  -28.1402  -28.7504   21.2246 H   0  0  0  0  0  0
  -25.9093  -25.8062   19.0092 H   0  0  0  0  0  0
  -23.9754  -27.2839   18.9893 H   0  0  0  0  0  0
  -23.8232  -30.5504   19.3927 H   0  0  0  0  0  0
  -22.7935  -29.2252   19.8396 H   0  0  0  0  0  0
  -25.1285  -36.1755   25.0801 H   0  0  0  0  0  0
  -21.0015  -28.3339   24.1403 H   0  0  0  0  0  0
  -20.5821  -26.2323   23.3641 H   0  0  0  0  0  0
  -21.6658  -26.7491   22.1138 H   0  0  0  0  0  0
  -19.6961  -25.6322   21.1272 H   0  0  0  0  0  0
  -19.6754  -27.3218   20.6791 H   0  0  0  0  0  0
  -17.4233  -26.6768   21.4028 H   0  0  0  0  0  0
  -18.0298  -26.0147   22.9051 H   0  0  0  0  0  0
  -19.7987  -30.7358   24.2164 H   0  0  0  0  0  0
  -17.5056  -31.6285   24.5182 H   0  0  0  0  0  0
  -15.5395  -30.2979   23.7757 H   0  0  0  0  0  0
  -15.8719  -28.0875   22.7044 H   0  0  0  0  0  0
  -24.5895  -30.7092   25.7656 H   0  0  0  0  0  0
  -24.8848  -32.2965   26.4652 H   0  0  0  0  0  0
  -25.7950  -30.9020   27.0200 H   0  0  0  0  0  0
  -26.3029  -29.6663   24.1296 H   0  0  0  0  0  0
  -27.4029  -29.7220   25.4854 H   0  0  0  0  0  0
  -27.8938  -30.4210   23.9633 H   0  0  0  0  0  0
  -27.2611  -33.3690   26.1905 H   0  0  0  0  0  0
  -28.3875  -32.6861   25.0285 H   0  0  0  0  0  0
  -28.0683  -31.8573   26.5449 H   0  0  0  0  0  0
  -28.2407  -38.0174   24.7734 H   0  0  0  0  0  0
  -28.1278  -36.2724   24.5913 H   0  0  0  0  0  0
  -27.2372  -37.0893   25.8836 H   0  0  0  0  0  0
  -20.9549  -29.8649   21.6688 H   0  0  0  0  0  0
  -26.0099  -38.2764   24.1669 H   0  0  0  0  0  0
  -28.5452  -22.4850   22.5390 H   0  0  0  0  0  0
  -30.5788  -17.8689   18.0689 H   0  0  0  0  0  0
  -28.8984  -17.6079   18.4299 H   0  0  0  0  0  0
  -30.3128  -20.2496   18.2308 H   0  0  0  0  0  0
  -31.1526  -17.8099   20.3609 H   0  0  0  0  0  0
  -30.6839  -17.9383   23.2847 H   0  0  0  0  0  0
  -29.0520  -17.2931   23.0809 H   0  0  0  0  0  0
  -29.3727  -18.5033   24.3200 H   0  0  0  0  0  0
  -27.3910  -19.6258   15.7965 H   0  0  0  0  0  0
  -28.5822  -18.4317   16.2752 H   0  0  0  0  0  0
  -29.1036  -20.0421   15.7970 H   0  0  0  0  0  0
  -28.5129  -22.9815   18.8639 H   0  0  0  0  0  0
  -29.8810  -23.4304   19.7989 H   0  0  0  0  0  0
  -27.9615  -21.0375   17.7801 H   0  0  0  0  0  0
  -27.3462  -19.4786   18.2497 H   0  0  0  0  0  0
  -28.1732  -24.5148   21.5506 H   0  0  0  0  0  0
  -26.9685  -24.3439   20.3486 H   0  0  0  0  0  0
  -28.7994  -16.0045   20.7407 H   0  0  0  0  0  0
  1 25  1  0  0  0
  1 30  2  0  0  0
  1 85  1  0  0  0
  2  3  1  0  0  0
  2 25  1  0  0  0
  2 86  1  0  0  0
  2 87  1  0  0  0
  3  4  1  0  0  0
  3 88  1  0  0  0
  3 89  1  0  0  0
  4  5  1  0  0  0
  4 90  1  0  0  0
  4 91  1  0  0  0
  5  6  1  0  0  0
  5 26  1  0  0  0
  5 92  1  0  0  0
  6 25  1  0  0  0
  6 93  1  0  0  0
  6 94  1  0  0  0
  7  8  2  0  0  0
  7 26  1  0  0  0
  7 29  1  0  0  0
  8  9  1  0  0  0
  8 22  1  0  0  0
  9 10  1  0  0  0
  9 27  2  0  0  0
 10 11  2  0  0  0
 10 15  1  0  0  0
 11 12  1  0  0  0
 11 95  1  0  0  0
 12 13  2  0  0  0
 12 96  1  0  0  0
 13 14  1  0  0  0
 13 31  1  0  0  0
 14 15  2  0  0  0
 14 97  1  0  0  0
 15 98  1  0  0  0
 16 17  2  0  0  0
 16 21  1  0  0  0
 16 31  1  0  0  0
 17 18  1  0  0  0
 17 99  1  0  0  0
 18 19  2  0  0  0
 18100  1  0  0  0
 19 20  1  0  0  0
 19 24  1  0  0  0
 20 21  2  0  0  0
 20101  1  0  0  0
 21 23  1  0  0  0
 22 28  1  0  0  0
 22 32  2  0  0  0
 26 27  1  0  0  0
 28102  1  0  0  0
 28103  1  0  0  0
 29104  1  0  0  0
 29105  1  0  0  0
 33 34  1  0  0  0
 33 66  1  0  0  0
 33 70  2  0  0  0
 34 36  1  0  0  0
 34 59  1  0  0  0
 34106  1  0  0  0
 35 44  2  0  0  0
 35 45  1  0  0  0
 35 68  1  0  0  0
 36 56  1  0  0  0
 36107  1  0  0  0
 37 39  1  0  0  0
 37 47  1  0  0  0
 37 66  1  0  0  0
 37108  1  0  0  0
 38 43  2  0  0  0
 38 46  1  0  0  0
 38 47  1  0  0  0
 39 64  1  0  0  0
 39 67  2  0  0  0
 40 52  1  0  0  0
 40 53  2  0  0  0
 40 58  1  0  0  0
 41109  1  0  0  0
 41110  1  0  0  0
 41111  1  0  0  0
 41 48  1  0  0  0
 42 43  1  0  0  0
 42 66  1  0  0  0
 42112  1  0  0  0
 42113  1  0  0  0
 43 44  1  0  0  0
 44114  1  0  0  0
 45 46  2  0  0  0
 45115  1  0  0  0
 46116  1  0  0  0
 47117  1  0  0  0
 47118  1  0  0  0
 48 56  1  0  0  0
 48 65  1  0  0  0
 48119  1  0  0  0
 49 50  1  0  0  0
 49 53  1  0  0  0
 49 64  1  0  0  0
 49120  1  0  0  0
 50 51  1  0  0  0
 50121  1  0  0  0
 50122  1  0  0  0
 51 52  1  0  0  0
 51123  1  0  0  0
 51124  1  0  0  0
 52125  1  0  0  0
 52126  1  0  0  0
 53 54  1  0  0  0
 54 55  2  0  0  0
 54127  1  0  0  0
 55 57  1  0  0  0
 55128  1  0  0  0
 56 69  2  0  0  0
 57 58  2  0  0  0
 57129  1  0  0  0
 58130  1  0  0  0
 59 60  1  0  0  0
 59 61  1  0  0  0
 59 62  1  0  0  0
 60131  1  0  0  0
 60132  1  0  0  0
 60133  1  0  0  0
 61134  1  0  0  0
 61135  1  0  0  0
 61136  1  0  0  0
 62137  1  0  0  0
 62138  1  0  0  0
 62139  1  0  0  0
 63 65  1  0  0  0
 63140  1  0  0  0
 63141  1  0  0  0
 63142  1  0  0  0
 64143  1  0  0  0
 65144  1  0  0  0
 68 83  1  0  0  0
 71 74  2  0  0  0
 71 84  1  0  0  0
 71145  1  0  0  0
 72 73  2  0  0  0
 72 74  1  0  0  0
 72 77  1  0  0  0
 73 75  1  0  0  0
 73 78  1  0  0  0
 74 81  1  0  0  0
 75 79  1  0  0  0
 75 84  2  0  0  0
 76 77  1  0  0  0
 76 78  1  0  0  0
 76146  1  0  0  0
 76147  1  0  0  0
 77 82  1  0  0  0
 77148  1  0  0  0
 78 85  1  0  0  0
 78149  1  0  0  0
 79150  1  0  0  0
 79151  1  0  0  0
 79152  1  0  0  0
 80 82  1  0  0  0
 80153  1  0  0  0
 80154  1  0  0  0
 80155  1  0  0  0
 81 83  1  0  0  0
 81156  1  0  0  0
 81157  1  0  0  0
 82158  1  0  0  0
 82159  1  0  0  0
 83160  1  0  0  0
 83161  1  0  0  0
 85162  1  0  0  0
M  ISO  4   1 100  68 101  83 101  85 100
M  END
> <chiral flag>
0

> <version>
0

> <s_m_source_file>
/data/baiqing/PycharmProjects/Reinvent-master-3.2/result/LINK_invent/BTK/process_docking_weight1_custom_sum_contain_oxygen_bond_distance_aromatic_linkinvent_7_9_3/rearranged_h_0135.sdf

> <i_m_source_file_index>
8

> <r_mmod_Potential_Energy-OPLS-2005>
506.118530273438

> <r_mmod_Stretch_Energy-OPLS-2005>
297.356109619141

> <r_mmod_Bend_Energy-OPLS-2005>
340.266296386719

> <r_mmod_Torsional_Energy-OPLS-2005>
235.610305786133

> <r_mmod_Improper_Torsional_Energy-OPLS-2005>
6.05194664001465

> <r_mmod_Van_der_Waal_Energy-OPLS-2005>
120.172370910645

> <r_mmod_Electrostatic_Energy-OPLS-2005>
-498.054840087891

> <r_mmod_Solvation_Energy-OPLS-2005>
-221.219390869141

> <b_mmod_Minimization_Converged-OPLS-2005>
0

> <r_mmod_RMS_Derivative-OPLS-2005>
2.92567801475525

$$$$
8
                    3D
 Structure written by MMmdl.
165173  0  0  1  0            999 V2000
  -30.7362  -14.4344   20.5967 C   0  0  0  0  0  0
  -30.4293  -12.2942   19.4231 C   0  0  0  0  0  0
  -29.5018  -12.4946   18.2086 C   0  0  0  0  0  0
  -28.0225  -12.3583   18.6227 C   0  0  0  0  0  0
  -27.6678  -13.2038   19.8727 C   0  0  2  0  0  0
  -28.7042  -12.9840   20.9973 C   0  0  0  0  0  0
  -25.2565  -13.8131   20.5575 C   0  0  0  0  0  0
  -24.1786  -13.0462   20.9099 C   0  0  0  0  0  0
  -24.6321  -11.6941   20.8672 C   0  0  0  0  0  0
  -23.9011  -10.4311   21.0352 C   0  0  0  0  0  0
  -24.3590   -9.4227   21.9147 C   0  0  0  0  0  0
  -23.6263   -8.2266   22.0744 C   0  0  0  0  0  0
  -22.4238   -8.0299   21.3569 C   0  0  0  0  0  0
  -21.9864   -9.0267   20.4679 C   0  0  0  0  0  0
  -22.7175  -10.2134   20.3030 C   0  0  0  0  0  0
  -21.6860   -6.0725   22.5291 C   0  0  0  0  0  0
  -21.4052   -6.5626   23.8233 C   0  0  0  0  0  0
  -21.3634   -5.6766   24.9205 C   0  0  0  0  0  0
  -21.5989   -4.3019   24.7247 C   0  0  0  0  0  0
  -21.8832   -3.8125   23.4378 C   0  0  0  0  0  0
  -21.9196   -4.6949   22.3427 C   0  0  0  0  0  0
  -22.7787  -13.5272   21.1794 C   0  0  0  0  0  0
  -22.1662   -4.2153   21.1007 F   0  0  0  0  0  0
  -21.5619   -3.4493   25.7753 F   0  0  0  0  0  0
  -30.0441  -13.2723   20.4529 N   0  0  0  0  0  0
  -26.3015  -12.9311   20.3266 N   0  0  0  0  0  0
  -25.9263  -11.6488   20.5697 N   0  0  0  0  0  0
  -22.0402  -12.8310   22.0370 N   0  0  0  0  0  0
  -25.4304  -15.1849   20.4016 N   0  0  0  0  0  0
  -31.8276  -14.6377   20.0623 O   0  0  0  0  0  0
  -21.6626   -6.8858   21.4259 O   0  0  0  0  0  0
  -22.3498  -14.5563   20.6605 O   0  0  0  0  0  0
  -24.6123  -31.8685   23.2132 C   0  0  0  0  0  0
  -25.9035  -32.4832   23.8387 C   0  0  1  0  0  0
  -27.2336  -27.4565   20.0952 C   0  0  0  0  0  0
  -25.5884  -33.8622   24.2317 N   0  0  0  0  0  0
  -23.3953  -30.4966   21.5530 C   0  0  2  0  0  0
  -24.8425  -28.9658   20.1082 C   0  0  0  0  0  0
  -22.7378  -29.4666   22.4989 C   0  0  0  0  0  0
  -18.0273  -28.1385   22.8481 C   0  0  0  0  0  0
  -24.1486  -36.7331   23.2624 C   0  0  0  0  0  0
  -25.9169  -30.8466   21.3552 C   0  0  0  0  0  0
  -25.9983  -29.4779   20.7117 C   0  0  0  0  0  0
  -27.1903  -28.7219   20.7196 C   0  0  0  0  0  0
  -26.0590  -26.9430   19.5037 C   0  0  0  0  0  0
  -24.8649  -27.6918   19.5119 C   0  0  0  0  0  0
  -23.6036  -29.8355   20.1629 C   0  0  0  0  0  0
  -25.4093  -36.3108   24.0326 C   0  0  1  0  0  0
  -20.5853  -28.3656   23.1339 C   0  0  2  0  0  0
  -20.6759  -26.9392   22.5453 C   0  0  0  0  0  0
  -19.5765  -26.6392   21.5220 C   0  0  0  0  0  0
  -18.1929  -26.7941   22.1605 C   0  0  0  0  0  0
  -19.1514  -28.8841   23.2914 C   0  0  0  0  0  0
  -18.9453  -30.1427   23.8933 C   0  0  0  0  0  0
  -17.6453  -30.6578   24.0598 C   0  0  0  0  0  0
  -25.9005  -34.9475   23.5115 C   0  0  0  0  0  0
  -16.5350  -29.9086   23.6338 C   0  0  0  0  0  0
  -16.7257  -28.6529   23.0330 C   0  0  0  0  0  0
  -26.4500  -31.6599   25.0677 C   0  0  0  0  0  0
  -25.3817  -31.3746   26.1483 C   0  0  0  0  0  0
  -27.0251  -30.3028   24.5992 C   0  0  0  0  0  0
  -27.6097  -32.4301   25.7428 C   0  0  0  0  0  0
  -27.5587  -37.1790   24.8446 C   0  0  0  0  0  0
  -21.4113  -29.3019   22.3728 N   0  0  0  0  0  0
  -26.4275  -37.3794   23.9417 N   0  0  0  0  0  0
  -24.6599  -31.0824   22.1023 N   0  0  0  0  0  0
  -23.4169  -28.8204   23.3021 O   0  0  0  0  0  0
  -28.3972  -26.7236   20.1492 O   0  0  0  0  0  0
  -26.5584  -34.8933   22.4678 O   0  0  0  0  0  0
  -23.5331  -32.1422   23.7575 O   0  0  0  0  0  0
  -28.1554  -20.2552   18.8858 C   0  0  0  0  0  0
  -27.9866  -21.6525   18.7548 C   0  0  0  0  0  0
  -28.6895  -22.5136   19.6565 C   0  0  0  0  0  0
  -29.4505  -21.8680   20.6731 C   0  0  0  0  0  0
  -28.9438  -19.7313   19.9206 C   0  0  0  0  0  0
  -27.0090  -22.1045   17.6814 C   0  0  0  0  0  0
  -30.1631  -22.6430   21.7676 C   0  0  0  0  0  0
  -29.5743  -24.3891   17.3758 C   0  0  0  0  0  0
  -29.3504  -17.7644   21.3991 C   0  0  0  0  0  0
  -30.5481  -16.7974   21.3800 C   0  0  0  0  0  0
  -28.9814  -26.2818   18.9268 C   0  0  0  0  0  0
  -28.6211  -24.8311   18.5072 C   0  0  2  0  0  0
  -29.5813  -20.5310   20.7877 N   0  0  0  0  0  0
  -28.6657  -23.9313   19.6666 N   0  0  0  0  0  0
  -29.0730  -18.3427   20.0794 N   0  0  0  0  0  0
  -30.1042  -15.4029   21.2825 N   0  0  0  0  0  0
  -31.4751  -12.3792   19.1255 H   0  0  0  0  0  0
  -30.3288  -11.2815   19.8257 H   0  0  0  0  0  0
  -29.7423  -11.7635   17.4347 H   0  0  0  0  0  0
  -29.6735  -13.4791   17.7627 H   0  0  0  0  0  0
  -27.8323  -11.3005   18.8171 H   0  0  0  0  0  0
  -27.3725  -12.6286   17.7892 H   0  0  0  0  0  0
  -27.7218  -14.2493   19.5681 H   0  0  0  0  0  0
  -28.6651  -11.9511   21.3496 H   0  0  0  0  0  0
  -28.4498  -13.5898   21.8684 H   0  0  0  0  0  0
  -25.2773   -9.5695   22.4687 H   0  0  0  0  0  0
  -24.0011   -7.4627   22.7414 H   0  0  0  0  0  0
  -21.0822   -8.8752   19.8961 H   0  0  0  0  0  0
  -22.3647  -10.9655   19.6101 H   0  0  0  0  0  0
  -21.2081   -7.6138   23.9769 H   0  0  0  0  0  0
  -21.1404   -6.0473   25.9093 H   0  0  0  0  0  0
  -22.0610   -2.7594   23.2860 H   0  0  0  0  0  0
  -22.4062  -12.0128   22.4950 H   0  0  0  0  0  0
  -21.1010  -13.1354   22.2524 H   0  0  0  0  0  0
  -24.6583  -15.8372   20.5015 H   0  0  0  0  0  0
  -26.2870  -15.6268   20.0894 H   0  0  0  0  0  0
  -26.7100  -32.5565   23.1147 H   0  0  0  0  0  0
  -25.0086  -33.9813   25.0505 H   0  0  0  0  0  0
  -22.6822  -31.3118   21.4226 H   0  0  0  0  0  0
  -23.3737  -35.9676   23.3292 H   0  0  0  0  0  0
  -24.3605  -36.8944   22.2038 H   0  0  0  0  0  0
  -23.7274  -37.6541   23.6656 H   0  0  0  0  0  0
  -26.0008  -31.6093   20.5791 H   0  0  0  0  0  0
  -26.8161  -30.9215   21.9544 H   0  0  0  0  0  0
  -28.0759  -29.1060   21.2082 H   0  0  0  0  0  0
  -26.0479  -25.9525   19.0771 H   0  0  0  0  0  0
  -23.9684  -27.2813   19.0704 H   0  0  0  0  0  0
  -23.7100  -30.6185   19.4104 H   0  0  0  0  0  0
  -22.7249  -29.2626   19.8641 H   0  0  0  0  0  0
  -25.1276  -36.1951   25.0819 H   0  0  0  0  0  0
  -20.9947  -28.3239   24.1459 H   0  0  0  0  0  0
  -20.5657  -26.2252   23.3628 H   0  0  0  0  0  0
  -21.6641  -26.7444   22.1267 H   0  0  0  0  0  0
  -19.6930  -25.6315   21.1233 H   0  0  0  0  0  0
  -19.6728  -27.3223   20.6770 H   0  0  0  0  0  0
  -17.4212  -26.6709   21.3985 H   0  0  0  0  0  0
  -18.0295  -26.0063   22.8973 H   0  0  0  0  0  0
  -19.7925  -30.7242   24.2316 H   0  0  0  0  0  0
  -17.5018  -31.6268   24.5183 H   0  0  0  0  0  0
  -15.5353  -30.3013   23.7645 H   0  0  0  0  0  0
  -15.8658  -28.0877   22.6992 H   0  0  0  0  0  0
  -24.6001  -30.7029   25.7935 H   0  0  0  0  0  0
  -24.8990  -32.2901   26.4891 H   0  0  0  0  0  0
  -25.8223  -30.9020   27.0266 H   0  0  0  0  0  0
  -26.2690  -29.6812   24.1161 H   0  0  0  0  0  0
  -27.4157  -29.7257   25.4392 H   0  0  0  0  0  0
  -27.8503  -30.4355   23.8982 H   0  0  0  0  0  0
  -27.2726  -33.3588   26.2063 H   0  0  0  0  0  0
  -28.3870  -32.6879   25.0213 H   0  0  0  0  0  0
  -28.0808  -31.8376   26.5295 H   0  0  0  0  0  0
  -28.2601  -38.0091   24.7499 H   0  0  0  0  0  0
  -28.1071  -36.2625   24.6224 H   0  0  0  0  0  0
  -27.2325  -37.1408   25.8854 H   0  0  0  0  0  0
  -20.9223  -29.8730   21.6973 H   0  0  0  0  0  0
  -26.0162  -38.2852   24.1479 H   0  0  0  0  0  0
  -27.6386  -19.5986   18.2009 H   0  0  0  0  0  0
  -26.0996  -21.5020   17.7279 H   0  0  0  0  0  0
  -27.4452  -21.9741   16.6906 H   0  0  0  0  0  0
  -26.6762  -23.1289   17.7851 H   0  0  0  0  0  0
  -29.5153  -23.3971   22.2165 H   0  0  0  0  0  0
  -31.0525  -23.1295   21.3702 H   0  0  0  0  0  0
  -30.4778  -21.9756   22.5704 H   0  0  0  0  0  0
  -29.5241  -25.0915   16.5416 H   0  0  0  0  0  0
  -29.3319  -23.4122   16.9633 H   0  0  0  0  0  0
  -30.6133  -24.3529   17.7064 H   0  0  0  0  0  0
  -29.5586  -18.5413   22.1342 H   0  0  0  0  0  0
  -28.4548  -17.2657   21.7671 H   0  0  0  0  0  0
  -31.0984  -16.8996   22.3183 H   0  0  0  0  0  0
  -31.2601  -17.0769   20.5991 H   0  0  0  0  0  0
  -28.7664  -26.9893   18.1194 H   0  0  0  0  0  0
  -30.0584  -26.3438   19.0834 H   0  0  0  0  0  0
  -27.6108  -24.8834   18.1193 H   0  0  0  0  0  0
  -29.0529  -24.3792   20.4945 H   0  0  0  0  0  0
  -28.5822  -17.7464   19.4217 H   0  0  0  0  0  0
  -29.2166  -15.1679   21.6990 H   0  0  0  0  0  0
  1 25  1  0  0  0
  1 30  2  0  0  0
  1 86  1  0  0  0
  2  3  1  0  0  0
  2 25  1  0  0  0
  2 87  1  0  0  0
  2 88  1  0  0  0
  3  4  1  0  0  0
  3 89  1  0  0  0
  3 90  1  0  0  0
  4  5  1  0  0  0
  4 91  1  0  0  0
  4 92  1  0  0  0
  5  6  1  0  0  0
  5 26  1  0  0  0
  5 93  1  0  0  0
  6 25  1  0  0  0
  6 94  1  0  0  0
  6 95  1  0  0  0
  7  8  2  0  0  0
  7 26  1  0  0  0
  7 29  1  0  0  0
  8  9  1  0  0  0
  8 22  1  0  0  0
  9 10  1  0  0  0
  9 27  2  0  0  0
 10 11  2  0  0  0
 10 15  1  0  0  0
 11 12  1  0  0  0
 11 96  1  0  0  0
 12 13  2  0  0  0
 12 97  1  0  0  0
 13 14  1  0  0  0
 13 31  1  0  0  0
 14 15  2  0  0  0
 14 98  1  0  0  0
 15 99  1  0  0  0
 16 17  2  0  0  0
 16 21  1  0  0  0
 16 31  1  0  0  0
 17 18  1  0  0  0
 17100  1  0  0  0
 18 19  2  0  0  0
 18101  1  0  0  0
 19 20  1  0  0  0
 19 24  1  0  0  0
 20 21  2  0  0  0
 20102  1  0  0  0
 21 23  1  0  0  0
 22 28  1  0  0  0
 22 32  2  0  0  0
 26 27  1  0  0  0
 28103  1  0  0  0
 28104  1  0  0  0
 29105  1  0  0  0
 29106  1  0  0  0
 33 34  1  0  0  0
 33 66  1  0  0  0
 33 70  2  0  0  0
 34 36  1  0  0  0
 34 59  1  0  0  0
 34107  1  0  0  0
 35 44  2  0  0  0
 35 45  1  0  0  0
 35 68  1  0  0  0
 36 56  1  0  0  0
 36108  1  0  0  0
 37 39  1  0  0  0
 37 47  1  0  0  0
 37 66  1  0  0  0
 37109  1  0  0  0
 38 43  2  0  0  0
 38 46  1  0  0  0
 38 47  1  0  0  0
 39 64  1  0  0  0
 39 67  2  0  0  0
 40 52  1  0  0  0
 40 53  2  0  0  0
 40 58  1  0  0  0
 41110  1  0  0  0
 41111  1  0  0  0
 41112  1  0  0  0
 41 48  1  0  0  0
 42 43  1  0  0  0
 42 66  1  0  0  0
 42113  1  0  0  0
 42114  1  0  0  0
 43 44  1  0  0  0
 44115  1  0  0  0
 45 46  2  0  0  0
 45116  1  0  0  0
 46117  1  0  0  0
 47118  1  0  0  0
 47119  1  0  0  0
 48 56  1  0  0  0
 48 65  1  0  0  0
 48120  1  0  0  0
 49 50  1  0  0  0
 49 53  1  0  0  0
 49 64  1  0  0  0
 49121  1  0  0  0
 50 51  1  0  0  0
 50122  1  0  0  0
 50123  1  0  0  0
 51 52  1  0  0  0
 51124  1  0  0  0
 51125  1  0  0  0
 52126  1  0  0  0
 52127  1  0  0  0
 53 54  1  0  0  0
 54 55  2  0  0  0
 54128  1  0  0  0
 55 57  1  0  0  0
 55129  1  0  0  0
 56 69  2  0  0  0
 57 58  2  0  0  0
 57130  1  0  0  0
 58131  1  0  0  0
 59 60  1  0  0  0
 59 61  1  0  0  0
 59 62  1  0  0  0
 60132  1  0  0  0
 60133  1  0  0  0
 60134  1  0  0  0
 61135  1  0  0  0
 61136  1  0  0  0
 61137  1  0  0  0
 62138  1  0  0  0
 62139  1  0  0  0
 62140  1  0  0  0
 63 65  1  0  0  0
 63141  1  0  0  0
 63142  1  0  0  0
 63143  1  0  0  0
 64144  1  0  0  0
 65145  1  0  0  0
 68 81  1  0  0  0
 71 72  2  0  0  0
 71 75  1  0  0  0
 71146  1  0  0  0
 72 73  1  0  0  0
 72 76  1  0  0  0
 73 74  2  0  0  0
 73 84  1  0  0  0
 74 77  1  0  0  0
 74 83  1  0  0  0
 75 83  2  0  0  0
 75 85  1  0  0  0
 76147  1  0  0  0
 76148  1  0  0  0
 76149  1  0  0  0
 77150  1  0  0  0
 77151  1  0  0  0
 77152  1  0  0  0
 78153  1  0  0  0
 78154  1  0  0  0
 78155  1  0  0  0
 78 82  1  0  0  0
 79 80  1  0  0  0
 79 85  1  0  0  0
 79156  1  0  0  0
 79157  1  0  0  0
 80 86  1  0  0  0
 80158  1  0  0  0
 80159  1  0  0  0
 81 82  1  0  0  0
 81160  1  0  0  0
 81161  1  0  0  0
 82 84  1  0  0  0
 82162  1  0  0  0
 84163  1  0  0  0
 85164  1  0  0  0
 86165  1  0  0  0
M  ISO  4   1 100  68 101  81 101  86 100
M  END
> <chiral flag>
0

> <version>
0

> <s_m_source_file>
/data/baiqing/PycharmProjects/Reinvent-master-3.2/result/LINK_invent/BTK/process_docking_weight1_custom_sum_contain_oxygen_bond_distance_aromatic_linkinvent_7_9_3/rearranged_h_0135.sdf

> <i_m_source_file_index>
9

> <r_mmod_Potential_Energy-OPLS-2005>
-326.092132568359

> <r_mmod_Stretch_Energy-OPLS-2005>
38.0903854370117

> <r_mmod_Bend_Energy-OPLS-2005>
135.313995361328

> <r_mmod_Torsional_Energy-OPLS-2005>
231.584594726562

> <r_mmod_Improper_Torsional_Energy-OPLS-2005>
6.04791498184204

> <r_mmod_Van_der_Waal_Energy-OPLS-2005>
162.471862792969

> <r_mmod_Electrostatic_Energy-OPLS-2005>
-671.712036132812

> <r_mmod_Solvation_Energy-OPLS-2005>
-239.017517089844

> <b_mmod_Minimization_Converged-OPLS-2005>
0

> <r_mmod_RMS_Derivative-OPLS-2005>
6.57238101959229

$$$$
9
                    3D
 Structure written by MMmdl.
176185  0  0  1  0            999 V2000
  -30.7026  -14.4556   20.5951 C   0  0  0  0  0  0
  -30.4269  -12.3097   19.4126 C   0  0  0  0  0  0
  -29.4923  -12.5076   18.2011 C   0  0  0  0  0  0
  -28.0143  -12.3658   18.6170 C   0  0  0  0  0  0
  -27.6628  -13.2029   19.8760 C   0  0  2  0  0  0
  -28.7046  -12.9723   20.9939 C   0  0  0  0  0  0
  -25.2596  -13.8151   20.5674 C   0  0  0  0  0  0
  -24.1842  -13.0436   20.9170 C   0  0  0  0  0  0
  -24.6389  -11.6901   20.8730 C   0  0  0  0  0  0
  -23.9052  -10.4291   21.0404 C   0  0  0  0  0  0
  -24.3608   -9.4207   21.9182 C   0  0  0  0  0  0
  -23.6288   -8.2240   22.0752 C   0  0  0  0  0  0
  -22.4268   -8.0279   21.3543 C   0  0  0  0  0  0
  -21.9902   -9.0250   20.4644 C   0  0  0  0  0  0
  -22.7226  -10.2132   20.3054 C   0  0  0  0  0  0
  -21.6852   -6.0733   22.5278 C   0  0  0  0  0  0
  -21.4013   -6.5637   23.8211 C   0  0  0  0  0  0
  -21.3658   -5.6791   24.9174 C   0  0  0  0  0  0
  -21.6046   -4.3054   24.7226 C   0  0  0  0  0  0
  -21.8819   -3.8145   23.4346 C   0  0  0  0  0  0
  -21.9192   -4.6961   22.3402 C   0  0  0  0  0  0
  -22.7868  -13.5240   21.1841 C   0  0  0  0  0  0
  -22.1662   -4.2147   21.0979 F   0  0  0  0  0  0
  -21.5629   -3.4538   25.7738 F   0  0  0  0  0  0
  -30.0356  -13.2817   20.4435 N   0  0  0  0  0  0
  -26.3030  -12.9314   20.3369 N   0  0  0  0  0  0
  -25.9314  -11.6477   20.5761 N   0  0  0  0  0  0
  -22.0508  -12.8231   22.0398 N   0  0  0  0  0  0
  -25.4337  -15.1867   20.4092 N   0  0  0  0  0  0
  -31.8177  -14.6767   20.1142 O   0  0  0  0  0  0
  -21.6636   -6.8873   21.4239 O   0  0  0  0  0  0
  -22.3557  -14.5551   20.6698 O   0  0  0  0  0  0
  -24.6162  -31.8674   23.2092 C   0  0  0  0  0  0
  -25.9049  -32.4816   23.8387 C   0  0  1  0  0  0
  -27.2336  -27.4245   20.0934 C   0  0  0  0  0  0
  -25.5902  -33.8614   24.2318 N   0  0  0  0  0  0
  -23.4037  -30.4923   21.5502 C   0  0  2  0  0  0
  -24.8480  -28.9584   20.1133 C   0  0  0  0  0  0
  -22.7413  -29.4664   22.4983 C   0  0  0  0  0  0
  -18.0268  -28.1391   22.8494 C   0  0  0  0  0  0
  -24.1485  -36.7321   23.2640 C   0  0  0  0  0  0
  -25.9340  -30.8316   21.3617 C   0  0  0  0  0  0
  -26.0100  -29.4661   20.7070 C   0  0  0  0  0  0
  -27.2045  -28.7081   20.6893 C   0  0  0  0  0  0
  -26.0489  -26.9362   19.4930 C   0  0  0  0  0  0
  -24.8633  -27.6932   19.5036 C   0  0  0  0  0  0
  -23.6108  -29.8258   20.1646 C   0  0  0  0  0  0
  -25.4103  -36.3107   24.0340 C   0  0  1  0  0  0
  -20.5862  -28.3680   23.1319 C   0  0  2  0  0  0
  -20.6767  -26.9416   22.5421 C   0  0  0  0  0  0
  -19.5744  -26.6396   21.5221 C   0  0  0  0  0  0
  -18.1917  -26.7937   22.1628 C   0  0  0  0  0  0
  -19.1519  -28.8851   23.2904 C   0  0  0  0  0  0
  -18.9450  -30.1457   23.8914 C   0  0  0  0  0  0
  -17.6454  -30.6595   24.0573 C   0  0  0  0  0  0
  -25.9035  -34.9474   23.5127 C   0  0  0  0  0  0
  -16.5344  -29.9103   23.6330 C   0  0  0  0  0  0
  -16.7259  -28.6524   23.0345 C   0  0  0  0  0  0
  -26.4472  -31.6599   25.0721 C   0  0  0  0  0  0
  -25.3740  -31.3704   26.1473 C   0  0  0  0  0  0
  -27.0303  -30.3045   24.6095 C   0  0  0  0  0  0
  -27.6050  -32.4321   25.7474 C   0  0  0  0  0  0
  -27.5578  -37.1805   24.8463 C   0  0  0  0  0  0
  -21.4138  -29.3044   22.3722 N   0  0  0  0  0  0
  -26.4287  -37.3792   23.9416 N   0  0  0  0  0  0
  -24.6699  -31.0779   22.0988 N   0  0  0  0  0  0
  -23.4183  -28.8203   23.3024 O   0  0  0  0  0  0
  -28.4121  -26.6984   20.1125 O   0  0  0  0  0  0
  -26.5595  -34.8922   22.4687 O   0  0  0  0  0  0
  -23.5356  -32.1425   23.7490 O   0  0  0  0  0  0
  -29.9569  -20.1379   20.3026 C   0  0  0  0  0  0
  -28.7614  -18.8492   18.9387 C   0  0  0  0  0  0
  -29.8384  -18.8099   19.7764 C   0  0  0  0  0  0
  -29.0013  -20.9503   19.7353 C   0  0  0  0  0  0
  -29.1199  -23.2571   18.6296 C   0  0  0  0  0  0
  -29.3509  -23.1138   21.1247 C   0  0  0  0  0  0
  -28.5743  -24.7081   18.6604 C   0  0  0  0  0  0
  -29.3991  -24.6672   21.0478 C   0  0  0  0  0  0
  -28.7207  -22.4397   19.8786 C   0  0  2  0  0  0
  -28.3462  -25.2585   20.0901 C   0  0  1  0  0  0
  -25.8337  -19.7357   18.5183 C   0  0  0  0  0  0
  -27.3903  -20.3006   16.5850 C   0  0  0  0  0  0
  -32.5743  -18.4640   18.5744 C   0  0  0  0  0  0
  -30.4506  -16.8388   21.3479 C   0  0  0  0  0  0
  -30.7268  -17.5840   20.0060 C   0  0  2  0  0  0
  -27.0874  -20.5048   18.0771 C   0  0  0  0  0  0
  -28.2418  -20.1320   18.8971 N   0  0  0  0  0  0
  -30.0068  -15.4441   21.1814 N   0  0  0  0  0  0
  -32.1522  -17.9560   19.8964 N   0  3  0  0  0  0
  -31.4695  -12.4216   19.1090 H   0  0  0  0  0  0
  -30.3384  -11.2953   19.8037 H   0  0  0  0  0  0
  -29.7303  -11.7833   17.4208 H   0  0  0  0  0  0
  -29.6576  -13.4934   17.7634 H   0  0  0  0  0  0
  -27.8257  -11.3094   18.8115 H   0  0  0  0  0  0
  -27.3616  -12.6418   17.7878 H   0  0  0  0  0  0
  -27.7104  -14.2521   19.5838 H   0  0  0  0  0  0
  -28.6811  -11.9323   21.3233 H   0  0  0  0  0  0
  -28.4645  -13.5607   21.8805 H   0  0  0  0  0  0
  -25.2757   -9.5684   22.4750 H   0  0  0  0  0  0
  -23.9999   -7.4633   22.7472 H   0  0  0  0  0  0
  -21.0831   -8.8767   19.8952 H   0  0  0  0  0  0
  -22.3685  -10.9668   19.6161 H   0  0  0  0  0  0
  -21.2004   -7.6144   23.9714 H   0  0  0  0  0  0
  -21.1480   -6.0521   25.9076 H   0  0  0  0  0  0
  -22.0599   -2.7608   23.2848 H   0  0  0  0  0  0
  -22.4122  -11.9886   22.4774 H   0  0  0  0  0  0
  -21.1131  -13.1262   22.2614 H   0  0  0  0  0  0
  -24.6700  -15.8442   20.5209 H   0  0  0  0  0  0
  -26.2889  -15.6251   20.0922 H   0  0  0  0  0  0
  -26.7120  -32.5528   23.1149 H   0  0  0  0  0  0
  -25.0050  -33.9775   25.0461 H   0  0  0  0  0  0
  -22.6933  -31.3099   21.4107 H   0  0  0  0  0  0
  -23.3739  -35.9661   23.3303 H   0  0  0  0  0  0
  -24.3582  -36.8940   22.2055 H   0  0  0  0  0  0
  -23.7242  -37.6528   23.6656 H   0  0  0  0  0  0
  -26.0469  -31.5980   20.5933 H   0  0  0  0  0  0
  -26.8227  -30.8849   21.9791 H   0  0  0  0  0  0
  -28.1027  -29.0967   21.1494 H   0  0  0  0  0  0
  -26.0208  -25.9729   19.0081 H   0  0  0  0  0  0
  -23.9700  -27.2982   19.0393 H   0  0  0  0  0  0
  -23.7185  -30.6015   19.4053 H   0  0  0  0  0  0
  -22.7341  -29.2465   19.8688 H   0  0  0  0  0  0
  -25.1272  -36.1970   25.0832 H   0  0  0  0  0  0
  -20.9952  -28.3251   24.1443 H   0  0  0  0  0  0
  -20.5692  -26.2285   23.3608 H   0  0  0  0  0  0
  -21.6633  -26.7474   22.1196 H   0  0  0  0  0  0
  -19.6912  -25.6312   21.1245 H   0  0  0  0  0  0
  -19.6688  -27.3213   20.6758 H   0  0  0  0  0  0
  -17.4190  -26.6692   21.4027 H   0  0  0  0  0  0
  -18.0312  -26.0076   22.9024 H   0  0  0  0  0  0
  -19.7927  -30.7269   24.2290 H   0  0  0  0  0  0
  -17.5011  -31.6273   24.5179 H   0  0  0  0  0  0
  -15.5347  -30.3015   23.7648 H   0  0  0  0  0  0
  -15.8658  -28.0858   22.7045 H   0  0  0  0  0  0
  -24.5906  -30.7058   25.7813 H   0  0  0  0  0  0
  -24.8939  -32.2860   26.4940 H   0  0  0  0  0  0
  -25.8097  -30.8861   27.0222 H   0  0  0  0  0  0
  -26.2846  -29.6798   24.1164 H   0  0  0  0  0  0
  -27.4092  -29.7285   25.4548 H   0  0  0  0  0  0
  -27.8668  -30.4367   23.9226 H   0  0  0  0  0  0
  -27.2671  -33.3614   26.2069 H   0  0  0  0  0  0
  -28.3835  -32.6898   25.0281 H   0  0  0  0  0  0
  -28.0737  -31.8438   26.5370 H   0  0  0  0  0  0
  -28.2587  -38.0109   24.7515 H   0  0  0  0  0  0
  -28.1077  -36.2641   24.6271 H   0  0  0  0  0  0
  -27.2305  -37.1438   25.8867 H   0  0  0  0  0  0
  -20.9301  -29.8769   21.6946 H   0  0  0  0  0  0
  -26.0178  -38.2874   24.1412 H   0  0  0  0  0  0
  -30.7060  -20.4788   21.0036 H   0  0  0  0  0  0
  -28.3206  -18.0645   18.3375 H   0  0  0  0  0  0
  -30.2088  -23.2768   18.5616 H   0  0  0  0  0  0
  -28.7822  -22.7754   17.7133 H   0  0  0  0  0  0
  -28.8006  -22.7990   22.0125 H   0  0  0  0  0  0
  -30.3728  -22.7629   21.2670 H   0  0  0  0  0  0
  -27.6419  -24.7546   18.0991 H   0  0  0  0  0  0
  -29.2740  -25.3496   18.1236 H   0  0  0  0  0  0
  -30.3882  -24.9774   20.7064 H   0  0  0  0  0  0
  -29.2818  -25.0879   22.0467 H   0  0  0  0  0  0
  -27.6427  -22.5479   20.0057 H   0  0  0  0  0  0
  -27.3800  -24.9158   20.4645 H   0  0  0  0  0  0
  -24.9601  -20.0546   17.9494 H   0  0  0  0  0  0
  -25.6215  -19.9129   19.5732 H   0  0  0  0  0  0
  -25.9448  -18.6602   18.3767 H   0  0  0  0  0  0
  -26.5699  -20.6656   15.9670 H   0  0  0  0  0  0
  -27.5431  -19.2490   16.3416 H   0  0  0  0  0  0
  -28.2889  -20.8426   16.2897 H   0  0  0  0  0  0
  -33.6486  -18.6490   18.5712 H   0  0  0  0  0  0
  -32.0768  -19.4015   18.3244 H   0  0  0  0  0  0
  -32.3568  -17.7401   17.7886 H   0  0  0  0  0  0
  -29.6732  -17.3645   21.9035 H   0  0  0  0  0  0
  -31.3257  -16.8512   22.0000 H   0  0  0  0  0  0
  -30.5168  -16.9073   19.1761 H   0  0  0  0  0  0
  -26.8724  -21.5619   18.2167 H   0  0  0  0  0  0
  -29.0861  -15.2108   21.5226 H   0  0  0  0  0  0
  -32.3726  -18.6406   20.5996 H   0  0  0  0  0  0
  -32.6905  -17.1259   20.0901 H   0  0  0  0  0  0
  1 25  1  0  0  0
  1 30  2  0  0  0
  1 88  1  0  0  0
  2  3  1  0  0  0
  2 25  1  0  0  0
  2 90  1  0  0  0
  2 91  1  0  0  0
  3  4  1  0  0  0
  3 92  1  0  0  0
  3 93  1  0  0  0
  4  5  1  0  0  0
  4 94  1  0  0  0
  4 95  1  0  0  0
  5  6  1  0  0  0
  5 26  1  0  0  0
  5 96  1  0  0  0
  6 25  1  0  0  0
  6 97  1  0  0  0
  6 98  1  0  0  0
  7  8  2  0  0  0
  7 26  1  0  0  0
  7 29  1  0  0  0
  8  9  1  0  0  0
  8 22  1  0  0  0
  9 10  1  0  0  0
  9 27  2  0  0  0
 10 11  2  0  0  0
 10 15  1  0  0  0
 11 12  1  0  0  0
 11 99  1  0  0  0
 12 13  2  0  0  0
 12100  1  0  0  0
 13 14  1  0  0  0
 13 31  1  0  0  0
 14 15  2  0  0  0
 14101  1  0  0  0
 15102  1  0  0  0
 16 17  2  0  0  0
 16 21  1  0  0  0
 16 31  1  0  0  0
 17 18  1  0  0  0
 17103  1  0  0  0
 18 19  2  0  0  0
 18104  1  0  0  0
 19 20  1  0  0  0
 19 24  1  0  0  0
 20 21  2  0  0  0
 20105  1  0  0  0
 21 23  1  0  0  0
 22 28  1  0  0  0
 22 32  2  0  0  0
 26 27  1  0  0  0
 28106  1  0  0  0
 28107  1  0  0  0
 29108  1  0  0  0
 29109  1  0  0  0
 33 34  1  0  0  0
 33 66  1  0  0  0
 33 70  2  0  0  0
 34 36  1  0  0  0
 34 59  1  0  0  0
 34110  1  0  0  0
 35 44  2  0  0  0
 35 45  1  0  0  0
 35 68  1  0  0  0
 36 56  1  0  0  0
 36111  1  0  0  0
 37 39  1  0  0  0
 37 47  1  0  0  0
 37 66  1  0  0  0
 37112  1  0  0  0
 38 43  2  0  0  0
 38 46  1  0  0  0
 38 47  1  0  0  0
 39 64  1  0  0  0
 39 67  2  0  0  0
 40 52  1  0  0  0
 40 53  2  0  0  0
 40 58  1  0  0  0
 41113  1  0  0  0
 41114  1  0  0  0
 41115  1  0  0  0
 41 48  1  0  0  0
 42 43  1  0  0  0
 42 66  1  0  0  0
 42116  1  0  0  0
 42117  1  0  0  0
 43 44  1  0  0  0
 44118  1  0  0  0
 45 46  2  0  0  0
 45119  1  0  0  0
 46120  1  0  0  0
 47121  1  0  0  0
 47122  1  0  0  0
 48 56  1  0  0  0
 48 65  1  0  0  0
 48123  1  0  0  0
 49 50  1  0  0  0
 49 53  1  0  0  0
 49 64  1  0  0  0
 49124  1  0  0  0
 50 51  1  0  0  0
 50125  1  0  0  0
 50126  1  0  0  0
 51 52  1  0  0  0
 51127  1  0  0  0
 51128  1  0  0  0
 52129  1  0  0  0
 52130  1  0  0  0
 53 54  1  0  0  0
 54 55  2  0  0  0
 54131  1  0  0  0
 55 57  1  0  0  0
 55132  1  0  0  0
 56 69  2  0  0  0
 57 58  2  0  0  0
 57133  1  0  0  0
 58134  1  0  0  0
 59 60  1  0  0  0
 59 61  1  0  0  0
 59 62  1  0  0  0
 60135  1  0  0  0
 60136  1  0  0  0
 60137  1  0  0  0
 61138  1  0  0  0
 61139  1  0  0  0
 61140  1  0  0  0
 62141  1  0  0  0
 62142  1  0  0  0
 62143  1  0  0  0
 63 65  1  0  0  0
 63144  1  0  0  0
 63145  1  0  0  0
 63146  1  0  0  0
 64147  1  0  0  0
 65148  1  0  0  0
 68 80  1  0  0  0
 71 73  1  0  0  0
 71 74  2  0  0  0
 71149  1  0  0  0
 72 73  2  0  0  0
 72 87  1  0  0  0
 72150  1  0  0  0
 73 85  1  0  0  0
 74 87  1  0  0  0
 74 79  1  0  0  0
 75 77  1  0  0  0
 75 79  1  0  0  0
 75151  1  0  0  0
 75152  1  0  0  0
 76 78  1  0  0  0
 76 79  1  0  0  0
 76153  1  0  0  0
 76154  1  0  0  0
 77 80  1  0  0  0
 77155  1  0  0  0
 77156  1  0  0  0
 78 80  1  0  0  0
 78157  1  0  0  0
 78158  1  0  0  0
 79159  1  0  0  0
 80160  1  0  0  0
 81161  1  0  0  0
 81162  1  0  0  0
 81163  1  0  0  0
 81 86  1  0  0  0
 82 86  1  0  0  0
 82164  1  0  0  0
 82165  1  0  0  0
 82166  1  0  0  0
 83 89  1  0  0  0
 83167  1  0  0  0
 83168  1  0  0  0
 83169  1  0  0  0
 84 88  1  0  0  0
 84170  1  0  0  0
 84171  1  0  0  0
 84 85  1  0  0  0
 85 89  1  0  0  0
 85172  1  0  0  0
 86 87  1  0  0  0
 86173  1  0  0  0
 88174  1  0  0  0
 89175  1  0  0  0
 89176  1  0  0  0
M  CHG  1  89   1
M  ISO  4   1 100  68 101  80 101  88 100
M  END
> <chiral flag>
0

> <version>
0

> <s_m_source_file>
/data/baiqing/PycharmProjects/Reinvent-master-3.2/result/LINK_invent/BTK/process_docking_weight1_custom_sum_contain_oxygen_bond_distance_aromatic_linkinvent_7_9_3/rearranged_h_0135.sdf

> <i_m_source_file_index>
10

> <r_mmod_Potential_Energy-OPLS-2005>
-272.562896728516

> <r_mmod_Stretch_Energy-OPLS-2005>
40.1476020812988

> <r_mmod_Bend_Energy-OPLS-2005>
106.618919372559

> <r_mmod_Torsional_Energy-OPLS-2005>
308.867126464844

> <r_mmod_Improper_Torsional_Energy-OPLS-2005>
3.345534324646

> <r_mmod_Van_der_Waal_Energy-OPLS-2005>
136.819488525391

> <r_mmod_Electrostatic_Energy-OPLS-2005>
-472.232971191406

> <r_mmod_Solvation_Energy-OPLS-2005>
-408.297149658203

> <b_mmod_Minimization_Converged-OPLS-2005>
0

> <r_mmod_RMS_Derivative-OPLS-2005>
0.756597220897675

$$$$
10
                    3D
 Structure written by MMmdl.
167177  0  0  1  0            999 V2000
  -30.6830  -14.5050   20.4965 C   0  0  0  0  0  0
  -30.4230  -12.3059   19.4315 C   0  0  0  0  0  0
  -29.4976  -12.4929   18.2091 C   0  0  0  0  0  0
  -28.0188  -12.3523   18.6214 C   0  0  0  0  0  0
  -27.6580  -13.2067   19.8666 C   0  0  2  0  0  0
  -28.7034  -13.0219   20.9925 C   0  0  0  0  0  0
  -25.2584  -13.8140   20.5680 C   0  0  0  0  0  0
  -24.1834  -13.0425   20.9176 C   0  0  0  0  0  0
  -24.6381  -11.6892   20.8724 C   0  0  0  0  0  0
  -23.9041  -10.4284   21.0402 C   0  0  0  0  0  0
  -24.3592   -9.4204   21.9182 C   0  0  0  0  0  0
  -23.6279   -8.2234   22.0750 C   0  0  0  0  0  0
  -22.4262   -8.0271   21.3540 C   0  0  0  0  0  0
  -21.9894   -9.0244   20.4647 C   0  0  0  0  0  0
  -22.7213  -10.2130   20.3059 C   0  0  0  0  0  0
  -21.6848   -6.0732   22.5285 C   0  0  0  0  0  0
  -21.4009   -6.5633   23.8224 C   0  0  0  0  0  0
  -21.3664   -5.6781   24.9182 C   0  0  0  0  0  0
  -21.6051   -4.3045   24.7228 C   0  0  0  0  0  0
  -21.8816   -3.8143   23.4343 C   0  0  0  0  0  0
  -21.9189   -4.6962   22.3402 C   0  0  0  0  0  0
  -22.7859  -13.5246   21.1853 C   0  0  0  0  0  0
  -22.1656   -4.2148   21.0975 F   0  0  0  0  0  0
  -21.5639   -3.4527   25.7738 F   0  0  0  0  0  0
  -30.0335  -13.3112   20.4333 N   0  0  0  0  0  0
  -26.3011  -12.9314   20.3331 N   0  0  0  0  0  0
  -25.9310  -11.6473   20.5747 N   0  0  0  0  0  0
  -22.0471  -12.8262   22.0407 N   0  0  0  0  0  0
  -25.4311  -15.1862   20.4112 N   0  0  0  0  0  0
  -31.8506  -14.6434   20.1281 O   0  0  0  0  0  0
  -21.6626   -6.8875   21.4247 O   0  0  0  0  0  0
  -22.3573  -14.5566   20.6720 O   0  0  0  0  0  0
  -24.6181  -31.8683   23.2101 C   0  0  0  0  0  0
  -25.9064  -32.4829   23.8405 C   0  0  1  0  0  0
  -27.2272  -27.4055   20.0935 C   0  0  0  0  0  0
  -25.5916  -33.8626   24.2336 N   0  0  0  0  0  0
  -23.4067  -30.4932   21.5539 C   0  0  2  0  0  0
  -24.8491  -28.9613   20.1153 C   0  0  0  0  0  0
  -22.7433  -29.4659   22.5005 C   0  0  0  0  0  0
  -18.0278  -28.1376   22.8500 C   0  0  0  0  0  0
  -24.1485  -36.7314   23.2638 C   0  0  0  0  0  0
  -25.9402  -30.8249   21.3676 C   0  0  0  0  0  0
  -26.0148  -29.4590   20.7107 C   0  0  0  0  0  0
  -27.2062  -28.6911   20.6931 C   0  0  0  0  0  0
  -26.0347  -26.9359   19.4899 C   0  0  0  0  0  0
  -24.8563  -27.7009   19.5009 C   0  0  0  0  0  0
  -23.6138  -29.8312   20.1676 C   0  0  0  0  0  0
  -25.4108  -36.3119   24.0339 C   0  0  1  0  0  0
  -20.5869  -28.3669   23.1321 C   0  0  2  0  0  0
  -20.6774  -26.9407   22.5419 C   0  0  0  0  0  0
  -19.5748  -26.6387   21.5220 C   0  0  0  0  0  0
  -18.1925  -26.7924   22.1629 C   0  0  0  0  0  0
  -19.1528  -28.8839   23.2903 C   0  0  0  0  0  0
  -18.9451  -30.1445   23.8913 C   0  0  0  0  0  0
  -17.6453  -30.6583   24.0565 C   0  0  0  0  0  0
  -25.9038  -34.9486   23.5133 C   0  0  0  0  0  0
  -16.5342  -29.9083   23.6326 C   0  0  0  0  0  0
  -16.7266  -28.6496   23.0354 C   0  0  0  0  0  0
  -26.4476  -31.6606   25.0737 C   0  0  0  0  0  0
  -25.3731  -31.3724   26.1479 C   0  0  0  0  0  0
  -27.0300  -30.3047   24.6114 C   0  0  0  0  0  0
  -27.6060  -32.4320   25.7494 C   0  0  0  0  0  0
  -27.5583  -37.1816   24.8466 C   0  0  0  0  0  0
  -21.4161  -29.3041   22.3737 N   0  0  0  0  0  0
  -26.4297  -37.3803   23.9407 N   0  0  0  0  0  0
  -24.6738  -31.0759   22.1019 N   0  0  0  0  0  0
  -23.4196  -28.8195   23.3047 O   0  0  0  0  0  0
  -28.3878  -26.6419   20.1141 O   0  0  0  0  0  0
  -26.5595  -34.8934   22.4692 O   0  0  0  0  0  0
  -23.5365  -32.1450   23.7474 O   0  0  0  0  0  0
  -31.9134  -24.2281   20.5386 C   0  0  0  0  0  0
  -30.6961  -24.9406   20.5868 C   0  0  0  0  0  0
  -29.5228  -23.0295   19.5867 C   0  0  0  0  0  0
  -31.9164  -22.9414   19.9711 C   0  0  0  0  0  0
  -30.7455  -22.3159   19.5466 C   0  0  0  0  0  0
  -29.5091  -24.3731   20.0651 C   0  0  0  0  0  0
  -33.1321  -22.1708   19.5461 C   0  0  0  0  0  0
  -32.5641  -21.2392   18.4530 C   0  0  0  0  0  0
  -30.0213  -18.0948   21.1891 C   0  0  0  0  0  0
  -30.9958  -17.2027   19.0583 C   0  0  0  0  0  0
  -29.9162  -19.5130   20.5292 C   0  0  0  0  0  0
  -30.8255  -18.6002   18.4347 C   0  0  0  0  0  0
  -31.0578  -21.0270   18.7742 C   0  0  1  0  0  0
  -29.9329  -16.9493   20.1476 C   0  0  1  0  0  0
  -28.2313  -25.2107   19.9543 C   0  0  0  0  0  0
  -29.8765  -15.5706   20.7133 N   0  0  0  0  0  0
  -30.9268  -19.6903   19.4482 N   0  3  1  0  0  0
  -31.4694  -12.3951   19.1321 H   0  0  0  0  0  0
  -30.3135  -11.3014   19.8425 H   0  0  0  0  0  0
  -29.7415  -11.7618   17.4373 H   0  0  0  0  0  0
  -29.6630  -13.4743   17.7613 H   0  0  0  0  0  0
  -27.8351  -11.2981   18.8316 H   0  0  0  0  0  0
  -27.3679  -12.6130   17.7863 H   0  0  0  0  0  0
  -27.6909  -14.2470   19.5439 H   0  0  0  0  0  0
  -28.6785  -11.9990   21.3706 H   0  0  0  0  0  0
  -28.4736  -13.6596   21.8479 H   0  0  0  0  0  0
  -25.2728   -9.5692   22.4767 H   0  0  0  0  0  0
  -23.9993   -7.4629   22.7475 H   0  0  0  0  0  0
  -21.0823   -8.8758   19.8957 H   0  0  0  0  0  0
  -22.3661  -10.9666   19.6176 H   0  0  0  0  0  0
  -21.1992   -7.6139   23.9731 H   0  0  0  0  0  0
  -21.1500   -6.0503   25.9092 H   0  0  0  0  0  0
  -22.0595   -2.7606   23.2833 H   0  0  0  0  0  0
  -22.4029  -11.9904   22.4797 H   0  0  0  0  0  0
  -21.1111  -13.1361   22.2611 H   0  0  0  0  0  0
  -24.6624  -15.8375   20.5272 H   0  0  0  0  0  0
  -26.2810  -15.6302   20.0885 H   0  0  0  0  0  0
  -26.7139  -32.5529   23.1171 H   0  0  0  0  0  0
  -25.0096  -33.9799   25.0502 H   0  0  0  0  0  0
  -22.6960  -31.3113   21.4186 H   0  0  0  0  0  0
  -23.3751  -35.9645   23.3313 H   0  0  0  0  0  0
  -24.3581  -36.8913   22.2049 H   0  0  0  0  0  0
  -23.7231  -37.6523   23.6638 H   0  0  0  0  0  0
  -26.0578  -31.5906   20.5997 H   0  0  0  0  0  0
  -26.8268  -30.8758   21.9882 H   0  0  0  0  0  0
  -28.1042  -29.0724   21.1587 H   0  0  0  0  0  0
  -25.9769  -25.9770   18.9987 H   0  0  0  0  0  0
  -23.9613  -27.3125   19.0341 H   0  0  0  0  0  0
  -23.7245  -30.6093   19.4114 H   0  0  0  0  0  0
  -22.7360  -29.2545   19.8701 H   0  0  0  0  0  0
  -25.1281  -36.1999   25.0833 H   0  0  0  0  0  0
  -20.9957  -28.3231   24.1442 H   0  0  0  0  0  0
  -20.5698  -26.2275   23.3604 H   0  0  0  0  0  0
  -21.6641  -26.7466   22.1197 H   0  0  0  0  0  0
  -19.6910  -25.6305   21.1237 H   0  0  0  0  0  0
  -19.6679  -27.3210   20.6761 H   0  0  0  0  0  0
  -17.4199  -26.6684   21.4020 H   0  0  0  0  0  0
  -18.0312  -26.0058   22.9015 H   0  0  0  0  0  0
  -19.7925  -30.7257   24.2288 H   0  0  0  0  0  0
  -17.5005  -31.6265   24.5166 H   0  0  0  0  0  0
  -15.5343  -30.2986   23.7642 H   0  0  0  0  0  0
  -15.8667  -28.0816   22.7065 H   0  0  0  0  0  0
  -24.5894  -30.7084   25.7811 H   0  0  0  0  0  0
  -24.8927  -32.2882   26.4934 H   0  0  0  0  0  0
  -25.8066  -30.8882   27.0238 H   0  0  0  0  0  0
  -26.2845  -29.6823   24.1146 H   0  0  0  0  0  0
  -27.4051  -29.7272   25.4575 H   0  0  0  0  0  0
  -27.8694  -30.4372   23.9282 H   0  0  0  0  0  0
  -27.2693  -33.3620   26.2093 H   0  0  0  0  0  0
  -28.3851  -32.6881   25.0301 H   0  0  0  0  0  0
  -28.0746  -31.8428   26.5388 H   0  0  0  0  0  0
  -28.2611  -38.0104   24.7513 H   0  0  0  0  0  0
  -28.1067  -36.2637   24.6290 H   0  0  0  0  0  0
  -27.2303  -37.1470   25.8871 H   0  0  0  0  0  0
  -20.9325  -29.8768   21.6962 H   0  0  0  0  0  0
  -26.0190  -38.2888   24.1396 H   0  0  0  0  0  0
  -32.8350  -24.6985   20.8527 H   0  0  0  0  0  0
  -30.6905  -25.9538   20.9641 H   0  0  0  0  0  0
  -28.6275  -22.5969   19.1609 H   0  0  0  0  0  0
  -33.5251  -21.6069   20.3930 H   0  0  0  0  0  0
  -33.9180  -22.8223   19.1626 H   0  0  0  0  0  0
  -33.1510  -20.3316   18.3126 H   0  0  0  0  0  0
  -32.6188  -21.7802   17.5072 H   0  0  0  0  0  0
  -29.2285  -17.9868   21.9301 H   0  0  0  0  0  0
  -30.9590  -18.0151   21.7411 H   0  0  0  0  0  0
  -32.0035  -17.1153   19.4674 H   0  0  0  0  0  0
  -30.9149  -16.4546   18.2692 H   0  0  0  0  0  0
  -30.0659  -20.2760   21.2941 H   0  0  0  0  0  0
  -28.9157  -19.6671   20.1224 H   0  0  0  0  0  0
  -29.8607  -18.6650   17.9297 H   0  0  0  0  0  0
  -31.5792  -18.7289   17.6569 H   0  0  0  0  0  0
  -30.4626  -21.0325   17.8591 H   0  0  0  0  0  0
  -28.9646  -17.0565   19.6554 H   0  0  0  0  0  0
  -27.5127  -24.8317   20.6833 H   0  0  0  0  0  0
  -27.8398  -24.9994   18.9588 H   0  0  0  0  0  0
  -28.9685  -15.3038   21.0639 H   0  0  0  0  0  0
  -31.8135  -19.5721   19.9133 H   0  0  0  0  0  0
  1 25  1  0  0  0
  1 30  2  0  0  0
  1 86  1  0  0  0
  2  3  1  0  0  0
  2 25  1  0  0  0
  2 88  1  0  0  0
  2 89  1  0  0  0
  3  4  1  0  0  0
  3 90  1  0  0  0
  3 91  1  0  0  0
  4  5  1  0  0  0
  4 92  1  0  0  0
  4 93  1  0  0  0
  5  6  1  0  0  0
  5 26  1  0  0  0
  5 94  1  0  0  0
  6 25  1  0  0  0
  6 95  1  0  0  0
  6 96  1  0  0  0
  7  8  2  0  0  0
  7 26  1  0  0  0
  7 29  1  0  0  0
  8  9  1  0  0  0
  8 22  1  0  0  0
  9 10  1  0  0  0
  9 27  2  0  0  0
 10 11  2  0  0  0
 10 15  1  0  0  0
 11 12  1  0  0  0
 11 97  1  0  0  0
 12 13  2  0  0  0
 12 98  1  0  0  0
 13 14  1  0  0  0
 13 31  1  0  0  0
 14 15  2  0  0  0
 14 99  1  0  0  0
 15100  1  0  0  0
 16 17  2  0  0  0
 16 21  1  0  0  0
 16 31  1  0  0  0
 17 18  1  0  0  0
 17101  1  0  0  0
 18 19  2  0  0  0
 18102  1  0  0  0
 19 20  1  0  0  0
 19 24  1  0  0  0
 20 21  2  0  0  0
 20103  1  0  0  0
 21 23  1  0  0  0
 22 28  1  0  0  0
 22 32  2  0  0  0
 26 27  1  0  0  0
 28104  1  0  0  0
 28105  1  0  0  0
 29106  1  0  0  0
 29107  1  0  0  0
 33 34  1  0  0  0
 33 66  1  0  0  0
 33 70  2  0  0  0
 34 36  1  0  0  0
 34 59  1  0  0  0
 34108  1  0  0  0
 35 44  2  0  0  0
 35 45  1  0  0  0
 35 68  1  0  0  0
 36 56  1  0  0  0
 36109  1  0  0  0
 37 39  1  0  0  0
 37 47  1  0  0  0
 37 66  1  0  0  0
 37110  1  0  0  0
 38 43  2  0  0  0
 38 46  1  0  0  0
 38 47  1  0  0  0
 39 64  1  0  0  0
 39 67  2  0  0  0
 40 52  1  0  0  0
 40 53  2  0  0  0
 40 58  1  0  0  0
 41111  1  0  0  0
 41112  1  0  0  0
 41113  1  0  0  0
 41 48  1  0  0  0
 42 43  1  0  0  0
 42 66  1  0  0  0
 42114  1  0  0  0
 42115  1  0  0  0
 43 44  1  0  0  0
 44116  1  0  0  0
 45 46  2  0  0  0
 45117  1  0  0  0
 46118  1  0  0  0
 47119  1  0  0  0
 47120  1  0  0  0
 48 56  1  0  0  0
 48 65  1  0  0  0
 48121  1  0  0  0
 49 50  1  0  0  0
 49 53  1  0  0  0
 49 64  1  0  0  0
 49122  1  0  0  0
 50 51  1  0  0  0
 50123  1  0  0  0
 50124  1  0  0  0
 51 52  1  0  0  0
 51125  1  0  0  0
 51126  1  0  0  0
 52127  1  0  0  0
 52128  1  0  0  0
 53 54  1  0  0  0
 54 55  2  0  0  0
 54129  1  0  0  0
 55 57  1  0  0  0
 55130  1  0  0  0
 56 69  2  0  0  0
 57 58  2  0  0  0
 57131  1  0  0  0
 58132  1  0  0  0
 59 60  1  0  0  0
 59 61  1  0  0  0
 59 62  1  0  0  0
 60133  1  0  0  0
 60134  1  0  0  0
 60135  1  0  0  0
 61136  1  0  0  0
 61137  1  0  0  0
 61138  1  0  0  0
 62139  1  0  0  0
 62140  1  0  0  0
 62141  1  0  0  0
 63 65  1  0  0  0
 63142  1  0  0  0
 63143  1  0  0  0
 63144  1  0  0  0
 64145  1  0  0  0
 65146  1  0  0  0
 68 85  1  0  0  0
 71 72  2  0  0  0
 71 74  1  0  0  0
 71147  1  0  0  0
 72 76  1  0  0  0
 72148  1  0  0  0
 73 75  1  0  0  0
 73 76  2  0  0  0
 73149  1  0  0  0
 74 75  2  0  0  0
 74 77  1  0  0  0
 75 83  1  0  0  0
 76 85  1  0  0  0
 77 78  1  0  0  0
 77150  1  0  0  0
 77151  1  0  0  0
 78152  1  0  0  0
 78153  1  0  0  0
 78 83  1  0  0  0
 79 81  1  0  0  0
 79 84  1  0  0  0
 79154  1  0  0  0
 79155  1  0  0  0
 80 82  1  0  0  0
 80 84  1  0  0  0
 80156  1  0  0  0
 80157  1  0  0  0
 81158  1  0  0  0
 81159  1  0  0  0
 81 87  1  0  0  0
 82 87  1  0  0  0
 82160  1  0  0  0
 82161  1  0  0  0
 83 87  1  0  0  0
 83162  1  0  0  0
 84 86  1  0  0  0
 84163  1  0  0  0
 85164  1  0  0  0
 85165  1  0  0  0
 86166  1  0  0  0
 87167  1  0  0  0
M  CHG  1  87   1
M  ISO  4   1 100  68 101  85 101  86 100
M  END
> <chiral flag>
0

> <version>
0

> <s_m_source_file>
/data/baiqing/PycharmProjects/Reinvent-master-3.2/result/LINK_invent/BTK/process_docking_weight1_custom_sum_contain_oxygen_bond_distance_aromatic_linkinvent_7_9_3/rearranged_h_0135.sdf

> <i_m_source_file_index>
11

> <r_mmod_Potential_Energy-OPLS-2005>
-25.7735271453857

> <r_mmod_Stretch_Energy-OPLS-2005>
47.0702323913574

> <r_mmod_Bend_Energy-OPLS-2005>
169.488906860352

> <r_mmod_Torsional_Energy-OPLS-2005>
264.857177734375

> <r_mmod_Improper_Torsional_Energy-OPLS-2005>
11.6099014282227

> <r_mmod_Van_der_Waal_Energy-OPLS-2005>
155.658889770508

> <r_mmod_Electrostatic_Energy-OPLS-2005>
-252.137145996094

> <r_mmod_Solvation_Energy-OPLS-2005>
-442.222351074219

> <b_mmod_Minimization_Converged-OPLS-2005>
0

> <r_mmod_RMS_Derivative-OPLS-2005>
1.3272567987442

$$$$
11
                    3D
 Structure written by MMmdl.
162171  0  0  1  0            999 V2000
  -30.5400  -14.8095   20.4513 C   0  0  0  0  0  0
  -30.4502  -12.4952   19.4691 C   0  0  0  0  0  0
  -29.5154  -12.5178   18.2356 C   0  0  0  0  0  0
  -28.0424  -12.3268   18.6526 C   0  0  0  0  0  0
  -27.6421  -13.2255   19.8519 C   0  0  2  0  0  0
  -28.6901  -13.1504   20.9845 C   0  0  0  0  0  0
  -25.2507  -13.8183   20.5698 C   0  0  0  0  0  0
  -24.1793  -13.0427   20.9219 C   0  0  0  0  0  0
  -24.6385  -11.6912   20.8757 C   0  0  0  0  0  0
  -23.9057  -10.4288   21.0421 C   0  0  0  0  0  0
  -24.3610   -9.4200   21.9191 C   0  0  0  0  0  0
  -23.6295   -8.2230   22.0755 C   0  0  0  0  0  0
  -22.4273   -8.0274   21.3546 C   0  0  0  0  0  0
  -21.9910   -9.0245   20.4642 C   0  0  0  0  0  0
  -22.7234  -10.2127   20.3064 C   0  0  0  0  0  0
  -21.6850   -6.0734   22.5282 C   0  0  0  0  0  0
  -21.4005   -6.5639   23.8213 C   0  0  0  0  0  0
  -21.3662   -5.6795   24.9181 C   0  0  0  0  0  0
  -21.6044   -4.3060   24.7229 C   0  0  0  0  0  0
  -21.8821   -3.8149   23.4351 C   0  0  0  0  0  0
  -21.9187   -4.6964   22.3407 C   0  0  0  0  0  0
  -22.7815  -13.5213   21.1875 C   0  0  0  0  0  0
  -22.1660   -4.2150   21.0988 F   0  0  0  0  0  0
  -21.5633   -3.4544   25.7742 F   0  0  0  0  0  0
  -29.9830  -13.5449   20.4052 N   0  0  0  0  0  0
  -26.2931  -12.9372   20.3287 N   0  0  0  0  0  0
  -25.9312  -11.6521   20.5746 N   0  0  0  0  0  0
  -22.0463  -12.8197   22.0436 N   0  0  0  0  0  0
  -25.4190  -15.1906   20.4116 N   0  0  0  0  0  0
  -31.7310  -14.9639   20.1608 O   0  0  0  0  0  0
  -21.6631   -6.8876   21.4245 O   0  0  0  0  0  0
  -22.3507  -14.5521   20.6736 O   0  0  0  0  0  0
  -24.6386  -31.8499   23.1919 C   0  0  0  0  0  0
  -25.9178  -32.4725   23.8302 C   0  0  1  0  0  0
  -27.2255  -27.1945   20.1579 C   0  0  0  0  0  0
  -25.5946  -33.8529   24.2219 N   0  0  0  0  0  0
  -23.4408  -30.4678   21.5358 C   0  0  2  0  0  0
  -24.8918  -28.9008   20.1159 C   0  0  0  0  0  0
  -22.7558  -29.4566   22.4883 C   0  0  0  0  0  0
  -18.0297  -28.1391   22.8482 C   0  0  0  0  0  0
  -24.1488  -36.7261   23.2644 C   0  0  0  0  0  0
  -25.9918  -30.7428   21.3828 C   0  0  0  0  0  0
  -26.0663  -29.3581   20.7278 C   0  0  0  0  0  0
  -27.2375  -28.5210   20.7294 C   0  0  0  0  0  0
  -26.0296  -26.8272   19.5029 C   0  0  0  0  0  0
  -24.8819  -27.6459   19.4893 C   0  0  0  0  0  0
  -23.6654  -29.7941   20.1566 C   0  0  0  0  0  0
  -25.4115  -36.3047   24.0320 C   0  0  1  0  0  0
  -20.5912  -28.3718   23.1243 C   0  0  2  0  0  0
  -20.6781  -26.9422   22.5404 C   0  0  0  0  0  0
  -19.5748  -26.6377   21.5213 C   0  0  0  0  0  0
  -18.1925  -26.7932   22.1621 C   0  0  0  0  0  0
  -19.1558  -28.8870   23.2852 C   0  0  0  0  0  0
  -18.9475  -30.1467   23.8873 C   0  0  0  0  0  0
  -17.6474  -30.6591   24.0559 C   0  0  0  0  0  0
  -25.9063  -34.9423   23.5070 C   0  0  0  0  0  0
  -16.5362  -29.9084   23.6340 C   0  0  0  0  0  0
  -16.7284  -28.6499   23.0364 C   0  0  0  0  0  0
  -26.4516  -31.6580   25.0727 C   0  0  0  0  0  0
  -25.3719  -31.3756   26.1442 C   0  0  0  0  0  0
  -27.0392  -30.2987   24.6278 C   0  0  0  0  0  0
  -27.6057  -32.4349   25.7504 C   0  0  0  0  0  0
  -27.5571  -37.1772   24.8463 C   0  0  0  0  0  0
  -21.4258  -29.3053   22.3634 N   0  0  0  0  0  0
  -26.4276  -37.3758   23.9415 N   0  0  0  0  0  0
  -24.7094  -31.0413   22.0920 N   0  0  0  0  0  0
  -23.4219  -28.8129   23.3030 O   0  0  0  0  0  0
  -28.2989  -26.2520   20.1969 O   0  0  0  0  0  0
  -26.5655  -34.8915   22.4653 O   0  0  0  0  0  0
  -23.5510  -32.1348   23.7154 O   0  0  0  0  0  0
  -28.4234  -19.4051   19.6106 C   0  0  0  0  0  0
  -28.6753  -17.9906   19.6296 C   0  0  0  0  0  0
  -30.3464  -18.3195   21.2738 C   0  0  0  0  0  0
  -29.0770  -20.3700   20.4392 C   0  0  0  0  0  0
  -29.6393  -17.3672   20.4710 C   0  0  0  0  0  0
  -30.0821  -19.7597   21.2771 C   0  0  0  0  0  0
  -28.4265  -22.5738   19.1268 C   0  0  0  0  0  0
  -28.4695  -21.8828   20.4722 C   0  0  2  0  0  0
  -28.9087  -23.4542   20.2474 C   0  0  2  0  0  0
  -30.4485  -19.7235   24.4277 C   0  0  0  0  0  0
  -32.4428  -21.1698   23.8682 C   0  0  0  0  0  0
  -28.0247  -24.7942   20.5894 C   0  0  0  0  0  0
  -31.4610  -20.1188   23.3426 C   0  0  0  0  0  0
  -29.6466  -15.8698   20.6261 N   0  0  0  0  0  0
  -30.7814  -20.6144   22.1481 N   0  0  0  0  0  0
  -31.4850  -12.6566   19.1611 H   0  0  0  0  0  0
  -30.4284  -11.5168   19.9509 H   0  0  0  0  0  0
  -29.8045  -11.7404   17.5262 H   0  0  0  0  0  0
  -29.6232  -13.4676   17.7104 H   0  0  0  0  0  0
  -27.9088  -11.2774   18.9194 H   0  0  0  0  0  0
  -27.3809  -12.5102   17.8052 H   0  0  0  0  0  0
  -27.6325  -14.2464   19.4708 H   0  0  0  0  0  0
  -28.7442  -12.1402   21.3930 H   0  0  0  0  0  0
  -28.4152  -13.7976   21.8191 H   0  0  0  0  0  0
  -25.2761   -9.5679   22.4754 H   0  0  0  0  0  0
  -24.0007   -7.4625   22.7475 H   0  0  0  0  0  0
  -21.0843   -8.8774   19.8940 H   0  0  0  0  0  0
  -22.3709  -10.9669   19.6173 H   0  0  0  0  0  0
  -21.2000   -7.6154   23.9720 H   0  0  0  0  0  0
  -21.1480   -6.0528   25.9082 H   0  0  0  0  0  0
  -22.0596   -2.7609   23.2856 H   0  0  0  0  0  0
  -22.4085  -11.9860   22.4819 H   0  0  0  0  0  0
  -21.1078  -13.1215   22.2638 H   0  0  0  0  0  0
  -24.6480  -15.8401   20.5242 H   0  0  0  0  0  0
  -26.2573  -15.6348   20.0630 H   0  0  0  0  0  0
  -26.7254  -32.5359   23.1052 H   0  0  0  0  0  0
  -25.0101  -33.9657   25.0369 H   0  0  0  0  0  0
  -22.7390  -31.2895   21.3797 H   0  0  0  0  0  0
  -23.3762  -35.9578   23.3294 H   0  0  0  0  0  0
  -24.3572  -36.8910   22.2061 H   0  0  0  0  0  0
  -23.7230  -37.6441   23.6697 H   0  0  0  0  0  0
  -26.1406  -31.4983   20.6100 H   0  0  0  0  0  0
  -26.8653  -30.7930   22.0219 H   0  0  0  0  0  0
  -28.1372  -28.8674   21.2182 H   0  0  0  0  0  0
  -25.9619  -25.8725   19.0021 H   0  0  0  0  0  0
  -23.9847  -27.2913   18.9994 H   0  0  0  0  0  0
  -23.7962  -30.5649   19.3967 H   0  0  0  0  0  0
  -22.7845  -29.2272   19.8500 H   0  0  0  0  0  0
  -25.1292  -36.1878   25.0806 H   0  0  0  0  0  0
  -20.9980  -28.3303   24.1375 H   0  0  0  0  0  0
  -20.5665  -26.2334   23.3618 H   0  0  0  0  0  0
  -21.6645  -26.7423   22.1208 H   0  0  0  0  0  0
  -19.6913  -25.6283   21.1253 H   0  0  0  0  0  0
  -19.6688  -27.3183   20.6729 H   0  0  0  0  0  0
  -17.4202  -26.6699   21.4014 H   0  0  0  0  0  0
  -18.0313  -26.0067   22.8999 H   0  0  0  0  0  0
  -19.7948  -30.7291   24.2229 H   0  0  0  0  0  0
  -17.5026  -31.6266   24.5169 H   0  0  0  0  0  0
  -15.5359  -30.2979   23.7673 H   0  0  0  0  0  0
  -15.8683  -28.0806   22.7096 H   0  0  0  0  0  0
  -24.5920  -30.7069   25.7785 H   0  0  0  0  0  0
  -24.8874  -32.2928   26.4799 H   0  0  0  0  0  0
  -25.8018  -30.9000   27.0268 H   0  0  0  0  0  0
  -26.3011  -29.6710   24.1274 H   0  0  0  0  0  0
  -27.4028  -29.7284   25.4834 H   0  0  0  0  0  0
  -27.8910  -30.4253   23.9592 H   0  0  0  0  0  0
  -27.2663  -33.3680   26.2022 H   0  0  0  0  0  0
  -28.3895  -32.6860   25.0343 H   0  0  0  0  0  0
  -28.0712  -31.8519   26.5465 H   0  0  0  0  0  0
  -28.2567  -38.0091   24.7536 H   0  0  0  0  0  0
  -28.1088  -36.2618   24.6254 H   0  0  0  0  0  0
  -27.2301  -37.1387   25.8870 H   0  0  0  0  0  0
  -20.9470  -29.8762   21.6813 H   0  0  0  0  0  0
  -26.0150  -38.2819   24.1446 H   0  0  0  0  0  0
  -27.6269  -19.7520   18.9674 H   0  0  0  0  0  0
  -28.0596  -17.3635   18.9999 H   0  0  0  0  0  0
  -31.0655  -17.8955   21.9559 H   0  0  0  0  0  0
  -27.4377  -22.7508   18.7086 H   0  0  0  0  0  0
  -29.1807  -22.2937   18.3926 H   0  0  0  0  0  0
  -27.5281  -21.7936   21.0112 H   0  0  0  0  0  0
  -29.9790  -23.6180   20.3513 H   0  0  0  0  0  0
  -30.9478  -19.2779   25.2893 H   0  0  0  0  0  0
  -29.7265  -18.9924   24.0629 H   0  0  0  0  0  0
  -29.8903  -20.5893   24.7860 H   0  0  0  0  0  0
  -32.9811  -20.7907   24.7386 H   0  0  0  0  0  0
  -31.9357  -22.0871   24.1693 H   0  0  0  0  0  0
  -33.1882  -21.4288   23.1146 H   0  0  0  0  0  0
  -27.9948  -24.8331   21.6785 H   0  0  0  0  0  0
  -26.9994  -24.5418   20.3263 H   0  0  0  0  0  0
  -32.0675  -19.2497   23.0898 H   0  0  0  0  0  0
  -28.7174  -15.4931   20.7274 H   0  0  0  0  0  0
  -30.5268  -21.5979   22.1341 H   0  0  0  0  0  0
  1 25  1  0  0  0
  1 30  2  0  0  0
  1 84  1  0  0  0
  2  3  1  0  0  0
  2 25  1  0  0  0
  2 86  1  0  0  0
  2 87  1  0  0  0
  3  4  1  0  0  0
  3 88  1  0  0  0
  3 89  1  0  0  0
  4  5  1  0  0  0
  4 90  1  0  0  0
  4 91  1  0  0  0
  5  6  1  0  0  0
  5 26  1  0  0  0
  5 92  1  0  0  0
  6 25  1  0  0  0
  6 93  1  0  0  0
  6 94  1  0  0  0
  7  8  2  0  0  0
  7 26  1  0  0  0
  7 29  1  0  0  0
  8  9  1  0  0  0
  8 22  1  0  0  0
  9 10  1  0  0  0
  9 27  2  0  0  0
 10 11  2  0  0  0
 10 15  1  0  0  0
 11 12  1  0  0  0
 11 95  1  0  0  0
 12 13  2  0  0  0
 12 96  1  0  0  0
 13 14  1  0  0  0
 13 31  1  0  0  0
 14 15  2  0  0  0
 14 97  1  0  0  0
 15 98  1  0  0  0
 16 17  2  0  0  0
 16 21  1  0  0  0
 16 31  1  0  0  0
 17 18  1  0  0  0
 17 99  1  0  0  0
 18 19  2  0  0  0
 18100  1  0  0  0
 19 20  1  0  0  0
 19 24  1  0  0  0
 20 21  2  0  0  0
 20101  1  0  0  0
 21 23  1  0  0  0
 22 28  1  0  0  0
 22 32  2  0  0  0
 26 27  1  0  0  0
 28102  1  0  0  0
 28103  1  0  0  0
 29104  1  0  0  0
 29105  1  0  0  0
 33 34  1  0  0  0
 33 66  1  0  0  0
 33 70  2  0  0  0
 34 36  1  0  0  0
 34 59  1  0  0  0
 34106  1  0  0  0
 35 44  2  0  0  0
 35 45  1  0  0  0
 35 68  1  0  0  0
 36 56  1  0  0  0
 36107  1  0  0  0
 37 39  1  0  0  0
 37 47  1  0  0  0
 37 66  1  0  0  0
 37108  1  0  0  0
 38 43  2  0  0  0
 38 46  1  0  0  0
 38 47  1  0  0  0
 39 64  1  0  0  0
 39 67  2  0  0  0
 40 52  1  0  0  0
 40 53  2  0  0  0
 40 58  1  0  0  0
 41109  1  0  0  0
 41110  1  0  0  0
 41111  1  0  0  0
 41 48  1  0  0  0
 42 43  1  0  0  0
 42 66  1  0  0  0
 42112  1  0  0  0
 42113  1  0  0  0
 43 44  1  0  0  0
 44114  1  0  0  0
 45 46  2  0  0  0
 45115  1  0  0  0
 46116  1  0  0  0
 47117  1  0  0  0
 47118  1  0  0  0
 48 56  1  0  0  0
 48 65  1  0  0  0
 48119  1  0  0  0
 49 50  1  0  0  0
 49 53  1  0  0  0
 49 64  1  0  0  0
 49120  1  0  0  0
 50 51  1  0  0  0
 50121  1  0  0  0
 50122  1  0  0  0
 51 52  1  0  0  0
 51123  1  0  0  0
 51124  1  0  0  0
 52125  1  0  0  0
 52126  1  0  0  0
 53 54  1  0  0  0
 54 55  2  0  0  0
 54127  1  0  0  0
 55 57  1  0  0  0
 55128  1  0  0  0
 56 69  2  0  0  0
 57 58  2  0  0  0
 57129  1  0  0  0
 58130  1  0  0  0
 59 60  1  0  0  0
 59 61  1  0  0  0
 59 62  1  0  0  0
 60131  1  0  0  0
 60132  1  0  0  0
 60133  1  0  0  0
 61134  1  0  0  0
 61135  1  0  0  0
 61136  1  0  0  0
 62137  1  0  0  0
 62138  1  0  0  0
 62139  1  0  0  0
 63 65  1  0  0  0
 63140  1  0  0  0
 63141  1  0  0  0
 63142  1  0  0  0
 64143  1  0  0  0
 65144  1  0  0  0
 68 82  1  0  0  0
 71 72  2  0  0  0
 71 74  1  0  0  0
 71145  1  0  0  0
 72 75  1  0  0  0
 72146  1  0  0  0
 73 75  2  0  0  0
 73 76  1  0  0  0
 73147  1  0  0  0
 74 76  2  0  0  0
 74 78  1  0  0  0
 75 84  1  0  0  0
 76 85  1  0  0  0
 77 78  1  0  0  0
 77 79  1  0  0  0
 77148  1  0  0  0
 77149  1  0  0  0
 78 79  1  0  0  0
 78150  1  0  0  0
 79 82  1  0  0  0
 79151  1  0  0  0
 80152  1  0  0  0
 80153  1  0  0  0
 80154  1  0  0  0
 80 83  1  0  0  0
 81 83  1  0  0  0
 81155  1  0  0  0
 81156  1  0  0  0
 81157  1  0  0  0
 82158  1  0  0  0
 82159  1  0  0  0
 83 85  1  0  0  0
 83160  1  0  0  0
 84161  1  0  0  0
 85162  1  0  0  0
M  ISO  4   1 100  68 101  82 101  84 100
M  END
> <chiral flag>
0

> <version>
0

> <s_m_source_file>
/data/baiqing/PycharmProjects/Reinvent-master-3.2/result/LINK_invent/BTK/process_docking_weight1_custom_sum_contain_oxygen_bond_distance_aromatic_linkinvent_7_9_3/rearranged_h_0135.sdf

> <i_m_source_file_index>
12

> <r_mmod_Potential_Energy-OPLS-2005>
388.550079345703

> <r_mmod_Stretch_Energy-OPLS-2005>
178.9404296875

> <r_mmod_Bend_Energy-OPLS-2005>
246.644485473633

> <r_mmod_Torsional_Energy-OPLS-2005>
281.966278076172

> <r_mmod_Improper_Torsional_Energy-OPLS-2005>
9.2441577911377

> <r_mmod_Van_der_Waal_Energy-OPLS-2005>
132.362319946289

> <r_mmod_Electrostatic_Energy-OPLS-2005>
-371.198364257812

> <r_mmod_Solvation_Energy-OPLS-2005>
-213.632965087891

> <b_mmod_Minimization_Converged-OPLS-2005>
0

> <r_mmod_RMS_Derivative-OPLS-2005>
1.84936654567719

$$$$
12
                    3D
 Structure written by MMmdl.
179188  0  0  1  0            999 V2000
  -30.6589  -14.5568   20.5701 C   0  0  0  0  0  0
  -30.4274  -12.3658   19.4282 C   0  0  0  0  0  0
  -29.4945  -12.5104   18.2081 C   0  0  0  0  0  0
  -28.0181  -12.3550   18.6243 C   0  0  0  0  0  0
  -27.6522  -13.2102   19.8663 C   0  0  2  0  0  0
  -28.6939  -13.0299   20.9904 C   0  0  0  0  0  0
  -25.2557  -13.8161   20.5679 C   0  0  0  0  0  0
  -24.1824  -13.0428   20.9187 C   0  0  0  0  0  0
  -24.6380  -11.6899   20.8732 C   0  0  0  0  0  0
  -23.9049  -10.4293   21.0412 C   0  0  0  0  0  0
  -24.3616   -9.4216   21.9184 C   0  0  0  0  0  0
  -23.6299   -8.2244   22.0755 C   0  0  0  0  0  0
  -22.4279   -8.0272   21.3542 C   0  0  0  0  0  0
  -21.9905   -9.0248   20.4647 C   0  0  0  0  0  0
  -22.7224  -10.2134   20.3058 C   0  0  0  0  0  0
  -21.6848   -6.0730   22.5280 C   0  0  0  0  0  0
  -21.4006   -6.5641   23.8210 C   0  0  0  0  0  0
  -21.3658   -5.6800   24.9176 C   0  0  0  0  0  0
  -21.6052   -4.3063   24.7228 C   0  0  0  0  0  0
  -21.8820   -3.8143   23.4348 C   0  0  0  0  0  0
  -21.9196   -4.6961   22.3402 C   0  0  0  0  0  0
  -22.7854  -13.5230   21.1862 C   0  0  0  0  0  0
  -22.1671   -4.2152   21.0979 F   0  0  0  0  0  0
  -21.5633   -3.4547   25.7738 F   0  0  0  0  0  0
  -30.0104  -13.3648   20.4273 N   0  0  0  0  0  0
  -26.2975  -12.9329   20.3329 N   0  0  0  0  0  0
  -25.9298  -11.6489   20.5758 N   0  0  0  0  0  0
  -22.0500  -12.8209   22.0420 N   0  0  0  0  0  0
  -25.4281  -15.1875   20.4091 N   0  0  0  0  0  0
  -31.8129  -14.7232   20.1692 O   0  0  0  0  0  0
  -21.6638   -6.8864   21.4242 O   0  0  0  0  0  0
  -22.3540  -14.5554   20.6740 O   0  0  0  0  0  0
  -24.6213  -31.8616   23.2076 C   0  0  0  0  0  0
  -25.9074  -32.4799   23.8378 C   0  0  1  0  0  0
  -27.2322  -27.3729   20.1277 C   0  0  0  0  0  0
  -25.5917  -33.8595   24.2288 N   0  0  0  0  0  0
  -23.4126  -30.4861   21.5473 C   0  0  2  0  0  0
  -24.8614  -28.9435   20.1165 C   0  0  0  0  0  0
  -22.7417  -29.4637   22.4963 C   0  0  0  0  0  0
  -18.0283  -28.1370   22.8501 C   0  0  0  0  0  0
  -24.1491  -36.7286   23.2640 C   0  0  0  0  0  0
  -25.9470  -30.8132   21.3692 C   0  0  0  0  0  0
  -26.0252  -29.4426   20.7177 C   0  0  0  0  0  0
  -27.2160  -28.6686   20.7100 C   0  0  0  0  0  0
  -26.0523  -26.8996   19.5208 C   0  0  0  0  0  0
  -24.8749  -27.6751   19.5102 C   0  0  0  0  0  0
  -23.6265  -29.8195   20.1626 C   0  0  0  0  0  0
  -25.4108  -36.3071   24.0341 C   0  0  1  0  0  0
  -20.5872  -28.3672   23.1296 C   0  0  2  0  0  0
  -20.6776  -26.9403   22.5420 C   0  0  0  0  0  0
  -19.5750  -26.6389   21.5218 C   0  0  0  0  0  0
  -18.1922  -26.7915   22.1615 C   0  0  0  0  0  0
  -19.1526  -28.8834   23.2912 C   0  0  0  0  0  0
  -18.9456  -30.1430   23.8937 C   0  0  0  0  0  0
  -17.6461  -30.6591   24.0554 C   0  0  0  0  0  0
  -25.9056  -34.9454   23.5103 C   0  0  0  0  0  0
  -16.5348  -29.9089   23.6349 C   0  0  0  0  0  0
  -16.7269  -28.6502   23.0380 C   0  0  0  0  0  0
  -26.4491  -31.6592   25.0728 C   0  0  0  0  0  0
  -25.3727  -31.3676   26.1454 C   0  0  0  0  0  0
  -27.0352  -30.3040   24.6141 C   0  0  0  0  0  0
  -27.6100  -32.4308   25.7448 C   0  0  0  0  0  0
  -27.5572  -37.1775   24.8467 C   0  0  0  0  0  0
  -21.4133  -29.3030   22.3678 N   0  0  0  0  0  0
  -26.4269  -37.3776   23.9427 N   0  0  0  0  0  0
  -24.6798  -31.0680   22.0996 N   0  0  0  0  0  0
  -23.4145  -28.8169   23.3028 O   0  0  0  0  0  0
  -28.3842  -26.6017   20.0837 O   0  0  0  0  0  0
  -26.5616  -34.8913   22.4674 O   0  0  0  0  0  0
  -23.5400  -32.1380   23.7459 O   0  0  0  0  0  0
  -30.8071  -18.0577   19.3032 C   0  0  0  0  0  0
  -29.3387  -19.2582   20.8000 C   0  0  0  0  0  0
  -30.1389  -18.0965   20.5393 C   0  0  0  0  0  0
  -30.6847  -19.1327   18.4074 C   0  0  0  0  0  0
  -29.2585  -20.3003   19.8283 C   0  0  0  0  0  0
  -32.3685  -19.3295   24.8309 C   0  0  0  0  0  0
  -31.2001  -19.2359   25.8008 C   0  0  0  0  0  0
  -32.0174  -18.2726   23.7939 C   0  0  0  0  0  0
  -29.9789  -18.8403   24.9348 C   0  0  0  0  0  0
  -31.4173  -19.1126   17.0801 C   0  0  0  0  0  0
  -29.1029  -20.0786   24.6715 C   0  0  0  0  0  0
  -29.1472  -17.7854   25.7028 C   0  0  0  0  0  0
  -28.2387  -23.9918   19.9125 C   0  0  0  0  0  0
  -28.8283  -22.6742   20.5614 C   0  0  0  0  0  0
  -29.9188  -17.1692   22.9843 C   0  0  0  0  0  0
  -28.3929  -25.3086   20.7625 C   0  0  0  0  0  0
  -30.3933  -16.9183   21.5254 C   0  0  1  0  0  0
  -29.9207  -20.2198   18.6614 N   0  0  0  0  0  0
  -28.3933  -21.4158   19.9152 N   0  0  0  0  0  0
  -29.9216  -15.5828   21.0670 N   0  0  0  0  0  0
  -30.5477  -18.3584   23.6325 N   0  3  2  0  0  0
  -31.4670  -12.4928   19.1216 H   0  0  0  0  0  0
  -30.3602  -11.3592   19.8445 H   0  0  0  0  0  0
  -29.7478  -11.7689   17.4484 H   0  0  0  0  0  0
  -29.6438  -13.4860   17.7430 H   0  0  0  0  0  0
  -27.8457  -11.3001   18.8383 H   0  0  0  0  0  0
  -27.3629  -12.6066   17.7896 H   0  0  0  0  0  0
  -27.6834  -14.2527   19.5489 H   0  0  0  0  0  0
  -28.6925  -12.0002   21.3541 H   0  0  0  0  0  0
  -28.4427  -13.6457   21.8554 H   0  0  0  0  0  0
  -25.2756   -9.5697   22.4764 H   0  0  0  0  0  0
  -24.0014   -7.4629   22.7471 H   0  0  0  0  0  0
  -21.0836   -8.8754   19.8949 H   0  0  0  0  0  0
  -22.3671  -10.9675   19.6171 H   0  0  0  0  0  0
  -21.1985   -7.6140   23.9708 H   0  0  0  0  0  0
  -21.1489   -6.0527   25.9077 H   0  0  0  0  0  0
  -22.0600   -2.7605   23.2847 H   0  0  0  0  0  0
  -22.4121  -11.9849   22.4770 H   0  0  0  0  0  0
  -21.1123  -13.1241   22.2665 H   0  0  0  0  0  0
  -24.6546  -15.8376   20.4968 H   0  0  0  0  0  0
  -26.2728  -15.6261   20.0639 H   0  0  0  0  0  0
  -26.7123  -32.5512   23.1122 H   0  0  0  0  0  0
  -25.0069  -33.9774   25.0424 H   0  0  0  0  0  0
  -22.7083  -31.3092   21.4050 H   0  0  0  0  0  0
  -23.3753  -35.9619   23.3309 H   0  0  0  0  0  0
  -24.3587  -36.8924   22.2056 H   0  0  0  0  0  0
  -23.7252  -37.6486   23.6676 H   0  0  0  0  0  0
  -26.0671  -31.5774   20.6007 H   0  0  0  0  0  0
  -26.8313  -30.8666   21.9926 H   0  0  0  0  0  0
  -28.1176  -29.0531   21.1682 H   0  0  0  0  0  0
  -26.0527  -25.9318   19.0431 H   0  0  0  0  0  0
  -23.9826  -27.2862   19.0383 H   0  0  0  0  0  0
  -23.7387  -30.5983   19.4068 H   0  0  0  0  0  0
  -22.7486  -29.2424   19.8696 H   0  0  0  0  0  0
  -25.1281  -36.1905   25.0824 H   0  0  0  0  0  0
  -20.9985  -28.3273   24.1406 H   0  0  0  0  0  0
  -20.5684  -26.2284   23.3621 H   0  0  0  0  0  0
  -21.6650  -26.7458   22.1190 H   0  0  0  0  0  0
  -19.6925  -25.6311   21.1249 H   0  0  0  0  0  0
  -19.6697  -27.3200   20.6756 H   0  0  0  0  0  0
  -17.4194  -26.6703   21.4001 H   0  0  0  0  0  0
  -18.0288  -26.0044   22.8986 H   0  0  0  0  0  0
  -19.7934  -30.7218   24.2341 H   0  0  0  0  0  0
  -17.5029  -31.6295   24.5098 H   0  0  0  0  0  0
  -15.5348  -30.2987   23.7677 H   0  0  0  0  0  0
  -15.8666  -28.0820   22.7095 H   0  0  0  0  0  0
  -24.5985  -30.6935   25.7767 H   0  0  0  0  0  0
  -24.8792  -32.2790   26.4836 H   0  0  0  0  0  0
  -25.8059  -30.8897   27.0253 H   0  0  0  0  0  0
  -26.2911  -29.6731   24.1269 H   0  0  0  0  0  0
  -27.4193  -29.7357   25.4623 H   0  0  0  0  0  0
  -27.8701  -30.4352   23.9262 H   0  0  0  0  0  0
  -27.2805  -33.3655   26.1994 H   0  0  0  0  0  0
  -28.3905  -32.6784   25.0238 H   0  0  0  0  0  0
  -28.0762  -31.8422   26.5365 H   0  0  0  0  0  0
  -28.2566  -38.0084   24.7577 H   0  0  0  0  0  0
  -28.1094  -36.2638   24.6222 H   0  0  0  0  0  0
  -27.2333  -37.1388   25.8877 H   0  0  0  0  0  0
  -20.9290  -29.8721   21.6878 H   0  0  0  0  0  0
  -26.0153  -38.2848   24.1434 H   0  0  0  0  0  0
  -31.4377  -17.2141   19.0521 H   0  0  0  0  0  0
  -28.7429  -19.3474   21.6962 H   0  0  0  0  0  0
  -33.3334  -19.1517   25.3068 H   0  0  0  0  0  0
  -32.3974  -20.3164   24.3679 H   0  0  0  0  0  0
  -31.0540  -20.1572   26.3658 H   0  0  0  0  0  0
  -31.4222  -18.4572   26.5319 H   0  0  0  0  0  0
  -32.2906  -17.2856   24.1722 H   0  0  0  0  0  0
  -32.5508  -18.4330   22.8569 H   0  0  0  0  0  0
  -32.2979  -18.4714   17.1330 H   0  0  0  0  0  0
  -31.7530  -20.1104   16.7972 H   0  0  0  0  0  0
  -30.7685  -18.7328   16.2904 H   0  0  0  0  0  0
  -28.7135  -20.4884   25.6036 H   0  0  0  0  0  0
  -28.2427  -19.8377   24.0464 H   0  0  0  0  0  0
  -29.6625  -20.8756   24.1800 H   0  0  0  0  0  0
  -28.8543  -18.1717   26.6804 H   0  0  0  0  0  0
  -29.7140  -16.8709   25.8828 H   0  0  0  0  0  0
  -28.2252  -17.5214   25.1857 H   0  0  0  0  0  0
  -27.1768  -23.8541   19.6992 H   0  0  0  0  0  0
  -28.7169  -24.1432   18.9444 H   0  0  0  0  0  0
  -28.5295  -22.6249   21.6094 H   0  0  0  0  0  0
  -29.9189  -22.7309   20.5577 H   0  0  0  0  0  0
  -30.1192  -16.2835   23.5894 H   0  0  0  0  0  0
  -28.8361  -17.2978   22.9727 H   0  0  0  0  0  0
  -29.3617  -25.2590   21.2607 H   0  0  0  0  0  0
  -27.6602  -25.3018   21.5717 H   0  0  0  0  0  0
  -31.4791  -16.8337   21.5718 H   0  0  0  0  0  0
  -28.0442  -21.6278   18.9857 H   0  0  0  0  0  0
  -28.9532  -15.3748   21.2479 H   0  0  0  0  0  0
  -30.4014  -19.1225   22.9886 H   0  0  0  0  0  0
  1 25  1  0  0  0
  1 30  2  0  0  0
  1 90  1  0  0  0
  2  3  1  0  0  0
  2 25  1  0  0  0
  2 92  1  0  0  0
  2 93  1  0  0  0
  3  4  1  0  0  0
  3 94  1  0  0  0
  3 95  1  0  0  0
  4  5  1  0  0  0
  4 96  1  0  0  0
  4 97  1  0  0  0
  5  6  1  0  0  0
  5 26  1  0  0  0
  5 98  1  0  0  0
  6 25  1  0  0  0
  6 99  1  0  0  0
  6100  1  0  0  0
  7  8  2  0  0  0
  7 26  1  0  0  0
  7 29  1  0  0  0
  8  9  1  0  0  0
  8 22  1  0  0  0
  9 10  1  0  0  0
  9 27  2  0  0  0
 10 11  2  0  0  0
 10 15  1  0  0  0
 11 12  1  0  0  0
 11101  1  0  0  0
 12 13  2  0  0  0
 12102  1  0  0  0
 13 14  1  0  0  0
 13 31  1  0  0  0
 14 15  2  0  0  0
 14103  1  0  0  0
 15104  1  0  0  0
 16 17  2  0  0  0
 16 21  1  0  0  0
 16 31  1  0  0  0
 17 18  1  0  0  0
 17105  1  0  0  0
 18 19  2  0  0  0
 18106  1  0  0  0
 19 20  1  0  0  0
 19 24  1  0  0  0
 20 21  2  0  0  0
 20107  1  0  0  0
 21 23  1  0  0  0
 22 28  1  0  0  0
 22 32  2  0  0  0
 26 27  1  0  0  0
 28108  1  0  0  0
 28109  1  0  0  0
 29110  1  0  0  0
 29111  1  0  0  0
 33 34  1  0  0  0
 33 66  1  0  0  0
 33 70  2  0  0  0
 34 36  1  0  0  0
 34 59  1  0  0  0
 34112  1  0  0  0
 35 44  2  0  0  0
 35 45  1  0  0  0
 35 68  1  0  0  0
 36 56  1  0  0  0
 36113  1  0  0  0
 37 39  1  0  0  0
 37 47  1  0  0  0
 37 66  1  0  0  0
 37114  1  0  0  0
 38 43  2  0  0  0
 38 46  1  0  0  0
 38 47  1  0  0  0
 39 64  1  0  0  0
 39 67  2  0  0  0
 40 52  1  0  0  0
 40 53  2  0  0  0
 40 58  1  0  0  0
 41115  1  0  0  0
 41116  1  0  0  0
 41117  1  0  0  0
 41 48  1  0  0  0
 42 43  1  0  0  0
 42 66  1  0  0  0
 42118  1  0  0  0
 42119  1  0  0  0
 43 44  1  0  0  0
 44120  1  0  0  0
 45 46  2  0  0  0
 45121  1  0  0  0
 46122  1  0  0  0
 47123  1  0  0  0
 47124  1  0  0  0
 48 56  1  0  0  0
 48 65  1  0  0  0
 48125  1  0  0  0
 49 50  1  0  0  0
 49 53  1  0  0  0
 49 64  1  0  0  0
 49126  1  0  0  0
 50 51  1  0  0  0
 50127  1  0  0  0
 50128  1  0  0  0
 51 52  1  0  0  0
 51129  1  0  0  0
 51130  1  0  0  0
 52131  1  0  0  0
 52132  1  0  0  0
 53 54  1  0  0  0
 54 55  2  0  0  0
 54133  1  0  0  0
 55 57  1  0  0  0
 55134  1  0  0  0
 56 69  2  0  0  0
 57 58  2  0  0  0
 57135  1  0  0  0
 58136  1  0  0  0
 59 60  1  0  0  0
 59 61  1  0  0  0
 59 62  1  0  0  0
 60137  1  0  0  0
 60138  1  0  0  0
 60139  1  0  0  0
 61140  1  0  0  0
 61141  1  0  0  0
 61142  1  0  0  0
 62143  1  0  0  0
 62144  1  0  0  0
 62145  1  0  0  0
 63 65  1  0  0  0
 63146  1  0  0  0
 63147  1  0  0  0
 63148  1  0  0  0
 64149  1  0  0  0
 65150  1  0  0  0
 68 86  1  0  0  0
 71 73  2  0  0  0
 71 74  1  0  0  0
 71151  1  0  0  0
 72 73  1  0  0  0
 72 75  2  0  0  0
 72152  1  0  0  0
 73 87  1  0  0  0
 74 80  1  0  0  0
 74 88  2  0  0  0
 75 88  1  0  0  0
 75 89  1  0  0  0
 76 77  1  0  0  0
 76 78  1  0  0  0
 76153  1  0  0  0
 76154  1  0  0  0
 77 79  1  0  0  0
 77155  1  0  0  0
 77156  1  0  0  0
 78 91  1  0  0  0
 78157  1  0  0  0
 78158  1  0  0  0
 79 81  1  0  0  0
 79 82  1  0  0  0
 79 91  1  0  0  0
 80159  1  0  0  0
 80160  1  0  0  0
 80161  1  0  0  0
 81162  1  0  0  0
 81163  1  0  0  0
 81164  1  0  0  0
 82165  1  0  0  0
 82166  1  0  0  0
 82167  1  0  0  0
 83 84  1  0  0  0
 83 86  1  0  0  0
 83168  1  0  0  0
 83169  1  0  0  0
 84 89  1  0  0  0
 84170  1  0  0  0
 84171  1  0  0  0
 85172  1  0  0  0
 85173  1  0  0  0
 85 87  1  0  0  0
 85 91  1  0  0  0
 86174  1  0  0  0
 86175  1  0  0  0
 87 90  1  0  0  0
 87176  1  0  0  0
 89177  1  0  0  0
 90178  1  0  0  0
 91179  1  0  0  0
M  CHG  1  91   1
M  ISO  4   1 100  68 101  86 101  90 100
M  END
> <chiral flag>
0

> <version>
0

> <s_m_source_file>
/data/baiqing/PycharmProjects/Reinvent-master-3.2/result/LINK_invent/BTK/process_docking_weight1_custom_sum_contain_oxygen_bond_distance_aromatic_linkinvent_7_9_3/rearranged_h_0135.sdf

> <i_m_source_file_index>
13

> <r_mmod_Potential_Energy-OPLS-2005>
-364.669830322266

> <r_mmod_Stretch_Energy-OPLS-2005>
58.0033416748047

> <r_mmod_Bend_Energy-OPLS-2005>
158.147277832031

> <r_mmod_Torsional_Energy-OPLS-2005>
324.385589599609

> <r_mmod_Improper_Torsional_Energy-OPLS-2005>
8.94462871551514

> <r_mmod_Van_der_Waal_Energy-OPLS-2005>
135.42546081543

> <r_mmod_Electrostatic_Energy-OPLS-2005>
-626.387512207031

> <r_mmod_Solvation_Energy-OPLS-2005>
-448.431854248047

> <b_mmod_Minimization_Converged-OPLS-2005>
0

> <r_mmod_RMS_Derivative-OPLS-2005>
3.10214495658875

$$$$
13
                    3D
 Structure written by MMmdl.
165174  0  0  1  0            999 V2000
  -30.7079  -14.5731   20.5162 C   0  0  0  0  0  0
  -30.4234  -12.3639   19.4330 C   0  0  0  0  0  0
  -29.4898  -12.4809   18.2113 C   0  0  0  0  0  0
  -28.0196  -12.2969   18.6361 C   0  0  0  0  0  0
  -27.6378  -13.1803   19.8496 C   0  0  2  0  0  0
  -28.6954  -13.0942   20.9771 C   0  0  0  0  0  0
  -25.2534  -13.8047   20.5693 C   0  0  0  0  0  0
  -24.1786  -13.0370   20.9232 C   0  0  0  0  0  0
  -24.6323  -11.6836   20.8794 C   0  0  0  0  0  0
  -23.8993  -10.4250   21.0448 C   0  0  0  0  0  0
  -24.3573   -9.4172   21.9211 C   0  0  0  0  0  0
  -23.6267   -8.2201   22.0760 C   0  0  0  0  0  0
  -22.4251   -8.0245   21.3544 C   0  0  0  0  0  0
  -21.9873   -9.0215   20.4649 C   0  0  0  0  0  0
  -22.7184  -10.2102   20.3075 C   0  0  0  0  0  0
  -21.6839   -6.0718   22.5283 C   0  0  0  0  0  0
  -21.3999   -6.5630   23.8214 C   0  0  0  0  0  0
  -21.3656   -5.6785   24.9179 C   0  0  0  0  0  0
  -21.6045   -4.3046   24.7231 C   0  0  0  0  0  0
  -21.8822   -3.8135   23.4352 C   0  0  0  0  0  0
  -21.9191   -4.6950   22.3409 C   0  0  0  0  0  0
  -22.7822  -13.5211   21.1875 C   0  0  0  0  0  0
  -22.1663   -4.2139   21.0985 F   0  0  0  0  0  0
  -21.5639   -3.4530   25.7744 F   0  0  0  0  0  0
  -30.0133  -13.4000   20.3967 N   0  0  0  0  0  0
  -26.2906  -12.9142   20.3321 N   0  0  0  0  0  0
  -25.9231  -11.6349   20.5811 N   0  0  0  0  0  0
  -22.0442  -12.8225   22.0423 N   0  0  0  0  0  0
  -25.4233  -15.1760   20.4048 N   0  0  0  0  0  0
  -31.8941  -14.6614   20.1891 O   0  0  0  0  0  0
  -21.6620   -6.8847   21.4238 O   0  0  0  0  0  0
  -22.3541  -14.5529   20.6716 O   0  0  0  0  0  0
  -24.6161  -31.8656   23.2074 C   0  0  0  0  0  0
  -25.9048  -32.4808   23.8375 C   0  0  1  0  0  0
  -27.2368  -27.3964   20.1194 C   0  0  0  0  0  0
  -25.5900  -33.8610   24.2308 N   0  0  0  0  0  0
  -23.4057  -30.4871   21.5478 C   0  0  2  0  0  0
  -24.8530  -28.9409   20.1196 C   0  0  0  0  0  0
  -22.7413  -29.4653   22.4982 C   0  0  0  0  0  0
  -18.0270  -28.1383   22.8492 C   0  0  0  0  0  0
  -24.1483  -36.7311   23.2635 C   0  0  0  0  0  0
  -25.9358  -30.8178   21.3669 C   0  0  0  0  0  0
  -26.0108  -29.4450   20.7246 C   0  0  0  0  0  0
  -27.2019  -28.6796   20.7234 C   0  0  0  0  0  0
  -26.0643  -26.9199   19.4930 C   0  0  0  0  0  0
  -24.8751  -27.6774   19.5019 C   0  0  0  0  0  0
  -23.6170  -29.8137   20.1643 C   0  0  0  0  0  0
  -25.4104  -36.3106   24.0337 C   0  0  1  0  0  0
  -20.5861  -28.3673   23.1317 C   0  0  2  0  0  0
  -20.6764  -26.9408   22.5423 C   0  0  0  0  0  0
  -19.5745  -26.6390   21.5217 C   0  0  0  0  0  0
  -18.1920  -26.7930   22.1622 C   0  0  0  0  0  0
  -19.1521  -28.8843   23.2902 C   0  0  0  0  0  0
  -18.9447  -30.1447   23.8915 C   0  0  0  0  0  0
  -17.6451  -30.6590   24.0566 C   0  0  0  0  0  0
  -25.9041  -34.9473   23.5124 C   0  0  0  0  0  0
  -16.5341  -29.9094   23.6326 C   0  0  0  0  0  0
  -16.7258  -28.6510   23.0347 C   0  0  0  0  0  0
  -26.4472  -31.6597   25.0714 C   0  0  0  0  0  0
  -25.3734  -31.3712   26.1462 C   0  0  0  0  0  0
  -27.0304  -30.3032   24.6112 C   0  0  0  0  0  0
  -27.6045  -32.4325   25.7473 C   0  0  0  0  0  0
  -27.5592  -37.1791   24.8450 C   0  0  0  0  0  0
  -21.4140  -29.3034   22.3716 N   0  0  0  0  0  0
  -26.4280  -37.3804   23.9431 N   0  0  0  0  0  0
  -24.6705  -31.0732   22.0987 N   0  0  0  0  0  0
  -23.4171  -28.8210   23.3047 O   0  0  0  0  0  0
  -28.4327  -26.6962   20.0560 O   0  0  0  0  0  0
  -26.5610  -34.8931   22.4689 O   0  0  0  0  0  0
  -23.5350  -32.1424   23.7455 O   0  0  0  0  0  0
  -29.8820  -24.7732   20.1530 C   0  0  0  0  0  0
  -30.1232  -23.4196   20.4812 C   0  0  0  0  0  0
  -29.0585  -22.6269   20.9873 C   0  0  0  0  0  0
  -27.7987  -23.2839   21.1228 C   0  0  0  0  0  0
  -28.6094  -25.3407   20.3425 C   0  0  0  0  0  0
  -30.6338  -18.1292   21.5433 C   0  0  0  0  0  0
  -29.1459  -17.7578   19.6343 C   0  0  0  0  0  0
  -30.5203  -16.6212   21.9433 C   0  0  0  0  0  0
  -28.9756  -16.2711   20.0214 C   0  0  0  0  0  0
  -29.3678  -18.6788   20.8435 C   0  0  0  0  0  0
  -31.5262  -22.8626   20.3038 C   0  0  0  0  0  0
  -26.5718  -22.5657   21.6553 C   0  0  0  0  0  0
  -29.2950  -21.1611   21.4769 C   0  0  0  0  0  0
  -27.5863  -24.5936   20.8185 N   0  0  0  0  0  0
  -30.0212  -15.6977   20.8942 N   0  0  0  0  0  0
  -29.4421  -20.1185   20.4153 N   0  3  0  0  0  0
  -31.4638  -12.4701   19.1207 H   0  0  0  0  0  0
  -30.3469  -11.3749   19.8873 H   0  0  0  0  0  0
  -29.7574  -11.7353   17.4612 H   0  0  0  0  0  0
  -29.6189  -13.4542   17.7348 H   0  0  0  0  0  0
  -27.8771  -11.2454   18.8884 H   0  0  0  0  0  0
  -27.3544  -12.5005   17.7960 H   0  0  0  0  0  0
  -27.6038  -14.1832   19.4525 H   0  0  0  0  0  0
  -28.7079  -12.0957   21.4161 H   0  0  0  0  0  0
  -28.4476  -13.7787   21.7902 H   0  0  0  0  0  0
  -25.2718   -9.5658   22.4786 H   0  0  0  0  0  0
  -23.9987   -7.4583   22.7464 H   0  0  0  0  0  0
  -21.0809   -8.8718   19.8951 H   0  0  0  0  0  0
  -22.3638  -10.9644   19.6189 H   0  0  0  0  0  0
  -21.1977   -7.6137   23.9714 H   0  0  0  0  0  0
  -21.1481   -6.0515   25.9083 H   0  0  0  0  0  0
  -22.0608   -2.7598   23.2852 H   0  0  0  0  0  0
  -22.4029  -11.9879   22.4822 H   0  0  0  0  0  0
  -21.1064  -13.1277   22.2624 H   0  0  0  0  0  0
  -24.6533  -15.8274   20.5091 H   0  0  0  0  0  0
  -26.2667  -15.6100   20.0554 H   0  0  0  0  0  0
  -26.7114  -32.5514   23.1133 H   0  0  0  0  0  0
  -25.0042  -33.9763   25.0447 H   0  0  0  0  0  0
  -22.6961  -31.3050   21.4050 H   0  0  0  0  0  0
  -23.3758  -35.9628   23.3264 H   0  0  0  0  0  0
  -24.3586  -36.8959   22.2057 H   0  0  0  0  0  0
  -23.7210  -37.6496   23.6668 H   0  0  0  0  0  0
  -26.0506  -31.5766   20.5916 H   0  0  0  0  0  0
  -26.8234  -30.8757   21.9851 H   0  0  0  0  0  0
  -28.0995  -29.0725   21.1803 H   0  0  0  0  0  0
  -26.0720  -25.9599   18.9962 H   0  0  0  0  0  0
  -23.9879  -27.2861   19.0231 H   0  0  0  0  0  0
  -23.7292  -30.5859   19.4022 H   0  0  0  0  0  0
  -22.7396  -29.2352   19.8691 H   0  0  0  0  0  0
  -25.1272  -36.1958   25.0826 H   0  0  0  0  0  0
  -20.9954  -28.3241   24.1438 H   0  0  0  0  0  0
  -20.5670  -26.2283   23.3612 H   0  0  0  0  0  0
  -21.6633  -26.7455   22.1211 H   0  0  0  0  0  0
  -19.6909  -25.6302   21.1242 H   0  0  0  0  0  0
  -19.6691  -27.3206   20.6754 H   0  0  0  0  0  0
  -17.4198  -26.6683   21.4015 H   0  0  0  0  0  0
  -18.0312  -26.0066   22.9011 H   0  0  0  0  0  0
  -19.7925  -30.7255   24.2296 H   0  0  0  0  0  0
  -17.5009  -31.6271   24.5165 H   0  0  0  0  0  0
  -15.5341  -30.3003   23.7646 H   0  0  0  0  0  0
  -15.8656  -28.0841   22.7051 H   0  0  0  0  0  0
  -24.5901  -30.7066   25.7797 H   0  0  0  0  0  0
  -24.8934  -32.2873   26.4916 H   0  0  0  0  0  0
  -25.8085  -30.8873   27.0215 H   0  0  0  0  0  0
  -26.2849  -29.6790   24.1170 H   0  0  0  0  0  0
  -27.4060  -29.7276   25.4583 H   0  0  0  0  0  0
  -27.8692  -30.4336   23.9271 H   0  0  0  0  0  0
  -27.2654  -33.3612   26.2077 H   0  0  0  0  0  0
  -28.3834  -32.6911   25.0286 H   0  0  0  0  0  0
  -28.0737  -31.8437   26.5365 H   0  0  0  0  0  0
  -28.2557  -38.0143   24.7590 H   0  0  0  0  0  0
  -28.1141  -36.2683   24.6148 H   0  0  0  0  0  0
  -27.2333  -37.1280   25.8853 H   0  0  0  0  0  0
  -20.9308  -29.8738   21.6921 H   0  0  0  0  0  0
  -26.0166  -38.2868   24.1488 H   0  0  0  0  0  0
  -30.6803  -25.3966   19.7743 H   0  0  0  0  0  0
  -31.4974  -18.2551   20.8886 H   0  0  0  0  0  0
  -30.8489  -18.7151   22.4376 H   0  0  0  0  0  0
  -28.2616  -18.0751   19.0797 H   0  0  0  0  0  0
  -29.9841  -17.8497   18.9411 H   0  0  0  0  0  0
  -29.8348  -16.5328   22.7872 H   0  0  0  0  0  0
  -31.4870  -16.2804   22.3199 H   0  0  0  0  0  0
  -28.9359  -15.7263   19.0779 H   0  0  0  0  0  0
  -28.0201  -16.1426   20.5281 H   0  0  0  0  0  0
  -28.5135  -18.5707   21.5142 H   0  0  0  0  0  0
  -32.2156  -23.6306   19.9524 H   0  0  0  0  0  0
  -31.5360  -22.0573   19.5701 H   0  0  0  0  0  0
  -31.9186  -22.4838   21.2473 H   0  0  0  0  0  0
  -26.4147  -21.6225   21.1325 H   0  0  0  0  0  0
  -25.6697  -23.1645   21.5242 H   0  0  0  0  0  0
  -26.6814  -22.3620   22.7203 H   0  0  0  0  0  0
  -28.4871  -20.8638   22.1442 H   0  0  0  0  0  0
  -30.1859  -21.1422   22.1047 H   0  0  0  0  0  0
  -28.6849  -20.2641   19.7680 H   0  0  0  0  0  0
  -30.2961  -20.2675   19.9044 H   0  0  0  0  0  0
  1 25  1  0  0  0
  1 30  2  0  0  0
  1 85  1  0  0  0
  2  3  1  0  0  0
  2 25  1  0  0  0
  2 87  1  0  0  0
  2 88  1  0  0  0
  3  4  1  0  0  0
  3 89  1  0  0  0
  3 90  1  0  0  0
  4  5  1  0  0  0
  4 91  1  0  0  0
  4 92  1  0  0  0
  5  6  1  0  0  0
  5 26  1  0  0  0
  5 93  1  0  0  0
  6 25  1  0  0  0
  6 94  1  0  0  0
  6 95  1  0  0  0
  7  8  2  0  0  0
  7 26  1  0  0  0
  7 29  1  0  0  0
  8  9  1  0  0  0
  8 22  1  0  0  0
  9 10  1  0  0  0
  9 27  2  0  0  0
 10 11  2  0  0  0
 10 15  1  0  0  0
 11 12  1  0  0  0
 11 96  1  0  0  0
 12 13  2  0  0  0
 12 97  1  0  0  0
 13 14  1  0  0  0
 13 31  1  0  0  0
 14 15  2  0  0  0
 14 98  1  0  0  0
 15 99  1  0  0  0
 16 17  2  0  0  0
 16 21  1  0  0  0
 16 31  1  0  0  0
 17 18  1  0  0  0
 17100  1  0  0  0
 18 19  2  0  0  0
 18101  1  0  0  0
 19 20  1  0  0  0
 19 24  1  0  0  0
 20 21  2  0  0  0
 20102  1  0  0  0
 21 23  1  0  0  0
 22 28  1  0  0  0
 22 32  2  0  0  0
 26 27  1  0  0  0
 28103  1  0  0  0
 28104  1  0  0  0
 29105  1  0  0  0
 29106  1  0  0  0
 33 34  1  0  0  0
 33 66  1  0  0  0
 33 70  2  0  0  0
 34 36  1  0  0  0
 34 59  1  0  0  0
 34107  1  0  0  0
 35 44  2  0  0  0
 35 45  1  0  0  0
 35 68  1  0  0  0
 36 56  1  0  0  0
 36108  1  0  0  0
 37 39  1  0  0  0
 37 47  1  0  0  0
 37 66  1  0  0  0
 37109  1  0  0  0
 38 43  2  0  0  0
 38 46  1  0  0  0
 38 47  1  0  0  0
 39 64  1  0  0  0
 39 67  2  0  0  0
 40 52  1  0  0  0
 40 53  2  0  0  0
 40 58  1  0  0  0
 41110  1  0  0  0
 41111  1  0  0  0
 41112  1  0  0  0
 41 48  1  0  0  0
 42 43  1  0  0  0
 42 66  1  0  0  0
 42113  1  0  0  0
 42114  1  0  0  0
 43 44  1  0  0  0
 44115  1  0  0  0
 45 46  2  0  0  0
 45116  1  0  0  0
 46117  1  0  0  0
 47118  1  0  0  0
 47119  1  0  0  0
 48 56  1  0  0  0
 48 65  1  0  0  0
 48120  1  0  0  0
 49 50  1  0  0  0
 49 53  1  0  0  0
 49 64  1  0  0  0
 49121  1  0  0  0
 50 51  1  0  0  0
 50122  1  0  0  0
 50123  1  0  0  0
 51 52  1  0  0  0
 51124  1  0  0  0
 51125  1  0  0  0
 52126  1  0  0  0
 52127  1  0  0  0
 53 54  1  0  0  0
 54 55  2  0  0  0
 54128  1  0  0  0
 55 57  1  0  0  0
 55129  1  0  0  0
 56 69  2  0  0  0
 57 58  2  0  0  0
 57130  1  0  0  0
 58131  1  0  0  0
 59 60  1  0  0  0
 59 61  1  0  0  0
 59 62  1  0  0  0
 60132  1  0  0  0
 60133  1  0  0  0
 60134  1  0  0  0
 61135  1  0  0  0
 61136  1  0  0  0
 61137  1  0  0  0
 62138  1  0  0  0
 62139  1  0  0  0
 62140  1  0  0  0
 63 65  1  0  0  0
 63141  1  0  0  0
 63142  1  0  0  0
 63143  1  0  0  0
 64144  1  0  0  0
 65145  1  0  0  0
 68 75  1  0  0  0
 71 72  2  0  0  0
 71 75  1  0  0  0
 71146  1  0  0  0
 72 73  1  0  0  0
 72 81  1  0  0  0
 73 74  2  0  0  0
 73 83  1  0  0  0
 74 82  1  0  0  0
 74 84  1  0  0  0
 75 84  2  0  0  0
 76 78  1  0  0  0
 76 80  1  0  0  0
 76147  1  0  0  0
 76148  1  0  0  0
 77 79  1  0  0  0
 77 80  1  0  0  0
 77149  1  0  0  0
 77150  1  0  0  0
 78 85  1  0  0  0
 78151  1  0  0  0
 78152  1  0  0  0
 79 85  1  0  0  0
 79153  1  0  0  0
 79154  1  0  0  0
 80 86  1  0  0  0
 80155  1  0  0  0
 81156  1  0  0  0
 81157  1  0  0  0
 81158  1  0  0  0
 82159  1  0  0  0
 82160  1  0  0  0
 82161  1  0  0  0
 83 86  1  0  0  0
 83162  1  0  0  0
 83163  1  0  0  0
 86164  1  0  0  0
 86165  1  0  0  0
M  CHG  1  86   1
M  ISO  4   1 100  68 101  75 101  85 100
M  END
> <chiral flag>
0

> <version>
0

> <s_m_source_file>
/data/baiqing/PycharmProjects/Reinvent-master-3.2/result/LINK_invent/BTK/process_docking_weight1_custom_sum_contain_oxygen_bond_distance_aromatic_linkinvent_7_9_3/rearranged_h_0135.sdf

> <i_m_source_file_index>
14

> <r_mmod_Potential_Energy-OPLS-2005>
-36.8230667114258

> <r_mmod_Stretch_Energy-OPLS-2005>
51.9465522766113

> <r_mmod_Bend_Energy-OPLS-2005>
129.376205444336

> <r_mmod_Torsional_Energy-OPLS-2005>
320.174285888672

> <r_mmod_Improper_Torsional_Energy-OPLS-2005>
4.10741233825684

> <r_mmod_Van_der_Waal_Energy-OPLS-2005>
152.74951171875

> <r_mmod_Electrostatic_Energy-OPLS-2005>
-258.856506347656

> <r_mmod_Solvation_Energy-OPLS-2005>
-465.275024414062

> <b_mmod_Minimization_Converged-OPLS-2005>
0

> <r_mmod_RMS_Derivative-OPLS-2005>
0.662759304046631

$$$$
14
                    3D
 Structure written by MMmdl.
169178  0  0  1  0            999 V2000
  -30.6969  -14.5972   20.5225 C   0  0  0  0  0  0
  -30.4180  -12.3762   19.4527 C   0  0  0  0  0  0
  -29.4985  -12.4990   18.2210 C   0  0  0  0  0  0
  -28.0242  -12.3450   18.6333 C   0  0  0  0  0  0
  -27.6489  -13.2238   19.8571 C   0  0  2  0  0  0
  -28.6916  -13.1094   20.9897 C   0  0  0  0  0  0
  -25.2534  -13.8179   20.5660 C   0  0  0  0  0  0
  -24.1816  -13.0439   20.9187 C   0  0  0  0  0  0
  -24.6398  -11.6917   20.8749 C   0  0  0  0  0  0
  -23.9083  -10.4290   21.0417 C   0  0  0  0  0  0
  -24.3638   -9.4209   21.9198 C   0  0  0  0  0  0
  -23.6316   -8.2246   22.0759 C   0  0  0  0  0  0
  -22.4296   -8.0292   21.3550 C   0  0  0  0  0  0
  -21.9943   -9.0253   20.4638 C   0  0  0  0  0  0
  -22.7266  -10.2133   20.3060 C   0  0  0  0  0  0
  -21.6851   -6.0756   22.5281 C   0  0  0  0  0  0
  -21.4010   -6.5654   23.8220 C   0  0  0  0  0  0
  -21.3658   -5.6800   24.9182 C   0  0  0  0  0  0
  -21.6047   -4.3067   24.7223 C   0  0  0  0  0  0
  -21.8823   -3.8164   23.4337 C   0  0  0  0  0  0
  -21.9193   -4.6980   22.3395 C   0  0  0  0  0  0
  -22.7838  -13.5221   21.1855 C   0  0  0  0  0  0
  -22.1661   -4.2165   21.0973 F   0  0  0  0  0  0
  -21.5637   -3.4554   25.7741 F   0  0  0  0  0  0
  -30.0089  -13.4182   20.4158 N   0  0  0  0  0  0
  -26.2969  -12.9382   20.3300 N   0  0  0  0  0  0
  -25.9326  -11.6532   20.5773 N   0  0  0  0  0  0
  -22.0473  -12.8205   22.0399 N   0  0  0  0  0  0
  -25.4221  -15.1898   20.4038 N   0  0  0  0  0  0
  -31.8657  -14.6888   20.1421 O   0  0  0  0  0  0
  -21.6649   -6.8904   21.4246 O   0  0  0  0  0  0
  -22.3527  -14.5539   20.6725 O   0  0  0  0  0  0
  -24.6257  -31.8632   23.2122 C   0  0  0  0  0  0
  -25.9115  -32.4802   23.8429 C   0  0  1  0  0  0
  -27.2087  -27.3273   20.0903 C   0  0  0  0  0  0
  -25.5948  -33.8608   24.2335 N   0  0  0  0  0  0
  -23.4183  -30.4947   21.5549 C   0  0  2  0  0  0
  -24.8622  -28.9690   20.1082 C   0  0  0  0  0  0
  -22.7461  -29.4655   22.4960 C   0  0  0  0  0  0
  -18.0280  -28.1386   22.8511 C   0  0  0  0  0  0
  -24.1483  -36.7287   23.2646 C   0  0  0  0  0  0
  -25.9654  -30.7884   21.3961 C   0  0  0  0  0  0
  -26.0343  -29.4241   20.7257 C   0  0  0  0  0  0
  -27.2086  -28.6108   20.7217 C   0  0  0  0  0  0
  -26.0191  -26.9613   19.4076 C   0  0  0  0  0  0
  -24.8558  -27.7401   19.4462 C   0  0  0  0  0  0
  -23.6323  -29.8464   20.1655 C   0  0  0  0  0  0
  -25.4114  -36.3097   24.0340 C   0  0  1  0  0  0
  -20.5883  -28.3700   23.1281 C   0  0  2  0  0  0
  -20.6767  -26.9429   22.5411 C   0  0  0  0  0  0
  -19.5735  -26.6387   21.5220 C   0  0  0  0  0  0
  -18.1914  -26.7940   22.1625 C   0  0  0  0  0  0
  -19.1535  -28.8860   23.2888 C   0  0  0  0  0  0
  -18.9457  -30.1468   23.8900 C   0  0  0  0  0  0
  -17.6456  -30.6607   24.0565 C   0  0  0  0  0  0
  -25.9051  -34.9458   23.5123 C   0  0  0  0  0  0
  -16.5343  -29.9099   23.6351 C   0  0  0  0  0  0
  -16.7267  -28.6510   23.0388 C   0  0  0  0  0  0
  -26.4510  -31.6619   25.0800 C   0  0  0  0  0  0
  -25.3750  -31.3719   26.1520 C   0  0  0  0  0  0
  -27.0418  -30.3057   24.6300 C   0  0  0  0  0  0
  -27.6055  -32.4392   25.7561 C   0  0  0  0  0  0
  -27.5592  -37.1788   24.8467 C   0  0  0  0  0  0
  -21.4181  -29.3059   22.3680 N   0  0  0  0  0  0
  -26.4291  -37.3794   23.9431 N   0  0  0  0  0  0
  -24.6876  -31.0643   22.1093 N   0  0  0  0  0  0
  -23.4190  -28.8173   23.3015 O   0  0  0  0  0  0
  -28.2906  -26.4261   20.1712 O   0  0  0  0  0  0
  -26.5593  -34.8911   22.4674 O   0  0  0  0  0  0
  -23.5420  -32.1452   23.7425 O   0  0  0  0  0  0
  -30.4467  -21.9906   19.8508 C   0  0  0  0  0  0
  -28.6467  -21.5723   21.4000 C   0  0  0  0  0  0
  -29.9373  -23.2975   19.5921 C   0  0  0  0  0  0
  -28.1448  -22.8811   21.1491 C   0  0  0  0  0  0
  -29.8099  -21.0912   20.7493 C   0  0  0  0  0  0
  -28.7671  -23.7731   20.2316 C   0  0  0  0  0  0
  -31.8000  -18.4718   22.9137 C   0  0  0  0  0  0
  -31.0608  -17.1605   22.6060 C   0  0  0  0  0  0
  -29.7416  -18.3613   20.7896 C   0  0  0  0  0  0
  -30.4807  -19.7261   21.1365 C   0  0  2  0  0  0
  -30.9324  -19.7214   22.6296 C   0  0  2  0  0  0
  -30.6086  -17.0771   21.1383 C   0  0  2  0  0  0
  -32.4123  -22.4227   24.9571 C   0  0  0  0  0  0
  -28.0023  -25.0413   19.7346 C   0  0  0  0  0  0
  -31.6769  -21.0191   23.0555 C   0  0  0  0  0  0
  -30.0116  -15.7167   20.9047 N   0  0  0  0  0  0
  -31.8316  -21.1375   24.5212 N   0  3  0  0  0  0
  -31.4620  -12.4693   19.1495 H   0  0  0  0  0  0
  -30.3265  -11.3899   19.9098 H   0  0  0  0  0  0
  -29.7551  -11.7434   17.4777 H   0  0  0  0  0  0
  -29.6486  -13.4679   17.7414 H   0  0  0  0  0  0
  -27.8608  -11.2923   18.8691 H   0  0  0  0  0  0
  -27.3710  -12.5734   17.7908 H   0  0  0  0  0  0
  -27.6598  -14.2553   19.5051 H   0  0  0  0  0  0
  -28.6956  -12.1064   21.4162 H   0  0  0  0  0  0
  -28.4426  -13.7859   21.8070 H   0  0  0  0  0  0
  -25.2780   -9.5681   22.4781 H   0  0  0  0  0  0
  -24.0019   -7.4635   22.7484 H   0  0  0  0  0  0
  -21.0890   -8.8776   19.8928 H   0  0  0  0  0  0
  -22.3737  -10.9686   19.6174 H   0  0  0  0  0  0
  -21.2002   -7.6162   23.9724 H   0  0  0  0  0  0
  -21.1474   -6.0536   25.9082 H   0  0  0  0  0  0
  -22.0600   -2.7622   23.2841 H   0  0  0  0  0  0
  -22.4129  -11.9873   22.4781 H   0  0  0  0  0  0
  -21.1078  -13.1200   22.2598 H   0  0  0  0  0  0
  -24.6558  -15.8453   20.5127 H   0  0  0  0  0  0
  -26.2728  -15.6281   20.0744 H   0  0  0  0  0  0
  -26.7189  -32.5460   23.1179 H   0  0  0  0  0  0
  -25.0118  -33.9775   25.0494 H   0  0  0  0  0  0
  -22.7128  -31.3167   21.4190 H   0  0  0  0  0  0
  -23.3781  -35.9585   23.3289 H   0  0  0  0  0  0
  -24.3558  -36.8932   22.2068 H   0  0  0  0  0  0
  -23.7199  -37.6461   23.6684 H   0  0  0  0  0  0
  -26.1136  -31.5601   20.6389 H   0  0  0  0  0  0
  -26.8383  -30.8186   22.0375 H   0  0  0  0  0  0
  -28.0985  -28.9431   21.2381 H   0  0  0  0  0  0
  -25.9270  -26.0559   18.8270 H   0  0  0  0  0  0
  -23.9627  -27.3976   18.9414 H   0  0  0  0  0  0
  -23.7534  -30.6313   19.4180 H   0  0  0  0  0  0
  -22.7517  -29.2802   19.8571 H   0  0  0  0  0  0
  -25.1288  -36.1958   25.0833 H   0  0  0  0  0  0
  -20.9967  -28.3284   24.1400 H   0  0  0  0  0  0
  -20.5700  -26.2305   23.3607 H   0  0  0  0  0  0
  -21.6628  -26.7466   22.1185 H   0  0  0  0  0  0
  -19.6883  -25.6301   21.1249 H   0  0  0  0  0  0
  -19.6662  -27.3192   20.6748 H   0  0  0  0  0  0
  -17.4186  -26.6739   21.4017 H   0  0  0  0  0  0
  -18.0276  -26.0070   22.8998 H   0  0  0  0  0  0
  -19.7931  -30.7286   24.2274 H   0  0  0  0  0  0
  -17.5012  -31.6288   24.5169 H   0  0  0  0  0  0
  -15.5348  -30.2995   23.7683 H   0  0  0  0  0  0
  -15.8671  -28.0815   22.7125 H   0  0  0  0  0  0
  -24.5912  -30.7095   25.7824 H   0  0  0  0  0  0
  -24.8957  -32.2870   26.5015 H   0  0  0  0  0  0
  -25.8075  -30.8837   27.0265 H   0  0  0  0  0  0
  -26.3039  -29.6755   24.1328 H   0  0  0  0  0  0
  -27.4131  -29.7365   25.4834 H   0  0  0  0  0  0
  -27.8886  -30.4378   23.9560 H   0  0  0  0  0  0
  -27.2657  -33.3705   26.2117 H   0  0  0  0  0  0
  -28.3858  -32.6956   25.0376 H   0  0  0  0  0  0
  -28.0747  -31.8555   26.5497 H   0  0  0  0  0  0
  -28.2573  -38.0126   24.7599 H   0  0  0  0  0  0
  -28.1134  -36.2661   24.6211 H   0  0  0  0  0  0
  -27.2302  -37.1340   25.8863 H   0  0  0  0  0  0
  -20.9354  -29.8809   21.6919 H   0  0  0  0  0  0
  -26.0182  -38.2862   24.1474 H   0  0  0  0  0  0
  -31.3517  -21.6856   19.3445 H   0  0  0  0  0  0
  -28.1317  -20.9412   22.1116 H   0  0  0  0  0  0
  -30.4290  -23.9211   18.8580 H   0  0  0  0  0  0
  -27.2287  -23.1801   21.6391 H   0  0  0  0  0  0
  -32.7196  -18.5158   22.3268 H   0  0  0  0  0  0
  -32.1099  -18.4522   23.9590 H   0  0  0  0  0  0
  -30.1985  -17.0661   23.2653 H   0  0  0  0  0  0
  -31.7197  -16.3223   22.8399 H   0  0  0  0  0  0
  -29.5002  -18.3486   19.7261 H   0  0  0  0  0  0
  -28.7890  -18.3204   21.3183 H   0  0  0  0  0  0
  -31.3984  -19.7023   20.5458 H   0  0  0  0  0  0
  -30.0266  -19.6516   23.2351 H   0  0  0  0  0  0
  -31.5054  -17.1486   20.5172 H   0  0  0  0  0  0
  -32.4907  -22.4554   26.0437 H   0  0  0  0  0  0
  -31.7904  -23.2613   24.6411 H   0  0  0  0  0  0
  -33.4110  -22.5621   24.5422 H   0  0  0  0  0  0
  -26.9878  -24.7794   20.0306 H   0  0  0  0  0  0
  -28.0238  -25.0253   18.6432 H   0  0  0  0  0  0
  -31.1353  -21.9075   22.7349 H   0  0  0  0  0  0
  -32.6550  -21.0665   22.5742 H   0  0  0  0  0  0
  -29.0328  -15.5960   21.1165 H   0  0  0  0  0  0
  -30.9292  -21.0407   24.9586 H   0  0  0  0  0  0
  -32.4175  -20.3926   24.8613 H   0  0  0  0  0  0
  1 25  1  0  0  0
  1 30  2  0  0  0
  1 86  1  0  0  0
  2  3  1  0  0  0
  2 25  1  0  0  0
  2 88  1  0  0  0
  2 89  1  0  0  0
  3  4  1  0  0  0
  3 90  1  0  0  0
  3 91  1  0  0  0
  4  5  1  0  0  0
  4 92  1  0  0  0
  4 93  1  0  0  0
  5  6  1  0  0  0
  5 26  1  0  0  0
  5 94  1  0  0  0
  6 25  1  0  0  0
  6 95  1  0  0  0
  6 96  1  0  0  0
  7  8  2  0  0  0
  7 26  1  0  0  0
  7 29  1  0  0  0
  8  9  1  0  0  0
  8 22  1  0  0  0
  9 10  1  0  0  0
  9 27  2  0  0  0
 10 11  2  0  0  0
 10 15  1  0  0  0
 11 12  1  0  0  0
 11 97  1  0  0  0
 12 13  2  0  0  0
 12 98  1  0  0  0
 13 14  1  0  0  0
 13 31  1  0  0  0
 14 15  2  0  0  0
 14 99  1  0  0  0
 15100  1  0  0  0
 16 17  2  0  0  0
 16 21  1  0  0  0
 16 31  1  0  0  0
 17 18  1  0  0  0
 17101  1  0  0  0
 18 19  2  0  0  0
 18102  1  0  0  0
 19 20  1  0  0  0
 19 24  1  0  0  0
 20 21  2  0  0  0
 20103  1  0  0  0
 21 23  1  0  0  0
 22 28  1  0  0  0
 22 32  2  0  0  0
 26 27  1  0  0  0
 28104  1  0  0  0
 28105  1  0  0  0
 29106  1  0  0  0
 29107  1  0  0  0
 33 34  1  0  0  0
 33 66  1  0  0  0
 33 70  2  0  0  0
 34 36  1  0  0  0
 34 59  1  0  0  0
 34108  1  0  0  0
 35 44  2  0  0  0
 35 45  1  0  0  0
 35 68  1  0  0  0
 36 56  1  0  0  0
 36109  1  0  0  0
 37 39  1  0  0  0
 37 47  1  0  0  0
 37 66  1  0  0  0
 37110  1  0  0  0
 38 43  2  0  0  0
 38 46  1  0  0  0
 38 47  1  0  0  0
 39 64  1  0  0  0
 39 67  2  0  0  0
 40 52  1  0  0  0
 40 53  2  0  0  0
 40 58  1  0  0  0
 41111  1  0  0  0
 41112  1  0  0  0
 41113  1  0  0  0
 41 48  1  0  0  0
 42 43  1  0  0  0
 42 66  1  0  0  0
 42114  1  0  0  0
 42115  1  0  0  0
 43 44  1  0  0  0
 44116  1  0  0  0
 45 46  2  0  0  0
 45117  1  0  0  0
 46118  1  0  0  0
 47119  1  0  0  0
 47120  1  0  0  0
 48 56  1  0  0  0
 48 65  1  0  0  0
 48121  1  0  0  0
 49 50  1  0  0  0
 49 53  1  0  0  0
 49 64  1  0  0  0
 49122  1  0  0  0
 50 51  1  0  0  0
 50123  1  0  0  0
 50124  1  0  0  0
 51 52  1  0  0  0
 51125  1  0  0  0
 51126  1  0  0  0
 52127  1  0  0  0
 52128  1  0  0  0
 53 54  1  0  0  0
 54 55  2  0  0  0
 54129  1  0  0  0
 55 57  1  0  0  0
 55130  1  0  0  0
 56 69  2  0  0  0
 57 58  2  0  0  0
 57131  1  0  0  0
 58132  1  0  0  0
 59 60  1  0  0  0
 59 61  1  0  0  0
 59 62  1  0  0  0
 60133  1  0  0  0
 60134  1  0  0  0
 60135  1  0  0  0
 61136  1  0  0  0
 61137  1  0  0  0
 61138  1  0  0  0
 62139  1  0  0  0
 62140  1  0  0  0
 62141  1  0  0  0
 63 65  1  0  0  0
 63142  1  0  0  0
 63143  1  0  0  0
 63144  1  0  0  0
 64145  1  0  0  0
 65146  1  0  0  0
 68 84  1  0  0  0
 71 73  2  0  0  0
 71 75  1  0  0  0
 71147  1  0  0  0
 72 74  1  0  0  0
 72 75  2  0  0  0
 72148  1  0  0  0
 73 76  1  0  0  0
 73149  1  0  0  0
 74 76  2  0  0  0
 74150  1  0  0  0
 75 80  1  0  0  0
 76 84  1  0  0  0
 77 78  1  0  0  0
 77 81  1  0  0  0
 77151  1  0  0  0
 77152  1  0  0  0
 78 82  1  0  0  0
 78153  1  0  0  0
 78154  1  0  0  0
 79 80  1  0  0  0
 79 82  1  0  0  0
 79155  1  0  0  0
 79156  1  0  0  0
 80 81  1  0  0  0
 80157  1  0  0  0
 81 85  1  0  0  0
 81158  1  0  0  0
 82 86  1  0  0  0
 82159  1  0  0  0
 83 87  1  0  0  0
 83160  1  0  0  0
 83161  1  0  0  0
 83162  1  0  0  0
 84163  1  0  0  0
 84164  1  0  0  0
 85 87  1  0  0  0
 85165  1  0  0  0
 85166  1  0  0  0
 86167  1  0  0  0
 87168  1  0  0  0
 87169  1  0  0  0
M  CHG  1  87   1
M  ISO  4   1 100  68 101  84 101  86 100
M  END
> <chiral flag>
0

> <version>
0

> <s_m_source_file>
/data/baiqing/PycharmProjects/Reinvent-master-3.2/result/LINK_invent/BTK/process_docking_weight1_custom_sum_contain_oxygen_bond_distance_aromatic_linkinvent_7_9_3/rearranged_h_0135.sdf

> <i_m_source_file_index>
15

> <r_mmod_Potential_Energy-OPLS-2005>
-60.8044509887695

> <r_mmod_Stretch_Energy-OPLS-2005>
75.2765731811523

> <r_mmod_Bend_Energy-OPLS-2005>
140.795150756836

> <r_mmod_Torsional_Energy-OPLS-2005>
240.689147949219

> <r_mmod_Improper_Torsional_Energy-OPLS-2005>
6.39145994186401

> <r_mmod_Van_der_Waal_Energy-OPLS-2005>
163.214736938477

> <r_mmod_Electrostatic_Energy-OPLS-2005>
-276.654113769531

> <r_mmod_Solvation_Energy-OPLS-2005>
-460.161529541016

> <b_mmod_Minimization_Converged-OPLS-2005>
0

> <r_mmod_RMS_Derivative-OPLS-2005>
2.50094056129456

$$$$
15
                    3D
 Structure written by MMmdl.
170179  0  0  1  0            999 V2000
  -30.7612  -14.3578   20.6995 C   0  0  0  0  0  0
  -30.4200  -12.2952   19.3859 C   0  0  0  0  0  0
  -29.4820  -12.5318   18.1878 C   0  0  0  0  0  0
  -28.0072  -12.3824   18.6065 C   0  0  0  0  0  0
  -27.6661  -13.1998   19.8793 C   0  0  2  0  0  0
  -28.7032  -12.9288   20.9903 C   0  0  0  0  0  0
  -25.2610  -13.8153   20.5675 C   0  0  0  0  0  0
  -24.1852  -13.0441   20.9180 C   0  0  0  0  0  0
  -24.6391  -11.6902   20.8733 C   0  0  0  0  0  0
  -23.9054  -10.4293   21.0407 C   0  0  0  0  0  0
  -24.3608   -9.4211   21.9186 C   0  0  0  0  0  0
  -23.6286   -8.2245   22.0756 C   0  0  0  0  0  0
  -22.4269   -8.0282   21.3545 C   0  0  0  0  0  0
  -21.9903   -9.0255   20.4647 C   0  0  0  0  0  0
  -22.7228  -10.2135   20.3055 C   0  0  0  0  0  0
  -21.6849   -6.0735   22.5276 C   0  0  0  0  0  0
  -21.4013   -6.5638   23.8210 C   0  0  0  0  0  0
  -21.3658   -5.6791   24.9174 C   0  0  0  0  0  0
  -21.6044   -4.3055   24.7224 C   0  0  0  0  0  0
  -21.8819   -3.8146   23.4345 C   0  0  0  0  0  0
  -21.9192   -4.6963   22.3399 C   0  0  0  0  0  0
  -22.7879  -13.5253   21.1842 C   0  0  0  0  0  0
  -22.1660   -4.2150   21.0976 F   0  0  0  0  0  0
  -21.5629   -3.4538   25.7738 F   0  0  0  0  0  0
  -30.0470  -13.2294   20.4567 N   0  0  0  0  0  0
  -26.3039  -12.9308   20.3366 N   0  0  0  0  0  0
  -25.9312  -11.6474   20.5748 N   0  0  0  0  0  0
  -22.0503  -12.8245   22.0386 N   0  0  0  0  0  0
  -25.4362  -15.1863   20.4067 N   0  0  0  0  0  0
  -31.7779  -14.6741   20.0745 O   0  0  0  0  0  0
  -21.6634   -6.8879   21.4239 O   0  0  0  0  0  0
  -22.3577  -14.5566   20.6695 O   0  0  0  0  0  0
  -24.6116  -31.8693   23.2122 C   0  0  0  0  0  0
  -25.9027  -32.4824   23.8404 C   0  0  1  0  0  0
  -27.2418  -27.4614   20.0702 C   0  0  0  0  0  0
  -25.5899  -33.8624   24.2337 N   0  0  0  0  0  0
  -23.3968  -30.4936   21.5527 C   0  0  2  0  0  0
  -24.8402  -28.9586   20.1188 C   0  0  0  0  0  0
  -22.7379  -29.4672   22.5013 C   0  0  0  0  0  0
  -18.0264  -28.1373   22.8502 C   0  0  0  0  0  0
  -24.1488  -36.7314   23.2641 C   0  0  0  0  0  0
  -25.9230  -30.8394   21.3621 C   0  0  0  0  0  0
  -25.9980  -29.4747   20.7107 C   0  0  0  0  0  0
  -27.1953  -28.7295   20.6896 C   0  0  0  0  0  0
  -26.0529  -26.9385   19.5064 C   0  0  0  0  0  0
  -24.8600  -27.6863   19.5222 C   0  0  0  0  0  0
  -23.6021  -29.8239   20.1675 C   0  0  0  0  0  0
  -25.4110  -36.3114   24.0341 C   0  0  1  0  0  0
  -20.5849  -28.3655   23.1333 C   0  0  2  0  0  0
  -20.6754  -26.9396   22.5426 C   0  0  0  0  0  0
  -19.5736  -26.6386   21.5217 C   0  0  0  0  0  0
  -18.1910  -26.7927   22.1620 C   0  0  0  0  0  0
  -19.1512  -28.8830   23.2916 C   0  0  0  0  0  0
  -18.9442  -30.1439   23.8923 C   0  0  0  0  0  0
  -17.6445  -30.6584   24.0570 C   0  0  0  0  0  0
  -25.9036  -34.9477   23.5134 C   0  0  0  0  0  0
  -16.5338  -29.9088   23.6329 C   0  0  0  0  0  0
  -16.7254  -28.6503   23.0355 C   0  0  0  0  0  0
  -26.4466  -31.6599   25.0723 C   0  0  0  0  0  0
  -25.3744  -31.3685   26.1479 C   0  0  0  0  0  0
  -27.0288  -30.3044   24.6086 C   0  0  0  0  0  0
  -27.6053  -32.4310   25.7475 C   0  0  0  0  0  0
  -27.5585  -37.1814   24.8466 C   0  0  0  0  0  0
  -21.4112  -29.3029   22.3744 N   0  0  0  0  0  0
  -26.4297  -37.3797   23.9410 N   0  0  0  0  0  0
  -24.6620  -31.0813   22.1011 N   0  0  0  0  0  0
  -23.4162  -28.8217   23.3047 O   0  0  0  0  0  0
  -28.4586  -26.8131   20.0586 O   0  0  0  0  0  0
  -26.5595  -34.8925   22.4693 O   0  0  0  0  0  0
  -23.5320  -32.1441   23.7536 O   0  0  0  0  0  0
  -29.6131  -20.5698   21.7174 C   0  0  0  0  0  0
  -29.4260  -21.8603   21.1900 C   0  0  0  0  0  0
  -27.7659  -20.9802   19.6571 C   0  0  0  0  0  0
  -28.8741  -19.4653   21.2338 C   0  0  0  0  0  0
  -27.9363  -19.6815   20.1885 C   0  0  0  0  0  0
  -28.4990  -22.0800   20.1442 C   0  0  0  0  0  0
  -30.5629  -16.3984   23.8035 C   0  0  0  0  0  0
  -30.5494  -17.5907   21.5923 C   0  0  0  0  0  0
  -29.0963  -16.8173   24.0123 C   0  0  0  0  0  0
  -29.1058  -18.0842   21.8715 C   0  0  1  0  0  0
  -30.9215  -16.2788   22.3143 C   0  0  2  0  0  0
  -27.1003  -18.5508   19.6092 C   0  0  0  0  0  0
  -27.3732  -18.5093   23.6062 C   0  0  0  0  0  0
  -28.6935  -25.6858   19.2122 C   0  0  0  0  0  0
  -28.9641  -24.4384   20.0690 C   0  0  0  0  0  0
  -30.2973  -15.0924   21.7204 N   0  0  0  0  0  0
  -28.7728  -18.0973   23.3291 N   0  3  1  0  0  0
  -28.2635  -23.3071   19.5577 O   0  0  0  0  0  0
  -31.4615  -12.4083   19.0789 H   0  0  0  0  0  0
  -30.3286  -11.2688   19.7451 H   0  0  0  0  0  0
  -29.7143  -11.8331   17.3829 H   0  0  0  0  0  0
  -29.6482  -13.5312   17.7828 H   0  0  0  0  0  0
  -27.8163  -11.3234   18.7840 H   0  0  0  0  0  0
  -27.3518  -12.6759   17.7855 H   0  0  0  0  0  0
  -27.7278  -14.2554   19.6141 H   0  0  0  0  0  0
  -28.6669  -11.8802   21.2897 H   0  0  0  0  0  0
  -28.4423  -13.4874   21.8892 H   0  0  0  0  0  0
  -25.2753   -9.5689   22.4759 H   0  0  0  0  0  0
  -23.9996   -7.4639   22.7476 H   0  0  0  0  0  0
  -21.0833   -8.8771   19.8955 H   0  0  0  0  0  0
  -22.3688  -10.9672   19.6161 H   0  0  0  0  0  0
  -21.2005   -7.6145   23.9716 H   0  0  0  0  0  0
  -21.1479   -6.0520   25.9077 H   0  0  0  0  0  0
  -22.0599   -2.7609   23.2842 H   0  0  0  0  0  0
  -22.4100  -11.9892   22.4760 H   0  0  0  0  0  0
  -21.1125  -13.1283   22.2585 H   0  0  0  0  0  0
  -24.6582  -15.8331   20.4736 H   0  0  0  0  0  0
  -26.2694  -15.6023   20.0132 H   0  0  0  0  0  0
  -26.7096  -32.5540   23.1167 H   0  0  0  0  0  0
  -25.0066  -33.9794   25.0494 H   0  0  0  0  0  0
  -22.6848  -31.3096   21.4145 H   0  0  0  0  0  0
  -23.3752  -35.9644   23.3301 H   0  0  0  0  0  0
  -24.3583  -36.8933   22.2055 H   0  0  0  0  0  0
  -23.7236  -37.6518   23.6655 H   0  0  0  0  0  0
  -26.0332  -31.6057   20.5937 H   0  0  0  0  0  0
  -26.8120  -30.8917   21.9789 H   0  0  0  0  0  0
  -28.0939  -29.1335   21.1353 H   0  0  0  0  0  0
  -26.0105  -25.9576   19.0591 H   0  0  0  0  0  0
  -23.9638  -27.2753   19.0779 H   0  0  0  0  0  0
  -23.7081  -30.5973   19.4060 H   0  0  0  0  0  0
  -22.7263  -29.2423   19.8745 H   0  0  0  0  0  0
  -25.1287  -36.1983   25.0836 H   0  0  0  0  0  0
  -20.9944  -28.3222   24.1451 H   0  0  0  0  0  0
  -20.5659  -26.2263   23.3607 H   0  0  0  0  0  0
  -21.6626  -26.7444   22.1220 H   0  0  0  0  0  0
  -19.6898  -25.6302   21.1232 H   0  0  0  0  0  0
  -19.6682  -27.3211   20.6757 H   0  0  0  0  0  0
  -17.4189  -26.6702   21.4007 H   0  0  0  0  0  0
  -18.0291  -26.0049   22.8991 H   0  0  0  0  0  0
  -19.7915  -30.7250   24.2306 H   0  0  0  0  0  0
  -17.4999  -31.6265   24.5166 H   0  0  0  0  0  0
  -15.5342  -30.3000   23.7632 H   0  0  0  0  0  0
  -15.8654  -28.0829   22.7062 H   0  0  0  0  0  0
  -24.5946  -30.6992   25.7825 H   0  0  0  0  0  0
  -24.8896  -32.2822   26.4922 H   0  0  0  0  0  0
  -25.8121  -30.8878   27.0237 H   0  0  0  0  0  0
  -26.2816  -29.6804   24.1167 H   0  0  0  0  0  0
  -27.4086  -29.7282   25.4536 H   0  0  0  0  0  0
  -27.8640  -30.4361   23.9202 H   0  0  0  0  0  0
  -27.2695  -33.3615   26.2063 H   0  0  0  0  0  0
  -28.3852  -32.6862   25.0288 H   0  0  0  0  0  0
  -28.0727  -31.8422   26.5377 H   0  0  0  0  0  0
  -28.2612  -38.0102   24.7511 H   0  0  0  0  0  0
  -28.1073  -36.2637   24.6296 H   0  0  0  0  0  0
  -27.2303  -37.1477   25.8870 H   0  0  0  0  0  0
  -20.9265  -29.8753   21.6974 H   0  0  0  0  0  0
  -26.0187  -38.2877   24.1411 H   0  0  0  0  0  0
  -30.3365  -20.4430   22.5106 H   0  0  0  0  0  0
  -30.0150  -22.6620   21.6103 H   0  0  0  0  0  0
  -27.0563  -21.1444   18.8578 H   0  0  0  0  0  0
  -30.7596  -15.4569   24.3183 H   0  0  0  0  0  0
  -31.2165  -17.1341   24.2752 H   0  0  0  0  0  0
  -31.2607  -18.3535   21.9103 H   0  0  0  0  0  0
  -30.7009  -17.4866   20.5170 H   0  0  0  0  0  0
  -28.9054  -16.9174   25.0817 H   0  0  0  0  0  0
  -28.4278  -16.0326   23.6547 H   0  0  0  0  0  0
  -28.4399  -17.3504   21.4198 H   0  0  0  0  0  0
  -32.0039  -16.1481   22.2451 H   0  0  0  0  0  0
  -26.4529  -18.9027   18.8050 H   0  0  0  0  0  0
  -26.4580  -18.1136   20.3741 H   0  0  0  0  0  0
  -27.7379  -17.7691   19.1948 H   0  0  0  0  0  0
  -27.1681  -18.4972   24.6771 H   0  0  0  0  0  0
  -26.6613  -17.8390   23.1230 H   0  0  0  0  0  0
  -27.1707  -19.5228   23.2593 H   0  0  0  0  0  0
  -27.9254  -25.5007   18.4655 H   0  0  0  0  0  0
  -29.5855  -25.9052   18.6246 H   0  0  0  0  0  0
  -28.6406  -24.6143   21.0962 H   0  0  0  0  0  0
  -30.0404  -24.2612   20.0876 H   0  0  0  0  0  0
  -29.4896  -14.7003   22.1803 H   0  0  0  0  0  0
  -29.3538  -18.8027   23.7556 H   0  0  0  0  0  0
  1 25  1  0  0  0
  1 30  2  0  0  0
  1 86  1  0  0  0
  2  3  1  0  0  0
  2 25  1  0  0  0
  2 89  1  0  0  0
  2 90  1  0  0  0
  3  4  1  0  0  0
  3 91  1  0  0  0
  3 92  1  0  0  0
  4  5  1  0  0  0
  4 93  1  0  0  0
  4 94  1  0  0  0
  5  6  1  0  0  0
  5 26  1  0  0  0
  5 95  1  0  0  0
  6 25  1  0  0  0
  6 96  1  0  0  0
  6 97  1  0  0  0
  7  8  2  0  0  0
  7 26  1  0  0  0
  7 29  1  0  0  0
  8  9  1  0  0  0
  8 22  1  0  0  0
  9 10  1  0  0  0
  9 27  2  0  0  0
 10 11  2  0  0  0
 10 15  1  0  0  0
 11 12  1  0  0  0
 11 98  1  0  0  0
 12 13  2  0  0  0
 12 99  1  0  0  0
 13 14  1  0  0  0
 13 31  1  0  0  0
 14 15  2  0  0  0
 14100  1  0  0  0
 15101  1  0  0  0
 16 17  2  0  0  0
 16 21  1  0  0  0
 16 31  1  0  0  0
 17 18  1  0  0  0
 17102  1  0  0  0
 18 19  2  0  0  0
 18103  1  0  0  0
 19 20  1  0  0  0
 19 24  1  0  0  0
 20 21  2  0  0  0
 20104  1  0  0  0
 21 23  1  0  0  0
 22 28  1  0  0  0
 22 32  2  0  0  0
 26 27  1  0  0  0
 28105  1  0  0  0
 28106  1  0  0  0
 29107  1  0  0  0
 29108  1  0  0  0
 33 34  1  0  0  0
 33 66  1  0  0  0
 33 70  2  0  0  0
 34 36  1  0  0  0
 34 59  1  0  0  0
 34109  1  0  0  0
 35 44  2  0  0  0
 35 45  1  0  0  0
 35 68  1  0  0  0
 36 56  1  0  0  0
 36110  1  0  0  0
 37 39  1  0  0  0
 37 47  1  0  0  0
 37 66  1  0  0  0
 37111  1  0  0  0
 38 43  2  0  0  0
 38 46  1  0  0  0
 38 47  1  0  0  0
 39 64  1  0  0  0
 39 67  2  0  0  0
 40 52  1  0  0  0
 40 53  2  0  0  0
 40 58  1  0  0  0
 41112  1  0  0  0
 41113  1  0  0  0
 41114  1  0  0  0
 41 48  1  0  0  0
 42 43  1  0  0  0
 42 66  1  0  0  0
 42115  1  0  0  0
 42116  1  0  0  0
 43 44  1  0  0  0
 44117  1  0  0  0
 45 46  2  0  0  0
 45118  1  0  0  0
 46119  1  0  0  0
 47120  1  0  0  0
 47121  1  0  0  0
 48 56  1  0  0  0
 48 65  1  0  0  0
 48122  1  0  0  0
 49 50  1  0  0  0
 49 53  1  0  0  0
 49 64  1  0  0  0
 49123  1  0  0  0
 50 51  1  0  0  0
 50124  1  0  0  0
 50125  1  0  0  0
 51 52  1  0  0  0
 51126  1  0  0  0
 51127  1  0  0  0
 52128  1  0  0  0
 52129  1  0  0  0
 53 54  1  0  0  0
 54 55  2  0  0  0
 54130  1  0  0  0
 55 57  1  0  0  0
 55131  1  0  0  0
 56 69  2  0  0  0
 57 58  2  0  0  0
 57132  1  0  0  0
 58133  1  0  0  0
 59 60  1  0  0  0
 59 61  1  0  0  0
 59 62  1  0  0  0
 60134  1  0  0  0
 60135  1  0  0  0
 60136  1  0  0  0
 61137  1  0  0  0
 61138  1  0  0  0
 61139  1  0  0  0
 62140  1  0  0  0
 62141  1  0  0  0
 62142  1  0  0  0
 63 65  1  0  0  0
 63143  1  0  0  0
 63144  1  0  0  0
 63145  1  0  0  0
 64146  1  0  0  0
 65147  1  0  0  0
 68 84  1  0  0  0
 71 72  2  0  0  0
 71 74  1  0  0  0
 71148  1  0  0  0
 72 76  1  0  0  0
 72149  1  0  0  0
 73 75  1  0  0  0
 73 76  2  0  0  0
 73150  1  0  0  0
 74 75  2  0  0  0
 74 80  1  0  0  0
 75 82  1  0  0  0
 76 88  1  0  0  0
 77 79  1  0  0  0
 77 81  1  0  0  0
 77151  1  0  0  0
 77152  1  0  0  0
 78 80  1  0  0  0
 78 81  1  0  0  0
 78153  1  0  0  0
 78154  1  0  0  0
 79 87  1  0  0  0
 79155  1  0  0  0
 79156  1  0  0  0
 80 87  1  0  0  0
 80157  1  0  0  0
 81 86  1  0  0  0
 81158  1  0  0  0
 82159  1  0  0  0
 82160  1  0  0  0
 82161  1  0  0  0
 83162  1  0  0  0
 83163  1  0  0  0
 83164  1  0  0  0
 83 87  1  0  0  0
 84 85  1  0  0  0
 84165  1  0  0  0
 84166  1  0  0  0
 85 88  1  0  0  0
 85167  1  0  0  0
 85168  1  0  0  0
 86169  1  0  0  0
 87170  1  0  0  0
M  CHG  1  87   1
M  ISO  4   1 100  68 101  84 101  86 100
M  END
> <chiral flag>
0

> <version>
0

> <s_m_source_file>
/data/baiqing/PycharmProjects/Reinvent-master-3.2/result/LINK_invent/BTK/process_docking_weight1_custom_sum_contain_oxygen_bond_distance_aromatic_linkinvent_7_9_3/rearranged_h_0135.sdf

> <i_m_source_file_index>
16

> <r_mmod_Potential_Energy-OPLS-2005>
-149.016296386719

> <r_mmod_Stretch_Energy-OPLS-2005>
36.7366981506348

> <r_mmod_Bend_Energy-OPLS-2005>
112.635040283203

> <r_mmod_Torsional_Energy-OPLS-2005>
212.289077758789

> <r_mmod_Improper_Torsional_Energy-OPLS-2005>
2.37478303909302

> <r_mmod_Van_der_Waal_Energy-OPLS-2005>
162.918121337891

> <r_mmod_Electrostatic_Energy-OPLS-2005>
-231.23030090332

> <r_mmod_Solvation_Energy-OPLS-2005>
-452.880218505859

> <b_mmod_Minimization_Converged-OPLS-2005>
0

> <r_mmod_RMS_Derivative-OPLS-2005>
0.551195681095123

$$$$
16
                    3D
 Structure written by MMmdl.
169178  0  0  1  0            999 V2000
  -30.5825  -14.8352   20.4221 C   0  0  0  0  0  0
  -30.4295  -12.5093   19.4897 C   0  0  0  0  0  0
  -29.5135  -12.5247   18.2448 C   0  0  0  0  0  0
  -28.0396  -12.3376   18.6530 C   0  0  0  0  0  0
  -27.6337  -13.2425   19.8471 C   0  0  2  0  0  0
  -28.6789  -13.2209   20.9842 C   0  0  0  0  0  0
  -25.2424  -13.8136   20.5659 C   0  0  0  0  0  0
  -24.1754  -13.0384   20.9220 C   0  0  0  0  0  0
  -24.6378  -11.6887   20.8741 C   0  0  0  0  0  0
  -23.9061  -10.4266   21.0386 C   0  0  0  0  0  0
  -24.3613   -9.4190   21.9173 C   0  0  0  0  0  0
  -23.6295   -8.2223   22.0745 C   0  0  0  0  0  0
  -22.4282   -8.0259   21.3530 C   0  0  0  0  0  0
  -21.9907   -9.0231   20.4633 C   0  0  0  0  0  0
  -22.7227  -10.2114   20.3042 C   0  0  0  0  0  0
  -21.6861   -6.0722   22.5268 C   0  0  0  0  0  0
  -21.4016   -6.5625   23.8198 C   0  0  0  0  0  0
  -21.3665   -5.6780   24.9163 C   0  0  0  0  0  0
  -21.6048   -4.3043   24.7209 C   0  0  0  0  0  0
  -21.8826   -3.8131   23.4331 C   0  0  0  0  0  0
  -21.9193   -4.6950   22.3389 C   0  0  0  0  0  0
  -22.7777  -13.5163   21.1879 C   0  0  0  0  0  0
  -22.1665   -4.2131   21.0973 F   0  0  0  0  0  0
  -21.5631   -3.4533   25.7722 F   0  0  0  0  0  0
  -29.9689  -13.5948   20.3941 N   0  0  0  0  0  0
  -26.2892  -12.9403   20.3270 N   0  0  0  0  0  0
  -25.9321  -11.6540   20.5758 N   0  0  0  0  0  0
  -22.0437  -12.8157   22.0449 N   0  0  0  0  0  0
  -25.3974  -15.1833   20.3987 N   0  0  0  0  0  0
  -31.7791  -14.9069   20.1317 O   0  0  0  0  0  0
  -21.6638   -6.8867   21.4234 O   0  0  0  0  0  0
  -22.3466  -14.5476   20.6731 O   0  0  0  0  0  0
  -24.6352  -31.8476   23.1904 C   0  0  0  0  0  0
  -25.9161  -32.4705   23.8280 C   0  0  1  0  0  0
  -27.2292  -27.2116   20.1349 C   0  0  0  0  0  0
  -25.5931  -33.8512   24.2196 N   0  0  0  0  0  0
  -23.4345  -30.4652   21.5341 C   0  0  2  0  0  0
  -24.8843  -28.8959   20.1060 C   0  0  0  0  0  0
  -22.7515  -29.4558   22.4887 C   0  0  0  0  0  0
  -18.0282  -28.1388   22.8471 C   0  0  0  0  0  0
  -24.1490  -36.7265   23.2644 C   0  0  0  0  0  0
  -25.9817  -30.7445   21.3751 C   0  0  0  0  0  0
  -26.0543  -29.3612   20.7188 C   0  0  0  0  0  0
  -27.2238  -28.5308   20.7194 C   0  0  0  0  0  0
  -26.0392  -26.8208   19.4867 C   0  0  0  0  0  0
  -24.8851  -27.6372   19.4787 C   0  0  0  0  0  0
  -23.6553  -29.7881   20.1533 C   0  0  0  0  0  0
  -25.4118  -36.3034   24.0315 C   0  0  1  0  0  0
  -20.5887  -28.3697   23.1260 C   0  0  2  0  0  0
  -20.6764  -26.9410   22.5411 C   0  0  0  0  0  0
  -19.5752  -26.6373   21.5205 C   0  0  0  0  0  0
  -18.1930  -26.7927   22.1611 C   0  0  0  0  0  0
  -19.1538  -28.8863   23.2856 C   0  0  0  0  0  0
  -18.9463  -30.1454   23.8885 C   0  0  0  0  0  0
  -17.6468  -30.6587   24.0556 C   0  0  0  0  0  0
  -25.9063  -34.9409   23.5066 C   0  0  0  0  0  0
  -16.5354  -29.9082   23.6340 C   0  0  0  0  0  0
  -16.7268  -28.6499   23.0357 C   0  0  0  0  0  0
  -26.4517  -31.6564   25.0704 C   0  0  0  0  0  0
  -25.3726  -31.3731   26.1418 C   0  0  0  0  0  0
  -27.0388  -30.2974   24.6246 C   0  0  0  0  0  0
  -27.6048  -32.4330   25.7492 C   0  0  0  0  0  0
  -27.5569  -37.1786   24.8460 C   0  0  0  0  0  0
  -21.4214  -29.3027   22.3636 N   0  0  0  0  0  0
  -26.4279  -37.3745   23.9407 N   0  0  0  0  0  0
  -24.7030  -31.0393   22.0892 N   0  0  0  0  0  0
  -23.4190  -28.8116   23.3018 O   0  0  0  0  0  0
  -28.3396  -26.3288   20.2398 O   0  0  0  0  0  0
  -26.5656  -34.8902   22.4647 O   0  0  0  0  0  0
  -23.5496  -32.1322   23.7179 O   0  0  0  0  0  0
  -28.8796  -17.7461   17.8273 C   0  0  0  0  0  0
  -27.6648  -17.5940   18.7625 C   0  0  0  0  0  0
  -30.2279  -17.4602   18.5302 C   0  0  0  0  0  0
  -30.1551  -22.7524   19.8872 C   0  0  0  0  0  0
  -27.7849  -22.1956   20.0740 C   0  0  0  0  0  0
  -29.8249  -24.2737   20.2277 C   0  0  0  0  0  0
  -27.4745  -23.7336   20.4640 C   0  0  0  0  0  0
  -27.7344  -18.5359   19.9921 C   0  0  2  0  0  0
  -30.1310  -17.4674   20.0782 C   0  0  1  0  0  0
  -29.2126  -21.6128   20.4444 C   0  0  1  0  0  0
  -29.1920  -18.7881   20.4789 C   0  0  1  0  0  0
  -28.4128  -24.8520   19.8491 C   0  0  1  0  0  0
  -26.8186  -18.0675   21.1318 C   0  0  0  0  0  0
  -29.8079  -16.0044   20.5269 N   0  0  0  0  0  0
  -29.6519  -20.1851   19.9456 N   0  3  0  0  0  0
  -31.4708  -12.6381   19.1918 H   0  0  0  0  0  0
  -30.3814  -11.5435   19.9955 H   0  0  0  0  0  0
  -29.8113  -11.7432   17.5452 H   0  0  0  0  0  0
  -29.6285  -13.4724   17.7143 H   0  0  0  0  0  0
  -27.9012  -11.2894   18.9191 H   0  0  0  0  0  0
  -27.3839  -12.5218   17.8008 H   0  0  0  0  0  0
  -27.6112  -14.2552   19.4482 H   0  0  0  0  0  0
  -28.7348  -12.2342   21.4459 H   0  0  0  0  0  0
  -28.4017  -13.9187   21.7765 H   0  0  0  0  0  0
  -25.2750   -9.5687   22.4757 H   0  0  0  0  0  0
  -24.0004   -7.4620   22.7480 H   0  0  0  0  0  0
  -21.0829   -8.8739   19.8947 H   0  0  0  0  0  0
  -22.3663  -10.9653   19.6162 H   0  0  0  0  0  0
  -21.2010   -7.6134   23.9698 H   0  0  0  0  0  0
  -21.1493   -6.0509   25.9073 H   0  0  0  0  0  0
  -22.0607   -2.7593   23.2825 H   0  0  0  0  0  0
  -22.4053  -11.9814   22.4820 H   0  0  0  0  0  0
  -21.1064  -13.1191   22.2669 H   0  0  0  0  0  0
  -24.6123  -15.8172   20.4949 H   0  0  0  0  0  0
  -26.2237  -15.6315   20.0320 H   0  0  0  0  0  0
  -26.7223  -32.5337   23.1012 H   0  0  0  0  0  0
  -25.0044  -33.9632   25.0321 H   0  0  0  0  0  0
  -22.7331  -31.2876   21.3805 H   0  0  0  0  0  0
  -23.3750  -35.9600   23.3292 H   0  0  0  0  0  0
  -24.3581  -36.8912   22.2062 H   0  0  0  0  0  0
  -23.7245  -37.6457   23.6696 H   0  0  0  0  0  0
  -26.1261  -31.5017   20.6036 H   0  0  0  0  0  0
  -26.8558  -30.7957   22.0128 H   0  0  0  0  0  0
  -28.1185  -28.8798   21.2152 H   0  0  0  0  0  0
  -25.9817  -25.8567   19.0040 H   0  0  0  0  0  0
  -23.9874  -27.2782   18.9929 H   0  0  0  0  0  0
  -23.7795  -30.5579   19.3907 H   0  0  0  0  0  0
  -22.7735  -29.2186   19.8535 H   0  0  0  0  0  0
  -25.1307  -36.1859   25.0808 H   0  0  0  0  0  0
  -20.9975  -28.3285   24.1385 H   0  0  0  0  0  0
  -20.5639  -26.2318   23.3621 H   0  0  0  0  0  0
  -21.6637  -26.7416   22.1228 H   0  0  0  0  0  0
  -19.6914  -25.6278   21.1248 H   0  0  0  0  0  0
  -19.6696  -27.3171   20.6723 H   0  0  0  0  0  0
  -17.4200  -26.6663   21.4013 H   0  0  0  0  0  0
  -18.0332  -26.0070   22.9009 H   0  0  0  0  0  0
  -19.7941  -30.7254   24.2266 H   0  0  0  0  0  0
  -17.5027  -31.6274   24.5144 H   0  0  0  0  0  0
  -15.5355  -30.2983   23.7676 H   0  0  0  0  0  0
  -15.8663  -28.0808   22.7101 H   0  0  0  0  0  0
  -24.5893  -30.7092   25.7734 H   0  0  0  0  0  0
  -24.8938  -32.2914   26.4833 H   0  0  0  0  0  0
  -25.8037  -30.8903   27.0199 H   0  0  0  0  0  0
  -26.2999  -29.6686   24.1268 H   0  0  0  0  0  0
  -27.4037  -29.7275   25.4799 H   0  0  0  0  0  0
  -27.8882  -30.4219   23.9527 H   0  0  0  0  0  0
  -27.2625  -33.3615   26.2069 H   0  0  0  0  0  0
  -28.3869  -32.6913   25.0344 H   0  0  0  0  0  0
  -28.0717  -31.8468   26.5415 H   0  0  0  0  0  0
  -28.2575  -38.0091   24.7511 H   0  0  0  0  0  0
  -28.1071  -36.2623   24.6277 H   0  0  0  0  0  0
  -27.2296  -37.1424   25.8864 H   0  0  0  0  0  0
  -20.9417  -29.8741   21.6822 H   0  0  0  0  0  0
  -26.0142  -38.2812   24.1417 H   0  0  0  0  0  0
  -28.8874  -18.7568   17.4180 H   0  0  0  0  0  0
  -28.7726  -17.0888   16.9631 H   0  0  0  0  0  0
  -27.6011  -16.5544   19.0759 H   0  0  0  0  0  0
  -26.7437  -17.7813   18.2080 H   0  0  0  0  0  0
  -30.9518  -18.2116   18.2118 H   0  0  0  0  0  0
  -30.6391  -16.5187   18.1661 H   0  0  0  0  0  0
  -31.1714  -22.5540   20.2304 H   0  0  0  0  0  0
  -30.1972  -22.6636   18.8010 H   0  0  0  0  0  0
  -27.6274  -22.0781   19.0013 H   0  0  0  0  0  0
  -27.0257  -21.5755   20.5498 H   0  0  0  0  0  0
  -30.5822  -24.8976   19.7530 H   0  0  0  0  0  0
  -29.9692  -24.4154   21.2996 H   0  0  0  0  0  0
  -27.5010  -23.8217   21.5505 H   0  0  0  0  0  0
  -26.4422  -23.9501   20.1889 H   0  0  0  0  0  0
  -27.3130  -19.4833   19.6589 H   0  0  0  0  0  0
  -31.1313  -17.6554   20.4719 H   0  0  0  0  0  0
  -29.3022  -21.6037   21.5313 H   0  0  0  0  0  0
  -29.2051  -18.8791   21.5659 H   0  0  0  0  0  0
  -28.3097  -24.8159   18.7632 H   0  0  0  0  0  0
  -27.1550  -17.1259   21.5654 H   0  0  0  0  0  0
  -25.7948  -17.9323   20.7825 H   0  0  0  0  0  0
  -26.7869  -18.8054   21.9344 H   0  0  0  0  0  0
  -28.8461  -15.8421   20.7820 H   0  0  0  0  0  0
  -30.6460  -20.1742   20.1159 H   0  0  0  0  0  0
  -29.5529  -20.1659   18.9436 H   0  0  0  0  0  0
  1 25  1  0  0  0
  1 30  2  0  0  0
  1 84  1  0  0  0
  2  3  1  0  0  0
  2 25  1  0  0  0
  2 86  1  0  0  0
  2 87  1  0  0  0
  3  4  1  0  0  0
  3 88  1  0  0  0
  3 89  1  0  0  0
  4  5  1  0  0  0
  4 90  1  0  0  0
  4 91  1  0  0  0
  5  6  1  0  0  0
  5 26  1  0  0  0
  5 92  1  0  0  0
  6 25  1  0  0  0
  6 93  1  0  0  0
  6 94  1  0  0  0
  7  8  2  0  0  0
  7 26  1  0  0  0
  7 29  1  0  0  0
  8  9  1  0  0  0
  8 22  1  0  0  0
  9 10  1  0  0  0
  9 27  2  0  0  0
 10 11  2  0  0  0
 10 15  1  0  0  0
 11 12  1  0  0  0
 11 95  1  0  0  0
 12 13  2  0  0  0
 12 96  1  0  0  0
 13 14  1  0  0  0
 13 31  1  0  0  0
 14 15  2  0  0  0
 14 97  1  0  0  0
 15 98  1  0  0  0
 16 17  2  0  0  0
 16 21  1  0  0  0
 16 31  1  0  0  0
 17 18  1  0  0  0
 17 99  1  0  0  0
 18 19  2  0  0  0
 18100  1  0  0  0
 19 20  1  0  0  0
 19 24  1  0  0  0
 20 21  2  0  0  0
 20101  1  0  0  0
 21 23  1  0  0  0
 22 28  1  0  0  0
 22 32  2  0  0  0
 26 27  1  0  0  0
 28102  1  0  0  0
 28103  1  0  0  0
 29104  1  0  0  0
 29105  1  0  0  0
 33 34  1  0  0  0
 33 66  1  0  0  0
 33 70  2  0  0  0
 34 36  1  0  0  0
 34 59  1  0  0  0
 34106  1  0  0  0
 35 44  2  0  0  0
 35 45  1  0  0  0
 35 68  1  0  0  0
 36 56  1  0  0  0
 36107  1  0  0  0
 37 39  1  0  0  0
 37 47  1  0  0  0
 37 66  1  0  0  0
 37108  1  0  0  0
 38 43  2  0  0  0
 38 46  1  0  0  0
 38 47  1  0  0  0
 39 64  1  0  0  0
 39 67  2  0  0  0
 40 52  1  0  0  0
 40 53  2  0  0  0
 40 58  1  0  0  0
 41109  1  0  0  0
 41110  1  0  0  0
 41111  1  0  0  0
 41 48  1  0  0  0
 42 43  1  0  0  0
 42 66  1  0  0  0
 42112  1  0  0  0
 42113  1  0  0  0
 43 44  1  0  0  0
 44114  1  0  0  0
 45 46  2  0  0  0
 45115  1  0  0  0
 46116  1  0  0  0
 47117  1  0  0  0
 47118  1  0  0  0
 48 56  1  0  0  0
 48 65  1  0  0  0
 48119  1  0  0  0
 49 50  1  0  0  0
 49 53  1  0  0  0
 49 64  1  0  0  0
 49120  1  0  0  0
 50 51  1  0  0  0
 50121  1  0  0  0
 50122  1  0  0  0
 51 52  1  0  0  0
 51123  1  0  0  0
 51124  1  0  0  0
 52125  1  0  0  0
 52126  1  0  0  0
 53 54  1  0  0  0
 54 55  2  0  0  0
 54127  1  0  0  0
 55 57  1  0  0  0
 55128  1  0  0  0
 56 69  2  0  0  0
 57 58  2  0  0  0
 57129  1  0  0  0
 58130  1  0  0  0
 59 60  1  0  0  0
 59 61  1  0  0  0
 59 62  1  0  0  0
 60131  1  0  0  0
 60132  1  0  0  0
 60133  1  0  0  0
 61134  1  0  0  0
 61135  1  0  0  0
 61136  1  0  0  0
 62137  1  0  0  0
 62138  1  0  0  0
 62139  1  0  0  0
 63 65  1  0  0  0
 63140  1  0  0  0
 63141  1  0  0  0
 63142  1  0  0  0
 64143  1  0  0  0
 65144  1  0  0  0
 68 82  1  0  0  0
 71 72  1  0  0  0
 71 73  1  0  0  0
 71145  1  0  0  0
 71146  1  0  0  0
 72 78  1  0  0  0
 72147  1  0  0  0
 72148  1  0  0  0
 73 79  1  0  0  0
 73149  1  0  0  0
 73150  1  0  0  0
 74 76  1  0  0  0
 74 80  1  0  0  0
 74151  1  0  0  0
 74152  1  0  0  0
 75 77  1  0  0  0
 75 80  1  0  0  0
 75153  1  0  0  0
 75154  1  0  0  0
 76 82  1  0  0  0
 76155  1  0  0  0
 76156  1  0  0  0
 77 82  1  0  0  0
 77157  1  0  0  0
 77158  1  0  0  0
 78 81  1  0  0  0
 78 83  1  0  0  0
 78159  1  0  0  0
 79 81  1  0  0  0
 79 84  1  0  0  0
 79160  1  0  0  0
 80 85  1  0  0  0
 80161  1  0  0  0
 81 85  1  0  0  0
 81162  1  0  0  0
 82163  1  0  0  0
 83164  1  0  0  0
 83165  1  0  0  0
 83166  1  0  0  0
 84167  1  0  0  0
 85168  1  0  0  0
 85169  1  0  0  0
M  CHG  1  85   1
M  ISO  4   1 100  68 101  82 101  84 100
M  END
> <chiral flag>
0

> <version>
0

> <s_m_source_file>
/data/baiqing/PycharmProjects/Reinvent-master-3.2/result/LINK_invent/BTK/process_docking_weight1_custom_sum_contain_oxygen_bond_distance_aromatic_linkinvent_7_9_3/rearranged_h_0135.sdf

> <i_m_source_file_index>
17

> <r_mmod_Potential_Energy-OPLS-2005>
191.330200195312

> <r_mmod_Stretch_Energy-OPLS-2005>
176.583770751953

> <r_mmod_Bend_Energy-OPLS-2005>
250.352416992188

> <r_mmod_Torsional_Energy-OPLS-2005>
280.677215576172

> <r_mmod_Improper_Torsional_Energy-OPLS-2005>
6.20348691940308

> <r_mmod_Van_der_Waal_Energy-OPLS-2005>
113.506454467773

> <r_mmod_Electrostatic_Energy-OPLS-2005>
-301.800628662109

> <r_mmod_Solvation_Energy-OPLS-2005>
-457.137786865234

> <b_mmod_Minimization_Converged-OPLS-2005>
0

> <r_mmod_RMS_Derivative-OPLS-2005>
1.97362887859344

$$$$
17
                    3D
 Structure written by MMmdl.
154162  0  0  1  0            999 V2000
  -30.6292  -14.7171   20.5041 C   0  0  0  0  0  0
  -30.4364  -12.4451   19.4711 C   0  0  0  0  0  0
  -29.5100  -12.5014   18.2367 C   0  0  0  0  0  0
  -28.0392  -12.3221   18.6543 C   0  0  0  0  0  0
  -27.6490  -13.2188   19.8592 C   0  0  2  0  0  0
  -28.6921  -13.1449   20.9936 C   0  0  0  0  0  0
  -25.2573  -13.8154   20.5689 C   0  0  0  0  0  0
  -24.1819  -13.0436   20.9156 C   0  0  0  0  0  0
  -24.6379  -11.6906   20.8724 C   0  0  0  0  0  0
  -23.9052  -10.4297   21.0389 C   0  0  0  0  0  0
  -24.3612   -9.4226   21.9168 C   0  0  0  0  0  0
  -23.6285   -8.2257   22.0747 C   0  0  0  0  0  0
  -22.4280   -8.0274   21.3538 C   0  0  0  0  0  0
  -21.9918   -9.0238   20.4641 C   0  0  0  0  0  0
  -22.7224  -10.2119   20.3043 C   0  0  0  0  0  0
  -21.6871   -6.0718   22.5253 C   0  0  0  0  0  0
  -21.4020   -6.5637   23.8178 C   0  0  0  0  0  0
  -21.3662   -5.6803   24.9139 C   0  0  0  0  0  0
  -21.6057   -4.3055   24.7203 C   0  0  0  0  0  0
  -21.8827   -3.8141   23.4332 C   0  0  0  0  0  0
  -21.9202   -4.6958   22.3384 C   0  0  0  0  0  0
  -22.7859  -13.5234   21.1833 C   0  0  0  0  0  0
  -22.1677   -4.2137   21.0960 F   0  0  0  0  0  0
  -21.5630   -3.4549   25.7720 F   0  0  0  0  0  0
  -29.9951  -13.4991   20.4125 N   0  0  0  0  0  0
  -26.2976  -12.9335   20.3306 N   0  0  0  0  0  0
  -25.9316  -11.6498   20.5762 N   0  0  0  0  0  0
  -22.0548  -12.8182   22.0385 N   0  0  0  0  0  0
  -25.4368  -15.1849   20.4082 N   0  0  0  0  0  0
  -31.8115  -14.8318   20.1705 O   0  0  0  0  0  0
  -21.6658   -6.8861   21.4218 O   0  0  0  0  0  0
  -22.3567  -14.5570   20.6719 O   0  0  0  0  0  0
  -24.6287  -31.8556   23.1952 C   0  0  0  0  0  0
  -25.9120  -32.4741   23.8303 C   0  0  1  0  0  0
  -27.2260  -27.2680   20.1626 C   0  0  0  0  0  0
  -25.5928  -33.8542   24.2228 N   0  0  0  0  0  0
  -23.4234  -30.4803   21.5354 C   0  0  2  0  0  0
  -24.8775  -28.9238   20.1085 C   0  0  0  0  0  0
  -22.7490  -29.4598   22.4848 C   0  0  0  0  0  0
  -18.0298  -28.1376   22.8449 C   0  0  0  0  0  0
  -24.1488  -36.7285   23.2637 C   0  0  0  0  0  0
  -25.9651  -30.7820   21.3622 C   0  0  0  0  0  0
  -26.0461  -29.4012   20.7146 C   0  0  0  0  0  0
  -27.2241  -28.5875   20.7282 C   0  0  0  0  0  0
  -26.0400  -26.8571   19.5189 C   0  0  0  0  0  0
  -24.8795  -27.6599   19.4969 C   0  0  0  0  0  0
  -23.6437  -29.8097   20.1538 C   0  0  0  0  0  0
  -25.4117  -36.3051   24.0312 C   0  0  1  0  0  0
  -20.5920  -28.3685   23.1272 C   0  0  2  0  0  0
  -20.6783  -26.9393   22.5424 C   0  0  0  0  0  0
  -19.5754  -26.6380   21.5225 C   0  0  0  0  0  0
  -18.1926  -26.7912   22.1608 C   0  0  0  0  0  0
  -19.1557  -28.8837   23.2844 C   0  0  0  0  0  0
  -18.9483  -30.1445   23.8850 C   0  0  0  0  0  0
  -17.6487  -30.6569   24.0551 C   0  0  0  0  0  0
  -25.9067  -34.9431   23.5085 C   0  0  0  0  0  0
  -16.5377  -29.9062   23.6339 C   0  0  0  0  0  0
  -16.7284  -28.6494   23.0302 C   0  0  0  0  0  0
  -26.4504  -31.6534   25.0668 C   0  0  0  0  0  0
  -25.3737  -31.3679   26.1399 C   0  0  0  0  0  0
  -27.0350  -30.2979   24.6070 C   0  0  0  0  0  0
  -27.6055  -32.4259   25.7459 C   0  0  0  0  0  0
  -27.5561  -37.1776   24.8463 C   0  0  0  0  0  0
  -21.4195  -29.3035   22.3619 N   0  0  0  0  0  0
  -26.4269  -37.3774   23.9425 N   0  0  0  0  0  0
  -24.6926  -31.0551   22.0906 N   0  0  0  0  0  0
  -23.4224  -28.8120   23.2923 O   0  0  0  0  0  0
  -28.3219  -26.3782   20.2150 O   0  0  0  0  0  0
  -26.5630  -34.8917   22.4640 O   0  0  0  0  0  0
  -23.5465  -32.1328   23.7309 O   0  0  0  0  0  0
  -28.6428  -23.7788   19.8280 C   0  0  0  0  0  0
  -28.7198  -24.5413   22.0151 C   0  0  0  0  0  0
  -28.0720  -24.9608   20.6624 C   0  0  1  0  0  0
  -28.6703  -22.4887   20.7382 C   0  0  1  0  0  0
  -29.5744  -21.2162   20.2745 C   0  0  0  0  0  0
  -30.2765  -17.2750   21.1092 C   0  0  0  0  0  0
  -29.4447  -18.5275   20.4895 C   0  0  0  0  0  0
  -28.9813  -23.0707   22.0677 N   0  0  0  0  0  0
  -29.8681  -15.8317   20.8133 N   0  0  0  0  0  0
  -29.6150  -19.9257   21.1157 N   0  3  0  0  0  0
  -29.0296  -23.8807   18.6600 O   0  0  0  0  0  0
  -31.4751  -12.5775   19.1617 H   0  0  0  0  0  0
  -30.3847  -11.4642   19.9476 H   0  0  0  0  0  0
  -29.7913  -11.7301   17.5190 H   0  0  0  0  0  0
  -29.6306  -13.4558   17.7203 H   0  0  0  0  0  0
  -27.8929  -11.2726   18.9109 H   0  0  0  0  0  0
  -27.3793  -12.5183   17.8083 H   0  0  0  0  0  0
  -27.6527  -14.2418   19.4853 H   0  0  0  0  0  0
  -28.7286  -12.1474   21.4340 H   0  0  0  0  0  0
  -28.4232  -13.8251   21.8018 H   0  0  0  0  0  0
  -25.2753   -9.5705   22.4741 H   0  0  0  0  0  0
  -24.0003   -7.4665   22.7476 H   0  0  0  0  0  0
  -21.0854   -8.8733   19.8949 H   0  0  0  0  0  0
  -22.3665  -10.9645   19.6154 H   0  0  0  0  0  0
  -21.2026   -7.6145   23.9658 H   0  0  0  0  0  0
  -21.1483   -6.0532   25.9025 H   0  0  0  0  0  0
  -22.0618   -2.7603   23.2821 H   0  0  0  0  0  0
  -22.4222  -11.9797   22.4636 H   0  0  0  0  0  0
  -21.1162  -13.1163   22.2674 H   0  0  0  0  0  0
  -24.6785  -15.8494   20.5087 H   0  0  0  0  0  0
  -26.2909  -15.6086   20.0708 H   0  0  0  0  0  0
  -26.7163  -32.5434   23.1036 H   0  0  0  0  0  0
  -25.0103  -33.9671   25.0393 H   0  0  0  0  0  0
  -22.7175  -31.3010   21.3873 H   0  0  0  0  0  0
  -23.3736  -35.9636   23.3309 H   0  0  0  0  0  0
  -24.3603  -36.8939   22.2064 H   0  0  0  0  0  0
  -23.7293  -37.6502   23.6676 H   0  0  0  0  0  0
  -26.0838  -31.5364   20.5845 H   0  0  0  0  0  0
  -26.8511  -30.8531   21.9823 H   0  0  0  0  0  0
  -28.1164  -28.9448   21.2211 H   0  0  0  0  0  0
  -25.9940  -25.8867   19.0452 H   0  0  0  0  0  0
  -23.9837  -27.2810   19.0228 H   0  0  0  0  0  0
  -23.7660  -30.5852   19.3978 H   0  0  0  0  0  0
  -22.7610  -29.2459   19.8520 H   0  0  0  0  0  0
  -25.1297  -36.1868   25.0801 H   0  0  0  0  0  0
  -21.0004  -28.3261   24.1398 H   0  0  0  0  0  0
  -20.5744  -26.2234   23.3611 H   0  0  0  0  0  0
  -21.6627  -26.7431   22.1170 H   0  0  0  0  0  0
  -19.6931  -25.6319   21.1198 H   0  0  0  0  0  0
  -19.6735  -27.3196   20.6773 H   0  0  0  0  0  0
  -17.4226  -26.6680   21.3978 H   0  0  0  0  0  0
  -18.0264  -26.0087   22.9022 H   0  0  0  0  0  0
  -19.7980  -30.7250   24.2163 H   0  0  0  0  0  0
  -17.5070  -31.6241   24.5147 H   0  0  0  0  0  0
  -15.5368  -30.2937   23.7724 H   0  0  0  0  0  0
  -15.8687  -28.0845   22.6971 H   0  0  0  0  0  0
  -24.5971  -30.6941   25.7758 H   0  0  0  0  0  0
  -24.8830  -32.2830   26.4728 H   0  0  0  0  0  0
  -25.8086  -30.8966   27.0228 H   0  0  0  0  0  0
  -26.2937  -29.6716   24.1109 H   0  0  0  0  0  0
  -27.4124  -29.7240   25.4536 H   0  0  0  0  0  0
  -27.8722  -30.4296   23.9240 H   0  0  0  0  0  0
  -27.2698  -33.3618   26.1932 H   0  0  0  0  0  0
  -28.3927  -32.6722   25.0317 H   0  0  0  0  0  0
  -28.0607  -31.8418   26.5474 H   0  0  0  0  0  0
  -28.2517  -38.0110   24.7537 H   0  0  0  0  0  0
  -28.1096  -36.2655   24.6226 H   0  0  0  0  0  0
  -27.2278  -37.1367   25.8855 H   0  0  0  0  0  0
  -20.9320  -29.8884   21.6964 H   0  0  0  0  0  0
  -26.0123  -38.2815   24.1508 H   0  0  0  0  0  0
  -28.0875  -24.8405   22.8536 H   0  0  0  0  0  0
  -29.6714  -25.0629   22.1448 H   0  0  0  0  0  0
  -26.9988  -24.7860   20.7300 H   0  0  0  0  0  0
  -27.6389  -22.1365   20.7831 H   0  0  0  0  0  0
  -30.6082  -21.5467   20.1530 H   0  0  0  0  0  0
  -29.2579  -20.9380   19.2685 H   0  0  0  0  0  0
  -30.2734  -17.3604   22.1974 H   0  0  0  0  0  0
  -31.3221  -17.3959   20.8211 H   0  0  0  0  0  0
  -28.3792  -18.2947   20.5230 H   0  0  0  0  0  0
  -29.7007  -18.5924   19.4324 H   0  0  0  0  0  0
  -28.3981  -22.6733   22.8015 H   0  0  0  0  0  0
  -28.8965  -15.6266   20.9905 H   0  0  0  0  0  0
  -28.9416  -20.0156   21.8609 H   0  0  0  0  0  0
  -30.5144  -19.9365   21.5690 H   0  0  0  0  0  0
  1 25  1  0  0  0
  1 30  2  0  0  0
  1 79  1  0  0  0
  2  3  1  0  0  0
  2 25  1  0  0  0
  2 82  1  0  0  0
  2 83  1  0  0  0
  3  4  1  0  0  0
  3 84  1  0  0  0
  3 85  1  0  0  0
  4  5  1  0  0  0
  4 86  1  0  0  0
  4 87  1  0  0  0
  5  6  1  0  0  0
  5 26  1  0  0  0
  5 88  1  0  0  0
  6 25  1  0  0  0
  6 89  1  0  0  0
  6 90  1  0  0  0
  7  8  2  0  0  0
  7 26  1  0  0  0
  7 29  1  0  0  0
  8  9  1  0  0  0
  8 22  1  0  0  0
  9 10  1  0  0  0
  9 27  2  0  0  0
 10 11  2  0  0  0
 10 15  1  0  0  0
 11 12  1  0  0  0
 11 91  1  0  0  0
 12 13  2  0  0  0
 12 92  1  0  0  0
 13 14  1  0  0  0
 13 31  1  0  0  0
 14 15  2  0  0  0
 14 93  1  0  0  0
 15 94  1  0  0  0
 16 17  2  0  0  0
 16 21  1  0  0  0
 16 31  1  0  0  0
 17 18  1  0  0  0
 17 95  1  0  0  0
 18 19  2  0  0  0
 18 96  1  0  0  0
 19 20  1  0  0  0
 19 24  1  0  0  0
 20 21  2  0  0  0
 20 97  1  0  0  0
 21 23  1  0  0  0
 22 28  1  0  0  0
 22 32  2  0  0  0
 26 27  1  0  0  0
 28 98  1  0  0  0
 28 99  1  0  0  0
 29100  1  0  0  0
 29101  1  0  0  0
 33 34  1  0  0  0
 33 66  1  0  0  0
 33 70  2  0  0  0
 34 36  1  0  0  0
 34 59  1  0  0  0
 34102  1  0  0  0
 35 44  2  0  0  0
 35 45  1  0  0  0
 35 68  1  0  0  0
 36 56  1  0  0  0
 36103  1  0  0  0
 37 39  1  0  0  0
 37 47  1  0  0  0
 37 66  1  0  0  0
 37104  1  0  0  0
 38 43  2  0  0  0
 38 46  1  0  0  0
 38 47  1  0  0  0
 39 64  1  0  0  0
 39 67  2  0  0  0
 40 52  1  0  0  0
 40 53  2  0  0  0
 40 58  1  0  0  0
 41105  1  0  0  0
 41106  1  0  0  0
 41107  1  0  0  0
 41 48  1  0  0  0
 42 43  1  0  0  0
 42 66  1  0  0  0
 42108  1  0  0  0
 42109  1  0  0  0
 43 44  1  0  0  0
 44110  1  0  0  0
 45 46  2  0  0  0
 45111  1  0  0  0
 46112  1  0  0  0
 47113  1  0  0  0
 47114  1  0  0  0
 48 56  1  0  0  0
 48 65  1  0  0  0
 48115  1  0  0  0
 49 50  1  0  0  0
 49 53  1  0  0  0
 49 64  1  0  0  0
 49116  1  0  0  0
 50 51  1  0  0  0
 50117  1  0  0  0
 50118  1  0  0  0
 51 52  1  0  0  0
 51119  1  0  0  0
 51120  1  0  0  0
 52121  1  0  0  0
 52122  1  0  0  0
 53 54  1  0  0  0
 54 55  2  0  0  0
 54123  1  0  0  0
 55 57  1  0  0  0
 55124  1  0  0  0
 56 69  2  0  0  0
 57 58  2  0  0  0
 57125  1  0  0  0
 58126  1  0  0  0
 59 60  1  0  0  0
 59 61  1  0  0  0
 59 62  1  0  0  0
 60127  1  0  0  0
 60128  1  0  0  0
 60129  1  0  0  0
 61130  1  0  0  0
 61131  1  0  0  0
 61132  1  0  0  0
 62133  1  0  0  0
 62134  1  0  0  0
 62135  1  0  0  0
 63 65  1  0  0  0
 63136  1  0  0  0
 63137  1  0  0  0
 63138  1  0  0  0
 64139  1  0  0  0
 65140  1  0  0  0
 68 73  1  0  0  0
 71 73  1  0  0  0
 71 74  1  0  0  0
 71 81  2  0  0  0
 72 73  1  0  0  0
 72 78  1  0  0  0
 72141  1  0  0  0
 72142  1  0  0  0
 73143  1  0  0  0
 74 75  1  0  0  0
 74 78  1  0  0  0
 74144  1  0  0  0
 75 80  1  0  0  0
 75145  1  0  0  0
 75146  1  0  0  0
 76 77  1  0  0  0
 76 79  1  0  0  0
 76147  1  0  0  0
 76148  1  0  0  0
 77 80  1  0  0  0
 77149  1  0  0  0
 77150  1  0  0  0
 78151  1  0  0  0
 79152  1  0  0  0
 80153  1  0  0  0
 80154  1  0  0  0
M  CHG  1  80   1
M  ISO  4   1 100  68 101  73 101  79 100
M  END
> <chiral flag>
0

> <version>
0

> <s_m_source_file>
/data/baiqing/PycharmProjects/Reinvent-master-3.2/result/LINK_invent/BTK/process_docking_weight1_custom_sum_contain_oxygen_bond_distance_aromatic_linkinvent_7_9_3/rearranged_h_0135.sdf

> <i_m_source_file_index>
18

> <r_mmod_Potential_Energy-OPLS-2005>
-27.8370552062988

> <r_mmod_Stretch_Energy-OPLS-2005>
115.749992370605

> <r_mmod_Bend_Energy-OPLS-2005>
207.532608032227

> <r_mmod_Torsional_Energy-OPLS-2005>
223.402496337891

> <r_mmod_Improper_Torsional_Energy-OPLS-2005>
3.69520282745361

> <r_mmod_Van_der_Waal_Energy-OPLS-2005>
112.562484741211

> <r_mmod_Electrostatic_Energy-OPLS-2005>
-244.370193481445

> <r_mmod_Solvation_Energy-OPLS-2005>
-523.779418945312

> <b_mmod_Minimization_Converged-OPLS-2005>
0

> <r_mmod_RMS_Derivative-OPLS-2005>
4.40214347839355

$$$$
18
                    3D
 Structure written by MMmdl.
159168  0  0  1  0            999 V2000
  -30.4521  -15.2399   20.3570 C   0  0  0  0  0  0
  -30.4417  -12.7812   19.5457 C   0  0  0  0  0  0
  -29.5399  -12.5806   18.3024 C   0  0  0  0  0  0
  -28.0944  -12.2911   18.7356 C   0  0  0  0  0  0
  -27.6208  -13.2696   19.8384 C   0  0  2  0  0  0
  -28.6538  -13.4350   20.9770 C   0  0  0  0  0  0
  -25.2402  -13.8226   20.5710 C   0  0  0  0  0  0
  -24.1740  -13.0425   20.9186 C   0  0  0  0  0  0
  -24.6404  -11.6946   20.8735 C   0  0  0  0  0  0
  -23.9109  -10.4284   21.0419 C   0  0  0  0  0  0
  -24.3658   -9.4189   21.9188 C   0  0  0  0  0  0
  -23.6306   -8.2251   22.0761 C   0  0  0  0  0  0
  -22.4282   -8.0285   21.3562 C   0  0  0  0  0  0
  -21.9950   -9.0247   20.4655 C   0  0  0  0  0  0
  -22.7299  -10.2119   20.3052 C   0  0  0  0  0  0
  -21.6850   -6.0735   22.5264 C   0  0  0  0  0  0
  -21.4025   -6.5642   23.8191 C   0  0  0  0  0  0
  -21.3646   -5.6799   24.9153 C   0  0  0  0  0  0
  -21.6043   -4.3057   24.7211 C   0  0  0  0  0  0
  -21.8827   -3.8150   23.4329 C   0  0  0  0  0  0
  -21.9190   -4.6967   22.3391 C   0  0  0  0  0  0
  -22.7747  -13.5169   21.1841 C   0  0  0  0  0  0
  -22.1653   -4.2164   21.0963 F   0  0  0  0  0  0
  -21.5629   -3.4543   25.7722 F   0  0  0  0  0  0
  -29.9014  -13.9269   20.3663 N   0  0  0  0  0  0
  -26.2846  -12.9519   20.3307 N   0  0  0  0  0  0
  -25.9341  -11.6619   20.5779 N   0  0  0  0  0  0
  -22.0426  -12.8142   22.0418 N   0  0  0  0  0  0
  -25.4045  -15.1983   20.4142 N   0  0  0  0  0  0
  -31.6448  -15.2670   20.0279 O   0  0  0  0  0  0
  -21.6638   -6.8903   21.4235 O   0  0  0  0  0  0
  -22.3428  -14.5472   20.6703 O   0  0  0  0  0  0
  -24.6575  -31.8340   23.1678 C   0  0  0  0  0  0
  -25.9296  -32.4665   23.8142 C   0  0  1  0  0  0
  -27.2293  -26.9672   20.1766 C   0  0  0  0  0  0
  -25.6012  -33.8455   24.2095 N   0  0  0  0  0  0
  -23.4662  -30.4378   21.5189 C   0  0  2  0  0  0
  -24.9164  -28.8170   20.1177 C   0  0  0  0  0  0
  -22.7640  -29.4476   22.4835 C   0  0  0  0  0  0
  -18.0330  -28.1471   22.8487 C   0  0  0  0  0  0
  -24.1431  -36.7197   23.2642 C   0  0  0  0  0  0
  -26.0294  -30.6493   21.3827 C   0  0  0  0  0  0
  -26.0989  -29.2322   20.7459 C   0  0  0  0  0  0
  -27.2463  -28.3271   20.7522 C   0  0  0  0  0  0
  -26.0170  -26.6924   19.5037 C   0  0  0  0  0  0
  -24.8949  -27.5603   19.4861 C   0  0  0  0  0  0
  -23.7038  -29.7464   20.1452 C   0  0  0  0  0  0
  -25.4088  -36.2993   24.0312 C   0  0  1  0  0  0
  -20.5951  -28.3791   23.1279 C   0  0  2  0  0  0
  -20.6804  -26.9496   22.5428 C   0  0  0  0  0  0
  -19.5755  -26.6453   21.5248 C   0  0  0  0  0  0
  -18.1949  -26.8018   22.1655 C   0  0  0  0  0  0
  -19.1596  -28.8946   23.2883 C   0  0  0  0  0  0
  -18.9497  -30.1565   23.8876 C   0  0  0  0  0  0
  -17.6494  -30.6660   24.0601 C   0  0  0  0  0  0
  -25.9061  -34.9391   23.4998 C   0  0  0  0  0  0
  -16.5389  -29.9142   23.6396 C   0  0  0  0  0  0
  -16.7322  -28.6587   23.0375 C   0  0  0  0  0  0
  -26.4524  -31.6575   25.0645 C   0  0  0  0  0  0
  -25.3651  -31.3876   26.1312 C   0  0  0  0  0  0
  -27.0395  -30.2951   24.6297 C   0  0  0  0  0  0
  -27.6063  -32.4295   25.7451 C   0  0  0  0  0  0
  -27.5530  -37.1771   24.8484 C   0  0  0  0  0  0
  -21.4317  -29.3090   22.3628 N   0  0  0  0  0  0
  -26.4230  -37.3744   23.9438 N   0  0  0  0  0  0
  -24.7393  -31.0023   22.0771 N   0  0  0  0  0  0
  -23.4206  -28.8087   23.3112 O   0  0  0  0  0  0
  -28.3184  -25.9642   20.1842 O   0  0  0  0  0  0
  -26.5641  -34.8929   22.4571 O   0  0  0  0  0  0
  -23.5692  -32.1295   23.6850 O   0  0  0  0  0  0
  -29.9398  -22.3418   19.6763 C   0  0  0  0  0  0
  -29.6309  -23.7795   19.5844 C   0  0  0  0  0  0
  -27.9545  -22.0557   20.7747 C   0  0  0  0  0  0
  -29.1376  -21.3152   20.3166 C   0  0  0  0  0  0
  -28.4627  -24.4372   20.1218 C   0  0  0  0  0  0
  -31.1842  -20.5529   24.0888 C   0  0  0  0  0  0
  -32.1528  -19.6045   23.3931 C   0  0  0  0  0  0
  -30.1535  -20.8274   22.9900 C   0  0  0  0  0  0
  -31.2314  -18.7546   22.5015 C   0  0  0  0  0  0
  -29.5740  -18.0649   19.9840 C   0  0  0  0  0  0
  -29.7109  -19.6988   20.7189 C   0  0  2  0  0  0
  -27.6476  -23.4622   20.7060 N   0  0  0  0  0  0
  -29.6785  -16.4877   20.5363 N   0  0  0  0  0  0
  -30.0244  -19.5730   22.1882 N   0  3  0  0  0  0
  -31.4710  -12.9596   19.2311 H   0  0  0  0  0  0
  -30.4771  -11.8680   20.1407 H   0  0  0  0  0  0
  -29.9209  -11.7714   17.6794 H   0  0  0  0  0  0
  -29.5611  -13.4781   17.6845 H   0  0  0  0  0  0
  -28.0686  -11.2708   19.1186 H   0  0  0  0  0  0
  -27.4198  -12.3122   17.8794 H   0  0  0  0  0  0
  -27.5451  -14.2348   19.3375 H   0  0  0  0  0  0
  -28.8093  -12.4989   21.5154 H   0  0  0  0  0  0
  -28.2941  -14.1540   21.7135 H   0  0  0  0  0  0
  -25.2823   -9.5639   22.4748 H   0  0  0  0  0  0
  -23.9987   -7.4649   22.7496 H   0  0  0  0  0  0
  -21.0881   -8.8775   19.8971 H   0  0  0  0  0  0
  -22.3770  -10.9636   19.6137 H   0  0  0  0  0  0
  -21.2033   -7.6153   23.9697 H   0  0  0  0  0  0
  -21.1456   -6.0530   25.9061 H   0  0  0  0  0  0
  -22.0624   -2.7615   23.2804 H   0  0  0  0  0  0
  -22.4089  -11.9790   22.4748 H   0  0  0  0  0  0
  -21.1037  -13.1146   22.2696 H   0  0  0  0  0  0
  -24.6316  -15.8491   20.5072 H   0  0  0  0  0  0
  -26.2645  -15.6455   20.1242 H   0  0  0  0  0  0
  -26.7354  -32.5218   23.0849 H   0  0  0  0  0  0
  -25.0256  -33.9529   25.0317 H   0  0  0  0  0  0
  -22.7783  -31.2672   21.3486 H   0  0  0  0  0  0
  -23.3728  -35.9478   23.3280 H   0  0  0  0  0  0
  -24.3522  -36.8853   22.2058 H   0  0  0  0  0  0
  -23.7123  -37.6355   23.6672 H   0  0  0  0  0  0
  -26.1844  -31.3804   20.5875 H   0  0  0  0  0  0
  -26.8973  -30.7319   22.0217 H   0  0  0  0  0  0
  -28.1475  -28.6532   21.2539 H   0  0  0  0  0  0
  -25.9213  -25.7398   19.0049 H   0  0  0  0  0  0
  -23.9937  -27.2273   18.9837 H   0  0  0  0  0  0
  -23.8743  -30.5108   19.3885 H   0  0  0  0  0  0
  -22.8068  -29.2165   19.8226 H   0  0  0  0  0  0
  -25.1274  -36.1773   25.0813 H   0  0  0  0  0  0
  -21.0084  -28.3342   24.1383 H   0  0  0  0  0  0
  -20.5745  -26.2406   23.3645 H   0  0  0  0  0  0
  -21.6686  -26.7495   22.1218 H   0  0  0  0  0  0
  -19.6879  -25.6345   21.1327 H   0  0  0  0  0  0
  -19.6694  -27.3215   20.6736 H   0  0  0  0  0  0
  -17.4250  -26.6844   21.4030 H   0  0  0  0  0  0
  -18.0293  -26.0153   22.9047 H   0  0  0  0  0  0
  -19.7961  -30.7454   24.2191 H   0  0  0  0  0  0
  -17.5032  -31.6333   24.5222 H   0  0  0  0  0  0
  -15.5384  -30.3066   23.7725 H   0  0  0  0  0  0
  -15.8731  -28.0936   22.7060 H   0  0  0  0  0  0
  -24.5889  -30.7100   25.7744 H   0  0  0  0  0  0
  -24.8757  -32.3093   26.4436 H   0  0  0  0  0  0
  -25.7955  -30.9325   27.0247 H   0  0  0  0  0  0
  -26.3020  -29.6692   24.1240 H   0  0  0  0  0  0
  -27.3913  -29.7233   25.4905 H   0  0  0  0  0  0
  -27.8989  -30.4178   23.9693 H   0  0  0  0  0  0
  -27.2705  -33.3736   26.1714 H   0  0  0  0  0  0
  -28.4074  -32.6584   25.0423 H   0  0  0  0  0  0
  -28.0424  -31.8546   26.5597 H   0  0  0  0  0  0
  -28.2579  -38.0058   24.7619 H   0  0  0  0  0  0
  -28.0997  -36.2613   24.6200 H   0  0  0  0  0  0
  -27.2303  -37.1356   25.8909 H   0  0  0  0  0  0
  -20.9539  -29.8764   21.6757 H   0  0  0  0  0  0
  -26.0054  -38.2770   24.1558 H   0  0  0  0  0  0
  -30.8959  -22.0376   19.2751 H   0  0  0  0  0  0
  -30.3703  -24.4146   19.1151 H   0  0  0  0  0  0
  -27.2149  -21.4894   21.3219 H   0  0  0  0  0  0
  -31.6779  -21.4609   24.4434 H   0  0  0  0  0  0
  -30.7168  -20.0656   24.9455 H   0  0  0  0  0  0
  -32.7422  -19.0037   24.0875 H   0  0  0  0  0  0
  -32.8537  -20.1778   22.7837 H   0  0  0  0  0  0
  -30.5614  -21.6417   22.3904 H   0  0  0  0  0  0
  -29.1936  -21.1534   23.3956 H   0  0  0  0  0  0
  -30.9080  -17.8698   23.0471 H   0  0  0  0  0  0
  -31.7679  -18.4074   21.6194 H   0  0  0  0  0  0
  -30.2059  -18.0879   19.0935 H   0  0  0  0  0  0
  -28.5672  -18.0658   19.5633 H   0  0  0  0  0  0
  -30.7146  -19.9099   20.3418 H   0  0  0  0  0  0
  -28.7779  -16.2197   20.9034 H   0  0  0  0  0  0
  -29.2443  -19.0731   22.5920 H   0  0  0  0  0  0
  1 25  1  0  0  0
  1 30  2  0  0  0
  1 83  1  0  0  0
  2  3  1  0  0  0
  2 25  1  0  0  0
  2 85  1  0  0  0
  2 86  1  0  0  0
  3  4  1  0  0  0
  3 87  1  0  0  0
  3 88  1  0  0  0
  4  5  1  0  0  0
  4 89  1  0  0  0
  4 90  1  0  0  0
  5  6  1  0  0  0
  5 26  1  0  0  0
  5 91  1  0  0  0
  6 25  1  0  0  0
  6 92  1  0  0  0
  6 93  1  0  0  0
  7  8  2  0  0  0
  7 26  1  0  0  0
  7 29  1  0  0  0
  8  9  1  0  0  0
  8 22  1  0  0  0
  9 10  1  0  0  0
  9 27  2  0  0  0
 10 11  2  0  0  0
 10 15  1  0  0  0
 11 12  1  0  0  0
 11 94  1  0  0  0
 12 13  2  0  0  0
 12 95  1  0  0  0
 13 14  1  0  0  0
 13 31  1  0  0  0
 14 15  2  0  0  0
 14 96  1  0  0  0
 15 97  1  0  0  0
 16 17  2  0  0  0
 16 21  1  0  0  0
 16 31  1  0  0  0
 17 18  1  0  0  0
 17 98  1  0  0  0
 18 19  2  0  0  0
 18 99  1  0  0  0
 19 20  1  0  0  0
 19 24  1  0  0  0
 20 21  2  0  0  0
 20100  1  0  0  0
 21 23  1  0  0  0
 22 28  1  0  0  0
 22 32  2  0  0  0
 26 27  1  0  0  0
 28101  1  0  0  0
 28102  1  0  0  0
 29103  1  0  0  0
 29104  1  0  0  0
 33 34  1  0  0  0
 33 66  1  0  0  0
 33 70  2  0  0  0
 34 36  1  0  0  0
 34 59  1  0  0  0
 34105  1  0  0  0
 35 44  2  0  0  0
 35 45  1  0  0  0
 35 68  1  0  0  0
 36 56  1  0  0  0
 36106  1  0  0  0
 37 39  1  0  0  0
 37 47  1  0  0  0
 37 66  1  0  0  0
 37107  1  0  0  0
 38 43  2  0  0  0
 38 46  1  0  0  0
 38 47  1  0  0  0
 39 64  1  0  0  0
 39 67  2  0  0  0
 40 52  1  0  0  0
 40 53  2  0  0  0
 40 58  1  0  0  0
 41108  1  0  0  0
 41109  1  0  0  0
 41110  1  0  0  0
 41 48  1  0  0  0
 42 43  1  0  0  0
 42 66  1  0  0  0
 42111  1  0  0  0
 42112  1  0  0  0
 43 44  1  0  0  0
 44113  1  0  0  0
 45 46  2  0  0  0
 45114  1  0  0  0
 46115  1  0  0  0
 47116  1  0  0  0
 47117  1  0  0  0
 48 56  1  0  0  0
 48 65  1  0  0  0
 48118  1  0  0  0
 49 50  1  0  0  0
 49 53  1  0  0  0
 49 64  1  0  0  0
 49119  1  0  0  0
 50 51  1  0  0  0
 50120  1  0  0  0
 50121  1  0  0  0
 51 52  1  0  0  0
 51122  1  0  0  0
 51123  1  0  0  0
 52124  1  0  0  0
 52125  1  0  0  0
 53 54  1  0  0  0
 54 55  2  0  0  0
 54126  1  0  0  0
 55 57  1  0  0  0
 55127  1  0  0  0
 56 69  2  0  0  0
 57 58  2  0  0  0
 57128  1  0  0  0
 58129  1  0  0  0
 59 60  1  0  0  0
 59 61  1  0  0  0
 59 62  1  0  0  0
 60130  1  0  0  0
 60131  1  0  0  0
 60132  1  0  0  0
 61133  1  0  0  0
 61134  1  0  0  0
 61135  1  0  0  0
 62136  1  0  0  0
 62137  1  0  0  0
 62138  1  0  0  0
 63 65  1  0  0  0
 63139  1  0  0  0
 63140  1  0  0  0
 63141  1  0  0  0
 64142  1  0  0  0
 65143  1  0  0  0
 68 75  1  0  0  0
 71 72  2  0  0  0
 71 74  1  0  0  0
 71144  1  0  0  0
 72 75  1  0  0  0
 72145  1  0  0  0
 73 74  2  0  0  0
 73 82  1  0  0  0
 73146  1  0  0  0
 74 81  1  0  0  0
 75 82  2  0  0  0
 76 77  1  0  0  0
 76 78  1  0  0  0
 76147  1  0  0  0
 76148  1  0  0  0
 77 79  1  0  0  0
 77149  1  0  0  0
 77150  1  0  0  0
 78151  1  0  0  0
 78152  1  0  0  0
 78 84  1  0  0  0
 79 84  1  0  0  0
 79153  1  0  0  0
 79154  1  0  0  0
 80 83  1  0  0  0
 80155  1  0  0  0
 80156  1  0  0  0
 80 81  1  0  0  0
 81 84  1  0  0  0
 81157  1  0  0  0
 83158  1  0  0  0
 84159  1  0  0  0
M  CHG  1  84   1
M  ISO  4   1 100  68 101  75 101  83 100
M  END
> <chiral flag>
0

> <version>
0

> <s_m_source_file>
/data/baiqing/PycharmProjects/Reinvent-master-3.2/result/LINK_invent/BTK/process_docking_weight1_custom_sum_contain_oxygen_bond_distance_aromatic_linkinvent_7_9_3/rearranged_h_0135.sdf

> <i_m_source_file_index>
19

> <r_mmod_Potential_Energy-OPLS-2005>
981.059875488281

> <r_mmod_Stretch_Energy-OPLS-2005>
497.038696289062

> <r_mmod_Bend_Energy-OPLS-2005>
506.230133056641

> <r_mmod_Torsional_Energy-OPLS-2005>
317.439788818359

> <r_mmod_Improper_Torsional_Energy-OPLS-2005>
8.08924198150635

> <r_mmod_Van_der_Waal_Energy-OPLS-2005>
129.276458740234

> <r_mmod_Electrostatic_Energy-OPLS-2005>
-413.608795166016

> <r_mmod_Solvation_Energy-OPLS-2005>
-465.786010742188

> <b_mmod_Minimization_Converged-OPLS-2005>
0

> <r_mmod_RMS_Derivative-OPLS-2005>
6.52014684677124

$$$$
19
                    3D
 Structure written by MMmdl.
162170  0  0  1  0            999 V2000
  -30.7384  -14.4169   20.5561 C   0  0  0  0  0  0
  -30.4084  -12.2612   19.4391 C   0  0  0  0  0  0
  -29.4973  -12.4849   18.2148 C   0  0  0  0  0  0
  -28.0148  -12.3689   18.6184 C   0  0  0  0  0  0
  -27.6630  -13.2099   19.8758 C   0  0  2  0  0  0
  -28.7001  -12.9962   21.0058 C   0  0  0  0  0  0
  -25.2584  -13.8167   20.5676 C   0  0  0  0  0  0
  -24.1843  -13.0447   20.9200 C   0  0  0  0  0  0
  -24.6394  -11.6916   20.8730 C   0  0  0  0  0  0
  -23.9056  -10.4304   21.0388 C   0  0  0  0  0  0
  -24.3607   -9.4219   21.9168 C   0  0  0  0  0  0
  -23.6283   -8.2252   22.0750 C   0  0  0  0  0  0
  -22.4261   -8.0287   21.3547 C   0  0  0  0  0  0
  -21.9890   -9.0259   20.4651 C   0  0  0  0  0  0
  -22.7219  -10.2136   20.3050 C   0  0  0  0  0  0
  -21.6859   -6.0729   22.5276 C   0  0  0  0  0  0
  -21.4025   -6.5637   23.8208 C   0  0  0  0  0  0
  -21.3656   -5.6786   24.9163 C   0  0  0  0  0  0
  -21.6037   -4.3049   24.7216 C   0  0  0  0  0  0
  -21.8823   -3.8143   23.4338 C   0  0  0  0  0  0
  -21.9197   -4.6958   22.3392 C   0  0  0  0  0  0
  -22.7857  -13.5241   21.1833 C   0  0  0  0  0  0
  -22.1667   -4.2149   21.0969 F   0  0  0  0  0  0
  -21.5617   -3.4532   25.7723 F   0  0  0  0  0  0
  -30.0417  -13.2542   20.4620 N   0  0  0  0  0  0
  -26.3024  -12.9349   20.3358 N   0  0  0  0  0  0
  -25.9325  -11.6513   20.5776 N   0  0  0  0  0  0
  -22.0485  -12.8261   22.0396 N   0  0  0  0  0  0
  -25.4299  -15.1886   20.4077 N   0  0  0  0  0  0
  -31.8466  -14.5849   20.0313 O   0  0  0  0  0  0
  -21.6647   -6.8868   21.4235 O   0  0  0  0  0  0
  -22.3542  -14.5525   20.6638 O   0  0  0  0  0  0
  -24.6094  -31.8711   23.2117 C   0  0  0  0  0  0
  -25.9003  -32.4838   23.8406 C   0  0  1  0  0  0
  -27.2463  -27.4734   20.1127 C   0  0  0  0  0  0
  -25.5877  -33.8638   24.2343 N   0  0  0  0  0  0
  -23.3964  -30.4922   21.5490 C   0  0  2  0  0  0
  -24.8475  -28.9632   20.1102 C   0  0  0  0  0  0
  -22.7377  -29.4673   22.4992 C   0  0  0  0  0  0
  -18.0266  -28.1387   22.8493 C   0  0  0  0  0  0
  -24.1486  -36.7325   23.2644 C   0  0  0  0  0  0
  -25.9177  -30.8541   21.3551 C   0  0  0  0  0  0
  -25.9994  -29.4913   20.7057 C   0  0  0  0  0  0
  -27.2012  -28.7572   20.7021 C   0  0  0  0  0  0
  -26.0883  -26.9605   19.4945 C   0  0  0  0  0  0
  -24.8861  -27.6959   19.4983 C   0  0  0  0  0  0
  -23.6030  -29.8199   20.1632 C   0  0  0  0  0  0
  -25.4106  -36.3119   24.0341 C   0  0  1  0  0  0
  -20.5847  -28.3662   23.1330 C   0  0  2  0  0  0
  -20.6752  -26.9400   22.5426 C   0  0  0  0  0  0
  -19.5731  -26.6386   21.5224 C   0  0  0  0  0  0
  -18.1910  -26.7930   22.1630 C   0  0  0  0  0  0
  -19.1513  -28.8838   23.2909 C   0  0  0  0  0  0
  -18.9452  -30.1443   23.8918 C   0  0  0  0  0  0
  -17.6460  -30.6590   24.0573 C   0  0  0  0  0  0
  -25.9027  -34.9483   23.5134 C   0  0  0  0  0  0
  -16.5347  -29.9099   23.6331 C   0  0  0  0  0  0
  -16.7255  -28.6518   23.0339 C   0  0  0  0  0  0
  -26.4454  -31.6594   25.0710 C   0  0  0  0  0  0
  -25.3749  -31.3675   26.1476 C   0  0  0  0  0  0
  -27.0278  -30.3046   24.6047 C   0  0  0  0  0  0
  -27.6030  -32.4306   25.7478 C   0  0  0  0  0  0
  -27.5582  -37.1812   24.8466 C   0  0  0  0  0  0
  -21.4106  -29.3037   22.3740 N   0  0  0  0  0  0
  -26.4298  -37.3791   23.9407 N   0  0  0  0  0  0
  -24.6589  -31.0856   22.0988 N   0  0  0  0  0  0
  -23.4172  -28.8235   23.3029 O   0  0  0  0  0  0
  -28.3778  -26.6891   20.1377 O   0  0  0  0  0  0
  -26.5587  -34.8920   22.4692 O   0  0  0  0  0  0
  -23.5296  -32.1437   23.7547 O   0  0  0  0  0  0
  -29.7218  -17.9357   21.3707 C   0  0  0  0  0  0
  -29.9492  -19.2175   21.0246 C   0  0  0  0  0  0
  -30.2936  -16.8439   20.6682 C   0  0  0  0  0  0
  -30.8004  -19.5947   19.8145 C   0  0  0  0  0  0
  -31.1795  -18.4119   18.9086 C   0  0  0  0  0  0
  -30.9941  -22.1609   21.5277 C   0  0  0  0  0  0
  -31.1639  -23.5381   22.1985 C   0  0  0  0  0  0
  -29.3019  -25.1728   21.8363 C   0  0  0  0  0  0
  -29.5541  -21.6025   21.4506 C   0  0  0  0  0  0
  -29.0367  -26.6298   21.4097 C   0  0  0  0  0  0
  -31.0499  -17.1123   19.5767 N   0  3  0  0  0  0
  -30.0575  -15.5671   21.0862 N   0  0  0  0  0  0
  -30.6369  -24.6833   21.4165 N   0  3  0  0  0  0
  -29.4352  -20.2216   21.8249 O   0  0  0  0  0  0
  -31.4589  -12.3193   19.1494 H   0  0  0  0  0  0
  -30.2712  -11.2544   19.8353 H   0  0  0  0  0  0
  -29.7281  -11.7539   17.4370 H   0  0  0  0  0  0
  -29.6899  -13.4662   17.7779 H   0  0  0  0  0  0
  -27.8092  -11.3147   18.8091 H   0  0  0  0  0  0
  -27.3742  -12.6545   17.7830 H   0  0  0  0  0  0
  -27.7059  -14.2573   19.5751 H   0  0  0  0  0  0
  -28.6519  -11.9695   21.3710 H   0  0  0  0  0  0
  -28.4715  -13.6238   21.8681 H   0  0  0  0  0  0
  -25.2752   -9.5700   22.4731 H   0  0  0  0  0  0
  -24.0003   -7.4646   22.7459 H   0  0  0  0  0  0
  -21.0826   -8.8763   19.8959 H   0  0  0  0  0  0
  -22.3671  -10.9660   19.6152 H   0  0  0  0  0  0
  -21.2033   -7.6147   23.9714 H   0  0  0  0  0  0
  -21.1467   -6.0512   25.9068 H   0  0  0  0  0  0
  -22.0607   -2.7610   23.2830 H   0  0  0  0  0  0
  -22.4098  -11.9944   22.4817 H   0  0  0  0  0  0
  -21.1082  -13.1283   22.2545 H   0  0  0  0  0  0
  -24.6545  -15.8349   20.5052 H   0  0  0  0  0  0
  -26.2636  -15.6270   20.0386 H   0  0  0  0  0  0
  -26.7086  -32.5579   23.1189 H   0  0  0  0  0  0
  -25.0028  -33.9815   25.0488 H   0  0  0  0  0  0
  -22.6831  -31.3072   21.4098 H   0  0  0  0  0  0
  -23.3736  -35.9673   23.3331 H   0  0  0  0  0  0
  -24.3581  -36.8911   22.2055 H   0  0  0  0  0  0
  -23.7250  -37.6545   23.6638 H   0  0  0  0  0  0
  -26.0197  -31.6211   20.5868 H   0  0  0  0  0  0
  -26.8082  -30.9133   21.9681 H   0  0  0  0  0  0
  -28.0850  -29.1804   21.1588 H   0  0  0  0  0  0
  -26.1131  -25.9825   19.0348 H   0  0  0  0  0  0
  -24.0018  -27.2822   19.0327 H   0  0  0  0  0  0
  -23.7026  -30.5939   19.4009 H   0  0  0  0  0  0
  -22.7304  -29.2311   19.8734 H   0  0  0  0  0  0
  -25.1288  -36.1993   25.0836 H   0  0  0  0  0  0
  -20.9941  -28.3226   24.1447 H   0  0  0  0  0  0
  -20.5662  -26.2273   23.3614 H   0  0  0  0  0  0
  -21.6630  -26.7449   22.1227 H   0  0  0  0  0  0
  -19.6899  -25.6302   21.1244 H   0  0  0  0  0  0
  -19.6684  -27.3210   20.6769 H   0  0  0  0  0  0
  -17.4191  -26.6687   21.4021 H   0  0  0  0  0  0
  -18.0303  -26.0070   22.9024 H   0  0  0  0  0  0
  -19.7927  -30.7245   24.2301 H   0  0  0  0  0  0
  -17.5020  -31.6269   24.5173 H   0  0  0  0  0  0
  -15.5347  -30.3017   23.7641 H   0  0  0  0  0  0
  -15.8648  -28.0853   22.7033 H   0  0  0  0  0  0
  -24.5890  -30.7057   25.7814 H   0  0  0  0  0  0
  -24.8982  -32.2836   26.4981 H   0  0  0  0  0  0
  -25.8132  -30.8794   27.0191 H   0  0  0  0  0  0
  -26.2797  -29.6783   24.1165 H   0  0  0  0  0  0
  -27.4125  -29.7302   25.4487 H   0  0  0  0  0  0
  -27.8591  -30.4388   23.9122 H   0  0  0  0  0  0
  -27.2639  -33.3573   26.2115 H   0  0  0  0  0  0
  -28.3812  -32.6913   25.0298 H   0  0  0  0  0  0
  -28.0730  -31.8397   26.5348 H   0  0  0  0  0  0
  -28.2606  -38.0099   24.7489 H   0  0  0  0  0  0
  -28.1060  -36.2626   24.6318 H   0  0  0  0  0  0
  -27.2298  -37.1505   25.8867 H   0  0  0  0  0  0
  -20.9257  -29.8756   21.6967 H   0  0  0  0  0  0
  -26.0189  -38.2874   24.1390 H   0  0  0  0  0  0
  -29.1284  -17.7109   22.2448 H   0  0  0  0  0  0
  -31.7359  -20.0250   20.1649 H   0  0  0  0  0  0
  -30.2946  -20.3461   19.2075 H   0  0  0  0  0  0
  -32.1896  -18.5322   18.5133 H   0  0  0  0  0  0
  -30.5129  -18.3971   18.0459 H   0  0  0  0  0  0
  -31.5998  -21.4585   22.1020 H   0  0  0  0  0  0
  -31.4408  -22.1935   20.5339 H   0  0  0  0  0  0
  -32.2350  -23.7134   22.3071 H   0  0  0  0  0  0
  -30.7744  -23.5234   23.2179 H   0  0  0  0  0  0
  -28.5098  -24.5100   21.4880 H   0  0  0  0  0  0
  -29.2599  -25.1524   22.9265 H   0  0  0  0  0  0
  -29.0982  -21.7926   20.4783 H   0  0  0  0  0  0
  -28.9325  -22.1429   22.1661 H   0  0  0  0  0  0
  -29.9529  -27.2212   21.3890 H   0  0  0  0  0  0
  -28.4203  -27.0655   22.1987 H   0  0  0  0  0  0
  -31.5788  -16.3416   19.1773 H   0  0  0  0  0  0
  -29.2658  -15.4656   21.6958 H   0  0  0  0  0  0
  -30.6579  -24.4899   20.4270 H   0  0  0  0  0  0
  -31.2866  -25.4399   21.5700 H   0  0  0  0  0  0
  1 25  1  0  0  0
  1 30  2  0  0  0
  1 82  1  0  0  0
  2  3  1  0  0  0
  2 25  1  0  0  0
  2 85  1  0  0  0
  2 86  1  0  0  0
  3  4  1  0  0  0
  3 87  1  0  0  0
  3 88  1  0  0  0
  4  5  1  0  0  0
  4 89  1  0  0  0
  4 90  1  0  0  0
  5  6  1  0  0  0
  5 26  1  0  0  0
  5 91  1  0  0  0
  6 25  1  0  0  0
  6 92  1  0  0  0
  6 93  1  0  0  0
  7  8  2  0  0  0
  7 26  1  0  0  0
  7 29  1  0  0  0
  8  9  1  0  0  0
  8 22  1  0  0  0
  9 10  1  0  0  0
  9 27  2  0  0  0
 10 11  2  0  0  0
 10 15  1  0  0  0
 11 12  1  0  0  0
 11 94  1  0  0  0
 12 13  2  0  0  0
 12 95  1  0  0  0
 13 14  1  0  0  0
 13 31  1  0  0  0
 14 15  2  0  0  0
 14 96  1  0  0  0
 15 97  1  0  0  0
 16 17  2  0  0  0
 16 21  1  0  0  0
 16 31  1  0  0  0
 17 18  1  0  0  0
 17 98  1  0  0  0
 18 19  2  0  0  0
 18 99  1  0  0  0
 19 20  1  0  0  0
 19 24  1  0  0  0
 20 21  2  0  0  0
 20100  1  0  0  0
 21 23  1  0  0  0
 22 28  1  0  0  0
 22 32  2  0  0  0
 26 27  1  0  0  0
 28101  1  0  0  0
 28102  1  0  0  0
 29103  1  0  0  0
 29104  1  0  0  0
 33 34  1  0  0  0
 33 66  1  0  0  0
 33 70  2  0  0  0
 34 36  1  0  0  0
 34 59  1  0  0  0
 34105  1  0  0  0
 35 44  2  0  0  0
 35 45  1  0  0  0
 35 68  1  0  0  0
 36 56  1  0  0  0
 36106  1  0  0  0
 37 39  1  0  0  0
 37 47  1  0  0  0
 37 66  1  0  0  0
 37107  1  0  0  0
 38 43  2  0  0  0
 38 46  1  0  0  0
 38 47  1  0  0  0
 39 64  1  0  0  0
 39 67  2  0  0  0
 40 52  1  0  0  0
 40 53  2  0  0  0
 40 58  1  0  0  0
 41108  1  0  0  0
 41109  1  0  0  0
 41110  1  0  0  0
 41 48  1  0  0  0
 42 43  1  0  0  0
 42 66  1  0  0  0
 42111  1  0  0  0
 42112  1  0  0  0
 43 44  1  0  0  0
 44113  1  0  0  0
 45 46  2  0  0  0
 45114  1  0  0  0
 46115  1  0  0  0
 47116  1  0  0  0
 47117  1  0  0  0
 48 56  1  0  0  0
 48 65  1  0  0  0
 48118  1  0  0  0
 49 50  1  0  0  0
 49 53  1  0  0  0
 49 64  1  0  0  0
 49119  1  0  0  0
 50 51  1  0  0  0
 50120  1  0  0  0
 50121  1  0  0  0
 51 52  1  0  0  0
 51122  1  0  0  0
 51123  1  0  0  0
 52124  1  0  0  0
 52125  1  0  0  0
 53 54  1  0  0  0
 54 55  2  0  0  0
 54126  1  0  0  0
 55 57  1  0  0  0
 55127  1  0  0  0
 56 69  2  0  0  0
 57 58  2  0  0  0
 57128  1  0  0  0
 58129  1  0  0  0
 59 60  1  0  0  0
 59 61  1  0  0  0
 59 62  1  0  0  0
 60130  1  0  0  0
 60131  1  0  0  0
 60132  1  0  0  0
 61133  1  0  0  0
 61134  1  0  0  0
 61135  1  0  0  0
 62136  1  0  0  0
 62137  1  0  0  0
 62138  1  0  0  0
 63 65  1  0  0  0
 63139  1  0  0  0
 63140  1  0  0  0
 63141  1  0  0  0
 64142  1  0  0  0
 65143  1  0  0  0
 68 80  1  0  0  0
 71 72  2  0  0  0
 71 73  1  0  0  0
 71144  1  0  0  0
 72 74  1  0  0  0
 72 84  1  0  0  0
 73 81  2  0  0  0
 73 82  1  0  0  0
 74 75  1  0  0  0
 74145  1  0  0  0
 74146  1  0  0  0
 75 81  1  0  0  0
 75147  1  0  0  0
 75148  1  0  0  0
 76 77  1  0  0  0
 76 79  1  0  0  0
 76149  1  0  0  0
 76150  1  0  0  0
 77 83  1  0  0  0
 77151  1  0  0  0
 77152  1  0  0  0
 78 80  1  0  0  0
 78 83  1  0  0  0
 78153  1  0  0  0
 78154  1  0  0  0
 79 84  1  0  0  0
 79155  1  0  0  0
 79156  1  0  0  0
 80157  1  0  0  0
 80158  1  0  0  0
 81159  1  0  0  0
 82160  1  0  0  0
 83161  1  0  0  0
 83162  1  0  0  0
M  CHG  2  81   1  83   1
M  ISO  4   1 100  68 101  80 101  82 100
M  END
> <chiral flag>
0

> <version>
0

> <s_m_source_file>
/data/baiqing/PycharmProjects/Reinvent-master-3.2/result/LINK_invent/BTK/process_docking_weight1_custom_sum_contain_oxygen_bond_distance_aromatic_linkinvent_7_9_3/rearranged_h_0135.sdf

> <i_m_source_file_index>
20

> <r_mmod_Potential_Energy-OPLS-2005>
-234.83805847168

> <r_mmod_Stretch_Energy-OPLS-2005>
35.7276191711426

> <r_mmod_Bend_Energy-OPLS-2005>
119.186264038086

> <r_mmod_Torsional_Energy-OPLS-2005>
266.788269042969

> <r_mmod_Improper_Torsional_Energy-OPLS-2005>
5.5911808013916

> <r_mmod_Van_der_Waal_Energy-OPLS-2005>
162.382766723633

> <r_mmod_Electrostatic_Energy-OPLS-2005>
1.59311652183533

> <r_mmod_Solvation_Energy-OPLS-2005>
-837.093872070312

> <b_mmod_Minimization_Converged-OPLS-2005>
0

> <r_mmod_RMS_Derivative-OPLS-2005>
1.98959767818451

$$$$
20
                    3D
 Structure written by MMmdl.
163172  0  0  1  0            999 V2000
  -30.7147  -14.4822   20.5864 C   0  0  0  0  0  0
  -30.4229  -12.3212   19.4229 C   0  0  0  0  0  0
  -29.4934  -12.5050   18.2076 C   0  0  0  0  0  0
  -28.0199  -12.3507   18.6281 C   0  0  0  0  0  0
  -27.6609  -13.2060   19.8737 C   0  0  2  0  0  0
  -28.7041  -13.0074   20.9965 C   0  0  0  0  0  0
  -25.2593  -13.8141   20.5669 C   0  0  0  0  0  0
  -24.1845  -13.0425   20.9172 C   0  0  0  0  0  0
  -24.6393  -11.6891   20.8738 C   0  0  0  0  0  0
  -23.9066  -10.4286   21.0422 C   0  0  0  0  0  0
  -24.3621   -9.4196   21.9196 C   0  0  0  0  0  0
  -23.6277   -8.2244   22.0755 C   0  0  0  0  0  0
  -22.4264   -8.0296   21.3540 C   0  0  0  0  0  0
  -21.9906   -9.0277   20.4654 C   0  0  0  0  0  0
  -22.7241  -10.2150   20.3069 C   0  0  0  0  0  0
  -21.6844   -6.0745   22.5278 C   0  0  0  0  0  0
  -21.4018   -6.5641   23.8219 C   0  0  0  0  0  0
  -21.3659   -5.6795   24.9172 C   0  0  0  0  0  0
  -21.6040   -4.3055   24.7225 C   0  0  0  0  0  0
  -21.8809   -3.8150   23.4338 C   0  0  0  0  0  0
  -21.9189   -4.6969   22.3396 C   0  0  0  0  0  0
  -22.7875  -13.5246   21.1839 C   0  0  0  0  0  0
  -22.1648   -4.2156   21.0969 F   0  0  0  0  0  0
  -21.5633   -3.4529   25.7731 F   0  0  0  0  0  0
  -30.0318  -13.3136   20.4381 N   0  0  0  0  0  0
  -26.3031  -12.9314   20.3374 N   0  0  0  0  0  0
  -25.9333  -11.6467   20.5799 N   0  0  0  0  0  0
  -22.0505  -12.8263   22.0402 N   0  0  0  0  0  0
  -25.4290  -15.1862   20.4060 N   0  0  0  0  0  0
  -31.8507  -14.6483   20.1323 O   0  0  0  0  0  0
  -21.6623   -6.8889   21.4243 O   0  0  0  0  0  0
  -22.3569  -14.5550   20.6678 O   0  0  0  0  0  0
  -24.6158  -31.8693   23.2124 C   0  0  0  0  0  0
  -25.9053  -32.4833   23.8410 C   0  0  1  0  0  0
  -27.2232  -27.4211   20.0974 C   0  0  0  0  0  0
  -25.5901  -33.8630   24.2323 N   0  0  0  0  0  0
  -23.4022  -30.4979   21.5531 C   0  0  2  0  0  0
  -24.8444  -28.9698   20.1120 C   0  0  0  0  0  0
  -22.7416  -29.4676   22.4975 C   0  0  0  0  0  0
  -18.0276  -28.1398   22.8500 C   0  0  0  0  0  0
  -24.1482  -36.7325   23.2637 C   0  0  0  0  0  0
  -25.9344  -30.8303   21.3704 C   0  0  0  0  0  0
  -26.0081  -29.4669   20.7140 C   0  0  0  0  0  0
  -27.1969  -28.6990   20.7060 C   0  0  0  0  0  0
  -26.0385  -26.9548   19.4719 C   0  0  0  0  0  0
  -24.8568  -27.7140   19.4884 C   0  0  0  0  0  0
  -23.6102  -29.8412   20.1648 C   0  0  0  0  0  0
  -25.4105  -36.3121   24.0333 C   0  0  1  0  0  0
  -20.5870  -28.3683   23.1316 C   0  0  2  0  0  0
  -20.6766  -26.9417   22.5421 C   0  0  0  0  0  0
  -19.5736  -26.6402   21.5225 C   0  0  0  0  0  0
  -18.1920  -26.7942   22.1641 C   0  0  0  0  0  0
  -19.1528  -28.8853   23.2910 C   0  0  0  0  0  0
  -18.9461  -30.1455   23.8928 C   0  0  0  0  0  0
  -17.6466  -30.6599   24.0586 C   0  0  0  0  0  0
  -25.9036  -34.9487   23.5124 C   0  0  0  0  0  0
  -16.5355  -29.9115   23.6333 C   0  0  0  0  0  0
  -16.7265  -28.6534   23.0344 C   0  0  0  0  0  0
  -26.4467  -31.6626   25.0748 C   0  0  0  0  0  0
  -25.3724  -31.3763   26.1496 C   0  0  0  0  0  0
  -27.0298  -30.3061   24.6156 C   0  0  0  0  0  0
  -27.6043  -32.4354   25.7496 C   0  0  0  0  0  0
  -27.5580  -37.1817   24.8459 C   0  0  0  0  0  0
  -21.4142  -29.3044   22.3710 N   0  0  0  0  0  0
  -26.4290  -37.3805   23.9406 N   0  0  0  0  0  0
  -24.6689  -31.0803   22.1030 N   0  0  0  0  0  0
  -23.4185  -28.8220   23.3013 O   0  0  0  0  0  0
  -28.3852  -26.6656   20.1419 O   0  0  0  0  0  0
  -26.5610  -34.8933   22.4692 O   0  0  0  0  0  0
  -23.5349  -32.1438   23.7521 O   0  0  0  0  0  0
  -31.8988  -18.3693   22.5862 C   0  0  0  0  0  0
  -31.3392  -19.4704   21.9168 C   0  0  0  0  0  0
  -31.4684  -17.0661   22.2895 C   0  0  0  0  0  0
  -29.9108  -17.9595   20.6124 C   0  0  0  0  0  0
  -30.3428  -19.2879   20.9295 C   0  0  0  0  0  0
  -30.4746  -16.8458   21.3114 C   0  0  0  0  0  0
  -29.0318  -16.7522   18.4164 C   0  0  0  0  0  0
  -29.0338  -18.2280   18.1322 C   0  0  0  0  0  0
  -28.8521  -17.7363   19.5555 C   0  0  0  0  0  0
  -29.7579  -20.5147   20.1954 C   0  0  0  0  0  0
  -29.9451  -21.9274   20.8244 C   0  0  0  0  0  0
  -29.3978  -24.3839   20.4582 C   0  0  0  0  0  0
  -28.2604  -25.2555   19.8735 C   0  0  0  0  0  0
  -30.0100  -15.5073   21.1090 N   0  0  0  0  0  0
  -29.2698  -22.9691   20.0059 N   0  3  0  0  0  0
  -31.4664  -12.4199   19.1203 H   0  0  0  0  0  0
  -30.3269  -11.3149   19.8310 H   0  0  0  0  0  0
  -29.7376  -11.7826   17.4275 H   0  0  0  0  0  0
  -29.6472  -13.4929   17.7706 H   0  0  0  0  0  0
  -27.8483  -11.2948   18.8435 H   0  0  0  0  0  0
  -27.3621  -12.6003   17.7958 H   0  0  0  0  0  0
  -27.6983  -14.2495   19.5644 H   0  0  0  0  0  0
  -28.6880  -11.9759   21.3503 H   0  0  0  0  0  0
  -28.4647  -13.6193   21.8674 H   0  0  0  0  0  0
  -25.2773   -9.5644   22.4765 H   0  0  0  0  0  0
  -23.9967   -7.4631   22.7481 H   0  0  0  0  0  0
  -21.0829   -8.8823   19.8965 H   0  0  0  0  0  0
  -22.3719  -10.9702   19.6183 H   0  0  0  0  0  0
  -21.2010   -7.6152   23.9720 H   0  0  0  0  0  0
  -21.1491   -6.0522   25.9077 H   0  0  0  0  0  0
  -22.0587   -2.7613   23.2837 H   0  0  0  0  0  0
  -22.4103  -11.9924   22.4802 H   0  0  0  0  0  0
  -21.1148  -13.1340   22.2645 H   0  0  0  0  0  0
  -24.6546  -15.8346   20.5077 H   0  0  0  0  0  0
  -26.2771  -15.6297   20.0791 H   0  0  0  0  0  0
  -26.7128  -32.5542   23.1179 H   0  0  0  0  0  0
  -25.0041  -33.9786   25.0464 H   0  0  0  0  0  0
  -22.6915  -31.3163   21.4205 H   0  0  0  0  0  0
  -23.3738  -35.9664   23.3311 H   0  0  0  0  0  0
  -24.3574  -36.8929   22.2049 H   0  0  0  0  0  0
  -23.7241  -37.6534   23.6647 H   0  0  0  0  0  0
  -26.0542  -31.5982   20.6052 H   0  0  0  0  0  0
  -26.8195  -30.8763   21.9924 H   0  0  0  0  0  0
  -28.0898  -29.0760   21.1854 H   0  0  0  0  0  0
  -25.9977  -26.0047   18.9605 H   0  0  0  0  0  0
  -23.9653  -27.3281   19.0102 H   0  0  0  0  0  0
  -23.7238  -30.6223   19.4115 H   0  0  0  0  0  0
  -22.7302  -29.2698   19.8634 H   0  0  0  0  0  0
  -25.1285  -36.1985   25.0827 H   0  0  0  0  0  0
  -20.9965  -28.3256   24.1436 H   0  0  0  0  0  0
  -20.5689  -26.2294   23.3614 H   0  0  0  0  0  0
  -21.6638  -26.7474   22.1201 H   0  0  0  0  0  0
  -19.6901  -25.6317   21.1248 H   0  0  0  0  0  0
  -19.6674  -27.3228   20.6767 H   0  0  0  0  0  0
  -17.4185  -26.6686   21.4048 H   0  0  0  0  0  0
  -18.0324  -26.0090   22.9044 H   0  0  0  0  0  0
  -19.7933  -30.7266   24.2314 H   0  0  0  0  0  0
  -17.5022  -31.6275   24.5196 H   0  0  0  0  0  0
  -15.5360  -30.3037   23.7636 H   0  0  0  0  0  0
  -15.8658  -28.0877   22.7031 H   0  0  0  0  0  0
  -24.5862  -30.7153   25.7831 H   0  0  0  0  0  0
  -24.8963  -32.2941   26.4956 H   0  0  0  0  0  0
  -25.8057  -30.8906   27.0249 H   0  0  0  0  0  0
  -26.2858  -29.6832   24.1177 H   0  0  0  0  0  0
  -27.4007  -29.7298   25.4643 H   0  0  0  0  0  0
  -27.8719  -30.4364   23.9356 H   0  0  0  0  0  0
  -27.2652  -33.3626   26.2126 H   0  0  0  0  0  0
  -28.3812  -32.6971   25.0301 H   0  0  0  0  0  0
  -28.0763  -31.8463   26.5366 H   0  0  0  0  0  0
  -28.2612  -38.0103   24.7508 H   0  0  0  0  0  0
  -28.1065  -36.2641   24.6282 H   0  0  0  0  0  0
  -27.2306  -37.1467   25.8864 H   0  0  0  0  0  0
  -20.9297  -29.8758   21.6933 H   0  0  0  0  0  0
  -26.0182  -38.2881   24.1416 H   0  0  0  0  0  0
  -32.6569  -18.5269   23.3406 H   0  0  0  0  0  0
  -31.7005  -20.4546   22.1759 H   0  0  0  0  0  0
  -31.8977  -16.2377   22.8348 H   0  0  0  0  0  0
  -29.9856  -16.2407   18.3151 H   0  0  0  0  0  0
  -28.1639  -16.1932   18.0757 H   0  0  0  0  0  0
  -28.1638  -18.6396   17.6233 H   0  0  0  0  0  0
  -29.9908  -18.6533   17.8413 H   0  0  0  0  0  0
  -27.8585  -17.8303   19.9887 H   0  0  0  0  0  0
  -28.6876  -20.3499   20.0621 H   0  0  0  0  0  0
  -30.1972  -20.5288   19.1973 H   0  0  0  0  0  0
  -31.0035  -22.1800   20.9061 H   0  0  0  0  0  0
  -29.5300  -21.9446   21.8344 H   0  0  0  0  0  0
  -29.3571  -24.4344   21.5468 H   0  0  0  0  0  0
  -30.3704  -24.7745   20.1577 H   0  0  0  0  0  0
  -27.3333  -24.8688   20.3023 H   0  0  0  0  0  0
  -28.1995  -25.1173   18.7935 H   0  0  0  0  0  0
  -29.0405  -15.3228   21.3199 H   0  0  0  0  0  0
  -28.2899  -22.7351   19.9784 H   0  0  0  0  0  0
  -29.6179  -22.9084   19.0616 H   0  0  0  0  0  0
  1 25  1  0  0  0
  1 30  2  0  0  0
  1 84  1  0  0  0
  2  3  1  0  0  0
  2 25  1  0  0  0
  2 86  1  0  0  0
  2 87  1  0  0  0
  3  4  1  0  0  0
  3 88  1  0  0  0
  3 89  1  0  0  0
  4  5  1  0  0  0
  4 90  1  0  0  0
  4 91  1  0  0  0
  5  6  1  0  0  0
  5 26  1  0  0  0
  5 92  1  0  0  0
  6 25  1  0  0  0
  6 93  1  0  0  0
  6 94  1  0  0  0
  7  8  2  0  0  0
  7 26  1  0  0  0
  7 29  1  0  0  0
  8  9  1  0  0  0
  8 22  1  0  0  0
  9 10  1  0  0  0
  9 27  2  0  0  0
 10 11  2  0  0  0
 10 15  1  0  0  0
 11 12  1  0  0  0
 11 95  1  0  0  0
 12 13  2  0  0  0
 12 96  1  0  0  0
 13 14  1  0  0  0
 13 31  1  0  0  0
 14 15  2  0  0  0
 14 97  1  0  0  0
 15 98  1  0  0  0
 16 17  2  0  0  0
 16 21  1  0  0  0
 16 31  1  0  0  0
 17 18  1  0  0  0
 17 99  1  0  0  0
 18 19  2  0  0  0
 18100  1  0  0  0
 19 20  1  0  0  0
 19 24  1  0  0  0
 20 21  2  0  0  0
 20101  1  0  0  0
 21 23  1  0  0  0
 22 28  1  0  0  0
 22 32  2  0  0  0
 26 27  1  0  0  0
 28102  1  0  0  0
 28103  1  0  0  0
 29104  1  0  0  0
 29105  1  0  0  0
 33 34  1  0  0  0
 33 66  1  0  0  0
 33 70  2  0  0  0
 34 36  1  0  0  0
 34 59  1  0  0  0
 34106  1  0  0  0
 35 44  2  0  0  0
 35 45  1  0  0  0
 35 68  1  0  0  0
 36 56  1  0  0  0
 36107  1  0  0  0
 37 39  1  0  0  0
 37 47  1  0  0  0
 37 66  1  0  0  0
 37108  1  0  0  0
 38 43  2  0  0  0
 38 46  1  0  0  0
 38 47  1  0  0  0
 39 64  1  0  0  0
 39 67  2  0  0  0
 40 52  1  0  0  0
 40 53  2  0  0  0
 40 58  1  0  0  0
 41109  1  0  0  0
 41110  1  0  0  0
 41111  1  0  0  0
 41 48  1  0  0  0
 42 43  1  0  0  0
 42 66  1  0  0  0
 42112  1  0  0  0
 42113  1  0  0  0
 43 44  1  0  0  0
 44114  1  0  0  0
 45 46  2  0  0  0
 45115  1  0  0  0
 46116  1  0  0  0
 47117  1  0  0  0
 47118  1  0  0  0
 48 56  1  0  0  0
 48 65  1  0  0  0
 48119  1  0  0  0
 49 50  1  0  0  0
 49 53  1  0  0  0
 49 64  1  0  0  0
 49120  1  0  0  0
 50 51  1  0  0  0
 50121  1  0  0  0
 50122  1  0  0  0
 51 52  1  0  0  0
 51123  1  0  0  0
 51124  1  0  0  0
 52125  1  0  0  0
 52126  1  0  0  0
 53 54  1  0  0  0
 54 55  2  0  0  0
 54127  1  0  0  0
 55 57  1  0  0  0
 55128  1  0  0  0
 56 69  2  0  0  0
 57 58  2  0  0  0
 57129  1  0  0  0
 58130  1  0  0  0
 59 60  1  0  0  0
 59 61  1  0  0  0
 59 62  1  0  0  0
 60131  1  0  0  0
 60132  1  0  0  0
 60133  1  0  0  0
 61134  1  0  0  0
 61135  1  0  0  0
 61136  1  0  0  0
 62137  1  0  0  0
 62138  1  0  0  0
 62139  1  0  0  0
 63 65  1  0  0  0
 63140  1  0  0  0
 63141  1  0  0  0
 63142  1  0  0  0
 64143  1  0  0  0
 65144  1  0  0  0
 68 83  1  0  0  0
 71 72  2  0  0  0
 71 73  1  0  0  0
 71145  1  0  0  0
 72 75  1  0  0  0
 72146  1  0  0  0
 73 76  2  0  0  0
 73147  1  0  0  0
 74 75  2  0  0  0
 74 76  1  0  0  0
 74 79  1  0  0  0
 75 80  1  0  0  0
 76 84  1  0  0  0
 77 78  1  0  0  0
 77 79  1  0  0  0
 77148  1  0  0  0
 77149  1  0  0  0
 78 79  1  0  0  0
 78150  1  0  0  0
 78151  1  0  0  0
 79152  1  0  0  0
 80 81  1  0  0  0
 80153  1  0  0  0
 80154  1  0  0  0
 81 85  1  0  0  0
 81155  1  0  0  0
 81156  1  0  0  0
 82 83  1  0  0  0
 82 85  1  0  0  0
 82157  1  0  0  0
 82158  1  0  0  0
 83159  1  0  0  0
 83160  1  0  0  0
 84161  1  0  0  0
 85162  1  0  0  0
 85163  1  0  0  0
M  CHG  1  85   1
M  ISO  4   1 100  68 101  83 101  84 100
M  END
> <chiral flag>
0

> <version>
0

> <s_m_source_file>
/data/baiqing/PycharmProjects/Reinvent-master-3.2/result/LINK_invent/BTK/process_docking_weight1_custom_sum_contain_oxygen_bond_distance_aromatic_linkinvent_7_9_3/rearranged_h_0135.sdf

> <i_m_source_file_index>
21

> <r_mmod_Potential_Energy-OPLS-2005>
-144.99201965332

> <r_mmod_Stretch_Energy-OPLS-2005>
42.4642333984375

> <r_mmod_Bend_Energy-OPLS-2005>
97.4439392089844

> <r_mmod_Torsional_Energy-OPLS-2005>
255.598052978516

> <r_mmod_Improper_Torsional_Energy-OPLS-2005>
3.69317221641541

> <r_mmod_Van_der_Waal_Energy-OPLS-2005>
150.529724121094

> <r_mmod_Electrostatic_Energy-OPLS-2005>
-242.661560058594

> <r_mmod_Solvation_Energy-OPLS-2005>
-468.387603759766

> <b_mmod_Minimization_Converged-OPLS-2005>
0

> <r_mmod_RMS_Derivative-OPLS-2005>
2.83665060997009

$$$$
21
                    3D
 Structure written by MMmdl.
164173  0  0  1  0            999 V2000
  -29.9352  -14.5878   19.9286 C   0  0  0  0  0  0
  -30.5458  -12.3112   19.3295 C   0  0  0  0  0  0
  -29.5282  -11.9942   18.1992 C   0  0  0  0  0  0
  -28.1192  -11.5801   18.8289 C   0  0  0  0  0  0
  -27.7813  -12.4828   20.0404 C   0  0  2  0  0  0
  -28.9106  -12.7135   21.0436 C   0  0  0  0  0  0
  -25.0371  -14.8043   20.2479 C   0  0  0  0  0  0
  -24.3020  -14.4761   20.5788 C   0  0  0  0  0  0
  -25.6414  -12.6605   20.7611 C   0  0  0  0  0  0
  -24.9492  -10.9400   20.6895 C   0  0  0  0  0  0
  -25.2316   -9.7453   22.3198 C   0  0  0  0  0  0
  -23.9042   -8.3670   22.7745 C   0  0  0  0  0  0
  -22.3539   -8.0308   21.6797 C   0  0  0  0  0  0
  -21.9074   -9.1939   20.3061 C   0  0  0  0  0  0
  -23.0140  -10.6492   19.8857 C   0  0  0  0  0  0
  -21.6576   -6.0425   22.6386 C   0  0  0  0  0  0
  -21.3749   -6.5152   23.9302 C   0  0  0  0  0  0
  -21.3588   -5.6126   24.9986 C   0  0  0  0  0  0
  -21.6077   -4.2494   24.7630 C   0  0  0  0  0  0
  -21.8852   -3.7801   23.4652 C   0  0  0  0  0  0
  -21.9093   -4.6813   22.3909 C   0  0  0  0  0  0
  -22.6594  -14.7491   20.6430 C   0  0  0  0  0  0
  -22.1558   -4.2391   21.1312 F   0  0  0  0  0  0
  -21.5740   -3.3840   25.7986 F   0  0  0  0  0  0
  -29.9394  -13.2836   20.2479 N   0  0  0  0  0  0
  -26.2425  -13.0596   20.6234 N   0  0  0  0  0  0
  -26.3557  -12.3177   21.6837 N   0  0  0  0  0  0
  -21.7319  -14.1207   21.4605 N   0  0  0  0  0  0
  -25.0411  -16.0950   19.6904 N   0  0  0  0  0  0
  -31.0737  -15.1117   19.8915 O   0  0  0  0  0  0
  -21.6149   -6.8967   21.6049 O   0  0  0  0  0  0
  -22.1563  -15.5120   19.8936 O   0  0  0  0  0  0
  -24.7095  -31.7562   23.1339 C   0  0  0  0  0  0
  -25.9581  -32.4182   23.7919 C   0  0  1  0  0  0
  -26.6343  -26.0467   20.6065 C   0  0  0  0  0  0
  -25.6078  -33.8063   24.1741 N   0  0  0  0  0  0
  -23.5316  -30.3723   21.4876 C   0  0  2  0  0  0
  -24.9167  -28.6089   20.1233 C   0  0  0  0  0  0
  -22.7767  -29.4150   22.4518 C   0  0  0  0  0  0
  -18.0336  -28.1417   22.8443 C   0  0  0  0  0  0
  -24.1501  -36.7010   23.2660 C   0  0  0  0  0  0
  -26.1056  -30.2672   21.5077 C   0  0  0  0  0  0
  -26.0547  -28.7708   20.9096 C   0  0  0  0  0  0
  -26.9117  -27.5184   21.1080 C   0  0  0  0  0  0
  -25.6769  -26.2689   19.5791 C   0  0  0  0  0  0
  -24.8309  -27.4135   19.3912 C   0  0  0  0  0  0
  -23.8009  -29.6755   20.1144 C   0  0  0  0  0  0
  -25.4174  -36.2730   24.0245 C   0  0  1  0  0  0
  -20.5972  -28.3794   23.1064 C   0  0  2  0  0  0
  -20.6769  -26.9424   22.5394 C   0  0  0  0  0  0
  -19.5753  -26.6345   21.5199 C   0  0  0  0  0  0
  -18.1943  -26.7942   22.1605 C   0  0  0  0  0  0
  -19.1609  -28.8929   23.2742 C   0  0  0  0  0  0
  -18.9525  -30.1506   23.8807 C   0  0  0  0  0  0
  -17.6517  -30.6603   24.0549 C   0  0  0  0  0  0
  -25.9198  -34.9136   23.4852 C   0  0  0  0  0  0
  -16.5403  -29.9086   23.6349 C   0  0  0  0  0  0
  -16.7320  -28.6501   23.0377 C   0  0  0  0  0  0
  -26.4659  -31.6444   25.0736 C   0  0  0  0  0  0
  -25.3643  -31.3919   26.1299 C   0  0  0  0  0  0
  -27.0684  -30.2727   24.7051 C   0  0  0  0  0  0
  -27.6010  -32.4440   25.7555 C   0  0  0  0  0  0
  -27.5562  -37.1641   24.8444 C   0  0  0  0  0  0
  -21.4403  -29.2996   22.3299 N   0  0  0  0  0  0
  -26.4237  -37.3564   23.9431 N   0  0  0  0  0  0
  -24.8154  -30.8560   22.0872 N   0  0  0  0  0  0
  -23.4103  -28.7762   23.2963 O   0  0  0  0  0  0
  -27.0559  -24.4646   20.9986 O   0  0  0  0  0  0
  -26.5868  -34.8790   22.4491 O   0  0  0  0  0  0
  -23.6069  -32.0952   23.6042 O   0  0  0  0  0  0
  -25.7148  -13.6403   18.4689 C   0  0  0  0  0  0
  -23.7693  -12.7942   21.7864 C   0  0  0  0  0  0
  -25.3864  -14.5095   22.5391 C   0  0  0  0  0  0
  -27.1949  -14.8388   19.6042 C   0  0  0  0  0  0
  -22.5847  -10.2790   22.2499 C   0  0  0  0  0  0
  -24.1040   -8.9291   20.6500 C   0  0  0  0  0  0
  -23.0067  -10.7658   23.5911 C   0  0  0  0  0  0
  -23.3856  -11.1467   22.2374 C   0  0  0  0  0  0
  -24.5778  -20.7299   22.4158 C   0  0  0  0  0  0
  -25.3170  -16.6625   22.5475 C   0  0  0  0  0  0
  -26.5573  -22.4633   21.0130 C   0  0  0  0  0  0
  -25.9997  -20.4330   21.9222 C   0  0  2  0  0  0
  -24.0260  -12.7511   19.3135 N   0  0  0  0  0  0
  -26.8949  -15.0715   21.5043 N   0  0  0  0  0  0
  -28.7060  -15.0987   19.3435 N   0  0  0  0  0  0
  -25.9638  -18.4161   21.7947 N   0  3  0  0  0  0
  -31.4755  -12.6982   18.9050 H   0  0  0  0  0  0
  -30.8162  -11.4013   19.8673 H   0  0  0  0  0  0
  -29.9067  -11.1838   17.5740 H   0  0  0  0  0  0
  -29.4212  -12.8523   17.5313 H   0  0  0  0  0  0
  -28.2180  -10.5663   19.2200 H   0  0  0  0  0  0
  -27.3362  -11.4812   18.0644 H   0  0  0  0  0  0
  -27.9178  -12.9516   19.1169 H   0  0  0  0  0  0
  -29.2261  -11.7685   21.4878 H   0  0  0  0  0  0
  -28.6738  -13.3715   21.8779 H   0  0  0  0  0  0
  -26.0834   -9.9063   22.9645 H   0  0  0  0  0  0
  -24.1224   -7.6937   23.5904 H   0  0  0  0  0  0
  -21.0078   -9.0224   19.7320 H   0  0  0  0  0  0
  -22.5076  -11.2029   19.1073 H   0  0  0  0  0  0
  -21.1602   -7.5596   24.1053 H   0  0  0  0  0  0
  -21.1439   -5.9576   25.9994 H   0  0  0  0  0  0
  -22.0722   -2.7304   23.2941 H   0  0  0  0  0  0
  -22.0018  -13.4192   22.1314 H   0  0  0  0  0  0
  -20.7567  -14.3721   21.3807 H   0  0  0  0  0  0
  -24.1352  -16.5021   19.4757 H   0  0  0  0  0  0
  -25.7732  -16.4541   19.0918 H   0  0  0  0  0  0
  -26.7628  -32.4442   23.0560 H   0  0  0  0  0  0
  -25.0121  -33.9053   24.9824 H   0  0  0  0  0  0
  -22.8850  -31.2304   21.2921 H   0  0  0  0  0  0
  -23.3830  -35.9264   23.3181 H   0  0  0  0  0  0
  -24.3565  -36.8848   22.2106 H   0  0  0  0  0  0
  -23.7185  -37.6095   23.6869 H   0  0  0  0  0  0
  -26.4015  -30.9219   20.6873 H   0  0  0  0  0  0
  -26.9437  -30.3196   22.1868 H   0  0  0  0  0  0
  -27.7061  -27.6232   21.8338 H   0  0  0  0  0  0
  -25.4005  -25.3959   19.0053 H   0  0  0  0  0  0
  -24.0143  -27.3067   18.6909 H   0  0  0  0  0  0
  -24.0760  -30.4309   19.3775 H   0  0  0  0  0  0
  -22.8805  -29.2253   19.7393 H   0  0  0  0  0  0
  -25.1397  -36.1415   25.0727 H   0  0  0  0  0  0
  -21.0084  -28.3456   24.1180 H   0  0  0  0  0  0
  -20.5558  -26.2443   23.3690 H   0  0  0  0  0  0
  -21.6634  -26.7283   22.1266 H   0  0  0  0  0  0
  -19.6899  -25.6223   21.1300 H   0  0  0  0  0  0
  -19.6700  -27.3094   20.6679 H   0  0  0  0  0  0
  -17.4208  -26.6702   21.4015 H   0  0  0  0  0  0
  -18.0333  -26.0095   22.9009 H   0  0  0  0  0  0
  -19.8011  -30.7331   24.2141 H   0  0  0  0  0  0
  -17.5079  -31.6273   24.5167 H   0  0  0  0  0  0
  -15.5404  -30.2974   23.7708 H   0  0  0  0  0  0
  -15.8720  -28.0786   22.7155 H   0  0  0  0  0  0
  -24.5861  -30.7207   25.7650 H   0  0  0  0  0  0
  -24.8813  -32.3197   26.4370 H   0  0  0  0  0  0
  -25.7772  -30.9348   27.0300 H   0  0  0  0  0  0
  -26.3445  -29.6109   24.2291 H   0  0  0  0  0  0
  -27.4102  -29.7468   25.5975 H   0  0  0  0  0  0
  -27.9459  -30.3734   24.0660 H   0  0  0  0  0  0
  -27.2444  -33.3816   26.1832 H   0  0  0  0  0  0
  -28.3972  -32.6888   25.0515 H   0  0  0  0  0  0
  -28.0519  -31.8812   26.5736 H   0  0  0  0  0  0
  -28.2437  -38.0073   24.7635 H   0  0  0  0  0  0
  -28.1199  -36.2599   24.6094 H   0  0  0  0  0  0
  -27.2290  -37.1042   25.8839 H   0  0  0  0  0  0
  -20.9721  -29.8659   21.6364 H   0  0  0  0  0  0
  -26.0009  -38.2554   24.1573 H   0  0  0  0  0  0
  -25.8927  -13.4161   17.4283 H   0  0  0  0  0  0
  -21.8715   -9.7245   22.9214 H   0  0  0  0  0  0
  -21.5011  -10.6423   21.9415 H   0  0  0  0  0  0
  -24.0956   -8.8234   19.5376 H   0  0  0  0  0  0
  -24.8935   -8.1550   20.8225 H   0  0  0  0  0  0
  -23.7430  -10.2802   24.2388 H   0  0  0  0  0  0
  -22.3461  -11.4828   24.0819 H   0  0  0  0  0  0
  -24.1982  -11.6366   22.8411 H   0  0  0  0  0  0
  -24.4596  -21.7843   22.6686 H   0  0  0  0  0  0
  -24.3388  -20.1482   23.3080 H   0  0  0  0  0  0
  -23.8418  -20.4810   21.6505 H   0  0  0  0  0  0
  -25.4940  -16.8360   23.6073 H   0  0  0  0  0  0
  -24.2420  -16.8051   22.4470 H   0  0  0  0  0  0
  -25.9602  -22.4430   20.1027 H   0  0  0  0  0  0
  -27.5462  -22.1542   20.6774 H   0  0  0  0  0  0
  -26.6314  -20.4885   22.8074 H   0  0  0  0  0  0
  -28.8695  -15.9454   18.8206 H   0  0  0  0  0  0
  -25.6643  -18.2780   20.8428 H   0  0  0  0  0  0
  -26.9492  -18.2106   21.7729 H   0  0  0  0  0  0
  1 25  1  0  0  0
  1 30  2  0  0  0
  1 85  1  0  0  0
  2  3  1  0  0  0
  2 25  1  0  0  0
  2 87  1  0  0  0
  2 88  1  0  0  0
  3  4  1  0  0  0
  3 89  1  0  0  0
  3 90  1  0  0  0
  4  5  1  0  0  0
  4 91  1  0  0  0
  4 92  1  0  0  0
  5  6  1  0  0  0
  5 26  1  0  0  0
  5 93  1  0  0  0
  6 25  1  0  0  0
  6 94  1  0  0  0
  6 95  1  0  0  0
  7  8  2  0  0  0
  7 26  1  0  0  0
  7 29  1  0  0  0
  8  9  1  0  0  0
  8 22  1  0  0  0
  9 10  1  0  0  0
  9 27  2  0  0  0
 10 11  2  0  0  0
 10 15  1  0  0  0
 11 12  1  0  0  0
 11 96  1  0  0  0
 12 13  2  0  0  0
 12 97  1  0  0  0
 13 14  1  0  0  0
 13 31  1  0  0  0
 14 15  2  0  0  0
 14 98  1  0  0  0
 15 99  1  0  0  0
 16 17  2  0  0  0
 16 21  1  0  0  0
 16 31  1  0  0  0
 17 18  1  0  0  0
 17100  1  0  0  0
 18 19  2  0  0  0
 18101  1  0  0  0
 19 20  1  0  0  0
 19 24  1  0  0  0
 20 21  2  0  0  0
 20102  1  0  0  0
 21 23  1  0  0  0
 22 28  1  0  0  0
 22 32  2  0  0  0
 26 27  1  0  0  0
 28103  1  0  0  0
 28104  1  0  0  0
 29105  1  0  0  0
 29106  1  0  0  0
 33 34  1  0  0  0
 33 66  1  0  0  0
 33 70  2  0  0  0
 34 36  1  0  0  0
 34 59  1  0  0  0
 34107  1  0  0  0
 35 44  2  0  0  0
 35 45  1  0  0  0
 35 68  1  0  0  0
 36 56  1  0  0  0
 36108  1  0  0  0
 37 39  1  0  0  0
 37 47  1  0  0  0
 37 66  1  0  0  0
 37109  1  0  0  0
 38 43  2  0  0  0
 38 46  1  0  0  0
 38 47  1  0  0  0
 39 64  1  0  0  0
 39 67  2  0  0  0
 40 52  1  0  0  0
 40 53  2  0  0  0
 40 58  1  0  0  0
 41110  1  0  0  0
 41111  1  0  0  0
 41112  1  0  0  0
 41 48  1  0  0  0
 42 43  1  0  0  0
 42 66  1  0  0  0
 42113  1  0  0  0
 42114  1  0  0  0
 43 44  1  0  0  0
 44115  1  0  0  0
 45 46  2  0  0  0
 45116  1  0  0  0
 46117  1  0  0  0
 47118  1  0  0  0
 47119  1  0  0  0
 48 56  1  0  0  0
 48 65  1  0  0  0
 48120  1  0  0  0
 49 50  1  0  0  0
 49 53  1  0  0  0
 49 64  1  0  0  0
 49121  1  0  0  0
 50 51  1  0  0  0
 50122  1  0  0  0
 50123  1  0  0  0
 51 52  1  0  0  0
 51124  1  0  0  0
 51125  1  0  0  0
 52126  1  0  0  0
 52127  1  0  0  0
 53 54  1  0  0  0
 54 55  2  0  0  0
 54128  1  0  0  0
 55 57  1  0  0  0
 55129  1  0  0  0
 56 69  2  0  0  0
 57 58  2  0  0  0
 57130  1  0  0  0
 58131  1  0  0  0
 59 60  1  0  0  0
 59 61  1  0  0  0
 59 62  1  0  0  0
 60132  1  0  0  0
 60133  1  0  0  0
 60134  1  0  0  0
 61135  1  0  0  0
 61136  1  0  0  0
 61137  1  0  0  0
 62138  1  0  0  0
 62139  1  0  0  0
 62140  1  0  0  0
 63 65  1  0  0  0
 63141  1  0  0  0
 63142  1  0  0  0
 63143  1  0  0  0
 64144  1  0  0  0
 65145  1  0  0  0
 68 81  1  0  0  0
 71 74  2  0  0  0
 71 83  1  0  0  0
 71146  1  0  0  0
 72 73  1  0  0  0
 72 83  2  0  0  0
 72 78  1  0  0  0
 73 80  1  0  0  0
 73 84  2  0  0  0
 74 84  1  0  0  0
 74 85  1  0  0  0
 75 76  1  0  0  0
 75 77  1  0  0  0
 75147  1  0  0  0
 75148  1  0  0  0
 76 78  1  0  0  0
 76149  1  0  0  0
 76150  1  0  0  0
 77 78  1  0  0  0
 77151  1  0  0  0
 77152  1  0  0  0
 78153  1  0  0  0
 79154  1  0  0  0
 79155  1  0  0  0
 79156  1  0  0  0
 79 82  1  0  0  0
 80 86  1  0  0  0
 80157  1  0  0  0
 80158  1  0  0  0
 81 82  1  0  0  0
 81159  1  0  0  0
 81160  1  0  0  0
 82 86  1  0  0  0
 82161  1  0  0  0
 85162  1  0  0  0
 86163  1  0  0  0
 86164  1  0  0  0
M  CHG  1  86   1
M  ISO  4   1 100  68 101  81 101  85 100
M  END
> <chiral flag>
0

> <version>
0

> <s_m_source_file>
/data/baiqing/PycharmProjects/Reinvent-master-3.2/result/LINK_invent/BTK/process_docking_weight1_custom_sum_contain_oxygen_bond_distance_aromatic_linkinvent_7_9_3/rearranged_h_0135.sdf

> <i_m_source_file_index>
22

> <r_mmod_Potential_Energy-OPLS-2005>
37706.5234375

> <r_mmod_Stretch_Energy-OPLS-2005>
22392.390625

> <r_mmod_Bend_Energy-OPLS-2005>
3366.744140625

> <r_mmod_Torsional_Energy-OPLS-2005>
710.213989257812

> <r_mmod_Improper_Torsional_Energy-OPLS-2005>
104.811828613281

> <r_mmod_Van_der_Waal_Energy-OPLS-2005>
8259.3525390625

> <r_mmod_Electrostatic_Energy-OPLS-2005>
-330.157928466797

> <r_mmod_Solvation_Energy-OPLS-2005>
-452.764984130859

> <b_mmod_Minimization_Converged-OPLS-2005>
0

> <r_mmod_RMS_Derivative-OPLS-2005>
4.76733493804932

$$$$
22
                    3D
 Structure written by MMmdl.
176184  0  0  1  0            999 V2000
  -30.6900  -14.5241   20.5186 C   0  0  0  0  0  0
  -30.4242  -12.3259   19.4383 C   0  0  0  0  0  0
  -29.5006  -12.4983   18.2140 C   0  0  0  0  0  0
  -28.0210  -12.3583   18.6238 C   0  0  0  0  0  0
  -27.6581  -13.2137   19.8681 C   0  0  2  0  0  0
  -28.7027  -13.0396   20.9953 C   0  0  0  0  0  0
  -25.2580  -13.8171   20.5682 C   0  0  0  0  0  0
  -24.1841  -13.0443   20.9185 C   0  0  0  0  0  0
  -24.6406  -11.6915   20.8744 C   0  0  0  0  0  0
  -23.9074  -10.4296   21.0411 C   0  0  0  0  0  0
  -24.3624   -9.4210   21.9189 C   0  0  0  0  0  0
  -23.6296   -8.2247   22.0760 C   0  0  0  0  0  0
  -22.4281   -8.0287   21.3544 C   0  0  0  0  0  0
  -21.9918   -9.0261   20.4649 C   0  0  0  0  0  0
  -22.7249  -10.2138   20.3055 C   0  0  0  0  0  0
  -21.6849   -6.0743   22.5284 C   0  0  0  0  0  0
  -21.4013   -6.5647   23.8219 C   0  0  0  0  0  0
  -21.3654   -5.6796   24.9179 C   0  0  0  0  0  0
  -21.6045   -4.3060   24.7226 C   0  0  0  0  0  0
  -21.8815   -3.8154   23.4346 C   0  0  0  0  0  0
  -21.9194   -4.6971   22.3402 C   0  0  0  0  0  0
  -22.7864  -13.5240   21.1846 C   0  0  0  0  0  0
  -22.1662   -4.2160   21.0977 F   0  0  0  0  0  0
  -21.5626   -3.4539   25.7735 F   0  0  0  0  0  0
  -30.0293  -13.3354   20.4335 N   0  0  0  0  0  0
  -26.3017  -12.9357   20.3342 N   0  0  0  0  0  0
  -25.9335  -11.6513   20.5767 N   0  0  0  0  0  0
  -22.0490  -12.8227   22.0386 N   0  0  0  0  0  0
  -25.4288  -15.1888   20.4086 N   0  0  0  0  0  0
  -31.8461  -14.6746   20.1190 O   0  0  0  0  0  0
  -21.6640   -6.8889   21.4247 O   0  0  0  0  0  0
  -22.3556  -14.5548   20.6694 O   0  0  0  0  0  0
  -24.6188  -31.8667   23.2089 C   0  0  0  0  0  0
  -25.9057  -32.4819   23.8388 C   0  0  1  0  0  0
  -27.2259  -27.3955   20.0998 C   0  0  0  0  0  0
  -25.5902  -33.8623   24.2320 N   0  0  0  0  0  0
  -23.4076  -30.4910   21.5524 C   0  0  2  0  0  0
  -24.8507  -28.9595   20.1112 C   0  0  0  0  0  0
  -22.7438  -29.4637   22.4993 C   0  0  0  0  0  0
  -18.0280  -28.1380   22.8509 C   0  0  0  0  0  0
  -24.1480  -36.7299   23.2639 C   0  0  0  0  0  0
  -25.9414  -30.8212   21.3664 C   0  0  0  0  0  0
  -26.0159  -29.4548   20.7098 C   0  0  0  0  0  0
  -27.2063  -28.6816   20.6988 C   0  0  0  0  0  0
  -26.0372  -26.9359   19.4820 C   0  0  0  0  0  0
  -24.8581  -27.7017   19.4915 C   0  0  0  0  0  0
  -23.6148  -29.8308   20.1649 C   0  0  0  0  0  0
  -25.4107  -36.3108   24.0343 C   0  0  1  0  0  0
  -20.5878  -28.3642   23.1328 C   0  0  2  0  0  0
  -20.6775  -26.9379   22.5425 C   0  0  0  0  0  0
  -19.5744  -26.6378   21.5229 C   0  0  0  0  0  0
  -18.1920  -26.7934   22.1633 C   0  0  0  0  0  0
  -19.1534  -28.8830   23.2907 C   0  0  0  0  0  0
  -18.9463  -30.1451   23.8896 C   0  0  0  0  0  0
  -17.6464  -30.6587   24.0565 C   0  0  0  0  0  0
  -25.9037  -34.9480   23.5134 C   0  0  0  0  0  0
  -16.5353  -29.9086   23.6342 C   0  0  0  0  0  0
  -16.7268  -28.6509   23.0349 C   0  0  0  0  0  0
  -26.4466  -31.6607   25.0727 C   0  0  0  0  0  0
  -25.3725  -31.3717   26.1465 C   0  0  0  0  0  0
  -27.0304  -30.3071   24.6082 C   0  0  0  0  0  0
  -27.6040  -32.4316   25.7496 C   0  0  0  0  0  0
  -27.5578  -37.1815   24.8471 C   0  0  0  0  0  0
  -21.4163  -29.3016   22.3748 N   0  0  0  0  0  0
  -26.4288  -37.3798   23.9411 N   0  0  0  0  0  0
  -24.6745  -31.0736   22.1006 N   0  0  0  0  0  0
  -23.4208  -28.8172   23.3030 O   0  0  0  0  0  0
  -28.3736  -26.6102   20.1393 O   0  0  0  0  0  0
  -26.5588  -34.8940   22.4688 O   0  0  0  0  0  0
  -23.5367  -32.1423   23.7472 O   0  0  0  0  0  0
  -31.2394  -22.1947   21.3953 C   0  0  0  0  0  0
  -29.5924  -20.4927   20.9212 C   0  0  0  0  0  0
  -32.0906  -21.2211   21.9581 C   0  0  0  0  0  0
  -30.4178  -19.4772   21.4896 C   0  0  0  0  0  0
  -31.6983  -19.8463   22.0290 C   0  0  0  0  0  0
  -29.9765  -21.8577   20.8805 C   0  0  0  0  0  0
  -33.4211  -21.7319   22.5014 C   0  0  0  0  0  0
  -32.1308  -16.6667   24.1116 C   0  0  0  0  0  0
  -32.8887  -18.7714   25.2576 C   0  0  0  0  0  0
  -33.8941  -18.4150   20.5532 C   0  0  0  0  0  0
  -29.8321  -18.0421   21.5859 C   0  0  0  0  0  0
  -30.2655  -17.0104   20.5045 C   0  0  0  0  0  0
  -29.3861  -24.2955   20.4521 C   0  0  0  0  0  0
  -28.1879  -25.1778   19.9991 C   0  0  0  0  0  0
  -32.6625  -18.8239   22.6969 C   0  0  1  0  0  0
  -32.1334  -18.2112   24.0379 C   0  0  0  0  0  0
  -29.1099  -22.8451   20.3528 N   0  0  0  0  0  0
  -29.9411  -15.6014   20.8469 N   0  0  0  0  0  0
  -33.2363  -17.8403   21.7480 N   0  3  0  0  0  0
  -31.4703  -12.4185   19.1408 H   0  0  0  0  0  0
  -30.3221  -11.3247   19.8601 H   0  0  0  0  0  0
  -29.7484  -11.7612   17.4492 H   0  0  0  0  0  0
  -29.6656  -13.4766   17.7599 H   0  0  0  0  0  0
  -27.8356  -11.3036   18.8314 H   0  0  0  0  0  0
  -27.3726  -12.6198   17.7866 H   0  0  0  0  0  0
  -27.6869  -14.2548   19.5461 H   0  0  0  0  0  0
  -28.6859  -12.0183   21.3784 H   0  0  0  0  0  0
  -28.4690  -13.6810   21.8466 H   0  0  0  0  0  0
  -25.2772   -9.5682   22.4761 H   0  0  0  0  0  0
  -24.0007   -7.4636   22.7474 H   0  0  0  0  0  0
  -21.0855   -8.8780   19.8946 H   0  0  0  0  0  0
  -22.3719  -10.9676   19.6157 H   0  0  0  0  0  0
  -21.2002   -7.6155   23.9725 H   0  0  0  0  0  0
  -21.1476   -6.0525   25.9079 H   0  0  0  0  0  0
  -22.0597   -2.7621   23.2840 H   0  0  0  0  0  0
  -22.4094  -11.9883   22.4773 H   0  0  0  0  0  0
  -21.1101  -13.1250   22.2568 H   0  0  0  0  0  0
  -24.6598  -15.8419   20.5127 H   0  0  0  0  0  0
  -26.2761  -15.6283   20.0728 H   0  0  0  0  0  0
  -26.7129  -32.5510   23.1146 H   0  0  0  0  0  0
  -25.0108  -33.9777   25.0505 H   0  0  0  0  0  0
  -22.6989  -31.3106   21.4185 H   0  0  0  0  0  0
  -23.3759  -35.9611   23.3305 H   0  0  0  0  0  0
  -24.3581  -36.8904   22.2051 H   0  0  0  0  0  0
  -23.7219  -37.6505   23.6643 H   0  0  0  0  0  0
  -26.0586  -31.5865   20.5976 H   0  0  0  0  0  0
  -26.8295  -30.8727   21.9846 H   0  0  0  0  0  0
  -28.1017  -29.0564   21.1745 H   0  0  0  0  0  0
  -25.9876  -25.9782   18.9876 H   0  0  0  0  0  0
  -23.9647  -27.3165   19.0190 H   0  0  0  0  0  0
  -23.7254  -30.6104   19.4104 H   0  0  0  0  0  0
  -22.7359  -29.2557   19.8663 H   0  0  0  0  0  0
  -25.1291  -36.1966   25.0838 H   0  0  0  0  0  0
  -20.9969  -28.3182   24.1441 H   0  0  0  0  0  0
  -20.5697  -26.2229   23.3600 H   0  0  0  0  0  0
  -21.6638  -26.7426   22.1192 H   0  0  0  0  0  0
  -19.6882  -25.6288   21.1235 H   0  0  0  0  0  0
  -19.6689  -27.3217   20.6783 H   0  0  0  0  0  0
  -17.4200  -26.6703   21.4019 H   0  0  0  0  0  0
  -18.0288  -26.0077   22.9026 H   0  0  0  0  0  0
  -19.7935  -30.7291   24.2232 H   0  0  0  0  0  0
  -17.5013  -31.6272   24.5166 H   0  0  0  0  0  0
  -15.5350  -30.2984   23.7677 H   0  0  0  0  0  0
  -15.8669  -28.0848   22.7023 H   0  0  0  0  0  0
  -24.5891  -30.7069   25.7809 H   0  0  0  0  0  0
  -24.8914  -32.2870   26.4918 H   0  0  0  0  0  0
  -25.8069  -30.8889   27.0226 H   0  0  0  0  0  0
  -26.2858  -29.6841   24.1116 H   0  0  0  0  0  0
  -27.4102  -29.7283   25.4507 H   0  0  0  0  0  0
  -27.8665  -30.4445   23.9226 H   0  0  0  0  0  0
  -27.2675  -33.3622   26.2079 H   0  0  0  0  0  0
  -28.3848  -32.6865   25.0319 H   0  0  0  0  0  0
  -28.0697  -31.8427   26.5404 H   0  0  0  0  0  0
  -28.2605  -38.0104   24.7525 H   0  0  0  0  0  0
  -28.1067  -36.2646   24.6289 H   0  0  0  0  0  0
  -27.2299  -37.1451   25.8874 H   0  0  0  0  0  0
  -20.9310  -29.8767   21.7009 H   0  0  0  0  0  0
  -26.0176  -38.2874   24.1419 H   0  0  0  0  0  0
  -31.5727  -23.2224   21.3739 H   0  0  0  0  0  0
  -28.6219  -20.2169   20.5337 H   0  0  0  0  0  0
  -33.5284  -22.8086   22.3652 H   0  0  0  0  0  0
  -34.2626  -21.2684   21.9871 H   0  0  0  0  0  0
  -33.5061  -21.5372   23.5709 H   0  0  0  0  0  0
  -31.6502  -16.3296   25.0306 H   0  0  0  0  0  0
  -33.1419  -16.2576   24.1161 H   0  0  0  0  0  0
  -31.5859  -16.2029   23.2908 H   0  0  0  0  0  0
  -32.4616  -18.4010   26.1907 H   0  0  0  0  0  0
  -32.8377  -19.8605   25.2919 H   0  0  0  0  0  0
  -33.9420  -18.4867   25.2452 H   0  0  0  0  0  0
  -34.3345  -17.6208   19.9500 H   0  0  0  0  0  0
  -34.6929  -19.1030   20.8309 H   0  0  0  0  0  0
  -33.1861  -18.9525   19.9214 H   0  0  0  0  0  0
  -28.7454  -18.1267   21.5401 H   0  0  0  0  0  0
  -30.0006  -17.6354   22.5757 H   0  0  0  0  0  0
  -31.3242  -17.1071   20.2883 H   0  0  0  0  0  0
  -29.7752  -17.2567   19.5615 H   0  0  0  0  0  0
  -29.6374  -24.5456   21.4840 H   0  0  0  0  0  0
  -30.2590  -24.5395   19.8443 H   0  0  0  0  0  0
  -27.3196  -24.8716   20.5880 H   0  0  0  0  0  0
  -27.9677  -24.9521   18.9545 H   0  0  0  0  0  0
  -33.5678  -19.3466   22.9882 H   0  0  0  0  0  0
  -31.1043  -18.5414   24.1759 H   0  0  0  0  0  0
  -28.1788  -22.5660   20.0526 H   0  0  0  0  0  0
  -28.9980  -15.4080   21.1524 H   0  0  0  0  0  0
  -33.9315  -17.3067   22.2448 H   0  0  0  0  0  0
  -32.5232  -17.1995   21.4437 H   0  0  0  0  0  0
  1 25  1  0  0  0
  1 30  2  0  0  0
  1 88  1  0  0  0
  2  3  1  0  0  0
  2 25  1  0  0  0
  2 90  1  0  0  0
  2 91  1  0  0  0
  3  4  1  0  0  0
  3 92  1  0  0  0
  3 93  1  0  0  0
  4  5  1  0  0  0
  4 94  1  0  0  0
  4 95  1  0  0  0
  5  6  1  0  0  0
  5 26  1  0  0  0
  5 96  1  0  0  0
  6 25  1  0  0  0
  6 97  1  0  0  0
  6 98  1  0  0  0
  7  8  2  0  0  0
  7 26  1  0  0  0
  7 29  1  0  0  0
  8  9  1  0  0  0
  8 22  1  0  0  0
  9 10  1  0  0  0
  9 27  2  0  0  0
 10 11  2  0  0  0
 10 15  1  0  0  0
 11 12  1  0  0  0
 11 99  1  0  0  0
 12 13  2  0  0  0
 12100  1  0  0  0
 13 14  1  0  0  0
 13 31  1  0  0  0
 14 15  2  0  0  0
 14101  1  0  0  0
 15102  1  0  0  0
 16 17  2  0  0  0
 16 21  1  0  0  0
 16 31  1  0  0  0
 17 18  1  0  0  0
 17103  1  0  0  0
 18 19  2  0  0  0
 18104  1  0  0  0
 19 20  1  0  0  0
 19 24  1  0  0  0
 20 21  2  0  0  0
 20105  1  0  0  0
 21 23  1  0  0  0
 22 28  1  0  0  0
 22 32  2  0  0  0
 26 27  1  0  0  0
 28106  1  0  0  0
 28107  1  0  0  0
 29108  1  0  0  0
 29109  1  0  0  0
 33 34  1  0  0  0
 33 66  1  0  0  0
 33 70  2  0  0  0
 34 36  1  0  0  0
 34 59  1  0  0  0
 34110  1  0  0  0
 35 44  2  0  0  0
 35 45  1  0  0  0
 35 68  1  0  0  0
 36 56  1  0  0  0
 36111  1  0  0  0
 37 39  1  0  0  0
 37 47  1  0  0  0
 37 66  1  0  0  0
 37112  1  0  0  0
 38 43  2  0  0  0
 38 46  1  0  0  0
 38 47  1  0  0  0
 39 64  1  0  0  0
 39 67  2  0  0  0
 40 52  1  0  0  0
 40 53  2  0  0  0
 40 58  1  0  0  0
 41113  1  0  0  0
 41114  1  0  0  0
 41115  1  0  0  0
 41 48  1  0  0  0
 42 43  1  0  0  0
 42 66  1  0  0  0
 42116  1  0  0  0
 42117  1  0  0  0
 43 44  1  0  0  0
 44118  1  0  0  0
 45 46  2  0  0  0
 45119  1  0  0  0
 46120  1  0  0  0
 47121  1  0  0  0
 47122  1  0  0  0
 48 56  1  0  0  0
 48 65  1  0  0  0
 48123  1  0  0  0
 49 50  1  0  0  0
 49 53  1  0  0  0
 49 64  1  0  0  0
 49124  1  0  0  0
 50 51  1  0  0  0
 50125  1  0  0  0
 50126  1  0  0  0
 51 52  1  0  0  0
 51127  1  0  0  0
 51128  1  0  0  0
 52129  1  0  0  0
 52130  1  0  0  0
 53 54  1  0  0  0
 54 55  2  0  0  0
 54131  1  0  0  0
 55 57  1  0  0  0
 55132  1  0  0  0
 56 69  2  0  0  0
 57 58  2  0  0  0
 57133  1  0  0  0
 58134  1  0  0  0
 59 60  1  0  0  0
 59 61  1  0  0  0
 59 62  1  0  0  0
 60135  1  0  0  0
 60136  1  0  0  0
 60137  1  0  0  0
 61138  1  0  0  0
 61139  1  0  0  0
 61140  1  0  0  0
 62141  1  0  0  0
 62142  1  0  0  0
 62143  1  0  0  0
 63 65  1  0  0  0
 63144  1  0  0  0
 63145  1  0  0  0
 63146  1  0  0  0
 64147  1  0  0  0
 65148  1  0  0  0
 68 84  1  0  0  0
 71 73  2  0  0  0
 71 76  1  0  0  0
 71149  1  0  0  0
 72 74  1  0  0  0
 72 76  2  0  0  0
 72150  1  0  0  0
 73 75  1  0  0  0
 73 77  1  0  0  0
 74 75  2  0  0  0
 74 81  1  0  0  0
 75 85  1  0  0  0
 76 87  1  0  0  0
 77151  1  0  0  0
 77152  1  0  0  0
 77153  1  0  0  0
 78154  1  0  0  0
 78155  1  0  0  0
 78156  1  0  0  0
 78 86  1  0  0  0
 79 86  1  0  0  0
 79157  1  0  0  0
 79158  1  0  0  0
 79159  1  0  0  0
 80 89  1  0  0  0
 80160  1  0  0  0
 80161  1  0  0  0
 80162  1  0  0  0
 81 82  1  0  0  0
 81163  1  0  0  0
 81164  1  0  0  0
 82 88  1  0  0  0
 82165  1  0  0  0
 82166  1  0  0  0
 83 84  1  0  0  0
 83 87  1  0  0  0
 83167  1  0  0  0
 83168  1  0  0  0
 84169  1  0  0  0
 84170  1  0  0  0
 85 86  1  0  0  0
 85 89  1  0  0  0
 85171  1  0  0  0
 86172  1  0  0  0
 87173  1  0  0  0
 88174  1  0  0  0
 89175  1  0  0  0
 89176  1  0  0  0
M  CHG  1  89   1
M  ISO  4   1 100  68 101  84 101  88 100
M  END
> <chiral flag>
0

> <version>
0

> <s_m_source_file>
/data/baiqing/PycharmProjects/Reinvent-master-3.2/result/LINK_invent/BTK/process_docking_weight1_custom_sum_contain_oxygen_bond_distance_aromatic_linkinvent_7_9_3/rearranged_h_0135.sdf

> <i_m_source_file_index>
23

> <r_mmod_Potential_Energy-OPLS-2005>
-178.699325561523

> <r_mmod_Stretch_Energy-OPLS-2005>
56.0002746582031

> <r_mmod_Bend_Energy-OPLS-2005>
129.02783203125

> <r_mmod_Torsional_Energy-OPLS-2005>
213.581207275391

> <r_mmod_Improper_Torsional_Energy-OPLS-2005>
6.34451770782471

> <r_mmod_Van_der_Waal_Energy-OPLS-2005>
161.038482666016

> <r_mmod_Electrostatic_Energy-OPLS-2005>
-337.157165527344

> <r_mmod_Solvation_Energy-OPLS-2005>
-429.792022705078

> <b_mmod_Minimization_Converged-OPLS-2005>
0

> <r_mmod_RMS_Derivative-OPLS-2005>
1.68161988258362

$$$$
23
                    3D
 Structure written by MMmdl.
158167  0  0  1  0            999 V2000
  -30.6546  -14.6383   20.4840 C   0  0  0  0  0  0
  -30.4255  -12.3906   19.4596 C   0  0  0  0  0  0
  -29.5002  -12.4910   18.2279 C   0  0  0  0  0  0
  -28.0260  -12.3310   18.6448 C   0  0  0  0  0  0
  -27.6484  -13.2201   19.8597 C   0  0  2  0  0  0
  -28.6928  -13.1136   20.9930 C   0  0  0  0  0  0
  -25.2551  -13.8182   20.5708 C   0  0  0  0  0  0
  -24.1820  -13.0447   20.9204 C   0  0  0  0  0  0
  -24.6390  -11.6918   20.8757 C   0  0  0  0  0  0
  -23.9062  -10.4299   21.0417 C   0  0  0  0  0  0
  -24.3614   -9.4211   21.9192 C   0  0  0  0  0  0
  -23.6291   -8.2245   22.0755 C   0  0  0  0  0  0
  -22.4275   -8.0282   21.3542 C   0  0  0  0  0  0
  -21.9913   -9.0258   20.4646 C   0  0  0  0  0  0
  -22.7239  -10.2139   20.3062 C   0  0  0  0  0  0
  -21.6854   -6.0740   22.5279 C   0  0  0  0  0  0
  -21.4017   -6.5643   23.8212 C   0  0  0  0  0  0
  -21.3656   -5.6794   24.9172 C   0  0  0  0  0  0
  -21.6042   -4.3059   24.7222 C   0  0  0  0  0  0
  -21.8819   -3.8151   23.4345 C   0  0  0  0  0  0
  -21.9193   -4.6968   22.3402 C   0  0  0  0  0  0
  -22.7846  -13.5242   21.1862 C   0  0  0  0  0  0
  -22.1662   -4.2155   21.0980 F   0  0  0  0  0  0
  -21.5623   -3.4541   25.7734 F   0  0  0  0  0  0
  -30.0042  -13.4350   20.4161 N   0  0  0  0  0  0
  -26.2970  -12.9367   20.3329 N   0  0  0  0  0  0
  -25.9318  -11.6522   20.5784 N   0  0  0  0  0  0
  -22.0492  -12.8227   22.0413 N   0  0  0  0  0  0
  -25.4292  -15.1899   20.4126 N   0  0  0  0  0  0
  -31.8315  -14.7460   20.1339 O   0  0  0  0  0  0
  -21.6639   -6.8881   21.4240 O   0  0  0  0  0  0
  -22.3540  -14.5557   20.6720 O   0  0  0  0  0  0
  -24.6256  -31.8593   23.2022 C   0  0  0  0  0  0
  -25.9099  -32.4781   23.8358 C   0  0  1  0  0  0
  -27.2260  -27.3312   20.1225 C   0  0  0  0  0  0
  -25.5921  -33.8579   24.2285 N   0  0  0  0  0  0
  -23.4210  -30.4812   21.5441 C   0  0  2  0  0  0
  -24.8708  -28.9386   20.1083 C   0  0  0  0  0  0
  -22.7478  -29.4608   22.4930 C   0  0  0  0  0  0
  -18.0286  -28.1386   22.8480 C   0  0  0  0  0  0
  -24.1485  -36.7286   23.2643 C   0  0  0  0  0  0
  -25.9603  -30.7943   21.3720 C   0  0  0  0  0  0
  -26.0384  -29.4223   20.7150 C   0  0  0  0  0  0
  -27.2241  -28.6295   20.7141 C   0  0  0  0  0  0
  -26.0435  -26.8947   19.4917 C   0  0  0  0  0  0
  -24.8744  -27.6792   19.4860 C   0  0  0  0  0  0
  -23.6368  -29.8166   20.1588 C   0  0  0  0  0  0
  -25.4110  -36.3082   24.0336 C   0  0  1  0  0  0
  -20.5887  -28.3679   23.1282 C   0  0  2  0  0  0
  -20.6772  -26.9401   22.5411 C   0  0  0  0  0  0
  -19.5747  -26.6376   21.5212 C   0  0  0  0  0  0
  -18.1926  -26.7927   22.1622 C   0  0  0  0  0  0
  -19.1544  -28.8850   23.2873 C   0  0  0  0  0  0
  -18.9467  -30.1452   23.8885 C   0  0  0  0  0  0
  -17.6469  -30.6586   24.0564 C   0  0  0  0  0  0
  -25.9047  -34.9449   23.5112 C   0  0  0  0  0  0
  -16.5358  -29.9084   23.6335 C   0  0  0  0  0  0
  -16.7276  -28.6508   23.0343 C   0  0  0  0  0  0
  -26.4488  -31.6592   25.0723 C   0  0  0  0  0  0
  -25.3728  -31.3717   26.1456 C   0  0  0  0  0  0
  -27.0342  -30.3028   24.6157 C   0  0  0  0  0  0
  -27.6051  -32.4329   25.7491 C   0  0  0  0  0  0
  -27.5577  -37.1793   24.8468 C   0  0  0  0  0  0
  -21.4191  -29.3034   22.3673 N   0  0  0  0  0  0
  -26.4288  -37.3775   23.9416 N   0  0  0  0  0  0
  -24.6876  -31.0612   22.0969 N   0  0  0  0  0  0
  -23.4199  -28.8141   23.3007 O   0  0  0  0  0  0
  -28.3014  -26.4383   20.1659 O   0  0  0  0  0  0
  -26.5613  -34.8917   22.4675 O   0  0  0  0  0  0
  -23.5420  -32.1391   23.7347 O   0  0  0  0  0  0
  -29.7728  -23.4680   20.1430 C   0  0  0  0  0  0
  -30.2007  -22.1056   20.0203 C   0  0  0  0  0  0
  -27.7473  -22.6898   21.1334 C   0  0  0  0  0  0
  -28.1726  -21.3430   21.0173 C   0  0  0  0  0  0
  -28.5213  -23.8133   20.7150 C   0  0  0  0  0  0
  -29.4339  -20.9860   20.4623 C   0  0  0  0  0  0
  -26.3995  -22.7719   21.8092 C   0  0  0  0  0  0
  -27.1395  -20.4058   21.5959 C   0  0  0  0  0  0
  -25.9676  -21.3091   22.0297 C   0  0  0  0  0  0
  -28.0808  -25.2905   21.0662 C   0  0  0  0  0  0
  -30.3927  -17.1792   20.4882 C   0  0  0  0  0  0
  -29.4036  -18.4147   20.6965 C   0  0  0  0  0  0
  -29.9127  -15.7661   20.7205 N   0  0  0  0  0  0
  -30.0101  -19.6993   20.3220 O   0  0  0  0  0  0
  -31.4681  -12.4992   19.1552 H   0  0  0  0  0  0
  -30.3505  -11.4042   19.9205 H   0  0  0  0  0  0
  -29.7650  -11.7278   17.4946 H   0  0  0  0  0  0
  -29.6402  -13.4539   17.7343 H   0  0  0  0  0  0
  -27.8690  -11.2806   18.8935 H   0  0  0  0  0  0
  -27.3671  -12.5422   17.8018 H   0  0  0  0  0  0
  -27.6593  -14.2488   19.4992 H   0  0  0  0  0  0
  -28.7037  -12.1086   21.4178 H   0  0  0  0  0  0
  -28.4454  -13.7877   21.8149 H   0  0  0  0  0  0
  -25.2756   -9.5685   22.4772 H   0  0  0  0  0  0
  -23.9997   -7.4636   22.7476 H   0  0  0  0  0  0
  -21.0844   -8.8780   19.8952 H   0  0  0  0  0  0
  -22.3699  -10.9680   19.6175 H   0  0  0  0  0  0
  -21.2018   -7.6152   23.9718 H   0  0  0  0  0  0
  -21.1474   -6.0525   25.9073 H   0  0  0  0  0  0
  -22.0604   -2.7616   23.2843 H   0  0  0  0  0  0
  -22.4102  -11.9863   22.4756 H   0  0  0  0  0  0
  -21.1124  -13.1263   22.2655 H   0  0  0  0  0  0
  -24.6666  -15.8484   20.5275 H   0  0  0  0  0  0
  -26.2779  -15.6236   20.0732 H   0  0  0  0  0  0
  -26.7168  -32.5459   23.1109 H   0  0  0  0  0  0
  -25.0080  -33.9730   25.0442 H   0  0  0  0  0  0
  -22.7152  -31.3016   21.4001 H   0  0  0  0  0  0
  -23.3748  -35.9618   23.3313 H   0  0  0  0  0  0
  -24.3577  -36.8899   22.2056 H   0  0  0  0  0  0
  -23.7236  -37.6491   23.6659 H   0  0  0  0  0  0
  -26.0886  -31.5570   20.6027 H   0  0  0  0  0  0
  -26.8410  -30.8446   22.0008 H   0  0  0  0  0  0
  -28.1178  -28.9887   21.2043 H   0  0  0  0  0  0
  -26.0187  -25.9189   19.0269 H   0  0  0  0  0  0
  -23.9808  -27.3010   19.0089 H   0  0  0  0  0  0
  -23.7542  -30.5943   19.4031 H   0  0  0  0  0  0
  -22.7573  -29.2452   19.8571 H   0  0  0  0  0  0
  -25.1288  -36.1935   25.0830 H   0  0  0  0  0  0
  -20.9982  -28.3253   24.1403 H   0  0  0  0  0  0
  -20.5670  -26.2286   23.3611 H   0  0  0  0  0  0
  -21.6637  -26.7428   22.1203 H   0  0  0  0  0  0
  -19.6911  -25.6287   21.1241 H   0  0  0  0  0  0
  -19.6694  -27.3185   20.6741 H   0  0  0  0  0  0
  -17.4199  -26.6679   21.4020 H   0  0  0  0  0  0
  -18.0320  -26.0071   22.9021 H   0  0  0  0  0  0
  -19.7945  -30.7267   24.2246 H   0  0  0  0  0  0
  -17.5029  -31.6266   24.5162 H   0  0  0  0  0  0
  -15.5358  -30.2986   23.7666 H   0  0  0  0  0  0
  -15.8676  -28.0833   22.7053 H   0  0  0  0  0  0
  -24.5917  -30.7046   25.7792 H   0  0  0  0  0  0
  -24.8895  -32.2874   26.4875 H   0  0  0  0  0  0
  -25.8059  -30.8912   27.0239 H   0  0  0  0  0  0
  -26.2921  -29.6770   24.1184 H   0  0  0  0  0  0
  -27.4073  -29.7283   25.4646 H   0  0  0  0  0  0
  -27.8767  -30.4341   23.9359 H   0  0  0  0  0  0
  -27.2678  -33.3645   26.2044 H   0  0  0  0  0  0
  -28.3869  -32.6862   25.0317 H   0  0  0  0  0  0
  -28.0709  -31.8468   26.5426 H   0  0  0  0  0  0
  -28.2588  -38.0094   24.7524 H   0  0  0  0  0  0
  -28.1076  -36.2627   24.6284 H   0  0  0  0  0  0
  -27.2296  -37.1437   25.8869 H   0  0  0  0  0  0
  -20.9366  -29.8786   21.6913 H   0  0  0  0  0  0
  -26.0169  -38.2848   24.1428 H   0  0  0  0  0  0
  -30.4395  -24.2582   19.8263 H   0  0  0  0  0  0
  -31.1753  -21.9179   19.5921 H   0  0  0  0  0  0
  -25.6824  -23.3069   21.1847 H   0  0  0  0  0  0
  -26.4905  -23.3018   22.7587 H   0  0  0  0  0  0
  -27.5497  -19.8813   22.4587 H   0  0  0  0  0  0
  -26.8165  -19.6723   20.8574 H   0  0  0  0  0  0
  -25.0895  -21.0889   21.4216 H   0  0  0  0  0  0
  -25.6881  -21.1289   23.0687 H   0  0  0  0  0  0
  -28.6012  -25.5406   21.9907 H   0  0  0  0  0  0
  -27.0318  -25.2604   21.3584 H   0  0  0  0  0  0
  -31.2698  -17.3367   21.1172 H   0  0  0  0  0  0
  -30.7612  -17.2244   19.4620 H   0  0  0  0  0  0
  -29.1011  -18.4451   21.7418 H   0  0  0  0  0  0
  -28.5069  -18.2613   20.0956 H   0  0  0  0  0  0
  -28.9425  -15.6342   20.9650 H   0  0  0  0  0  0
  1 25  1  0  0  0
  1 30  2  0  0  0
  1 83  1  0  0  0
  2  3  1  0  0  0
  2 25  1  0  0  0
  2 85  1  0  0  0
  2 86  1  0  0  0
  3  4  1  0  0  0
  3 87  1  0  0  0
  3 88  1  0  0  0
  4  5  1  0  0  0
  4 89  1  0  0  0
  4 90  1  0  0  0
  5  6  1  0  0  0
  5 26  1  0  0  0
  5 91  1  0  0  0
  6 25  1  0  0  0
  6 92  1  0  0  0
  6 93  1  0  0  0
  7  8  2  0  0  0
  7 26  1  0  0  0
  7 29  1  0  0  0
  8  9  1  0  0  0
  8 22  1  0  0  0
  9 10  1  0  0  0
  9 27  2  0  0  0
 10 11  2  0  0  0
 10 15  1  0  0  0
 11 12  1  0  0  0
 11 94  1  0  0  0
 12 13  2  0  0  0
 12 95  1  0  0  0
 13 14  1  0  0  0
 13 31  1  0  0  0
 14 15  2  0  0  0
 14 96  1  0  0  0
 15 97  1  0  0  0
 16 17  2  0  0  0
 16 21  1  0  0  0
 16 31  1  0  0  0
 17 18  1  0  0  0
 17 98  1  0  0  0
 18 19  2  0  0  0
 18 99  1  0  0  0
 19 20  1  0  0  0
 19 24  1  0  0  0
 20 21  2  0  0  0
 20100  1  0  0  0
 21 23  1  0  0  0
 22 28  1  0  0  0
 22 32  2  0  0  0
 26 27  1  0  0  0
 28101  1  0  0  0
 28102  1  0  0  0
 29103  1  0  0  0
 29104  1  0  0  0
 33 34  1  0  0  0
 33 66  1  0  0  0
 33 70  2  0  0  0
 34 36  1  0  0  0
 34 59  1  0  0  0
 34105  1  0  0  0
 35 44  2  0  0  0
 35 45  1  0  0  0
 35 68  1  0  0  0
 36 56  1  0  0  0
 36106  1  0  0  0
 37 39  1  0  0  0
 37 47  1  0  0  0
 37 66  1  0  0  0
 37107  1  0  0  0
 38 43  2  0  0  0
 38 46  1  0  0  0
 38 47  1  0  0  0
 39 64  1  0  0  0
 39 67  2  0  0  0
 40 52  1  0  0  0
 40 53  2  0  0  0
 40 58  1  0  0  0
 41108  1  0  0  0
 41109  1  0  0  0
 41110  1  0  0  0
 41 48  1  0  0  0
 42 43  1  0  0  0
 42 66  1  0  0  0
 42111  1  0  0  0
 42112  1  0  0  0
 43 44  1  0  0  0
 44113  1  0  0  0
 45 46  2  0  0  0
 45114  1  0  0  0
 46115  1  0  0  0
 47116  1  0  0  0
 47117  1  0  0  0
 48 56  1  0  0  0
 48 65  1  0  0  0
 48118  1  0  0  0
 49 50  1  0  0  0
 49 53  1  0  0  0
 49 64  1  0  0  0
 49119  1  0  0  0
 50 51  1  0  0  0
 50120  1  0  0  0
 50121  1  0  0  0
 51 52  1  0  0  0
 51122  1  0  0  0
 51123  1  0  0  0
 52124  1  0  0  0
 52125  1  0  0  0
 53 54  1  0  0  0
 54 55  2  0  0  0
 54126  1  0  0  0
 55 57  1  0  0  0
 55127  1  0  0  0
 56 69  2  0  0  0
 57 58  2  0  0  0
 57128  1  0  0  0
 58129  1  0  0  0
 59 60  1  0  0  0
 59 61  1  0  0  0
 59 62  1  0  0  0
 60130  1  0  0  0
 60131  1  0  0  0
 60132  1  0  0  0
 61133  1  0  0  0
 61134  1  0  0  0
 61135  1  0  0  0
 62136  1  0  0  0
 62137  1  0  0  0
 62138  1  0  0  0
 63 65  1  0  0  0
 63139  1  0  0  0
 63140  1  0  0  0
 63141  1  0  0  0
 64142  1  0  0  0
 65143  1  0  0  0
 68 80  1  0  0  0
 71 72  2  0  0  0
 71 75  1  0  0  0
 71144  1  0  0  0
 72 76  1  0  0  0
 72145  1  0  0  0
 73 74  1  0  0  0
 73 75  2  0  0  0
 73 77  1  0  0  0
 74 76  2  0  0  0
 74 78  1  0  0  0
 75 80  1  0  0  0
 76 84  1  0  0  0
 77 79  1  0  0  0
 77146  1  0  0  0
 77147  1  0  0  0
 78 79  1  0  0  0
 78148  1  0  0  0
 78149  1  0  0  0
 79150  1  0  0  0
 79151  1  0  0  0
 80152  1  0  0  0
 80153  1  0  0  0
 81 82  1  0  0  0
 81 83  1  0  0  0
 81154  1  0  0  0
 81155  1  0  0  0
 82 84  1  0  0  0
 82156  1  0  0  0
 82157  1  0  0  0
 83158  1  0  0  0
M  ISO  4   1 100  68 101  80 101  83 100
M  END
> <chiral flag>
0

> <version>
0

> <s_m_source_file>
/data/baiqing/PycharmProjects/Reinvent-master-3.2/result/LINK_invent/BTK/process_docking_weight1_custom_sum_contain_oxygen_bond_distance_aromatic_linkinvent_7_9_3/rearranged_h_0135.sdf

> <i_m_source_file_index>
24

> <r_mmod_Potential_Energy-OPLS-2005>
96.0447540283203

> <r_mmod_Stretch_Energy-OPLS-2005>
78.5171432495117

> <r_mmod_Bend_Energy-OPLS-2005>
189.762481689453

> <r_mmod_Torsional_Energy-OPLS-2005>
255.896148681641

> <r_mmod_Improper_Torsional_Energy-OPLS-2005>
6.35738468170166

> <r_mmod_Van_der_Waal_Energy-OPLS-2005>
138.408721923828

> <r_mmod_Electrostatic_Energy-OPLS-2005>
-408.445465087891

> <r_mmod_Solvation_Energy-OPLS-2005>
-216.035095214844

> <b_mmod_Minimization_Converged-OPLS-2005>
0

> <r_mmod_RMS_Derivative-OPLS-2005>
1.05579304695129

$$$$
24
                    3D
 Structure written by MMmdl.
181191  0  0  1  0            999 V2000
  -30.7273  -14.4382   20.5700 C   0  0  0  0  0  0
  -30.4091  -12.2808   19.4250 C   0  0  0  0  0  0
  -29.4866  -12.4972   18.2085 C   0  0  0  0  0  0
  -28.0075  -12.3577   18.6182 C   0  0  0  0  0  0
  -27.6571  -13.1979   19.8746 C   0  0  2  0  0  0
  -28.6977  -12.9850   20.9968 C   0  0  0  0  0  0
  -25.2556  -13.8163   20.5659 C   0  0  0  0  0  0
  -24.1841  -13.0439   20.9247 C   0  0  0  0  0  0
  -24.6384  -11.6910   20.8803 C   0  0  0  0  0  0
  -23.9049  -10.4283   21.0447 C   0  0  0  0  0  0
  -24.3596   -9.4184   21.9198 C   0  0  0  0  0  0
  -23.6252   -8.2236   22.0746 C   0  0  0  0  0  0
  -22.4223   -8.0298   21.3557 C   0  0  0  0  0  0
  -21.9886   -9.0270   20.4642 C   0  0  0  0  0  0
  -22.7242  -10.2137   20.3066 C   0  0  0  0  0  0
  -21.6834   -6.0721   22.5264 C   0  0  0  0  0  0
  -21.4039   -6.5625   23.8208 C   0  0  0  0  0  0
  -21.3654   -5.6770   24.9160 C   0  0  0  0  0  0
  -21.6031   -4.3038   24.7213 C   0  0  0  0  0  0
  -21.8817   -3.8127   23.4333 C   0  0  0  0  0  0
  -21.9182   -4.6944   22.3386 C   0  0  0  0  0  0
  -22.7869  -13.5258   21.1841 C   0  0  0  0  0  0
  -22.1626   -4.2133   21.0978 F   0  0  0  0  0  0
  -21.5614   -3.4538   25.7734 F   0  0  0  0  0  0
  -30.0307  -13.2761   20.4427 N   0  0  0  0  0  0
  -26.2979  -12.9313   20.3362 N   0  0  0  0  0  0
  -25.9287  -11.6495   20.5819 N   0  0  0  0  0  0
  -22.0498  -12.8235   22.0366 N   0  0  0  0  0  0
  -25.4223  -15.1850   20.3856 N   0  0  0  0  0  0
  -31.8666  -14.5800   20.1136 O   0  0  0  0  0  0
  -21.6600   -6.8883   21.4235 O   0  0  0  0  0  0
  -22.3600  -14.5558   20.6662 O   0  0  0  0  0  0
  -24.6104  -31.8698   23.2119 C   0  0  0  0  0  0
  -25.9003  -32.4833   23.8401 C   0  0  1  0  0  0
  -27.2395  -27.4726   20.0733 C   0  0  0  0  0  0
  -25.5873  -33.8635   24.2338 N   0  0  0  0  0  0
  -23.3970  -30.4928   21.5499 C   0  0  2  0  0  0
  -24.8428  -28.9590   20.1129 C   0  0  0  0  0  0
  -22.7391  -29.4671   22.5004 C   0  0  0  0  0  0
  -18.0266  -28.1384   22.8497 C   0  0  0  0  0  0
  -24.1486  -36.7333   23.2637 C   0  0  0  0  0  0
  -25.9208  -30.8417   21.3606 C   0  0  0  0  0  0
  -25.9965  -29.4752   20.7160 C   0  0  0  0  0  0
  -27.1916  -28.7284   20.7114 C   0  0  0  0  0  0
  -26.0683  -26.9551   19.4785 C   0  0  0  0  0  0
  -24.8702  -27.6945   19.4976 C   0  0  0  0  0  0
  -23.6024  -29.8214   20.1644 C   0  0  0  0  0  0
  -25.4103  -36.3129   24.0341 C   0  0  1  0  0  0
  -20.5858  -28.3673   23.1333 C   0  0  2  0  0  0
  -20.6765  -26.9411   22.5428 C   0  0  0  0  0  0
  -19.5744  -26.6397   21.5222 C   0  0  0  0  0  0
  -18.1916  -26.7942   22.1623 C   0  0  0  0  0  0
  -19.1519  -28.8837   23.2919 C   0  0  0  0  0  0
  -18.9451  -30.1449   23.8932 C   0  0  0  0  0  0
  -17.6450  -30.6591   24.0575 C   0  0  0  0  0  0
  -25.9022  -34.9484   23.5139 C   0  0  0  0  0  0
  -16.5336  -29.9103   23.6326 C   0  0  0  0  0  0
  -16.7255  -28.6519   23.0346 C   0  0  0  0  0  0
  -26.4450  -31.6599   25.0716 C   0  0  0  0  0  0
  -25.3735  -31.3673   26.1476 C   0  0  0  0  0  0
  -27.0273  -30.3054   24.6042 C   0  0  0  0  0  0
  -27.6037  -32.4311   25.7475 C   0  0  0  0  0  0
  -27.5581  -37.1821   24.8461 C   0  0  0  0  0  0
  -21.4119  -29.3042   22.3741 N   0  0  0  0  0  0
  -26.4296  -37.3805   23.9403 N   0  0  0  0  0  0
  -24.6612  -31.0824   22.1000 N   0  0  0  0  0  0
  -23.4171  -28.8223   23.3047 O   0  0  0  0  0  0
  -28.4217  -26.7778   20.0919 O   0  0  0  0  0  0
  -26.5601  -34.8931   22.4710 O   0  0  0  0  0  0
  -23.5300  -32.1442   23.7534 O   0  0  0  0  0  0
  -26.9645  -20.4125   20.0114 C   0  0  0  0  0  0
  -27.0469  -21.7611   19.6200 C   0  0  0  0  0  0
  -29.3790  -20.3458   20.2543 C   0  0  0  0  0  0
  -28.1315  -19.6857   20.3185 C   0  0  0  0  0  0
  -29.4737  -21.7030   19.8602 C   0  0  0  0  0  0
  -28.2903  -22.4210   19.5263 C   0  0  0  0  0  0
  -30.8687  -22.3088   19.7366 C   0  0  0  0  0  0
  -28.7531  -17.3017   19.6340 C   0  0  0  0  0  0
  -30.0590  -24.6066   20.5582 C   0  0  0  0  0  0
  -30.1317  -16.7362   20.0355 C   0  0  0  0  0  0
  -29.7917  -15.8694   22.3030 C   0  0  0  0  0  0
  -28.4305  -16.5574   22.5524 C   0  0  0  0  0  0
  -28.0276  -18.1976   20.6702 C   0  0  1  0  0  0
  -31.1591  -23.5249   20.6559 C   0  0  1  0  0  0
  -29.3523  -24.7053   19.1898 C   0  0  2  0  0  0
  -32.6972  -22.2362   22.2921 C   0  0  0  0  0  0
  -31.6385  -24.3667   23.0526 C   0  0  0  0  0  0
  -28.8582  -26.1406   18.8936 C   0  0  0  0  0  0
  -31.4550  -23.1361   22.1372 C   0  0  0  0  0  0
  -28.2469  -23.7558   19.0855 N   0  0  0  0  0  0
  -29.9957  -15.5372   20.8871 N   0  0  0  0  0  0
  -28.4048  -17.9636   22.0828 N   0  3  0  0  0  0
  -31.4573  -12.3534   19.1257 H   0  0  0  0  0  0
  -30.2860  -11.2697   19.8205 H   0  0  0  0  0  0
  -29.7224  -11.7844   17.4189 H   0  0  0  0  0  0
  -29.6573  -13.4896   17.7891 H   0  0  0  0  0  0
  -27.8155  -11.3011   18.8136 H   0  0  0  0  0  0
  -27.3556  -12.6316   17.7871 H   0  0  0  0  0  0
  -27.7011  -14.2420   19.5744 H   0  0  0  0  0  0
  -28.6673  -11.9572   21.3611 H   0  0  0  0  0  0
  -28.4481  -13.5986   21.8587 H   0  0  0  0  0  0
  -25.2757   -9.5620   22.4737 H   0  0  0  0  0  0
  -23.9968   -7.4593   22.7419 H   0  0  0  0  0  0
  -21.0851   -8.8780   19.8905 H   0  0  0  0  0  0
  -22.3748  -10.9660   19.6143 H   0  0  0  0  0  0
  -21.2058   -7.6139   23.9743 H   0  0  0  0  0  0
  -21.1474   -6.0484   25.9063 H   0  0  0  0  0  0
  -22.0607   -2.7596   23.2828 H   0  0  0  0  0  0
  -22.4170  -11.9910   22.4732 H   0  0  0  0  0  0
  -21.1118  -13.1249   22.2589 H   0  0  0  0  0  0
  -24.5712  -15.7350   20.3291 H   0  0  0  0  0  0
  -26.1041  -15.4786   19.7006 H   0  0  0  0  0  0
  -26.7072  -32.5550   23.1167 H   0  0  0  0  0  0
  -25.0020  -33.9800   25.0482 H   0  0  0  0  0  0
  -22.6854  -31.3094   21.4100 H   0  0  0  0  0  0
  -23.3740  -35.9671   23.3307 H   0  0  0  0  0  0
  -24.3584  -36.8942   22.2048 H   0  0  0  0  0  0
  -23.7235  -37.6540   23.6647 H   0  0  0  0  0  0
  -26.0219  -31.6018   20.5850 H   0  0  0  0  0  0
  -26.8138  -30.9052   21.9691 H   0  0  0  0  0  0
  -28.0829  -29.1178   21.1842 H   0  0  0  0  0  0
  -26.0719  -25.9819   19.0114 H   0  0  0  0  0  0
  -23.9818  -27.2868   19.0354 H   0  0  0  0  0  0
  -23.7057  -30.5934   19.4012 H   0  0  0  0  0  0
  -22.7288  -29.2356   19.8735 H   0  0  0  0  0  0
  -25.1278  -36.2006   25.0833 H   0  0  0  0  0  0
  -20.9950  -28.3231   24.1452 H   0  0  0  0  0  0
  -20.5681  -26.2272   23.3610 H   0  0  0  0  0  0
  -21.6633  -26.7473   22.1203 H   0  0  0  0  0  0
  -19.6904  -25.6318   21.1236 H   0  0  0  0  0  0
  -19.6687  -27.3232   20.6775 H   0  0  0  0  0  0
  -17.4193  -26.6708   21.4012 H   0  0  0  0  0  0
  -18.0298  -26.0076   22.9008 H   0  0  0  0  0  0
  -19.7921  -30.7263   24.2314 H   0  0  0  0  0  0
  -17.5002  -31.6282   24.5171 H   0  0  0  0  0  0
  -15.5341  -30.3021   23.7633 H   0  0  0  0  0  0
  -15.8648  -28.0852   22.7049 H   0  0  0  0  0  0
  -24.5937  -30.6979   25.7824 H   0  0  0  0  0  0
  -24.8890  -32.2810   26.4934 H   0  0  0  0  0  0
  -25.8121  -30.8857   27.0226 H   0  0  0  0  0  0
  -26.2794  -29.6826   24.1119 H   0  0  0  0  0  0
  -27.4090  -29.7272   25.4466 H   0  0  0  0  0  0
  -27.8608  -30.4398   23.9145 H   0  0  0  0  0  0
  -27.2663  -33.3607   26.2074 H   0  0  0  0  0  0
  -28.3838  -32.6869   25.0294 H   0  0  0  0  0  0
  -28.0707  -31.8411   26.5372 H   0  0  0  0  0  0
  -28.2604  -38.0118   24.7517 H   0  0  0  0  0  0
  -28.1078  -36.2649   24.6283 H   0  0  0  0  0  0
  -27.2301  -37.1463   25.8867 H   0  0  0  0  0  0
  -20.9264  -29.8762   21.6970 H   0  0  0  0  0  0
  -26.0193  -38.2884   24.1411 H   0  0  0  0  0  0
  -25.9957  -19.9342   20.0515 H   0  0  0  0  0  0
  -26.1302  -22.2811   19.3773 H   0  0  0  0  0  0
  -30.2839  -19.8003   20.4809 H   0  0  0  0  0  0
  -30.9948  -22.5958   18.6928 H   0  0  0  0  0  0
  -31.6223  -21.5362   19.8656 H   0  0  0  0  0  0
  -28.0997  -16.4653   19.3899 H   0  0  0  0  0  0
  -28.8422  -17.8501   18.6941 H   0  0  0  0  0  0
  -30.5252  -25.5655   20.7913 H   0  0  0  0  0  0
  -29.3038  -24.4559   21.3323 H   0  0  0  0  0  0
  -30.7595  -17.4922   20.5084 H   0  0  0  0  0  0
  -30.6485  -16.4886   19.1039 H   0  0  0  0  0  0
  -29.8433  -14.9683   22.9196 H   0  0  0  0  0  0
  -30.6130  -16.4942   22.6604 H   0  0  0  0  0  0
  -28.2566  -16.5730   23.6287 H   0  0  0  0  0  0
  -27.6047  -15.9861   22.1252 H   0  0  0  0  0  0
  -26.9689  -17.9331   20.6054 H   0  0  0  0  0  0
  -32.0726  -23.9777   20.2645 H   0  0  0  0  0  0
  -30.0565  -24.4813   18.3888 H   0  0  0  0  0  0
  -32.6017  -21.2875   21.7676 H   0  0  0  0  0  0
  -32.8674  -21.9837   23.3396 H   0  0  0  0  0  0
  -33.5986  -22.7314   21.9262 H   0  0  0  0  0  0
  -30.7277  -24.9589   23.1385 H   0  0  0  0  0  0
  -32.4294  -25.0238   22.6882 H   0  0  0  0  0  0
  -31.9016  -24.0703   24.0690 H   0  0  0  0  0  0
  -28.1317  -26.1542   18.0799 H   0  0  0  0  0  0
  -29.6985  -26.7337   18.5293 H   0  0  0  0  0  0
  -30.5943  -22.5778   22.5102 H   0  0  0  0  0  0
  -27.3386  -24.1561   18.8790 H   0  0  0  0  0  0
  -29.2947  -18.3909   22.2754 H   0  0  0  0  0  0
  -27.7234  -18.4622   22.6325 H   0  0  0  0  0  0
  1 25  1  0  0  0
  1 30  2  0  0  0
  1 91  1  0  0  0
  2  3  1  0  0  0
  2 25  1  0  0  0
  2 93  1  0  0  0
  2 94  1  0  0  0
  3  4  1  0  0  0
  3 95  1  0  0  0
  3 96  1  0  0  0
  4  5  1  0  0  0
  4 97  1  0  0  0
  4 98  1  0  0  0
  5  6  1  0  0  0
  5 26  1  0  0  0
  5 99  1  0  0  0
  6 25  1  0  0  0
  6100  1  0  0  0
  6101  1  0  0  0
  7  8  2  0  0  0
  7 26  1  0  0  0
  7 29  1  0  0  0
  8  9  1  0  0  0
  8 22  1  0  0  0
  9 10  1  0  0  0
  9 27  2  0  0  0
 10 11  2  0  0  0
 10 15  1  0  0  0
 11 12  1  0  0  0
 11102  1  0  0  0
 12 13  2  0  0  0
 12103  1  0  0  0
 13 14  1  0  0  0
 13 31  1  0  0  0
 14 15  2  0  0  0
 14104  1  0  0  0
 15105  1  0  0  0
 16 17  2  0  0  0
 16 21  1  0  0  0
 16 31  1  0  0  0
 17 18  1  0  0  0
 17106  1  0  0  0
 18 19  2  0  0  0
 18107  1  0  0  0
 19 20  1  0  0  0
 19 24  1  0  0  0
 20 21  2  0  0  0
 20108  1  0  0  0
 21 23  1  0  0  0
 22 28  1  0  0  0
 22 32  2  0  0  0
 26 27  1  0  0  0
 28109  1  0  0  0
 28110  1  0  0  0
 29111  1  0  0  0
 29112  1  0  0  0
 33 34  1  0  0  0
 33 66  1  0  0  0
 33 70  2  0  0  0
 34 36  1  0  0  0
 34 59  1  0  0  0
 34113  1  0  0  0
 35 44  2  0  0  0
 35 45  1  0  0  0
 35 68  1  0  0  0
 36 56  1  0  0  0
 36114  1  0  0  0
 37 39  1  0  0  0
 37 47  1  0  0  0
 37 66  1  0  0  0
 37115  1  0  0  0
 38 43  2  0  0  0
 38 46  1  0  0  0
 38 47  1  0  0  0
 39 64  1  0  0  0
 39 67  2  0  0  0
 40 52  1  0  0  0
 40 53  2  0  0  0
 40 58  1  0  0  0
 41116  1  0  0  0
 41117  1  0  0  0
 41118  1  0  0  0
 41 48  1  0  0  0
 42 43  1  0  0  0
 42 66  1  0  0  0
 42119  1  0  0  0
 42120  1  0  0  0
 43 44  1  0  0  0
 44121  1  0  0  0
 45 46  2  0  0  0
 45122  1  0  0  0
 46123  1  0  0  0
 47124  1  0  0  0
 47125  1  0  0  0
 48 56  1  0  0  0
 48 65  1  0  0  0
 48126  1  0  0  0
 49 50  1  0  0  0
 49 53  1  0  0  0
 49 64  1  0  0  0
 49127  1  0  0  0
 50 51  1  0  0  0
 50128  1  0  0  0
 50129  1  0  0  0
 51 52  1  0  0  0
 51130  1  0  0  0
 51131  1  0  0  0
 52132  1  0  0  0
 52133  1  0  0  0
 53 54  1  0  0  0
 54 55  2  0  0  0
 54134  1  0  0  0
 55 57  1  0  0  0
 55135  1  0  0  0
 56 69  2  0  0  0
 57 58  2  0  0  0
 57136  1  0  0  0
 58137  1  0  0  0
 59 60  1  0  0  0
 59 61  1  0  0  0
 59 62  1  0  0  0
 60138  1  0  0  0
 60139  1  0  0  0
 60140  1  0  0  0
 61141  1  0  0  0
 61142  1  0  0  0
 61143  1  0  0  0
 62144  1  0  0  0
 62145  1  0  0  0
 62146  1  0  0  0
 63 65  1  0  0  0
 63147  1  0  0  0
 63148  1  0  0  0
 63149  1  0  0  0
 64150  1  0  0  0
 65151  1  0  0  0
 68 88  1  0  0  0
 71 72  2  0  0  0
 71 74  1  0  0  0
 71152  1  0  0  0
 72 76  1  0  0  0
 72153  1  0  0  0
 73 74  2  0  0  0
 73 75  1  0  0  0
 73154  1  0  0  0
 74 83  1  0  0  0
 75 76  2  0  0  0
 75 77  1  0  0  0
 76 90  1  0  0  0
 77155  1  0  0  0
 77156  1  0  0  0
 77 84  1  0  0  0
 78 80  1  0  0  0
 78 83  1  0  0  0
 78157  1  0  0  0
 78158  1  0  0  0
 79 84  1  0  0  0
 79 85  1  0  0  0
 79159  1  0  0  0
 79160  1  0  0  0
 80 91  1  0  0  0
 80161  1  0  0  0
 80162  1  0  0  0
 81 82  1  0  0  0
 81 91  1  0  0  0
 81163  1  0  0  0
 81164  1  0  0  0
 82 92  1  0  0  0
 82165  1  0  0  0
 82166  1  0  0  0
 83 92  1  0  0  0
 83167  1  0  0  0
 84 89  1  0  0  0
 84168  1  0  0  0
 85 88  1  0  0  0
 85 90  1  0  0  0
 85169  1  0  0  0
 86170  1  0  0  0
 86171  1  0  0  0
 86172  1  0  0  0
 86 89  1  0  0  0
 87 89  1  0  0  0
 87173  1  0  0  0
 87174  1  0  0  0
 87175  1  0  0  0
 88176  1  0  0  0
 88177  1  0  0  0
 89178  1  0  0  0
 90179  1  0  0  0
 92180  1  0  0  0
 92181  1  0  0  0
M  CHG  1  92   1
M  ISO  4   1 100  68 101  88 101  91 100
M  END
> <chiral flag>
0

> <version>
0

> <s_m_source_file>
/data/baiqing/PycharmProjects/Reinvent-master-3.2/result/LINK_invent/BTK/process_docking_weight1_custom_sum_contain_oxygen_bond_distance_aromatic_linkinvent_7_9_3/rearranged_h_0135.sdf

> <i_m_source_file_index>
25

> <r_mmod_Potential_Energy-OPLS-2005>
34.5336074829102

> <r_mmod_Stretch_Energy-OPLS-2005>
40.2787246704102

> <r_mmod_Bend_Energy-OPLS-2005>
133.145217895508

> <r_mmod_Torsional_Energy-OPLS-2005>
407.408203125

> <r_mmod_Improper_Torsional_Energy-OPLS-2005>
17.2714309692383

> <r_mmod_Van_der_Waal_Energy-OPLS-2005>
161.851852416992

> <r_mmod_Electrostatic_Energy-OPLS-2005>
-289.238555908203

> <r_mmod_Solvation_Energy-OPLS-2005>
-447.740173339844

> <b_mmod_Minimization_Converged-OPLS-2005>
0

> <r_mmod_RMS_Derivative-OPLS-2005>
2.82160234451294

$$$$
25
                    3D
 Structure written by MMmdl.
168177  0  0  1  0            999 V2000
  -30.6874  -14.5138   20.5430 C   0  0  0  0  0  0
  -30.4294  -12.3298   19.4167 C   0  0  0  0  0  0
  -29.4923  -12.5110   18.2041 C   0  0  0  0  0  0
  -28.0177  -12.3573   18.6257 C   0  0  0  0  0  0
  -27.6620  -13.2074   19.8751 C   0  0  2  0  0  0
  -28.7116  -13.0074   20.9939 C   0  0  0  0  0  0
  -25.2599  -13.8151   20.5711 C   0  0  0  0  0  0
  -24.1849  -13.0434   20.9192 C   0  0  0  0  0  0
  -24.6406  -11.6902   20.8749 C   0  0  0  0  0  0
  -23.9078  -10.4295   21.0415 C   0  0  0  0  0  0
  -24.3622   -9.4209   21.9201 C   0  0  0  0  0  0
  -23.6298   -8.2242   22.0758 C   0  0  0  0  0  0
  -22.4282   -8.0282   21.3549 C   0  0  0  0  0  0
  -21.9922   -9.0257   20.4653 C   0  0  0  0  0  0
  -22.7246  -10.2143   20.3068 C   0  0  0  0  0  0
  -21.6851   -6.0747   22.5287 C   0  0  0  0  0  0
  -21.4007   -6.5646   23.8225 C   0  0  0  0  0  0
  -21.3657   -5.6797   24.9188 C   0  0  0  0  0  0
  -21.6045   -4.3064   24.7229 C   0  0  0  0  0  0
  -21.8820   -3.8157   23.4349 C   0  0  0  0  0  0
  -21.9188   -4.6973   22.3404 C   0  0  0  0  0  0
  -22.7875  -13.5234   21.1851 C   0  0  0  0  0  0
  -22.1667   -4.2161   21.0979 F   0  0  0  0  0  0
  -21.5624   -3.4547   25.7734 F   0  0  0  0  0  0
  -30.0382  -13.3206   20.4327 N   0  0  0  0  0  0
  -26.3041  -12.9330   20.3412 N   0  0  0  0  0  0
  -25.9334  -11.6491   20.5791 N   0  0  0  0  0  0
  -22.0506  -12.8222   22.0390 N   0  0  0  0  0  0
  -25.4334  -15.1867   20.4117 N   0  0  0  0  0  0
  -31.8235  -14.7050   20.1056 O   0  0  0  0  0  0
  -21.6640   -6.8889   21.4247 O   0  0  0  0  0  0
  -22.3585  -14.5557   20.6715 O   0  0  0  0  0  0
  -24.6190  -31.8657   23.2076 C   0  0  0  0  0  0
  -25.9070  -32.4811   23.8400 C   0  0  1  0  0  0
  -27.2401  -27.4097   20.1013 C   0  0  0  0  0  0
  -25.5900  -33.8611   24.2315 N   0  0  0  0  0  0
  -23.4103  -30.4882   21.5504 C   0  0  2  0  0  0
  -24.8609  -28.9519   20.1144 C   0  0  0  0  0  0
  -22.7441  -29.4642   22.4989 C   0  0  0  0  0  0
  -18.0268  -28.1359   22.8496 C   0  0  0  0  0  0
  -24.1487  -36.7302   23.2631 C   0  0  0  0  0  0
  -25.9427  -30.8232   21.3667 C   0  0  0  0  0  0
  -26.0241  -29.4555   20.7131 C   0  0  0  0  0  0
  -27.2197  -28.6917   20.7068 C   0  0  0  0  0  0
  -26.0630  -26.9306   19.4898 C   0  0  0  0  0  0
  -24.8757  -27.6889   19.4982 C   0  0  0  0  0  0
  -23.6201  -29.8194   20.1662 C   0  0  0  0  0  0
  -25.4100  -36.3094   24.0331 C   0  0  1  0  0  0
  -20.5868  -28.3653   23.1316 C   0  0  2  0  0  0
  -20.6761  -26.9391   22.5403 C   0  0  0  0  0  0
  -19.5731  -26.6382   21.5203 C   0  0  0  0  0  0
  -18.1911  -26.7910   22.1617 C   0  0  0  0  0  0
  -19.1524  -28.8823   23.2893 C   0  0  0  0  0  0
  -18.9452  -30.1435   23.8900 C   0  0  0  0  0  0
  -17.6452  -30.6569   24.0569 C   0  0  0  0  0  0
  -25.9041  -34.9472   23.5119 C   0  0  0  0  0  0
  -16.5341  -29.9061   23.6337 C   0  0  0  0  0  0
  -16.7257  -28.6481   23.0355 C   0  0  0  0  0  0
  -26.4477  -31.6606   25.0741 C   0  0  0  0  0  0
  -25.3717  -31.3712   26.1465 C   0  0  0  0  0  0
  -27.0327  -30.3056   24.6118 C   0  0  0  0  0  0
  -27.6060  -32.4334   25.7473 C   0  0  0  0  0  0
  -27.5588  -37.1767   24.8440 C   0  0  0  0  0  0
  -21.4166  -29.3016   22.3722 N   0  0  0  0  0  0
  -26.4275  -37.3779   23.9432 N   0  0  0  0  0  0
  -24.6759  -31.0723   22.0996 N   0  0  0  0  0  0
  -23.4201  -28.8178   23.3039 O   0  0  0  0  0  0
  -28.3535  -26.5862   20.1230 O   0  0  0  0  0  0
  -26.5614  -34.8925   22.4689 O   0  0  0  0  0  0
  -23.5374  -32.1432   23.7430 O   0  0  0  0  0  0
  -30.2772  -22.3110   21.7250 C   0  0  0  0  0  0
  -29.8147  -23.6453   21.8017 C   0  0  0  0  0  0
  -30.2317  -20.0898   20.6499 C   0  0  0  0  0  0
  -28.5908  -23.3495   19.7306 C   0  0  0  0  0  0
  -28.6722  -21.1684   18.5856 C   0  0  0  0  0  0
  -29.8671  -21.4641   20.6741 C   0  0  0  0  0  0
  -29.0481  -22.0040   19.6553 C   0  0  0  0  0  0
  -28.9384  -24.1769   20.8267 C   0  0  0  0  0  0
  -29.7900  -19.2201   19.6153 C   0  0  0  0  0  0
  -29.0451  -19.8015   18.5430 C   0  0  0  0  0  0
  -29.4855  -17.5752   15.4925 C   0  0  0  0  0  0
  -30.3630  -19.8537   15.7500 C   0  0  0  0  0  0
  -30.1118  -17.6976   19.6390 C   0  0  0  0  0  0
  -28.6279  -19.0040   17.3044 C   0  0  0  0  0  0
  -28.2269  -25.5221   21.0954 C   0  0  0  0  0  0
  -30.2383  -16.9890   21.0222 C   0  0  0  0  0  0
  -29.9325  -15.5382   20.9906 N   0  0  0  0  0  0
  -29.7866  -18.6749   16.4368 N   0  3  0  0  0  0
  -31.4712  -12.4377   19.1094 H   0  0  0  0  0  0
  -30.3414  -11.3208   19.8221 H   0  0  0  0  0  0
  -29.7368  -11.7897   17.4235 H   0  0  0  0  0  0
  -29.6453  -13.4982   17.7663 H   0  0  0  0  0  0
  -27.8431  -11.3004   18.8355 H   0  0  0  0  0  0
  -27.3587  -12.6150   17.7950 H   0  0  0  0  0  0
  -27.6993  -14.2521   19.5643 H   0  0  0  0  0  0
  -28.6972  -11.9764   21.3493 H   0  0  0  0  0  0
  -28.4755  -13.6185   21.8656 H   0  0  0  0  0  0
  -25.2763   -9.5681   22.4780 H   0  0  0  0  0  0
  -24.0004   -7.4634   22.7469 H   0  0  0  0  0  0
  -21.0856   -8.8789   19.8948 H   0  0  0  0  0  0
  -22.3716  -10.9693   19.6174 H   0  0  0  0  0  0
  -21.2005   -7.6157   23.9731 H   0  0  0  0  0  0
  -21.1476   -6.0529   25.9090 H   0  0  0  0  0  0
  -22.0597   -2.7616   23.2845 H   0  0  0  0  0  0
  -22.4108  -11.9858   22.4742 H   0  0  0  0  0  0
  -21.1130  -13.1265   22.2606 H   0  0  0  0  0  0
  -24.6667  -15.8410   20.5223 H   0  0  0  0  0  0
  -26.2898  -15.6291   20.1045 H   0  0  0  0  0  0
  -26.7149  -32.5533   23.1173 H   0  0  0  0  0  0
  -25.0036  -33.9765   25.0455 H   0  0  0  0  0  0
  -22.7003  -31.3068   21.4120 H   0  0  0  0  0  0
  -23.3757  -35.9622   23.3252 H   0  0  0  0  0  0
  -24.3606  -36.8959   22.2058 H   0  0  0  0  0  0
  -23.7243  -37.6486   23.6686 H   0  0  0  0  0  0
  -26.0560  -31.5927   20.6011 H   0  0  0  0  0  0
  -26.8282  -30.8794   21.9888 H   0  0  0  0  0  0
  -28.1125  -29.0685   21.1862 H   0  0  0  0  0  0
  -26.0614  -25.9554   19.0213 H   0  0  0  0  0  0
  -23.9842  -27.2966   19.0304 H   0  0  0  0  0  0
  -23.7172  -30.5946   19.4041 H   0  0  0  0  0  0
  -22.7443  -29.2339   19.8778 H   0  0  0  0  0  0
  -25.1277  -36.1927   25.0819 H   0  0  0  0  0  0
  -20.9962  -28.3203   24.1434 H   0  0  0  0  0  0
  -20.5674  -26.2249   23.3573 H   0  0  0  0  0  0
  -21.6630  -26.7433   22.1190 H   0  0  0  0  0  0
  -19.6903  -25.6299   21.1197 H   0  0  0  0  0  0
  -19.6683  -27.3233   20.6761 H   0  0  0  0  0  0
  -17.4192  -26.6682   21.4001 H   0  0  0  0  0  0
  -18.0288  -26.0043   22.8998 H   0  0  0  0  0  0
  -19.7932  -30.7233   24.2280 H   0  0  0  0  0  0
  -17.5012  -31.6262   24.5145 H   0  0  0  0  0  0
  -15.5335  -30.2961   23.7671 H   0  0  0  0  0  0
  -15.8654  -28.0801   22.7065 H   0  0  0  0  0  0
  -24.5878  -30.7089   25.7767 H   0  0  0  0  0  0
  -24.8915  -32.2870   26.4930 H   0  0  0  0  0  0
  -25.8035  -30.8849   27.0218 H   0  0  0  0  0  0
  -26.2895  -29.6789   24.1175 H   0  0  0  0  0  0
  -27.4117  -29.7308   25.4567 H   0  0  0  0  0  0
  -27.8702  -30.4381   23.9271 H   0  0  0  0  0  0
  -27.2707  -33.3650   26.2035 H   0  0  0  0  0  0
  -28.3843  -32.6863   25.0270 H   0  0  0  0  0  0
  -28.0751  -31.8478   26.5374 H   0  0  0  0  0  0
  -28.2518  -38.0145   24.7617 H   0  0  0  0  0  0
  -28.1171  -36.2687   24.6108 H   0  0  0  0  0  0
  -27.2332  -37.1214   25.8839 H   0  0  0  0  0  0
  -20.9322  -29.8754   21.6960 H   0  0  0  0  0  0
  -26.0151  -38.2830   24.1514 H   0  0  0  0  0  0
  -30.9142  -21.9252   22.5071 H   0  0  0  0  0  0
  -30.0924  -24.2425   22.6584 H   0  0  0  0  0  0
  -30.8397  -19.6971   21.4526 H   0  0  0  0  0  0
  -27.9127  -23.7301   18.9807 H   0  0  0  0  0  0
  -28.0754  -21.5832   17.7838 H   0  0  0  0  0  0
  -30.3651  -17.3090   14.9044 H   0  0  0  0  0  0
  -28.6899  -17.8596   14.8035 H   0  0  0  0  0  0
  -29.1641  -16.6805   16.0265 H   0  0  0  0  0  0
  -31.2562  -19.5765   15.1891 H   0  0  0  0  0  0
  -30.6586  -20.6263   16.4600 H   0  0  0  0  0  0
  -29.6513  -20.2918   15.0494 H   0  0  0  0  0  0
  -31.0317  -17.5288   19.0771 H   0  0  0  0  0  0
  -29.3306  -17.1689   19.0993 H   0  0  0  0  0  0
  -27.9007  -19.5690   16.7177 H   0  0  0  0  0  0
  -28.0959  -18.1049   17.6111 H   0  0  0  0  0  0
  -28.5773  -25.9166   22.0499 H   0  0  0  0  0  0
  -27.1784  -25.2674   21.2651 H   0  0  0  0  0  0
  -29.5227  -17.4353   21.7142 H   0  0  0  0  0  0
  -31.2252  -17.1652   21.4532 H   0  0  0  0  0  0
  -29.0093  -15.2775   21.3040 H   0  0  0  0  0  0
  -30.5093  -18.3286   17.0479 H   0  0  0  0  0  0
  1 25  1  0  0  0
  1 30  2  0  0  0
  1 87  1  0  0  0
  2  3  1  0  0  0
  2 25  1  0  0  0
  2 89  1  0  0  0
  2 90  1  0  0  0
  3  4  1  0  0  0
  3 91  1  0  0  0
  3 92  1  0  0  0
  4  5  1  0  0  0
  4 93  1  0  0  0
  4 94  1  0  0  0
  5  6  1  0  0  0
  5 26  1  0  0  0
  5 95  1  0  0  0
  6 25  1  0  0  0
  6 96  1  0  0  0
  6 97  1  0  0  0
  7  8  2  0  0  0
  7 26  1  0  0  0
  7 29  1  0  0  0
  8  9  1  0  0  0
  8 22  1  0  0  0
  9 10  1  0  0  0
  9 27  2  0  0  0
 10 11  2  0  0  0
 10 15  1  0  0  0
 11 12  1  0  0  0
 11 98  1  0  0  0
 12 13  2  0  0  0
 12 99  1  0  0  0
 13 14  1  0  0  0
 13 31  1  0  0  0
 14 15  2  0  0  0
 14100  1  0  0  0
 15101  1  0  0  0
 16 17  2  0  0  0
 16 21  1  0  0  0
 16 31  1  0  0  0
 17 18  1  0  0  0
 17102  1  0  0  0
 18 19  2  0  0  0
 18103  1  0  0  0
 19 20  1  0  0  0
 19 24  1  0  0  0
 20 21  2  0  0  0
 20104  1  0  0  0
 21 23  1  0  0  0
 22 28  1  0  0  0
 22 32  2  0  0  0
 26 27  1  0  0  0
 28105  1  0  0  0
 28106  1  0  0  0
 29107  1  0  0  0
 29108  1  0  0  0
 33 34  1  0  0  0
 33 66  1  0  0  0
 33 70  2  0  0  0
 34 36  1  0  0  0
 34 59  1  0  0  0
 34109  1  0  0  0
 35 44  2  0  0  0
 35 45  1  0  0  0
 35 68  1  0  0  0
 36 56  1  0  0  0
 36110  1  0  0  0
 37 39  1  0  0  0
 37 47  1  0  0  0
 37 66  1  0  0  0
 37111  1  0  0  0
 38 43  2  0  0  0
 38 46  1  0  0  0
 38 47  1  0  0  0
 39 64  1  0  0  0
 39 67  2  0  0  0
 40 52  1  0  0  0
 40 53  2  0  0  0
 40 58  1  0  0  0
 41112  1  0  0  0
 41113  1  0  0  0
 41114  1  0  0  0
 41 48  1  0  0  0
 42 43  1  0  0  0
 42 66  1  0  0  0
 42115  1  0  0  0
 42116  1  0  0  0
 43 44  1  0  0  0
 44117  1  0  0  0
 45 46  2  0  0  0
 45118  1  0  0  0
 46119  1  0  0  0
 47120  1  0  0  0
 47121  1  0  0  0
 48 56  1  0  0  0
 48 65  1  0  0  0
 48122  1  0  0  0
 49 50  1  0  0  0
 49 53  1  0  0  0
 49 64  1  0  0  0
 49123  1  0  0  0
 50 51  1  0  0  0
 50124  1  0  0  0
 50125  1  0  0  0
 51 52  1  0  0  0
 51126  1  0  0  0
 51127  1  0  0  0
 52128  1  0  0  0
 52129  1  0  0  0
 53 54  1  0  0  0
 54 55  2  0  0  0
 54130  1  0  0  0
 55 57  1  0  0  0
 55131  1  0  0  0
 56 69  2  0  0  0
 57 58  2  0  0  0
 57132  1  0  0  0
 58133  1  0  0  0
 59 60  1  0  0  0
 59 61  1  0  0  0
 59 62  1  0  0  0
 60134  1  0  0  0
 60135  1  0  0  0
 60136  1  0  0  0
 61137  1  0  0  0
 61138  1  0  0  0
 61139  1  0  0  0
 62140  1  0  0  0
 62141  1  0  0  0
 62142  1  0  0  0
 63 65  1  0  0  0
 63143  1  0  0  0
 63144  1  0  0  0
 63145  1  0  0  0
 64146  1  0  0  0
 65147  1  0  0  0
 68 85  1  0  0  0
 71 72  2  0  0  0
 71 76  1  0  0  0
 71148  1  0  0  0
 72 78  1  0  0  0
 72149  1  0  0  0
 73 76  2  0  0  0
 73 79  1  0  0  0
 73150  1  0  0  0
 74 77  1  0  0  0
 74 78  2  0  0  0
 74151  1  0  0  0
 75 77  2  0  0  0
 75 80  1  0  0  0
 75152  1  0  0  0
 76 77  1  0  0  0
 78 85  1  0  0  0
 79 80  2  0  0  0
 79 83  1  0  0  0
 80 84  1  0  0  0
 81153  1  0  0  0
 81154  1  0  0  0
 81155  1  0  0  0
 81 88  1  0  0  0
 82 88  1  0  0  0
 82156  1  0  0  0
 82157  1  0  0  0
 82158  1  0  0  0
 83 86  1  0  0  0
 83159  1  0  0  0
 83160  1  0  0  0
 84 88  1  0  0  0
 84161  1  0  0  0
 84162  1  0  0  0
 85163  1  0  0  0
 85164  1  0  0  0
 86 87  1  0  0  0
 86165  1  0  0  0
 86166  1  0  0  0
 87167  1  0  0  0
 88168  1  0  0  0
M  CHG  1  88   1
M  ISO  4   1 100  68 101  85 101  87 100
M  END
> <chiral flag>
0

> <version>
0

> <s_m_source_file>
/data/baiqing/PycharmProjects/Reinvent-master-3.2/result/LINK_invent/BTK/process_docking_weight1_custom_sum_contain_oxygen_bond_distance_aromatic_linkinvent_7_9_3/rearranged_h_0135.sdf

> <i_m_source_file_index>
26

> <r_mmod_Potential_Energy-OPLS-2005>
-162.087188720703

> <r_mmod_Stretch_Energy-OPLS-2005>
49.0374336242676

> <r_mmod_Bend_Energy-OPLS-2005>
103.397422790527

> <r_mmod_Torsional_Energy-OPLS-2005>
236.440780639648

> <r_mmod_Improper_Torsional_Energy-OPLS-2005>
5.40880632400513

> <r_mmod_Van_der_Waal_Energy-OPLS-2005>
159.860824584961

> <r_mmod_Electrostatic_Energy-OPLS-2005>
-287.148010253906

> <r_mmod_Solvation_Energy-OPLS-2005>
-448.617736816406

> <b_mmod_Minimization_Converged-OPLS-2005>
0

> <r_mmod_RMS_Derivative-OPLS-2005>
2.56332540512085

$$$$
26
                    3D
 Structure written by MMmdl.
163172  0  0  1  0            999 V2000
  -30.6226  -14.8067   20.4727 C   0  0  0  0  0  0
  -30.4211  -12.5018   19.4895 C   0  0  0  0  0  0
  -29.5072  -12.5122   18.2464 C   0  0  0  0  0  0
  -28.0385  -12.3226   18.6645 C   0  0  0  0  0  0
  -27.6332  -13.2421   19.8470 C   0  0  2  0  0  0
  -28.6750  -13.2283   20.9866 C   0  0  0  0  0  0
  -25.2470  -13.8217   20.5721 C   0  0  0  0  0  0
  -24.1777  -13.0447   20.9229 C   0  0  0  0  0  0
  -24.6385  -11.6929   20.8762 C   0  0  0  0  0  0
  -23.9069  -10.4298   21.0414 C   0  0  0  0  0  0
  -24.3620   -9.4212   21.9190 C   0  0  0  0  0  0
  -23.6299   -8.2245   22.0755 C   0  0  0  0  0  0
  -22.4281   -8.0281   21.3544 C   0  0  0  0  0  0
  -21.9917   -9.0255   20.4644 C   0  0  0  0  0  0
  -22.7243  -10.2136   20.3059 C   0  0  0  0  0  0
  -21.6857   -6.0738   22.5280 C   0  0  0  0  0  0
  -21.4012   -6.5640   23.8213 C   0  0  0  0  0  0
  -21.3659   -5.6794   24.9175 C   0  0  0  0  0  0
  -21.6043   -4.3056   24.7226 C   0  0  0  0  0  0
  -21.8819   -3.8148   23.4348 C   0  0  0  0  0  0
  -21.9192   -4.6966   22.3403 C   0  0  0  0  0  0
  -22.7797  -13.5222   21.1879 C   0  0  0  0  0  0
  -22.1663   -4.2152   21.0982 F   0  0  0  0  0  0
  -21.5629   -3.4540   25.7738 F   0  0  0  0  0  0
  -29.9653  -13.5921   20.3929 N   0  0  0  0  0  0
  -26.2895  -12.9443   20.3291 N   0  0  0  0  0  0
  -25.9316  -11.6576   20.5767 N   0  0  0  0  0  0
  -22.0445  -12.8203   22.0430 N   0  0  0  0  0  0
  -25.4151  -15.1946   20.4140 N   0  0  0  0  0  0
  -31.7970  -14.8447   20.0922 O   0  0  0  0  0  0
  -21.6642   -6.8880   21.4242 O   0  0  0  0  0  0
  -22.3481  -14.5529   20.6728 O   0  0  0  0  0  0
  -24.6342  -31.8496   23.1916 C   0  0  0  0  0  0
  -25.9150  -32.4718   23.8283 C   0  0  1  0  0  0
  -27.2209  -27.2157   20.1364 C   0  0  0  0  0  0
  -25.5936  -33.8525   24.2209 N   0  0  0  0  0  0
  -23.4327  -30.4678   21.5352 C   0  0  2  0  0  0
  -24.8799  -28.9005   20.1059 C   0  0  0  0  0  0
  -22.7515  -29.4562   22.4889 C   0  0  0  0  0  0
  -18.0289  -28.1373   22.8480 C   0  0  0  0  0  0
  -24.1492  -36.7274   23.2644 C   0  0  0  0  0  0
  -25.9789  -30.7473   21.3758 C   0  0  0  0  0  0
  -26.0494  -29.3646   20.7191 C   0  0  0  0  0  0
  -27.2176  -28.5337   20.7215 C   0  0  0  0  0  0
  -26.0285  -26.8218   19.4936 C   0  0  0  0  0  0
  -24.8773  -27.6408   19.4815 C   0  0  0  0  0  0
  -23.6524  -29.7940   20.1529 C   0  0  0  0  0  0
  -25.4120  -36.3048   24.0317 C   0  0  1  0  0  0
  -20.5894  -28.3690   23.1260 C   0  0  2  0  0  0
  -20.6771  -26.9402   22.5407 C   0  0  0  0  0  0
  -19.5750  -26.6367   21.5209 C   0  0  0  0  0  0
  -18.1931  -26.7913   22.1616 C   0  0  0  0  0  0
  -19.1544  -28.8850   23.2861 C   0  0  0  0  0  0
  -18.9471  -30.1451   23.8879 C   0  0  0  0  0  0
  -17.6473  -30.6580   24.0558 C   0  0  0  0  0  0
  -25.9067  -34.9421   23.5067 C   0  0  0  0  0  0
  -16.5362  -29.9076   23.6333 C   0  0  0  0  0  0
  -16.7276  -28.6490   23.0356 C   0  0  0  0  0  0
  -26.4502  -31.6573   25.0703 C   0  0  0  0  0  0
  -25.3714  -31.3741   26.1424 C   0  0  0  0  0  0
  -27.0366  -30.2985   24.6224 C   0  0  0  0  0  0
  -27.6040  -32.4337   25.7483 C   0  0  0  0  0  0
  -27.5569  -37.1794   24.8465 C   0  0  0  0  0  0
  -21.4217  -29.3038   22.3650 N   0  0  0  0  0  0
  -26.4284  -37.3757   23.9404 N   0  0  0  0  0  0
  -24.7012  -31.0420   22.0904 N   0  0  0  0  0  0
  -23.4202  -28.8115   23.3008 O   0  0  0  0  0  0
  -28.3307  -26.3361   20.2398 O   0  0  0  0  0  0
  -26.5650  -34.8909   22.4643 O   0  0  0  0  0  0
  -23.5483  -32.1339   23.7190 O   0  0  0  0  0  0
  -32.3827  -19.4688   21.8452 C   0  0  0  0  0  0
  -32.5769  -18.2065   22.3978 C   0  0  0  0  0  0
  -31.2068  -19.7227   21.1387 C   0  0  0  0  0  0
  -31.6778  -17.1567   22.1431 C   0  0  0  0  0  0
  -30.2336  -18.7296   20.8788 C   0  0  0  0  0  0
  -30.5792  -17.3090   21.2228 C   0  0  0  0  0  0
  -30.8860  -15.2543   23.8039 C   0  0  0  0  0  0
  -32.0227  -15.9875   24.4681 C   0  0  0  0  0  0
  -31.9557  -15.9131   22.9566 C   0  0  0  0  0  0
  -28.8803  -19.4001   20.3692 C   0  0  0  0  0  0
  -28.7055  -20.9640   19.8021 C   0  0  0  0  0  0
  -28.0207  -23.5427   20.5475 C   0  0  0  0  0  0
  -28.4346  -24.9028   19.7290 C   0  0  0  0  0  0
  -29.9551  -16.0045   20.8044 N   0  0  0  0  0  0
  -28.9190  -22.2594   20.6323 N   0  3  0  0  0  0
  -31.4626  -12.6151   19.1842 H   0  0  0  0  0  0
  -30.3696  -11.5390   20.0005 H   0  0  0  0  0  0
  -29.8042  -11.7260   17.5510 H   0  0  0  0  0  0
  -29.6205  -13.4563   17.7115 H   0  0  0  0  0  0
  -27.9148  -11.2775   18.9523 H   0  0  0  0  0  0
  -27.3761  -12.4831   17.8125 H   0  0  0  0  0  0
  -27.6128  -14.2536   19.4408 H   0  0  0  0  0  0
  -28.7289  -12.2467   21.4596 H   0  0  0  0  0  0
  -28.3978  -13.9349   21.7707 H   0  0  0  0  0  0
  -25.2762   -9.5692   22.4767 H   0  0  0  0  0  0
  -24.0009   -7.4636   22.7473 H   0  0  0  0  0  0
  -21.0850   -8.8770   19.8949 H   0  0  0  0  0  0
  -22.3699  -10.9674   19.6167 H   0  0  0  0  0  0
  -21.2002   -7.6147   23.9717 H   0  0  0  0  0  0
  -21.1482   -6.0523   25.9078 H   0  0  0  0  0  0
  -22.0597   -2.7611   23.2847 H   0  0  0  0  0  0
  -22.4065  -11.9864   22.4812 H   0  0  0  0  0  0
  -21.1059  -13.1216   22.2632 H   0  0  0  0  0  0
  -24.6457  -15.8464   20.5216 H   0  0  0  0  0  0
  -26.2590  -15.6338   20.0702 H   0  0  0  0  0  0
  -26.7212  -32.5346   23.1012 H   0  0  0  0  0  0
  -25.0093  -33.9657   25.0358 H   0  0  0  0  0  0
  -22.7313  -31.2911   21.3839 H   0  0  0  0  0  0
  -23.3751  -35.9611   23.3306 H   0  0  0  0  0  0
  -24.3579  -36.8901   22.2061 H   0  0  0  0  0  0
  -23.7252  -37.6470   23.6681 H   0  0  0  0  0  0
  -26.1225  -31.5043   20.6036 H   0  0  0  0  0  0
  -26.8551  -30.7979   22.0111 H   0  0  0  0  0  0
  -28.1129  -28.8818   21.2181 H   0  0  0  0  0  0
  -25.9578  -25.8517   19.0243 H   0  0  0  0  0  0
  -23.9795  -27.2804   18.9983 H   0  0  0  0  0  0
  -23.7788  -30.5678   19.3948 H   0  0  0  0  0  0
  -22.7693  -29.2292   19.8479 H   0  0  0  0  0  0
  -25.1304  -36.1884   25.0810 H   0  0  0  0  0  0
  -20.9983  -28.3271   24.1382 H   0  0  0  0  0  0
  -20.5660  -26.2306   23.3616 H   0  0  0  0  0  0
  -21.6641  -26.7411   22.1211 H   0  0  0  0  0  0
  -19.6917  -25.6277   21.1244 H   0  0  0  0  0  0
  -19.6685  -27.3175   20.6738 H   0  0  0  0  0  0
  -17.4199  -26.6662   21.4019 H   0  0  0  0  0  0
  -18.0329  -26.0048   22.9006 H   0  0  0  0  0  0
  -19.7956  -30.7269   24.2234 H   0  0  0  0  0  0
  -17.5032  -31.6261   24.5159 H   0  0  0  0  0  0
  -15.5365  -30.2978   23.7664 H   0  0  0  0  0  0
  -15.8671  -28.0810   22.7080 H   0  0  0  0  0  0
  -24.5893  -30.7077   25.7765 H   0  0  0  0  0  0
  -24.8902  -32.2919   26.4822 H   0  0  0  0  0  0
  -25.8026  -30.8948   27.0222 H   0  0  0  0  0  0
  -26.2964  -29.6720   24.1235 H   0  0  0  0  0  0
  -27.4024  -29.7264   25.4761 H   0  0  0  0  0  0
  -27.8845  -30.4253   23.9487 H   0  0  0  0  0  0
  -27.2630  -33.3654   26.2010 H   0  0  0  0  0  0
  -28.3873  -32.6873   25.0328 H   0  0  0  0  0  0
  -28.0678  -31.8497   26.5441 H   0  0  0  0  0  0
  -28.2587  -38.0092   24.7503 H   0  0  0  0  0  0
  -28.1059  -36.2617   24.6298 H   0  0  0  0  0  0
  -27.2285  -37.1453   25.8869 H   0  0  0  0  0  0
  -20.9411  -29.8775   21.6862 H   0  0  0  0  0  0
  -26.0152  -38.2825   24.1407 H   0  0  0  0  0  0
  -33.0882  -20.2648   22.0407 H   0  0  0  0  0  0
  -33.4295  -18.0449   23.0435 H   0  0  0  0  0  0
  -31.0565  -20.7436   20.8327 H   0  0  0  0  0  0
  -29.9030  -15.7208   23.8383 H   0  0  0  0  0  0
  -30.8912  -14.1685   23.8759 H   0  0  0  0  0  0
  -32.7699  -15.3797   24.9747 H   0  0  0  0  0  0
  -31.7866  -16.9351   24.9494 H   0  0  0  0  0  0
  -32.7104  -15.2884   22.4823 H   0  0  0  0  0  0
  -28.1641  -19.2700   21.1806 H   0  0  0  0  0  0
  -28.5196  -18.7403   19.5801 H   0  0  0  0  0  0
  -27.6757  -21.0251   19.4498 H   0  0  0  0  0  0
  -29.3058  -21.0660   18.8978 H   0  0  0  0  0  0
  -27.0036  -23.2536   20.2825 H   0  0  0  0  0  0
  -27.9431  -23.8648   21.5856 H   0  0  0  0  0  0
  -27.9859  -24.8566   18.7365 H   0  0  0  0  0  0
  -29.5001  -24.7992   19.5252 H   0  0  0  0  0  0
  -28.9487  -15.9538   20.8527 H   0  0  0  0  0  0
  -29.8834  -22.5390   20.5453 H   0  0  0  0  0  0
  -28.8149  -21.9561   21.5877 H   0  0  0  0  0  0
  1 25  1  0  0  0
  1 30  2  0  0  0
  1 84  1  0  0  0
  2  3  1  0  0  0
  2 25  1  0  0  0
  2 86  1  0  0  0
  2 87  1  0  0  0
  3  4  1  0  0  0
  3 88  1  0  0  0
  3 89  1  0  0  0
  4  5  1  0  0  0
  4 90  1  0  0  0
  4 91  1  0  0  0
  5  6  1  0  0  0
  5 26  1  0  0  0
  5 92  1  0  0  0
  6 25  1  0  0  0
  6 93  1  0  0  0
  6 94  1  0  0  0
  7  8  2  0  0  0
  7 26  1  0  0  0
  7 29  1  0  0  0
  8  9  1  0  0  0
  8 22  1  0  0  0
  9 10  1  0  0  0
  9 27  2  0  0  0
 10 11  2  0  0  0
 10 15  1  0  0  0
 11 12  1  0  0  0
 11 95  1  0  0  0
 12 13  2  0  0  0
 12 96  1  0  0  0
 13 14  1  0  0  0
 13 31  1  0  0  0
 14 15  2  0  0  0
 14 97  1  0  0  0
 15 98  1  0  0  0
 16 17  2  0  0  0
 16 21  1  0  0  0
 16 31  1  0  0  0
 17 18  1  0  0  0
 17 99  1  0  0  0
 18 19  2  0  0  0
 18100  1  0  0  0
 19 20  1  0  0  0
 19 24  1  0  0  0
 20 21  2  0  0  0
 20101  1  0  0  0
 21 23  1  0  0  0
 22 28  1  0  0  0
 22 32  2  0  0  0
 26 27  1  0  0  0
 28102  1  0  0  0
 28103  1  0  0  0
 29104  1  0  0  0
 29105  1  0  0  0
 33 34  1  0  0  0
 33 66  1  0  0  0
 33 70  2  0  0  0
 34 36  1  0  0  0
 34 59  1  0  0  0
 34106  1  0  0  0
 35 44  2  0  0  0
 35 45  1  0  0  0
 35 68  1  0  0  0
 36 56  1  0  0  0
 36107  1  0  0  0
 37 39  1  0  0  0
 37 47  1  0  0  0
 37 66  1  0  0  0
 37108  1  0  0  0
 38 43  2  0  0  0
 38 46  1  0  0  0
 38 47  1  0  0  0
 39 64  1  0  0  0
 39 67  2  0  0  0
 40 52  1  0  0  0
 40 53  2  0  0  0
 40 58  1  0  0  0
 41109  1  0  0  0
 41110  1  0  0  0
 41111  1  0  0  0
 41 48  1  0  0  0
 42 43  1  0  0  0
 42 66  1  0  0  0
 42112  1  0  0  0
 42113  1  0  0  0
 43 44  1  0  0  0
 44114  1  0  0  0
 45 46  2  0  0  0
 45115  1  0  0  0
 46116  1  0  0  0
 47117  1  0  0  0
 47118  1  0  0  0
 48 56  1  0  0  0
 48 65  1  0  0  0
 48119  1  0  0  0
 49 50  1  0  0  0
 49 53  1  0  0  0
 49 64  1  0  0  0
 49120  1  0  0  0
 50 51  1  0  0  0
 50121  1  0  0  0
 50122  1  0  0  0
 51 52  1  0  0  0
 51123  1  0  0  0
 51124  1  0  0  0
 52125  1  0  0  0
 52126  1  0  0  0
 53 54  1  0  0  0
 54 55  2  0  0  0
 54127  1  0  0  0
 55 57  1  0  0  0
 55128  1  0  0  0
 56 69  2  0  0  0
 57 58  2  0  0  0
 57129  1  0  0  0
 58130  1  0  0  0
 59 60  1  0  0  0
 59 61  1  0  0  0
 59 62  1  0  0  0
 60131  1  0  0  0
 60132  1  0  0  0
 60133  1  0  0  0
 61134  1  0  0  0
 61135  1  0  0  0
 61136  1  0  0  0
 62137  1  0  0  0
 62138  1  0  0  0
 62139  1  0  0  0
 63 65  1  0  0  0
 63140  1  0  0  0
 63141  1  0  0  0
 63142  1  0  0  0
 64143  1  0  0  0
 65144  1  0  0  0
 68 83  1  0  0  0
 71 72  2  0  0  0
 71 73  1  0  0  0
 71145  1  0  0  0
 72 74  1  0  0  0
 72146  1  0  0  0
 73 75  2  0  0  0
 73147  1  0  0  0
 74 76  2  0  0  0
 74 79  1  0  0  0
 75 76  1  0  0  0
 75 80  1  0  0  0
 76 84  1  0  0  0
 77 78  1  0  0  0
 77 79  1  0  0  0
 77148  1  0  0  0
 77149  1  0  0  0
 78 79  1  0  0  0
 78150  1  0  0  0
 78151  1  0  0  0
 79152  1  0  0  0
 80 81  1  0  0  0
 80153  1  0  0  0
 80154  1  0  0  0
 81 85  1  0  0  0
 81155  1  0  0  0
 81156  1  0  0  0
 82 83  1  0  0  0
 82 85  1  0  0  0
 82157  1  0  0  0
 82158  1  0  0  0
 83159  1  0  0  0
 83160  1  0  0  0
 84161  1  0  0  0
 85162  1  0  0  0
 85163  1  0  0  0
M  CHG  1  85   1
M  ISO  4   1 100  68 101  83 101  84 100
M  END
> <chiral flag>
0

> <version>
0

> <s_m_source_file>
/data/baiqing/PycharmProjects/Reinvent-master-3.2/result/LINK_invent/BTK/process_docking_weight1_custom_sum_contain_oxygen_bond_distance_aromatic_linkinvent_7_9_3/rearranged_h_0135.sdf

> <i_m_source_file_index>
27

> <r_mmod_Potential_Energy-OPLS-2005>
307.291564941406

> <r_mmod_Stretch_Energy-OPLS-2005>
188.91943359375

> <r_mmod_Bend_Energy-OPLS-2005>
284.399475097656

> <r_mmod_Torsional_Energy-OPLS-2005>
306.838623046875

> <r_mmod_Improper_Torsional_Energy-OPLS-2005>
4.11722421646118

> <r_mmod_Van_der_Waal_Energy-OPLS-2005>
141.210189819336

> <r_mmod_Electrostatic_Energy-OPLS-2005>
-264.011810302734

> <r_mmod_Solvation_Energy-OPLS-2005>
-466.738037109375

> <b_mmod_Minimization_Converged-OPLS-2005>
0

> <r_mmod_RMS_Derivative-OPLS-2005>
0.814316213130951

$$$$
27
                    3D
 Structure written by MMmdl.
162170  0  0  1  0            999 V2000
  -30.6076  -14.6766   20.4601 C   0  0  0  0  0  0
  -30.4337  -12.4122   19.4525 C   0  0  0  0  0  0
  -29.5101  -12.5049   18.2199 C   0  0  0  0  0  0
  -28.0311  -12.3439   18.6242 C   0  0  0  0  0  0
  -27.6418  -13.2240   19.8442 C   0  0  2  0  0  0
  -28.6861  -13.1071   20.9745 C   0  0  0  0  0  0
  -25.2486  -13.8210   20.5603 C   0  0  0  0  0  0
  -24.1778  -13.0461   20.9189 C   0  0  0  0  0  0
  -24.6379  -11.6949   20.8709 C   0  0  0  0  0  0
  -23.9042  -10.4330   21.0364 C   0  0  0  0  0  0
  -24.3592   -9.4240   21.9117 C   0  0  0  0  0  0
  -23.6286   -8.2270   22.0706 C   0  0  0  0  0  0
  -22.4298   -8.0254   21.3485 C   0  0  0  0  0  0
  -21.9895   -9.0247   20.4620 C   0  0  0  0  0  0
  -22.7219  -10.2132   20.3019 C   0  0  0  0  0  0
  -21.6902   -6.0718   22.5253 C   0  0  0  0  0  0
  -21.4052   -6.5616   23.8182 C   0  0  0  0  0  0
  -21.3644   -5.6747   24.9121 C   0  0  0  0  0  0
  -21.6055   -4.3037   24.7177 C   0  0  0  0  0  0
  -21.8820   -3.8123   23.4310 C   0  0  0  0  0  0
  -21.9228   -4.6949   22.3369 C   0  0  0  0  0  0
  -22.7794  -13.5228   21.1849 C   0  0  0  0  0  0
  -22.1674   -4.2124   21.0957 F   0  0  0  0  0  0
  -21.5614   -3.4520   25.7696 F   0  0  0  0  0  0
  -29.9941  -13.4518   20.4025 N   0  0  0  0  0  0
  -26.2911  -12.9403   20.3196 N   0  0  0  0  0  0
  -25.9303  -11.6567   20.5685 N   0  0  0  0  0  0
  -22.0455  -12.8205   22.0422 N   0  0  0  0  0  0
  -25.4209  -15.1932   20.3997 N   0  0  0  0  0  0
  -31.7929  -14.8112   20.1587 O   0  0  0  0  0  0
  -21.6681   -6.8853   21.4205 O   0  0  0  0  0  0
  -22.3444  -14.5511   20.6663 O   0  0  0  0  0  0
  -24.6308  -31.8608   23.2087 C   0  0  0  0  0  0
  -25.9170  -32.4742   23.8373 C   0  0  1  0  0  0
  -27.1805  -27.2944   20.0366 C   0  0  0  0  0  0
  -25.5962  -33.8552   24.2261 N   0  0  0  0  0  0
  -23.4216  -30.5003   21.5536 C   0  0  2  0  0  0
  -24.8534  -28.9702   20.1036 C   0  0  0  0  0  0
  -22.7481  -29.4685   22.4924 C   0  0  0  0  0  0
  -18.0296  -28.1368   22.8500 C   0  0  0  0  0  0
  -24.1486  -36.7281   23.2639 C   0  0  0  0  0  0
  -25.9774  -30.7708   21.3981 C   0  0  0  0  0  0
  -26.0395  -29.4111   20.7103 C   0  0  0  0  0  0
  -27.2090  -28.5821   20.6757 C   0  0  0  0  0  0
  -25.9822  -26.9611   19.3631 C   0  0  0  0  0  0
  -24.8287  -27.7503   19.4294 C   0  0  0  0  0  0
  -23.6290  -29.8554   20.1649 C   0  0  0  0  0  0
  -25.4118  -36.3068   24.0315 C   0  0  1  0  0  0
  -20.5906  -28.3706   23.1236 C   0  0  2  0  0  0
  -20.6775  -26.9420   22.5390 C   0  0  0  0  0  0
  -19.5746  -26.6375   21.5207 C   0  0  0  0  0  0
  -18.1934  -26.7906   22.1625 C   0  0  0  0  0  0
  -19.1551  -28.8847   23.2865 C   0  0  0  0  0  0
  -18.9462  -30.1436   23.8905 C   0  0  0  0  0  0
  -17.6470  -30.6579   24.0549 C   0  0  0  0  0  0
  -25.9051  -34.9430   23.5087 C   0  0  0  0  0  0
  -16.5363  -29.9080   23.6312 C   0  0  0  0  0  0
  -16.7281  -28.6473   23.0372 C   0  0  0  0  0  0
  -26.4533  -31.6573   25.0781 C   0  0  0  0  0  0
  -25.3706  -31.3764   26.1463 C   0  0  0  0  0  0
  -27.0392  -30.2938   24.6396 C   0  0  0  0  0  0
  -27.6071  -32.4329   25.7563 C   0  0  0  0  0  0
  -27.5577  -37.1810   24.8457 C   0  0  0  0  0  0
  -21.4192  -29.3074   22.3643 N   0  0  0  0  0  0
  -26.4302  -37.3749   23.9379 N   0  0  0  0  0  0
  -24.6949  -31.0618   22.1052 N   0  0  0  0  0  0
  -23.4215  -28.8191   23.2965 O   0  0  0  0  0  0
  -28.2181  -26.3314   20.0798 O   0  0  0  0  0  0
  -26.5635  -34.8916   22.4666 O   0  0  0  0  0  0
  -23.5468  -32.1496   23.7373 O   0  0  0  0  0  0
  -30.3135  -21.8276   20.5354 C   0  0  0  0  0  0
  -28.0900  -22.1487   19.8016 C   0  0  0  0  0  0
  -29.8820  -23.3011   20.8429 C   0  0  2  0  0  0
  -28.7349  -23.6084   19.8785 C   0  0  2  0  0  0
  -31.0363  -24.2978   20.6924 C   0  0  0  0  0  0
  -27.0650  -24.7572   21.5397 C   0  0  0  0  0  0
  -29.5303  -18.3747   19.9300 C   0  0  0  0  0  0
  -30.1371  -17.2332   20.8899 C   0  0  0  0  0  0
  -28.8626  -19.7197   20.5398 C   0  0  0  0  0  0
  -27.7887  -24.8844   20.1842 C   0  0  1  0  0  0
  -29.7923  -15.7701   20.6736 N   0  0  0  0  0  0
  -29.1789  -21.0960   19.9140 N   0  3  2  0  0  0
  -31.4757  -12.5506   19.1497 H   0  0  0  0  0  0
  -30.3884  -11.4256   19.9125 H   0  0  0  0  0  0
  -29.7784  -11.7518   17.4784 H   0  0  0  0  0  0
  -29.6470  -13.4706   17.7332 H   0  0  0  0  0  0
  -27.8575  -11.2907   18.8457 H   0  0  0  0  0  0
  -27.3972  -12.5753   17.7669 H   0  0  0  0  0  0
  -27.6435  -14.2513   19.4780 H   0  0  0  0  0  0
  -28.7011  -12.0909   21.3727 H   0  0  0  0  0  0
  -28.4263  -13.7627   21.8102 H   0  0  0  0  0  0
  -25.2730   -9.5735   22.4675 H   0  0  0  0  0  0
  -24.0004   -7.4682   22.7433 H   0  0  0  0  0  0
  -21.0812   -8.8724   19.8951 H   0  0  0  0  0  0
  -22.3620  -10.9613   19.6103 H   0  0  0  0  0  0
  -21.2045   -7.6122   23.9668 H   0  0  0  0  0  0
  -21.1465   -6.0483   25.9017 H   0  0  0  0  0  0
  -22.0634   -2.7601   23.2821 H   0  0  0  0  0  0
  -22.4113  -11.9921   22.4855 H   0  0  0  0  0  0
  -21.1029  -13.1126   22.2585 H   0  0  0  0  0  0
  -24.6532  -15.8501   20.5002 H   0  0  0  0  0  0
  -26.2664  -15.6263   20.0501 H   0  0  0  0  0  0
  -26.7235  -32.5377   23.1102 H   0  0  0  0  0  0
  -25.0084  -33.9662   25.0385 H   0  0  0  0  0  0
  -22.7198  -31.3279   21.4221 H   0  0  0  0  0  0
  -23.3735  -35.9618   23.3294 H   0  0  0  0  0  0
  -24.3588  -36.8908   22.2054 H   0  0  0  0  0  0
  -23.7260  -37.6489   23.6672 H   0  0  0  0  0  0
  -26.1644  -31.5534   20.6612 H   0  0  0  0  0  0
  -26.8314  -30.7714   22.0608 H   0  0  0  0  0  0
  -28.1137  -28.9088   21.1701 H   0  0  0  0  0  0
  -25.8695  -26.0787   18.7583 H   0  0  0  0  0  0
  -23.9280  -27.4258   18.9293 H   0  0  0  0  0  0
  -23.7492  -30.6384   19.4151 H   0  0  0  0  0  0
  -22.7406  -29.2987   19.8582 H   0  0  0  0  0  0
  -25.1306  -36.1913   25.0807 H   0  0  0  0  0  0
  -21.0044  -28.3289   24.1337 H   0  0  0  0  0  0
  -20.5667  -26.2335   23.3605 H   0  0  0  0  0  0
  -21.6637  -26.7429   22.1201 H   0  0  0  0  0  0
  -19.6892  -25.6282   21.1235 H   0  0  0  0  0  0
  -19.6652  -27.3170   20.6727 H   0  0  0  0  0  0
  -17.4208  -26.6675   21.4015 H   0  0  0  0  0  0
  -18.0326  -26.0023   22.9000 H   0  0  0  0  0  0
  -19.7939  -30.7234   24.2296 H   0  0  0  0  0  0
  -17.5023  -31.6263   24.5145 H   0  0  0  0  0  0
  -15.5350  -30.2992   23.7600 H   0  0  0  0  0  0
  -15.8680  -28.0763   22.7131 H   0  0  0  0  0  0
  -24.5856  -30.7154   25.7756 H   0  0  0  0  0  0
  -24.8952  -32.2965   26.4874 H   0  0  0  0  0  0
  -25.7976  -30.8922   27.0250 H   0  0  0  0  0  0
  -26.3017  -29.6668   24.1359 H   0  0  0  0  0  0
  -27.3884  -29.7272   25.5049 H   0  0  0  0  0  0
  -27.9002  -30.4115   23.9799 H   0  0  0  0  0  0
  -27.2635  -33.3615   26.2136 H   0  0  0  0  0  0
  -28.3892  -32.6908   25.0408 H   0  0  0  0  0  0
  -28.0699  -31.8454   26.5500 H   0  0  0  0  0  0
  -28.2598  -38.0106   24.7499 H   0  0  0  0  0  0
  -28.1092  -36.2643   24.6298 H   0  0  0  0  0  0
  -27.2310  -37.1468   25.8869 H   0  0  0  0  0  0
  -20.9384  -29.8847   21.6873 H   0  0  0  0  0  0
  -26.0180  -38.2826   24.1356 H   0  0  0  0  0  0
  -30.6910  -21.3320   21.4305 H   0  0  0  0  0  0
  -31.1228  -21.8223   19.8047 H   0  0  0  0  0  0
  -27.5141  -22.0282   18.8812 H   0  0  0  0  0  0
  -27.3841  -21.9898   20.6141 H   0  0  0  0  0  0
  -29.4947  -23.3420   21.8645 H   0  0  0  0  0  0
  -29.1740  -23.8013   18.8982 H   0  0  0  0  0  0
  -31.4962  -24.2348   19.7047 H   0  0  0  0  0  0
  -31.8166  -24.1003   21.4256 H   0  0  0  0  0  0
  -30.6900  -25.3237   20.8228 H   0  0  0  0  0  0
  -26.2168  -25.4390   21.6005 H   0  0  0  0  0  0
  -27.7345  -25.0038   22.3603 H   0  0  0  0  0  0
  -26.6622  -23.7607   21.7067 H   0  0  0  0  0  0
  -28.7715  -17.8984   19.3072 H   0  0  0  0  0  0
  -30.3223  -18.6547   19.2316 H   0  0  0  0  0  0
  -29.8565  -17.4563   21.9182 H   0  0  0  0  0  0
  -31.2236  -17.3276   20.8664 H   0  0  0  0  0  0
  -29.0407  -19.7596   21.6143 H   0  0  0  0  0  0
  -27.7809  -19.5664   20.4739 H   0  0  0  0  0  0
  -27.0600  -24.6956   19.4072 H   0  0  0  0  0  0
  -28.8322  -15.5259   20.8587 H   0  0  0  0  0  0
  -29.4498  -20.9272   18.9554 H   0  0  0  0  0  0
  1 25  1  0  0  0
  1 30  2  0  0  0
  1 81  1  0  0  0
  2  3  1  0  0  0
  2 25  1  0  0  0
  2 83  1  0  0  0
  2 84  1  0  0  0
  3  4  1  0  0  0
  3 85  1  0  0  0
  3 86  1  0  0  0
  4  5  1  0  0  0
  4 87  1  0  0  0
  4 88  1  0  0  0
  5  6  1  0  0  0
  5 26  1  0  0  0
  5 89  1  0  0  0
  6 25  1  0  0  0
  6 90  1  0  0  0
  6 91  1  0  0  0
  7  8  2  0  0  0
  7 26  1  0  0  0
  7 29  1  0  0  0
  8  9  1  0  0  0
  8 22  1  0  0  0
  9 10  1  0  0  0
  9 27  2  0  0  0
 10 11  2  0  0  0
 10 15  1  0  0  0
 11 12  1  0  0  0
 11 92  1  0  0  0
 12 13  2  0  0  0
 12 93  1  0  0  0
 13 14  1  0  0  0
 13 31  1  0  0  0
 14 15  2  0  0  0
 14 94  1  0  0  0
 15 95  1  0  0  0
 16 17  2  0  0  0
 16 21  1  0  0  0
 16 31  1  0  0  0
 17 18  1  0  0  0
 17 96  1  0  0  0
 18 19  2  0  0  0
 18 97  1  0  0  0
 19 20  1  0  0  0
 19 24  1  0  0  0
 20 21  2  0  0  0
 20 98  1  0  0  0
 21 23  1  0  0  0
 22 28  1  0  0  0
 22 32  2  0  0  0
 26 27  1  0  0  0
 28 99  1  0  0  0
 28100  1  0  0  0
 29101  1  0  0  0
 29102  1  0  0  0
 33 34  1  0  0  0
 33 66  1  0  0  0
 33 70  2  0  0  0
 34 36  1  0  0  0
 34 59  1  0  0  0
 34103  1  0  0  0
 35 44  2  0  0  0
 35 45  1  0  0  0
 35 68  1  0  0  0
 36 56  1  0  0  0
 36104  1  0  0  0
 37 39  1  0  0  0
 37 47  1  0  0  0
 37 66  1  0  0  0
 37105  1  0  0  0
 38 43  2  0  0  0
 38 46  1  0  0  0
 38 47  1  0  0  0
 39 64  1  0  0  0
 39 67  2  0  0  0
 40 52  1  0  0  0
 40 53  2  0  0  0
 40 58  1  0  0  0
 41106  1  0  0  0
 41107  1  0  0  0
 41108  1  0  0  0
 41 48  1  0  0  0
 42 43  1  0  0  0
 42 66  1  0  0  0
 42109  1  0  0  0
 42110  1  0  0  0
 43 44  1  0  0  0
 44111  1  0  0  0
 45 46  2  0  0  0
 45112  1  0  0  0
 46113  1  0  0  0
 47114  1  0  0  0
 47115  1  0  0  0
 48 56  1  0  0  0
 48 65  1  0  0  0
 48116  1  0  0  0
 49 50  1  0  0  0
 49 53  1  0  0  0
 49 64  1  0  0  0
 49117  1  0  0  0
 50 51  1  0  0  0
 50118  1  0  0  0
 50119  1  0  0  0
 51 52  1  0  0  0
 51120  1  0  0  0
 51121  1  0  0  0
 52122  1  0  0  0
 52123  1  0  0  0
 53 54  1  0  0  0
 54 55  2  0  0  0
 54124  1  0  0  0
 55 57  1  0  0  0
 55125  1  0  0  0
 56 69  2  0  0  0
 57 58  2  0  0  0
 57126  1  0  0  0
 58127  1  0  0  0
 59 60  1  0  0  0
 59 61  1  0  0  0
 59 62  1  0  0  0
 60128  1  0  0  0
 60129  1  0  0  0
 60130  1  0  0  0
 61131  1  0  0  0
 61132  1  0  0  0
 61133  1  0  0  0
 62134  1  0  0  0
 62135  1  0  0  0
 62136  1  0  0  0
 63 65  1  0  0  0
 63137  1  0  0  0
 63138  1  0  0  0
 63139  1  0  0  0
 64140  1  0  0  0
 65141  1  0  0  0
 68 80  1  0  0  0
 71 73  1  0  0  0
 71 82  1  0  0  0
 71142  1  0  0  0
 71143  1  0  0  0
 72 82  1  0  0  0
 72144  1  0  0  0
 72145  1  0  0  0
 72 74  1  0  0  0
 73 74  1  0  0  0
 73 75  1  0  0  0
 73146  1  0  0  0
 74 80  1  0  0  0
 74147  1  0  0  0
 75148  1  0  0  0
 75149  1  0  0  0
 75150  1  0  0  0
 76151  1  0  0  0
 76152  1  0  0  0
 76153  1  0  0  0
 76 80  1  0  0  0
 77 78  1  0  0  0
 77 79  1  0  0  0
 77154  1  0  0  0
 77155  1  0  0  0
 78 81  1  0  0  0
 78156  1  0  0  0
 78157  1  0  0  0
 79158  1  0  0  0
 79159  1  0  0  0
 79 82  1  0  0  0
 80160  1  0  0  0
 81161  1  0  0  0
 82162  1  0  0  0
M  CHG  1  82   1
M  ISO  4   1 100  68 101  80 101  81 100
M  END
> <chiral flag>
0

> <version>
0

> <s_m_source_file>
/data/baiqing/PycharmProjects/Reinvent-master-3.2/result/LINK_invent/BTK/process_docking_weight1_custom_sum_contain_oxygen_bond_distance_aromatic_linkinvent_7_9_3/rearranged_h_0135.sdf

> <i_m_source_file_index>
28

> <r_mmod_Potential_Energy-OPLS-2005>
153.346542358398

> <r_mmod_Stretch_Energy-OPLS-2005>
111.241096496582

> <r_mmod_Bend_Energy-OPLS-2005>
197.824783325195

> <r_mmod_Torsional_Energy-OPLS-2005>
309.015197753906

> <r_mmod_Improper_Torsional_Energy-OPLS-2005>
4.78812742233276

> <r_mmod_Van_der_Waal_Energy-OPLS-2005>
133.816162109375

> <r_mmod_Electrostatic_Energy-OPLS-2005>
-227.28840637207

> <r_mmod_Solvation_Energy-OPLS-2005>
-453.162017822266

> <b_mmod_Minimization_Converged-OPLS-2005>
0

> <r_mmod_RMS_Derivative-OPLS-2005>
6.38470792770386

$$$$
28
                    3D
 Structure written by MMmdl.
177187  0  0  1  0            999 V2000
  -30.6235  -14.6363   20.4872 C   0  0  0  0  0  0
  -30.4345  -12.3889   19.4502 C   0  0  0  0  0  0
  -29.5054  -12.5022   18.2221 C   0  0  0  0  0  0
  -28.0293  -12.3391   18.6374 C   0  0  0  0  0  0
  -27.6508  -13.2150   19.8615 C   0  0  2  0  0  0
  -28.6966  -13.0821   20.9911 C   0  0  0  0  0  0
  -25.2563  -13.8168   20.5719 C   0  0  0  0  0  0
  -24.1829  -13.0438   20.9212 C   0  0  0  0  0  0
  -24.6383  -11.6902   20.8730 C   0  0  0  0  0  0
  -23.9039  -10.4289   21.0389 C   0  0  0  0  0  0
  -24.3593   -9.4208   21.9162 C   0  0  0  0  0  0
  -23.6278   -8.2237   22.0741 C   0  0  0  0  0  0
  -22.4266   -8.0264   21.3529 C   0  0  0  0  0  0
  -21.9894   -9.0240   20.4639 C   0  0  0  0  0  0
  -22.7210  -10.2131   20.3041 C   0  0  0  0  0  0
  -21.6862   -6.0721   22.5277 C   0  0  0  0  0  0
  -21.4012   -6.5616   23.8214 C   0  0  0  0  0  0
  -21.3660   -5.6764   24.9166 C   0  0  0  0  0  0
  -21.6056   -4.3031   24.7211 C   0  0  0  0  0  0
  -21.8819   -3.8131   23.4327 C   0  0  0  0  0  0
  -21.9197   -4.6948   22.3395 C   0  0  0  0  0  0
  -22.7850  -13.5237   21.1861 C   0  0  0  0  0  0
  -22.1669   -4.2141   21.0968 F   0  0  0  0  0  0
  -21.5631   -3.4506   25.7716 F   0  0  0  0  0  0
  -30.0078  -13.4165   20.4173 N   0  0  0  0  0  0
  -26.2978  -12.9343   20.3318 N   0  0  0  0  0  0
  -25.9309  -11.6503   20.5739 N   0  0  0  0  0  0
  -22.0492  -12.8236   22.0417 N   0  0  0  0  0  0
  -25.4268  -15.1893   20.4158 N   0  0  0  0  0  0
  -31.7985  -14.7872   20.1423 O   0  0  0  0  0  0
  -21.6630   -6.8861   21.4243 O   0  0  0  0  0  0
  -22.3542  -14.5542   20.6704 O   0  0  0  0  0  0
  -24.6207  -31.8602   23.2018 C   0  0  0  0  0  0
  -25.9065  -32.4771   23.8352 C   0  0  1  0  0  0
  -27.2297  -27.3323   20.1347 C   0  0  0  0  0  0
  -25.5890  -33.8567   24.2277 N   0  0  0  0  0  0
  -23.4153  -30.4801   21.5425 C   0  0  2  0  0  0
  -24.8634  -28.9282   20.1142 C   0  0  0  0  0  0
  -22.7453  -29.4609   22.4942 C   0  0  0  0  0  0
  -18.0276  -28.1384   22.8483 C   0  0  0  0  0  0
  -24.1484  -36.7294   23.2642 C   0  0  0  0  0  0
  -25.9507  -30.7935   21.3724 C   0  0  0  0  0  0
  -26.0238  -29.4162   20.7271 C   0  0  0  0  0  0
  -27.2047  -28.6251   20.7358 C   0  0  0  0  0  0
  -26.0566  -26.8956   19.4823 C   0  0  0  0  0  0
  -24.8790  -27.6709   19.4850 C   0  0  0  0  0  0
  -23.6300  -29.8070   20.1591 C   0  0  0  0  0  0
  -25.4102  -36.3071   24.0337 C   0  0  1  0  0  0
  -20.5871  -28.3668   23.1294 C   0  0  2  0  0  0
  -20.6756  -26.9396   22.5414 C   0  0  0  0  0  0
  -19.5739  -26.6382   21.5206 C   0  0  0  0  0  0
  -18.1921  -26.7930   22.1624 C   0  0  0  0  0  0
  -19.1530  -28.8851   23.2883 C   0  0  0  0  0  0
  -18.9458  -30.1461   23.8889 C   0  0  0  0  0  0
  -17.6458  -30.6581   24.0563 C   0  0  0  0  0  0
  -25.9037  -34.9440   23.5115 C   0  0  0  0  0  0
  -16.5344  -29.9082   23.6333 C   0  0  0  0  0  0
  -16.7272  -28.6506   23.0344 C   0  0  0  0  0  0
  -26.4459  -31.6577   25.0714 C   0  0  0  0  0  0
  -25.3704  -31.3725   26.1457 C   0  0  0  0  0  0
  -27.0317  -30.3013   24.6156 C   0  0  0  0  0  0
  -27.6038  -32.4302   25.7468 C   0  0  0  0  0  0
  -27.5578  -37.1790   24.8458 C   0  0  0  0  0  0
  -21.4163  -29.3021   22.3696 N   0  0  0  0  0  0
  -26.4277  -37.3765   23.9416 N   0  0  0  0  0  0
  -24.6811  -31.0625   22.0958 N   0  0  0  0  0  0
  -23.4187  -28.8167   23.3030 O   0  0  0  0  0  0
  -28.3912  -26.5543   20.1482 O   0  0  0  0  0  0
  -26.5622  -34.8909   22.4686 O   0  0  0  0  0  0
  -23.5378  -32.1392   23.7348 O   0  0  0  0  0  0
  -27.5439  -22.8460   20.5377 C   0  0  0  0  0  0
  -29.7654  -23.0850   19.6506 C   0  0  0  0  0  0
  -27.4220  -24.2673   20.6317 C   0  0  0  0  0  0
  -29.6277  -24.5018   19.7176 C   0  0  0  0  0  0
  -28.7009  -22.2105   20.0042 C   0  0  0  0  0  0
  -28.4427  -25.1409   20.1640 C   0  0  0  0  0  0
  -28.7942  -20.7247   18.0172 C   0  0  0  0  0  0
  -26.7497  -22.6952   13.9314 C   0  0  0  0  0  0
  -26.6105  -22.0588   15.3247 C   0  0  0  0  0  0
  -29.5668  -18.1002   19.6497 C   0  0  0  0  0  0
  -27.5004  -24.0394   14.0007 C   0  0  0  0  0  0
  -28.7151  -23.2952   16.0171 C   0  0  0  0  0  0
  -29.5472  -17.9330   21.9903 C   0  0  0  0  0  0
  -27.9912  -21.9246   15.9914 C   0  0  1  0  0  0
  -30.1378  -17.1857   20.7743 C   0  0  1  0  0  0
  -29.6476  -19.5821   20.2033 C   0  0  1  0  0  0
  -28.6706  -20.6879   19.5622 C   0  0  1  0  0  0
  -27.8511  -21.4086   17.3514 N   0  0  0  0  0  0
  -29.8176  -15.7101   20.7524 N   0  0  0  0  0  0
  -28.8131  -23.8809   14.6632 N   0  3  0  0  0  0
  -29.5206  -19.3890   21.6682 N   0  3  0  0  0  0
  -29.7734  -20.2442   17.4413 O   0  0  0  0  0  0
  -31.4771  -12.5122   19.1504 H   0  0  0  0  0  0
  -30.3644  -11.3958   19.8991 H   0  0  0  0  0  0
  -29.7736  -11.7513   17.4783 H   0  0  0  0  0  0
  -29.6460  -13.4715   17.7399 H   0  0  0  0  0  0
  -27.8686  -11.2871   18.8752 H   0  0  0  0  0  0
  -27.3724  -12.5622   17.7965 H   0  0  0  0  0  0
  -27.6653  -14.2472   19.5119 H   0  0  0  0  0  0
  -28.7095  -12.0662   21.3881 H   0  0  0  0  0  0
  -28.4477  -13.7310   21.8331 H   0  0  0  0  0  0
  -25.2746   -9.5684   22.4723 H   0  0  0  0  0  0
  -24.0007   -7.4620   22.7444 H   0  0  0  0  0  0
  -21.0835   -8.8740   19.8943 H   0  0  0  0  0  0
  -22.3663  -10.9647   19.6134 H   0  0  0  0  0  0
  -21.1997   -7.6123   23.9713 H   0  0  0  0  0  0
  -21.1493   -6.0482   25.9072 H   0  0  0  0  0  0
  -22.0604   -2.7592   23.2816 H   0  0  0  0  0  0
  -22.4108  -11.9895   22.4802 H   0  0  0  0  0  0
  -21.1110  -13.1264   22.2622 H   0  0  0  0  0  0
  -24.6496  -15.8337   20.5087 H   0  0  0  0  0  0
  -26.2640  -15.6298   20.0577 H   0  0  0  0  0  0
  -26.7135  -32.5453   23.1110 H   0  0  0  0  0  0
  -25.0009  -33.9703   25.0401 H   0  0  0  0  0  0
  -22.7079  -31.2990   21.3971 H   0  0  0  0  0  0
  -23.3740  -35.9633   23.3280 H   0  0  0  0  0  0
  -24.3591  -36.8932   22.2064 H   0  0  0  0  0  0
  -23.7240  -37.6490   23.6676 H   0  0  0  0  0  0
  -26.0768  -31.5496   20.5964 H   0  0  0  0  0  0
  -26.8339  -30.8485   21.9981 H   0  0  0  0  0  0
  -28.0989  -28.9948   21.2188 H   0  0  0  0  0  0
  -26.0441  -25.9423   18.9743 H   0  0  0  0  0  0
  -23.9921  -27.2951   18.9920 H   0  0  0  0  0  0
  -23.7471  -30.5780   19.3964 H   0  0  0  0  0  0
  -22.7513  -29.2305   19.8632 H   0  0  0  0  0  0
  -25.1281  -36.1920   25.0830 H   0  0  0  0  0  0
  -20.9976  -28.3234   24.1408 H   0  0  0  0  0  0
  -20.5636  -26.2279   23.3609 H   0  0  0  0  0  0
  -21.6631  -26.7408   22.1227 H   0  0  0  0  0  0
  -19.6885  -25.6292   21.1241 H   0  0  0  0  0  0
  -19.6683  -27.3187   20.6734 H   0  0  0  0  0  0
  -17.4192  -26.6676   21.4022 H   0  0  0  0  0  0
  -18.0321  -26.0078   22.9032 H   0  0  0  0  0  0
  -19.7938  -30.7281   24.2238 H   0  0  0  0  0  0
  -17.5014  -31.6259   24.5175 H   0  0  0  0  0  0
  -15.5346  -30.2976   23.7666 H   0  0  0  0  0  0
  -15.8678  -28.0832   22.7029 H   0  0  0  0  0  0
  -24.5849  -30.7102   25.7791 H   0  0  0  0  0  0
  -24.8916  -32.2899   26.4896 H   0  0  0  0  0  0
  -25.8021  -30.8890   27.0229 H   0  0  0  0  0  0
  -26.2899  -29.6754   24.1186 H   0  0  0  0  0  0
  -27.4043  -29.7265   25.4644 H   0  0  0  0  0  0
  -27.8743  -30.4324   23.9366 H   0  0  0  0  0  0
  -27.2677  -33.3608   26.2058 H   0  0  0  0  0  0
  -28.3836  -32.6855   25.0276 H   0  0  0  0  0  0
  -28.0733  -31.8420   26.5368 H   0  0  0  0  0  0
  -28.2575  -38.0108   24.7523 H   0  0  0  0  0  0
  -28.1095  -36.2636   24.6251 H   0  0  0  0  0  0
  -27.2310  -37.1396   25.8864 H   0  0  0  0  0  0
  -20.9331  -29.8765   21.6933 H   0  0  0  0  0  0
  -26.0158  -38.2836   24.1423 H   0  0  0  0  0  0
  -26.6927  -22.2419   20.8211 H   0  0  0  0  0  0
  -30.6757  -22.6809   19.2284 H   0  0  0  0  0  0
  -26.5082  -24.6833   21.0304 H   0  0  0  0  0  0
  -30.4495  -25.1173   19.3802 H   0  0  0  0  0  0
  -25.7648  -22.8443   13.4872 H   0  0  0  0  0  0
  -27.2818  -22.0130   13.2663 H   0  0  0  0  0  0
  -26.1344  -21.0812   15.2409 H   0  0  0  0  0  0
  -25.9517  -22.6731   15.9401 H   0  0  0  0  0  0
  -28.5272  -17.8355   19.4488 H   0  0  0  0  0  0
  -30.1152  -17.9762   18.7162 H   0  0  0  0  0  0
  -26.9050  -24.7748   14.5449 H   0  0  0  0  0  0
  -27.6513  -24.4429   12.9990 H   0  0  0  0  0  0
  -29.7205  -23.1917   16.4267 H   0  0  0  0  0  0
  -28.1884  -23.9943   16.6695 H   0  0  0  0  0  0
  -30.1064  -17.7421   22.9075 H   0  0  0  0  0  0
  -28.5200  -17.6081   22.1646 H   0  0  0  0  0  0
  -28.5834  -21.2240   15.3985 H   0  0  0  0  0  0
  -31.2225  -17.3069   20.7970 H   0  0  0  0  0  0
  -30.6728  -19.9219   20.0470 H   0  0  0  0  0  0
  -27.6576  -20.3315   19.7555 H   0  0  0  0  0  0
  -27.0845  -21.7728   17.9025 H   0  0  0  0  0  0
  -28.8637  -15.4637   20.9692 H   0  0  0  0  0  0
  -29.2553  -24.7837   14.7296 H   0  0  0  0  0  0
  -29.4082  -23.3014   14.0940 H   0  0  0  0  0  0
  -30.2963  -19.8476   22.1187 H   0  0  0  0  0  0
  -28.6715  -19.7982   22.0242 H   0  0  0  0  0  0
  1 25  1  0  0  0
  1 30  2  0  0  0
  1 89  1  0  0  0
  2  3  1  0  0  0
  2 25  1  0  0  0
  2 93  1  0  0  0
  2 94  1  0  0  0
  3  4  1  0  0  0
  3 95  1  0  0  0
  3 96  1  0  0  0
  4  5  1  0  0  0
  4 97  1  0  0  0
  4 98  1  0  0  0
  5  6  1  0  0  0
  5 26  1  0  0  0
  5 99  1  0  0  0
  6 25  1  0  0  0
  6100  1  0  0  0
  6101  1  0  0  0
  7  8  2  0  0  0
  7 26  1  0  0  0
  7 29  1  0  0  0
  8  9  1  0  0  0
  8 22  1  0  0  0
  9 10  1  0  0  0
  9 27  2  0  0  0
 10 11  2  0  0  0
 10 15  1  0  0  0
 11 12  1  0  0  0
 11102  1  0  0  0
 12 13  2  0  0  0
 12103  1  0  0  0
 13 14  1  0  0  0
 13 31  1  0  0  0
 14 15  2  0  0  0
 14104  1  0  0  0
 15105  1  0  0  0
 16 17  2  0  0  0
 16 21  1  0  0  0
 16 31  1  0  0  0
 17 18  1  0  0  0
 17106  1  0  0  0
 18 19  2  0  0  0
 18107  1  0  0  0
 19 20  1  0  0  0
 19 24  1  0  0  0
 20 21  2  0  0  0
 20108  1  0  0  0
 21 23  1  0  0  0
 22 28  1  0  0  0
 22 32  2  0  0  0
 26 27  1  0  0  0
 28109  1  0  0  0
 28110  1  0  0  0
 29111  1  0  0  0
 29112  1  0  0  0
 33 34  1  0  0  0
 33 66  1  0  0  0
 33 70  2  0  0  0
 34 36  1  0  0  0
 34 59  1  0  0  0
 34113  1  0  0  0
 35 44  2  0  0  0
 35 45  1  0  0  0
 35 68  1  0  0  0
 36 56  1  0  0  0
 36114  1  0  0  0
 37 39  1  0  0  0
 37 47  1  0  0  0
 37 66  1  0  0  0
 37115  1  0  0  0
 38 43  2  0  0  0
 38 46  1  0  0  0
 38 47  1  0  0  0
 39 64  1  0  0  0
 39 67  2  0  0  0
 40 52  1  0  0  0
 40 53  2  0  0  0
 40 58  1  0  0  0
 41116  1  0  0  0
 41117  1  0  0  0
 41118  1  0  0  0
 41 48  1  0  0  0
 42 43  1  0  0  0
 42 66  1  0  0  0
 42119  1  0  0  0
 42120  1  0  0  0
 43 44  1  0  0  0
 44121  1  0  0  0
 45 46  2  0  0  0
 45122  1  0  0  0
 46123  1  0  0  0
 47124  1  0  0  0
 47125  1  0  0  0
 48 56  1  0  0  0
 48 65  1  0  0  0
 48126  1  0  0  0
 49 50  1  0  0  0
 49 53  1  0  0  0
 49 64  1  0  0  0
 49127  1  0  0  0
 50 51  1  0  0  0
 50128  1  0  0  0
 50129  1  0  0  0
 51 52  1  0  0  0
 51130  1  0  0  0
 51131  1  0  0  0
 52132  1  0  0  0
 52133  1  0  0  0
 53 54  1  0  0  0
 54 55  2  0  0  0
 54134  1  0  0  0
 55 57  1  0  0  0
 55135  1  0  0  0
 56 69  2  0  0  0
 57 58  2  0  0  0
 57136  1  0  0  0
 58137  1  0  0  0
 59 60  1  0  0  0
 59 61  1  0  0  0
 59 62  1  0  0  0
 60138  1  0  0  0
 60139  1  0  0  0
 60140  1  0  0  0
 61141  1  0  0  0
 61142  1  0  0  0
 61143  1  0  0  0
 62144  1  0  0  0
 62145  1  0  0  0
 62146  1  0  0  0
 63 65  1  0  0  0
 63147  1  0  0  0
 63148  1  0  0  0
 63149  1  0  0  0
 64150  1  0  0  0
 65151  1  0  0  0
 68 76  1  0  0  0
 71 73  2  0  0  0
 71 75  1  0  0  0
 71152  1  0  0  0
 72 74  1  0  0  0
 72 75  2  0  0  0
 72153  1  0  0  0
 73 76  1  0  0  0
 73154  1  0  0  0
 74 76  2  0  0  0
 74155  1  0  0  0
 75 87  1  0  0  0
 77 88  1  0  0  0
 77 92  2  0  0  0
 77 87  1  0  0  0
 78 79  1  0  0  0
 78 81  1  0  0  0
 78156  1  0  0  0
 78157  1  0  0  0
 79 84  1  0  0  0
 79158  1  0  0  0
 79159  1  0  0  0
 80 85  1  0  0  0
 80160  1  0  0  0
 80161  1  0  0  0
 80 86  1  0  0  0
 81 90  1  0  0  0
 81162  1  0  0  0
 81163  1  0  0  0
 82 84  1  0  0  0
 82 90  1  0  0  0
 82164  1  0  0  0
 82165  1  0  0  0
 83 85  1  0  0  0
 83 91  1  0  0  0
 83166  1  0  0  0
 83167  1  0  0  0
 84 88  1  0  0  0
 84168  1  0  0  0
 85 89  1  0  0  0
 85169  1  0  0  0
 86 87  1  0  0  0
 86 91  1  0  0  0
 86170  1  0  0  0
 87171  1  0  0  0
 88172  1  0  0  0
 89173  1  0  0  0
 90174  1  0  0  0
 90175  1  0  0  0
 91176  1  0  0  0
 91177  1  0  0  0
M  CHG  2  90   1  91   1
M  ISO  4   1 100  68 101  76 101  89 100
M  END
> <chiral flag>
0

> <version>
0

> <s_m_source_file>
/data/baiqing/PycharmProjects/Reinvent-master-3.2/result/LINK_invent/BTK/process_docking_weight1_custom_sum_contain_oxygen_bond_distance_aromatic_linkinvent_7_9_3/rearranged_h_0135.sdf

> <i_m_source_file_index>
29

> <r_mmod_Potential_Energy-OPLS-2005>
-281.482788085938

> <r_mmod_Stretch_Energy-OPLS-2005>
76.4010772705078

> <r_mmod_Bend_Energy-OPLS-2005>
169.754302978516

> <r_mmod_Torsional_Energy-OPLS-2005>
300.239593505859

> <r_mmod_Improper_Torsional_Energy-OPLS-2005>
8.20828723907471

> <r_mmod_Van_der_Waal_Energy-OPLS-2005>
138.895690917969

> <r_mmod_Electrostatic_Energy-OPLS-2005>
-82.6604995727539

> <r_mmod_Solvation_Energy-OPLS-2005>
-935.742248535156

> <b_mmod_Minimization_Converged-OPLS-2005>
0

> <r_mmod_RMS_Derivative-OPLS-2005>
2.09852814674377

$$$$
29
                    3D
 Structure written by MMmdl.
164173  0  0  1  0            999 V2000
  -30.6665  -14.6259   20.4816 C   0  0  0  0  0  0
  -30.4136  -12.3808   19.4605 C   0  0  0  0  0  0
  -29.4982  -12.4952   18.2249 C   0  0  0  0  0  0
  -28.0229  -12.3361   18.6395 C   0  0  0  0  0  0
  -27.6425  -13.2264   19.8535 C   0  0  2  0  0  0
  -28.6848  -13.1317   20.9875 C   0  0  0  0  0  0
  -25.2522  -13.8204   20.5696 C   0  0  0  0  0  0
  -24.1797  -13.0449   20.9191 C   0  0  0  0  0  0
  -24.6384  -11.6925   20.8739 C   0  0  0  0  0  0
  -23.9061  -10.4297   21.0405 C   0  0  0  0  0  0
  -24.3616   -9.4214   21.9184 C   0  0  0  0  0  0
  -23.6297   -8.2245   22.0753 C   0  0  0  0  0  0
  -22.4278   -8.0281   21.3544 C   0  0  0  0  0  0
  -21.9913   -9.0251   20.4642 C   0  0  0  0  0  0
  -22.7235  -10.2134   20.3056 C   0  0  0  0  0  0
  -21.6854   -6.0738   22.5281 C   0  0  0  0  0  0
  -21.4013   -6.5642   23.8213 C   0  0  0  0  0  0
  -21.3660   -5.6794   24.9176 C   0  0  0  0  0  0
  -21.6042   -4.3056   24.7225 C   0  0  0  0  0  0
  -21.8819   -3.8147   23.4346 C   0  0  0  0  0  0
  -21.9192   -4.6964   22.3403 C   0  0  0  0  0  0
  -22.7820  -13.5227   21.1858 C   0  0  0  0  0  0
  -22.1660   -4.2153   21.0978 F   0  0  0  0  0  0
  -21.5629   -3.4536   25.7737 F   0  0  0  0  0  0
  -29.9953  -13.4360   20.4048 N   0  0  0  0  0  0
  -26.2936  -12.9397   20.3299 N   0  0  0  0  0  0
  -25.9311  -11.6538   20.5753 N   0  0  0  0  0  0
  -22.0474  -12.8208   22.0415 N   0  0  0  0  0  0
  -25.4259  -15.1920   20.4146 N   0  0  0  0  0  0
  -31.8616  -14.6883   20.1734 O   0  0  0  0  0  0
  -21.6640   -6.8882   21.4243 O   0  0  0  0  0  0
  -22.3502  -14.5536   20.6712 O   0  0  0  0  0  0
  -24.6248  -31.8626   23.2024 C   0  0  0  0  0  0
  -25.9103  -32.4791   23.8350 C   0  0  1  0  0  0
  -27.2175  -27.3219   20.1122 C   0  0  0  0  0  0
  -25.5927  -33.8594   24.2262 N   0  0  0  0  0  0
  -23.4166  -30.4839   21.5476 C   0  0  2  0  0  0
  -24.8588  -28.9410   20.1135 C   0  0  0  0  0  0
  -22.7477  -29.4606   22.4966 C   0  0  0  0  0  0
  -18.0283  -28.1365   22.8487 C   0  0  0  0  0  0
  -24.1498  -36.7300   23.2630 C   0  0  0  0  0  0
  -25.9568  -30.7931   21.3728 C   0  0  0  0  0  0
  -26.0276  -29.4204   20.7160 C   0  0  0  0  0  0
  -27.2076  -28.6221   20.7047 C   0  0  0  0  0  0
  -26.0185  -26.8897   19.4960 C   0  0  0  0  0  0
  -24.8564  -27.6816   19.4972 C   0  0  0  0  0  0
  -23.6288  -29.8210   20.1623 C   0  0  0  0  0  0
  -25.4122  -36.3086   24.0313 C   0  0  1  0  0  0
  -20.5878  -28.3662   23.1307 C   0  0  2  0  0  0
  -20.6776  -26.9389   22.5424 C   0  0  0  0  0  0
  -19.5751  -26.6373   21.5222 C   0  0  0  0  0  0
  -18.1923  -26.7909   22.1626 C   0  0  0  0  0  0
  -19.1532  -28.8831   23.2883 C   0  0  0  0  0  0
  -18.9462  -30.1438   23.8887 C   0  0  0  0  0  0
  -17.6465  -30.6571   24.0560 C   0  0  0  0  0  0
  -25.9062  -34.9459   23.5088 C   0  0  0  0  0  0
  -16.5353  -29.9071   23.6322 C   0  0  0  0  0  0
  -16.7270  -28.6490   23.0339 C   0  0  0  0  0  0
  -26.4486  -31.6603   25.0722 C   0  0  0  0  0  0
  -25.3711  -31.3750   26.1449 C   0  0  0  0  0  0
  -27.0319  -30.3026   24.6153 C   0  0  0  0  0  0
  -27.6041  -32.4342   25.7507 C   0  0  0  0  0  0
  -27.5579  -37.1798   24.8452 C   0  0  0  0  0  0
  -21.4190  -29.3026   22.3724 N   0  0  0  0  0  0
  -26.4294  -37.3781   23.9396 N   0  0  0  0  0  0
  -24.6851  -31.0636   22.0974 N   0  0  0  0  0  0
  -23.4214  -28.8140   23.3028 O   0  0  0  0  0  0
  -28.3712  -26.5263   20.1568 O   0  0  0  0  0  0
  -26.5643  -34.8926   22.4664 O   0  0  0  0  0  0
  -23.5413  -32.1433   23.7349 O   0  0  0  0  0  0
  -27.4887  -20.4509   20.4216 C   0  0  0  0  0  0
  -29.4050  -21.5225   20.7274 C   0  0  0  0  0  0
  -27.2061  -21.7950   20.4959 C   0  0  0  0  0  0
  -28.4288  -22.5143   20.7095 C   0  0  0  0  0  0
  -29.2025  -18.0072   19.3632 C   0  0  0  0  0  0
  -29.2526  -17.9947   21.7955 C   0  0  0  0  0  0
  -30.0135  -16.6694   19.3401 C   0  0  0  0  0  0
  -30.0152  -16.6144   21.7848 C   0  0  0  0  0  0
  -29.5436  -18.9039   20.5731 C   0  0  0  0  0  0
  -25.8254  -22.3935   20.3975 C   0  0  0  0  0  0
  -28.3905  -25.0905   19.7871 C   0  0  0  0  0  0
  -28.5431  -24.0639   20.9839 C   0  0  2  0  0  0
  -28.8459  -20.2405   20.5725 N   0  0  0  0  0  0
  -29.9277  -15.7946   20.5453 N   0  0  0  0  0  0
  -29.7686  -24.3574   21.7480 N   0  3  0  0  0  0
  -31.4597  -12.4698   19.1647 H   0  0  0  0  0  0
  -30.3158  -11.3978   19.9243 H   0  0  0  0  0  0
  -29.7633  -11.7405   17.4833 H   0  0  0  0  0  0
  -29.6417  -13.4635   17.7428 H   0  0  0  0  0  0
  -27.8651  -11.2856   18.8874 H   0  0  0  0  0  0
  -27.3668  -12.5484   17.7945 H   0  0  0  0  0  0
  -27.6496  -14.2538   19.4890 H   0  0  0  0  0  0
  -28.6880  -12.1365   21.4339 H   0  0  0  0  0  0
  -28.4424  -13.8310   21.7896 H   0  0  0  0  0  0
  -25.2765   -9.5694   22.4754 H   0  0  0  0  0  0
  -24.0009   -7.4640   22.7477 H   0  0  0  0  0  0
  -21.0844   -8.8766   19.8948 H   0  0  0  0  0  0
  -22.3692  -10.9672   19.6163 H   0  0  0  0  0  0
  -21.2004   -7.6148   23.9722 H   0  0  0  0  0  0
  -21.1479   -6.0519   25.9081 H   0  0  0  0  0  0
  -22.0595   -2.7611   23.2842 H   0  0  0  0  0  0
  -22.4107  -11.9871   22.4788 H   0  0  0  0  0  0
  -21.1092  -13.1220   22.2628 H   0  0  0  0  0  0
  -24.6671  -15.8539   20.5346 H   0  0  0  0  0  0
  -26.2949  -15.6285   20.1331 H   0  0  0  0  0  0
  -26.7167  -32.5452   23.1096 H   0  0  0  0  0  0
  -25.0057  -33.9752   25.0392 H   0  0  0  0  0  0
  -22.7068  -31.3015   21.4058 H   0  0  0  0  0  0
  -23.3764  -35.9635   23.3297 H   0  0  0  0  0  0
  -24.3575  -36.8926   22.2044 H   0  0  0  0  0  0
  -23.7262  -37.6496   23.6677 H   0  0  0  0  0  0
  -26.0867  -31.5571   20.6048 H   0  0  0  0  0  0
  -26.8384  -30.8411   22.0003 H   0  0  0  0  0  0
  -28.1081  -28.9906   21.1769 H   0  0  0  0  0  0
  -25.9225  -25.9372   19.0037 H   0  0  0  0  0  0
  -23.9596  -27.3074   19.0217 H   0  0  0  0  0  0
  -23.7458  -30.5981   19.4064 H   0  0  0  0  0  0
  -22.7488  -29.2491   19.8626 H   0  0  0  0  0  0
  -25.1303  -36.1933   25.0807 H   0  0  0  0  0  0
  -20.9940  -28.3237   24.1439 H   0  0  0  0  0  0
  -20.5685  -26.2267   23.3614 H   0  0  0  0  0  0
  -21.6642  -26.7438   22.1203 H   0  0  0  0  0  0
  -19.6924  -25.6289   21.1240 H   0  0  0  0  0  0
  -19.6688  -27.3201   20.6764 H   0  0  0  0  0  0
  -17.4195  -26.6648   21.4028 H   0  0  0  0  0  0
  -18.0309  -26.0051   22.9018 H   0  0  0  0  0  0
  -19.7947  -30.7244   24.2251 H   0  0  0  0  0  0
  -17.5028  -31.6249   24.5166 H   0  0  0  0  0  0
  -15.5349  -30.2968   23.7664 H   0  0  0  0  0  0
  -15.8670  -28.0821   22.7040 H   0  0  0  0  0  0
  -24.5877  -30.7107   25.7778 H   0  0  0  0  0  0
  -24.8908  -32.2923   26.4873 H   0  0  0  0  0  0
  -25.8026  -30.8928   27.0228 H   0  0  0  0  0  0
  -26.2882  -29.6794   24.1169 H   0  0  0  0  0  0
  -27.4008  -29.7263   25.4645 H   0  0  0  0  0  0
  -27.8761  -30.4312   23.9373 H   0  0  0  0  0  0
  -27.2639  -33.3641   26.2093 H   0  0  0  0  0  0
  -28.3865  -32.6913   25.0347 H   0  0  0  0  0  0
  -28.0707  -31.8459   26.5418 H   0  0  0  0  0  0
  -28.2580  -38.0112   24.7514 H   0  0  0  0  0  0
  -28.1089  -36.2634   24.6272 H   0  0  0  0  0  0
  -27.2285  -37.1431   25.8850 H   0  0  0  0  0  0
  -20.9361  -29.8773   21.6964 H   0  0  0  0  0  0
  -26.0173  -38.2849   24.1422 H   0  0  0  0  0  0
  -26.8244  -19.6065   20.2824 H   0  0  0  0  0  0
  -30.4742  -21.6059   20.8756 H   0  0  0  0  0  0
  -28.1354  -17.7821   19.3550 H   0  0  0  0  0  0
  -29.3960  -18.5594   18.4428 H   0  0  0  0  0  0
  -29.5066  -18.5328   22.7099 H   0  0  0  0  0  0
  -28.1800  -17.8065   21.8550 H   0  0  0  0  0  0
  -31.0616  -16.9214   19.1641 H   0  0  0  0  0  0
  -29.6984  -16.0896   18.4708 H   0  0  0  0  0  0
  -29.6571  -16.0101   22.6198 H   0  0  0  0  0  0
  -31.0709  -16.8048   21.9878 H   0  0  0  0  0  0
  -30.6146  -19.1122   20.5506 H   0  0  0  0  0  0
  -25.0629  -21.6139   20.4150 H   0  0  0  0  0  0
  -25.7157  -22.9513   19.4676 H   0  0  0  0  0  0
  -25.6337  -23.0688   21.2314 H   0  0  0  0  0  0
  -27.5457  -24.7871   19.1796 H   0  0  0  0  0  0
  -29.2419  -24.9610   19.1183 H   0  0  0  0  0  0
  -27.7211  -24.2888   21.6642 H   0  0  0  0  0  0
  -30.5910  -24.1627   21.2052 H   0  0  0  0  0  0
  -29.7953  -23.8070   22.5873 H   0  0  0  0  0  0
  -29.7846  -25.3293   22.0056 H   0  0  0  0  0  0
  1 25  1  0  0  0
  1 30  2  0  0  0
  1 84  1  0  0  0
  2  3  1  0  0  0
  2 25  1  0  0  0
  2 86  1  0  0  0
  2 87  1  0  0  0
  3  4  1  0  0  0
  3 88  1  0  0  0
  3 89  1  0  0  0
  4  5  1  0  0  0
  4 90  1  0  0  0
  4 91  1  0  0  0
  5  6  1  0  0  0
  5 26  1  0  0  0
  5 92  1  0  0  0
  6 25  1  0  0  0
  6 93  1  0  0  0
  6 94  1  0  0  0
  7  8  2  0  0  0
  7 26  1  0  0  0
  7 29  1  0  0  0
  8  9  1  0  0  0
  8 22  1  0  0  0
  9 10  1  0  0  0
  9 27  2  0  0  0
 10 11  2  0  0  0
 10 15  1  0  0  0
 11 12  1  0  0  0
 11 95  1  0  0  0
 12 13  2  0  0  0
 12 96  1  0  0  0
 13 14  1  0  0  0
 13 31  1  0  0  0
 14 15  2  0  0  0
 14 97  1  0  0  0
 15 98  1  0  0  0
 16 17  2  0  0  0
 16 21  1  0  0  0
 16 31  1  0  0  0
 17 18  1  0  0  0
 17 99  1  0  0  0
 18 19  2  0  0  0
 18100  1  0  0  0
 19 20  1  0  0  0
 19 24  1  0  0  0
 20 21  2  0  0  0
 20101  1  0  0  0
 21 23  1  0  0  0
 22 28  1  0  0  0
 22 32  2  0  0  0
 26 27  1  0  0  0
 28102  1  0  0  0
 28103  1  0  0  0
 29104  1  0  0  0
 29105  1  0  0  0
 33 34  1  0  0  0
 33 66  1  0  0  0
 33 70  2  0  0  0
 34 36  1  0  0  0
 34 59  1  0  0  0
 34106  1  0  0  0
 35 44  2  0  0  0
 35 45  1  0  0  0
 35 68  1  0  0  0
 36 56  1  0  0  0
 36107  1  0  0  0
 37 39  1  0  0  0
 37 47  1  0  0  0
 37 66  1  0  0  0
 37108  1  0  0  0
 38 43  2  0  0  0
 38 46  1  0  0  0
 38 47  1  0  0  0
 39 64  1  0  0  0
 39 67  2  0  0  0
 40 52  1  0  0  0
 40 53  2  0  0  0
 40 58  1  0  0  0
 41109  1  0  0  0
 41110  1  0  0  0
 41111  1  0  0  0
 41 48  1  0  0  0
 42 43  1  0  0  0
 42 66  1  0  0  0
 42112  1  0  0  0
 42113  1  0  0  0
 43 44  1  0  0  0
 44114  1  0  0  0
 45 46  2  0  0  0
 45115  1  0  0  0
 46116  1  0  0  0
 47117  1  0  0  0
 47118  1  0  0  0
 48 56  1  0  0  0
 48 65  1  0  0  0
 48119  1  0  0  0
 49 50  1  0  0  0
 49 53  1  0  0  0
 49 64  1  0  0  0
 49120  1  0  0  0
 50 51  1  0  0  0
 50121  1  0  0  0
 50122  1  0  0  0
 51 52  1  0  0  0
 51123  1  0  0  0
 51124  1  0  0  0
 52125  1  0  0  0
 52126  1  0  0  0
 53 54  1  0  0  0
 54 55  2  0  0  0
 54127  1  0  0  0
 55 57  1  0  0  0
 55128  1  0  0  0
 56 69  2  0  0  0
 57 58  2  0  0  0
 57129  1  0  0  0
 58130  1  0  0  0
 59 60  1  0  0  0
 59 61  1  0  0  0
 59 62  1  0  0  0
 60131  1  0  0  0
 60132  1  0  0  0
 60133  1  0  0  0
 61134  1  0  0  0
 61135  1  0  0  0
 61136  1  0  0  0
 62137  1  0  0  0
 62138  1  0  0  0
 62139  1  0  0  0
 63 65  1  0  0  0
 63140  1  0  0  0
 63141  1  0  0  0
 63142  1  0  0  0
 64143  1  0  0  0
 65144  1  0  0  0
 68 81  1  0  0  0
 71 73  2  0  0  0
 71 83  1  0  0  0
 71145  1  0  0  0
 72 74  2  0  0  0
 72 83  1  0  0  0
 72146  1  0  0  0
 73 74  1  0  0  0
 73 80  1  0  0  0
 74 82  1  0  0  0
 75 77  1  0  0  0
 75 79  1  0  0  0
 75147  1  0  0  0
 75148  1  0  0  0
 76 78  1  0  0  0
 76 79  1  0  0  0
 76149  1  0  0  0
 76150  1  0  0  0
 77 84  1  0  0  0
 77151  1  0  0  0
 77152  1  0  0  0
 78 84  1  0  0  0
 78153  1  0  0  0
 78154  1  0  0  0
 79 83  1  0  0  0
 79155  1  0  0  0
 80156  1  0  0  0
 80157  1  0  0  0
 80158  1  0  0  0
 81 82  1  0  0  0
 81159  1  0  0  0
 81160  1  0  0  0
 82 85  1  0  0  0
 82161  1  0  0  0
 85162  1  0  0  0
 85163  1  0  0  0
 85164  1  0  0  0
M  CHG  1  85   1
M  ISO  4   1 100  68 101  81 101  84 100
M  END
> <chiral flag>
0

> <version>
0

> <s_m_source_file>
/data/baiqing/PycharmProjects/Reinvent-master-3.2/result/LINK_invent/BTK/process_docking_weight1_custom_sum_contain_oxygen_bond_distance_aromatic_linkinvent_7_9_3/rearranged_h_0135.sdf

> <i_m_source_file_index>
30

> <r_mmod_Potential_Energy-OPLS-2005>
33.6684226989746

> <r_mmod_Stretch_Energy-OPLS-2005>
76.7333679199219

> <r_mmod_Bend_Energy-OPLS-2005>
154.454116821289

> <r_mmod_Torsional_Energy-OPLS-2005>
350.184844970703

> <r_mmod_Improper_Torsional_Energy-OPLS-2005>
14.1466817855835

> <r_mmod_Van_der_Waal_Energy-OPLS-2005>
118.521598815918

> <r_mmod_Electrostatic_Energy-OPLS-2005>
-286.391693115234

> <r_mmod_Solvation_Energy-OPLS-2005>
-441.119689941406

> <b_mmod_Minimization_Converged-OPLS-2005>
0

> <r_mmod_RMS_Derivative-OPLS-2005>
1.27801358699799

$$$$
30
                    3D
 Structure written by MMmdl.
172181  0  0  1  0            999 V2000
  -30.6313  -14.8182   20.4569 C   0  0  0  0  0  0
  -30.4214  -12.5134   19.4742 C   0  0  0  0  0  0
  -29.5003  -12.4906   18.2364 C   0  0  0  0  0  0
  -28.0377  -12.2701   18.6617 C   0  0  0  0  0  0
  -27.6226  -13.2060   19.8217 C   0  0  2  0  0  0
  -28.6683  -13.2404   20.9614 C   0  0  0  0  0  0
  -25.2431  -13.8035   20.5646 C   0  0  0  0  0  0
  -24.1745  -13.0329   20.9253 C   0  0  0  0  0  0
  -24.6341  -11.6820   20.8791 C   0  0  0  0  0  0
  -23.9036  -10.4223   21.0438 C   0  0  0  0  0  0
  -24.3596   -9.4147   21.9213 C   0  0  0  0  0  0
  -23.6276   -8.2182   22.0759 C   0  0  0  0  0  0
  -22.4270   -8.0228   21.3524 C   0  0  0  0  0  0
  -21.9904   -9.0213   20.4641 C   0  0  0  0  0  0
  -22.7222  -10.2092   20.3070 C   0  0  0  0  0  0
  -21.6825   -6.0717   22.5280 C   0  0  0  0  0  0
  -21.3998   -6.5637   23.8216 C   0  0  0  0  0  0
  -21.3661   -5.6797   24.9186 C   0  0  0  0  0  0
  -21.6046   -4.3057   24.7224 C   0  0  0  0  0  0
  -21.8822   -3.8135   23.4347 C   0  0  0  0  0  0
  -21.9187   -4.6948   22.3403 C   0  0  0  0  0  0
  -22.7788  -13.5174   21.1918 C   0  0  0  0  0  0
  -22.1667   -4.2139   21.0981 F   0  0  0  0  0  0
  -21.5637   -3.4542   25.7736 F   0  0  0  0  0  0
  -29.9558  -13.6121   20.3631 N   0  0  0  0  0  0
  -26.2826  -12.9223   20.3155 N   0  0  0  0  0  0
  -25.9248  -11.6406   20.5735 N   0  0  0  0  0  0
  -22.0392  -12.8209   22.0478 N   0  0  0  0  0  0
  -25.4022  -15.1720   20.3949 N   0  0  0  0  0  0
  -31.8402  -14.8150   20.2037 O   0  0  0  0  0  0
  -21.6617   -6.8839   21.4228 O   0  0  0  0  0  0
  -22.3516  -14.5487   20.6735 O   0  0  0  0  0  0
  -24.6298  -31.8537   23.1963 C   0  0  0  0  0  0
  -25.9118  -32.4744   23.8327 C   0  0  1  0  0  0
  -27.2288  -27.2559   20.1505 C   0  0  0  0  0  0
  -25.5910  -33.8546   24.2244 N   0  0  0  0  0  0
  -23.4267  -30.4717   21.5393 C   0  0  2  0  0  0
  -24.8763  -28.9091   20.1163 C   0  0  0  0  0  0
  -22.7489  -29.4585   22.4927 C   0  0  0  0  0  0
  -18.0282  -28.1384   22.8480 C   0  0  0  0  0  0
  -24.1483  -36.7279   23.2642 C   0  0  0  0  0  0
  -25.9705  -30.7654   21.3760 C   0  0  0  0  0  0
  -26.0435  -29.3841   20.7272 C   0  0  0  0  0  0
  -27.2205  -28.5703   20.7310 C   0  0  0  0  0  0
  -26.0399  -26.8446   19.5116 C   0  0  0  0  0  0
  -24.8799  -27.6487   19.4950 C   0  0  0  0  0  0
  -23.6449  -29.7947   20.1592 C   0  0  0  0  0  0
  -25.4113  -36.3064   24.0324 C   0  0  1  0  0  0
  -20.5881  -28.3688   23.1272 C   0  0  2  0  0  0
  -20.6757  -26.9402   22.5413 C   0  0  0  0  0  0
  -19.5741  -26.6376   21.5207 C   0  0  0  0  0  0
  -18.1922  -26.7921   22.1618 C   0  0  0  0  0  0
  -19.1531  -28.8850   23.2863 C   0  0  0  0  0  0
  -18.9458  -30.1449   23.8888 C   0  0  0  0  0  0
  -17.6459  -30.6575   24.0559 C   0  0  0  0  0  0
  -25.9048  -34.9435   23.5092 C   0  0  0  0  0  0
  -16.5349  -29.9079   23.6327 C   0  0  0  0  0  0
  -16.7270  -28.6494   23.0352 C   0  0  0  0  0  0
  -26.4492  -31.6577   25.0726 C   0  0  0  0  0  0
  -25.3720  -31.3721   26.1456 C   0  0  0  0  0  0
  -27.0351  -30.2995   24.6228 C   0  0  0  0  0  0
  -27.6045  -32.4330   25.7490 C   0  0  0  0  0  0
  -27.5583  -37.1781   24.8454 C   0  0  0  0  0  0
  -21.4196  -29.3035   22.3668 N   0  0  0  0  0  0
  -26.4282  -37.3773   23.9416 N   0  0  0  0  0  0
  -24.6943  -31.0506   22.0938 N   0  0  0  0  0  0
  -23.4196  -28.8135   23.3025 O   0  0  0  0  0  0
  -28.3669  -26.4179   20.1508 O   0  0  0  0  0  0
  -26.5637  -34.8912   22.4670 O   0  0  0  0  0  0
  -23.5439  -32.1364   23.7261 O   0  0  0  0  0  0
  -29.1304  -22.9826   21.6633 C   0  0  0  0  0  0
  -28.9650  -24.4009   21.4978 C   0  0  0  0  0  0
  -28.0032  -24.0312   19.3620 C   0  0  0  0  0  0
  -28.7157  -22.0056   20.7050 C   0  0  0  0  0  0
  -28.1302  -22.6013   19.5350 C   0  0  0  0  0  0
  -28.3824  -24.9953   20.3434 C   0  0  0  0  0  0
  -30.7096  -17.2410   21.2960 C   0  0  0  0  0  0
  -28.7526  -16.5446   20.0782 C   0  0  0  0  0  0
  -30.5800  -18.6472   20.5432 C   0  0  2  0  0  0
  -28.2109  -18.0293   20.3619 C   0  0  2  0  0  0
  -27.5745  -21.7289   18.4318 C   0  0  0  0  0  0
  -31.5578  -19.6862   21.1302 C   0  0  0  0  0  0
  -25.9346  -18.6661   17.1557 C   0  0  0  0  0  0
  -28.6973  -20.4411   21.1311 C   0  0  0  0  0  0
  -26.9494  -18.3136   19.4956 C   0  0  0  0  0  0
  -27.1429  -18.1798   17.9685 C   0  0  0  0  0  0
  -29.9926  -16.0513   20.7303 N   0  0  0  0  0  0
  -29.1830  -19.1941   20.3243 N   0  3  1  0  0  0
  -31.4564  -12.6439   19.1520 H   0  0  0  0  0  0
  -30.3914  -11.5556   19.9958 H   0  0  0  0  0  0
  -29.8143  -11.7016   17.5509 H   0  0  0  0  0  0
  -29.5887  -13.4281   17.6855 H   0  0  0  0  0  0
  -27.9369  -11.2290   18.9697 H   0  0  0  0  0  0
  -27.3707  -12.3998   17.8084 H   0  0  0  0  0  0
  -27.5788  -14.1799   19.3446 H   0  0  0  0  0  0
  -28.7393  -12.2724   21.4625 H   0  0  0  0  0  0
  -28.3802  -13.9619   21.7266 H   0  0  0  0  0  0
  -25.2717   -9.5641   22.4827 H   0  0  0  0  0  0
  -23.9959   -7.4582   22.7501 H   0  0  0  0  0  0
  -21.0826   -8.8746   19.8965 H   0  0  0  0  0  0
  -22.3671  -10.9650   19.6206 H   0  0  0  0  0  0
  -21.1986   -7.6146   23.9716 H   0  0  0  0  0  0
  -21.1490   -6.0526   25.9093 H   0  0  0  0  0  0
  -22.0599   -2.7590   23.2856 H   0  0  0  0  0  0
  -22.3954  -11.9871   22.4913 H   0  0  0  0  0  0
  -21.1000  -13.1252   22.2635 H   0  0  0  0  0  0
  -24.6026  -15.7925   20.4464 H   0  0  0  0  0  0
  -26.2014  -15.5819   19.9366 H   0  0  0  0  0  0
  -26.7189  -32.5399   23.1069 H   0  0  0  0  0  0
  -25.0018  -33.9675   25.0369 H   0  0  0  0  0  0
  -22.7232  -31.2931   21.3881 H   0  0  0  0  0  0
  -23.3749  -35.9601   23.3272 H   0  0  0  0  0  0
  -24.3575  -36.8944   22.2062 H   0  0  0  0  0  0
  -23.7220  -37.6464   23.6689 H   0  0  0  0  0  0
  -26.1098  -31.5211   20.6020 H   0  0  0  0  0  0
  -26.8482  -30.8185   22.0090 H   0  0  0  0  0  0
  -28.1212  -28.9362   21.2034 H   0  0  0  0  0  0
  -25.9929  -25.8805   19.0296 H   0  0  0  0  0  0
  -23.9882  -27.2826   19.0043 H   0  0  0  0  0  0
  -23.7595  -30.5620   19.3922 H   0  0  0  0  0  0
  -22.7668  -29.2160   19.8669 H   0  0  0  0  0  0
  -25.1289  -36.1904   25.0815 H   0  0  0  0  0  0
  -20.9975  -28.3258   24.1391 H   0  0  0  0  0  0
  -20.5613  -26.2306   23.3617 H   0  0  0  0  0  0
  -21.6634  -26.7397   22.1236 H   0  0  0  0  0  0
  -19.6894  -25.6281   21.1240 H   0  0  0  0  0  0
  -19.6685  -27.3173   20.6720 H   0  0  0  0  0  0
  -17.4198  -26.6666   21.4019 H   0  0  0  0  0  0
  -18.0323  -26.0060   22.9008 H   0  0  0  0  0  0
  -19.7935  -30.7254   24.2268 H   0  0  0  0  0  0
  -17.5016  -31.6257   24.5159 H   0  0  0  0  0  0
  -15.5344  -30.2979   23.7650 H   0  0  0  0  0  0
  -15.8671  -28.0802   22.7087 H   0  0  0  0  0  0
  -24.5857  -30.7127   25.7765 H   0  0  0  0  0  0
  -24.8964  -32.2896   26.4932 H   0  0  0  0  0  0
  -25.8037  -30.8839   27.0206 H   0  0  0  0  0  0
  -26.2947  -29.6725   24.1253 H   0  0  0  0  0  0
  -27.4022  -29.7275   25.4759 H   0  0  0  0  0  0
  -27.8822  -30.4255   23.9484 H   0  0  0  0  0  0
  -27.2639  -33.3606   26.2099 H   0  0  0  0  0  0
  -28.3831  -32.6945   25.0313 H   0  0  0  0  0  0
  -28.0754  -31.8459   26.5385 H   0  0  0  0  0  0
  -28.2570  -38.0110   24.7553 H   0  0  0  0  0  0
  -28.1112  -36.2645   24.6210 H   0  0  0  0  0  0
  -27.2314  -37.1352   25.8860 H   0  0  0  0  0  0
  -20.9379  -29.8769   21.6881 H   0  0  0  0  0  0
  -26.0152  -38.2835   24.1457 H   0  0  0  0  0  0
  -29.5554  -22.6419   22.5975 H   0  0  0  0  0  0
  -29.3074  -25.0518   22.2898 H   0  0  0  0  0  0
  -27.5950  -24.4014   18.4334 H   0  0  0  0  0  0
  -30.3601  -17.3621   22.3216 H   0  0  0  0  0  0
  -31.7704  -17.0088   21.3969 H   0  0  0  0  0  0
  -28.8775  -16.3721   19.0094 H   0  0  0  0  0  0
  -27.9577  -15.8962   20.4242 H   0  0  0  0  0  0
  -30.9384  -18.4543   19.5303 H   0  0  0  0  0  0
  -27.8732  -17.9934   21.4000 H   0  0  0  0  0  0
  -27.6225  -22.2289   17.4649 H   0  0  0  0  0  0
  -26.5298  -21.4931   18.6363 H   0  0  0  0  0  0
  -28.1411  -20.8077   18.3454 H   0  0  0  0  0  0
  -31.3387  -19.9148   22.1707 H   0  0  0  0  0  0
  -31.5486  -20.6200   20.5666 H   0  0  0  0  0  0
  -32.5805  -19.3082   21.1018 H   0  0  0  0  0  0
  -26.1392  -18.5832   16.0869 H   0  0  0  0  0  0
  -25.6945  -19.7094   17.3617 H   0  0  0  0  0  0
  -25.0455  -18.0704   17.3683 H   0  0  0  0  0  0
  -27.6410  -20.2874   21.3456 H   0  0  0  0  0  0
  -29.1292  -20.3615   22.1274 H   0  0  0  0  0  0
  -26.5400  -19.2965   19.7256 H   0  0  0  0  0  0
  -26.1599  -17.6283   19.7958 H   0  0  0  0  0  0
  -28.0297  -18.7220   17.6457 H   0  0  0  0  0  0
  -27.3195  -17.1400   17.6986 H   0  0  0  0  0  0
  -29.1933  -19.5116   19.3678 H   0  0  0  0  0  0
  1 25  1  0  0  0
  1 30  2  0  0  0
  1 87  1  0  0  0
  2  3  1  0  0  0
  2 25  1  0  0  0
  2 89  1  0  0  0
  2 90  1  0  0  0
  3  4  1  0  0  0
  3 91  1  0  0  0
  3 92  1  0  0  0
  4  5  1  0  0  0
  4 93  1  0  0  0
  4 94  1  0  0  0
  5  6  1  0  0  0
  5 26  1  0  0  0
  5 95  1  0  0  0
  6 25  1  0  0  0
  6 96  1  0  0  0
  6 97  1  0  0  0
  7  8  2  0  0  0
  7 26  1  0  0  0
  7 29  1  0  0  0
  8  9  1  0  0  0
  8 22  1  0  0  0
  9 10  1  0  0  0
  9 27  2  0  0  0
 10 11  2  0  0  0
 10 15  1  0  0  0
 11 12  1  0  0  0
 11 98  1  0  0  0
 12 13  2  0  0  0
 12 99  1  0  0  0
 13 14  1  0  0  0
 13 31  1  0  0  0
 14 15  2  0  0  0
 14100  1  0  0  0
 15101  1  0  0  0
 16 17  2  0  0  0
 16 21  1  0  0  0
 16 31  1  0  0  0
 17 18  1  0  0  0
 17102  1  0  0  0
 18 19  2  0  0  0
 18103  1  0  0  0
 19 20  1  0  0  0
 19 24  1  0  0  0
 20 21  2  0  0  0
 20104  1  0  0  0
 21 23  1  0  0  0
 22 28  1  0  0  0
 22 32  2  0  0  0
 26 27  1  0  0  0
 28105  1  0  0  0
 28106  1  0  0  0
 29107  1  0  0  0
 29108  1  0  0  0
 33 34  1  0  0  0
 33 66  1  0  0  0
 33 70  2  0  0  0
 34 36  1  0  0  0
 34 59  1  0  0  0
 34109  1  0  0  0
 35 44  2  0  0  0
 35 45  1  0  0  0
 35 68  1  0  0  0
 36 56  1  0  0  0
 36110  1  0  0  0
 37 39  1  0  0  0
 37 47  1  0  0  0
 37 66  1  0  0  0
 37111  1  0  0  0
 38 43  2  0  0  0
 38 46  1  0  0  0
 38 47  1  0  0  0
 39 64  1  0  0  0
 39 67  2  0  0  0
 40 52  1  0  0  0
 40 53  2  0  0  0
 40 58  1  0  0  0
 41112  1  0  0  0
 41113  1  0  0  0
 41114  1  0  0  0
 41 48  1  0  0  0
 42 43  1  0  0  0
 42 66  1  0  0  0
 42115  1  0  0  0
 42116  1  0  0  0
 43 44  1  0  0  0
 44117  1  0  0  0
 45 46  2  0  0  0
 45118  1  0  0  0
 46119  1  0  0  0
 47120  1  0  0  0
 47121  1  0  0  0
 48 56  1  0  0  0
 48 65  1  0  0  0
 48122  1  0  0  0
 49 50  1  0  0  0
 49 53  1  0  0  0
 49 64  1  0  0  0
 49123  1  0  0  0
 50 51  1  0  0  0
 50124  1  0  0  0
 50125  1  0  0  0
 51 52  1  0  0  0
 51126  1  0  0  0
 51127  1  0  0  0
 52128  1  0  0  0
 52129  1  0  0  0
 53 54  1  0  0  0
 54 55  2  0  0  0
 54130  1  0  0  0
 55 57  1  0  0  0
 55131  1  0  0  0
 56 69  2  0  0  0
 57 58  2  0  0  0
 57132  1  0  0  0
 58133  1  0  0  0
 59 60  1  0  0  0
 59 61  1  0  0  0
 59 62  1  0  0  0
 60134  1  0  0  0
 60135  1  0  0  0
 60136  1  0  0  0
 61137  1  0  0  0
 61138  1  0  0  0
 61139  1  0  0  0
 62140  1  0  0  0
 62141  1  0  0  0
 62142  1  0  0  0
 63 65  1  0  0  0
 63143  1  0  0  0
 63144  1  0  0  0
 63145  1  0  0  0
 64146  1  0  0  0
 65147  1  0  0  0
 68 76  1  0  0  0
 71 72  2  0  0  0
 71 74  1  0  0  0
 71148  1  0  0  0
 72 76  1  0  0  0
 72149  1  0  0  0
 73 75  1  0  0  0
 73 76  2  0  0  0
 73150  1  0  0  0
 74 75  2  0  0  0
 74 84  1  0  0  0
 75 81  1  0  0  0
 77 79  1  0  0  0
 77 87  1  0  0  0
 77151  1  0  0  0
 77152  1  0  0  0
 78 80  1  0  0  0
 78 87  1  0  0  0
 78153  1  0  0  0
 78154  1  0  0  0
 79 82  1  0  0  0
 79 88  1  0  0  0
 79155  1  0  0  0
 80 85  1  0  0  0
 80 88  1  0  0  0
 80156  1  0  0  0
 81157  1  0  0  0
 81158  1  0  0  0
 81159  1  0  0  0
 82160  1  0  0  0
 82161  1  0  0  0
 82162  1  0  0  0
 83 86  1  0  0  0
 83163  1  0  0  0
 83164  1  0  0  0
 83165  1  0  0  0
 84166  1  0  0  0
 84167  1  0  0  0
 84 88  1  0  0  0
 85 86  1  0  0  0
 85168  1  0  0  0
 85169  1  0  0  0
 86170  1  0  0  0
 86171  1  0  0  0
 88172  1  0  0  0
M  CHG  1  88   1
M  ISO  4   1 100  68 101  76 101  87 100
M  END
> <chiral flag>
0

> <version>
0

> <s_m_source_file>
/data/baiqing/PycharmProjects/Reinvent-master-3.2/result/LINK_invent/BTK/process_docking_weight1_custom_sum_contain_oxygen_bond_distance_aromatic_linkinvent_7_9_3/rearranged_h_0135.sdf

> <i_m_source_file_index>
31

> <r_mmod_Potential_Energy-OPLS-2005>
409.507476806641

> <r_mmod_Stretch_Energy-OPLS-2005>
136.178771972656

> <r_mmod_Bend_Energy-OPLS-2005>
239.365386962891

> <r_mmod_Torsional_Energy-OPLS-2005>
404.653411865234

> <r_mmod_Improper_Torsional_Energy-OPLS-2005>
6.67066049575806

> <r_mmod_Van_der_Waal_Energy-OPLS-2005>
138.666320800781

> <r_mmod_Electrostatic_Energy-OPLS-2005>
-197.731857299805

> <r_mmod_Solvation_Energy-OPLS-2005>
-422.712585449219

> <b_mmod_Minimization_Converged-OPLS-2005>
0

> <r_mmod_RMS_Derivative-OPLS-2005>
2.53076934814453

$$$$
31
                    3D
 Structure written by MMmdl.
164173  0  0  1  0            999 V2000
  -30.7136  -14.4983   20.4758 C   0  0  0  0  0  0
  -30.4118  -12.2834   19.4721 C   0  0  0  0  0  0
  -29.5171  -12.4492   18.2289 C   0  0  0  0  0  0
  -28.0249  -12.3610   18.6199 C   0  0  0  0  0  0
  -27.6542  -13.2219   19.8623 C   0  0  2  0  0  0
  -28.6949  -13.0869   20.9971 C   0  0  0  0  0  0
  -25.2546  -13.8166   20.5684 C   0  0  0  0  0  0
  -24.1820  -13.0430   20.9151 C   0  0  0  0  0  0
  -24.6403  -11.6892   20.8742 C   0  0  0  0  0  0
  -23.9077  -10.4281   21.0387 C   0  0  0  0  0  0
  -24.3611   -9.4196   21.9168 C   0  0  0  0  0  0
  -23.6294   -8.2239   22.0762 C   0  0  0  0  0  0
  -22.4273   -8.0278   21.3572 C   0  0  0  0  0  0
  -21.9922   -9.0223   20.4648 C   0  0  0  0  0  0
  -22.7260  -10.2085   20.3028 C   0  0  0  0  0  0
  -21.6848   -6.0737   22.5316 C   0  0  0  0  0  0
  -21.4030   -6.5628   23.8258 C   0  0  0  0  0  0
  -21.3661   -5.6765   24.9209 C   0  0  0  0  0  0
  -21.6048   -4.3034   24.7249 C   0  0  0  0  0  0
  -21.8811   -3.8141   23.4365 C   0  0  0  0  0  0
  -21.9189   -4.6965   22.3428 C   0  0  0  0  0  0
  -22.7830  -13.5203   21.1773 C   0  0  0  0  0  0
  -22.1636   -4.2158   21.0999 F   0  0  0  0  0  0
  -21.5614   -3.4517   25.7754 F   0  0  0  0  0  0
  -30.0228  -13.3320   20.4208 N   0  0  0  0  0  0
  -26.3000  -12.9375   20.3332 N   0  0  0  0  0  0
  -25.9337  -11.6514   20.5763 N   0  0  0  0  0  0
  -22.0309  -12.8100   22.0086 N   0  0  0  0  0  0
  -25.4252  -15.1905   20.4082 N   0  0  0  0  0  0
  -31.9031  -14.5887   20.1831 O   0  0  0  0  0  0
  -21.6635   -6.8876   21.4283 O   0  0  0  0  0  0
  -22.3595  -14.5611   20.6738 O   0  0  0  0  0  0
  -24.6196  -31.8684   23.2122 C   0  0  0  0  0  0
  -25.9062  -32.4836   23.8421 C   0  0  1  0  0  0
  -27.2169  -27.4192   20.0742 C   0  0  0  0  0  0
  -25.5923  -33.8644   24.2344 N   0  0  0  0  0  0
  -23.4037  -30.4931   21.5607 C   0  0  2  0  0  0
  -24.8428  -28.9575   20.1170 C   0  0  0  0  0  0
  -22.7425  -29.4631   22.5050 C   0  0  0  0  0  0
  -18.0278  -28.1336   22.8487 C   0  0  0  0  0  0
  -24.1479  -36.7313   23.2628 C   0  0  0  0  0  0
  -25.9356  -30.8303   21.3590 C   0  0  0  0  0  0
  -26.0099  -29.4643   20.7028 C   0  0  0  0  0  0
  -27.2043  -28.7037   20.6729 C   0  0  0  0  0  0
  -26.0344  -26.9383   19.4755 C   0  0  0  0  0  0
  -24.8509  -27.6960   19.4981 C   0  0  0  0  0  0
  -23.6075  -29.8289   20.1742 C   0  0  0  0  0  0
  -25.4110  -36.3134   24.0338 C   0  0  1  0  0  0
  -20.5860  -28.3606   23.1341 C   0  0  2  0  0  0
  -20.6742  -26.9351   22.5399 C   0  0  0  0  0  0
  -19.5722  -26.6379   21.5177 C   0  0  0  0  0  0
  -18.1911  -26.7893   22.1594 C   0  0  0  0  0  0
  -19.1519  -28.8799   23.2904 C   0  0  0  0  0  0
  -18.9440  -30.1411   23.8916 C   0  0  0  0  0  0
  -17.6430  -30.6548   24.0550 C   0  0  0  0  0  0
  -25.9047  -34.9497   23.5141 C   0  0  0  0  0  0
  -16.5329  -29.9045   23.6315 C   0  0  0  0  0  0
  -16.7261  -28.6453   23.0360 C   0  0  0  0  0  0
  -26.4474  -31.6578   25.0725 C   0  0  0  0  0  0
  -25.3715  -31.3619   26.1437 C   0  0  0  0  0  0
  -27.0255  -30.3045   24.5997 C   0  0  0  0  0  0
  -27.6087  -32.4242   25.7497 C   0  0  0  0  0  0
  -27.5575  -37.1821   24.8478 C   0  0  0  0  0  0
  -21.4144  -29.3013   22.3807 N   0  0  0  0  0  0
  -26.4293  -37.3827   23.9416 N   0  0  0  0  0  0
  -24.6743  -31.0749   22.1047 N   0  0  0  0  0  0
  -23.4190  -28.8142   23.3066 O   0  0  0  0  0  0
  -28.3615  -26.6504   20.0703 O   0  0  0  0  0  0
  -26.5593  -34.8934   22.4691 O   0  0  0  0  0  0
  -23.5388  -32.1454   23.7506 O   0  0  0  0  0  0
  -27.2387  -20.6324   20.2809 C   0  0  0  0  0  0
  -27.1819  -21.9474   19.7744 C   0  0  0  0  0  0
  -28.3494  -22.7579   19.8446 C   0  0  0  0  0  0
  -29.5236  -22.1531   20.3715 C   0  0  0  0  0  0
  -28.4381  -20.1343   20.8006 C   0  0  0  0  0  0
  -25.0505  -23.5133   19.6638 C   0  0  0  0  0  0
  -24.5602  -22.0897   19.7638 C   0  0  0  0  0  0
  -25.9019  -22.3892   19.1298 C   0  0  0  0  0  0
  -30.8501  -22.8849   20.5201 C   0  0  0  0  0  0
  -28.3473  -24.2251   19.3480 C   0  0  0  0  0  0
  -29.4574  -17.9388   20.7003 C   0  0  0  0  0  0
  -29.3897  -16.4852   21.2390 C   0  0  0  0  0  0
  -28.2094  -25.2749   20.4874 C   0  0  0  0  0  0
  -29.5602  -20.8747   20.8217 N   0  0  0  0  0  0
  -28.4899  -18.8342   21.3238 N   0  0  0  0  0  0
  -29.9761  -15.5918   20.2454 N   0  0  0  0  0  0
  -31.4689  -12.3318   19.2032 H   0  0  0  0  0  0
  -30.2635  -11.3030   19.9286 H   0  0  0  0  0  0
  -29.7588  -11.6723   17.5033 H   0  0  0  0  0  0
  -29.7236  -13.4025   17.7387 H   0  0  0  0  0  0
  -27.8080  -11.3132   18.8203 H   0  0  0  0  0  0
  -27.4043  -12.6468   17.7693 H   0  0  0  0  0  0
  -27.6739  -14.2598   19.5277 H   0  0  0  0  0  0
  -28.6626  -12.0976   21.4555 H   0  0  0  0  0  0
  -28.4846  -13.7991   21.7934 H   0  0  0  0  0  0
  -25.2747   -9.5683   22.4748 H   0  0  0  0  0  0
  -24.0016   -7.4628   22.7467 H   0  0  0  0  0  0
  -21.0870   -8.8726   19.8941 H   0  0  0  0  0  0
  -22.3717  -10.9607   19.6143 H   0  0  0  0  0  0
  -21.2034   -7.6134   23.9792 H   0  0  0  0  0  0
  -21.1480   -6.0475   25.9102 H   0  0  0  0  0  0
  -22.0579   -2.7607   23.2862 H   0  0  0  0  0  0
  -22.3667  -11.9535   22.4252 H   0  0  0  0  0  0
  -21.0886  -13.1130   22.2032 H   0  0  0  0  0  0
  -24.6467  -15.8322   20.5063 H   0  0  0  0  0  0
  -26.2660  -15.6275   20.0540 H   0  0  0  0  0  0
  -26.7107  -32.5532   23.1149 H   0  0  0  0  0  0
  -25.0131  -33.9828   25.0529 H   0  0  0  0  0  0
  -22.6941  -31.3123   21.4274 H   0  0  0  0  0  0
  -23.3758  -35.9622   23.3316 H   0  0  0  0  0  0
  -24.3567  -36.8915   22.2034 H   0  0  0  0  0  0
  -23.7195  -37.6519   23.6628 H   0  0  0  0  0  0
  -26.0341  -31.5895   20.5821 H   0  0  0  0  0  0
  -26.8336  -30.8963   21.9633 H   0  0  0  0  0  0
  -28.1096  -29.0927   21.1195 H   0  0  0  0  0  0
  -26.0211  -25.9831   18.9773 H   0  0  0  0  0  0
  -23.9543  -27.3045   19.0388 H   0  0  0  0  0  0
  -23.7186  -30.6118   19.4238 H   0  0  0  0  0  0
  -22.7269  -29.2568   19.8729 H   0  0  0  0  0  0
  -25.1268  -36.2031   25.0831 H   0  0  0  0  0  0
  -20.9927  -28.3097   24.1461 H   0  0  0  0  0  0
  -20.5634  -26.2168   23.3543 H   0  0  0  0  0  0
  -21.6612  -26.7398   22.1173 H   0  0  0  0  0  0
  -19.6884  -25.6315   21.1154 H   0  0  0  0  0  0
  -19.6673  -27.3225   20.6740 H   0  0  0  0  0  0
  -17.4176  -26.6662   21.4009 H   0  0  0  0  0  0
  -18.0320  -26.0025   22.8984 H   0  0  0  0  0  0
  -19.7923  -30.7223   24.2285 H   0  0  0  0  0  0
  -17.4995  -31.6241   24.5123 H   0  0  0  0  0  0
  -15.5333  -30.2936   23.7651 H   0  0  0  0  0  0
  -15.8654  -28.0777   22.7068 H   0  0  0  0  0  0
  -24.6016  -30.6838   25.7744 H   0  0  0  0  0  0
  -24.8742  -32.2704   26.4842 H   0  0  0  0  0  0
  -25.8082  -30.8858   27.0220 H   0  0  0  0  0  0
  -26.2788  -29.6925   24.0938 H   0  0  0  0  0  0
  -27.3927  -29.7169   25.4419 H   0  0  0  0  0  0
  -27.8660  -30.4410   23.9190 H   0  0  0  0  0  0
  -27.2809  -33.3601   26.2025 H   0  0  0  0  0  0
  -28.3946  -32.6663   25.0333 H   0  0  0  0  0  0
  -28.0651  -31.8325   26.5445 H   0  0  0  0  0  0
  -28.2614  -38.0103   24.7548 H   0  0  0  0  0  0
  -28.1049  -36.2644   24.6294 H   0  0  0  0  0  0
  -27.2278  -37.1451   25.8876 H   0  0  0  0  0  0
  -20.9292  -29.8806   21.7108 H   0  0  0  0  0  0
  -26.0190  -38.2905   24.1455 H   0  0  0  0  0  0
  -26.3615  -19.9992   20.2451 H   0  0  0  0  0  0
  -25.3453  -23.9936   20.5942 H   0  0  0  0  0  0
  -24.5637  -24.1563   18.9344 H   0  0  0  0  0  0
  -23.7626  -21.7727   19.0949 H   0  0  0  0  0  0
  -24.5160  -21.6810   20.7717 H   0  0  0  0  0  0
  -25.9673  -22.2579   18.0510 H   0  0  0  0  0  0
  -31.0160  -23.1148   21.5706 H   0  0  0  0  0  0
  -30.9185  -23.8208   19.9733 H   0  0  0  0  0  0
  -31.6751  -22.2605   20.1749 H   0  0  0  0  0  0
  -27.5802  -24.3612   18.5883 H   0  0  0  0  0  0
  -29.2667  -24.4191   18.8001 H   0  0  0  0  0  0
  -29.2417  -17.9383   19.6301 H   0  0  0  0  0  0
  -30.4646  -18.3408   20.8201 H   0  0  0  0  0  0
  -28.3586  -16.1729   21.4099 H   0  0  0  0  0  0
  -29.9107  -16.4146   22.1964 H   0  0  0  0  0  0
  -28.9974  -25.1055   21.2205 H   0  0  0  0  0  0
  -27.2811  -25.1219   21.0421 H   0  0  0  0  0  0
  -27.5794  -18.4038   21.4423 H   0  0  0  0  0  0
  -30.4434  -16.1496   19.5461 H   0  0  0  0  0  0
  1 25  1  0  0  0
  1 30  2  0  0  0
  1 86  1  0  0  0
  2  3  1  0  0  0
  2 25  1  0  0  0
  2 87  1  0  0  0
  2 88  1  0  0  0
  3  4  1  0  0  0
  3 89  1  0  0  0
  3 90  1  0  0  0
  4  5  1  0  0  0
  4 91  1  0  0  0
  4 92  1  0  0  0
  5  6  1  0  0  0
  5 26  1  0  0  0
  5 93  1  0  0  0
  6 25  1  0  0  0
  6 94  1  0  0  0
  6 95  1  0  0  0
  7  8  2  0  0  0
  7 26  1  0  0  0
  7 29  1  0  0  0
  8  9  1  0  0  0
  8 22  1  0  0  0
  9 10  1  0  0  0
  9 27  2  0  0  0
 10 11  2  0  0  0
 10 15  1  0  0  0
 11 12  1  0  0  0
 11 96  1  0  0  0
 12 13  2  0  0  0
 12 97  1  0  0  0
 13 14  1  0  0  0
 13 31  1  0  0  0
 14 15  2  0  0  0
 14 98  1  0  0  0
 15 99  1  0  0  0
 16 17  2  0  0  0
 16 21  1  0  0  0
 16 31  1  0  0  0
 17 18  1  0  0  0
 17100  1  0  0  0
 18 19  2  0  0  0
 18101  1  0  0  0
 19 20  1  0  0  0
 19 24  1  0  0  0
 20 21  2  0  0  0
 20102  1  0  0  0
 21 23  1  0  0  0
 22 28  1  0  0  0
 22 32  2  0  0  0
 26 27  1  0  0  0
 28103  1  0  0  0
 28104  1  0  0  0
 29105  1  0  0  0
 29106  1  0  0  0
 33 34  1  0  0  0
 33 66  1  0  0  0
 33 70  2  0  0  0
 34 36  1  0  0  0
 34 59  1  0  0  0
 34107  1  0  0  0
 35 44  2  0  0  0
 35 45  1  0  0  0
 35 68  1  0  0  0
 36 56  1  0  0  0
 36108  1  0  0  0
 37 39  1  0  0  0
 37 47  1  0  0  0
 37 66  1  0  0  0
 37109  1  0  0  0
 38 43  2  0  0  0
 38 46  1  0  0  0
 38 47  1  0  0  0
 39 64  1  0  0  0
 39 67  2  0  0  0
 40 52  1  0  0  0
 40 53  2  0  0  0
 40 58  1  0  0  0
 41110  1  0  0  0
 41111  1  0  0  0
 41112  1  0  0  0
 41 48  1  0  0  0
 42 43  1  0  0  0
 42 66  1  0  0  0
 42113  1  0  0  0
 42114  1  0  0  0
 43 44  1  0  0  0
 44115  1  0  0  0
 45 46  2  0  0  0
 45116  1  0  0  0
 46117  1  0  0  0
 47118  1  0  0  0
 47119  1  0  0  0
 48 56  1  0  0  0
 48 65  1  0  0  0
 48120  1  0  0  0
 49 50  1  0  0  0
 49 53  1  0  0  0
 49 64  1  0  0  0
 49121  1  0  0  0
 50 51  1  0  0  0
 50122  1  0  0  0
 50123  1  0  0  0
 51 52  1  0  0  0
 51124  1  0  0  0
 51125  1  0  0  0
 52126  1  0  0  0
 52127  1  0  0  0
 53 54  1  0  0  0
 54 55  2  0  0  0
 54128  1  0  0  0
 55 57  1  0  0  0
 55129  1  0  0  0
 56 69  2  0  0  0
 57 58  2  0  0  0
 57130  1  0  0  0
 58131  1  0  0  0
 59 60  1  0  0  0
 59 61  1  0  0  0
 59 62  1  0  0  0
 60132  1  0  0  0
 60133  1  0  0  0
 60134  1  0  0  0
 61135  1  0  0  0
 61136  1  0  0  0
 61137  1  0  0  0
 62138  1  0  0  0
 62139  1  0  0  0
 62140  1  0  0  0
 63 65  1  0  0  0
 63141  1  0  0  0
 63142  1  0  0  0
 63143  1  0  0  0
 64144  1  0  0  0
 65145  1  0  0  0
 68 83  1  0  0  0
 71 72  2  0  0  0
 71 75  1  0  0  0
 71146  1  0  0  0
 72 73  1  0  0  0
 72 78  1  0  0  0
 73 74  2  0  0  0
 73 80  1  0  0  0
 74 79  1  0  0  0
 74 84  1  0  0  0
 75 84  2  0  0  0
 75 85  1  0  0  0
 76 77  1  0  0  0
 76 78  1  0  0  0
 76147  1  0  0  0
 76148  1  0  0  0
 77 78  1  0  0  0
 77149  1  0  0  0
 77150  1  0  0  0
 78151  1  0  0  0
 79152  1  0  0  0
 79153  1  0  0  0
 79154  1  0  0  0
 80 83  1  0  0  0
 80155  1  0  0  0
 80156  1  0  0  0
 81 82  1  0  0  0
 81 85  1  0  0  0
 81157  1  0  0  0
 81158  1  0  0  0
 82 86  1  0  0  0
 82159  1  0  0  0
 82160  1  0  0  0
 83161  1  0  0  0
 83162  1  0  0  0
 85163  1  0  0  0
 86164  1  0  0  0
M  ISO  4   1 100  68 101  83 101  86 100
M  END
> <chiral flag>
0

> <version>
0

> <s_m_source_file>
/data/baiqing/PycharmProjects/Reinvent-master-3.2/result/LINK_invent/BTK/process_docking_weight1_custom_sum_contain_oxygen_bond_distance_aromatic_linkinvent_7_9_3/rearranged_h_0135.sdf

> <i_m_source_file_index>
32

> <r_mmod_Potential_Energy-OPLS-2005>
-260.337036132812

> <r_mmod_Stretch_Energy-OPLS-2005>
38.131103515625

> <r_mmod_Bend_Energy-OPLS-2005>
113.558479309082

> <r_mmod_Torsional_Energy-OPLS-2005>
312.013427734375

> <r_mmod_Improper_Torsional_Energy-OPLS-2005>
30.1971073150635

> <r_mmod_Van_der_Waal_Energy-OPLS-2005>
142.670166015625

> <r_mmod_Electrostatic_Energy-OPLS-2005>
-686.140441894531

> <r_mmod_Solvation_Energy-OPLS-2005>
-235.198608398438

> <b_mmod_Minimization_Converged-OPLS-2005>
0

> <r_mmod_RMS_Derivative-OPLS-2005>
4.67563819885254

$$$$
32
                    3D
 Structure written by MMmdl.
165174  0  0  1  0            999 V2000
  -30.7191  -14.4294   20.5415 C   0  0  0  0  0  0
  -30.4166  -12.2621   19.4224 C   0  0  0  0  0  0
  -29.4885  -12.4690   18.2087 C   0  0  0  0  0  0
  -28.0080  -12.3595   18.6215 C   0  0  0  0  0  0
  -27.6649  -13.2048   19.8761 C   0  0  2  0  0  0
  -28.7072  -12.9742   20.9942 C   0  0  0  0  0  0
  -25.2606  -13.8163   20.5732 C   0  0  0  0  0  0
  -24.1836  -13.0461   20.9207 C   0  0  0  0  0  0
  -24.6382  -11.6922   20.8762 C   0  0  0  0  0  0
  -23.9063  -10.4297   21.0429 C   0  0  0  0  0  0
  -24.3615   -9.4210   21.9184 C   0  0  0  0  0  0
  -23.6286   -8.2247   22.0752 C   0  0  0  0  0  0
  -22.4246   -8.0295   21.3562 C   0  0  0  0  0  0
  -21.9907   -9.0270   20.4649 C   0  0  0  0  0  0
  -22.7247  -10.2141   20.3067 C   0  0  0  0  0  0
  -21.6850   -6.0714   22.5275 C   0  0  0  0  0  0
  -21.3997   -6.5628   23.8205 C   0  0  0  0  0  0
  -21.3664   -5.6795   24.9177 C   0  0  0  0  0  0
  -21.6042   -4.3051   24.7231 C   0  0  0  0  0  0
  -21.8840   -3.8142   23.4363 C   0  0  0  0  0  0
  -21.9216   -4.6945   22.3413 C   0  0  0  0  0  0
  -22.7864  -13.5294   21.1856 C   0  0  0  0  0  0
  -22.1693   -4.2132   21.0988 F   0  0  0  0  0  0
  -21.5635   -3.4550   25.7752 F   0  0  0  0  0  0
  -30.0426  -13.2557   20.4382 N   0  0  0  0  0  0
  -26.3049  -12.9346   20.3430 N   0  0  0  0  0  0
  -25.9316  -11.6514   20.5802 N   0  0  0  0  0  0
  -22.0459  -12.8298   22.0375 N   0  0  0  0  0  0
  -25.4370  -15.1866   20.4144 N   0  0  0  0  0  0
  -31.8644  -14.5785   20.1003 O   0  0  0  0  0  0
  -21.6649   -6.8870   21.4238 O   0  0  0  0  0  0
  -22.3573  -14.5619   20.6717 O   0  0  0  0  0  0
  -24.6113  -31.8730   23.2148 C   0  0  0  0  0  0
  -25.9016  -32.4855   23.8431 C   0  0  1  0  0  0
  -27.2231  -27.4678   20.0829 C   0  0  0  0  0  0
  -25.5891  -33.8660   24.2360 N   0  0  0  0  0  0
  -23.3969  -30.4966   21.5563 C   0  0  2  0  0  0
  -24.8415  -28.9670   20.1173 C   0  0  0  0  0  0
  -22.7396  -29.4679   22.5030 C   0  0  0  0  0  0
  -18.0274  -28.1362   22.8506 C   0  0  0  0  0  0
  -24.1484  -36.7330   23.2636 C   0  0  0  0  0  0
  -25.9231  -30.8435   21.3650 C   0  0  0  0  0  0
  -26.0000  -29.4774   20.7193 C   0  0  0  0  0  0
  -27.1971  -28.7301   20.7123 C   0  0  0  0  0  0
  -26.0596  -26.9710   19.4636 C   0  0  0  0  0  0
  -24.8637  -27.7091   19.4913 C   0  0  0  0  0  0
  -23.6021  -29.8303   20.1698 C   0  0  0  0  0  0
  -25.4107  -36.3143   24.0344 C   0  0  1  0  0  0
  -20.5861  -28.3648   23.1343 C   0  0  2  0  0  0
  -20.6763  -26.9390   22.5424 C   0  0  0  0  0  0
  -19.5742  -26.6383   21.5221 C   0  0  0  0  0  0
  -18.1923  -26.7915   22.1635 C   0  0  0  0  0  0
  -19.1522  -28.8823   23.2923 C   0  0  0  0  0  0
  -18.9444  -30.1434   23.8923 C   0  0  0  0  0  0
  -17.6443  -30.6576   24.0568 C   0  0  0  0  0  0
  -25.9026  -34.9498   23.5145 C   0  0  0  0  0  0
  -16.5338  -29.9074   23.6319 C   0  0  0  0  0  0
  -16.7261  -28.6486   23.0350 C   0  0  0  0  0  0
  -26.4452  -31.6619   25.0738 C   0  0  0  0  0  0
  -25.3722  -31.3724   26.1492 C   0  0  0  0  0  0
  -27.0260  -30.3067   24.6074 C   0  0  0  0  0  0
  -27.6050  -32.4320   25.7477 C   0  0  0  0  0  0
  -27.5587  -37.1817   24.8465 C   0  0  0  0  0  0
  -21.4126  -29.3025   22.3757 N   0  0  0  0  0  0
  -26.4303  -37.3814   23.9411 N   0  0  0  0  0  0
  -24.6618  -31.0848   22.1038 N   0  0  0  0  0  0
  -23.4189  -28.8220   23.3054 O   0  0  0  0  0  0
  -28.3591  -26.7064   20.0301 O   0  0  0  0  0  0
  -26.5584  -34.8935   22.4701 O   0  0  0  0  0  0
  -23.5306  -32.1476   23.7552 O   0  0  0  0  0  0
  -31.4261  -18.8071   20.2231 C   0  0  0  0  0  0
  -30.2702  -19.4271   19.7270 C   0  0  0  0  0  0
  -31.3338  -17.4768   20.6675 C   0  0  0  0  0  0
  -29.0703  -18.6973   19.7142 C   0  0  0  0  0  0
  -30.0982  -16.7957   20.6044 C   0  0  0  0  0  0
  -29.1636  -24.5688   20.6694 C   0  0  0  0  0  0
  -27.5472  -25.5161   22.1412 C   0  0  0  0  0  0
  -28.6966  -25.9296   21.1903 C   0  0  2  0  0  0
  -27.8642  -23.7571   20.5398 C   0  0  1  0  0  0
  -27.7792  -19.3340   19.2400 C   0  0  0  0  0  0
  -28.0937  -22.2263   20.5375 C   0  0  0  0  0  0
  -26.8198  -21.3656   20.3428 C   0  0  0  0  0  0
  -28.9822  -17.4282   20.1758 N   0  0  0  0  0  0
  -30.0015  -15.4510   21.0318 N   0  0  0  0  0  0
  -27.0020  -24.2351   21.6420 N   0  3  0  0  0  0
  -27.0821  -19.9086   20.4013 N   0  3  0  0  0  0
  -31.4607  -12.3422   19.1153 H   0  0  0  0  0  0
  -30.3037  -11.2536   19.8252 H   0  0  0  0  0  0
  -29.7080  -11.7270   17.4403 H   0  0  0  0  0  0
  -29.6835  -13.4441   17.7598 H   0  0  0  0  0  0
  -27.8029  -11.3059   18.8255 H   0  0  0  0  0  0
  -27.3570  -12.6369   17.7909 H   0  0  0  0  0  0
  -27.7107  -14.2515   19.5730 H   0  0  0  0  0  0
  -28.6661  -11.9366   21.3303 H   0  0  0  0  0  0
  -28.4823  -13.5771   21.8750 H   0  0  0  0  0  0
  -25.2752   -9.5697   22.4769 H   0  0  0  0  0  0
  -23.9994   -7.4636   22.7461 H   0  0  0  0  0  0
  -21.0860   -8.8833   19.8919 H   0  0  0  0  0  0
  -22.3724  -10.9703   19.6197 H   0  0  0  0  0  0
  -21.1933   -7.6124   23.9711 H   0  0  0  0  0  0
  -21.1459   -6.0502   25.9088 H   0  0  0  0  0  0
  -22.0599   -2.7593   23.2872 H   0  0  0  0  0  0
  -22.4083  -12.0014   22.4856 H   0  0  0  0  0  0
  -21.1051  -13.1302   22.2500 H   0  0  0  0  0  0
  -24.6687  -15.8427   20.5056 H   0  0  0  0  0  0
  -26.3106  -15.6206   20.1452 H   0  0  0  0  0  0
  -26.7090  -32.5581   23.1205 H   0  0  0  0  0  0
  -25.0060  -33.9837   25.0517 H   0  0  0  0  0  0
  -22.6831  -31.3123   21.4210 H   0  0  0  0  0  0
  -23.3742  -35.9665   23.3320 H   0  0  0  0  0  0
  -24.3581  -36.8914   22.2044 H   0  0  0  0  0  0
  -23.7230  -37.6546   23.6620 H   0  0  0  0  0  0
  -26.0241  -31.6056   20.5911 H   0  0  0  0  0  0
  -26.8160  -30.9063   21.9747 H   0  0  0  0  0  0
  -28.0933  -29.1213   21.1730 H   0  0  0  0  0  0
  -26.0770  -26.0194   18.9529 H   0  0  0  0  0  0
  -23.9753  -27.3174   19.0155 H   0  0  0  0  0  0
  -23.7026  -30.6055   19.4091 H   0  0  0  0  0  0
  -22.7265  -29.2474   19.8790 H   0  0  0  0  0  0
  -25.1273  -36.2028   25.0839 H   0  0  0  0  0  0
  -20.9958  -28.3205   24.1463 H   0  0  0  0  0  0
  -20.5695  -26.2254   23.3603 H   0  0  0  0  0  0
  -21.6639  -26.7456   22.1201 H   0  0  0  0  0  0
  -19.6910  -25.6307   21.1227 H   0  0  0  0  0  0
  -19.6680  -27.3218   20.6771 H   0  0  0  0  0  0
  -17.4203  -26.6680   21.4026 H   0  0  0  0  0  0
  -18.0318  -26.0042   22.9009 H   0  0  0  0  0  0
  -19.7916  -30.7247   24.2307 H   0  0  0  0  0  0
  -17.4994  -31.6258   24.5158 H   0  0  0  0  0  0
  -15.5338  -30.2982   23.7618 H   0  0  0  0  0  0
  -15.8666  -28.0807   22.7053 H   0  0  0  0  0  0
  -24.5879  -30.7093   25.7824 H   0  0  0  0  0  0
  -24.8926  -32.2879   26.4966 H   0  0  0  0  0  0
  -25.8074  -30.8868   27.0233 H   0  0  0  0  0  0
  -26.2786  -29.6866   24.1109 H   0  0  0  0  0  0
  -27.4019  -29.7274   25.4516 H   0  0  0  0  0  0
  -27.8632  -30.4401   23.9219 H   0  0  0  0  0  0
  -27.2693  -33.3598   26.2119 H   0  0  0  0  0  0
  -28.3814  -32.6920   25.0271 H   0  0  0  0  0  0
  -28.0769  -31.8406   26.5331 H   0  0  0  0  0  0
  -28.2618  -38.0097   24.7510 H   0  0  0  0  0  0
  -28.1064  -36.2636   24.6291 H   0  0  0  0  0  0
  -27.2307  -37.1472   25.8866 H   0  0  0  0  0  0
  -20.9285  -29.8742   21.6977 H   0  0  0  0  0  0
  -26.0205  -38.2900   24.1399 H   0  0  0  0  0  0
  -32.3670  -19.3375   20.2560 H   0  0  0  0  0  0
  -30.3161  -20.4437   19.3618 H   0  0  0  0  0  0
  -32.2259  -16.9857   21.0314 H   0  0  0  0  0  0
  -29.8209  -24.1071   21.4068 H   0  0  0  0  0  0
  -29.7185  -24.6399   19.7332 H   0  0  0  0  0  0
  -26.7724  -26.2672   22.2927 H   0  0  0  0  0  0
  -27.9672  -25.3181   23.1282 H   0  0  0  0  0  0
  -29.4899  -26.4469   21.7303 H   0  0  0  0  0  0
  -27.3771  -24.0466   19.6058 H   0  0  0  0  0  0
  -27.1434  -18.5799   18.7766 H   0  0  0  0  0  0
  -27.9861  -20.0811   18.4725 H   0  0  0  0  0  0
  -28.6149  -21.9250   21.4472 H   0  0  0  0  0  0
  -28.7800  -22.0201   19.7173 H   0  0  0  0  0  0
  -26.3230  -21.6158   19.4035 H   0  0  0  0  0  0
  -26.1039  -21.5923   21.1334 H   0  0  0  0  0  0
  -29.0898  -15.1766   21.3588 H   0  0  0  0  0  0
  -26.0584  -24.3663   21.3100 H   0  0  0  0  0  0
  -26.9816  -23.5750   22.4039 H   0  0  0  0  0  0
  -27.6231  -19.6674   21.2151 H   0  0  0  0  0  0
  -26.2056  -19.4211   20.4848 H   0  0  0  0  0  0
  1 25  1  0  0  0
  1 30  2  0  0  0
  1 84  1  0  0  0
  2  3  1  0  0  0
  2 25  1  0  0  0
  2 87  1  0  0  0
  2 88  1  0  0  0
  3  4  1  0  0  0
  3 89  1  0  0  0
  3 90  1  0  0  0
  4  5  1  0  0  0
  4 91  1  0  0  0
  4 92  1  0  0  0
  5  6  1  0  0  0
  5 26  1  0  0  0
  5 93  1  0  0  0
  6 25  1  0  0  0
  6 94  1  0  0  0
  6 95  1  0  0  0
  7  8  2  0  0  0
  7 26  1  0  0  0
  7 29  1  0  0  0
  8  9  1  0  0  0
  8 22  1  0  0  0
  9 10  1  0  0  0
  9 27  2  0  0  0
 10 11  2  0  0  0
 10 15  1  0  0  0
 11 12  1  0  0  0
 11 96  1  0  0  0
 12 13  2  0  0  0
 12 97  1  0  0  0
 13 14  1  0  0  0
 13 31  1  0  0  0
 14 15  2  0  0  0
 14 98  1  0  0  0
 15 99  1  0  0  0
 16 17  2  0  0  0
 16 21  1  0  0  0
 16 31  1  0  0  0
 17 18  1  0  0  0
 17100  1  0  0  0
 18 19  2  0  0  0
 18101  1  0  0  0
 19 20  1  0  0  0
 19 24  1  0  0  0
 20 21  2  0  0  0
 20102  1  0  0  0
 21 23  1  0  0  0
 22 28  1  0  0  0
 22 32  2  0  0  0
 26 27  1  0  0  0
 28103  1  0  0  0
 28104  1  0  0  0
 29105  1  0  0  0
 29106  1  0  0  0
 33 34  1  0  0  0
 33 66  1  0  0  0
 33 70  2  0  0  0
 34 36  1  0  0  0
 34 59  1  0  0  0
 34107  1  0  0  0
 35 44  2  0  0  0
 35 45  1  0  0  0
 35 68  1  0  0  0
 36 56  1  0  0  0
 36108  1  0  0  0
 37 39  1  0  0  0
 37 47  1  0  0  0
 37 66  1  0  0  0
 37109  1  0  0  0
 38 43  2  0  0  0
 38 46  1  0  0  0
 38 47  1  0  0  0
 39 64  1  0  0  0
 39 67  2  0  0  0
 40 52  1  0  0  0
 40 53  2  0  0  0
 40 58  1  0  0  0
 41110  1  0  0  0
 41111  1  0  0  0
 41112  1  0  0  0
 41 48  1  0  0  0
 42 43  1  0  0  0
 42 66  1  0  0  0
 42113  1  0  0  0
 42114  1  0  0  0
 43 44  1  0  0  0
 44115  1  0  0  0
 45 46  2  0  0  0
 45116  1  0  0  0
 46117  1  0  0  0
 47118  1  0  0  0
 47119  1  0  0  0
 48 56  1  0  0  0
 48 65  1  0  0  0
 48120  1  0  0  0
 49 50  1  0  0  0
 49 53  1  0  0  0
 49 64  1  0  0  0
 49121  1  0  0  0
 50 51  1  0  0  0
 50122  1  0  0  0
 50123  1  0  0  0
 51 52  1  0  0  0
 51124  1  0  0  0
 51125  1  0  0  0
 52126  1  0  0  0
 52127  1  0  0  0
 53 54  1  0  0  0
 54 55  2  0  0  0
 54128  1  0  0  0
 55 57  1  0  0  0
 55129  1  0  0  0
 56 69  2  0  0  0
 57 58  2  0  0  0
 57130  1  0  0  0
 58131  1  0  0  0
 59 60  1  0  0  0
 59 61  1  0  0  0
 59 62  1  0  0  0
 60132  1  0  0  0
 60133  1  0  0  0
 60134  1  0  0  0
 61135  1  0  0  0
 61136  1  0  0  0
 61137  1  0  0  0
 62138  1  0  0  0
 62139  1  0  0  0
 62140  1  0  0  0
 63 65  1  0  0  0
 63141  1  0  0  0
 63142  1  0  0  0
 63143  1  0  0  0
 64144  1  0  0  0
 65145  1  0  0  0
 68 78  1  0  0  0
 71 72  2  0  0  0
 71 73  1  0  0  0
 71146  1  0  0  0
 72 74  1  0  0  0
 72147  1  0  0  0
 73 75  2  0  0  0
 73148  1  0  0  0
 74 80  1  0  0  0
 74 83  2  0  0  0
 75 83  1  0  0  0
 75 84  1  0  0  0
 76 78  1  0  0  0
 76 79  1  0  0  0
 76149  1  0  0  0
 76150  1  0  0  0
 77 78  1  0  0  0
 77 85  1  0  0  0
 77151  1  0  0  0
 77152  1  0  0  0
 78153  1  0  0  0
 79 81  1  0  0  0
 79 85  1  0  0  0
 79154  1  0  0  0
 80 86  1  0  0  0
 80155  1  0  0  0
 80156  1  0  0  0
 81 82  1  0  0  0
 81157  1  0  0  0
 81158  1  0  0  0
 82 86  1  0  0  0
 82159  1  0  0  0
 82160  1  0  0  0
 84161  1  0  0  0
 85162  1  0  0  0
 85163  1  0  0  0
 86164  1  0  0  0
 86165  1  0  0  0
M  CHG  2  85   1  86   1
M  ISO  4   1 100  68 101  78 101  84 100
M  END
> <chiral flag>
0

> <version>
0

> <s_m_source_file>
/data/baiqing/PycharmProjects/Reinvent-master-3.2/result/LINK_invent/BTK/process_docking_weight1_custom_sum_contain_oxygen_bond_distance_aromatic_linkinvent_7_9_3/rearranged_h_0135.sdf

> <i_m_source_file_index>
33

> <r_mmod_Potential_Energy-OPLS-2005>
-518.444763183594

> <r_mmod_Stretch_Energy-OPLS-2005>
32.3128814697266

> <r_mmod_Bend_Energy-OPLS-2005>
125.839668273926

> <r_mmod_Torsional_Energy-OPLS-2005>
329.376892089844

> <r_mmod_Improper_Torsional_Energy-OPLS-2005>
5.38544416427612

> <r_mmod_Van_der_Waal_Energy-OPLS-2005>
145.462677001953

> <r_mmod_Electrostatic_Energy-OPLS-2005>
-167.977142333984

> <r_mmod_Solvation_Energy-OPLS-2005>
-1000.58941650391

> <b_mmod_Minimization_Converged-OPLS-2005>
0

> <r_mmod_RMS_Derivative-OPLS-2005>
2.96552920341492

$$$$
33
                    3D
 Structure written by MMmdl.
163172  0  0  1  0            999 V2000
  -30.4448  -15.1586   20.3853 C   0  0  0  0  0  0
  -30.4414  -12.7341   19.5093 C   0  0  0  0  0  0
  -29.5265  -12.5437   18.2734 C   0  0  0  0  0  0
  -28.0687  -12.2925   18.7007 C   0  0  0  0  0  0
  -27.6146  -13.2559   19.8256 C   0  0  2  0  0  0
  -28.6531  -13.3720   20.9591 C   0  0  0  0  0  0
  -25.2417  -13.8150   20.5734 C   0  0  0  0  0  0
  -24.1739  -13.0390   20.9252 C   0  0  0  0  0  0
  -24.6370  -11.6886   20.8755 C   0  0  0  0  0  0
  -23.9055  -10.4264   21.0409 C   0  0  0  0  0  0
  -24.3609   -9.4183   21.9185 C   0  0  0  0  0  0
  -23.6287   -8.2217   22.0747 C   0  0  0  0  0  0
  -22.4268   -8.0258   21.3539 C   0  0  0  0  0  0
  -21.9905   -9.0226   20.4638 C   0  0  0  0  0  0
  -22.7231  -10.2106   20.3051 C   0  0  0  0  0  0
  -21.6850   -6.0719   22.5277 C   0  0  0  0  0  0
  -21.4012   -6.5627   23.8205 C   0  0  0  0  0  0
  -21.3656   -5.6784   24.9173 C   0  0  0  0  0  0
  -21.6050   -4.3048   24.7229 C   0  0  0  0  0  0
  -21.8822   -3.8133   23.4352 C   0  0  0  0  0  0
  -21.9195   -4.6947   22.3404 C   0  0  0  0  0  0
  -22.7770  -13.5183   21.1915 C   0  0  0  0  0  0
  -22.1662   -4.2135   21.0982 F   0  0  0  0  0  0
  -21.5633   -3.4530   25.7740 F   0  0  0  0  0  0
  -29.8917  -13.8598   20.3371 N   0  0  0  0  0  0
  -26.2822  -12.9404   20.3212 N   0  0  0  0  0  0
  -25.9302  -11.6533   20.5716 N   0  0  0  0  0  0
  -22.0427  -12.8145   22.0453 N   0  0  0  0  0  0
  -25.4145  -15.1835   20.4176 N   0  0  0  0  0  0
  -31.6644  -15.1989   20.1770 O   0  0  0  0  0  0
  -21.6635   -6.8853   21.4234 O   0  0  0  0  0  0
  -22.3451  -14.5495   20.6777 O   0  0  0  0  0  0
  -24.6537  -31.8327   23.1717 C   0  0  0  0  0  0
  -25.9249  -32.4646   23.8168 C   0  0  1  0  0  0
  -27.2250  -27.0148   20.1767 C   0  0  0  0  0  0
  -25.5956  -33.8454   24.2117 N   0  0  0  0  0  0
  -23.4620  -30.4432   21.5207 C   0  0  2  0  0  0
  -24.9110  -28.8320   20.1148 C   0  0  0  0  0  0
  -22.7625  -29.4484   22.4836 C   0  0  0  0  0  0
  -18.0324  -28.1436   22.8489 C   0  0  0  0  0  0
  -24.1471  -36.7197   23.2647 C   0  0  0  0  0  0
  -26.0232  -30.6683   21.3833 C   0  0  0  0  0  0
  -26.0905  -29.2634   20.7326 C   0  0  0  0  0  0
  -27.2426  -28.3752   20.7319 C   0  0  0  0  0  0
  -26.0143  -26.6975   19.5271 C   0  0  0  0  0  0
  -24.8917  -27.5698   19.4942 C   0  0  0  0  0  0
  -23.6923  -29.7517   20.1479 C   0  0  0  0  0  0
  -25.4128  -36.3004   24.0315 C   0  0  1  0  0  0
  -20.5939  -28.3753   23.1240 C   0  0  2  0  0  0
  -20.6803  -26.9449   22.5427 C   0  0  0  0  0  0
  -19.5767  -26.6425   21.5243 C   0  0  0  0  0  0
  -18.1957  -26.7978   22.1648 C   0  0  0  0  0  0
  -19.1588  -28.8917   23.2851 C   0  0  0  0  0  0
  -18.9496  -30.1514   23.8889 C   0  0  0  0  0  0
  -17.6490  -30.6623   24.0582 C   0  0  0  0  0  0
  -25.9091  -34.9385   23.5038 C   0  0  0  0  0  0
  -16.5379  -29.9127   23.6361 C   0  0  0  0  0  0
  -16.7313  -28.6540   23.0381 C   0  0  0  0  0  0
  -26.4537  -31.6555   25.0652 C   0  0  0  0  0  0
  -25.3678  -31.3788   26.1325 C   0  0  0  0  0  0
  -27.0400  -30.2936   24.6281 C   0  0  0  0  0  0
  -27.6062  -32.4326   25.7439 C   0  0  0  0  0  0
  -27.5574  -37.1762   24.8478 C   0  0  0  0  0  0
  -21.4317  -29.3039   22.3573 N   0  0  0  0  0  0
  -26.4270  -37.3746   23.9432 N   0  0  0  0  0  0
  -24.7336  -31.0076   22.0796 N   0  0  0  0  0  0
  -23.4220  -28.8113   23.3081 O   0  0  0  0  0  0
  -28.3250  -26.0460   20.2358 O   0  0  0  0  0  0
  -26.5698  -34.8900   22.4631 O   0  0  0  0  0  0
  -23.5636  -32.1250   23.6888 O   0  0  0  0  0  0
  -24.8219  -18.2068   21.8092 C   0  0  0  0  0  0
  -24.9758  -18.3657   20.4189 C   0  0  0  0  0  0
  -25.9332  -18.3599   22.6603 C   0  0  0  0  0  0
  -26.2390  -18.6820   19.8796 C   0  0  0  0  0  0
  -27.1968  -18.6773   22.1215 C   0  0  0  0  0  0
  -27.3569  -18.8526   20.7288 C   0  0  0  0  0  0
  -27.8024  -23.3576   21.2504 C   0  0  0  0  0  0
  -28.7066  -23.4338   19.0153 C   0  0  0  0  0  0
  -28.4257  -21.8272   21.4459 C   0  0  0  0  0  0
  -29.3406  -21.9064   19.2105 C   0  0  0  0  0  0
  -28.4875  -24.4274   20.2666 C   0  0  1  0  0  0
  -29.8768  -18.0141   20.4918 C   0  0  0  0  0  0
  -28.7044  -19.2837   20.1580 C   0  0  2  0  0  0
  -29.6421  -16.3800   20.4677 N   0  0  0  0  0  0
  -28.6939  -20.9459   20.2148 N   0  3  1  0  0  0
  -31.4597  -12.9402   19.1773 H   0  0  0  0  0  0
  -30.5020  -11.8140   20.0934 H   0  0  0  0  0  0
  -29.8833  -11.7135   17.6615 H   0  0  0  0  0  0
  -29.5728  -13.4318   17.6424 H   0  0  0  0  0  0
  -28.0047  -11.2632   19.0554 H   0  0  0  0  0  0
  -27.4002  -12.3598   17.8425 H   0  0  0  0  0  0
  -27.5469  -14.2346   19.3497 H   0  0  0  0  0  0
  -28.8007  -12.4147   21.4602 H   0  0  0  0  0  0
  -28.3139  -14.0726   21.7230 H   0  0  0  0  0  0
  -25.2753   -9.5659   22.4763 H   0  0  0  0  0  0
  -23.9997   -7.4604   22.7461 H   0  0  0  0  0  0
  -21.0841   -8.8737   19.8939 H   0  0  0  0  0  0
  -22.3687  -10.9641   19.6156 H   0  0  0  0  0  0
  -21.1997   -7.6133   23.9704 H   0  0  0  0  0  0
  -21.1478   -6.0514   25.9074 H   0  0  0  0  0  0
  -22.0607   -2.7595   23.2857 H   0  0  0  0  0  0
  -22.4048  -11.9782   22.4797 H   0  0  0  0  0  0
  -21.1036  -13.1137   22.2678 H   0  0  0  0  0  0
  -24.6803  -15.8538   20.6126 H   0  0  0  0  0  0
  -26.2713  -15.6278   20.1213 H   0  0  0  0  0  0
  -26.7321  -32.5216   23.0890 H   0  0  0  0  0  0
  -25.0068  -33.9543   25.0234 H   0  0  0  0  0  0
  -22.7707  -31.2712   21.3543 H   0  0  0  0  0  0
  -23.3771  -35.9486   23.3307 H   0  0  0  0  0  0
  -24.3554  -36.8841   22.2064 H   0  0  0  0  0  0
  -23.7168  -37.6367   23.6678 H   0  0  0  0  0  0
  -26.1929  -31.4138   20.6048 H   0  0  0  0  0  0
  -26.8877  -30.7261   22.0332 H   0  0  0  0  0  0
  -28.1447  -28.7135   21.2218 H   0  0  0  0  0  0
  -25.9166  -25.7282   19.0589 H   0  0  0  0  0  0
  -23.9881  -27.2395   18.9990 H   0  0  0  0  0  0
  -23.8368  -30.5134   19.3803 H   0  0  0  0  0  0
  -22.8018  -29.1979   19.8443 H   0  0  0  0  0  0
  -25.1318  -36.1823   25.0810 H   0  0  0  0  0  0
  -21.0047  -28.3359   24.1349 H   0  0  0  0  0  0
  -20.5724  -26.2376   23.3657 H   0  0  0  0  0  0
  -21.6671  -26.7477   22.1206 H   0  0  0  0  0  0
  -19.6909  -25.6340   21.1284 H   0  0  0  0  0  0
  -19.6695  -27.3239   20.6768 H   0  0  0  0  0  0
  -17.4234  -26.6773   21.4029 H   0  0  0  0  0  0
  -18.0303  -26.0128   22.9039 H   0  0  0  0  0  0
  -19.7966  -30.7346   24.2261 H   0  0  0  0  0  0
  -17.5041  -31.6304   24.5189 H   0  0  0  0  0  0
  -15.5379  -30.3029   23.7673 H   0  0  0  0  0  0
  -15.8716  -28.0850   22.7114 H   0  0  0  0  0  0
  -24.5899  -30.7075   25.7672 H   0  0  0  0  0  0
  -24.8788  -32.2967   26.4588 H   0  0  0  0  0  0
  -25.7940  -30.9102   27.0202 H   0  0  0  0  0  0
  -26.3007  -29.6660   24.1290 H   0  0  0  0  0  0
  -27.3996  -29.7269   25.4886 H   0  0  0  0  0  0
  -27.8940  -30.4182   23.9617 H   0  0  0  0  0  0
  -27.2687  -33.3707   26.1867 H   0  0  0  0  0  0
  -28.3946  -32.6777   25.0296 H   0  0  0  0  0  0
  -28.0619  -31.8515   26.5465 H   0  0  0  0  0  0
  -28.2614  -38.0050   24.7570 H   0  0  0  0  0  0
  -28.1064  -36.2597   24.6265 H   0  0  0  0  0  0
  -27.2300  -37.1368   25.8883 H   0  0  0  0  0  0
  -20.9574  -29.8679   21.6658 H   0  0  0  0  0  0
  -26.0138  -38.2805   24.1457 H   0  0  0  0  0  0
  -23.8531  -17.9588   22.2206 H   0  0  0  0  0  0
  -24.1250  -18.2369   19.7637 H   0  0  0  0  0  0
  -25.8139  -18.2431   23.7289 H   0  0  0  0  0  0
  -26.3347  -18.8006   18.8077 H   0  0  0  0  0  0
  -28.0356  -18.8119   22.7907 H   0  0  0  0  0  0
  -27.7517  -23.8165   22.2386 H   0  0  0  0  0  0
  -26.7607  -23.2586   20.9452 H   0  0  0  0  0  0
  -27.7486  -23.3373   18.5033 H   0  0  0  0  0  0
  -29.3440  -23.9549   18.2998 H   0  0  0  0  0  0
  -27.7535  -21.2948   22.1163 H   0  0  0  0  0  0
  -29.3641  -21.9069   21.9932 H   0  0  0  0  0  0
  -30.3900  -22.0039   19.4933 H   0  0  0  0  0  0
  -29.3487  -21.4127   18.2368 H   0  0  0  0  0  0
  -29.5008  -24.4537   20.6714 H   0  0  0  0  0  0
  -30.2294  -18.2017   21.5062 H   0  0  0  0  0  0
  -30.7475  -18.2092   19.8651 H   0  0  0  0  0  0
  -28.5928  -19.1495   19.0804 H   0  0  0  0  0  0
  -28.6639  -16.1528   20.5659 H   0  0  0  0  0  0
  -27.7599  -20.9796   19.8360 H   0  0  0  0  0  0
  1 25  1  0  0  0
  1 30  2  0  0  0
  1 84  1  0  0  0
  2  3  1  0  0  0
  2 25  1  0  0  0
  2 86  1  0  0  0
  2 87  1  0  0  0
  3  4  1  0  0  0
  3 88  1  0  0  0
  3 89  1  0  0  0
  4  5  1  0  0  0
  4 90  1  0  0  0
  4 91  1  0  0  0
  5  6  1  0  0  0
  5 26  1  0  0  0
  5 92  1  0  0  0
  6 25  1  0  0  0
  6 93  1  0  0  0
  6 94  1  0  0  0
  7  8  2  0  0  0
  7 26  1  0  0  0
  7 29  1  0  0  0
  8  9  1  0  0  0
  8 22  1  0  0  0
  9 10  1  0  0  0
  9 27  2  0  0  0
 10 11  2  0  0  0
 10 15  1  0  0  0
 11 12  1  0  0  0
 11 95  1  0  0  0
 12 13  2  0  0  0
 12 96  1  0  0  0
 13 14  1  0  0  0
 13 31  1  0  0  0
 14 15  2  0  0  0
 14 97  1  0  0  0
 15 98  1  0  0  0
 16 17  2  0  0  0
 16 21  1  0  0  0
 16 31  1  0  0  0
 17 18  1  0  0  0
 17 99  1  0  0  0
 18 19  2  0  0  0
 18100  1  0  0  0
 19 20  1  0  0  0
 19 24  1  0  0  0
 20 21  2  0  0  0
 20101  1  0  0  0
 21 23  1  0  0  0
 22 28  1  0  0  0
 22 32  2  0  0  0
 26 27  1  0  0  0
 28102  1  0  0  0
 28103  1  0  0  0
 29104  1  0  0  0
 29105  1  0  0  0
 33 34  1  0  0  0
 33 66  1  0  0  0
 33 70  2  0  0  0
 34 36  1  0  0  0
 34 59  1  0  0  0
 34106  1  0  0  0
 35 44  2  0  0  0
 35 45  1  0  0  0
 35 68  1  0  0  0
 36 56  1  0  0  0
 36107  1  0  0  0
 37 39  1  0  0  0
 37 47  1  0  0  0
 37 66  1  0  0  0
 37108  1  0  0  0
 38 43  2  0  0  0
 38 46  1  0  0  0
 38 47  1  0  0  0
 39 64  1  0  0  0
 39 67  2  0  0  0
 40 52  1  0  0  0
 40 53  2  0  0  0
 40 58  1  0  0  0
 41109  1  0  0  0
 41110  1  0  0  0
 41111  1  0  0  0
 41 48  1  0  0  0
 42 43  1  0  0  0
 42 66  1  0  0  0
 42112  1  0  0  0
 42113  1  0  0  0
 43 44  1  0  0  0
 44114  1  0  0  0
 45 46  2  0  0  0
 45115  1  0  0  0
 46116  1  0  0  0
 47117  1  0  0  0
 47118  1  0  0  0
 48 56  1  0  0  0
 48 65  1  0  0  0
 48119  1  0  0  0
 49 50  1  0  0  0
 49 53  1  0  0  0
 49 64  1  0  0  0
 49120  1  0  0  0
 50 51  1  0  0  0
 50121  1  0  0  0
 50122  1  0  0  0
 51 52  1  0  0  0
 51123  1  0  0  0
 51124  1  0  0  0
 52125  1  0  0  0
 52126  1  0  0  0
 53 54  1  0  0  0
 54 55  2  0  0  0
 54127  1  0  0  0
 55 57  1  0  0  0
 55128  1  0  0  0
 56 69  2  0  0  0
 57 58  2  0  0  0
 57129  1  0  0  0
 58130  1  0  0  0
 59 60  1  0  0  0
 59 61  1  0  0  0
 59 62  1  0  0  0
 60131  1  0  0  0
 60132  1  0  0  0
 60133  1  0  0  0
 61134  1  0  0  0
 61135  1  0  0  0
 61136  1  0  0  0
 62137  1  0  0  0
 62138  1  0  0  0
 62139  1  0  0  0
 63 65  1  0  0  0
 63140  1  0  0  0
 63141  1  0  0  0
 63142  1  0  0  0
 64143  1  0  0  0
 65144  1  0  0  0
 68 81  1  0  0  0
 71 72  2  0  0  0
 71 73  1  0  0  0
 71145  1  0  0  0
 72 74  1  0  0  0
 72146  1  0  0  0
 73 75  2  0  0  0
 73147  1  0  0  0
 74 76  2  0  0  0
 74148  1  0  0  0
 75 76  1  0  0  0
 75149  1  0  0  0
 76 83  1  0  0  0
 77 79  1  0  0  0
 77 81  1  0  0  0
 77150  1  0  0  0
 77151  1  0  0  0
 78 80  1  0  0  0
 78 81  1  0  0  0
 78152  1  0  0  0
 78153  1  0  0  0
 79154  1  0  0  0
 79155  1  0  0  0
 79 85  1  0  0  0
 80 85  1  0  0  0
 80156  1  0  0  0
 80157  1  0  0  0
 81158  1  0  0  0
 82 84  1  0  0  0
 82159  1  0  0  0
 82160  1  0  0  0
 82 83  1  0  0  0
 83 85  1  0  0  0
 83161  1  0  0  0
 84162  1  0  0  0
 85163  1  0  0  0
M  CHG  1  85   1
M  ISO  4   1 100  68 101  81 101  84 100
M  END
> <chiral flag>
0

> <version>
0

> <s_m_source_file>
/data/baiqing/PycharmProjects/Reinvent-master-3.2/result/LINK_invent/BTK/process_docking_weight1_custom_sum_contain_oxygen_bond_distance_aromatic_linkinvent_7_9_3/rearranged_h_0135.sdf

> <i_m_source_file_index>
34

> <r_mmod_Potential_Energy-OPLS-2005>
868.99658203125

> <r_mmod_Stretch_Energy-OPLS-2005>
427.140289306641

> <r_mmod_Bend_Energy-OPLS-2005>
512.254760742188

> <r_mmod_Torsional_Energy-OPLS-2005>
241.498489379883

> <r_mmod_Improper_Torsional_Energy-OPLS-2005>
3.76721262931824

> <r_mmod_Van_der_Waal_Energy-OPLS-2005>
115.607933044434

> <r_mmod_Electrostatic_Energy-OPLS-2005>
-306.223175048828

> <r_mmod_Solvation_Energy-OPLS-2005>
-460.139984130859

> <b_mmod_Minimization_Converged-OPLS-2005>
0

> <r_mmod_RMS_Derivative-OPLS-2005>
2.84062695503235

$$$$
34
                    3D
 Structure written by MMmdl.
172181  0  0  1  0            999 V2000
  -30.7177  -14.4573   20.5104 C   0  0  0  0  0  0
  -30.4259  -12.2806   19.4213 C   0  0  0  0  0  0
  -29.4997  -12.4754   18.2021 C   0  0  0  0  0  0
  -28.0178  -12.3557   18.6196 C   0  0  0  0  0  0
  -27.6639  -13.2078   19.8711 C   0  0  2  0  0  0
  -28.7119  -12.9990   20.9881 C   0  0  0  0  0  0
  -25.2611  -13.8183   20.5680 C   0  0  0  0  0  0
  -24.1843  -13.0459   20.9150 C   0  0  0  0  0  0
  -24.6407  -11.6930   20.8741 C   0  0  0  0  0  0
  -23.9094  -10.4304   21.0418 C   0  0  0  0  0  0
  -24.3630   -9.4211   21.9201 C   0  0  0  0  0  0
  -23.6292   -8.2253   22.0775 C   0  0  0  0  0  0
  -22.4268   -8.0313   21.3574 C   0  0  0  0  0  0
  -21.9926   -9.0289   20.4665 C   0  0  0  0  0  0
  -22.7273  -10.2152   20.3066 C   0  0  0  0  0  0
  -21.6848   -6.0763   22.5303 C   0  0  0  0  0  0
  -21.4015   -6.5648   23.8245 C   0  0  0  0  0  0
  -21.3642   -5.6787   24.9201 C   0  0  0  0  0  0
  -21.6039   -4.3047   24.7241 C   0  0  0  0  0  0
  -21.8811   -3.8161   23.4352 C   0  0  0  0  0  0
  -21.9180   -4.6986   22.3413 C   0  0  0  0  0  0
  -22.7848  -13.5263   21.1811 C   0  0  0  0  0  0
  -22.1627   -4.2192   21.0975 F   0  0  0  0  0  0
  -21.5633   -3.4496   25.7731 F   0  0  0  0  0  0
  -30.0365  -13.2857   20.4199 N   0  0  0  0  0  0
  -26.3049  -12.9355   20.3369 N   0  0  0  0  0  0
  -25.9331  -11.6516   20.5774 N   0  0  0  0  0  0
  -22.0443  -12.8277   22.0335 N   0  0  0  0  0  0
  -25.4372  -15.1898   20.4128 N   0  0  0  0  0  0
  -31.8742  -14.5991   20.1229 O   0  0  0  0  0  0
  -21.6647   -6.8896   21.4265 O   0  0  0  0  0  0
  -22.3576  -14.5626   20.6736 O   0  0  0  0  0  0
  -24.6157  -31.8686   23.2113 C   0  0  0  0  0  0
  -25.9069  -32.4815   23.8396 C   0  0  1  0  0  0
  -27.2228  -27.4221   20.0992 C   0  0  0  0  0  0
  -25.5947  -33.8618   24.2328 N   0  0  0  0  0  0
  -23.4023  -30.4952   21.5518 C   0  0  2  0  0  0
  -24.8454  -28.9704   20.1073 C   0  0  0  0  0  0
  -22.7420  -29.4674   22.4996 C   0  0  0  0  0  0
  -18.0274  -28.1391   22.8480 C   0  0  0  0  0  0
  -24.1498  -36.7295   23.2634 C   0  0  0  0  0  0
  -25.9346  -30.8323   21.3665 C   0  0  0  0  0  0
  -26.0080  -29.4700   20.7072 C   0  0  0  0  0  0
  -27.1993  -28.7047   20.6971 C   0  0  0  0  0  0
  -26.0452  -26.9594   19.4651 C   0  0  0  0  0  0
  -24.8614  -27.7153   19.4800 C   0  0  0  0  0  0
  -23.6067  -29.8336   20.1643 C   0  0  0  0  0  0
  -25.4125  -36.3098   24.0321 C   0  0  1  0  0  0
  -20.5872  -28.3671   23.1315 C   0  0  2  0  0  0
  -20.6788  -26.9411   22.5410 C   0  0  0  0  0  0
  -19.5770  -26.6394   21.5216 C   0  0  0  0  0  0
  -18.1932  -26.7940   22.1604 C   0  0  0  0  0  0
  -19.1526  -28.8852   23.2887 C   0  0  0  0  0  0
  -18.9451  -30.1464   23.8890 C   0  0  0  0  0  0
  -17.6459  -30.6589   24.0569 C   0  0  0  0  0  0
  -25.9053  -34.9464   23.5110 C   0  0  0  0  0  0
  -16.5346  -29.9084   23.6349 C   0  0  0  0  0  0
  -16.7268  -28.6510   23.0346 C   0  0  0  0  0  0
  -26.4500  -31.6590   25.0723 C   0  0  0  0  0  0
  -25.3752  -31.3674   26.1458 C   0  0  0  0  0  0
  -27.0353  -30.3034   24.6107 C   0  0  0  0  0  0
  -27.6083  -32.4302   25.7481 C   0  0  0  0  0  0
  -27.5585  -37.1806   24.8470 C   0  0  0  0  0  0
  -21.4152  -29.3025   22.3714 N   0  0  0  0  0  0
  -26.4309  -37.3780   23.9402 N   0  0  0  0  0  0
  -24.6683  -31.0810   22.0994 N   0  0  0  0  0  0
  -23.4191  -28.8212   23.3037 O   0  0  0  0  0  0
  -28.3724  -26.6497   20.1589 O   0  0  0  0  0  0
  -26.5594  -34.8905   22.4655 O   0  0  0  0  0  0
  -23.5356  -32.1453   23.7514 O   0  0  0  0  0  0
  -28.3096  -23.0066   19.0211 C   0  0  0  0  0  0
  -28.5728  -23.0765   21.5582 C   0  0  0  0  0  0
  -28.6396  -24.5138   18.9636 C   0  0  0  0  0  0
  -28.9392  -24.5809   21.4341 C   0  0  0  0  0  0
  -27.1740  -18.5884   23.2790 C   0  0  0  0  0  0
  -26.6481  -20.5642   23.1395 C   0  0  0  0  0  0
  -27.2676  -19.5977   22.1239 C   0  0  0  0  0  0
  -28.8650  -22.2569   20.2669 C   0  0  1  0  0  0
  -28.1911  -25.2188   20.2519 C   0  0  1  0  0  0
  -29.9416  -17.6835   21.8533 C   0  0  0  0  0  0
  -29.2396  -18.6130   20.8198 C   0  0  0  0  0  0
  -29.5210  -16.1917   21.8185 C   0  0  0  0  0  0
  -28.5915  -19.9192   21.3858 C   0  0  1  0  0  0
  -29.9559  -15.5581   20.5796 N   0  0  0  0  0  0
  -26.0932  -19.3991   23.8280 N   0  3  0  0  0  0
  -28.2913  -20.8741   20.2744 N   0  3  0  0  0  0
  -31.4734  -12.3643   19.1285 H   0  0  0  0  0  0
  -30.3135  -11.2765   19.8337 H   0  0  0  0  0  0
  -29.7377  -11.7352   17.4371 H   0  0  0  0  0  0
  -29.6777  -13.4526   17.7508 H   0  0  0  0  0  0
  -27.8266  -11.3012   18.8242 H   0  0  0  0  0  0
  -27.3719  -12.6257   17.7836 H   0  0  0  0  0  0
  -27.7005  -14.2528   19.5643 H   0  0  0  0  0  0
  -28.6782  -11.9656   21.3366 H   0  0  0  0  0  0
  -28.5065  -13.6206   21.8591 H   0  0  0  0  0  0
  -25.2761   -9.5637   22.4797 H   0  0  0  0  0  0
  -23.9961   -7.4626   22.7487 H   0  0  0  0  0  0
  -21.0866   -8.8829   19.8968 H   0  0  0  0  0  0
  -22.3762  -10.9702   19.6157 H   0  0  0  0  0  0
  -21.2020   -7.6145   23.9774 H   0  0  0  0  0  0
  -21.1454   -6.0503   25.9110 H   0  0  0  0  0  0
  -22.0608   -2.7640   23.2840 H   0  0  0  0  0  0
  -22.3883  -11.9803   22.4618 H   0  0  0  0  0  0
  -21.1108  -13.1443   22.2539 H   0  0  0  0  0  0
  -24.6660  -15.8426   20.4970 H   0  0  0  0  0  0
  -26.2958  -15.6194   20.0897 H   0  0  0  0  0  0
  -26.7129  -32.5518   23.1151 H   0  0  0  0  0  0
  -25.0205  -33.9788   25.0548 H   0  0  0  0  0  0
  -22.6899  -31.3109   21.4152 H   0  0  0  0  0  0
  -23.3757  -35.9630   23.3324 H   0  0  0  0  0  0
  -24.3604  -36.8896   22.2048 H   0  0  0  0  0  0
  -23.7255  -37.6502   23.6643 H   0  0  0  0  0  0
  -26.0555  -31.6034   20.6036 H   0  0  0  0  0  0
  -26.8207  -30.8763   21.9880 H   0  0  0  0  0  0
  -28.0930  -29.0828   21.1730 H   0  0  0  0  0  0
  -26.0188  -26.0087   18.9546 H   0  0  0  0  0  0
  -23.9711  -27.3270   19.0029 H   0  0  0  0  0  0
  -23.7059  -30.6110   19.4057 H   0  0  0  0  0  0
  -22.7306  -29.2500   19.8744 H   0  0  0  0  0  0
  -25.1298  -36.1962   25.0812 H   0  0  0  0  0  0
  -20.9943  -28.3235   24.1449 H   0  0  0  0  0  0
  -20.5755  -26.2254   23.3580 H   0  0  0  0  0  0
  -21.6645  -26.7511   22.1163 H   0  0  0  0  0  0
  -19.6938  -25.6312   21.1235 H   0  0  0  0  0  0
  -19.6726  -27.3210   20.6759 H   0  0  0  0  0  0
  -17.4215  -26.6704   21.3984 H   0  0  0  0  0  0
  -18.0304  -26.0087   22.9002 H   0  0  0  0  0  0
  -19.7928  -30.7284   24.2231 H   0  0  0  0  0  0
  -17.5012  -31.6270   24.5164 H   0  0  0  0  0  0
  -15.5342  -30.2977   23.7703 H   0  0  0  0  0  0
  -15.8666  -28.0843   22.7058 H   0  0  0  0  0  0
  -24.5955  -30.6990   25.7792 H   0  0  0  0  0  0
  -24.8897  -32.2809   26.4898 H   0  0  0  0  0  0
  -25.8104  -30.8861   27.0225 H   0  0  0  0  0  0
  -26.2910  -29.6755   24.1191 H   0  0  0  0  0  0
  -27.4179  -29.7307   25.4571 H   0  0  0  0  0  0
  -27.8707  -30.4375   23.9224 H   0  0  0  0  0  0
  -27.2742  -33.3629   26.2034 H   0  0  0  0  0  0
  -28.3903  -32.6819   25.0301 H   0  0  0  0  0  0
  -28.0724  -31.8426   26.5415 H   0  0  0  0  0  0
  -28.2599  -38.0105   24.7533 H   0  0  0  0  0  0
  -28.1080  -36.2644   24.6282 H   0  0  0  0  0  0
  -27.2296  -37.1433   25.8869 H   0  0  0  0  0  0
  -20.9309  -29.8706   21.6903 H   0  0  0  0  0  0
  -26.0189  -38.2845   24.1420 H   0  0  0  0  0  0
  -28.6729  -22.5319   18.1089 H   0  0  0  0  0  0
  -27.2225  -22.9123   18.9962 H   0  0  0  0  0  0
  -27.5129  -23.0036   21.8049 H   0  0  0  0  0  0
  -29.1151  -22.6547   22.4050 H   0  0  0  0  0  0
  -28.1443  -24.9597   18.1008 H   0  0  0  0  0  0
  -29.7091  -24.6594   18.8114 H   0  0  0  0  0  0
  -30.0149  -24.7014   21.3039 H   0  0  0  0  0  0
  -28.6783  -25.0957   22.3595 H   0  0  0  0  0  0
  -28.0285  -18.5844   23.9559 H   0  0  0  0  0  0
  -26.8714  -17.5775   22.9978 H   0  0  0  0  0  0
  -25.8940  -21.2420   22.7374 H   0  0  0  0  0  0
  -27.3825  -21.0944   23.7487 H   0  0  0  0  0  0
  -26.5017  -19.3149   21.3957 H   0  0  0  0  0  0
  -29.9482  -22.1727   20.1599 H   0  0  0  0  0  0
  -27.1474  -24.9709   20.4447 H   0  0  0  0  0  0
  -29.8041  -18.0561   22.8652 H   0  0  0  0  0  0
  -31.0226  -17.7481   21.7116 H   0  0  0  0  0  0
  -28.4820  -18.0438   20.2792 H   0  0  0  0  0  0
  -29.9836  -18.8795   20.0674 H   0  0  0  0  0  0
  -28.4399  -16.0877   21.9063 H   0  0  0  0  0  0
  -29.9483  -15.6716   22.6788 H   0  0  0  0  0  0
  -29.3033  -20.3833   22.0696 H   0  0  0  0  0  0
  -30.3238  -16.2547   19.9495 H   0  0  0  0  0  0
  -26.0922  -19.4619   24.8336 H   0  0  0  0  0  0
  -25.1921  -19.1258   23.4698 H   0  0  0  0  0  0
  -28.5925  -20.4336   19.4195 H   0  0  0  0  0  0
  -27.2905  -20.9568   20.1993 H   0  0  0  0  0  0
  1 25  1  0  0  0
  1 30  2  0  0  0
  1 84  1  0  0  0
  2  3  1  0  0  0
  2 25  1  0  0  0
  2 87  1  0  0  0
  2 88  1  0  0  0
  3  4  1  0  0  0
  3 89  1  0  0  0
  3 90  1  0  0  0
  4  5  1  0  0  0
  4 91  1  0  0  0
  4 92  1  0  0  0
  5  6  1  0  0  0
  5 26  1  0  0  0
  5 93  1  0  0  0
  6 25  1  0  0  0
  6 94  1  0  0  0
  6 95  1  0  0  0
  7  8  2  0  0  0
  7 26  1  0  0  0
  7 29  1  0  0  0
  8  9  1  0  0  0
  8 22  1  0  0  0
  9 10  1  0  0  0
  9 27  2  0  0  0
 10 11  2  0  0  0
 10 15  1  0  0  0
 11 12  1  0  0  0
 11 96  1  0  0  0
 12 13  2  0  0  0
 12 97  1  0  0  0
 13 14  1  0  0  0
 13 31  1  0  0  0
 14 15  2  0  0  0
 14 98  1  0  0  0
 15 99  1  0  0  0
 16 17  2  0  0  0
 16 21  1  0  0  0
 16 31  1  0  0  0
 17 18  1  0  0  0
 17100  1  0  0  0
 18 19  2  0  0  0
 18101  1  0  0  0
 19 20  1  0  0  0
 19 24  1  0  0  0
 20 21  2  0  0  0
 20102  1  0  0  0
 21 23  1  0  0  0
 22 28  1  0  0  0
 22 32  2  0  0  0
 26 27  1  0  0  0
 28103  1  0  0  0
 28104  1  0  0  0
 29105  1  0  0  0
 29106  1  0  0  0
 33 34  1  0  0  0
 33 66  1  0  0  0
 33 70  2  0  0  0
 34 36  1  0  0  0
 34 59  1  0  0  0
 34107  1  0  0  0
 35 44  2  0  0  0
 35 45  1  0  0  0
 35 68  1  0  0  0
 36 56  1  0  0  0
 36108  1  0  0  0
 37 39  1  0  0  0
 37 47  1  0  0  0
 37 66  1  0  0  0
 37109  1  0  0  0
 38 43  2  0  0  0
 38 46  1  0  0  0
 38 47  1  0  0  0
 39 64  1  0  0  0
 39 67  2  0  0  0
 40 52  1  0  0  0
 40 53  2  0  0  0
 40 58  1  0  0  0
 41110  1  0  0  0
 41111  1  0  0  0
 41112  1  0  0  0
 41 48  1  0  0  0
 42 43  1  0  0  0
 42 66  1  0  0  0
 42113  1  0  0  0
 42114  1  0  0  0
 43 44  1  0  0  0
 44115  1  0  0  0
 45 46  2  0  0  0
 45116  1  0  0  0
 46117  1  0  0  0
 47118  1  0  0  0
 47119  1  0  0  0
 48 56  1  0  0  0
 48 65  1  0  0  0
 48120  1  0  0  0
 49 50  1  0  0  0
 49 53  1  0  0  0
 49 64  1  0  0  0
 49121  1  0  0  0
 50 51  1  0  0  0
 50122  1  0  0  0
 50123  1  0  0  0
 51 52  1  0  0  0
 51124  1  0  0  0
 51125  1  0  0  0
 52126  1  0  0  0
 52127  1  0  0  0
 53 54  1  0  0  0
 54 55  2  0  0  0
 54128  1  0  0  0
 55 57  1  0  0  0
 55129  1  0  0  0
 56 69  2  0  0  0
 57 58  2  0  0  0
 57130  1  0  0  0
 58131  1  0  0  0
 59 60  1  0  0  0
 59 61  1  0  0  0
 59 62  1  0  0  0
 60132  1  0  0  0
 60133  1  0  0  0
 60134  1  0  0  0
 61135  1  0  0  0
 61136  1  0  0  0
 61137  1  0  0  0
 62138  1  0  0  0
 62139  1  0  0  0
 62140  1  0  0  0
 63 65  1  0  0  0
 63141  1  0  0  0
 63142  1  0  0  0
 63143  1  0  0  0
 64144  1  0  0  0
 65145  1  0  0  0
 68 79  1  0  0  0
 71 73  1  0  0  0
 71 78  1  0  0  0
 71146  1  0  0  0
 71147  1  0  0  0
 72 74  1  0  0  0
 72 78  1  0  0  0
 72148  1  0  0  0
 72149  1  0  0  0
 73 79  1  0  0  0
 73150  1  0  0  0
 73151  1  0  0  0
 74 79  1  0  0  0
 74152  1  0  0  0
 74153  1  0  0  0
 75 85  1  0  0  0
 75154  1  0  0  0
 75155  1  0  0  0
 75 77  1  0  0  0
 76 77  1  0  0  0
 76 85  1  0  0  0
 76156  1  0  0  0
 76157  1  0  0  0
 77 83  1  0  0  0
 77158  1  0  0  0
 78 86  1  0  0  0
 78159  1  0  0  0
 79160  1  0  0  0
 80 81  1  0  0  0
 80 82  1  0  0  0
 80161  1  0  0  0
 80162  1  0  0  0
 81163  1  0  0  0
 81164  1  0  0  0
 81 83  1  0  0  0
 82 84  1  0  0  0
 82165  1  0  0  0
 82166  1  0  0  0
 83 86  1  0  0  0
 83167  1  0  0  0
 84168  1  0  0  0
 85169  1  0  0  0
 85170  1  0  0  0
 86171  1  0  0  0
 86172  1  0  0  0
M  CHG  2  85   1  86   1
M  ISO  4   1 100  68 101  79 101  84 100
M  END
> <chiral flag>
0

> <version>
0

> <s_m_source_file>
/data/baiqing/PycharmProjects/Reinvent-master-3.2/result/LINK_invent/BTK/process_docking_weight1_custom_sum_contain_oxygen_bond_distance_aromatic_linkinvent_7_9_3/rearranged_h_0135.sdf

> <i_m_source_file_index>
35

> <r_mmod_Potential_Energy-OPLS-2005>
-275.854431152344

> <r_mmod_Stretch_Energy-OPLS-2005>
41.2955055236816

> <r_mmod_Bend_Energy-OPLS-2005>
138.539459228516

> <r_mmod_Torsional_Energy-OPLS-2005>
350.682952880859

> <r_mmod_Improper_Torsional_Energy-OPLS-2005>
18.8498096466064

> <r_mmod_Van_der_Waal_Energy-OPLS-2005>
130.007354736328

> <r_mmod_Electrostatic_Energy-OPLS-2005>
82.2095794677734

> <r_mmod_Solvation_Energy-OPLS-2005>
-1055.47399902344

> <b_mmod_Minimization_Converged-OPLS-2005>
0

> <r_mmod_RMS_Derivative-OPLS-2005>
3.31188416481018

$$$$
35
                    3D
 Structure written by MMmdl.
180190  0  0  1  0            999 V2000
  -30.5846  -14.7023   20.4587 C   0  0  0  0  0  0
  -30.4288  -12.4293   19.4598 C   0  0  0  0  0  0
  -29.4970  -12.4908   18.2309 C   0  0  0  0  0  0
  -28.0176  -12.3482   18.6452 C   0  0  0  0  0  0
  -27.6448  -13.2240   19.8697 C   0  0  2  0  0  0
  -28.6935  -13.1070   20.9968 C   0  0  0  0  0  0
  -25.2503  -13.8168   20.5729 C   0  0  0  0  0  0
  -24.1749  -13.0410   20.9213 C   0  0  0  0  0  0
  -24.6349  -11.6900   20.8738 C   0  0  0  0  0  0
  -23.9000  -10.4274   21.0446 C   0  0  0  0  0  0
  -24.3572   -9.4206   21.9249 C   0  0  0  0  0  0
  -23.6268   -8.2212   22.0818 C   0  0  0  0  0  0
  -22.4258   -8.0207   21.3594 C   0  0  0  0  0  0
  -21.9866   -9.0195   20.4695 C   0  0  0  0  0  0
  -22.7163  -10.2100   20.3120 C   0  0  0  0  0  0
  -21.6856   -6.0669   22.5246 C   0  0  0  0  0  0
  -21.4028   -6.5619   23.8172 C   0  0  0  0  0  0
  -21.3658   -5.6819   24.9153 C   0  0  0  0  0  0
  -21.6042   -4.3054   24.7248 C   0  0  0  0  0  0
  -21.8813   -3.8114   23.4399 C   0  0  0  0  0  0
  -21.9201   -4.6920   22.3425 C   0  0  0  0  0  0
  -22.7771  -13.5203   21.1848 C   0  0  0  0  0  0
  -22.1662   -4.2077   21.1019 F   0  0  0  0  0  0
  -21.5634   -3.4574   25.7784 F   0  0  0  0  0  0
  -29.9849  -13.4688   20.4085 N   0  0  0  0  0  0
  -26.2940  -12.9371   20.3427 N   0  0  0  0  0  0
  -25.9301  -11.6486   20.5832 N   0  0  0  0  0  0
  -22.0441  -12.8195   22.0431 N   0  0  0  0  0  0
  -25.4172  -15.1906   20.4140 N   0  0  0  0  0  0
  -31.7701  -14.8295   20.1465 O   0  0  0  0  0  0
  -21.6625   -6.8818   21.4199 O   0  0  0  0  0  0
  -22.3449  -14.5503   20.6722 O   0  0  0  0  0  0
  -24.6285  -31.8592   23.1986 C   0  0  0  0  0  0
  -25.9109  -32.4777   23.8337 C   0  0  1  0  0  0
  -27.2085  -27.2765   20.1339 C   0  0  0  0  0  0
  -25.5919  -33.8579   24.2279 N   0  0  0  0  0  0
  -23.4234  -30.4807   21.5415 C   0  0  2  0  0  0
  -24.8697  -28.9222   20.1159 C   0  0  0  0  0  0
  -22.7486  -29.4640   22.4908 C   0  0  0  0  0  0
  -18.0273  -28.1410   22.8467 C   0  0  0  0  0  0
  -24.1483  -36.7279   23.2647 C   0  0  0  0  0  0
  -25.9695  -30.7763   21.3740 C   0  0  0  0  0  0
  -26.0419  -29.3967   20.7189 C   0  0  0  0  0  0
  -27.2199  -28.5876   20.7095 C   0  0  0  0  0  0
  -26.0175  -26.8546   19.5114 C   0  0  0  0  0  0
  -24.8620  -27.6586   19.4994 C   0  0  0  0  0  0
  -23.6404  -29.8098   20.1581 C   0  0  0  0  0  0
  -25.4105  -36.3095   24.0348 C   0  0  1  0  0  0
  -20.5887  -28.3729   23.1257 C   0  0  2  0  0  0
  -20.6774  -26.9448   22.5414 C   0  0  0  0  0  0
  -19.5745  -26.6403   21.5208 C   0  0  0  0  0  0
  -18.1919  -26.7955   22.1615 C   0  0  0  0  0  0
  -19.1534  -28.8867   23.2869 C   0  0  0  0  0  0
  -18.9471  -30.1465   23.8900 C   0  0  0  0  0  0
  -17.6477  -30.6618   24.0555 C   0  0  0  0  0  0
  -25.9043  -34.9449   23.5128 C   0  0  0  0  0  0
  -16.5356  -29.9116   23.6343 C   0  0  0  0  0  0
  -16.7265  -28.6531   23.0361 C   0  0  0  0  0  0
  -26.4489  -31.6594   25.0723 C   0  0  0  0  0  0
  -25.3699  -31.3732   26.1435 C   0  0  0  0  0  0
  -27.0347  -30.3010   24.6219 C   0  0  0  0  0  0
  -27.6060  -32.4328   25.7472 C   0  0  0  0  0  0
  -27.5588  -37.1781   24.8471 C   0  0  0  0  0  0
  -21.4185  -29.3071   22.3652 N   0  0  0  0  0  0
  -26.4288  -37.3790   23.9432 N   0  0  0  0  0  0
  -24.6925  -31.0546   22.0954 N   0  0  0  0  0  0
  -23.4172  -28.8189   23.3037 O   0  0  0  0  0  0
  -28.3097  -26.4067   20.1384 O   0  0  0  0  0  0
  -26.5631  -34.8930   22.4706 O   0  0  0  0  0  0
  -23.5420  -32.1422   23.7288 O   0  0  0  0  0  0
  -30.0541  -19.7008   16.2434 C   0  0  0  0  0  0
  -30.5618  -17.5688   14.8743 C   0  0  0  0  0  0
  -28.9270  -21.2638   20.8792 C   0  0  0  0  0  0
  -27.0090  -21.4936   19.2926 C   0  0  0  0  0  0
  -30.9796  -18.1000   13.5100 C   0  0  0  0  0  0
  -29.1506  -23.4679   18.7106 C   0  0  0  0  0  0
  -31.1188  -18.8633   15.4914 C   0  0  1  0  0  0
  -27.7488  -22.2517   20.3949 C   0  0  2  0  0  0
  -29.3387  -19.9249   20.0413 C   0  0  2  0  0  0
  -28.0563  -23.7068   19.7706 C   0  0  1  0  0  0
  -28.9543  -20.0236   18.5094 C   0  0  1  0  0  0
  -28.0149  -21.2268   18.1516 C   0  0  2  0  0  0
  -28.6898  -18.4579   22.1439 C   0  0  0  0  0  0
  -28.1627  -25.0239   20.6973 C   0  0  0  0  0  0
  -30.1119  -17.2599   20.3346 C   0  0  0  0  0  0
  -29.0295  -18.4315   20.6355 C   0  0  2  0  0  0
  -30.0936  -19.7569   17.5928 N   0  0  0  0  0  0
  -29.7715  -15.8092   20.6252 N   0  0  0  0  0  0
  -31.3085  -19.3799   14.1399 N   0  3  0  0  0  0
  -28.7144  -22.4674   17.6849 N   0  3  0  0  0  0
  -29.1742  -20.2718   15.5941 O   0  0  0  0  0  0
  -31.4631  -12.5652   19.1476 H   0  0  0  0  0  0
  -30.3873  -11.4497   19.9341 H   0  0  0  0  0  0
  -29.7511  -11.6949   17.5318 H   0  0  0  0  0  0
  -29.6497  -13.4222   17.6901 H   0  0  0  0  0  0
  -27.8460  -11.2946   18.8833 H   0  0  0  0  0  0
  -27.3616  -12.5842   17.8073 H   0  0  0  0  0  0
  -27.6440  -14.2570   19.5207 H   0  0  0  0  0  0
  -28.7338  -12.0888   21.3875 H   0  0  0  0  0  0
  -28.4422  -13.7523   21.8448 H   0  0  0  0  0  0
  -25.2724   -9.5634   22.4851 H   0  0  0  0  0  0
  -23.9932   -7.4613   22.7604 H   0  0  0  0  0  0
  -21.0760   -8.8703   19.9083 H   0  0  0  0  0  0
  -22.3606  -10.9625   19.6199 H   0  0  0  0  0  0
  -21.2036   -7.6132   23.9609 H   0  0  0  0  0  0
  -21.1480   -6.0591   25.9030 H   0  0  0  0  0  0
  -22.0613   -2.7563   23.2932 H   0  0  0  0  0  0
  -22.4025  -11.9829   22.4756 H   0  0  0  0  0  0
  -21.1129  -13.1311   22.2744 H   0  0  0  0  0  0
  -24.6481  -15.8451   20.5266 H   0  0  0  0  0  0
  -26.2667  -15.6323   20.0865 H   0  0  0  0  0  0
  -26.7173  -32.5443   23.1074 H   0  0  0  0  0  0
  -25.0030  -33.9703   25.0395 H   0  0  0  0  0  0
  -22.7209  -31.3047   21.3934 H   0  0  0  0  0  0
  -23.3779  -35.9581   23.3294 H   0  0  0  0  0  0
  -24.3587  -36.8911   22.2071 H   0  0  0  0  0  0
  -23.7169  -37.6448   23.6665 H   0  0  0  0  0  0
  -26.1069  -31.5357   20.6022 H   0  0  0  0  0  0
  -26.8467  -30.8287   22.0066 H   0  0  0  0  0  0
  -28.1262  -28.9498   21.1763 H   0  0  0  0  0  0
  -25.9738  -25.8869   19.0372 H   0  0  0  0  0  0
  -23.9629  -27.2901   19.0260 H   0  0  0  0  0  0
  -23.7679  -30.5857   19.4039 H   0  0  0  0  0  0
  -22.7575  -29.2443   19.8506 H   0  0  0  0  0  0
  -25.1265  -36.1970   25.0838 H   0  0  0  0  0  0
  -20.9967  -28.3338   24.1381 H   0  0  0  0  0  0
  -20.5681  -26.2349   23.3631 H   0  0  0  0  0  0
  -21.6645  -26.7498   22.1204 H   0  0  0  0  0  0
  -19.6940  -25.6304   21.1249 H   0  0  0  0  0  0
  -19.6694  -27.3205   20.6721 H   0  0  0  0  0  0
  -17.4206  -26.6688   21.4022 H   0  0  0  0  0  0
  -18.0349  -26.0108   22.9015 H   0  0  0  0  0  0
  -19.7938  -30.7266   24.2311 H   0  0  0  0  0  0
  -17.5028  -31.6292   24.5164 H   0  0  0  0  0  0
  -15.5364  -30.3019   23.7667 H   0  0  0  0  0  0
  -15.8653  -28.0831   22.7110 H   0  0  0  0  0  0
  -24.5876  -30.7099   25.7730 H   0  0  0  0  0  0
  -24.8885  -32.2898   26.4849 H   0  0  0  0  0  0
  -25.7992  -30.8892   27.0215 H   0  0  0  0  0  0
  -26.2947  -29.6735   24.1250 H   0  0  0  0  0  0
  -27.4036  -29.7301   25.4750 H   0  0  0  0  0  0
  -27.8814  -30.4295   23.9476 H   0  0  0  0  0  0
  -27.2698  -33.3643   26.2037 H   0  0  0  0  0  0
  -28.3851  -32.6861   25.0269 H   0  0  0  0  0  0
  -28.0754  -31.8459   26.5382 H   0  0  0  0  0  0
  -28.2584  -38.0098   24.7570 H   0  0  0  0  0  0
  -28.1106  -36.2638   24.6231 H   0  0  0  0  0  0
  -27.2331  -37.1348   25.8879 H   0  0  0  0  0  0
  -20.9404  -29.8745   21.6782 H   0  0  0  0  0  0
  -26.0193  -38.2874   24.1450 H   0  0  0  0  0  0
  -31.0902  -16.6561   15.1571 H   0  0  0  0  0  0
  -29.4786  -17.4506   14.9689 H   0  0  0  0  0  0
  -28.7017  -21.0042   21.9172 H   0  0  0  0  0  0
  -29.8196  -21.8758   21.0031 H   0  0  0  0  0  0
  -26.1436  -22.0540   18.9311 H   0  0  0  0  0  0
  -26.6014  -20.5535   19.6717 H   0  0  0  0  0  0
  -30.1641  -18.1671   12.7846 H   0  0  0  0  0  0
  -31.8462  -17.5846   13.0885 H   0  0  0  0  0  0
  -30.0669  -23.1186   19.1867 H   0  0  0  0  0  0
  -29.4186  -24.4041   18.2181 H   0  0  0  0  0  0
  -32.0672  -18.7516   16.0180 H   0  0  0  0  0  0
  -27.0657  -22.4037   21.2350 H   0  0  0  0  0  0
  -30.4293  -19.9655   20.0905 H   0  0  0  0  0  0
  -27.1631  -23.9710   19.2030 H   0  0  0  0  0  0
  -28.3142  -19.1613   18.3178 H   0  0  0  0  0  0
  -27.4101  -20.9069   17.2976 H   0  0  0  0  0  0
  -27.8284  -19.0995   22.3526 H   0  0  0  0  0  0
  -29.5332  -18.8117   22.7441 H   0  0  0  0  0  0
  -28.4124  -17.4760   22.5186 H   0  0  0  0  0  0
  -28.9975  -24.8690   21.3860 H   0  0  0  0  0  0
  -27.2847  -25.0265   21.3465 H   0  0  0  0  0  0
  -30.3951  -17.2858   19.2792 H   0  0  0  0  0  0
  -31.0265  -17.4956   20.8814 H   0  0  0  0  0  0
  -28.0971  -18.0992   20.1686 H   0  0  0  0  0  0
  -30.8789  -19.2782   18.0117 H   0  0  0  0  0  0
  -28.8027  -15.6126   20.8164 H   0  0  0  0  0  0
  -30.6189  -20.0952   13.9710 H   0  0  0  0  0  0
  -32.2471  -19.6948   13.9612 H   0  0  0  0  0  0
  -29.5017  -22.1967   17.1174 H   0  0  0  0  0  0
  -28.0738  -22.9463   17.0682 H   0  0  0  0  0  0
  1 25  1  0  0  0
  1 30  2  0  0  0
  1 88  1  0  0  0
  2  3  1  0  0  0
  2 25  1  0  0  0
  2 92  1  0  0  0
  2 93  1  0  0  0
  3  4  1  0  0  0
  3 94  1  0  0  0
  3 95  1  0  0  0
  4  5  1  0  0  0
  4 96  1  0  0  0
  4 97  1  0  0  0
  5  6  1  0  0  0
  5 26  1  0  0  0
  5 98  1  0  0  0
  6 25  1  0  0  0
  6 99  1  0  0  0
  6100  1  0  0  0
  7  8  2  0  0  0
  7 26  1  0  0  0
  7 29  1  0  0  0
  8  9  1  0  0  0
  8 22  1  0  0  0
  9 10  1  0  0  0
  9 27  2  0  0  0
 10 11  2  0  0  0
 10 15  1  0  0  0
 11 12  1  0  0  0
 11101  1  0  0  0
 12 13  2  0  0  0
 12102  1  0  0  0
 13 14  1  0  0  0
 13 31  1  0  0  0
 14 15  2  0  0  0
 14103  1  0  0  0
 15104  1  0  0  0
 16 17  2  0  0  0
 16 21  1  0  0  0
 16 31  1  0  0  0
 17 18  1  0  0  0
 17105  1  0  0  0
 18 19  2  0  0  0
 18106  1  0  0  0
 19 20  1  0  0  0
 19 24  1  0  0  0
 20 21  2  0  0  0
 20107  1  0  0  0
 21 23  1  0  0  0
 22 28  1  0  0  0
 22 32  2  0  0  0
 26 27  1  0  0  0
 28108  1  0  0  0
 28109  1  0  0  0
 29110  1  0  0  0
 29111  1  0  0  0
 33 34  1  0  0  0
 33 66  1  0  0  0
 33 70  2  0  0  0
 34 36  1  0  0  0
 34 59  1  0  0  0
 34112  1  0  0  0
 35 44  2  0  0  0
 35 45  1  0  0  0
 35 68  1  0  0  0
 36 56  1  0  0  0
 36113  1  0  0  0
 37 39  1  0  0  0
 37 47  1  0  0  0
 37 66  1  0  0  0
 37114  1  0  0  0
 38 43  2  0  0  0
 38 46  1  0  0  0
 38 47  1  0  0  0
 39 64  1  0  0  0
 39 67  2  0  0  0
 40 52  1  0  0  0
 40 53  2  0  0  0
 40 58  1  0  0  0
 41115  1  0  0  0
 41116  1  0  0  0
 41117  1  0  0  0
 41 48  1  0  0  0
 42 43  1  0  0  0
 42 66  1  0  0  0
 42118  1  0  0  0
 42119  1  0  0  0
 43 44  1  0  0  0
 44120  1  0  0  0
 45 46  2  0  0  0
 45121  1  0  0  0
 46122  1  0  0  0
 47123  1  0  0  0
 47124  1  0  0  0
 48 56  1  0  0  0
 48 65  1  0  0  0
 48125  1  0  0  0
 49 50  1  0  0  0
 49 53  1  0  0  0
 49 64  1  0  0  0
 49126  1  0  0  0
 50 51  1  0  0  0
 50127  1  0  0  0
 50128  1  0  0  0
 51 52  1  0  0  0
 51129  1  0  0  0
 51130  1  0  0  0
 52131  1  0  0  0
 52132  1  0  0  0
 53 54  1  0  0  0
 54 55  2  0  0  0
 54133  1  0  0  0
 55 57  1  0  0  0
 55134  1  0  0  0
 56 69  2  0  0  0
 57 58  2  0  0  0
 57135  1  0  0  0
 58136  1  0  0  0
 59 60  1  0  0  0
 59 61  1  0  0  0
 59 62  1  0  0  0
 60137  1  0  0  0
 60138  1  0  0  0
 60139  1  0  0  0
 61140  1  0  0  0
 61141  1  0  0  0
 61142  1  0  0  0
 62143  1  0  0  0
 62144  1  0  0  0
 62145  1  0  0  0
 63 65  1  0  0  0
 63146  1  0  0  0
 63147  1  0  0  0
 63148  1  0  0  0
 64149  1  0  0  0
 65150  1  0  0  0
 68 84  1  0  0  0
 71 87  1  0  0  0
 71 91  2  0  0  0
 71 77  1  0  0  0
 72 75  1  0  0  0
 72 77  1  0  0  0
 72151  1  0  0  0
 72152  1  0  0  0
 73153  1  0  0  0
 73154  1  0  0  0
 73 78  1  0  0  0
 73 79  1  0  0  0
 74 78  1  0  0  0
 74 82  1  0  0  0
 74155  1  0  0  0
 74156  1  0  0  0
 75 89  1  0  0  0
 75157  1  0  0  0
 75158  1  0  0  0
 76 80  1  0  0  0
 76 90  1  0  0  0
 76159  1  0  0  0
 76160  1  0  0  0
 77 89  1  0  0  0
 77161  1  0  0  0
 78 80  1  0  0  0
 78162  1  0  0  0
 79 81  1  0  0  0
 79 86  1  0  0  0
 79163  1  0  0  0
 80 84  1  0  0  0
 80164  1  0  0  0
 81 82  1  0  0  0
 81 87  1  0  0  0
 81165  1  0  0  0
 82 90  1  0  0  0
 82166  1  0  0  0
 83167  1  0  0  0
 83168  1  0  0  0
 83169  1  0  0  0
 83 86  1  0  0  0
 84170  1  0  0  0
 84171  1  0  0  0
 85 86  1  0  0  0
 85 88  1  0  0  0
 85172  1  0  0  0
 85173  1  0  0  0
 86174  1  0  0  0
 87175  1  0  0  0
 88176  1  0  0  0
 89177  1  0  0  0
 89178  1  0  0  0
 90179  1  0  0  0
 90180  1  0  0  0
M  CHG  2  89   1  90   1
M  ISO  4   1 100  68 101  84 101  88 100
M  END
> <chiral flag>
0

> <version>
0

> <s_m_source_file>
/data/baiqing/PycharmProjects/Reinvent-master-3.2/result/LINK_invent/BTK/process_docking_weight1_custom_sum_contain_oxygen_bond_distance_aromatic_linkinvent_7_9_3/rearranged_h_0135.sdf

> <i_m_source_file_index>
36

> <r_mmod_Potential_Energy-OPLS-2005>
-155.325668334961

> <r_mmod_Stretch_Energy-OPLS-2005>
132.210342407227

> <r_mmod_Bend_Energy-OPLS-2005>
229.691970825195

> <r_mmod_Torsional_Energy-OPLS-2005>
424.126312255859

> <r_mmod_Improper_Torsional_Energy-OPLS-2005>
6.960693359375

> <r_mmod_Van_der_Waal_Energy-OPLS-2005>
135.290908813477

> <r_mmod_Electrostatic_Energy-OPLS-2005>
-200.377197265625

> <r_mmod_Solvation_Energy-OPLS-2005>
-954.03662109375

> <b_mmod_Minimization_Converged-OPLS-2005>
0

> <r_mmod_RMS_Derivative-OPLS-2005>
7.84949970245361

$$$$
36
                    3D
 Structure written by MMmdl.
161170  0  0  1  0            999 V2000
  -30.6910  -14.6539   20.4841 C   0  0  0  0  0  0
  -30.4220  -12.4063   19.4532 C   0  0  0  0  0  0
  -29.4988  -12.4957   18.2210 C   0  0  0  0  0  0
  -28.0258  -12.3363   18.6407 C   0  0  0  0  0  0
  -27.6455  -13.2318   19.8508 C   0  0  2  0  0  0
  -28.6963  -13.1544   20.9807 C   0  0  0  0  0  0
  -25.2533  -13.8210   20.5702 C   0  0  0  0  0  0
  -24.1816  -13.0446   20.9209 C   0  0  0  0  0  0
  -24.6411  -11.6932   20.8750 C   0  0  0  0  0  0
  -23.9085  -10.4302   21.0409 C   0  0  0  0  0  0
  -24.3633   -9.4216   21.9188 C   0  0  0  0  0  0
  -23.6302   -8.2251   22.0755 C   0  0  0  0  0  0
  -22.4283   -8.0291   21.3548 C   0  0  0  0  0  0
  -21.9930   -9.0265   20.4648 C   0  0  0  0  0  0
  -22.7261  -10.2142   20.3057 C   0  0  0  0  0  0
  -21.6857   -6.0745   22.5277 C   0  0  0  0  0  0
  -21.4016   -6.5644   23.8215 C   0  0  0  0  0  0
  -21.3659   -5.6795   24.9176 C   0  0  0  0  0  0
  -21.6040   -4.3055   24.7224 C   0  0  0  0  0  0
  -21.8821   -3.8154   23.4344 C   0  0  0  0  0  0
  -21.9192   -4.6972   22.3401 C   0  0  0  0  0  0
  -22.7835  -13.5230   21.1857 C   0  0  0  0  0  0
  -22.1662   -4.2156   21.0977 F   0  0  0  0  0  0
  -21.5626   -3.4539   25.7738 F   0  0  0  0  0  0
  -30.0042  -13.4696   20.3906 N   0  0  0  0  0  0
  -26.2967  -12.9422   20.3314 N   0  0  0  0  0  0
  -25.9346  -11.6561   20.5781 N   0  0  0  0  0  0
  -22.0484  -12.8207   22.0407 N   0  0  0  0  0  0
  -25.4217  -15.1937   20.4107 N   0  0  0  0  0  0
  -31.8769  -14.7146   20.1536 O   0  0  0  0  0  0
  -21.6645   -6.8894   21.4243 O   0  0  0  0  0  0
  -22.3513  -14.5533   20.6710 O   0  0  0  0  0  0
  -24.6283  -31.8582   23.1987 C   0  0  0  0  0  0
  -25.9123  -32.4773   23.8333 C   0  0  1  0  0  0
  -27.2353  -27.3200   20.1201 C   0  0  0  0  0  0
  -25.5921  -33.8567   24.2262 N   0  0  0  0  0  0
  -23.4234  -30.4770   21.5438 C   0  0  2  0  0  0
  -24.8695  -28.9226   20.1171 C   0  0  0  0  0  0
  -22.7483  -29.4607   22.4952 C   0  0  0  0  0  0
  -18.0286  -28.1388   22.8476 C   0  0  0  0  0  0
  -24.1489  -36.7296   23.2643 C   0  0  0  0  0  0
  -25.9620  -30.7896   21.3663 C   0  0  0  0  0  0
  -26.0399  -29.4139   20.7119 C   0  0  0  0  0  0
  -27.2291  -28.6269   20.6961 C   0  0  0  0  0  0
  -26.0426  -26.8687   19.5160 C   0  0  0  0  0  0
  -24.8713  -27.6529   19.5129 C   0  0  0  0  0  0
  -23.6379  -29.8045   20.1627 C   0  0  0  0  0  0
  -25.4115  -36.3084   24.0336 C   0  0  1  0  0  0
  -20.5886  -28.3685   23.1277 C   0  0  2  0  0  0
  -20.6781  -26.9411   22.5410 C   0  0  0  0  0  0
  -19.5761  -26.6387   21.5210 C   0  0  0  0  0  0
  -18.1929  -26.7926   22.1615 C   0  0  0  0  0  0
  -19.1541  -28.8854   23.2863 C   0  0  0  0  0  0
  -18.9470  -30.1453   23.8884 C   0  0  0  0  0  0
  -17.6474  -30.6589   24.0562 C   0  0  0  0  0  0
  -25.9054  -34.9451   23.5101 C   0  0  0  0  0  0
  -16.5363  -29.9088   23.6335 C   0  0  0  0  0  0
  -16.7276  -28.6510   23.0348 C   0  0  0  0  0  0
  -26.4497  -31.6581   25.0707 C   0  0  0  0  0  0
  -25.3726  -31.3717   26.1438 C   0  0  0  0  0  0
  -27.0334  -30.3011   24.6136 C   0  0  0  0  0  0
  -27.6055  -32.4315   25.7482 C   0  0  0  0  0  0
  -27.5580  -37.1800   24.8473 C   0  0  0  0  0  0
  -21.4198  -29.3031   22.3675 N   0  0  0  0  0  0
  -26.4298  -37.3777   23.9410 N   0  0  0  0  0  0
  -24.6907  -31.0580   22.0942 N   0  0  0  0  0  0
  -23.4188  -28.8160   23.3055 O   0  0  0  0  0  0
  -28.3586  -26.4834   20.1022 O   0  0  0  0  0  0
  -26.5637  -34.8930   22.4677 O   0  0  0  0  0  0
  -23.5445  -32.1386   23.7312 O   0  0  0  0  0  0
  -29.4866  -20.6168   19.6288 C   0  0  0  0  0  0
  -30.0235  -18.5365   20.8410 C   0  0  0  0  0  0
  -29.8677  -19.2288   19.6084 C   0  0  0  0  0  0
  -29.8641  -19.3154   21.9868 C   0  0  0  0  0  0
  -29.2967  -21.2995   20.8621 C   0  0  0  0  0  0
  -30.3083  -18.5790   23.2218 C   0  0  0  0  0  0
  -30.6341  -17.1261   21.1746 C   0  0  1  0  0  0
  -30.7524  -17.1714   22.7312 C   0  0  1  0  0  0
  -30.1961  -18.5401   18.2996 C   0  0  0  0  0  0
  -32.1470  -16.7611   23.2343 C   0  0  0  0  0  0
  -28.8371  -23.8180   20.0887 C   0  0  0  0  0  0
  -28.2393  -25.1549   20.7449 C   0  0  0  0  0  0
  -29.4966  -20.6282   22.0237 N   0  0  0  0  0  0
  -28.9139  -22.6664   21.0449 N   0  0  0  0  0  0
  -30.0058  -15.8077   20.7835 N   0  0  0  0  0  0
  -31.4652  -12.5019   19.1472 H   0  0  0  0  0  0
  -30.3391  -11.4281   19.9292 H   0  0  0  0  0  0
  -29.7640  -11.7273   17.4935 H   0  0  0  0  0  0
  -29.6388  -13.4557   17.7201 H   0  0  0  0  0  0
  -27.8693  -11.2875   18.8940 H   0  0  0  0  0  0
  -27.3677  -12.5450   17.7966 H   0  0  0  0  0  0
  -27.6456  -14.2566   19.4778 H   0  0  0  0  0  0
  -28.7131  -12.1612   21.4303 H   0  0  0  0  0  0
  -28.4487  -13.8494   21.7846 H   0  0  0  0  0  0
  -25.2783   -9.5681   22.4770 H   0  0  0  0  0  0
  -24.0005   -7.4642   22.7476 H   0  0  0  0  0  0
  -21.0867   -8.8796   19.8950 H   0  0  0  0  0  0
  -22.3734  -10.9686   19.6164 H   0  0  0  0  0  0
  -21.2014   -7.6156   23.9721 H   0  0  0  0  0  0
  -21.1475   -6.0525   25.9078 H   0  0  0  0  0  0
  -22.0600   -2.7615   23.2843 H   0  0  0  0  0  0
  -22.4100  -11.9854   22.4773 H   0  0  0  0  0  0
  -21.1104  -13.1226   22.2628 H   0  0  0  0  0  0
  -24.6537  -15.8474   20.5192 H   0  0  0  0  0  0
  -26.2706  -15.6345   20.0798 H   0  0  0  0  0  0
  -26.7191  -32.5449   23.1082 H   0  0  0  0  0  0
  -25.0053  -33.9696   25.0399 H   0  0  0  0  0  0
  -22.7187  -31.2974   21.3968 H   0  0  0  0  0  0
  -23.3751  -35.9633   23.3334 H   0  0  0  0  0  0
  -24.3571  -36.8894   22.2053 H   0  0  0  0  0  0
  -23.7243  -37.6506   23.6647 H   0  0  0  0  0  0
  -26.0850  -31.5491   20.5935 H   0  0  0  0  0  0
  -26.8458  -30.8452   21.9900 H   0  0  0  0  0  0
  -28.1329  -29.0051   21.1533 H   0  0  0  0  0  0
  -26.0153  -25.8928   19.0506 H   0  0  0  0  0  0
  -23.9726  -27.2632   19.0549 H   0  0  0  0  0  0
  -23.7578  -30.5768   19.4018 H   0  0  0  0  0  0
  -22.7580  -29.2318   19.8647 H   0  0  0  0  0  0
  -25.1284  -36.1948   25.0829 H   0  0  0  0  0  0
  -20.9958  -28.3282   24.1408 H   0  0  0  0  0  0
  -20.5691  -26.2305   23.3619 H   0  0  0  0  0  0
  -21.6650  -26.7455   22.1195 H   0  0  0  0  0  0
  -19.6950  -25.6298   21.1240 H   0  0  0  0  0  0
  -19.6715  -27.3203   20.6738 H   0  0  0  0  0  0
  -17.4208  -26.6672   21.4007 H   0  0  0  0  0  0
  -18.0320  -26.0072   22.9012 H   0  0  0  0  0  0
  -19.7962  -30.7244   24.2265 H   0  0  0  0  0  0
  -17.5049  -31.6271   24.5153 H   0  0  0  0  0  0
  -15.5365  -30.2990   23.7673 H   0  0  0  0  0  0
  -15.8673  -28.0826   22.7070 H   0  0  0  0  0  0
  -24.5921  -30.7032   25.7778 H   0  0  0  0  0  0
  -24.8887  -32.2875   26.4840 H   0  0  0  0  0  0
  -25.8060  -30.8925   27.0230 H   0  0  0  0  0  0
  -26.2884  -29.6761   24.1187 H   0  0  0  0  0  0
  -27.4080  -29.7257   25.4614 H   0  0  0  0  0  0
  -27.8737  -30.4320   23.9314 H   0  0  0  0  0  0
  -27.2668  -33.3635   26.2023 H   0  0  0  0  0  0
  -28.3877  -32.6841   25.0309 H   0  0  0  0  0  0
  -28.0702  -31.8457   26.5424 H   0  0  0  0  0  0
  -28.2602  -38.0087   24.7487 H   0  0  0  0  0  0
  -28.1058  -36.2609   24.6326 H   0  0  0  0  0  0
  -27.2289  -37.1486   25.8875 H   0  0  0  0  0  0
  -20.9405  -29.8733   21.6854 H   0  0  0  0  0  0
  -26.0193  -38.2863   24.1393 H   0  0  0  0  0  0
  -29.3680  -21.1548   18.6978 H   0  0  0  0  0  0
  -29.4972  -18.5184   23.9477 H   0  0  0  0  0  0
  -31.1358  -19.1180   23.6856 H   0  0  0  0  0  0
  -31.6354  -17.1653   20.7408 H   0  0  0  0  0  0
  -30.0315  -16.4698   23.1541 H   0  0  0  0  0  0
  -30.1386  -19.2347   17.4607 H   0  0  0  0  0  0
  -29.5081  -17.7153   18.1140 H   0  0  0  0  0  0
  -31.2126  -18.1422   18.3267 H   0  0  0  0  0  0
  -32.9188  -17.4372   22.8648 H   0  0  0  0  0  0
  -32.4044  -15.7545   22.9027 H   0  0  0  0  0  0
  -32.1891  -16.7679   24.3242 H   0  0  0  0  0  0
  -29.8424  -24.0175   19.7164 H   0  0  0  0  0  0
  -28.2399  -23.5268   19.2231 H   0  0  0  0  0  0
  -28.7523  -25.2872   21.6989 H   0  0  0  0  0  0
  -27.2010  -24.9618   21.0184 H   0  0  0  0  0  0
  -28.8206  -22.9360   22.0176 H   0  0  0  0  0  0
  -29.0131  -15.7150   20.9309 H   0  0  0  0  0  0
  1 25  1  0  0  0
  1 30  2  0  0  0
  1 85  1  0  0  0
  2  3  1  0  0  0
  2 25  1  0  0  0
  2 86  1  0  0  0
  2 87  1  0  0  0
  3  4  1  0  0  0
  3 88  1  0  0  0
  3 89  1  0  0  0
  4  5  1  0  0  0
  4 90  1  0  0  0
  4 91  1  0  0  0
  5  6  1  0  0  0
  5 26  1  0  0  0
  5 92  1  0  0  0
  6 25  1  0  0  0
  6 93  1  0  0  0
  6 94  1  0  0  0
  7  8  2  0  0  0
  7 26  1  0  0  0
  7 29  1  0  0  0
  8  9  1  0  0  0
  8 22  1  0  0  0
  9 10  1  0  0  0
  9 27  2  0  0  0
 10 11  2  0  0  0
 10 15  1  0  0  0
 11 12  1  0  0  0
 11 95  1  0  0  0
 12 13  2  0  0  0
 12 96  1  0  0  0
 13 14  1  0  0  0
 13 31  1  0  0  0
 14 15  2  0  0  0
 14 97  1  0  0  0
 15 98  1  0  0  0
 16 17  2  0  0  0
 16 21  1  0  0  0
 16 31  1  0  0  0
 17 18  1  0  0  0
 17 99  1  0  0  0
 18 19  2  0  0  0
 18100  1  0  0  0
 19 20  1  0  0  0
 19 24  1  0  0  0
 20 21  2  0  0  0
 20101  1  0  0  0
 21 23  1  0  0  0
 22 28  1  0  0  0
 22 32  2  0  0  0
 26 27  1  0  0  0
 28102  1  0  0  0
 28103  1  0  0  0
 29104  1  0  0  0
 29105  1  0  0  0
 33 34  1  0  0  0
 33 66  1  0  0  0
 33 70  2  0  0  0
 34 36  1  0  0  0
 34 59  1  0  0  0
 34106  1  0  0  0
 35 44  2  0  0  0
 35 45  1  0  0  0
 35 68  1  0  0  0
 36 56  1  0  0  0
 36107  1  0  0  0
 37 39  1  0  0  0
 37 47  1  0  0  0
 37 66  1  0  0  0
 37108  1  0  0  0
 38 43  2  0  0  0
 38 46  1  0  0  0
 38 47  1  0  0  0
 39 64  1  0  0  0
 39 67  2  0  0  0
 40 52  1  0  0  0
 40 53  2  0  0  0
 40 58  1  0  0  0
 41109  1  0  0  0
 41110  1  0  0  0
 41111  1  0  0  0
 41 48  1  0  0  0
 42 43  1  0  0  0
 42 66  1  0  0  0
 42112  1  0  0  0
 42113  1  0  0  0
 43 44  1  0  0  0
 44114  1  0  0  0
 45 46  2  0  0  0
 45115  1  0  0  0
 46116  1  0  0  0
 47117  1  0  0  0
 47118  1  0  0  0
 48 56  1  0  0  0
 48 65  1  0  0  0
 48119  1  0  0  0
 49 50  1  0  0  0
 49 53  1  0  0  0
 49 64  1  0  0  0
 49120  1  0  0  0
 50 51  1  0  0  0
 50121  1  0  0  0
 50122  1  0  0  0
 51 52  1  0  0  0
 51123  1  0  0  0
 51124  1  0  0  0
 52125  1  0  0  0
 52126  1  0  0  0
 53 54  1  0  0  0
 54 55  2  0  0  0
 54127  1  0  0  0
 55 57  1  0  0  0
 55128  1  0  0  0
 56 69  2  0  0  0
 57 58  2  0  0  0
 57129  1  0  0  0
 58130  1  0  0  0
 59 60  1  0  0  0
 59 61  1  0  0  0
 59 62  1  0  0  0
 60131  1  0  0  0
 60132  1  0  0  0
 60133  1  0  0  0
 61134  1  0  0  0
 61135  1  0  0  0
 61136  1  0  0  0
 62137  1  0  0  0
 62138  1  0  0  0
 62139  1  0  0  0
 63 65  1  0  0  0
 63140  1  0  0  0
 63141  1  0  0  0
 63142  1  0  0  0
 64143  1  0  0  0
 65144  1  0  0  0
 68 82  1  0  0  0
 71 73  2  0  0  0
 71 75  1  0  0  0
 71145  1  0  0  0
 72 73  1  0  0  0
 72 74  2  0  0  0
 72 77  1  0  0  0
 73 79  1  0  0  0
 74 76  1  0  0  0
 74 83  1  0  0  0
 75 83  2  0  0  0
 75 84  1  0  0  0
 76 78  1  0  0  0
 76146  1  0  0  0
 76147  1  0  0  0
 77 78  1  0  0  0
 77 85  1  0  0  0
 77148  1  0  0  0
 78 80  1  0  0  0
 78149  1  0  0  0
 79150  1  0  0  0
 79151  1  0  0  0
 79152  1  0  0  0
 80153  1  0  0  0
 80154  1  0  0  0
 80155  1  0  0  0
 81 82  1  0  0  0
 81 84  1  0  0  0
 81156  1  0  0  0
 81157  1  0  0  0
 82158  1  0  0  0
 82159  1  0  0  0
 84160  1  0  0  0
 85161  1  0  0  0
M  ISO  4   1 100  68 101  82 101  85 100
M  END
> <chiral flag>
0

> <version>
0

> <s_m_source_file>
/data/baiqing/PycharmProjects/Reinvent-master-3.2/result/LINK_invent/BTK/process_docking_weight1_custom_sum_contain_oxygen_bond_distance_aromatic_linkinvent_7_9_3/rearranged_h_0135.sdf

> <i_m_source_file_index>
37

> <r_mmod_Potential_Energy-OPLS-2005>
-113.494529724121

> <r_mmod_Stretch_Energy-OPLS-2005>
80.3503341674805

> <r_mmod_Bend_Energy-OPLS-2005>
209.224319458008

> <r_mmod_Torsional_Energy-OPLS-2005>
228.968276977539

> <r_mmod_Improper_Torsional_Energy-OPLS-2005>
6.94452857971191

> <r_mmod_Van_der_Waal_Energy-OPLS-2005>
132.180786132812

> <r_mmod_Electrostatic_Energy-OPLS-2005>
-596.028076171875

> <r_mmod_Solvation_Energy-OPLS-2005>
-228.000305175781

> <b_mmod_Minimization_Converged-OPLS-2005>
0

> <r_mmod_RMS_Derivative-OPLS-2005>
1.92697858810425

$$$$
37
                    3D
 Structure written by MMmdl.
156164  0  0  1  0            999 V2000
  -30.5782  -15.0278   20.4049 C   0  0  0  0  0  0
  -30.4210  -12.6563   19.5029 C   0  0  0  0  0  0
  -29.5150  -12.5369   18.2554 C   0  0  0  0  0  0
  -28.0524  -12.3067   18.6756 C   0  0  0  0  0  0
  -27.6160  -13.2569   19.8208 C   0  0  2  0  0  0
  -28.6539  -13.3369   20.9533 C   0  0  0  0  0  0
  -25.2433  -13.8232   20.5739 C   0  0  0  0  0  0
  -24.1752  -13.0445   20.9200 C   0  0  0  0  0  0
  -24.6369  -11.6922   20.8719 C   0  0  0  0  0  0
  -23.9060  -10.4289   21.0390 C   0  0  0  0  0  0
  -24.3608   -9.4211   21.9178 C   0  0  0  0  0  0
  -23.6289   -8.2242   22.0745 C   0  0  0  0  0  0
  -22.4271   -8.0278   21.3543 C   0  0  0  0  0  0
  -21.9906   -9.0247   20.4647 C   0  0  0  0  0  0
  -22.7225  -10.2127   20.3055 C   0  0  0  0  0  0
  -21.6858   -6.0726   22.5278 C   0  0  0  0  0  0
  -21.4022   -6.5629   23.8208 C   0  0  0  0  0  0
  -21.3652   -5.6784   24.9174 C   0  0  0  0  0  0
  -21.6050   -4.3048   24.7232 C   0  0  0  0  0  0
  -21.8814   -3.8135   23.4355 C   0  0  0  0  0  0
  -21.9196   -4.6952   22.3408 C   0  0  0  0  0  0
  -22.7782  -13.5214   21.1859 C   0  0  0  0  0  0
  -22.1663   -4.2131   21.0983 F   0  0  0  0  0  0
  -21.5635   -3.4530   25.7743 F   0  0  0  0  0  0
  -29.9079  -13.7936   20.3371 N   0  0  0  0  0  0
  -26.2826  -12.9470   20.3190 N   0  0  0  0  0  0
  -25.9301  -11.6587   20.5688 N   0  0  0  0  0  0
  -22.0456  -12.8212   22.0438 N   0  0  0  0  0  0
  -25.4145  -15.1970   20.4291 N   0  0  0  0  0  0
  -31.7975  -14.9595   20.2245 O   0  0  0  0  0  0
  -21.6644   -6.8872   21.4242 O   0  0  0  0  0  0
  -22.3451  -14.5511   20.6687 O   0  0  0  0  0  0
  -24.6488  -31.8385   23.1837 C   0  0  0  0  0  0
  -25.9244  -32.4661   23.8240 C   0  0  1  0  0  0
  -27.2011  -27.0724   20.1653 C   0  0  0  0  0  0
  -25.5966  -33.8472   24.2160 N   0  0  0  0  0  0
  -23.4539  -30.4572   21.5304 C   0  0  2  0  0  0
  -24.9023  -28.8733   20.1132 C   0  0  0  0  0  0
  -22.7586  -29.4516   22.4833 C   0  0  0  0  0  0
  -18.0313  -28.1400   22.8470 C   0  0  0  0  0  0
  -24.1492  -36.7242   23.2640 C   0  0  0  0  0  0
  -26.0143  -30.6929   21.3911 C   0  0  0  0  0  0
  -26.0836  -29.2975   20.7357 C   0  0  0  0  0  0
  -27.2370  -28.4156   20.7394 C   0  0  0  0  0  0
  -25.9988  -26.7710   19.4891 C   0  0  0  0  0  0
  -24.8770  -27.6277   19.4715 C   0  0  0  0  0  0
  -23.6842  -29.7845   20.1513 C   0  0  0  0  0  0
  -25.4122  -36.3011   24.0311 C   0  0  1  0  0  0
  -20.5927  -28.3733   23.1220 C   0  0  2  0  0  0
  -20.6794  -26.9434   22.5400 C   0  0  0  0  0  0
  -19.5766  -26.6381   21.5207 C   0  0  0  0  0  0
  -18.1950  -26.7933   22.1620 C   0  0  0  0  0  0
  -19.1570  -28.8884   23.2840 C   0  0  0  0  0  0
  -18.9480  -30.1479   23.8869 C   0  0  0  0  0  0
  -17.6476  -30.6601   24.0558 C   0  0  0  0  0  0
  -25.9078  -34.9388   23.5043 C   0  0  0  0  0  0
  -16.5370  -29.9085   23.6342 C   0  0  0  0  0  0
  -16.7293  -28.6504   23.0361 C   0  0  0  0  0  0
  -26.4550  -31.6547   25.0708 C   0  0  0  0  0  0
  -25.3721  -31.3761   26.1394 C   0  0  0  0  0  0
  -27.0408  -30.2924   24.6333 C   0  0  0  0  0  0
  -27.6063  -32.4324   25.7504 C   0  0  0  0  0  0
  -27.5572  -37.1779   24.8466 C   0  0  0  0  0  0
  -21.4270  -29.3052   22.3583 N   0  0  0  0  0  0
  -26.4279  -37.3733   23.9410 N   0  0  0  0  0  0
  -24.7258  -31.0192   22.0895 N   0  0  0  0  0  0
  -23.4200  -28.8062   23.3006 O   0  0  0  0  0  0
  -28.2314  -26.0468   20.2002 O   0  0  0  0  0  0
  -26.5660  -34.8894   22.4624 O   0  0  0  0  0  0
  -23.5594  -32.1283   23.7025 O   0  0  0  0  0  0
  -27.4675  -16.9946   22.8880 C   0  0  0  0  0  0
  -26.7047  -18.0476   22.3928 C   0  0  0  0  0  0
  -28.6219  -16.6228   22.1984 C   0  0  0  0  0  0
  -27.1972  -18.8720   21.3667 C   0  0  0  0  0  0
  -28.5208  -18.7233   20.8298 C   0  0  0  0  0  0
  -29.0928  -17.3044   21.0496 C   0  0  0  0  0  0
  -26.1795  -19.8786   20.8393 C   0  0  0  0  0  0
  -29.0678  -20.1692   20.1695 C   0  0  0  0  0  0
  -28.8153  -23.0848   20.0618 C   0  0  0  0  0  0
  -27.9322  -24.5083   20.4676 C   0  0  0  0  0  0
  -30.0070  -16.3536   20.2710 N   0  0  0  0  0  0
  -28.4804  -21.6105   20.6230 N   0  3  0  0  0  0
  -31.4538  -12.8046   19.1839 H   0  0  0  0  0  0
  -30.4271  -11.7245   20.0714 H   0  0  0  0  0  0
  -29.8550  -11.7260   17.6100 H   0  0  0  0  0  0
  -29.5861  -13.4514   17.6651 H   0  0  0  0  0  0
  -27.9654  -11.2714   19.0058 H   0  0  0  0  0  0
  -27.3847  -12.4081   17.8195 H   0  0  0  0  0  0
  -27.5602  -14.2485   19.3694 H   0  0  0  0  0  0
  -28.7775  -12.3717   21.4476 H   0  0  0  0  0  0
  -28.3000  -14.0187   21.7195 H   0  0  0  0  0  0
  -25.2754   -9.5700   22.4753 H   0  0  0  0  0  0
  -24.0002   -7.4635   22.7461 H   0  0  0  0  0  0
  -21.0839   -8.8767   19.8960 H   0  0  0  0  0  0
  -22.3677  -10.9665   19.6166 H   0  0  0  0  0  0
  -21.2022   -7.6130   23.9718 H   0  0  0  0  0  0
  -21.1479   -6.0504   25.9075 H   0  0  0  0  0  0
  -22.0604   -2.7592   23.2856 H   0  0  0  0  0  0
  -22.4065  -11.9870   22.4830 H   0  0  0  0  0  0
  -21.1068  -13.1225   22.2646 H   0  0  0  0  0  0
  -24.6679  -15.8558   20.6192 H   0  0  0  0  0  0
  -26.3001  -15.6495   20.2374 H   0  0  0  0  0  0
  -26.7300  -32.5248   23.0952 H   0  0  0  0  0  0
  -25.0106  -33.9582   25.0299 H   0  0  0  0  0  0
  -22.7609  -31.2861   21.3726 H   0  0  0  0  0  0
  -23.3757  -35.9571   23.3281 H   0  0  0  0  0  0
  -24.3573  -36.8899   22.2059 H   0  0  0  0  0  0
  -23.7250  -37.6433   23.6690 H   0  0  0  0  0  0
  -26.1748  -31.4429   20.6148 H   0  0  0  0  0  0
  -26.8816  -30.7466   22.0379 H   0  0  0  0  0  0
  -28.1380  -28.7362   21.2439 H   0  0  0  0  0  0
  -25.8965  -25.8296   18.9700 H   0  0  0  0  0  0
  -23.9810  -27.3067   18.9591 H   0  0  0  0  0  0
  -23.8271  -30.5569   19.3942 H   0  0  0  0  0  0
  -22.7964  -29.2313   19.8391 H   0  0  0  0  0  0
  -25.1312  -36.1826   25.0803 H   0  0  0  0  0  0
  -21.0013  -28.3331   24.1340 H   0  0  0  0  0  0
  -20.5680  -26.2349   23.3623 H   0  0  0  0  0  0
  -21.6659  -26.7433   22.1207 H   0  0  0  0  0  0
  -19.6933  -25.6278   21.1266 H   0  0  0  0  0  0
  -19.6711  -27.3165   20.6713 H   0  0  0  0  0  0
  -17.4220  -26.6677   21.4030 H   0  0  0  0  0  0
  -18.0364  -26.0085   22.9026 H   0  0  0  0  0  0
  -19.7957  -30.7304   24.2227 H   0  0  0  0  0  0
  -17.5029  -31.6274   24.5159 H   0  0  0  0  0  0
  -15.5365  -30.2975   23.7681 H   0  0  0  0  0  0
  -15.8694  -28.0808   22.7092 H   0  0  0  0  0  0
  -24.5908  -30.7102   25.7710 H   0  0  0  0  0  0
  -24.8907  -32.2949   26.4742 H   0  0  0  0  0  0
  -25.7986  -30.8984   27.0223 H   0  0  0  0  0  0
  -26.3029  -29.6646   24.1320 H   0  0  0  0  0  0
  -27.3958  -29.7239   25.4940 H   0  0  0  0  0  0
  -27.8971  -30.4123   23.9694 H   0  0  0  0  0  0
  -27.2638  -33.3641   26.2018 H   0  0  0  0  0  0
  -28.3906  -32.6858   25.0361 H   0  0  0  0  0  0
  -28.0694  -31.8502   26.5483 H   0  0  0  0  0  0
  -28.2575  -38.0091   24.7497 H   0  0  0  0  0  0
  -28.1080  -36.2609   24.6297 H   0  0  0  0  0  0
  -27.2286  -37.1431   25.8872 H   0  0  0  0  0  0
  -20.9487  -29.8763   21.6759 H   0  0  0  0  0  0
  -26.0139  -38.2801   24.1409 H   0  0  0  0  0  0
  -27.1065  -16.3981   23.7150 H   0  0  0  0  0  0
  -25.7282  -18.2317   22.8196 H   0  0  0  0  0  0
  -29.1149  -15.7322   22.5535 H   0  0  0  0  0  0
  -25.1981  -19.4048   20.7831 H   0  0  0  0  0  0
  -26.3973  -20.2091   19.8236 H   0  0  0  0  0  0
  -26.0763  -20.7360   21.5053 H   0  0  0  0  0  0
  -28.9360  -20.0869   19.0904 H   0  0  0  0  0  0
  -30.1458  -20.1992   20.3261 H   0  0  0  0  0  0
  -29.8567  -23.2676   20.3240 H   0  0  0  0  0  0
  -28.8059  -23.0091   18.9741 H   0  0  0  0  0  0
  -27.8367  -24.4733   21.5535 H   0  0  0  0  0  0
  -26.9177  -24.3160   20.1223 H   0  0  0  0  0  0
  -30.6342  -16.8864   19.6857 H   0  0  0  0  0  0
  -28.6382  -21.6501   21.6173 H   0  0  0  0  0  0
  -27.4848  -21.5034   20.5110 H   0  0  0  0  0  0
  1 25  1  0  0  0
  1 30  2  0  0  0
  1 81  1  0  0  0
  2  3  1  0  0  0
  2 25  1  0  0  0
  2 83  1  0  0  0
  2 84  1  0  0  0
  3  4  1  0  0  0
  3 85  1  0  0  0
  3 86  1  0  0  0
  4  5  1  0  0  0
  4 87  1  0  0  0
  4 88  1  0  0  0
  5  6  1  0  0  0
  5 26  1  0  0  0
  5 89  1  0  0  0
  6 25  1  0  0  0
  6 90  1  0  0  0
  6 91  1  0  0  0
  7  8  2  0  0  0
  7 26  1  0  0  0
  7 29  1  0  0  0
  8  9  1  0  0  0
  8 22  1  0  0  0
  9 10  1  0  0  0
  9 27  2  0  0  0
 10 11  2  0  0  0
 10 15  1  0  0  0
 11 12  1  0  0  0
 11 92  1  0  0  0
 12 13  2  0  0  0
 12 93  1  0  0  0
 13 14  1  0  0  0
 13 31  1  0  0  0
 14 15  2  0  0  0
 14 94  1  0  0  0
 15 95  1  0  0  0
 16 17  2  0  0  0
 16 21  1  0  0  0
 16 31  1  0  0  0
 17 18  1  0  0  0
 17 96  1  0  0  0
 18 19  2  0  0  0
 18 97  1  0  0  0
 19 20  1  0  0  0
 19 24  1  0  0  0
 20 21  2  0  0  0
 20 98  1  0  0  0
 21 23  1  0  0  0
 22 28  1  0  0  0
 22 32  2  0  0  0
 26 27  1  0  0  0
 28 99  1  0  0  0
 28100  1  0  0  0
 29101  1  0  0  0
 29102  1  0  0  0
 33 34  1  0  0  0
 33 66  1  0  0  0
 33 70  2  0  0  0
 34 36  1  0  0  0
 34 59  1  0  0  0
 34103  1  0  0  0
 35 44  2  0  0  0
 35 45  1  0  0  0
 35 68  1  0  0  0
 36 56  1  0  0  0
 36104  1  0  0  0
 37 39  1  0  0  0
 37 47  1  0  0  0
 37 66  1  0  0  0
 37105  1  0  0  0
 38 43  2  0  0  0
 38 46  1  0  0  0
 38 47  1  0  0  0
 39 64  1  0  0  0
 39 67  2  0  0  0
 40 52  1  0  0  0
 40 53  2  0  0  0
 40 58  1  0  0  0
 41106  1  0  0  0
 41107  1  0  0  0
 41108  1  0  0  0
 41 48  1  0  0  0
 42 43  1  0  0  0
 42 66  1  0  0  0
 42109  1  0  0  0
 42110  1  0  0  0
 43 44  1  0  0  0
 44111  1  0  0  0
 45 46  2  0  0  0
 45112  1  0  0  0
 46113  1  0  0  0
 47114  1  0  0  0
 47115  1  0  0  0
 48 56  1  0  0  0
 48 65  1  0  0  0
 48116  1  0  0  0
 49 50  1  0  0  0
 49 53  1  0  0  0
 49 64  1  0  0  0
 49117  1  0  0  0
 50 51  1  0  0  0
 50118  1  0  0  0
 50119  1  0  0  0
 51 52  1  0  0  0
 51120  1  0  0  0
 51121  1  0  0  0
 52122  1  0  0  0
 52123  1  0  0  0
 53 54  1  0  0  0
 54 55  2  0  0  0
 54124  1  0  0  0
 55 57  1  0  0  0
 55125  1  0  0  0
 56 69  2  0  0  0
 57 58  2  0  0  0
 57126  1  0  0  0
 58127  1  0  0  0
 59 60  1  0  0  0
 59 61  1  0  0  0
 59 62  1  0  0  0
 60128  1  0  0  0
 60129  1  0  0  0
 60130  1  0  0  0
 61131  1  0  0  0
 61132  1  0  0  0
 61133  1  0  0  0
 62134  1  0  0  0
 62135  1  0  0  0
 62136  1  0  0  0
 63 65  1  0  0  0
 63137  1  0  0  0
 63138  1  0  0  0
 63139  1  0  0  0
 64140  1  0  0  0
 65141  1  0  0  0
 68 80  1  0  0  0
 71 72  2  0  0  0
 71 73  1  0  0  0
 71142  1  0  0  0
 72 74  1  0  0  0
 72143  1  0  0  0
 73 76  2  0  0  0
 73144  1  0  0  0
 74 75  2  0  0  0
 74 77  1  0  0  0
 75 76  1  0  0  0
 75 78  1  0  0  0
 76 81  1  0  0  0
 77145  1  0  0  0
 77146  1  0  0  0
 77147  1  0  0  0
 78 82  1  0  0  0
 78148  1  0  0  0
 78149  1  0  0  0
 79 80  1  0  0  0
 79 82  1  0  0  0
 79150  1  0  0  0
 79151  1  0  0  0
 80152  1  0  0  0
 80153  1  0  0  0
 81154  1  0  0  0
 82155  1  0  0  0
 82156  1  0  0  0
M  CHG  1  82   1
M  ISO  4   1 100  68 101  80 101  81 100
M  END
> <chiral flag>
0

> <version>
0

> <s_m_source_file>
/data/baiqing/PycharmProjects/Reinvent-master-3.2/result/LINK_invent/BTK/process_docking_weight1_custom_sum_contain_oxygen_bond_distance_aromatic_linkinvent_7_9_3/rearranged_h_0135.sdf

> <i_m_source_file_index>
38

> <r_mmod_Potential_Energy-OPLS-2005>
747.722778320312

> <r_mmod_Stretch_Energy-OPLS-2005>
360.440704345703

> <r_mmod_Bend_Energy-OPLS-2005>
379.749450683594

> <r_mmod_Torsional_Energy-OPLS-2005>
329.413055419922

> <r_mmod_Improper_Torsional_Energy-OPLS-2005>
13.4041194915771

> <r_mmod_Van_der_Waal_Energy-OPLS-2005>
140.927185058594

> <r_mmod_Electrostatic_Energy-OPLS-2005>
-269.224975585938

> <r_mmod_Solvation_Energy-OPLS-2005>
-458.622802734375

> <b_mmod_Minimization_Converged-OPLS-2005>
0

> <r_mmod_RMS_Derivative-OPLS-2005>
2.1441342830658

$$$$
38
                    3D
 Structure written by MMmdl.
175185  0  0  1  0            999 V2000
  -30.5594  -14.8530   20.4363 C   0  0  0  0  0  0
  -30.4343  -12.5206   19.5014 C   0  0  0  0  0  0
  -29.5196  -12.5234   18.2547 C   0  0  0  0  0  0
  -28.0475  -12.3278   18.6633 C   0  0  0  0  0  0
  -27.6363  -13.2406   19.8496 C   0  0  2  0  0  0
  -28.6746  -13.2176   20.9924 C   0  0  0  0  0  0
  -25.2486  -13.8208   20.5696 C   0  0  0  0  0  0
  -24.1793  -13.0443   20.9213 C   0  0  0  0  0  0
  -24.6394  -11.6924   20.8751 C   0  0  0  0  0  0
  -23.9076  -10.4296   21.0409 C   0  0  0  0  0  0
  -24.3628   -9.4210   21.9187 C   0  0  0  0  0  0
  -23.6300   -8.2246   22.0755 C   0  0  0  0  0  0
  -22.4282   -8.0285   21.3544 C   0  0  0  0  0  0
  -21.9920   -9.0258   20.4646 C   0  0  0  0  0  0
  -22.7249  -10.2137   20.3058 C   0  0  0  0  0  0
  -21.6856   -6.0742   22.5281 C   0  0  0  0  0  0
  -21.4015   -6.5645   23.8215 C   0  0  0  0  0  0
  -21.3658   -5.6797   24.9176 C   0  0  0  0  0  0
  -21.6044   -4.3060   24.7224 C   0  0  0  0  0  0
  -21.8819   -3.8153   23.4347 C   0  0  0  0  0  0
  -21.9193   -4.6971   22.3404 C   0  0  0  0  0  0
  -22.7815  -13.5223   21.1871 C   0  0  0  0  0  0
  -22.1661   -4.2159   21.0982 F   0  0  0  0  0  0
  -21.5627   -3.4543   25.7736 F   0  0  0  0  0  0
  -29.9656  -13.6008   20.4114 N   0  0  0  0  0  0
  -26.2909  -12.9420   20.3269 N   0  0  0  0  0  0
  -25.9326  -11.6557   20.5746 N   0  0  0  0  0  0
  -22.0462  -12.8212   22.0422 N   0  0  0  0  0  0
  -25.4182  -15.1932   20.4118 N   0  0  0  0  0  0
  -31.7448  -14.9410   20.1007 O   0  0  0  0  0  0
  -21.6644   -6.8885   21.4242 O   0  0  0  0  0  0
  -22.3502  -14.5526   20.6715 O   0  0  0  0  0  0
  -24.6369  -31.8476   23.1917 C   0  0  0  0  0  0
  -25.9173  -32.4707   23.8281 C   0  0  1  0  0  0
  -27.2172  -27.1720   20.1589 C   0  0  0  0  0  0
  -25.5950  -33.8513   24.2208 N   0  0  0  0  0  0
  -23.4379  -30.4658   21.5357 C   0  0  2  0  0  0
  -24.8854  -28.8899   20.1150 C   0  0  0  0  0  0
  -22.7525  -29.4564   22.4893 C   0  0  0  0  0  0
  -18.0290  -28.1394   22.8480 C   0  0  0  0  0  0
  -24.1495  -36.7260   23.2644 C   0  0  0  0  0  0
  -25.9885  -30.7281   21.3888 C   0  0  0  0  0  0
  -26.0545  -29.3389   20.7405 C   0  0  0  0  0  0
  -27.2155  -28.4906   20.7540 C   0  0  0  0  0  0
  -26.0346  -26.8198   19.4755 C   0  0  0  0  0  0
  -24.8844  -27.6408   19.4711 C   0  0  0  0  0  0
  -23.6616  -29.7898   20.1556 C   0  0  0  0  0  0
  -25.4125  -36.3041   24.0321 C   0  0  1  0  0  0
  -20.5895  -28.3711   23.1257 C   0  0  2  0  0  0
  -20.6782  -26.9423   22.5409 C   0  0  0  0  0  0
  -19.5758  -26.6379   21.5216 C   0  0  0  0  0  0
  -18.1930  -26.7935   22.1618 C   0  0  0  0  0  0
  -19.1544  -28.8870   23.2859 C   0  0  0  0  0  0
  -18.9468  -30.1471   23.8883 C   0  0  0  0  0  0
  -17.6471  -30.6596   24.0558 C   0  0  0  0  0  0
  -25.9073  -34.9414   23.5073 C   0  0  0  0  0  0
  -16.5357  -29.9089   23.6341 C   0  0  0  0  0  0
  -16.7278  -28.6507   23.0363 C   0  0  0  0  0  0
  -26.4515  -31.6569   25.0709 C   0  0  0  0  0  0
  -25.3712  -31.3746   26.1414 C   0  0  0  0  0  0
  -27.0386  -30.2975   24.6280 C   0  0  0  0  0  0
  -27.6065  -32.4328   25.7479 C   0  0  0  0  0  0
  -27.5577  -37.1783   24.8466 C   0  0  0  0  0  0
  -21.4225  -29.3043   22.3638 N   0  0  0  0  0  0
  -26.4289  -37.3751   23.9409 N   0  0  0  0  0  0
  -24.7068  -31.0359   22.0938 N   0  0  0  0  0  0
  -23.4190  -28.8127   23.3037 O   0  0  0  0  0  0
  -28.3445  -26.2935   20.1710 O   0  0  0  0  0  0
  -26.5648  -34.8905   22.4646 O   0  0  0  0  0  0
  -23.5504  -32.1347   23.7165 O   0  0  0  0  0  0
  -27.7934  -22.3745   19.9874 C   0  0  0  0  0  0
  -27.4818  -23.7976   20.0117 C   0  0  0  0  0  0
  -29.7221  -24.2567   20.5520 C   0  0  0  0  0  0
  -29.0989  -21.8101   20.2093 C   0  0  0  0  0  0
  -30.0481  -22.8445   20.5450 C   0  0  0  0  0  0
  -28.4495  -24.8349   20.2518 C   0  0  0  0  0  0
  -29.5465  -21.1210   17.3625 C   0  0  0  0  0  0
  -29.9269  -18.6920   17.7990 C   0  0  0  0  0  0
  -33.2701  -20.0591   23.3962 C   0  0  0  0  0  0
  -33.4500  -19.8375   21.9116 C   0  0  0  0  0  0
  -29.5659  -17.4098   18.5628 C   0  0  0  0  0  0
  -29.3047  -18.8530   20.6506 C   0  0  0  0  0  0
  -29.5418  -20.2645   19.8055 C   0  0  1  0  0  0
  -29.1986  -19.9607   18.3143 C   0  0  1  0  0  0
  -33.0312  -21.1944   22.4292 C   0  0  0  0  0  0
  -29.9853  -17.4581   20.0429 C   0  0  1  0  0  0
  -28.4094  -21.7425   16.5646 C   0  0  0  0  0  0
  -31.4969  -22.4861   20.8659 C   0  0  0  0  0  0
  -31.6295  -21.7199   22.1923 C   0  0  0  0  0  0
  -29.7724  -16.0125   20.6003 N   0  0  0  0  0  0
  -30.7061  -21.5187   17.2196 O   0  0  0  0  0  0
  -31.4746  -12.6573   19.2020 H   0  0  0  0  0  0
  -30.3959  -11.5537   20.0059 H   0  0  0  0  0  0
  -29.8228  -11.7388   17.5601 H   0  0  0  0  0  0
  -29.6308  -13.4673   17.7181 H   0  0  0  0  0  0
  -27.9216  -11.2808   18.9411 H   0  0  0  0  0  0
  -27.3906  -12.4955   17.8089 H   0  0  0  0  0  0
  -27.6167  -14.2547   19.4495 H   0  0  0  0  0  0
  -28.7325  -12.2286   21.4490 H   0  0  0  0  0  0
  -28.3886  -13.9075   21.7880 H   0  0  0  0  0  0
  -25.2774   -9.5688   22.4762 H   0  0  0  0  0  0
  -24.0013   -7.4638   22.7473 H   0  0  0  0  0  0
  -21.0853   -8.8776   19.8950 H   0  0  0  0  0  0
  -22.3710  -10.9676   19.6167 H   0  0  0  0  0  0
  -21.2008   -7.6153   23.9722 H   0  0  0  0  0  0
  -21.1479   -6.0527   25.9080 H   0  0  0  0  0  0
  -22.0599   -2.7616   23.2844 H   0  0  0  0  0  0
  -22.4089  -11.9880   22.4811 H   0  0  0  0  0  0
  -21.1076  -13.1227   22.2617 H   0  0  0  0  0  0
  -24.6502  -15.8463   20.5221 H   0  0  0  0  0  0
  -26.2622  -15.6308   20.0658 H   0  0  0  0  0  0
  -26.7233  -32.5325   23.1004 H   0  0  0  0  0  0
  -25.0095  -33.9638   25.0355 H   0  0  0  0  0  0
  -22.7381  -31.2894   21.3804 H   0  0  0  0  0  0
  -23.3772  -35.9577   23.3288 H   0  0  0  0  0  0
  -24.3581  -36.8909   22.2063 H   0  0  0  0  0  0
  -23.7237  -37.6445   23.6689 H   0  0  0  0  0  0
  -26.1399  -31.4806   20.6137 H   0  0  0  0  0  0
  -26.8625  -30.7798   22.0263 H   0  0  0  0  0  0
  -28.1116  -28.8315   21.2538 H   0  0  0  0  0  0
  -25.9864  -25.8920   18.9294 H   0  0  0  0  0  0
  -23.9970  -27.3002   18.9553 H   0  0  0  0  0  0
  -23.7941  -30.5612   19.3962 H   0  0  0  0  0  0
  -22.7777  -29.2265   19.8509 H   0  0  0  0  0  0
  -25.1314  -36.1869   25.0814 H   0  0  0  0  0  0
  -20.9973  -28.3297   24.1383 H   0  0  0  0  0  0
  -20.5685  -26.2328   23.3623 H   0  0  0  0  0  0
  -21.6650  -26.7440   22.1201 H   0  0  0  0  0  0
  -19.6930  -25.6285   21.1260 H   0  0  0  0  0  0
  -19.6704  -27.3173   20.6734 H   0  0  0  0  0  0
  -17.4205  -26.6690   21.4011 H   0  0  0  0  0  0
  -18.0319  -26.0075   22.9013 H   0  0  0  0  0  0
  -19.7946  -30.7285   24.2247 H   0  0  0  0  0  0
  -17.5023  -31.6278   24.5158 H   0  0  0  0  0  0
  -15.5361  -30.2987   23.7684 H   0  0  0  0  0  0
  -15.8673  -28.0819   22.7099 H   0  0  0  0  0  0
  -24.5894  -30.7093   25.7729 H   0  0  0  0  0  0
  -24.8895  -32.2924   26.4801 H   0  0  0  0  0  0
  -25.7999  -30.8937   27.0216 H   0  0  0  0  0  0
  -26.2999  -29.6683   24.1302 H   0  0  0  0  0  0
  -27.4031  -29.7283   25.4842 H   0  0  0  0  0  0
  -27.8889  -30.4228   23.9573 H   0  0  0  0  0  0
  -27.2692  -33.3669   26.1978 H   0  0  0  0  0  0
  -28.3907  -32.6816   25.0317 H   0  0  0  0  0  0
  -28.0695  -31.8496   26.5449 H   0  0  0  0  0  0
  -28.2587  -38.0084   24.7513 H   0  0  0  0  0  0
  -28.1075  -36.2614   24.6290 H   0  0  0  0  0  0
  -27.2289  -37.1429   25.8866 H   0  0  0  0  0  0
  -20.9430  -29.8739   21.6804 H   0  0  0  0  0  0
  -26.0160  -38.2821   24.1408 H   0  0  0  0  0  0
  -26.9941  -21.6987   19.7166 H   0  0  0  0  0  0
  -26.4605  -24.0667   19.7979 H   0  0  0  0  0  0
  -30.5166  -24.9559   20.7713 H   0  0  0  0  0  0
  -29.6862  -18.5396   16.7453 H   0  0  0  0  0  0
  -31.0077  -18.8383   17.8382 H   0  0  0  0  0  0
  -34.1666  -20.1024   24.0121 H   0  0  0  0  0  0
  -32.4040  -19.6012   23.8707 H   0  0  0  0  0  0
  -32.7021  -19.2327   21.4014 H   0  0  0  0  0  0
  -34.4675  -19.7296   21.5395 H   0  0  0  0  0  0
  -30.0520  -16.5682   18.0665 H   0  0  0  0  0  0
  -28.4920  -17.2290   18.4856 H   0  0  0  0  0  0
  -28.2301  -18.6985   20.7500 H   0  0  0  0  0  0
  -29.6713  -18.9911   21.6674 H   0  0  0  0  0  0
  -30.6260  -20.3045   19.8008 H   0  0  0  0  0  0
  -28.1228  -19.7989   18.2397 H   0  0  0  0  0  0
  -33.7973  -21.9684   22.4169 H   0  0  0  0  0  0
  -31.0652  -17.6147   20.0735 H   0  0  0  0  0  0
  -27.4582  -21.6091   17.0791 H   0  0  0  0  0  0
  -28.3420  -21.2727   15.5837 H   0  0  0  0  0  0
  -28.5798  -22.8103   16.4309 H   0  0  0  0  0  0
  -32.0982  -23.3936   20.9300 H   0  0  0  0  0  0
  -31.9374  -21.9314   20.0385 H   0  0  0  0  0  0
  -31.3495  -22.3694   23.0225 H   0  0  0  0  0  0
  -30.9375  -20.8797   22.2184 H   0  0  0  0  0  0
  -28.8374  -15.8218   20.9282 H   0  0  0  0  0  0
  1 25  1  0  0  0
  1 30  2  0  0  0
  1 90  1  0  0  0
  2  3  1  0  0  0
  2 25  1  0  0  0
  2 92  1  0  0  0
  2 93  1  0  0  0
  3  4  1  0  0  0
  3 94  1  0  0  0
  3 95  1  0  0  0
  4  5  1  0  0  0
  4 96  1  0  0  0
  4 97  1  0  0  0
  5  6  1  0  0  0
  5 26  1  0  0  0
  5 98  1  0  0  0
  6 25  1  0  0  0
  6 99  1  0  0  0
  6100  1  0  0  0
  7  8  2  0  0  0
  7 26  1  0  0  0
  7 29  1  0  0  0
  8  9  1  0  0  0
  8 22  1  0  0  0
  9 10  1  0  0  0
  9 27  2  0  0  0
 10 11  2  0  0  0
 10 15  1  0  0  0
 11 12  1  0  0  0
 11101  1  0  0  0
 12 13  2  0  0  0
 12102  1  0  0  0
 13 14  1  0  0  0
 13 31  1  0  0  0
 14 15  2  0  0  0
 14103  1  0  0  0
 15104  1  0  0  0
 16 17  2  0  0  0
 16 21  1  0  0  0
 16 31  1  0  0  0
 17 18  1  0  0  0
 17105  1  0  0  0
 18 19  2  0  0  0
 18106  1  0  0  0
 19 20  1  0  0  0
 19 24  1  0  0  0
 20 21  2  0  0  0
 20107  1  0  0  0
 21 23  1  0  0  0
 22 28  1  0  0  0
 22 32  2  0  0  0
 26 27  1  0  0  0
 28108  1  0  0  0
 28109  1  0  0  0
 29110  1  0  0  0
 29111  1  0  0  0
 33 34  1  0  0  0
 33 66  1  0  0  0
 33 70  2  0  0  0
 34 36  1  0  0  0
 34 59  1  0  0  0
 34112  1  0  0  0
 35 44  2  0  0  0
 35 45  1  0  0  0
 35 68  1  0  0  0
 36 56  1  0  0  0
 36113  1  0  0  0
 37 39  1  0  0  0
 37 47  1  0  0  0
 37 66  1  0  0  0
 37114  1  0  0  0
 38 43  2  0  0  0
 38 46  1  0  0  0
 38 47  1  0  0  0
 39 64  1  0  0  0
 39 67  2  0  0  0
 40 52  1  0  0  0
 40 53  2  0  0  0
 40 58  1  0  0  0
 41115  1  0  0  0
 41116  1  0  0  0
 41117  1  0  0  0
 41 48  1  0  0  0
 42 43  1  0  0  0
 42 66  1  0  0  0
 42118  1  0  0  0
 42119  1  0  0  0
 43 44  1  0  0  0
 44120  1  0  0  0
 45 46  2  0  0  0
 45121  1  0  0  0
 46122  1  0  0  0
 47123  1  0  0  0
 47124  1  0  0  0
 48 56  1  0  0  0
 48 65  1  0  0  0
 48125  1  0  0  0
 49 50  1  0  0  0
 49 53  1  0  0  0
 49 64  1  0  0  0
 49126  1  0  0  0
 50 51  1  0  0  0
 50127  1  0  0  0
 50128  1  0  0  0
 51 52  1  0  0  0
 51129  1  0  0  0
 51130  1  0  0  0
 52131  1  0  0  0
 52132  1  0  0  0
 53 54  1  0  0  0
 54 55  2  0  0  0
 54133  1  0  0  0
 55 57  1  0  0  0
 55134  1  0  0  0
 56 69  2  0  0  0
 57 58  2  0  0  0
 57135  1  0  0  0
 58136  1  0  0  0
 59 60  1  0  0  0
 59 61  1  0  0  0
 59 62  1  0  0  0
 60137  1  0  0  0
 60138  1  0  0  0
 60139  1  0  0  0
 61140  1  0  0  0
 61141  1  0  0  0
 61142  1  0  0  0
 62143  1  0  0  0
 62144  1  0  0  0
 62145  1  0  0  0
 63 65  1  0  0  0
 63146  1  0  0  0
 63147  1  0  0  0
 63148  1  0  0  0
 64149  1  0  0  0
 65150  1  0  0  0
 68 76  1  0  0  0
 71 72  2  0  0  0
 71 74  1  0  0  0
 71151  1  0  0  0
 72 76  1  0  0  0
 72152  1  0  0  0
 73 75  1  0  0  0
 73 76  2  0  0  0
 73153  1  0  0  0
 74 75  2  0  0  0
 74 83  1  0  0  0
 75 88  1  0  0  0
 77 87  1  0  0  0
 77 91  2  0  0  0
 77 84  1  0  0  0
 78 81  1  0  0  0
 78 84  1  0  0  0
 78154  1  0  0  0
 78155  1  0  0  0
 79 80  1  0  0  0
 79 85  1  0  0  0
 79156  1  0  0  0
 79157  1  0  0  0
 80 85  1  0  0  0
 80158  1  0  0  0
 80159  1  0  0  0
 81 86  1  0  0  0
 81160  1  0  0  0
 81161  1  0  0  0
 82 83  1  0  0  0
 82 86  1  0  0  0
 82162  1  0  0  0
 82163  1  0  0  0
 83 84  1  0  0  0
 83164  1  0  0  0
 84165  1  0  0  0
 85 89  1  0  0  0
 85166  1  0  0  0
 86 90  1  0  0  0
 86167  1  0  0  0
 87168  1  0  0  0
 87169  1  0  0  0
 87170  1  0  0  0
 88 89  1  0  0  0
 88171  1  0  0  0
 88172  1  0  0  0
 89173  1  0  0  0
 89174  1  0  0  0
 90175  1  0  0  0
M  ISO  4   1 100  68 101  76 101  90 100
M  END
> <chiral flag>
0

> <version>
0

> <s_m_source_file>
/data/baiqing/PycharmProjects/Reinvent-master-3.2/result/LINK_invent/BTK/process_docking_weight1_custom_sum_contain_oxygen_bond_distance_aromatic_linkinvent_7_9_3/rearranged_h_0135.sdf

> <i_m_source_file_index>
39

> <r_mmod_Potential_Energy-OPLS-2005>
424.747406005859

> <r_mmod_Stretch_Energy-OPLS-2005>
197.064529418945

> <r_mmod_Bend_Energy-OPLS-2005>
250.667785644531

> <r_mmod_Torsional_Energy-OPLS-2005>
289.59619140625

> <r_mmod_Improper_Torsional_Energy-OPLS-2005>
8.61829280853271

> <r_mmod_Van_der_Waal_Energy-OPLS-2005>
127.024208068848

> <r_mmod_Electrostatic_Energy-OPLS-2005>
-362.830017089844

> <r_mmod_Solvation_Energy-OPLS-2005>
-219.920822143555

> <b_mmod_Minimization_Converged-OPLS-2005>
0

> <r_mmod_RMS_Derivative-OPLS-2005>
1.0047779083252

$$$$
39
                    3D
 Structure written by MMmdl.
160169  0  0  1  0            999 V2000
  -30.5985  -14.6565   20.4996 C   0  0  0  0  0  0
  -30.4415  -12.4045   19.4374 C   0  0  0  0  0  0
  -29.5049  -12.5163   18.2123 C   0  0  0  0  0  0
  -28.0269  -12.3558   18.6230 C   0  0  0  0  0  0
  -27.6556  -13.2157   19.8618 C   0  0  2  0  0  0
  -28.7018  -13.0547   20.9893 C   0  0  0  0  0  0
  -25.2603  -13.8169   20.5680 C   0  0  0  0  0  0
  -24.1850  -13.0431   20.9193 C   0  0  0  0  0  0
  -24.6408  -11.6908   20.8725 C   0  0  0  0  0  0
  -23.9058  -10.4298   21.0397 C   0  0  0  0  0  0
  -24.3620   -9.4220   21.9171 C   0  0  0  0  0  0
  -23.6307   -8.2251   22.0740 C   0  0  0  0  0  0
  -22.4285   -8.0286   21.3534 C   0  0  0  0  0  0
  -21.9916   -9.0249   20.4628 C   0  0  0  0  0  0
  -22.7234  -10.2137   20.3038 C   0  0  0  0  0  0
  -21.6877   -6.0734   22.5270 C   0  0  0  0  0  0
  -21.4013   -6.5634   23.8198 C   0  0  0  0  0  0
  -21.3655   -5.6789   24.9167 C   0  0  0  0  0  0
  -21.6056   -4.3046   24.7218 C   0  0  0  0  0  0
  -21.8830   -3.8133   23.4340 C   0  0  0  0  0  0
  -21.9193   -4.6956   22.3394 C   0  0  0  0  0  0
  -22.7872  -13.5243   21.1834 C   0  0  0  0  0  0
  -22.1675   -4.2135   21.0978 F   0  0  0  0  0  0
  -21.5629   -3.4535   25.7737 F   0  0  0  0  0  0
  -30.0165  -13.4148   20.4296 N   0  0  0  0  0  0
  -26.3020  -12.9340   20.3306 N   0  0  0  0  0  0
  -25.9330  -11.6507   20.5728 N   0  0  0  0  0  0
  -22.0500  -12.8238   22.0386 N   0  0  0  0  0  0
  -25.4336  -15.1881   20.4109 N   0  0  0  0  0  0
  -31.7477  -14.8536   20.0912 O   0  0  0  0  0  0
  -21.6660   -6.8872   21.4229 O   0  0  0  0  0  0
  -22.3554  -14.5553   20.6674 O   0  0  0  0  0  0
  -24.6268  -31.8561   23.2010 C   0  0  0  0  0  0
  -25.9116  -32.4752   23.8330 C   0  0  1  0  0  0
  -27.2190  -27.2973   20.1128 C   0  0  0  0  0  0
  -25.5954  -33.8561   24.2272 N   0  0  0  0  0  0
  -23.4190  -30.4778   21.5442 C   0  0  2  0  0  0
  -24.8631  -28.9264   20.1062 C   0  0  0  0  0  0
  -22.7480  -29.4581   22.4960 C   0  0  0  0  0  0
  -18.0289  -28.1356   22.8494 C   0  0  0  0  0  0
  -24.1484  -36.7275   23.2634 C   0  0  0  0  0  0
  -25.9614  -30.7785   21.3732 C   0  0  0  0  0  0
  -26.0296  -29.4031   20.7154 C   0  0  0  0  0  0
  -27.2051  -28.5962   20.7118 C   0  0  0  0  0  0
  -26.0356  -26.8805   19.4656 C   0  0  0  0  0  0
  -24.8688  -27.6708   19.4746 C   0  0  0  0  0  0
  -23.6302  -29.8069   20.1597 C   0  0  0  0  0  0
  -25.4109  -36.3071   24.0330 C   0  0  1  0  0  0
  -20.5883  -28.3657   23.1307 C   0  0  2  0  0  0
  -20.6789  -26.9386   22.5428 C   0  0  0  0  0  0
  -19.5761  -26.6353   21.5234 C   0  0  0  0  0  0
  -18.1931  -26.7898   22.1618 C   0  0  0  0  0  0
  -19.1540  -28.8827   23.2885 C   0  0  0  0  0  0
  -18.9464  -30.1437   23.8886 C   0  0  0  0  0  0
  -17.6461  -30.6569   24.0548 C   0  0  0  0  0  0
  -25.9052  -34.9439   23.5083 C   0  0  0  0  0  0
  -16.5353  -29.9059   23.6334 C   0  0  0  0  0  0
  -16.7273  -28.6467   23.0372 C   0  0  0  0  0  0
  -26.4496  -31.6593   25.0725 C   0  0  0  0  0  0
  -25.3736  -31.3781   26.1473 C   0  0  0  0  0  0
  -27.0345  -30.3011   24.6197 C   0  0  0  0  0  0
  -27.6021  -32.4359   25.7528 C   0  0  0  0  0  0
  -27.5581  -37.1797   24.8466 C   0  0  0  0  0  0
  -21.4196  -29.3002   22.3709 N   0  0  0  0  0  0
  -26.4294  -37.3774   23.9406 N   0  0  0  0  0  0
  -24.6880  -31.0549   22.0964 N   0  0  0  0  0  0
  -23.4206  -28.8131   23.3053 O   0  0  0  0  0  0
  -28.3558  -26.4791   20.1921 O   0  0  0  0  0  0
  -26.5589  -34.8908   22.4633 O   0  0  0  0  0  0
  -23.5431  -32.1379   23.7317 O   0  0  0  0  0  0
  -30.4462  -19.3770   19.9946 C   0  0  0  0  0  0
  -28.1868  -19.1191   20.7491 C   0  0  0  0  0  0
  -30.6921  -17.9775   20.2185 C   0  0  0  0  0  0
  -28.4285  -17.7326   20.9721 C   0  0  0  0  0  0
  -29.1810  -19.9944   20.2368 C   0  0  0  0  0  0
  -29.6729  -17.1060   20.6942 C   0  0  0  0  0  0
  -25.7569  -23.1200   19.1467 C   0  0  0  0  0  0
  -25.5922  -22.3486   20.4364 C   0  0  0  0  0  0
  -26.3342  -23.6685   20.4371 C   0  0  0  0  0  0
  -28.8440  -21.4837   19.7924 C   0  0  0  0  0  0
  -28.4221  -25.0606   19.7419 C   0  0  0  0  0  0
  -27.8468  -23.8654   20.6424 C   0  0  2  0  0  0
  -29.7706  -15.6606   20.9342 N   0  0  0  0  0  0
  -28.6636  -22.5678   20.8413 N   0  3  0  0  0  0
  -31.4817  -12.5404   19.1310 H   0  0  0  0  0  0
  -30.3810  -11.4031   19.8672 H   0  0  0  0  0  0
  -29.7639  -11.7598   17.4709 H   0  0  0  0  0  0
  -29.6483  -13.4807   17.7238 H   0  0  0  0  0  0
  -27.8550  -11.3002   18.8369 H   0  0  0  0  0  0
  -27.3736  -12.6030   17.7849 H   0  0  0  0  0  0
  -27.6755  -14.2533   19.5318 H   0  0  0  0  0  0
  -28.7207  -12.0253   21.3530 H   0  0  0  0  0  0
  -28.4430  -13.6677   21.8546 H   0  0  0  0  0  0
  -25.2767   -9.5717   22.4734 H   0  0  0  0  0  0
  -24.0019   -7.4653   22.7471 H   0  0  0  0  0  0
  -21.0841   -8.8756   19.8948 H   0  0  0  0  0  0
  -22.3670  -10.9670   19.6145 H   0  0  0  0  0  0
  -21.1998   -7.6140   23.9699 H   0  0  0  0  0  0
  -21.1478   -6.0520   25.9074 H   0  0  0  0  0  0
  -22.0604   -2.7595   23.2854 H   0  0  0  0  0  0
  -22.4147  -11.9936   22.4845 H   0  0  0  0  0  0
  -21.1077  -13.1210   22.2497 H   0  0  0  0  0  0
  -24.6660  -15.8432   20.5202 H   0  0  0  0  0  0
  -26.2711  -15.6199   20.0397 H   0  0  0  0  0  0
  -26.7173  -32.5390   23.1059 H   0  0  0  0  0  0
  -25.0225  -33.9707   25.0502 H   0  0  0  0  0  0
  -22.7144  -31.2983   21.3999 H   0  0  0  0  0  0
  -23.3761  -35.9602   23.3300 H   0  0  0  0  0  0
  -24.3562  -36.8886   22.2052 H   0  0  0  0  0  0
  -23.7241  -37.6478   23.6646 H   0  0  0  0  0  0
  -26.0937  -31.5441   20.6061 H   0  0  0  0  0  0
  -26.8412  -30.8222   22.0070 H   0  0  0  0  0  0
  -28.0983  -28.9529   21.2031 H   0  0  0  0  0  0
  -25.9861  -25.9299   18.9586 H   0  0  0  0  0  0
  -23.9756  -27.3025   18.9881 H   0  0  0  0  0  0
  -23.7456  -30.5785   19.4004 H   0  0  0  0  0  0
  -22.7516  -29.2319   19.8597 H   0  0  0  0  0  0
  -25.1300  -36.1920   25.0837 H   0  0  0  0  0  0
  -20.9963  -28.3213   24.1430 H   0  0  0  0  0  0
  -20.5740  -26.2257   23.3619 H   0  0  0  0  0  0
  -21.6656  -26.7446   22.1196 H   0  0  0  0  0  0
  -19.6941  -25.6271   21.1253 H   0  0  0  0  0  0
  -19.6699  -27.3177   20.6779 H   0  0  0  0  0  0
  -17.4232  -26.6684   21.3985 H   0  0  0  0  0  0
  -18.0277  -26.0024   22.8991 H   0  0  0  0  0  0
  -19.7952  -30.7254   24.2244 H   0  0  0  0  0  0
  -17.5023  -31.6251   24.5136 H   0  0  0  0  0  0
  -15.5353  -30.2957   23.7661 H   0  0  0  0  0  0
  -15.8672  -28.0766   22.7122 H   0  0  0  0  0  0
  -24.5899  -30.7110   25.7874 H   0  0  0  0  0  0
  -24.8945  -32.2977   26.4853 H   0  0  0  0  0  0
  -25.8079  -30.9042   27.0285 H   0  0  0  0  0  0
  -26.2944  -29.6780   24.1161 H   0  0  0  0  0  0
  -27.3988  -29.7242   25.4713 H   0  0  0  0  0  0
  -27.8826  -30.4309   23.9461 H   0  0  0  0  0  0
  -27.2577  -33.3664   26.2056 H   0  0  0  0  0  0
  -28.3870  -32.6913   25.0402 H   0  0  0  0  0  0
  -28.0626  -31.8524   26.5513 H   0  0  0  0  0  0
  -28.2599  -38.0096   24.7508 H   0  0  0  0  0  0
  -28.1067  -36.2619   24.6290 H   0  0  0  0  0  0
  -27.2276  -37.1452   25.8864 H   0  0  0  0  0  0
  -20.9404  -29.8702   21.6889 H   0  0  0  0  0  0
  -26.0161  -38.2849   24.1412 H   0  0  0  0  0  0
  -31.2501  -19.9749   19.5866 H   0  0  0  0  0  0
  -27.1920  -19.4917   20.9442 H   0  0  0  0  0  0
  -31.6750  -17.5807   20.0042 H   0  0  0  0  0  0
  -27.6096  -17.1341   21.3447 H   0  0  0  0  0  0
  -24.8664  -23.6007   18.7449 H   0  0  0  0  0  0
  -26.4430  -22.7411   18.3932 H   0  0  0  0  0  0
  -26.1439  -21.4238   20.5570 H   0  0  0  0  0  0
  -24.5887  -22.3337   20.8587 H   0  0  0  0  0  0
  -25.7624  -24.4882   20.8699 H   0  0  0  0  0  0
  -27.9493  -21.4119   19.1818 H   0  0  0  0  0  0
  -29.6202  -21.8239   19.1078 H   0  0  0  0  0  0
  -28.0429  -24.9801   18.7230 H   0  0  0  0  0  0
  -29.4912  -24.8770   19.6396 H   0  0  0  0  0  0
  -27.9156  -24.2798   21.6496 H   0  0  0  0  0  0
  -28.9312  -15.2681   21.3282 H   0  0  0  0  0  0
  -29.5909  -22.8282   21.1358 H   0  0  0  0  0  0
  -28.2547  -22.1063   21.6378 H   0  0  0  0  0  0
  1 25  1  0  0  0
  1 30  2  0  0  0
  1 83  1  0  0  0
  2  3  1  0  0  0
  2 25  1  0  0  0
  2 85  1  0  0  0
  2 86  1  0  0  0
  3  4  1  0  0  0
  3 87  1  0  0  0
  3 88  1  0  0  0
  4  5  1  0  0  0
  4 89  1  0  0  0
  4 90  1  0  0  0
  5  6  1  0  0  0
  5 26  1  0  0  0
  5 91  1  0  0  0
  6 25  1  0  0  0
  6 92  1  0  0  0
  6 93  1  0  0  0
  7  8  2  0  0  0
  7 26  1  0  0  0
  7 29  1  0  0  0
  8  9  1  0  0  0
  8 22  1  0  0  0
  9 10  1  0  0  0
  9 27  2  0  0  0
 10 11  2  0  0  0
 10 15  1  0  0  0
 11 12  1  0  0  0
 11 94  1  0  0  0
 12 13  2  0  0  0
 12 95  1  0  0  0
 13 14  1  0  0  0
 13 31  1  0  0  0
 14 15  2  0  0  0
 14 96  1  0  0  0
 15 97  1  0  0  0
 16 17  2  0  0  0
 16 21  1  0  0  0
 16 31  1  0  0  0
 17 18  1  0  0  0
 17 98  1  0  0  0
 18 19  2  0  0  0
 18 99  1  0  0  0
 19 20  1  0  0  0
 19 24  1  0  0  0
 20 21  2  0  0  0
 20100  1  0  0  0
 21 23  1  0  0  0
 22 28  1  0  0  0
 22 32  2  0  0  0
 26 27  1  0  0  0
 28101  1  0  0  0
 28102  1  0  0  0
 29103  1  0  0  0
 29104  1  0  0  0
 33 34  1  0  0  0
 33 66  1  0  0  0
 33 70  2  0  0  0
 34 36  1  0  0  0
 34 59  1  0  0  0
 34105  1  0  0  0
 35 44  2  0  0  0
 35 45  1  0  0  0
 35 68  1  0  0  0
 36 56  1  0  0  0
 36106  1  0  0  0
 37 39  1  0  0  0
 37 47  1  0  0  0
 37 66  1  0  0  0
 37107  1  0  0  0
 38 43  2  0  0  0
 38 46  1  0  0  0
 38 47  1  0  0  0
 39 64  1  0  0  0
 39 67  2  0  0  0
 40 52  1  0  0  0
 40 53  2  0  0  0
 40 58  1  0  0  0
 41108  1  0  0  0
 41109  1  0  0  0
 41110  1  0  0  0
 41 48  1  0  0  0
 42 43  1  0  0  0
 42 66  1  0  0  0
 42111  1  0  0  0
 42112  1  0  0  0
 43 44  1  0  0  0
 44113  1  0  0  0
 45 46  2  0  0  0
 45114  1  0  0  0
 46115  1  0  0  0
 47116  1  0  0  0
 47117  1  0  0  0
 48 56  1  0  0  0
 48 65  1  0  0  0
 48118  1  0  0  0
 49 50  1  0  0  0
 49 53  1  0  0  0
 49 64  1  0  0  0
 49119  1  0  0  0
 50 51  1  0  0  0
 50120  1  0  0  0
 50121  1  0  0  0
 51 52  1  0  0  0
 51122  1  0  0  0
 51123  1  0  0  0
 52124  1  0  0  0
 52125  1  0  0  0
 53 54  1  0  0  0
 54 55  2  0  0  0
 54126  1  0  0  0
 55 57  1  0  0  0
 55127  1  0  0  0
 56 69  2  0  0  0
 57 58  2  0  0  0
 57128  1  0  0  0
 58129  1  0  0  0
 59 60  1  0  0  0
 59 61  1  0  0  0
 59 62  1  0  0  0
 60130  1  0  0  0
 60131  1  0  0  0
 60132  1  0  0  0
 61133  1  0  0  0
 61134  1  0  0  0
 61135  1  0  0  0
 62136  1  0  0  0
 62137  1  0  0  0
 62138  1  0  0  0
 63 65  1  0  0  0
 63139  1  0  0  0
 63140  1  0  0  0
 63141  1  0  0  0
 64142  1  0  0  0
 65143  1  0  0  0
 68 81  1  0  0  0
 71 73  2  0  0  0
 71 75  1  0  0  0
 71144  1  0  0  0
 72 74  1  0  0  0
 72 75  2  0  0  0
 72145  1  0  0  0
 73 76  1  0  0  0
 73146  1  0  0  0
 74 76  2  0  0  0
 74147  1  0  0  0
 75 80  1  0  0  0
 76 83  1  0  0  0
 77 78  1  0  0  0
 77148  1  0  0  0
 77149  1  0  0  0
 77 79  1  0  0  0
 78 79  1  0  0  0
 78150  1  0  0  0
 78151  1  0  0  0
 79 82  1  0  0  0
 79152  1  0  0  0
 80 84  1  0  0  0
 80153  1  0  0  0
 80154  1  0  0  0
 81155  1  0  0  0
 81156  1  0  0  0
 81 82  1  0  0  0
 82 84  1  0  0  0
 82157  1  0  0  0
 83158  1  0  0  0
 84159  1  0  0  0
 84160  1  0  0  0
M  CHG  1  84   1
M  ISO  4   1 100  68 101  81 101  83 100
M  END
> <chiral flag>
0

> <version>
0

> <s_m_source_file>
/data/baiqing/PycharmProjects/Reinvent-master-3.2/result/LINK_invent/BTK/process_docking_weight1_custom_sum_contain_oxygen_bond_distance_aromatic_linkinvent_7_9_3/rearranged_h_0135.sdf

> <i_m_source_file_index>
40

> <r_mmod_Potential_Energy-OPLS-2005>
26.999002456665

> <r_mmod_Stretch_Energy-OPLS-2005>
92.9838790893555

> <r_mmod_Bend_Energy-OPLS-2005>
195.858978271484

> <r_mmod_Torsional_Energy-OPLS-2005>
275.413513183594

> <r_mmod_Improper_Torsional_Energy-OPLS-2005>
4.68744516372681

> <r_mmod_Van_der_Waal_Energy-OPLS-2005>
128.85578918457

> <r_mmod_Electrostatic_Energy-OPLS-2005>
-271.168121337891

> <r_mmod_Solvation_Energy-OPLS-2005>
-454.148559570312

> <b_mmod_Minimization_Converged-OPLS-2005>
0

> <r_mmod_RMS_Derivative-OPLS-2005>
3.40427660942078

$$$$
40
                    3D
 Structure written by MMmdl.
157166  0  0  1  0            999 V2000
  -30.5762  -14.7618   20.4701 C   0  0  0  0  0  0
  -30.4437  -12.4639   19.4582 C   0  0  0  0  0  0
  -29.5112  -12.4964   18.2271 C   0  0  0  0  0  0
  -28.0376  -12.3108   18.6479 C   0  0  0  0  0  0
  -27.6377  -13.2170   19.8419 C   0  0  2  0  0  0
  -28.6866  -13.1512   20.9725 C   0  0  0  0  0  0
  -25.2496  -13.8154   20.5699 C   0  0  0  0  0  0
  -24.1767  -13.0417   20.9212 C   0  0  0  0  0  0
  -24.6332  -11.6885   20.8728 C   0  0  0  0  0  0
  -23.8987  -10.4276   21.0383 C   0  0  0  0  0  0
  -24.3551   -9.4206   21.9159 C   0  0  0  0  0  0
  -23.6253   -8.2227   22.0748 C   0  0  0  0  0  0
  -22.4239   -8.0235   21.3538 C   0  0  0  0  0  0
  -21.9852   -9.0199   20.4634 C   0  0  0  0  0  0
  -22.7152  -10.2098   20.3035 C   0  0  0  0  0  0
  -21.6848   -6.0685   22.5259 C   0  0  0  0  0  0
  -21.4004   -6.5606   23.8186 C   0  0  0  0  0  0
  -21.3681   -5.6768   24.9161 C   0  0  0  0  0  0
  -21.6054   -4.3030   24.7229 C   0  0  0  0  0  0
  -21.8823   -3.8107   23.4352 C   0  0  0  0  0  0
  -21.9195   -4.6910   22.3395 C   0  0  0  0  0  0
  -22.7788  -13.5196   21.1869 C   0  0  0  0  0  0
  -22.1657   -4.2100   21.0971 F   0  0  0  0  0  0
  -21.5659   -3.4521   25.7749 F   0  0  0  0  0  0
  -29.9801  -13.5215   20.3837 N   0  0  0  0  0  0
  -26.2897  -12.9329   20.3238 N   0  0  0  0  0  0
  -25.9256  -11.6486   20.5726 N   0  0  0  0  0  0
  -22.0437  -12.8198   22.0444 N   0  0  0  0  0  0
  -25.4186  -15.1897   20.4136 N   0  0  0  0  0  0
  -31.7834  -14.8814   20.2386 O   0  0  0  0  0  0
  -21.6635   -6.8814   21.4208 O   0  0  0  0  0  0
  -22.3465  -14.5488   20.6707 O   0  0  0  0  0  0
  -24.6382  -31.8542   23.1982 C   0  0  0  0  0  0
  -25.9154  -32.4810   23.8319 C   0  0  1  0  0  0
  -27.2033  -27.2254   20.1399 C   0  0  0  0  0  0
  -25.5922  -33.8608   24.2238 N   0  0  0  0  0  0
  -23.4373  -30.4868   21.5378 C   0  0  2  0  0  0
  -24.8801  -28.9281   20.1127 C   0  0  0  0  0  0
  -22.7547  -29.4644   22.4809 C   0  0  0  0  0  0
  -18.0312  -28.1443   22.8494 C   0  0  0  0  0  0
  -24.1460  -36.7316   23.2633 C   0  0  0  0  0  0
  -25.9872  -30.7621   21.3799 C   0  0  0  0  0  0
  -26.0563  -29.3781   20.7262 C   0  0  0  0  0  0
  -27.2218  -28.5398   20.7294 C   0  0  0  0  0  0
  -26.0010  -26.8589   19.4911 C   0  0  0  0  0  0
  -24.8578  -27.6778   19.4845 C   0  0  0  0  0  0
  -23.6642  -29.8323   20.1509 C   0  0  0  0  0  0
  -25.4080  -36.3102   24.0333 C   0  0  1  0  0  0
  -20.5917  -28.3758   23.1224 C   0  0  2  0  0  0
  -20.6811  -26.9473   22.5388 C   0  0  0  0  0  0
  -19.5765  -26.6413   21.5236 C   0  0  0  0  0  0
  -18.1948  -26.7989   22.1643 C   0  0  0  0  0  0
  -19.1566  -28.8905   23.2884 C   0  0  0  0  0  0
  -18.9502  -30.1494   23.8928 C   0  0  0  0  0  0
  -17.6503  -30.6636   24.0587 C   0  0  0  0  0  0
  -25.9035  -34.9486   23.5079 C   0  0  0  0  0  0
  -16.5385  -29.9157   23.6343 C   0  0  0  0  0  0
  -16.7299  -28.6579   23.0353 C   0  0  0  0  0  0
  -26.4483  -31.6665   25.0752 C   0  0  0  0  0  0
  -25.3657  -31.3908   26.1465 C   0  0  0  0  0  0
  -27.0325  -30.3068   24.6275 C   0  0  0  0  0  0
  -27.6000  -32.4433   25.7540 C   0  0  0  0  0  0
  -27.5570  -37.1809   24.8454 C   0  0  0  0  0  0
  -21.4239  -29.3117   22.3612 N   0  0  0  0  0  0
  -26.4251  -37.3806   23.9443 N   0  0  0  0  0  0
  -24.7075  -31.0509   22.0961 N   0  0  0  0  0  0
  -23.4238  -28.8136   23.2871 O   0  0  0  0  0  0
  -28.2742  -26.2922   20.1944 O   0  0  0  0  0  0
  -26.5584  -34.8963   22.4637 O   0  0  0  0  0  0
  -23.5503  -32.1296   23.7282 O   0  0  0  0  0  0
  -29.8653  -17.3326   22.3882 C   0  0  0  0  0  0
  -29.4842  -19.7329   22.3002 C   0  0  0  0  0  0
  -29.6846  -18.5615   23.0544 C   0  0  0  0  0  0
  -29.8121  -17.2452   20.9842 C   0  0  0  0  0  0
  -29.4461  -19.6696   20.8969 C   0  0  0  0  0  0
  -30.3409  -19.6727   25.3579 C   0  0  0  0  0  0
  -30.8613  -18.2485   25.3797 C   0  0  0  0  0  0
  -29.6461  -18.5966   24.5521 C   0  0  0  0  0  0
  -29.0241  -23.5924   20.2906 C   0  0  0  0  0  0
  -27.9446  -24.8092   20.2504 C   0  0  0  0  0  0
  -28.5154  -22.0604   20.5319 C   0  0  0  0  0  0
  -29.5980  -18.4297   20.2669 N   0  0  0  0  0  0
  -29.7182  -15.8578   20.4735 N   0  0  0  0  0  0
  -29.3124  -20.8543   20.1096 O   0  0  0  0  0  0
  -31.4801  -12.6132   19.1518 H   0  0  0  0  0  0
  -30.4052  -11.4869   19.9453 H   0  0  0  0  0  0
  -29.7995  -11.7205   17.5164 H   0  0  0  0  0  0
  -29.6265  -13.4481   17.7096 H   0  0  0  0  0  0
  -27.9065  -11.2639   18.9239 H   0  0  0  0  0  0
  -27.3762  -12.4883   17.7988 H   0  0  0  0  0  0
  -27.6258  -14.2344   19.4524 H   0  0  0  0  0  0
  -28.7359  -12.1506   21.4036 H   0  0  0  0  0  0
  -28.4187  -13.8238   21.7895 H   0  0  0  0  0  0
  -25.2697   -9.5712   22.4725 H   0  0  0  0  0  0
  -23.9986   -7.4625   22.7463 H   0  0  0  0  0  0
  -21.0802   -8.8646   19.8937 H   0  0  0  0  0  0
  -22.3552  -10.9606   19.6140 H   0  0  0  0  0  0
  -21.1957   -7.6112   23.9662 H   0  0  0  0  0  0
  -21.1532   -6.0514   25.9064 H   0  0  0  0  0  0
  -22.0596   -2.7566   23.2862 H   0  0  0  0  0  0
  -22.4053  -11.9869   22.4850 H   0  0  0  0  0  0
  -21.1031  -13.1191   22.2618 H   0  0  0  0  0  0
  -24.6517  -15.8388   20.5495 H   0  0  0  0  0  0
  -26.2507  -15.6403   20.0570 H   0  0  0  0  0  0
  -26.7257  -32.5458   23.1075 H   0  0  0  0  0  0
  -25.0146  -33.9729   25.0436 H   0  0  0  0  0  0
  -22.7395  -31.3146   21.3907 H   0  0  0  0  0  0
  -23.3749  -35.9632   23.3278 H   0  0  0  0  0  0
  -24.3539  -36.8967   22.2056 H   0  0  0  0  0  0
  -23.7201  -37.6510   23.6656 H   0  0  0  0  0  0
  -26.1170  -31.5175   20.6041 H   0  0  0  0  0  0
  -26.8702  -30.8190   22.0060 H   0  0  0  0  0  0
  -28.1193  -28.8723   21.2325 H   0  0  0  0  0  0
  -25.8968  -25.9167   18.9793 H   0  0  0  0  0  0
  -23.9583  -27.3300   18.9942 H   0  0  0  0  0  0
  -23.8260  -30.6202   19.4136 H   0  0  0  0  0  0
  -22.7757  -29.2956   19.8165 H   0  0  0  0  0  0
  -25.1273  -36.1925   25.0836 H   0  0  0  0  0  0
  -21.0040  -28.3368   24.1323 H   0  0  0  0  0  0
  -20.5730  -26.2401   23.3622 H   0  0  0  0  0  0
  -21.6684  -26.7507   22.1162 H   0  0  0  0  0  0
  -19.6937  -25.6310   21.1308 H   0  0  0  0  0  0
  -19.6706  -27.3210   20.6755 H   0  0  0  0  0  0
  -17.4212  -26.6747   21.4058 H   0  0  0  0  0  0
  -18.0327  -26.0150   22.9042 H   0  0  0  0  0  0
  -19.7972  -30.7308   24.2326 H   0  0  0  0  0  0
  -17.5064  -31.6316   24.5194 H   0  0  0  0  0  0
  -15.5394  -30.3081   23.7656 H   0  0  0  0  0  0
  -15.8702  -28.0937   22.7016 H   0  0  0  0  0  0
  -24.5752  -30.7361   25.7795 H   0  0  0  0  0  0
  -24.8944  -32.3153   26.4834 H   0  0  0  0  0  0
  -25.7884  -30.9086   27.0285 H   0  0  0  0  0  0
  -26.2935  -29.6866   24.1206 H   0  0  0  0  0  0
  -27.3891  -29.7318   25.4828 H   0  0  0  0  0  0
  -27.8853  -30.4360   23.9612 H   0  0  0  0  0  0
  -27.2564  -33.3736   26.2069 H   0  0  0  0  0  0
  -28.3825  -32.7008   25.0401 H   0  0  0  0  0  0
  -28.0641  -31.8607   26.5510 H   0  0  0  0  0  0
  -28.2548  -38.0137   24.7547 H   0  0  0  0  0  0
  -28.1091  -36.2674   24.6188 H   0  0  0  0  0  0
  -27.2307  -37.1381   25.8856 H   0  0  0  0  0  0
  -20.9404  -29.8927   21.6913 H   0  0  0  0  0  0
  -26.0144  -38.2879   24.1483 H   0  0  0  0  0  0
  -29.9759  -16.4299   22.9730 H   0  0  0  0  0  0
  -29.3761  -20.6743   22.8177 H   0  0  0  0  0  0
  -30.9421  -20.4162   24.8386 H   0  0  0  0  0  0
  -29.8132  -20.0380   26.2368 H   0  0  0  0  0  0
  -30.6943  -17.6714   26.2868 H   0  0  0  0  0  0
  -31.7956  -18.0426   24.8571 H   0  0  0  0  0  0
  -28.6812  -18.2381   24.9134 H   0  0  0  0  0  0
  -29.7643  -23.8171   21.0568 H   0  0  0  0  0  0
  -29.5674  -23.6115   19.3466 H   0  0  0  0  0  0
  -27.3516  -24.5619   19.3728 H   0  0  0  0  0  0
  -27.2814  -24.6699   21.1068 H   0  0  0  0  0  0
  -27.5830  -21.9549   19.9760 H   0  0  0  0  0  0
  -28.2025  -21.9746   21.5707 H   0  0  0  0  0  0
  -28.7637  -15.5654   20.3570 H   0  0  0  0  0  0
  1 25  1  0  0  0
  1 30  2  0  0  0
  1 83  1  0  0  0
  2  3  1  0  0  0
  2 25  1  0  0  0
  2 85  1  0  0  0
  2 86  1  0  0  0
  3  4  1  0  0  0
  3 87  1  0  0  0
  3 88  1  0  0  0
  4  5  1  0  0  0
  4 89  1  0  0  0
  4 90  1  0  0  0
  5  6  1  0  0  0
  5 26  1  0  0  0
  5 91  1  0  0  0
  6 25  1  0  0  0
  6 92  1  0  0  0
  6 93  1  0  0  0
  7  8  2  0  0  0
  7 26  1  0  0  0
  7 29  1  0  0  0
  8  9  1  0  0  0
  8 22  1  0  0  0
  9 10  1  0  0  0
  9 27  2  0  0  0
 10 11  2  0  0  0
 10 15  1  0  0  0
 11 12  1  0  0  0
 11 94  1  0  0  0
 12 13  2  0  0  0
 12 95  1  0  0  0
 13 14  1  0  0  0
 13 31  1  0  0  0
 14 15  2  0  0  0
 14 96  1  0  0  0
 15 97  1  0  0  0
 16 17  2  0  0  0
 16 21  1  0  0  0
 16 31  1  0  0  0
 17 18  1  0  0  0
 17 98  1  0  0  0
 18 19  2  0  0  0
 18 99  1  0  0  0
 19 20  1  0  0  0
 19 24  1  0  0  0
 20 21  2  0  0  0
 20100  1  0  0  0
 21 23  1  0  0  0
 22 28  1  0  0  0
 22 32  2  0  0  0
 26 27  1  0  0  0
 28101  1  0  0  0
 28102  1  0  0  0
 29103  1  0  0  0
 29104  1  0  0  0
 33 34  1  0  0  0
 33 66  1  0  0  0
 33 70  2  0  0  0
 34 36  1  0  0  0
 34 59  1  0  0  0
 34105  1  0  0  0
 35 44  2  0  0  0
 35 45  1  0  0  0
 35 68  1  0  0  0
 36 56  1  0  0  0
 36106  1  0  0  0
 37 39  1  0  0  0
 37 47  1  0  0  0
 37 66  1  0  0  0
 37107  1  0  0  0
 38 43  2  0  0  0
 38 46  1  0  0  0
 38 47  1  0  0  0
 39 64  1  0  0  0
 39 67  2  0  0  0
 40 52  1  0  0  0
 40 53  2  0  0  0
 40 58  1  0  0  0
 41108  1  0  0  0
 41109  1  0  0  0
 41110  1  0  0  0
 41 48  1  0  0  0
 42 43  1  0  0  0
 42 66  1  0  0  0
 42111  1  0  0  0
 42112  1  0  0  0
 43 44  1  0  0  0
 44113  1  0  0  0
 45 46  2  0  0  0
 45114  1  0  0  0
 46115  1  0  0  0
 47116  1  0  0  0
 47117  1  0  0  0
 48 56  1  0  0  0
 48 65  1  0  0  0
 48118  1  0  0  0
 49 50  1  0  0  0
 49 53  1  0  0  0
 49 64  1  0  0  0
 49119  1  0  0  0
 50 51  1  0  0  0
 50120  1  0  0  0
 50121  1  0  0  0
 51 52  1  0  0  0
 51122  1  0  0  0
 51123  1  0  0  0
 52124  1  0  0  0
 52125  1  0  0  0
 53 54  1  0  0  0
 54 55  2  0  0  0
 54126  1  0  0  0
 55 57  1  0  0  0
 55127  1  0  0  0
 56 69  2  0  0  0
 57 58  2  0  0  0
 57128  1  0  0  0
 58129  1  0  0  0
 59 60  1  0  0  0
 59 61  1  0  0  0
 59 62  1  0  0  0
 60130  1  0  0  0
 60131  1  0  0  0
 60132  1  0  0  0
 61133  1  0  0  0
 61134  1  0  0  0
 61135  1  0  0  0
 62136  1  0  0  0
 62137  1  0  0  0
 62138  1  0  0  0
 63 65  1  0  0  0
 63139  1  0  0  0
 63140  1  0  0  0
 63141  1  0  0  0
 64142  1  0  0  0
 65143  1  0  0  0
 68 80  1  0  0  0
 71 73  2  0  0  0
 71 74  1  0  0  0
 71144  1  0  0  0
 72 73  1  0  0  0
 72 75  2  0  0  0
 72145  1  0  0  0
 73 78  1  0  0  0
 74 82  2  0  0  0
 74 83  1  0  0  0
 75 82  1  0  0  0
 75 84  1  0  0  0
 76 77  1  0  0  0
 76 78  1  0  0  0
 76146  1  0  0  0
 76147  1  0  0  0
 77 78  1  0  0  0
 77148  1  0  0  0
 77149  1  0  0  0
 78150  1  0  0  0
 79 80  1  0  0  0
 79 81  1  0  0  0
 79151  1  0  0  0
 79152  1  0  0  0
 80153  1  0  0  0
 80154  1  0  0  0
 81 84  1  0  0  0
 81155  1  0  0  0
 81156  1  0  0  0
 83157  1  0  0  0
M  ISO  4   1 100  68 101  80 101  83 100
M  END
> <chiral flag>
0

> <version>
0

> <s_m_source_file>
/data/baiqing/PycharmProjects/Reinvent-master-3.2/result/LINK_invent/BTK/process_docking_weight1_custom_sum_contain_oxygen_bond_distance_aromatic_linkinvent_7_9_3/rearranged_h_0135.sdf

> <i_m_source_file_index>
41

> <r_mmod_Potential_Energy-OPLS-2005>
105.212104797363

> <r_mmod_Stretch_Energy-OPLS-2005>
136.453216552734

> <r_mmod_Bend_Energy-OPLS-2005>
186.256637573242

> <r_mmod_Torsional_Energy-OPLS-2005>
291.95654296875

> <r_mmod_Improper_Torsional_Energy-OPLS-2005>
11.8949966430664

> <r_mmod_Van_der_Waal_Energy-OPLS-2005>
138.482727050781

> <r_mmod_Electrostatic_Energy-OPLS-2005>
-536.698669433594

> <r_mmod_Solvation_Energy-OPLS-2005>
-228.694351196289

> <b_mmod_Minimization_Converged-OPLS-2005>
0

> <r_mmod_RMS_Derivative-OPLS-2005>
3.84618616104126

$$$$
41
                    3D
 Structure written by MMmdl.
170179  0  0  1  0            999 V2000
  -30.6433  -14.7006   20.5237 C   0  0  0  0  0  0
  -30.4256  -12.4390   19.4719 C   0  0  0  0  0  0
  -29.5074  -12.5199   18.2328 C   0  0  0  0  0  0
  -28.0346  -12.3338   18.6425 C   0  0  0  0  0  0
  -27.6413  -13.2322   19.8467 C   0  0  2  0  0  0
  -28.6830  -13.1453   20.9850 C   0  0  0  0  0  0
  -25.2476  -13.8185   20.5677 C   0  0  0  0  0  0
  -24.1774  -13.0431   20.9201 C   0  0  0  0  0  0
  -24.6386  -11.6917   20.8765 C   0  0  0  0  0  0
  -23.9077  -10.4278   21.0406 C   0  0  0  0  0  0
  -24.3623   -9.4183   21.9172 C   0  0  0  0  0  0
  -23.6282   -8.2233   22.0749 C   0  0  0  0  0  0
  -22.4256   -8.0281   21.3556 C   0  0  0  0  0  0
  -21.9903   -9.0261   20.4666 C   0  0  0  0  0  0
  -22.7254  -10.2115   20.3059 C   0  0  0  0  0  0
  -21.6850   -6.0731   22.5287 C   0  0  0  0  0  0
  -21.4027   -6.5630   23.8220 C   0  0  0  0  0  0
  -21.3658   -5.6774   24.9180 C   0  0  0  0  0  0
  -21.6041   -4.3042   24.7220 C   0  0  0  0  0  0
  -21.8810   -3.8139   23.4339 C   0  0  0  0  0  0
  -21.9176   -4.6962   22.3396 C   0  0  0  0  0  0
  -22.7788  -13.5227   21.1813 C   0  0  0  0  0  0
  -22.1647   -4.2143   21.0973 F   0  0  0  0  0  0
  -21.5612   -3.4530   25.7736 F   0  0  0  0  0  0
  -29.9912  -13.4918   20.4178 N   0  0  0  0  0  0
  -26.2918  -12.9427   20.3249 N   0  0  0  0  0  0
  -25.9315  -11.6564   20.5733 N   0  0  0  0  0  0
  -22.0441  -12.8297   22.0425 N   0  0  0  0  0  0
  -25.4124  -15.1921   20.4083 N   0  0  0  0  0  0
  -31.8205  -14.8031   20.1710 O   0  0  0  0  0  0
  -21.6628   -6.8889   21.4251 O   0  0  0  0  0  0
  -22.3491  -14.5514   20.6605 O   0  0  0  0  0  0
  -24.6203  -31.8594   23.2007 C   0  0  0  0  0  0
  -25.9044  -32.4797   23.8358 C   0  0  1  0  0  0
  -27.2350  -27.2905   20.1576 C   0  0  0  0  0  0
  -25.5887  -33.8599   24.2289 N   0  0  0  0  0  0
  -23.4212  -30.4765   21.5384 C   0  0  2  0  0  0
  -24.8741  -28.9071   20.1351 C   0  0  0  0  0  0
  -22.7445  -29.4611   22.4911 C   0  0  0  0  0  0
  -18.0287  -28.1370   22.8499 C   0  0  0  0  0  0
  -24.1486  -36.7282   23.2654 C   0  0  0  0  0  0
  -25.9631  -30.7795   21.3785 C   0  0  0  0  0  0
  -26.0403  -29.3939   20.7412 C   0  0  0  0  0  0
  -27.2250  -28.6000   20.7402 C   0  0  0  0  0  0
  -26.0465  -26.8505   19.5441 C   0  0  0  0  0  0
  -24.8792  -27.6379   19.5324 C   0  0  0  0  0  0
  -23.6460  -29.7949   20.1609 C   0  0  0  0  0  0
  -25.4121  -36.3105   24.0354 C   0  0  1  0  0  0
  -20.5879  -28.3672   23.1272 C   0  0  2  0  0  0
  -20.6767  -26.9400   22.5394 C   0  0  0  0  0  0
  -19.5762  -26.6376   21.5181 C   0  0  0  0  0  0
  -18.1940  -26.7921   22.1591 C   0  0  0  0  0  0
  -19.1541  -28.8829   23.2904 C   0  0  0  0  0  0
  -18.9476  -30.1438   23.8923 C   0  0  0  0  0  0
  -17.6479  -30.6596   24.0543 C   0  0  0  0  0  0
  -25.9046  -34.9472   23.5127 C   0  0  0  0  0  0
  -16.5365  -29.9087   23.6332 C   0  0  0  0  0  0
  -16.7274  -28.6480   23.0401 C   0  0  0  0  0  0
  -26.4486  -31.6612   25.0700 C   0  0  0  0  0  0
  -25.3726  -31.3725   26.1422 C   0  0  0  0  0  0
  -27.0371  -30.3072   24.6131 C   0  0  0  0  0  0
  -27.6062  -32.4334   25.7436 C   0  0  0  0  0  0
  -27.5606  -37.1808   24.8480 C   0  0  0  0  0  0
  -21.4158  -29.3053   22.3678 N   0  0  0  0  0  0
  -26.4298  -37.3798   23.9439 N   0  0  0  0  0  0
  -24.6864  -31.0582   22.0952 N   0  0  0  0  0  0
  -23.4170  -28.8158   23.3000 O   0  0  0  0  0  0
  -28.3790  -26.4978   20.0014 O   0  0  0  0  0  0
  -26.5627  -34.8905   22.4694 O   0  0  0  0  0  0
  -23.5369  -32.1395   23.7325 O   0  0  0  0  0  0
  -29.7974  -20.0361   20.8583 C   0  0  0  0  0  0
  -26.9444  -23.5532   21.4559 C   0  0  0  0  0  0
  -27.1660  -23.0380   22.8994 C   0  0  0  0  0  0
  -31.0042  -17.4152   22.4320 C   0  0  0  0  0  0
  -29.7148  -22.8386   22.5502 C   0  0  0  0  0  0
  -29.7896  -17.7473   23.3125 C   0  0  0  0  0  0
  -29.3234  -18.5035   21.0729 C   0  0  1  0  0  0
  -28.2505  -23.7943   20.6561 C   0  0  2  0  0  0
  -30.3923  -17.2791   21.0304 C   0  0  2  0  0  0
  -29.3025  -22.6193   21.0624 C   0  0  2  0  0  0
  -28.5674  -23.3389   23.4781 C   0  0  2  0  0  0
  -28.7216  -25.3399   20.8600 C   0  0  0  0  0  0
  -28.9365  -21.1302   20.8794 N   0  0  0  0  0  0
  -29.9114  -15.8262   20.8640 N   0  0  0  0  0  0
  -28.7798  -18.4093   22.4423 N   0  3  0  0  0  0
  -28.7043  -22.8356   24.8597 N   0  3  0  0  0  0
  -31.0096  -20.2464   20.7655 O   0  0  0  0  0  0
  -31.4703  -12.5471   19.1799 H   0  0  0  0  0  0
  -30.3497  -11.4558   19.9403 H   0  0  0  0  0  0
  -29.7948  -11.7685   17.4937 H   0  0  0  0  0  0
  -29.6301  -13.4894   17.7485 H   0  0  0  0  0  0
  -27.8946  -11.2857   18.9045 H   0  0  0  0  0  0
  -27.3802  -12.5274   17.7906 H   0  0  0  0  0  0
  -27.6417  -14.2549   19.4680 H   0  0  0  0  0  0
  -28.7083  -12.1398   21.4045 H   0  0  0  0  0  0
  -28.4149  -13.8140   21.8041 H   0  0  0  0  0  0
  -25.2785   -9.5638   22.4718 H   0  0  0  0  0  0
  -23.9977   -7.4627   22.7473 H   0  0  0  0  0  0
  -21.0827   -8.8806   19.8997 H   0  0  0  0  0  0
  -22.3743  -10.9640   19.6139 H   0  0  0  0  0  0
  -21.2071   -7.6149   23.9744 H   0  0  0  0  0  0
  -21.1475   -6.0501   25.9078 H   0  0  0  0  0  0
  -22.0594   -2.7608   23.2836 H   0  0  0  0  0  0
  -22.4026  -11.9986   22.4891 H   0  0  0  0  0  0
  -21.1046  -13.1329   22.2562 H   0  0  0  0  0  0
  -24.6304  -15.8315   20.4957 H   0  0  0  0  0  0
  -26.2384  -15.6295   20.0209 H   0  0  0  0  0  0
  -26.7080  -32.5468   23.1087 H   0  0  0  0  0  0
  -25.0019  -33.9764   25.0426 H   0  0  0  0  0  0
  -22.7141  -31.2958   21.3849 H   0  0  0  0  0  0
  -23.3756  -35.9601   23.3306 H   0  0  0  0  0  0
  -24.3581  -36.8891   22.2068 H   0  0  0  0  0  0
  -23.7180  -37.6468   23.6660 H   0  0  0  0  0  0
  -26.0969  -31.5306   20.5982 H   0  0  0  0  0  0
  -26.8391  -30.8382   22.0119 H   0  0  0  0  0  0
  -28.1255  -28.9915   21.1904 H   0  0  0  0  0  0
  -26.0296  -25.8847   19.0577 H   0  0  0  0  0  0
  -23.9860  -27.2570   19.0542 H   0  0  0  0  0  0
  -23.7781  -30.5585   19.3937 H   0  0  0  0  0  0
  -22.7679  -29.2244   19.8510 H   0  0  0  0  0  0
  -25.1297  -36.1993   25.0850 H   0  0  0  0  0  0
  -21.0031  -28.3237   24.1367 H   0  0  0  0  0  0
  -20.5608  -26.2299   23.3602 H   0  0  0  0  0  0
  -21.6643  -26.7380   22.1249 H   0  0  0  0  0  0
  -19.6906  -25.6280   21.1240 H   0  0  0  0  0  0
  -19.6706  -27.3147   20.6686 H   0  0  0  0  0  0
  -17.4218  -26.6675   21.3984 H   0  0  0  0  0  0
  -18.0351  -26.0035   22.8959 H   0  0  0  0  0  0
  -19.7962  -30.7253   24.2292 H   0  0  0  0  0  0
  -17.5048  -31.6287   24.5139 H   0  0  0  0  0  0
  -15.5385  -30.3023   23.7645 H   0  0  0  0  0  0
  -15.8657  -28.0798   22.7162 H   0  0  0  0  0  0
  -24.5855  -30.7153   25.7712 H   0  0  0  0  0  0
  -24.8959  -32.2882   26.4932 H   0  0  0  0  0  0
  -25.8023  -30.8807   27.0147 H   0  0  0  0  0  0
  -26.2949  -29.6761   24.1225 H   0  0  0  0  0  0
  -27.4214  -29.7386   25.4607 H   0  0  0  0  0  0
  -27.8748  -30.4433   23.9269 H   0  0  0  0  0  0
  -27.2722  -33.3626   26.2051 H   0  0  0  0  0  0
  -28.3832  -32.6895   25.0219 H   0  0  0  0  0  0
  -28.0771  -31.8418   26.5302 H   0  0  0  0  0  0
  -28.2649  -38.0096   24.7584 H   0  0  0  0  0  0
  -28.1086  -36.2643   24.6248 H   0  0  0  0  0  0
  -27.2346  -37.1385   25.8887 H   0  0  0  0  0  0
  -20.9309  -29.8822   21.6941 H   0  0  0  0  0  0
  -26.0197  -38.2878   24.1427 H   0  0  0  0  0  0
  -26.3416  -24.4621   21.4802 H   0  0  0  0  0  0
  -26.3283  -22.8232   20.9331 H   0  0  0  0  0  0
  -27.0042  -21.9605   22.9100 H   0  0  0  0  0  0
  -26.3899  -23.4537   23.5461 H   0  0  0  0  0  0
  -31.5513  -16.5368   22.7740 H   0  0  0  0  0  0
  -31.7116  -18.2479   22.4655 H   0  0  0  0  0  0
  -30.5172  -23.5792   22.5829 H   0  0  0  0  0  0
  -30.1790  -21.9395   22.9559 H   0  0  0  0  0  0
  -30.0775  -18.3837   24.1504 H   0  0  0  0  0  0
  -29.3565  -16.8380   23.7330 H   0  0  0  0  0  0
  -28.5188  -18.3201   20.3604 H   0  0  0  0  0  0
  -28.0328  -23.6834   19.5925 H   0  0  0  0  0  0
  -31.1500  -17.4743   20.2692 H   0  0  0  0  0  0
  -30.1894  -22.7736   20.4442 H   0  0  0  0  0  0
  -28.6594  -24.4191   23.5776 H   0  0  0  0  0  0
  -29.8102  -25.3244   20.8006 H   0  0  0  0  0  0
  -28.5232  -25.6734   21.8728 H   0  0  0  0  0  0
  -27.9482  -20.9266   20.7854 H   0  0  0  0  0  0
  -28.9346  -15.6523   21.0366 H   0  0  0  0  0  0
  -28.5442  -19.3276   22.7746 H   0  0  0  0  0  0
  -27.9397  -17.8584   22.4280 H   0  0  0  0  0  0
  -28.6590  -21.8344   24.9055 H   0  0  0  0  0  0
  -27.9696  -23.2023   25.4379 H   0  0  0  0  0  0
  -29.5788  -23.1314   25.2614 H   0  0  0  0  0  0
  1 25  1  0  0  0
  1 30  2  0  0  0
  1 84  1  0  0  0
  2  3  1  0  0  0
  2 25  1  0  0  0
  2 88  1  0  0  0
  2 89  1  0  0  0
  3  4  1  0  0  0
  3 90  1  0  0  0
  3 91  1  0  0  0
  4  5  1  0  0  0
  4 92  1  0  0  0
  4 93  1  0  0  0
  5  6  1  0  0  0
  5 26  1  0  0  0
  5 94  1  0  0  0
  6 25  1  0  0  0
  6 95  1  0  0  0
  6 96  1  0  0  0
  7  8  2  0  0  0
  7 26  1  0  0  0
  7 29  1  0  0  0
  8  9  1  0  0  0
  8 22  1  0  0  0
  9 10  1  0  0  0
  9 27  2  0  0  0
 10 11  2  0  0  0
 10 15  1  0  0  0
 11 12  1  0  0  0
 11 97  1  0  0  0
 12 13  2  0  0  0
 12 98  1  0  0  0
 13 14  1  0  0  0
 13 31  1  0  0  0
 14 15  2  0  0  0
 14 99  1  0  0  0
 15100  1  0  0  0
 16 17  2  0  0  0
 16 21  1  0  0  0
 16 31  1  0  0  0
 17 18  1  0  0  0
 17101  1  0  0  0
 18 19  2  0  0  0
 18102  1  0  0  0
 19 20  1  0  0  0
 19 24  1  0  0  0
 20 21  2  0  0  0
 20103  1  0  0  0
 21 23  1  0  0  0
 22 28  1  0  0  0
 22 32  2  0  0  0
 26 27  1  0  0  0
 28104  1  0  0  0
 28105  1  0  0  0
 29106  1  0  0  0
 29107  1  0  0  0
 33 34  1  0  0  0
 33 66  1  0  0  0
 33 70  2  0  0  0
 34 36  1  0  0  0
 34 59  1  0  0  0
 34108  1  0  0  0
 35 44  2  0  0  0
 35 45  1  0  0  0
 35 68  1  0  0  0
 36 56  1  0  0  0
 36109  1  0  0  0
 37 39  1  0  0  0
 37 47  1  0  0  0
 37 66  1  0  0  0
 37110  1  0  0  0
 38 43  2  0  0  0
 38 46  1  0  0  0
 38 47  1  0  0  0
 39 64  1  0  0  0
 39 67  2  0  0  0
 40 52  1  0  0  0
 40 53  2  0  0  0
 40 58  1  0  0  0
 41111  1  0  0  0
 41112  1  0  0  0
 41113  1  0  0  0
 41 48  1  0  0  0
 42 43  1  0  0  0
 42 66  1  0  0  0
 42114  1  0  0  0
 42115  1  0  0  0
 43 44  1  0  0  0
 44116  1  0  0  0
 45 46  2  0  0  0
 45117  1  0  0  0
 46118  1  0  0  0
 47119  1  0  0  0
 47120  1  0  0  0
 48 56  1  0  0  0
 48 65  1  0  0  0
 48121  1  0  0  0
 49 50  1  0  0  0
 49 53  1  0  0  0
 49 64  1  0  0  0
 49122  1  0  0  0
 50 51  1  0  0  0
 50123  1  0  0  0
 50124  1  0  0  0
 51 52  1  0  0  0
 51125  1  0  0  0
 51126  1  0  0  0
 52127  1  0  0  0
 52128  1  0  0  0
 53 54  1  0  0  0
 54 55  2  0  0  0
 54129  1  0  0  0
 55 57  1  0  0  0
 55130  1  0  0  0
 56 69  2  0  0  0
 57 58  2  0  0  0
 57131  1  0  0  0
 58132  1  0  0  0
 59 60  1  0  0  0
 59 61  1  0  0  0
 59 62  1  0  0  0
 60133  1  0  0  0
 60134  1  0  0  0
 60135  1  0  0  0
 61136  1  0  0  0
 61137  1  0  0  0
 61138  1  0  0  0
 62139  1  0  0  0
 62140  1  0  0  0
 62141  1  0  0  0
 63 65  1  0  0  0
 63142  1  0  0  0
 63143  1  0  0  0
 63144  1  0  0  0
 64145  1  0  0  0
 65146  1  0  0  0
 68 82  1  0  0  0
 71 83  1  0  0  0
 71 87  2  0  0  0
 71 77  1  0  0  0
 72 73  1  0  0  0
 72 78  1  0  0  0
 72147  1  0  0  0
 72148  1  0  0  0
 73 81  1  0  0  0
 73149  1  0  0  0
 73150  1  0  0  0
 74 76  1  0  0  0
 74 79  1  0  0  0
 74151  1  0  0  0
 74152  1  0  0  0
 75 80  1  0  0  0
 75 81  1  0  0  0
 75153  1  0  0  0
 75154  1  0  0  0
 76 85  1  0  0  0
 76155  1  0  0  0
 76156  1  0  0  0
 77 79  1  0  0  0
 77 85  1  0  0  0
 77157  1  0  0  0
 78 80  1  0  0  0
 78 82  1  0  0  0
 78158  1  0  0  0
 79 84  1  0  0  0
 79159  1  0  0  0
 80 83  1  0  0  0
 80160  1  0  0  0
 81 86  1  0  0  0
 81161  1  0  0  0
 82162  1  0  0  0
 82163  1  0  0  0
 83164  1  0  0  0
 84165  1  0  0  0
 85166  1  0  0  0
 85167  1  0  0  0
 86168  1  0  0  0
 86169  1  0  0  0
 86170  1  0  0  0
M  CHG  2  85   1  86   1
M  ISO  4   1 100  68 101  82 101  84 100
M  END
> <chiral flag>
0

> <version>
0

> <s_m_source_file>
/data/baiqing/PycharmProjects/Reinvent-master-3.2/result/LINK_invent/BTK/process_docking_weight1_custom_sum_contain_oxygen_bond_distance_aromatic_linkinvent_7_9_3/rearranged_h_0135.sdf

> <i_m_source_file_index>
42

> <r_mmod_Potential_Energy-OPLS-2005>
-210.473327636719

> <r_mmod_Stretch_Energy-OPLS-2005>
131.642990112305

> <r_mmod_Bend_Energy-OPLS-2005>
221.900939941406

> <r_mmod_Torsional_Energy-OPLS-2005>
318.613464355469

> <r_mmod_Improper_Torsional_Energy-OPLS-2005>
5.380699634552

> <r_mmod_Van_der_Waal_Energy-OPLS-2005>
114.712684631348

> <r_mmod_Electrostatic_Energy-OPLS-2005>
40.8078231811523

> <r_mmod_Solvation_Energy-OPLS-2005>
-1104.26721191406

> <b_mmod_Minimization_Converged-OPLS-2005>
0

> <r_mmod_RMS_Derivative-OPLS-2005>
5.20008563995361

$$$$
42
                    3D
 Structure written by MMmdl.
163171  0  0  1  0            999 V2000
  -30.6507  -14.6708   20.4846 C   0  0  0  0  0  0
  -30.4256  -12.4054   19.4821 C   0  0  0  0  0  0
  -29.5030  -12.4870   18.2458 C   0  0  0  0  0  0
  -28.0346  -12.3153   18.6668 C   0  0  0  0  0  0
  -27.6460  -13.2242   19.8613 C   0  0  2  0  0  0
  -28.6865  -13.1488   21.0013 C   0  0  0  0  0  0
  -25.2540  -13.8201   20.5715 C   0  0  0  0  0  0
  -24.1817  -13.0463   20.9243 C   0  0  0  0  0  0
  -24.6398  -11.6933   20.8812 C   0  0  0  0  0  0
  -23.9093  -10.4308   21.0469 C   0  0  0  0  0  0
  -24.3637   -9.4197   21.9222 C   0  0  0  0  0  0
  -23.6303   -8.2237   22.0758 C   0  0  0  0  0  0
  -22.4290   -8.0292   21.3550 C   0  0  0  0  0  0
  -21.9939   -9.0282   20.4663 C   0  0  0  0  0  0
  -22.7284  -10.2157   20.3092 C   0  0  0  0  0  0
  -21.6839   -6.0754   22.5296 C   0  0  0  0  0  0
  -21.4008   -6.5654   23.8229 C   0  0  0  0  0  0
  -21.3656   -5.6810   24.9185 C   0  0  0  0  0  0
  -21.6038   -4.3072   24.7241 C   0  0  0  0  0  0
  -21.8815   -3.8163   23.4361 C   0  0  0  0  0  0
  -21.9187   -4.6982   22.3414 C   0  0  0  0  0  0
  -22.7830  -13.5242   21.1884 C   0  0  0  0  0  0
  -22.1655   -4.2167   21.0992 F   0  0  0  0  0  0
  -21.5627   -3.4550   25.7747 F   0  0  0  0  0  0
  -30.0000  -13.4627   20.4262 N   0  0  0  0  0  0
  -26.2957  -12.9390   20.3345 N   0  0  0  0  0  0
  -25.9322  -11.6545   20.5836 N   0  0  0  0  0  0
  -22.0475  -12.8231   22.0439 N   0  0  0  0  0  0
  -25.4252  -15.1909   20.4043 N   0  0  0  0  0  0
  -31.8313  -14.7588   20.1378 O   0  0  0  0  0  0
  -21.6628   -6.8905   21.4259 O   0  0  0  0  0  0
  -22.3524  -14.5543   20.6726 O   0  0  0  0  0  0
  -24.6258  -31.8611   23.2055 C   0  0  0  0  0  0
  -25.9093  -32.4783   23.8407 C   0  0  1  0  0  0
  -27.2162  -27.3276   20.1345 C   0  0  0  0  0  0
  -25.5911  -33.8593   24.2317 N   0  0  0  0  0  0
  -23.4215  -30.4828   21.5487 C   0  0  2  0  0  0
  -24.8704  -28.9440   20.1069 C   0  0  0  0  0  0
  -22.7498  -29.4600   22.4961 C   0  0  0  0  0  0
  -18.0273  -28.1383   22.8484 C   0  0  0  0  0  0
  -24.1475  -36.7300   23.2644 C   0  0  0  0  0  0
  -25.9617  -30.7988   21.3722 C   0  0  0  0  0  0
  -26.0382  -29.4265   20.7156 C   0  0  0  0  0  0
  -27.2194  -28.6290   20.7208 C   0  0  0  0  0  0
  -26.0406  -26.9021   19.4857 C   0  0  0  0  0  0
  -24.8740  -27.6895   19.4792 C   0  0  0  0  0  0
  -23.6360  -29.8218   20.1614 C   0  0  0  0  0  0
  -25.4097  -36.3103   24.0356 C   0  0  1  0  0  0
  -20.5877  -28.3687   23.1292 C   0  0  2  0  0  0
  -20.6757  -26.9414   22.5415 C   0  0  0  0  0  0
  -19.5738  -26.6396   21.5214 C   0  0  0  0  0  0
  -18.1918  -26.7924   22.1624 C   0  0  0  0  0  0
  -19.1525  -28.8854   23.2879 C   0  0  0  0  0  0
  -18.9448  -30.1448   23.8917 C   0  0  0  0  0  0
  -17.6448  -30.6587   24.0567 C   0  0  0  0  0  0
  -25.9048  -34.9469   23.5145 C   0  0  0  0  0  0
  -16.5336  -29.9098   23.6314 C   0  0  0  0  0  0
  -16.7257  -28.6499   23.0360 C   0  0  0  0  0  0
  -26.4499  -31.6576   25.0755 C   0  0  0  0  0  0
  -25.3752  -31.3687   26.1492 C   0  0  0  0  0  0
  -27.0338  -30.3009   24.6152 C   0  0  0  0  0  0
  -27.6089  -32.4296   25.7504 C   0  0  0  0  0  0
  -27.5585  -37.1803   24.8481 C   0  0  0  0  0  0
  -21.4212  -29.3030   22.3710 N   0  0  0  0  0  0
  -26.4286  -37.3790   23.9431 N   0  0  0  0  0  0
  -24.6894  -31.0631   22.1005 N   0  0  0  0  0  0
  -23.4221  -28.8134   23.3043 O   0  0  0  0  0  0
  -28.2722  -26.4135   20.2152 O   0  0  0  0  0  0
  -26.5625  -34.8944   22.4712 O   0  0  0  0  0  0
  -23.5410  -32.1406   23.7376 O   0  0  0  0  0  0
  -29.9723  -23.5509   21.0632 C   0  0  0  0  0  0
  -30.4579  -22.2124   21.0603 C   0  0  0  0  0  0
  -28.6002  -23.8310   20.8548 C   0  0  0  0  0  0
  -27.8028  -22.6624   20.5968 C   0  0  0  0  0  0
  -29.5871  -21.1155   20.8655 C   0  0  0  0  0  0
  -25.8488  -21.8391   19.1496 C   0  0  0  0  0  0
  -28.4582  -25.7942   22.5207 C   0  0  0  0  0  0
  -30.4361  -17.3938   18.8378 C   0  0  0  0  0  0
  -26.3060  -22.7519   20.3024 C   0  0  0  0  0  0
  -29.4052  -18.4591   20.8920 C   0  0  0  0  0  0
  -28.0122  -25.2830   21.1361 C   0  0  1  0  0  0
  -30.3052  -17.2385   20.3678 C   0  0  2  0  0  0
  -28.2776  -21.3694   20.6400 N   0  0  0  0  0  0
  -30.1093  -19.7818   20.8893 N   0  0  0  0  0  0
  -29.9049  -15.8102   20.7003 N   0  0  0  0  0  0
  -31.4684  -12.5125   19.1775 H   0  0  0  0  0  0
  -30.3496  -11.4259   19.9569 H   0  0  0  0  0  0
  -29.7739  -11.7189   17.5208 H   0  0  0  0  0  0
  -29.6312  -13.4479   17.7452 H   0  0  0  0  0  0
  -27.8970  -11.2708   18.9467 H   0  0  0  0  0  0
  -27.3693  -12.4903   17.8204 H   0  0  0  0  0  0
  -27.6489  -14.2442   19.4758 H   0  0  0  0  0  0
  -28.6991  -12.1576   21.4559 H   0  0  0  0  0  0
  -28.4273  -13.8476   21.7989 H   0  0  0  0  0  0
  -25.2781   -9.5637   22.4810 H   0  0  0  0  0  0
  -24.0003   -7.4604   22.7452 H   0  0  0  0  0  0
  -21.0877   -8.8850   19.8946 H   0  0  0  0  0  0
  -22.3789  -10.9722   19.6207 H   0  0  0  0  0  0
  -21.1998   -7.6166   23.9742 H   0  0  0  0  0  0
  -21.1473   -6.0538   25.9097 H   0  0  0  0  0  0
  -22.0587   -2.7627   23.2866 H   0  0  0  0  0  0
  -22.4085  -11.9879   22.4827 H   0  0  0  0  0  0
  -21.1090  -13.1249   22.2642 H   0  0  0  0  0  0
  -24.6628  -15.8509   20.5085 H   0  0  0  0  0  0
  -26.2683  -15.6172   20.0409 H   0  0  0  0  0  0
  -26.7182  -32.5452   23.1196 H   0  0  0  0  0  0
  -25.0060  -33.9758   25.0456 H   0  0  0  0  0  0
  -22.7150  -31.3034   21.4102 H   0  0  0  0  0  0
  -23.3747  -35.9620   23.3300 H   0  0  0  0  0  0
  -24.3555  -36.8914   22.2059 H   0  0  0  0  0  0
  -23.7229  -37.6513   23.6642 H   0  0  0  0  0  0
  -26.0867  -31.5597   20.5997 H   0  0  0  0  0  0
  -26.8451  -30.8539   21.9961 H   0  0  0  0  0  0
  -28.1096  -28.9842   21.2194 H   0  0  0  0  0  0
  -26.0159  -25.9311   19.0119 H   0  0  0  0  0  0
  -23.9794  -27.3159   18.9993 H   0  0  0  0  0  0
  -23.7527  -30.6026   19.4108 H   0  0  0  0  0  0
  -22.7568  -29.2525   19.8551 H   0  0  0  0  0  0
  -25.1260  -36.1994   25.0851 H   0  0  0  0  0  0
  -20.9951  -28.3248   24.1425 H   0  0  0  0  0  0
  -20.5660  -26.2308   23.3616 H   0  0  0  0  0  0
  -21.6636  -26.7458   22.1220 H   0  0  0  0  0  0
  -19.6932  -25.6324   21.1231 H   0  0  0  0  0  0
  -19.6673  -27.3220   20.6756 H   0  0  0  0  0  0
  -17.4196  -26.6662   21.4023 H   0  0  0  0  0  0
  -18.0325  -26.0061   22.9016 H   0  0  0  0  0  0
  -19.7917  -30.7244   24.2332 H   0  0  0  0  0  0
  -17.4996  -31.6272   24.5169 H   0  0  0  0  0  0
  -15.5343  -30.3019   23.7613 H   0  0  0  0  0  0
  -15.8643  -28.0820   22.7105 H   0  0  0  0  0  0
  -24.5941  -30.7022   25.7813 H   0  0  0  0  0  0
  -24.8928  -32.2846   26.4925 H   0  0  0  0  0  0
  -25.8093  -30.8874   27.0269 H   0  0  0  0  0  0
  -26.2910  -29.6793   24.1143 H   0  0  0  0  0  0
  -27.4051  -29.7214   25.4618 H   0  0  0  0  0  0
  -27.8772  -30.4322   23.9367 H   0  0  0  0  0  0
  -27.2723  -33.3602   26.2087 H   0  0  0  0  0  0
  -28.3880  -32.6839   25.0302 H   0  0  0  0  0  0
  -28.0783  -31.8423   26.5413 H   0  0  0  0  0  0
  -28.2617  -38.0082   24.7497 H   0  0  0  0  0  0
  -28.1070  -36.2627   24.6320 H   0  0  0  0  0  0
  -27.2312  -37.1471   25.8885 H   0  0  0  0  0  0
  -20.9425  -29.8756   21.6900 H   0  0  0  0  0  0
  -26.0193  -38.2887   24.1380 H   0  0  0  0  0  0
  -30.6529  -24.3632   21.2723 H   0  0  0  0  0  0
  -31.5115  -22.0470   21.2380 H   0  0  0  0  0  0
  -24.8038  -22.0212   18.9025 H   0  0  0  0  0  0
  -25.9458  -20.7865   19.4197 H   0  0  0  0  0  0
  -26.4419  -22.0164   18.2517 H   0  0  0  0  0  0
  -29.5243  -26.0189   22.5462 H   0  0  0  0  0  0
  -28.2459  -25.0657   23.3020 H   0  0  0  0  0  0
  -27.9324  -26.7087   22.7904 H   0  0  0  0  0  0
  -31.1685  -16.7106   18.4113 H   0  0  0  0  0  0
  -30.7526  -18.4017   18.5650 H   0  0  0  0  0  0
  -29.4799  -17.2136   18.3465 H   0  0  0  0  0  0
  -26.0434  -23.7608   19.9974 H   0  0  0  0  0  0
  -25.7386  -22.5393   21.2092 H   0  0  0  0  0  0
  -29.0843  -18.2688   21.9177 H   0  0  0  0  0  0
  -28.4925  -18.5395   20.2978 H   0  0  0  0  0  0
  -26.9384  -25.1628   21.2565 H   0  0  0  0  0  0
  -31.2961  -17.3632   20.8099 H   0  0  0  0  0  0
  -31.1058  -19.7140   21.0616 H   0  0  0  0  0  0
  -28.9548  -15.6687   21.0090 H   0  0  0  0  0  0
  1 25  1  0  0  0
  1 30  2  0  0  0
  1 85  1  0  0  0
  2  3  1  0  0  0
  2 25  1  0  0  0
  2 86  1  0  0  0
  2 87  1  0  0  0
  3  4  1  0  0  0
  3 88  1  0  0  0
  3 89  1  0  0  0
  4  5  1  0  0  0
  4 90  1  0  0  0
  4 91  1  0  0  0
  5  6  1  0  0  0
  5 26  1  0  0  0
  5 92  1  0  0  0
  6 25  1  0  0  0
  6 93  1  0  0  0
  6 94  1  0  0  0
  7  8  2  0  0  0
  7 26  1  0  0  0
  7 29  1  0  0  0
  8  9  1  0  0  0
  8 22  1  0  0  0
  9 10  1  0  0  0
  9 27  2  0  0  0
 10 11  2  0  0  0
 10 15  1  0  0  0
 11 12  1  0  0  0
 11 95  1  0  0  0
 12 13  2  0  0  0
 12 96  1  0  0  0
 13 14  1  0  0  0
 13 31  1  0  0  0
 14 15  2  0  0  0
 14 97  1  0  0  0
 15 98  1  0  0  0
 16 17  2  0  0  0
 16 21  1  0  0  0
 16 31  1  0  0  0
 17 18  1  0  0  0
 17 99  1  0  0  0
 18 19  2  0  0  0
 18100  1  0  0  0
 19 20  1  0  0  0
 19 24  1  0  0  0
 20 21  2  0  0  0
 20101  1  0  0  0
 21 23  1  0  0  0
 22 28  1  0  0  0
 22 32  2  0  0  0
 26 27  1  0  0  0
 28102  1  0  0  0
 28103  1  0  0  0
 29104  1  0  0  0
 29105  1  0  0  0
 33 34  1  0  0  0
 33 66  1  0  0  0
 33 70  2  0  0  0
 34 36  1  0  0  0
 34 59  1  0  0  0
 34106  1  0  0  0
 35 44  2  0  0  0
 35 45  1  0  0  0
 35 68  1  0  0  0
 36 56  1  0  0  0
 36107  1  0  0  0
 37 39  1  0  0  0
 37 47  1  0  0  0
 37 66  1  0  0  0
 37108  1  0  0  0
 38 43  2  0  0  0
 38 46  1  0  0  0
 38 47  1  0  0  0
 39 64  1  0  0  0
 39 67  2  0  0  0
 40 52  1  0  0  0
 40 53  2  0  0  0
 40 58  1  0  0  0
 41109  1  0  0  0
 41110  1  0  0  0
 41111  1  0  0  0
 41 48  1  0  0  0
 42 43  1  0  0  0
 42 66  1  0  0  0
 42112  1  0  0  0
 42113  1  0  0  0
 43 44  1  0  0  0
 44114  1  0  0  0
 45 46  2  0  0  0
 45115  1  0  0  0
 46116  1  0  0  0
 47117  1  0  0  0
 47118  1  0  0  0
 48 56  1  0  0  0
 48 65  1  0  0  0
 48119  1  0  0  0
 49 50  1  0  0  0
 49 53  1  0  0  0
 49 64  1  0  0  0
 49120  1  0  0  0
 50 51  1  0  0  0
 50121  1  0  0  0
 50122  1  0  0  0
 51 52  1  0  0  0
 51123  1  0  0  0
 51124  1  0  0  0
 52125  1  0  0  0
 52126  1  0  0  0
 53 54  1  0  0  0
 54 55  2  0  0  0
 54127  1  0  0  0
 55 57  1  0  0  0
 55128  1  0  0  0
 56 69  2  0  0  0
 57 58  2  0  0  0
 57129  1  0  0  0
 58130  1  0  0  0
 59 60  1  0  0  0
 59 61  1  0  0  0
 59 62  1  0  0  0
 60131  1  0  0  0
 60132  1  0  0  0
 60133  1  0  0  0
 61134  1  0  0  0
 61135  1  0  0  0
 61136  1  0  0  0
 62137  1  0  0  0
 62138  1  0  0  0
 62139  1  0  0  0
 63 65  1  0  0  0
 63140  1  0  0  0
 63141  1  0  0  0
 63142  1  0  0  0
 64143  1  0  0  0
 65144  1  0  0  0
 68 81  1  0  0  0
 71 72  2  0  0  0
 71 73  1  0  0  0
 71145  1  0  0  0
 72 75  1  0  0  0
 72146  1  0  0  0
 73 74  2  0  0  0
 73 81  1  0  0  0
 74 79  1  0  0  0
 74 83  1  0  0  0
 75 83  2  0  0  0
 75 84  1  0  0  0
 76 79  1  0  0  0
 76147  1  0  0  0
 76148  1  0  0  0
 76149  1  0  0  0
 77150  1  0  0  0
 77151  1  0  0  0
 77152  1  0  0  0
 77 81  1  0  0  0
 78153  1  0  0  0
 78154  1  0  0  0
 78155  1  0  0  0
 78 82  1  0  0  0
 79156  1  0  0  0
 79157  1  0  0  0
 80 82  1  0  0  0
 80 84  1  0  0  0
 80158  1  0  0  0
 80159  1  0  0  0
 81160  1  0  0  0
 82 85  1  0  0  0
 82161  1  0  0  0
 84162  1  0  0  0
 85163  1  0  0  0
M  ISO  4   1 100  68 101  81 101  85 100
M  END
> <chiral flag>
0

> <version>
0

> <s_m_source_file>
/data/baiqing/PycharmProjects/Reinvent-master-3.2/result/LINK_invent/BTK/process_docking_weight1_custom_sum_contain_oxygen_bond_distance_aromatic_linkinvent_7_9_3/rearranged_h_0135.sdf

> <i_m_source_file_index>
43

> <r_mmod_Potential_Energy-OPLS-2005>
-179.105560302734

> <r_mmod_Stretch_Energy-OPLS-2005>
86.1239013671875

> <r_mmod_Bend_Energy-OPLS-2005>
157.689010620117

> <r_mmod_Torsional_Energy-OPLS-2005>
235.364501953125

> <r_mmod_Improper_Torsional_Energy-OPLS-2005>
7.23754215240479

> <r_mmod_Van_der_Waal_Energy-OPLS-2005>
142.797866821289

> <r_mmod_Electrostatic_Energy-OPLS-2005>
-642.867004394531

> <r_mmod_Solvation_Energy-OPLS-2005>
-227.230575561523

> <b_mmod_Minimization_Converged-OPLS-2005>
0

> <r_mmod_RMS_Derivative-OPLS-2005>
3.88257813453674

$$$$
43
                    3D
 Structure written by MMmdl.
160169  0  0  1  0            999 V2000
  -30.4745  -15.1756   20.3111 C   0  0  0  0  0  0
  -30.4585  -12.7322   19.4885 C   0  0  0  0  0  0
  -29.5398  -12.4384   18.2771 C   0  0  0  0  0  0
  -28.0721  -12.2449   18.7036 C   0  0  0  0  0  0
  -27.6140  -13.2368   19.8029 C   0  0  2  0  0  0
  -28.6653  -13.4210   20.9145 C   0  0  0  0  0  0
  -25.2479  -13.8159   20.5754 C   0  0  0  0  0  0
  -24.1783  -13.0410   20.9247 C   0  0  0  0  0  0
  -24.6382  -11.6886   20.8776 C   0  0  0  0  0  0
  -23.9064  -10.4270   21.0412 C   0  0  0  0  0  0
  -24.3613   -9.4190   21.9185 C   0  0  0  0  0  0
  -23.6289   -8.2233   22.0752 C   0  0  0  0  0  0
  -22.4279   -8.0267   21.3537 C   0  0  0  0  0  0
  -21.9905   -9.0245   20.4651 C   0  0  0  0  0  0
  -22.7234  -10.2123   20.3064 C   0  0  0  0  0  0
  -21.6854   -6.0729   22.5280 C   0  0  0  0  0  0
  -21.4012   -6.5633   23.8209 C   0  0  0  0  0  0
  -21.3660   -5.6788   24.9171 C   0  0  0  0  0  0
  -21.6046   -4.3049   24.7219 C   0  0  0  0  0  0
  -21.8825   -3.8143   23.4338 C   0  0  0  0  0  0
  -21.9192   -4.6961   22.3397 C   0  0  0  0  0  0
  -22.7810  -13.5210   21.1873 C   0  0  0  0  0  0
  -22.1665   -4.2147   21.0976 F   0  0  0  0  0  0
  -21.5628   -3.4531   25.7732 F   0  0  0  0  0  0
  -29.8909  -13.8900   20.2490 N   0  0  0  0  0  0
  -26.2859  -12.9353   20.3204 N   0  0  0  0  0  0
  -25.9300  -11.6503   20.5756 N   0  0  0  0  0  0
  -22.0447  -12.8211   22.0425 N   0  0  0  0  0  0
  -25.4163  -15.1891   20.4244 N   0  0  0  0  0  0
  -31.7111  -15.1713   20.3539 O   0  0  0  0  0  0
  -21.6635   -6.8869   21.4244 O   0  0  0  0  0  0
  -22.3494  -14.5513   20.6698 O   0  0  0  0  0  0
  -24.6537  -31.8325   23.1764 C   0  0  0  0  0  0
  -25.9257  -32.4637   23.8196 C   0  0  1  0  0  0
  -27.2296  -27.0226   20.1837 C   0  0  0  0  0  0
  -25.5959  -33.8442   24.2107 N   0  0  0  0  0  0
  -23.4645  -30.4461   21.5228 C   0  0  2  0  0  0
  -24.9182  -28.8411   20.1214 C   0  0  0  0  0  0
  -22.7614  -29.4495   22.4801 C   0  0  0  0  0  0
  -18.0316  -28.1405   22.8470 C   0  0  0  0  0  0
  -24.1491  -36.7227   23.2644 C   0  0  0  0  0  0
  -26.0277  -30.6717   21.3897 C   0  0  0  0  0  0
  -26.0998  -29.2682   20.7404 C   0  0  0  0  0  0
  -27.2557  -28.3806   20.7426 C   0  0  0  0  0  0
  -26.0166  -26.7155   19.5324 C   0  0  0  0  0  0
  -24.8948  -27.5810   19.5003 C   0  0  0  0  0  0
  -23.7003  -29.7592   20.1495 C   0  0  0  0  0  0
  -25.4128  -36.2993   24.0302 C   0  0  1  0  0  0
  -20.5935  -28.3749   23.1197 C   0  0  2  0  0  0
  -20.6798  -26.9432   22.5402 C   0  0  0  0  0  0
  -19.5774  -26.6376   21.5211 C   0  0  0  0  0  0
  -18.1952  -26.7940   22.1619 C   0  0  0  0  0  0
  -19.1574  -28.8891   23.2825 C   0  0  0  0  0  0
  -18.9488  -30.1482   23.8861 C   0  0  0  0  0  0
  -17.6486  -30.6593   24.0559 C   0  0  0  0  0  0
  -25.9084  -34.9378   23.5019 C   0  0  0  0  0  0
  -16.5377  -29.9087   23.6342 C   0  0  0  0  0  0
  -16.7296  -28.6507   23.0359 C   0  0  0  0  0  0
  -26.4543  -31.6547   25.0683 C   0  0  0  0  0  0
  -25.3690  -31.3787   26.1353 C   0  0  0  0  0  0
  -27.0422  -30.2919   24.6359 C   0  0  0  0  0  0
  -27.6045  -32.4344   25.7484 C   0  0  0  0  0  0
  -27.5571  -37.1766   24.8463 C   0  0  0  0  0  0
  -21.4293  -29.3059   22.3557 N   0  0  0  0  0  0
  -26.4282  -37.3726   23.9408 N   0  0  0  0  0  0
  -24.7359  -31.0081   22.0842 N   0  0  0  0  0  0
  -23.4208  -28.8059   23.3007 O   0  0  0  0  0  0
  -28.2906  -26.0064   20.1759 O   0  0  0  0  0  0
  -26.5694  -34.8906   22.4612 O   0  0  0  0  0  0
  -23.5626  -32.1249   23.6912 O   0  0  0  0  0  0
  -29.2948  -15.7749   17.5601 C   0  0  0  0  0  0
  -29.2737  -17.2665   17.6648 C   0  0  0  0  0  0
  -28.3003  -18.8688   20.4006 C   0  0  0  0  0  0
  -30.6812  -19.1573   20.1834 C   0  0  0  0  0  0
  -28.1479  -20.4595   20.8489 C   0  0  0  0  0  0
  -30.2011  -20.6512   19.6388 C   0  0  0  0  0  0
  -28.8773  -16.4231   18.8715 C   0  0  0  0  0  0
  -29.6530  -17.9775   20.5885 C   0  0  1  0  0  0
  -28.7923  -22.9866   19.8041 C   0  0  0  0  0  0
  -28.1630  -24.4397   20.5516 C   0  0  0  0  0  0
  -29.7316  -16.4230   20.0340 N   0  0  0  0  0  0
  -29.1820  -21.5066   20.4168 N   0  3  1  0  0  0
  -31.4673  -12.9540   19.1341 H   0  0  0  0  0  0
  -30.5524  -11.8553   20.1303 H   0  0  0  0  0  0
  -29.8915  -11.5420   17.7632 H   0  0  0  0  0  0
  -29.6118  -13.2278   17.5371 H   0  0  0  0  0  0
  -27.9848  -11.2236   19.0787 H   0  0  0  0  0  0
  -27.4151  -12.3058   17.8347 H   0  0  0  0  0  0
  -27.5169  -14.1868   19.2860 H   0  0  0  0  0  0
  -28.8298  -12.5000   21.4748 H   0  0  0  0  0  0
  -28.3255  -14.1708   21.6322 H   0  0  0  0  0  0
  -25.2759   -9.5670   22.4750 H   0  0  0  0  0  0
  -24.0007   -7.4620   22.7460 H   0  0  0  0  0  0
  -21.0836   -8.8760   19.8954 H   0  0  0  0  0  0
  -22.3689  -10.9660   19.6180 H   0  0  0  0  0  0
  -21.2009   -7.6141   23.9712 H   0  0  0  0  0  0
  -21.1478   -6.0513   25.9072 H   0  0  0  0  0  0
  -22.0607   -2.7606   23.2832 H   0  0  0  0  0  0
  -22.4060  -11.9915   22.4895 H   0  0  0  0  0  0
  -21.1050  -13.1232   22.2582 H   0  0  0  0  0  0
  -24.6519  -15.8414   20.5600 H   0  0  0  0  0  0
  -26.2807  -15.6377   20.1542 H   0  0  0  0  0  0
  -26.7322  -32.5209   23.0917 H   0  0  0  0  0  0
  -25.0074  -33.9533   25.0236 H   0  0  0  0  0  0
  -22.7749  -31.2749   21.3527 H   0  0  0  0  0  0
  -23.3761  -35.9553   23.3287 H   0  0  0  0  0  0
  -24.3574  -36.8888   22.2063 H   0  0  0  0  0  0
  -23.7236  -37.6406   23.6712 H   0  0  0  0  0  0
  -26.1947  -31.4174   20.6111 H   0  0  0  0  0  0
  -26.8931  -30.7288   22.0380 H   0  0  0  0  0  0
  -28.1616  -28.7159   21.2284 H   0  0  0  0  0  0
  -25.9211  -25.7531   19.0493 H   0  0  0  0  0  0
  -23.9944  -27.2470   19.0032 H   0  0  0  0  0  0
  -23.8486  -30.5253   19.3871 H   0  0  0  0  0  0
  -22.8133  -29.2061   19.8349 H   0  0  0  0  0  0
  -25.1326  -36.1801   25.0796 H   0  0  0  0  0  0
  -21.0032  -28.3355   24.1314 H   0  0  0  0  0  0
  -20.5668  -26.2372   23.3643 H   0  0  0  0  0  0
  -21.6665  -26.7416   22.1213 H   0  0  0  0  0  0
  -19.6932  -25.6275   21.1270 H   0  0  0  0  0  0
  -19.6702  -27.3168   20.6723 H   0  0  0  0  0  0
  -17.4220  -26.6678   21.4021 H   0  0  0  0  0  0
  -18.0344  -26.0088   22.9020 H   0  0  0  0  0  0
  -19.7966  -30.7304   24.2215 H   0  0  0  0  0  0
  -17.5040  -31.6273   24.5167 H   0  0  0  0  0  0
  -15.5374  -30.2983   23.7680 H   0  0  0  0  0  0
  -15.8700  -28.0818   22.7095 H   0  0  0  0  0  0
  -24.5883  -30.7125   25.7675 H   0  0  0  0  0  0
  -24.8868  -32.2987   26.4666 H   0  0  0  0  0  0
  -25.7931  -30.9032   27.0205 H   0  0  0  0  0  0
  -26.3068  -29.6606   24.1356 H   0  0  0  0  0  0
  -27.3970  -29.7272   25.4996 H   0  0  0  0  0  0
  -27.9015  -30.4114   23.9752 H   0  0  0  0  0  0
  -27.2614  -33.3681   26.1964 H   0  0  0  0  0  0
  -28.3913  -32.6842   25.0351 H   0  0  0  0  0  0
  -28.0656  -31.8528   26.5479 H   0  0  0  0  0  0
  -28.2574  -38.0079   24.7521 H   0  0  0  0  0  0
  -28.1077  -36.2598   24.6280 H   0  0  0  0  0  0
  -27.2290  -37.1413   25.8870 H   0  0  0  0  0  0
  -20.9524  -29.8756   21.6710 H   0  0  0  0  0  0
  -26.0126  -38.2788   24.1421 H   0  0  0  0  0  0
  -30.2838  -15.3310   17.4668 H   0  0  0  0  0  0
  -28.5176  -15.3114   16.9548 H   0  0  0  0  0  0
  -28.4865  -17.7884   17.1241 H   0  0  0  0  0  0
  -30.2410  -17.7634   17.6631 H   0  0  0  0  0  0
  -28.0325  -18.8664   19.3456 H   0  0  0  0  0  0
  -27.4852  -18.3233   20.8788 H   0  0  0  0  0  0
  -31.3077  -19.3375   21.0582 H   0  0  0  0  0  0
  -31.3831  -18.7521   19.4550 H   0  0  0  0  0  0
  -28.1049  -20.4976   21.9377 H   0  0  0  0  0  0
  -27.1705  -20.8074   20.5154 H   0  0  0  0  0  0
  -29.8086  -20.5290   18.6289 H   0  0  0  0  0  0
  -31.0986  -21.2592   19.5176 H   0  0  0  0  0  0
  -27.8114  -16.4050   19.0843 H   0  0  0  0  0  0
  -29.7677  -17.8438   21.6648 H   0  0  0  0  0  0
  -29.7360  -23.3197   19.3722 H   0  0  0  0  0  0
  -28.1651  -22.7915   18.9342 H   0  0  0  0  0  0
  -28.5789  -24.4167   21.5595 H   0  0  0  0  0  0
  -27.0997  -24.2602   20.7111 H   0  0  0  0  0  0
  -29.6725  -21.7283   21.2715 H   0  0  0  0  0  0
  1 25  1  0  0  0
  1 30  2  0  0  0
  1 81  1  0  0  0
  2  3  1  0  0  0
  2 25  1  0  0  0
  2 83  1  0  0  0
  2 84  1  0  0  0
  3  4  1  0  0  0
  3 85  1  0  0  0
  3 86  1  0  0  0
  4  5  1  0  0  0
  4 87  1  0  0  0
  4 88  1  0  0  0
  5  6  1  0  0  0
  5 26  1  0  0  0
  5 89  1  0  0  0
  6 25  1  0  0  0
  6 90  1  0  0  0
  6 91  1  0  0  0
  7  8  2  0  0  0
  7 26  1  0  0  0
  7 29  1  0  0  0
  8  9  1  0  0  0
  8 22  1  0  0  0
  9 10  1  0  0  0
  9 27  2  0  0  0
 10 11  2  0  0  0
 10 15  1  0  0  0
 11 12  1  0  0  0
 11 92  1  0  0  0
 12 13  2  0  0  0
 12 93  1  0  0  0
 13 14  1  0  0  0
 13 31  1  0  0  0
 14 15  2  0  0  0
 14 94  1  0  0  0
 15 95  1  0  0  0
 16 17  2  0  0  0
 16 21  1  0  0  0
 16 31  1  0  0  0
 17 18  1  0  0  0
 17 96  1  0  0  0
 18 19  2  0  0  0
 18 97  1  0  0  0
 19 20  1  0  0  0
 19 24  1  0  0  0
 20 21  2  0  0  0
 20 98  1  0  0  0
 21 23  1  0  0  0
 22 28  1  0  0  0
 22 32  2  0  0  0
 26 27  1  0  0  0
 28 99  1  0  0  0
 28100  1  0  0  0
 29101  1  0  0  0
 29102  1  0  0  0
 33 34  1  0  0  0
 33 66  1  0  0  0
 33 70  2  0  0  0
 34 36  1  0  0  0
 34 59  1  0  0  0
 34103  1  0  0  0
 35 44  2  0  0  0
 35 45  1  0  0  0
 35 68  1  0  0  0
 36 56  1  0  0  0
 36104  1  0  0  0
 37 39  1  0  0  0
 37 47  1  0  0  0
 37 66  1  0  0  0
 37105  1  0  0  0
 38 43  2  0  0  0
 38 46  1  0  0  0
 38 47  1  0  0  0
 39 64  1  0  0  0
 39 67  2  0  0  0
 40 52  1  0  0  0
 40 53  2  0  0  0
 40 58  1  0  0  0
 41106  1  0  0  0
 41107  1  0  0  0
 41108  1  0  0  0
 41 48  1  0  0  0
 42 43  1  0  0  0
 42 66  1  0  0  0
 42109  1  0  0  0
 42110  1  0  0  0
 43 44  1  0  0  0
 44111  1  0  0  0
 45 46  2  0  0  0
 45112  1  0  0  0
 46113  1  0  0  0
 47114  1  0  0  0
 47115  1  0  0  0
 48 56  1  0  0  0
 48 65  1  0  0  0
 48116  1  0  0  0
 49 50  1  0  0  0
 49 53  1  0  0  0
 49 64  1  0  0  0
 49117  1  0  0  0
 50 51  1  0  0  0
 50118  1  0  0  0
 50119  1  0  0  0
 51 52  1  0  0  0
 51120  1  0  0  0
 51121  1  0  0  0
 52122  1  0  0  0
 52123  1  0  0  0
 53 54  1  0  0  0
 54 55  2  0  0  0
 54124  1  0  0  0
 55 57  1  0  0  0
 55125  1  0  0  0
 56 69  2  0  0  0
 57 58  2  0  0  0
 57126  1  0  0  0
 58127  1  0  0  0
 59 60  1  0  0  0
 59 61  1  0  0  0
 59 62  1  0  0  0
 60128  1  0  0  0
 60129  1  0  0  0
 60130  1  0  0  0
 61131  1  0  0  0
 61132  1  0  0  0
 61133  1  0  0  0
 62134  1  0  0  0
 62135  1  0  0  0
 62136  1  0  0  0
 63 65  1  0  0  0
 63137  1  0  0  0
 63138  1  0  0  0
 63139  1  0  0  0
 64140  1  0  0  0
 65141  1  0  0  0
 68 80  1  0  0  0
 71 72  1  0  0  0
 71 77  1  0  0  0
 71142  1  0  0  0
 71143  1  0  0  0
 72 77  1  0  0  0
 72144  1  0  0  0
 72145  1  0  0  0
 73 75  1  0  0  0
 73 78  1  0  0  0
 73146  1  0  0  0
 73147  1  0  0  0
 74 76  1  0  0  0
 74 78  1  0  0  0
 74148  1  0  0  0
 74149  1  0  0  0
 75 82  1  0  0  0
 75150  1  0  0  0
 75151  1  0  0  0
 76 82  1  0  0  0
 76152  1  0  0  0
 76153  1  0  0  0
 77 81  1  0  0  0
 77154  1  0  0  0
 78 81  1  0  0  0
 78155  1  0  0  0
 79 80  1  0  0  0
 79156  1  0  0  0
 79157  1  0  0  0
 79 82  1  0  0  0
 80158  1  0  0  0
 80159  1  0  0  0
 82160  1  0  0  0
M  CHG  1  82   1
M  ISO  4   1 100  68 101  80 101  81 100
M  END
> <chiral flag>
0

> <version>
0

> <s_m_source_file>
/data/baiqing/PycharmProjects/Reinvent-master-3.2/result/LINK_invent/BTK/process_docking_weight1_custom_sum_contain_oxygen_bond_distance_aromatic_linkinvent_7_9_3/rearranged_h_0135.sdf

> <i_m_source_file_index>
44

> <r_mmod_Potential_Energy-OPLS-2005>
1243.20068359375

> <r_mmod_Stretch_Energy-OPLS-2005>
420.540100097656

> <r_mmod_Bend_Energy-OPLS-2005>
418.695373535156

> <r_mmod_Torsional_Energy-OPLS-2005>
472.883941650391

> <r_mmod_Improper_Torsional_Energy-OPLS-2005>
6.90618419647217

> <r_mmod_Van_der_Waal_Energy-OPLS-2005>
115.241874694824

> <r_mmod_Electrostatic_Energy-OPLS-2005>
-123.933471679688

> <r_mmod_Solvation_Energy-OPLS-2005>
-426.785308837891

> <b_mmod_Minimization_Converged-OPLS-2005>
0

> <r_mmod_RMS_Derivative-OPLS-2005>
2.1425929069519

$$$$
44
                    3D
 Structure written by MMmdl.
155164  0  0  1  0            999 V2000
  -30.4820  -15.0617   20.4098 C   0  0  0  0  0  0
  -30.4501  -12.6746   19.4750 C   0  0  0  0  0  0
  -29.5218  -12.5316   18.2461 C   0  0  0  0  0  0
  -28.0608  -12.2954   18.6791 C   0  0  0  0  0  0
  -27.6196  -13.2480   19.8199 C   0  0  2  0  0  0
  -28.6685  -13.3290   20.9451 C   0  0  0  0  0  0
  -25.2446  -13.8202   20.5717 C   0  0  0  0  0  0
  -24.1770  -13.0425   20.9241 C   0  0  0  0  0  0
  -24.6389  -11.6911   20.8757 C   0  0  0  0  0  0
  -23.9076  -10.4285   21.0412 C   0  0  0  0  0  0
  -24.3626   -9.4200   21.9188 C   0  0  0  0  0  0
  -23.6298   -8.2236   22.0755 C   0  0  0  0  0  0
  -22.4281   -8.0276   21.3542 C   0  0  0  0  0  0
  -21.9919   -9.0249   20.4644 C   0  0  0  0  0  0
  -22.7249  -10.2127   20.3057 C   0  0  0  0  0  0
  -21.6853   -6.0734   22.5277 C   0  0  0  0  0  0
  -21.4013   -6.5640   23.8209 C   0  0  0  0  0  0
  -21.3662   -5.6793   24.9172 C   0  0  0  0  0  0
  -21.6046   -4.3055   24.7222 C   0  0  0  0  0  0
  -21.8819   -3.8147   23.4343 C   0  0  0  0  0  0
  -21.9194   -4.6964   22.3400 C   0  0  0  0  0  0
  -22.7791  -13.5198   21.1894 C   0  0  0  0  0  0
  -22.1662   -4.2153   21.0977 F   0  0  0  0  0  0
  -21.5632   -3.4537   25.7734 F   0  0  0  0  0  0
  -29.9132  -13.7859   20.3126 N   0  0  0  0  0  0
  -26.2853  -12.9424   20.3199 N   0  0  0  0  0  0
  -25.9319  -11.6558   20.5722 N   0  0  0  0  0  0
  -22.0442  -12.8182   22.0445 N   0  0  0  0  0  0
  -25.4101  -15.1936   20.4156 N   0  0  0  0  0  0
  -31.7147  -15.1164   20.3273 O   0  0  0  0  0  0
  -21.6639   -6.8876   21.4239 O   0  0  0  0  0  0
  -22.3476  -14.5502   20.6735 O   0  0  0  0  0  0
  -24.6493  -31.8383   23.1824 C   0  0  0  0  0  0
  -25.9236  -32.4670   23.8234 C   0  0  1  0  0  0
  -27.2167  -27.0551   20.1867 C   0  0  0  0  0  0
  -25.5959  -33.8476   24.2149 N   0  0  0  0  0  0
  -23.4567  -30.4536   21.5304 C   0  0  2  0  0  0
  -24.9060  -28.8497   20.1347 C   0  0  0  0  0  0
  -22.7591  -29.4527   22.4859 C   0  0  0  0  0  0
  -18.0309  -28.1409   22.8481 C   0  0  0  0  0  0
  -24.1484  -36.7235   23.2643 C   0  0  0  0  0  0
  -26.0170  -30.6841   21.3938 C   0  0  0  0  0  0
  -26.0860  -29.2780   20.7581 C   0  0  0  0  0  0
  -27.2444  -28.3990   20.7625 C   0  0  0  0  0  0
  -26.0070  -26.7372   19.5385 C   0  0  0  0  0  0
  -24.8801  -27.5918   19.5129 C   0  0  0  0  0  0
  -23.6908  -29.7694   20.1572 C   0  0  0  0  0  0
  -25.4123  -36.3018   24.0311 C   0  0  1  0  0  0
  -20.5924  -28.3738   23.1231 C   0  0  2  0  0  0
  -20.6790  -26.9437   22.5406 C   0  0  0  0  0  0
  -19.5759  -26.6392   21.5219 C   0  0  0  0  0  0
  -18.1943  -26.7946   22.1631 C   0  0  0  0  0  0
  -19.1567  -28.8894   23.2846 C   0  0  0  0  0  0
  -18.9482  -30.1488   23.8877 C   0  0  0  0  0  0
  -17.6477  -30.6604   24.0568 C   0  0  0  0  0  0
  -25.9079  -34.9396   23.5044 C   0  0  0  0  0  0
  -16.5367  -29.9098   23.6345 C   0  0  0  0  0  0
  -16.7293  -28.6517   23.0366 C   0  0  0  0  0  0
  -26.4533  -31.6557   25.0700 C   0  0  0  0  0  0
  -25.3697  -31.3765   26.1384 C   0  0  0  0  0  0
  -27.0405  -30.2947   24.6316 C   0  0  0  0  0  0
  -27.6051  -32.4327   25.7496 C   0  0  0  0  0  0
  -27.5570  -37.1779   24.8470 C   0  0  0  0  0  0
  -21.4279  -29.3054   22.3597 N   0  0  0  0  0  0
  -26.4280  -37.3741   23.9413 N   0  0  0  0  0  0
  -24.7280  -31.0167   22.0900 N   0  0  0  0  0  0
  -23.4200  -28.8093   23.3049 O   0  0  0  0  0  0
  -28.3007  -26.1082   19.9883 O   0  0  0  0  0  0
  -26.5675  -34.8907   22.4631 O   0  0  0  0  0  0
  -23.5595  -32.1292   23.7002 O   0  0  0  0  0  0
  -30.8768  -19.8251   21.1875 C   0  0  0  0  0  0
  -29.0495  -21.9138   20.4859 C   0  0  0  0  0  0
  -29.6642  -19.3183   20.6726 C   0  0  0  0  0  0
  -28.7443  -20.4486   20.2877 C   0  0  0  0  0  0
  -30.2645  -22.1211   21.1515 C   0  0  0  0  0  0
  -28.2655  -23.3330   20.0487 C   0  0  0  0  0  0
  -30.5933  -23.5116   21.6910 C   0  0  0  0  0  0
  -29.9847  -24.7009   20.9032 C   0  0  0  0  0  0
  -27.3895  -20.0846   19.7172 C   0  0  0  0  0  0
  -29.4061  -17.6709   20.9798 C   0  0  0  0  0  0
  -31.1475  -21.1321   21.4434 N   0  0  0  0  0  0
  -28.5211  -24.7064   20.7795 N   0  0  0  0  0  0
  -29.6668  -16.2461   20.2728 N   0  0  0  0  0  0
  -31.4694  -12.8823   19.1454 H   0  0  0  0  0  0
  -30.4982  -11.7444   20.0436 H   0  0  0  0  0  0
  -29.8605  -11.7156   17.6064 H   0  0  0  0  0  0
  -29.5791  -13.4383   17.6418 H   0  0  0  0  0  0
  -27.9829  -11.2612   19.0165 H   0  0  0  0  0  0
  -27.3905  -12.3874   17.8241 H   0  0  0  0  0  0
  -27.5600  -14.2351   19.3611 H   0  0  0  0  0  0
  -28.7983  -12.3665   21.4419 H   0  0  0  0  0  0
  -28.3528  -14.0379   21.7124 H   0  0  0  0  0  0
  -25.2768   -9.5677   22.4765 H   0  0  0  0  0  0
  -24.0007   -7.4628   22.7475 H   0  0  0  0  0  0
  -21.0849   -8.8767   19.8949 H   0  0  0  0  0  0
  -22.3706  -10.9666   19.6167 H   0  0  0  0  0  0
  -21.2002   -7.6147   23.9713 H   0  0  0  0  0  0
  -21.1485   -6.0521   25.9075 H   0  0  0  0  0  0
  -22.0599   -2.7611   23.2838 H   0  0  0  0  0  0
  -22.4069  -11.9845   22.4824 H   0  0  0  0  0  0
  -21.1056  -13.1197   22.2651 H   0  0  0  0  0  0
  -24.6392  -15.8422   20.5336 H   0  0  0  0  0  0
  -26.2510  -15.6389   20.0758 H   0  0  0  0  0  0
  -26.7302  -32.5263   23.0959 H   0  0  0  0  0  0
  -25.0074  -33.9568   25.0277 H   0  0  0  0  0  0
  -22.7633  -31.2810   21.3665 H   0  0  0  0  0  0
  -23.3757  -35.9555   23.3293 H   0  0  0  0  0  0
  -24.3563  -36.8883   22.2059 H   0  0  0  0  0  0
  -23.7224  -37.6419   23.6693 H   0  0  0  0  0  0
  -26.1741  -31.4221   20.6056 H   0  0  0  0  0  0
  -26.8869  -30.7503   22.0349 H   0  0  0  0  0  0
  -28.1613  -28.7434   21.2200 H   0  0  0  0  0  0
  -25.9334  -25.7840   19.0351 H   0  0  0  0  0  0
  -23.9822  -27.2593   19.0102 H   0  0  0  0  0  0
  -23.8437  -30.5356   19.3964 H   0  0  0  0  0  0
  -22.8020  -29.2189   19.8431 H   0  0  0  0  0  0
  -25.1314  -36.1833   25.0804 H   0  0  0  0  0  0
  -21.0015  -28.3331   24.1354 H   0  0  0  0  0  0
  -20.5686  -26.2353   23.3628 H   0  0  0  0  0  0
  -21.6657  -26.7437   22.1204 H   0  0  0  0  0  0
  -19.6911  -25.6298   21.1263 H   0  0  0  0  0  0
  -19.6695  -27.3193   20.6741 H   0  0  0  0  0  0
  -17.4210  -26.6703   21.4032 H   0  0  0  0  0  0
  -18.0340  -26.0092   22.9033 H   0  0  0  0  0  0
  -19.7956  -30.7317   24.2232 H   0  0  0  0  0  0
  -17.5029  -31.6284   24.5174 H   0  0  0  0  0  0
  -15.5369  -30.2998   23.7676 H   0  0  0  0  0  0
  -15.8693  -28.0830   22.7094 H   0  0  0  0  0  0
  -24.5902  -30.7082   25.7709 H   0  0  0  0  0  0
  -24.8852  -32.2950   26.4707 H   0  0  0  0  0  0
  -25.7969  -30.9016   27.0226 H   0  0  0  0  0  0
  -26.3037  -29.6664   24.1301 H   0  0  0  0  0  0
  -27.3979  -29.7257   25.4907 H   0  0  0  0  0  0
  -27.8964  -30.4172   23.9673 H   0  0  0  0  0  0
  -27.2649  -33.3665   26.1986 H   0  0  0  0  0  0
  -28.3921  -32.6824   25.0366 H   0  0  0  0  0  0
  -28.0654  -31.8500   26.5484 H   0  0  0  0  0  0
  -28.2590  -38.0074   24.7525 H   0  0  0  0  0  0
  -28.1064  -36.2609   24.6296 H   0  0  0  0  0  0
  -27.2289  -37.1426   25.8873 H   0  0  0  0  0  0
  -20.9503  -29.8747   21.6751 H   0  0  0  0  0  0
  -26.0136  -38.2802   24.1429 H   0  0  0  0  0  0
  -31.6266  -19.1361   21.5488 H   0  0  0  0  0  0
  -27.1919  -23.1455   20.0749 H   0  0  0  0  0  0
  -28.5033  -23.4872   18.9949 H   0  0  0  0  0  0
  -31.6768  -23.6326   21.7236 H   0  0  0  0  0  0
  -30.2530  -23.5563   22.7257 H   0  0  0  0  0  0
  -30.4233  -24.7194   19.9042 H   0  0  0  0  0  0
  -30.2916  -25.6284   21.3866 H   0  0  0  0  0  0
  -27.0449  -20.8370   19.0078 H   0  0  0  0  0  0
  -26.6519  -20.0053   20.5161 H   0  0  0  0  0  0
  -27.4296  -19.1288   19.1944 H   0  0  0  0  0  0
  -28.3352  -17.6366   21.1816 H   0  0  0  0  0  0
  -29.8413  -17.5257   21.9701 H   0  0  0  0  0  0
  -28.7918  -15.9392   19.8764 H   0  0  0  0  0  0
  1 25  1  0  0  0
  1 30  2  0  0  0
  1 83  1  0  0  0
  2  3  1  0  0  0
  2 25  1  0  0  0
  2 84  1  0  0  0
  2 85  1  0  0  0
  3  4  1  0  0  0
  3 86  1  0  0  0
  3 87  1  0  0  0
  4  5  1  0  0  0
  4 88  1  0  0  0
  4 89  1  0  0  0
  5  6  1  0  0  0
  5 26  1  0  0  0
  5 90  1  0  0  0
  6 25  1  0  0  0
  6 91  1  0  0  0
  6 92  1  0  0  0
  7  8  2  0  0  0
  7 26  1  0  0  0
  7 29  1  0  0  0
  8  9  1  0  0  0
  8 22  1  0  0  0
  9 10  1  0  0  0
  9 27  2  0  0  0
 10 11  2  0  0  0
 10 15  1  0  0  0
 11 12  1  0  0  0
 11 93  1  0  0  0
 12 13  2  0  0  0
 12 94  1  0  0  0
 13 14  1  0  0  0
 13 31  1  0  0  0
 14 15  2  0  0  0
 14 95  1  0  0  0
 15 96  1  0  0  0
 16 17  2  0  0  0
 16 21  1  0  0  0
 16 31  1  0  0  0
 17 18  1  0  0  0
 17 97  1  0  0  0
 18 19  2  0  0  0
 18 98  1  0  0  0
 19 20  1  0  0  0
 19 24  1  0  0  0
 20 21  2  0  0  0
 20 99  1  0  0  0
 21 23  1  0  0  0
 22 28  1  0  0  0
 22 32  2  0  0  0
 26 27  1  0  0  0
 28100  1  0  0  0
 28101  1  0  0  0
 29102  1  0  0  0
 29103  1  0  0  0
 33 34  1  0  0  0
 33 66  1  0  0  0
 33 70  2  0  0  0
 34 36  1  0  0  0
 34 59  1  0  0  0
 34104  1  0  0  0
 35 44  2  0  0  0
 35 45  1  0  0  0
 35 68  1  0  0  0
 36 56  1  0  0  0
 36105  1  0  0  0
 37 39  1  0  0  0
 37 47  1  0  0  0
 37 66  1  0  0  0
 37106  1  0  0  0
 38 43  2  0  0  0
 38 46  1  0  0  0
 38 47  1  0  0  0
 39 64  1  0  0  0
 39 67  2  0  0  0
 40 52  1  0  0  0
 40 53  2  0  0  0
 40 58  1  0  0  0
 41107  1  0  0  0
 41108  1  0  0  0
 41109  1  0  0  0
 41 48  1  0  0  0
 42 43  1  0  0  0
 42 66  1  0  0  0
 42110  1  0  0  0
 42111  1  0  0  0
 43 44  1  0  0  0
 44112  1  0  0  0
 45 46  2  0  0  0
 45113  1  0  0  0
 46114  1  0  0  0
 47115  1  0  0  0
 47116  1  0  0  0
 48 56  1  0  0  0
 48 65  1  0  0  0
 48117  1  0  0  0
 49 50  1  0  0  0
 49 53  1  0  0  0
 49 64  1  0  0  0
 49118  1  0  0  0
 50 51  1  0  0  0
 50119  1  0  0  0
 50120  1  0  0  0
 51 52  1  0  0  0
 51121  1  0  0  0
 51122  1  0  0  0
 52123  1  0  0  0
 52124  1  0  0  0
 53 54  1  0  0  0
 54 55  2  0  0  0
 54125  1  0  0  0
 55 57  1  0  0  0
 55126  1  0  0  0
 56 69  2  0  0  0
 57 58  2  0  0  0
 57127  1  0  0  0
 58128  1  0  0  0
 59 60  1  0  0  0
 59 61  1  0  0  0
 59 62  1  0  0  0
 60129  1  0  0  0
 60130  1  0  0  0
 60131  1  0  0  0
 61132  1  0  0  0
 61133  1  0  0  0
 61134  1  0  0  0
 62135  1  0  0  0
 62136  1  0  0  0
 62137  1  0  0  0
 63 65  1  0  0  0
 63138  1  0  0  0
 63139  1  0  0  0
 63140  1  0  0  0
 64141  1  0  0  0
 65142  1  0  0  0
 68 82  1  0  0  0
 71 73  2  0  0  0
 71 81  1  0  0  0
 71143  1  0  0  0
 72 74  2  0  0  0
 72 75  1  0  0  0
 72 76  1  0  0  0
 73 74  1  0  0  0
 73 80  1  0  0  0
 74 79  1  0  0  0
 75 77  1  0  0  0
 75 81  2  0  0  0
 76 82  1  0  0  0
 76144  1  0  0  0
 76145  1  0  0  0
 77 78  1  0  0  0
 77146  1  0  0  0
 77147  1  0  0  0
 78 82  1  0  0  0
 78148  1  0  0  0
 78149  1  0  0  0
 79150  1  0  0  0
 79151  1  0  0  0
 79152  1  0  0  0
 80 83  1  0  0  0
 80153  1  0  0  0
 80154  1  0  0  0
 83155  1  0  0  0
M  ISO  4   1 100  68 101  82 101  83 100
M  END
> <chiral flag>
0

> <version>
0

> <s_m_source_file>
/data/baiqing/PycharmProjects/Reinvent-master-3.2/result/LINK_invent/BTK/process_docking_weight1_custom_sum_contain_oxygen_bond_distance_aromatic_linkinvent_7_9_3/rearranged_h_0135.sdf

> <i_m_source_file_index>
45

> <r_mmod_Potential_Energy-OPLS-2005>
686.621154785156

> <r_mmod_Stretch_Energy-OPLS-2005>
336.489379882812

> <r_mmod_Bend_Energy-OPLS-2005>
384.892059326172

> <r_mmod_Torsional_Energy-OPLS-2005>
284.241149902344

> <r_mmod_Improper_Torsional_Energy-OPLS-2005>
15.5156955718994

> <r_mmod_Van_der_Waal_Energy-OPLS-2005>
126.212196350098

> <r_mmod_Electrostatic_Energy-OPLS-2005>
-484.746643066406

> <r_mmod_Solvation_Energy-OPLS-2005>
-246.543075561523

> <b_mmod_Minimization_Converged-OPLS-2005>
0

> <r_mmod_RMS_Derivative-OPLS-2005>
0.806723892688751

$$$$
45
                    3D
 Structure written by MMmdl.
151160  0  0  1  0            999 V2000
  -30.3346  -15.3580   20.2041 C   0  0  0  0  0  0
  -30.4246  -12.8595   19.5128 C   0  0  0  0  0  0
  -29.5311  -12.5695   18.2809 C   0  0  0  0  0  0
  -28.0770  -12.3012   18.7047 C   0  0  0  0  0  0
  -27.5997  -13.2788   19.8124 C   0  0  2  0  0  0
  -28.6420  -13.4706   20.9328 C   0  0  0  0  0  0
  -25.2405  -13.8231   20.5765 C   0  0  0  0  0  0
  -24.1726  -13.0478   20.9225 C   0  0  0  0  0  0
  -24.6384  -11.6986   20.8758 C   0  0  0  0  0  0
  -23.9098  -10.4343   21.0402 C   0  0  0  0  0  0
  -24.3623   -9.4232   21.9170 C   0  0  0  0  0  0
  -23.6295   -8.2243   22.0762 C   0  0  0  0  0  0
  -22.4257   -8.0278   21.3565 C   0  0  0  0  0  0
  -21.9915   -9.0257   20.4641 C   0  0  0  0  0  0
  -22.7264  -10.2140   20.3060 C   0  0  0  0  0  0
  -21.6824   -6.0741   22.5321 C   0  0  0  0  0  0
  -21.4006   -6.5649   23.8255 C   0  0  0  0  0  0
  -21.3671   -5.6787   24.9187 C   0  0  0  0  0  0
  -21.6039   -4.3060   24.7228 C   0  0  0  0  0  0
  -21.8818   -3.8164   23.4345 C   0  0  0  0  0  0
  -21.9193   -4.6983   22.3403 C   0  0  0  0  0  0
  -22.7762  -13.5250   21.1869 C   0  0  0  0  0  0
  -22.1656   -4.2171   21.0974 F   0  0  0  0  0  0
  -21.5629   -3.4549   25.7738 F   0  0  0  0  0  0
  -29.8375  -14.0187   20.2743 N   0  0  0  0  0  0
  -26.2780  -12.9535   20.3158 N   0  0  0  0  0  0
  -25.9303  -11.6695   20.5658 N   0  0  0  0  0  0
  -22.0361  -12.8231   22.0395 N   0  0  0  0  0  0
  -25.4211  -15.1912   20.4396 N   0  0  0  0  0  0
  -31.5633  -15.3700   19.9962 O   0  0  0  0  0  0
  -21.6646   -6.8838   21.4261 O   0  0  0  0  0  0
  -22.3511  -14.5596   20.6728 O   0  0  0  0  0  0
  -24.6724  -31.8204   23.1619 C   0  0  0  0  0  0
  -25.9379  -32.4527   23.8139 C   0  0  1  0  0  0
  -27.2067  -26.8691   20.1707 C   0  0  0  0  0  0
  -25.6024  -33.8348   24.2042 N   0  0  0  0  0  0
  -23.4862  -30.4300   21.5176 C   0  0  2  0  0  0
  -24.9287  -28.7866   20.1301 C   0  0  0  0  0  0
  -22.7691  -29.4483   22.4829 C   0  0  0  0  0  0
  -18.0349  -28.1345   22.8576 C   0  0  0  0  0  0
  -24.1505  -36.7156   23.2652 C   0  0  0  0  0  0
  -26.0590  -30.5948   21.4085 C   0  0  0  0  0  0
  -26.1197  -29.1767   20.7566 C   0  0  0  0  0  0
  -27.2580  -28.2411   20.7429 C   0  0  0  0  0  0
  -25.9810  -26.6335   19.5226 C   0  0  0  0  0  0
  -24.8808  -27.5314   19.5004 C   0  0  0  0  0  0
  -23.7290  -29.7324   20.1507 C   0  0  0  0  0  0
  -25.4129  -36.2943   24.0304 C   0  0  1  0  0  0
  -20.5981  -28.3793   23.1180 C   0  0  2  0  0  0
  -20.6822  -26.9490   22.5392 C   0  0  0  0  0  0
  -19.5810  -26.6586   21.5121 C   0  0  0  0  0  0
  -18.2051  -26.7897   22.1690 C   0  0  0  0  0  0
  -19.1601  -28.8923   23.2784 C   0  0  0  0  0  0
  -18.9491  -30.1605   23.8641 C   0  0  0  0  0  0
  -17.6473  -30.6706   24.0316 C   0  0  0  0  0  0
  -25.9089  -34.9325   23.5013 C   0  0  0  0  0  0
  -16.5373  -29.9092   23.6237 C   0  0  0  0  0  0
  -16.7324  -28.6448   23.0422 C   0  0  0  0  0  0
  -26.4599  -31.6515   25.0708 C   0  0  0  0  0  0
  -25.3665  -31.3793   26.1294 C   0  0  0  0  0  0
  -27.0525  -30.2895   24.6484 C   0  0  0  0  0  0
  -27.6075  -32.4339   25.7497 C   0  0  0  0  0  0
  -27.5590  -37.1698   24.8459 C   0  0  0  0  0  0
  -21.4386  -29.3005   22.3478 N   0  0  0  0  0  0
  -26.4258  -37.3712   23.9461 N   0  0  0  0  0  0
  -24.7607  -30.9801   22.0788 N   0  0  0  0  0  0
  -23.4223  -28.8063   23.3119 O   0  0  0  0  0  0
  -28.2448  -25.7950   20.0296 O   0  0  0  0  0  0
  -26.5714  -34.8889   22.4649 O   0  0  0  0  0  0
  -23.5775  -32.1222   23.6663 O   0  0  0  0  0  0
  -26.6702  -20.8519   19.0809 C   0  0  0  0  0  0
  -26.9831  -22.1841   19.4943 C   0  0  0  0  0  0
  -29.1099  -21.2765   20.2098 C   0  0  0  0  0  0
  -27.5555  -19.7421   19.2206 C   0  0  0  0  0  0
  -28.7846  -19.7894   19.8870 C   0  0  0  0  0  0
  -28.2375  -22.5543   20.0372 C   0  0  0  0  0  0
  -27.4430  -18.4602   18.4369 C   0  0  0  0  0  0
  -28.9198  -18.0291   18.2631 C   0  0  0  0  0  0
  -29.6077  -18.2373   19.6391 C   0  0  2  0  0  0
  -28.4514  -24.2268   20.5731 C   0  0  0  0  0  0
  -29.5146  -16.6311   20.1870 N   0  0  0  0  0  0
  -31.4428  -13.0679   19.1868 H   0  0  0  0  0  0
  -30.5100  -11.9660   20.1423 H   0  0  0  0  0  0
  -29.9189  -11.7173   17.7230 H   0  0  0  0  0  0
  -29.5700  -13.4200   17.6013 H   0  0  0  0  0  0
  -28.0195  -11.2754   19.0697 H   0  0  0  0  0  0
  -27.4167  -12.3576   17.8411 H   0  0  0  0  0  0
  -27.4970  -14.2403   19.3110 H   0  0  0  0  0  0
  -28.8327  -12.5196   21.4561 H   0  0  0  0  0  0
  -28.2671  -14.1557   21.6973 H   0  0  0  0  0  0
  -25.2726   -9.5739   22.4794 H   0  0  0  0  0  0
  -24.0004   -7.4652   22.7540 H   0  0  0  0  0  0
  -21.0807   -8.8799   19.8962 H   0  0  0  0  0  0
  -22.3681  -10.9693   19.6209 H   0  0  0  0  0  0
  -21.1995   -7.6165   23.9736 H   0  0  0  0  0  0
  -21.1488   -6.0525   25.9075 H   0  0  0  0  0  0
  -22.0576   -2.7642   23.2852 H   0  0  0  0  0  0
  -22.3991  -11.9904   22.4843 H   0  0  0  0  0  0
  -21.1013  -13.1415   22.2603 H   0  0  0  0  0  0
  -24.6857  -15.8677   20.5903 H   0  0  0  0  0  0
  -26.2905  -15.6237   20.1705 H   0  0  0  0  0  0
  -26.7420  -32.5068   23.0824 H   0  0  0  0  0  0
  -25.0098  -33.9443   25.0109 H   0  0  0  0  0  0
  -22.8053  -31.2637   21.3343 H   0  0  0  0  0  0
  -23.3832  -35.9439   23.3201 H   0  0  0  0  0  0
  -24.3574  -36.8917   22.2102 H   0  0  0  0  0  0
  -23.7154  -37.6244   23.6773 H   0  0  0  0  0  0
  -26.2567  -31.3258   20.6271 H   0  0  0  0  0  0
  -26.9137  -30.6488   22.0693 H   0  0  0  0  0  0
  -28.1721  -28.5440   21.2327 H   0  0  0  0  0  0
  -25.8583  -25.6875   19.0158 H   0  0  0  0  0  0
  -23.9794  -27.2231   18.9895 H   0  0  0  0  0  0
  -23.9018  -30.4962   19.3919 H   0  0  0  0  0  0
  -22.8366  -29.1981   19.8252 H   0  0  0  0  0  0
  -25.1333  -36.1708   25.0778 H   0  0  0  0  0  0
  -21.0083  -28.3439   24.1308 H   0  0  0  0  0  0
  -20.5609  -26.2395   23.3583 H   0  0  0  0  0  0
  -21.6706  -26.7460   22.1245 H   0  0  0  0  0  0
  -19.7079  -25.6639   21.0850 H   0  0  0  0  0  0
  -19.6633  -27.3672   20.6884 H   0  0  0  0  0  0
  -17.4206  -26.6474   21.4244 H   0  0  0  0  0  0
  -18.0737  -26.0028   22.9105 H   0  0  0  0  0  0
  -19.7972  -30.7588   24.1716 H   0  0  0  0  0  0
  -17.5017  -31.6533   24.4595 H   0  0  0  0  0  0
  -15.5355  -30.2999   23.7385 H   0  0  0  0  0  0
  -15.8785  -28.0651   22.7180 H   0  0  0  0  0  0
  -24.5852  -30.7157   25.7551 H   0  0  0  0  0  0
  -24.8839  -32.3016   26.4571 H   0  0  0  0  0  0
  -25.7835  -30.9002   27.0160 H   0  0  0  0  0  0
  -26.3240  -29.6476   24.1502 H   0  0  0  0  0  0
  -27.4074  -29.7342   25.5172 H   0  0  0  0  0  0
  -27.9176  -30.4085   23.9947 H   0  0  0  0  0  0
  -27.2653  -33.3708   26.1920 H   0  0  0  0  0  0
  -28.3965  -32.6773   25.0361 H   0  0  0  0  0  0
  -28.0651  -31.8523   26.5511 H   0  0  0  0  0  0
  -28.2498  -38.0098   24.7665 H   0  0  0  0  0  0
  -28.1193  -36.2635   24.6099 H   0  0  0  0  0  0
  -27.2334  -37.1111   25.8857 H   0  0  0  0  0  0
  -20.9586  -29.8655   21.6611 H   0  0  0  0  0  0
  -26.0090  -38.2754   24.1537 H   0  0  0  0  0  0
  -25.7300  -20.7065   18.5722 H   0  0  0  0  0  0
  -26.2367  -22.9591   19.3732 H   0  0  0  0  0  0
  -30.1196  -21.4495   20.5586 H   0  0  0  0  0  0
  -26.9625  -18.6252   17.4773 H   0  0  0  0  0  0
  -26.8927  -17.7085   18.9853 H   0  0  0  0  0  0
  -29.0497  -17.0434   17.8138 H   0  0  0  0  0  0
  -29.3645  -18.7396   17.5638 H   0  0  0  0  0  0
  -30.6573  -18.4578   19.4781 H   0  0  0  0  0  0
  -29.5443  -24.2242   20.6518 H   0  0  0  0  0  0
  -28.1180  -24.2388   21.6115 H   0  0  0  0  0  0
  -28.5461  -16.4013   20.3941 H   0  0  0  0  0  0
  1 25  1  0  0  0
  1 30  2  0  0  0
  1 81  1  0  0  0
  2  3  1  0  0  0
  2 25  1  0  0  0
  2 82  1  0  0  0
  2 83  1  0  0  0
  3  4  1  0  0  0
  3 84  1  0  0  0
  3 85  1  0  0  0
  4  5  1  0  0  0
  4 86  1  0  0  0
  4 87  1  0  0  0
  5  6  1  0  0  0
  5 26  1  0  0  0
  5 88  1  0  0  0
  6 25  1  0  0  0
  6 89  1  0  0  0
  6 90  1  0  0  0
  7  8  2  0  0  0
  7 26  1  0  0  0
  7 29  1  0  0  0
  8  9  1  0  0  0
  8 22  1  0  0  0
  9 10  1  0  0  0
  9 27  2  0  0  0
 10 11  2  0  0  0
 10 15  1  0  0  0
 11 12  1  0  0  0
 11 91  1  0  0  0
 12 13  2  0  0  0
 12 92  1  0  0  0
 13 14  1  0  0  0
 13 31  1  0  0  0
 14 15  2  0  0  0
 14 93  1  0  0  0
 15 94  1  0  0  0
 16 17  2  0  0  0
 16 21  1  0  0  0
 16 31  1  0  0  0
 17 18  1  0  0  0
 17 95  1  0  0  0
 18 19  2  0  0  0
 18 96  1  0  0  0
 19 20  1  0  0  0
 19 24  1  0  0  0
 20 21  2  0  0  0
 20 97  1  0  0  0
 21 23  1  0  0  0
 22 28  1  0  0  0
 22 32  2  0  0  0
 26 27  1  0  0  0
 28 98  1  0  0  0
 28 99  1  0  0  0
 29100  1  0  0  0
 29101  1  0  0  0
 33 34  1  0  0  0
 33 66  1  0  0  0
 33 70  2  0  0  0
 34 36  1  0  0  0
 34 59  1  0  0  0
 34102  1  0  0  0
 35 44  2  0  0  0
 35 45  1  0  0  0
 35 68  1  0  0  0
 36 56  1  0  0  0
 36103  1  0  0  0
 37 39  1  0  0  0
 37 47  1  0  0  0
 37 66  1  0  0  0
 37104  1  0  0  0
 38 43  2  0  0  0
 38 46  1  0  0  0
 38 47  1  0  0  0
 39 64  1  0  0  0
 39 67  2  0  0  0
 40 52  1  0  0  0
 40 53  2  0  0  0
 40 58  1  0  0  0
 41105  1  0  0  0
 41106  1  0  0  0
 41107  1  0  0  0
 41 48  1  0  0  0
 42 43  1  0  0  0
 42 66  1  0  0  0
 42108  1  0  0  0
 42109  1  0  0  0
 43 44  1  0  0  0
 44110  1  0  0  0
 45 46  2  0  0  0
 45111  1  0  0  0
 46112  1  0  0  0
 47113  1  0  0  0
 47114  1  0  0  0
 48 56  1  0  0  0
 48 65  1  0  0  0
 48115  1  0  0  0
 49 50  1  0  0  0
 49 53  1  0  0  0
 49 64  1  0  0  0
 49116  1  0  0  0
 50 51  1  0  0  0
 50117  1  0  0  0
 50118  1  0  0  0
 51 52  1  0  0  0
 51119  1  0  0  0
 51120  1  0  0  0
 52121  1  0  0  0
 52122  1  0  0  0
 53 54  1  0  0  0
 54 55  2  0  0  0
 54123  1  0  0  0
 55 57  1  0  0  0
 55124  1  0  0  0
 56 69  2  0  0  0
 57 58  2  0  0  0
 57125  1  0  0  0
 58126  1  0  0  0
 59 60  1  0  0  0
 59 61  1  0  0  0
 59 62  1  0  0  0
 60127  1  0  0  0
 60128  1  0  0  0
 60129  1  0  0  0
 61130  1  0  0  0
 61131  1  0  0  0
 61132  1  0  0  0
 62133  1  0  0  0
 62134  1  0  0  0
 62135  1  0  0  0
 63 65  1  0  0  0
 63136  1  0  0  0
 63137  1  0  0  0
 63138  1  0  0  0
 64139  1  0  0  0
 65140  1  0  0  0
 68 80  1  0  0  0
 71 72  2  0  0  0
 71 74  1  0  0  0
 71141  1  0  0  0
 72 76  1  0  0  0
 72142  1  0  0  0
 73 75  1  0  0  0
 73 76  2  0  0  0
 73143  1  0  0  0
 74 75  2  0  0  0
 74 77  1  0  0  0
 75 79  1  0  0  0
 76 80  1  0  0  0
 77 78  1  0  0  0
 77144  1  0  0  0
 77145  1  0  0  0
 78 79  1  0  0  0
 78146  1  0  0  0
 78147  1  0  0  0
 79 81  1  0  0  0
 79148  1  0  0  0
 80149  1  0  0  0
 80150  1  0  0  0
 81151  1  0  0  0
M  ISO  4   1 100  68 101  80 101  81 100
M  END
> <chiral flag>
0

> <version>
0

> <s_m_source_file>
/data/baiqing/PycharmProjects/Reinvent-master-3.2/result/LINK_invent/BTK/process_docking_weight1_custom_sum_contain_oxygen_bond_distance_aromatic_linkinvent_7_9_3/rearranged_h_0135.sdf

> <i_m_source_file_index>
46

> <r_mmod_Potential_Energy-OPLS-2005>
1614.30688476562

> <r_mmod_Stretch_Energy-OPLS-2005>
651.263977050781

> <r_mmod_Bend_Energy-OPLS-2005>
607.477966308594

> <r_mmod_Torsional_Energy-OPLS-2005>
262.489196777344

> <r_mmod_Improper_Torsional_Energy-OPLS-2005>
12.9634237289429

> <r_mmod_Van_der_Waal_Energy-OPLS-2005>
121.515632629395

> <r_mmod_Electrostatic_Energy-OPLS-2005>
-384.214691162109

> <r_mmod_Solvation_Energy-OPLS-2005>
-213.870895385742

> <b_mmod_Minimization_Converged-OPLS-2005>
0

> <r_mmod_RMS_Derivative-OPLS-2005>
17.60569190979

$$$$
46
                    3D
 Structure written by MMmdl.
165173  0  0  1  0            999 V2000
  -30.6629  -14.4250   20.6522 C   0  0  0  0  0  0
  -30.4457  -12.3197   19.3695 C   0  0  0  0  0  0
  -29.4887  -12.5384   18.1771 C   0  0  0  0  0  0
  -28.0065  -12.4003   18.5932 C   0  0  0  0  0  0
  -27.6691  -13.1888   19.8854 C   0  0  2  0  0  0
  -28.7134  -12.8701   20.9756 C   0  0  0  0  0  0
  -25.2629  -13.8089   20.5666 C   0  0  0  0  0  0
  -24.1857  -13.0417   20.9185 C   0  0  0  0  0  0
  -24.6375  -11.6876   20.8731 C   0  0  0  0  0  0
  -23.9026  -10.4289   21.0399 C   0  0  0  0  0  0
  -24.3585   -9.4212   21.9182 C   0  0  0  0  0  0
  -23.6272   -8.2242   22.0746 C   0  0  0  0  0  0
  -22.4253   -8.0276   21.3535 C   0  0  0  0  0  0
  -21.9890   -9.0243   20.4637 C   0  0  0  0  0  0
  -22.7200  -10.2135   20.3047 C   0  0  0  0  0  0
  -21.6859   -6.0732   22.5270 C   0  0  0  0  0  0
  -21.4008   -6.5628   23.8200 C   0  0  0  0  0  0
  -21.3659   -5.6783   24.9164 C   0  0  0  0  0  0
  -21.6044   -4.3044   24.7212 C   0  0  0  0  0  0
  -21.8827   -3.8140   23.4329 C   0  0  0  0  0  0
  -21.9188   -4.6964   22.3392 C   0  0  0  0  0  0
  -22.7874  -13.5243   21.1832 C   0  0  0  0  0  0
  -22.1661   -4.2149   21.0974 F   0  0  0  0  0  0
  -21.5633   -3.4531   25.7726 F   0  0  0  0  0  0
  -30.0415  -13.2371   20.4410 N   0  0  0  0  0  0
  -26.3053  -12.9235   20.3395 N   0  0  0  0  0  0
  -25.9298  -11.6410   20.5757 N   0  0  0  0  0  0
  -22.0506  -12.8268   22.0375 N   0  0  0  0  0  0
  -25.4361  -15.1815   20.4013 N   0  0  0  0  0  0
  -31.7539  -14.7353   20.1612 O   0  0  0  0  0  0
  -21.6624   -6.8868   21.4224 O   0  0  0  0  0  0
  -22.3610  -14.5574   20.6686 O   0  0  0  0  0  0
  -24.6172  -31.8662   23.2112 C   0  0  0  0  0  0
  -25.9059  -32.4807   23.8423 C   0  0  1  0  0  0
  -27.2278  -27.4177   20.0992 C   0  0  0  0  0  0
  -25.5930  -33.8603   24.2357 N   0  0  0  0  0  0
  -23.4073  -30.4913   21.5508 C   0  0  2  0  0  0
  -24.8518  -28.9515   20.1182 C   0  0  0  0  0  0
  -22.7444  -29.4631   22.4976 C   0  0  0  0  0  0
  -18.0262  -28.1364   22.8490 C   0  0  0  0  0  0
  -24.1462  -36.7275   23.2655 C   0  0  0  0  0  0
  -25.9401  -30.8274   21.3657 C   0  0  0  0  0  0
  -26.0152  -29.4597   20.7118 C   0  0  0  0  0  0
  -27.2100  -28.6994   20.6974 C   0  0  0  0  0  0
  -26.0517  -26.9254   19.4977 C   0  0  0  0  0  0
  -24.8657  -27.6856   19.5098 C   0  0  0  0  0  0
  -23.6177  -29.8277   20.1645 C   0  0  0  0  0  0
  -25.4089  -36.3096   24.0357 C   0  0  1  0  0  0
  -20.5876  -28.3646   23.1299 C   0  0  2  0  0  0
  -20.6752  -26.9375   22.5415 C   0  0  0  0  0  0
  -19.5717  -26.6381   21.5217 C   0  0  0  0  0  0
  -18.1888  -26.7915   22.1626 C   0  0  0  0  0  0
  -19.1526  -28.8816   23.2887 C   0  0  0  0  0  0
  -18.9469  -30.1430   23.8882 C   0  0  0  0  0  0
  -17.6467  -30.6576   24.0543 C   0  0  0  0  0  0
  -25.9037  -34.9463   23.5152 C   0  0  0  0  0  0
  -16.5354  -29.9064   23.6346 C   0  0  0  0  0  0
  -16.7260  -28.6481   23.0358 C   0  0  0  0  0  0
  -26.4487  -31.6576   25.0741 C   0  0  0  0  0  0
  -25.3759  -31.3603   26.1492 C   0  0  0  0  0  0
  -27.0356  -30.3037   24.6099 C   0  0  0  0  0  0
  -27.6100  -32.4284   25.7487 C   0  0  0  0  0  0
  -27.5564  -37.1786   24.8496 C   0  0  0  0  0  0
  -21.4165  -29.3001   22.3711 N   0  0  0  0  0  0
  -26.4279  -37.3790   23.9441 N   0  0  0  0  0  0
  -24.6729  -31.0774   22.1002 N   0  0  0  0  0  0
  -23.4210  -28.8156   23.3004 O   0  0  0  0  0  0
  -28.3838  -26.6713   20.0678 O   0  0  0  0  0  0
  -26.5587  -34.8936   22.4706 O   0  0  0  0  0  0
  -23.5368  -32.1431   23.7502 O   0  0  0  0  0  0
  -28.7515  -20.4247   20.1241 C   0  0  0  0  0  0
  -29.1171  -21.2897   22.4781 C   0  0  0  0  0  0
  -29.1387  -21.8331   19.5962 C   0  0  0  0  0  0
  -28.3521  -22.4926   21.8631 C   0  0  0  0  0  0
  -29.3649  -20.0983   21.5078 C   0  0  1  0  0  0
  -30.1144  -16.4820   23.4401 C   0  0  0  0  0  0
  -28.2232  -24.1444   19.9758 C   0  0  0  0  0  0
  -28.9942  -17.5402   21.3722 C   0  0  0  0  0  0
  -28.3690  -25.4435   20.8217 C   0  0  0  0  0  0
  -30.1217  -16.6058   21.9033 C   0  0  2  0  0  0
  -29.9092  -15.2587   21.3854 N   0  0  0  0  0  0
  -28.9243  -22.9543   20.5679 N   0  3  2  0  0  0
  -28.8653  -18.8240   22.1112 N   0  3  0  0  0  0
  -31.4783  -12.4859   19.0583 H   0  0  0  0  0  0
  -30.4002  -11.2875   19.7216 H   0  0  0  0  0  0
  -29.7209  -11.8398   17.3730 H   0  0  0  0  0  0
  -29.6501  -13.5360   17.7636 H   0  0  0  0  0  0
  -27.7926  -11.3407   18.7340 H   0  0  0  0  0  0
  -27.3612  -12.7334   17.7784 H   0  0  0  0  0  0
  -27.7370  -14.2503   19.6463 H   0  0  0  0  0  0
  -28.7030  -11.8023   21.2005 H   0  0  0  0  0  0
  -28.4658  -13.3490   21.9233 H   0  0  0  0  0  0
  -25.2726   -9.5704   22.4760 H   0  0  0  0  0  0
  -23.9992   -7.4631   22.7468 H   0  0  0  0  0  0
  -21.0821   -8.8744   19.8935 H   0  0  0  0  0  0
  -22.3640  -10.9670   19.6164 H   0  0  0  0  0  0
  -21.1999   -7.6139   23.9707 H   0  0  0  0  0  0
  -21.1477   -6.0510   25.9071 H   0  0  0  0  0  0
  -22.0607   -2.7602   23.2824 H   0  0  0  0  0  0
  -22.4094  -11.9908   22.4760 H   0  0  0  0  0  0
  -21.1131  -13.1314   22.2560 H   0  0  0  0  0  0
  -24.6487  -15.8177   20.4492 H   0  0  0  0  0  0
  -26.2527  -15.5937   19.9670 H   0  0  0  0  0  0
  -26.7118  -32.5516   23.1196 H   0  0  0  0  0  0
  -25.0124  -33.9754   25.0531 H   0  0  0  0  0  0
  -22.6966  -31.3078   21.4088 H   0  0  0  0  0  0
  -23.3731  -35.9596   23.3333 H   0  0  0  0  0  0
  -24.3564  -36.8877   22.2069 H   0  0  0  0  0  0
  -23.7205  -37.6488   23.6642 H   0  0  0  0  0  0
  -26.0647  -31.5928   20.5981 H   0  0  0  0  0  0
  -26.8233  -30.8737   21.9904 H   0  0  0  0  0  0
  -28.1100  -29.0852   21.1570 H   0  0  0  0  0  0
  -26.0528  -25.9605   19.0115 H   0  0  0  0  0  0
  -23.9709  -27.2926   19.0479 H   0  0  0  0  0  0
  -23.7393  -30.6066   19.4101 H   0  0  0  0  0  0
  -22.7371  -29.2604   19.8609 H   0  0  0  0  0  0
  -25.1234  -36.1975   25.0843 H   0  0  0  0  0  0
  -20.9964  -28.3194   24.1422 H   0  0  0  0  0  0
  -20.5682  -26.2219   23.3581 H   0  0  0  0  0  0
  -21.6605  -26.7406   22.1182 H   0  0  0  0  0  0
  -19.6893  -25.6308   21.1196 H   0  0  0  0  0  0
  -19.6684  -27.3209   20.6767 H   0  0  0  0  0  0
  -17.4179  -26.6683   21.3999 H   0  0  0  0  0  0
  -18.0263  -26.0046   22.9018 H   0  0  0  0  0  0
  -19.7954  -30.7239   24.2256 H   0  0  0  0  0  0
  -17.5030  -31.6270   24.5128 H   0  0  0  0  0  0
  -15.5345  -30.2939   23.7732 H   0  0  0  0  0  0
  -15.8656  -28.0806   22.7093 H   0  0  0  0  0  0
  -24.5988  -30.6882   25.7826 H   0  0  0  0  0  0
  -24.8840  -32.2671   26.5006 H   0  0  0  0  0  0
  -25.8144  -30.8767   27.0235 H   0  0  0  0  0  0
  -26.2871  -29.6698   24.1318 H   0  0  0  0  0  0
  -27.4343  -29.7383   25.4543 H   0  0  0  0  0  0
  -27.8604  -30.4387   23.9091 H   0  0  0  0  0  0
  -27.2794  -33.3625   26.2054 H   0  0  0  0  0  0
  -28.3904  -32.6792   25.0273 H   0  0  0  0  0  0
  -28.0747  -31.8385   26.5400 H   0  0  0  0  0  0
  -28.2611  -38.0061   24.7551 H   0  0  0  0  0  0
  -28.1037  -36.2609   24.6293 H   0  0  0  0  0  0
  -27.2295  -37.1415   25.8908 H   0  0  0  0  0  0
  -20.9357  -29.8748   21.6947 H   0  0  0  0  0  0
  -26.0159  -38.2872   24.1454 H   0  0  0  0  0  0
  -29.0822  -19.6931   19.3880 H   0  0  0  0  0  0
  -27.6656  -20.3413   20.1684 H   0  0  0  0  0  0
  -28.5499  -20.9667   23.3545 H   0  0  0  0  0  0
  -30.0725  -21.6285   22.8825 H   0  0  0  0  0  0
  -28.5848  -22.0083   18.6735 H   0  0  0  0  0  0
  -30.1907  -21.8431   19.3099 H   0  0  0  0  0  0
  -28.3434  -23.3092   22.5847 H   0  0  0  0  0  0
  -27.3063  -22.2230   21.7101 H   0  0  0  0  0  0
  -30.4437  -19.9819   21.3821 H   0  0  0  0  0  0
  -30.2912  -17.4342   23.9390 H   0  0  0  0  0  0
  -30.8950  -15.7955   23.7721 H   0  0  0  0  0  0
  -29.1637  -16.0878   23.8050 H   0  0  0  0  0  0
  -28.6537  -24.3358   18.9913 H   0  0  0  0  0  0
  -27.1674  -23.9156   19.8130 H   0  0  0  0  0  0
  -28.0354  -17.0325   21.4980 H   0  0  0  0  0  0
  -29.0957  -17.6935   20.2994 H   0  0  0  0  0  0
  -29.3282  -25.4203   21.3386 H   0  0  0  0  0  0
  -27.6140  -25.4720   21.6123 H   0  0  0  0  0  0
  -31.0925  -16.9832   21.5752 H   0  0  0  0  0  0
  -29.0387  -14.8275   21.6619 H   0  0  0  0  0  0
  -29.8583  -23.2831   20.7780 H   0  0  0  0  0  0
  -27.8827  -18.9361   22.3066 H   0  0  0  0  0  0
  -29.3172  -18.6791   23.0015 H   0  0  0  0  0  0
  1 25  1  0  0  0
  1 30  2  0  0  0
  1 81  1  0  0  0
  2  3  1  0  0  0
  2 25  1  0  0  0
  2 84  1  0  0  0
  2 85  1  0  0  0
  3  4  1  0  0  0
  3 86  1  0  0  0
  3 87  1  0  0  0
  4  5  1  0  0  0
  4 88  1  0  0  0
  4 89  1  0  0  0
  5  6  1  0  0  0
  5 26  1  0  0  0
  5 90  1  0  0  0
  6 25  1  0  0  0
  6 91  1  0  0  0
  6 92  1  0  0  0
  7  8  2  0  0  0
  7 26  1  0  0  0
  7 29  1  0  0  0
  8  9  1  0  0  0
  8 22  1  0  0  0
  9 10  1  0  0  0
  9 27  2  0  0  0
 10 11  2  0  0  0
 10 15  1  0  0  0
 11 12  1  0  0  0
 11 93  1  0  0  0
 12 13  2  0  0  0
 12 94  1  0  0  0
 13 14  1  0  0  0
 13 31  1  0  0  0
 14 15  2  0  0  0
 14 95  1  0  0  0
 15 96  1  0  0  0
 16 17  2  0  0  0
 16 21  1  0  0  0
 16 31  1  0  0  0
 17 18  1  0  0  0
 17 97  1  0  0  0
 18 19  2  0  0  0
 18 98  1  0  0  0
 19 20  1  0  0  0
 19 24  1  0  0  0
 20 21  2  0  0  0
 20 99  1  0  0  0
 21 23  1  0  0  0
 22 28  1  0  0  0
 22 32  2  0  0  0
 26 27  1  0  0  0
 28100  1  0  0  0
 28101  1  0  0  0
 29102  1  0  0  0
 29103  1  0  0  0
 33 34  1  0  0  0
 33 66  1  0  0  0
 33 70  2  0  0  0
 34 36  1  0  0  0
 34 59  1  0  0  0
 34104  1  0  0  0
 35 44  2  0  0  0
 35 45  1  0  0  0
 35 68  1  0  0  0
 36 56  1  0  0  0
 36105  1  0  0  0
 37 39  1  0  0  0
 37 47  1  0  0  0
 37 66  1  0  0  0
 37106  1  0  0  0
 38 43  2  0  0  0
 38 46  1  0  0  0
 38 47  1  0  0  0
 39 64  1  0  0  0
 39 67  2  0  0  0
 40 52  1  0  0  0
 40 53  2  0  0  0
 40 58  1  0  0  0
 41107  1  0  0  0
 41108  1  0  0  0
 41109  1  0  0  0
 41 48  1  0  0  0
 42 43  1  0  0  0
 42 66  1  0  0  0
 42110  1  0  0  0
 42111  1  0  0  0
 43 44  1  0  0  0
 44112  1  0  0  0
 45 46  2  0  0  0
 45113  1  0  0  0
 46114  1  0  0  0
 47115  1  0  0  0
 47116  1  0  0  0
 48 56  1  0  0  0
 48 65  1  0  0  0
 48117  1  0  0  0
 49 50  1  0  0  0
 49 53  1  0  0  0
 49 64  1  0  0  0
 49118  1  0  0  0
 50 51  1  0  0  0
 50119  1  0  0  0
 50120  1  0  0  0
 51 52  1  0  0  0
 51121  1  0  0  0
 51122  1  0  0  0
 52123  1  0  0  0
 52124  1  0  0  0
 53 54  1  0  0  0
 54 55  2  0  0  0
 54125  1  0  0  0
 55 57  1  0  0  0
 55126  1  0  0  0
 56 69  2  0  0  0
 57 58  2  0  0  0
 57127  1  0  0  0
 58128  1  0  0  0
 59 60  1  0  0  0
 59 61  1  0  0  0
 59 62  1  0  0  0
 60129  1  0  0  0
 60130  1  0  0  0
 60131  1  0  0  0
 61132  1  0  0  0
 61133  1  0  0  0
 61134  1  0  0  0
 62135  1  0  0  0
 62136  1  0  0  0
 62137  1  0  0  0
 63 65  1  0  0  0
 63138  1  0  0  0
 63139  1  0  0  0
 63140  1  0  0  0
 64141  1  0  0  0
 65142  1  0  0  0
 68 79  1  0  0  0
 71 73  1  0  0  0
 71 75  1  0  0  0
 71143  1  0  0  0
 71144  1  0  0  0
 72 74  1  0  0  0
 72 75  1  0  0  0
 72145  1  0  0  0
 72146  1  0  0  0
 73 82  1  0  0  0
 73147  1  0  0  0
 73148  1  0  0  0
 74 82  1  0  0  0
 74149  1  0  0  0
 74150  1  0  0  0
 75 83  1  0  0  0
 75151  1  0  0  0
 76152  1  0  0  0
 76153  1  0  0  0
 76154  1  0  0  0
 76 80  1  0  0  0
 77 79  1  0  0  0
 77155  1  0  0  0
 77156  1  0  0  0
 77 82  1  0  0  0
 78 80  1  0  0  0
 78 83  1  0  0  0
 78157  1  0  0  0
 78158  1  0  0  0
 79159  1  0  0  0
 79160  1  0  0  0
 80 81  1  0  0  0
 80161  1  0  0  0
 81162  1  0  0  0
 82163  1  0  0  0
 83164  1  0  0  0
 83165  1  0  0  0
M  CHG  2  82   1  83   1
M  ISO  4   1 100  68 101  79 101  81 100
M  END
> <chiral flag>
0

> <version>
0

> <s_m_source_file>
/data/baiqing/PycharmProjects/Reinvent-master-3.2/result/LINK_invent/BTK/process_docking_weight1_custom_sum_contain_oxygen_bond_distance_aromatic_linkinvent_7_9_3/rearranged_h_0135.sdf

> <i_m_source_file_index>
47

> <r_mmod_Potential_Energy-OPLS-2005>
-268.386047363281

> <r_mmod_Stretch_Energy-OPLS-2005>
40.890739440918

> <r_mmod_Bend_Energy-OPLS-2005>
116.958602905273

> <r_mmod_Torsional_Energy-OPLS-2005>
301.465667724609

> <r_mmod_Improper_Torsional_Energy-OPLS-2005>
3.2698802947998

> <r_mmod_Van_der_Waal_Energy-OPLS-2005>
139.108337402344

> <r_mmod_Electrostatic_Energy-OPLS-2005>
94.683723449707

> <r_mmod_Solvation_Energy-OPLS-2005>
-978.07080078125

> <b_mmod_Minimization_Converged-OPLS-2005>
0

> <r_mmod_RMS_Derivative-OPLS-2005>
4.15666198730469

$$$$
47
                    3D
 Structure written by MMmdl.
160168  0  0  1  0            999 V2000
  -30.7259  -14.4574   20.5846 C   0  0  0  0  0  0
  -30.4168  -12.3024   19.4245 C   0  0  0  0  0  0
  -29.4941  -12.5010   18.2054 C   0  0  0  0  0  0
  -28.0152  -12.3656   18.6187 C   0  0  0  0  0  0
  -27.6608  -13.2096   19.8728 C   0  0  2  0  0  0
  -28.7014  -13.0020   20.9967 C   0  0  0  0  0  0
  -25.2580  -13.8165   20.5672 C   0  0  0  0  0  0
  -24.1835  -13.0439   20.9173 C   0  0  0  0  0  0
  -24.6392  -11.6907   20.8730 C   0  0  0  0  0  0
  -23.9066  -10.4291   21.0401 C   0  0  0  0  0  0
  -24.3614   -9.4207   21.9179 C   0  0  0  0  0  0
  -23.6283   -8.2248   22.0757 C   0  0  0  0  0  0
  -22.4267   -8.0285   21.3548 C   0  0  0  0  0  0
  -21.9903   -9.0263   20.4652 C   0  0  0  0  0  0
  -22.7239  -10.2135   20.3055 C   0  0  0  0  0  0
  -21.6851   -6.0731   22.5278 C   0  0  0  0  0  0
  -21.4017   -6.5636   23.8213 C   0  0  0  0  0  0
  -21.3661   -5.6792   24.9177 C   0  0  0  0  0  0
  -21.6044   -4.3052   24.7227 C   0  0  0  0  0  0
  -21.8819   -3.8142   23.4349 C   0  0  0  0  0  0
  -21.9191   -4.6959   22.3403 C   0  0  0  0  0  0
  -22.7858  -13.5241   21.1833 C   0  0  0  0  0  0
  -22.1658   -4.2143   21.0980 F   0  0  0  0  0  0
  -21.5627   -3.4537   25.7740 F   0  0  0  0  0  0
  -30.0335  -13.2950   20.4422 N   0  0  0  0  0  0
  -26.3018  -12.9342   20.3350 N   0  0  0  0  0  0
  -25.9315  -11.6500   20.5752 N   0  0  0  0  0  0
  -22.0489  -12.8247   22.0391 N   0  0  0  0  0  0
  -25.4306  -15.1883   20.4096 N   0  0  0  0  0  0
  -31.8457  -14.6287   20.0956 O   0  0  0  0  0  0
  -21.6637   -6.8876   21.4240 O   0  0  0  0  0  0
  -22.3551  -14.5555   20.6690 O   0  0  0  0  0  0
  -24.6161  -31.8683   23.2121 C   0  0  0  0  0  0
  -25.9058  -32.4820   23.8405 C   0  0  1  0  0  0
  -27.2250  -27.4194   20.0913 C   0  0  0  0  0  0
  -25.5914  -33.8620   24.2331 N   0  0  0  0  0  0
  -23.4038  -30.4963   21.5526 C   0  0  2  0  0  0
  -24.8480  -28.9683   20.1118 C   0  0  0  0  0  0
  -22.7415  -29.4672   22.4972 C   0  0  0  0  0  0
  -18.0277  -28.1380   22.8496 C   0  0  0  0  0  0
  -24.1486  -36.7315   23.2636 C   0  0  0  0  0  0
  -25.9366  -30.8286   21.3700 C   0  0  0  0  0  0
  -26.0114  -29.4647   20.7120 C   0  0  0  0  0  0
  -27.2029  -28.6984   20.6996 C   0  0  0  0  0  0
  -26.0411  -26.9589   19.4623 C   0  0  0  0  0  0
  -24.8588  -27.7153   19.4831 C   0  0  0  0  0  0
  -23.6124  -29.8362   20.1652 C   0  0  0  0  0  0
  -25.4108  -36.3108   24.0333 C   0  0  1  0  0  0
  -20.5868  -28.3676   23.1303 C   0  0  2  0  0  0
  -20.6763  -26.9409   22.5410 C   0  0  0  0  0  0
  -19.5742  -26.6390   21.5205 C   0  0  0  0  0  0
  -18.1923  -26.7928   22.1623 C   0  0  0  0  0  0
  -19.1523  -28.8841   23.2902 C   0  0  0  0  0  0
  -18.9452  -30.1447   23.8914 C   0  0  0  0  0  0
  -17.6455  -30.6587   24.0568 C   0  0  0  0  0  0
  -25.9038  -34.9475   23.5127 C   0  0  0  0  0  0
  -16.5347  -29.9089   23.6326 C   0  0  0  0  0  0
  -16.7262  -28.6506   23.0353 C   0  0  0  0  0  0
  -26.4485  -31.6599   25.0734 C   0  0  0  0  0  0
  -25.3749  -31.3718   26.1482 C   0  0  0  0  0  0
  -27.0313  -30.3030   24.6132 C   0  0  0  0  0  0
  -27.6054  -32.4326   25.7499 C   0  0  0  0  0  0
  -27.5578  -37.1814   24.8467 C   0  0  0  0  0  0
  -21.4139  -29.3047   22.3705 N   0  0  0  0  0  0
  -26.4294  -37.3789   23.9406 N   0  0  0  0  0  0
  -24.6704  -31.0780   22.1030 N   0  0  0  0  0  0
  -23.4184  -28.8198   23.3001 O   0  0  0  0  0  0
  -28.3743  -26.6447   20.1362 O   0  0  0  0  0  0
  -26.5591  -34.8924   22.4684 O   0  0  0  0  0  0
  -23.5352  -32.1444   23.7507 O   0  0  0  0  0  0
  -29.2092  -24.3409   20.6556 C   0  0  0  0  0  0
  -30.1494  -22.1633   22.8931 C   0  0  0  0  0  0
  -29.0402  -23.0670   23.4550 C   0  0  0  0  0  0
  -28.6788  -22.9517   21.1610 C   0  0  1  0  0  0
  -29.7752  -21.8884   21.4230 C   0  0  2  0  0  0
  -28.1789  -25.2267   19.9289 C   0  0  0  0  0  0
  -29.5801  -17.9741   21.2164 C   0  0  0  0  0  0
  -30.6265  -16.8362   21.3585 C   0  0  0  0  0  0
  -30.2140  -19.3912   21.3389 C   0  0  0  0  0  0
  -27.9775  -23.0287   22.4543 N   0  0  0  0  0  0
  -30.0794  -15.4750   21.1882 N   0  0  0  0  0  0
  -29.2317  -20.5086   21.2402 N   0  3  0  0  0  0
  -30.3586  -24.7476   20.8509 O   0  0  0  0  0  0
  -31.4628  -12.3862   19.1249 H   0  0  0  0  0  0
  -30.3052  -11.2940   19.8263 H   0  0  0  0  0  0
  -29.7330  -11.7703   17.4311 H   0  0  0  0  0  0
  -29.6678  -13.4830   17.7629 H   0  0  0  0  0  0
  -27.8256  -11.3108   18.8207 H   0  0  0  0  0  0
  -27.3653  -12.6366   17.7856 H   0  0  0  0  0  0
  -27.7035  -14.2559   19.5708 H   0  0  0  0  0  0
  -28.6736  -11.9721   21.3553 H   0  0  0  0  0  0
  -28.4630  -13.6187   21.8643 H   0  0  0  0  0  0
  -25.2760   -9.5675   22.4753 H   0  0  0  0  0  0
  -23.9990   -7.4638   22.7476 H   0  0  0  0  0  0
  -21.0835   -8.8794   19.8954 H   0  0  0  0  0  0
  -22.3708  -10.9679   19.6164 H   0  0  0  0  0  0
  -21.2019   -7.6146   23.9713 H   0  0  0  0  0  0
  -21.1477   -6.0521   25.9079 H   0  0  0  0  0  0
  -22.0594   -2.7603   23.2852 H   0  0  0  0  0  0
  -22.4104  -11.9921   22.4806 H   0  0  0  0  0  0
  -21.1104  -13.1283   22.2571 H   0  0  0  0  0  0
  -24.6655  -15.8449   20.5200 H   0  0  0  0  0  0
  -26.2846  -15.6254   20.0864 H   0  0  0  0  0  0
  -26.7128  -32.5527   23.1165 H   0  0  0  0  0  0
  -25.0082  -33.9783   25.0489 H   0  0  0  0  0  0
  -22.6934  -31.3141   21.4162 H   0  0  0  0  0  0
  -23.3734  -35.9662   23.3319 H   0  0  0  0  0  0
  -24.3576  -36.8911   22.2046 H   0  0  0  0  0  0
  -23.7255  -37.6533   23.6639 H   0  0  0  0  0  0
  -26.0561  -31.5967   20.6041 H   0  0  0  0  0  0
  -26.8217  -30.8759   21.9926 H   0  0  0  0  0  0
  -28.0975  -29.0763   21.1751 H   0  0  0  0  0  0
  -25.9984  -26.0126   18.9442 H   0  0  0  0  0  0
  -23.9678  -27.3321   19.0043 H   0  0  0  0  0  0
  -23.7234  -30.6141   19.4089 H   0  0  0  0  0  0
  -22.7355  -29.2597   19.8654 H   0  0  0  0  0  0
  -25.1286  -36.1972   25.0824 H   0  0  0  0  0  0
  -20.9968  -28.3246   24.1420 H   0  0  0  0  0  0
  -20.5661  -26.2286   23.3602 H   0  0  0  0  0  0
  -21.6636  -26.7453   22.1201 H   0  0  0  0  0  0
  -19.6906  -25.6302   21.1231 H   0  0  0  0  0  0
  -19.6675  -27.3200   20.6734 H   0  0  0  0  0  0
  -17.4190  -26.6675   21.4031 H   0  0  0  0  0  0
  -18.0334  -26.0063   22.9012 H   0  0  0  0  0  0
  -19.7927  -30.7258   24.2291 H   0  0  0  0  0  0
  -17.5011  -31.6267   24.5167 H   0  0  0  0  0  0
  -15.5348  -30.3000   23.7638 H   0  0  0  0  0  0
  -15.8663  -28.0826   22.7066 H   0  0  0  0  0  0
  -24.5913  -30.7076   25.7824 H   0  0  0  0  0  0
  -24.8955  -32.2881   26.4937 H   0  0  0  0  0  0
  -25.8100  -30.8882   27.0238 H   0  0  0  0  0  0
  -26.2865  -29.6796   24.1173 H   0  0  0  0  0  0
  -27.4049  -29.7268   25.4607 H   0  0  0  0  0  0
  -27.8719  -30.4328   23.9311 H   0  0  0  0  0  0
  -27.2660  -33.3612   26.2107 H   0  0  0  0  0  0
  -28.3850  -32.6917   25.0321 H   0  0  0  0  0  0
  -28.0741  -31.8439   26.5398 H   0  0  0  0  0  0
  -28.2608  -38.0099   24.7492 H   0  0  0  0  0  0
  -28.1061  -36.2629   24.6315 H   0  0  0  0  0  0
  -27.2296  -37.1497   25.8871 H   0  0  0  0  0  0
  -20.9290  -29.8787   21.6947 H   0  0  0  0  0  0
  -26.0182  -38.2870   24.1393 H   0  0  0  0  0  0
  -30.2436  -21.2573   23.4906 H   0  0  0  0  0  0
  -31.1102  -22.6763   22.9530 H   0  0  0  0  0  0
  -29.4067  -24.0889   23.5786 H   0  0  0  0  0  0
  -28.6807  -22.7306   24.4292 H   0  0  0  0  0  0
  -27.9811  -22.5915   20.4037 H   0  0  0  0  0  0
  -30.6328  -22.0229   20.7603 H   0  0  0  0  0  0
  -27.2054  -24.9108   20.3038 H   0  0  0  0  0  0
  -28.2087  -25.0075   18.8611 H   0  0  0  0  0  0
  -29.0725  -17.8866   20.2543 H   0  0  0  0  0  0
  -28.8139  -17.8520   21.9824 H   0  0  0  0  0  0
  -31.0944  -16.8909   22.3428 H   0  0  0  0  0  0
  -31.4264  -17.0166   20.6371 H   0  0  0  0  0  0
  -30.9643  -19.5216   20.5585 H   0  0  0  0  0  0
  -30.7472  -19.4523   22.2874 H   0  0  0  0  0  0
  -27.3670  -23.8392   22.5348 H   0  0  0  0  0  0
  -29.1577  -15.2812   21.5514 H   0  0  0  0  0  0
  -28.7998  -20.4630   20.3314 H   0  0  0  0  0  0
  -28.4995  -20.3862   21.9227 H   0  0  0  0  0  0
  1 25  1  0  0  0
  1 30  2  0  0  0
  1 81  1  0  0  0
  2  3  1  0  0  0
  2 25  1  0  0  0
  2 84  1  0  0  0
  2 85  1  0  0  0
  3  4  1  0  0  0
  3 86  1  0  0  0
  3 87  1  0  0  0
  4  5  1  0  0  0
  4 88  1  0  0  0
  4 89  1  0  0  0
  5  6  1  0  0  0
  5 26  1  0  0  0
  5 90  1  0  0  0
  6 25  1  0  0  0
  6 91  1  0  0  0
  6 92  1  0  0  0
  7  8  2  0  0  0
  7 26  1  0  0  0
  7 29  1  0  0  0
  8  9  1  0  0  0
  8 22  1  0  0  0
  9 10  1  0  0  0
  9 27  2  0  0  0
 10 11  2  0  0  0
 10 15  1  0  0  0
 11 12  1  0  0  0
 11 93  1  0  0  0
 12 13  2  0  0  0
 12 94  1  0  0  0
 13 14  1  0  0  0
 13 31  1  0  0  0
 14 15  2  0  0  0
 14 95  1  0  0  0
 15 96  1  0  0  0
 16 17  2  0  0  0
 16 21  1  0  0  0
 16 31  1  0  0  0
 17 18  1  0  0  0
 17 97  1  0  0  0
 18 19  2  0  0  0
 18 98  1  0  0  0
 19 20  1  0  0  0
 19 24  1  0  0  0
 20 21  2  0  0  0
 20 99  1  0  0  0
 21 23  1  0  0  0
 22 28  1  0  0  0
 22 32  2  0  0  0
 26 27  1  0  0  0
 28100  1  0  0  0
 28101  1  0  0  0
 29102  1  0  0  0
 29103  1  0  0  0
 33 34  1  0  0  0
 33 66  1  0  0  0
 33 70  2  0  0  0
 34 36  1  0  0  0
 34 59  1  0  0  0
 34104  1  0  0  0
 35 44  2  0  0  0
 35 45  1  0  0  0
 35 68  1  0  0  0
 36 56  1  0  0  0
 36105  1  0  0  0
 37 39  1  0  0  0
 37 47  1  0  0  0
 37 66  1  0  0  0
 37106  1  0  0  0
 38 43  2  0  0  0
 38 46  1  0  0  0
 38 47  1  0  0  0
 39 64  1  0  0  0
 39 67  2  0  0  0
 40 52  1  0  0  0
 40 53  2  0  0  0
 40 58  1  0  0  0
 41107  1  0  0  0
 41108  1  0  0  0
 41109  1  0  0  0
 41 48  1  0  0  0
 42 43  1  0  0  0
 42 66  1  0  0  0
 42110  1  0  0  0
 42111  1  0  0  0
 43 44  1  0  0  0
 44112  1  0  0  0
 45 46  2  0  0  0
 45113  1  0  0  0
 46114  1  0  0  0
 47115  1  0  0  0
 47116  1  0  0  0
 48 56  1  0  0  0
 48 65  1  0  0  0
 48117  1  0  0  0
 49 50  1  0  0  0
 49 53  1  0  0  0
 49 64  1  0  0  0
 49118  1  0  0  0
 50 51  1  0  0  0
 50119  1  0  0  0
 50120  1  0  0  0
 51 52  1  0  0  0
 51121  1  0  0  0
 51122  1  0  0  0
 52123  1  0  0  0
 52124  1  0  0  0
 53 54  1  0  0  0
 54 55  2  0  0  0
 54125  1  0  0  0
 55 57  1  0  0  0
 55126  1  0  0  0
 56 69  2  0  0  0
 57 58  2  0  0  0
 57127  1  0  0  0
 58128  1  0  0  0
 59 60  1  0  0  0
 59 61  1  0  0  0
 59 62  1  0  0  0
 60129  1  0  0  0
 60130  1  0  0  0
 60131  1  0  0  0
 61132  1  0  0  0
 61133  1  0  0  0
 61134  1  0  0  0
 62135  1  0  0  0
 62136  1  0  0  0
 62137  1  0  0  0
 63 65  1  0  0  0
 63138  1  0  0  0
 63139  1  0  0  0
 63140  1  0  0  0
 64141  1  0  0  0
 65142  1  0  0  0
 68 76  1  0  0  0
 71 76  1  0  0  0
 71 83  2  0  0  0
 71 74  1  0  0  0
 72 73  1  0  0  0
 72 75  1  0  0  0
 72143  1  0  0  0
 72144  1  0  0  0
 73 80  1  0  0  0
 73145  1  0  0  0
 73146  1  0  0  0
 74 75  1  0  0  0
 74 80  1  0  0  0
 74147  1  0  0  0
 75 82  1  0  0  0
 75148  1  0  0  0
 76149  1  0  0  0
 76150  1  0  0  0
 77 78  1  0  0  0
 77 79  1  0  0  0
 77151  1  0  0  0
 77152  1  0  0  0
 78 81  1  0  0  0
 78153  1  0  0  0
 78154  1  0  0  0
 79 82  1  0  0  0
 79155  1  0  0  0
 79156  1  0  0  0
 80157  1  0  0  0
 81158  1  0  0  0
 82159  1  0  0  0
 82160  1  0  0  0
M  CHG  1  82   1
M  ISO  4   1 100  68 101  76 101  81 100
M  END
> <chiral flag>
0

> <version>
0

> <s_m_source_file>
/data/baiqing/PycharmProjects/Reinvent-master-3.2/result/LINK_invent/BTK/process_docking_weight1_custom_sum_contain_oxygen_bond_distance_aromatic_linkinvent_7_9_3/rearranged_h_0135.sdf

> <i_m_source_file_index>
48

> <r_mmod_Potential_Energy-OPLS-2005>
-128.340881347656

> <r_mmod_Stretch_Energy-OPLS-2005>
41.202953338623

> <r_mmod_Bend_Energy-OPLS-2005>
114.680870056152

> <r_mmod_Torsional_Energy-OPLS-2005>
251.375091552734

> <r_mmod_Improper_Torsional_Energy-OPLS-2005>
2.83636569976807

> <r_mmod_Van_der_Waal_Energy-OPLS-2005>
140.633361816406

> <r_mmod_Electrostatic_Energy-OPLS-2005>
-203.195526123047

> <r_mmod_Solvation_Energy-OPLS-2005>
-490.727386474609

> <b_mmod_Minimization_Converged-OPLS-2005>
0

> <r_mmod_RMS_Derivative-OPLS-2005>
1.23246037960052

$$$$
48
                    3D
 Structure written by MMmdl.
169178  0  0  1  0            999 V2000
  -30.5860  -14.8773   20.4791 C   0  0  0  0  0  0
  -30.4282  -12.5493   19.4958 C   0  0  0  0  0  0
  -29.5145  -12.5367   18.2501 C   0  0  0  0  0  0
  -28.0420  -12.3350   18.6501 C   0  0  0  0  0  0
  -27.6273  -13.2513   19.8308 C   0  0  2  0  0  0
  -28.6611  -13.2414   20.9716 C   0  0  0  0  0  0
  -25.2440  -13.8253   20.5660 C   0  0  0  0  0  0
  -24.1772  -13.0446   20.9211 C   0  0  0  0  0  0
  -24.6396  -11.6949   20.8733 C   0  0  0  0  0  0
  -23.9093  -10.4306   21.0400 C   0  0  0  0  0  0
  -24.3640   -9.4221   21.9169 C   0  0  0  0  0  0
  -23.6313   -8.2248   22.0746 C   0  0  0  0  0  0
  -22.4281   -8.0298   21.3551 C   0  0  0  0  0  0
  -21.9935   -9.0267   20.4635 C   0  0  0  0  0  0
  -22.7271  -10.2135   20.3046 C   0  0  0  0  0  0
  -21.6857   -6.0753   22.5296 C   0  0  0  0  0  0
  -21.4009   -6.5644   23.8232 C   0  0  0  0  0  0
  -21.3670   -5.6784   24.9189 C   0  0  0  0  0  0
  -21.6038   -4.3050   24.7220 C   0  0  0  0  0  0
  -21.8827   -3.8154   23.4341 C   0  0  0  0  0  0
  -21.9190   -4.6978   22.3405 C   0  0  0  0  0  0
  -22.7791  -13.5210   21.1892 C   0  0  0  0  0  0
  -22.1659   -4.2173   21.0977 F   0  0  0  0  0  0
  -21.5635   -3.4531   25.7728 F   0  0  0  0  0  0
  -29.9588  -13.6341   20.4064 N   0  0  0  0  0  0
  -26.2848  -12.9483   20.3142 N   0  0  0  0  0  0
  -25.9317  -11.6608   20.5665 N   0  0  0  0  0  0
  -22.0453  -12.8150   22.0454 N   0  0  0  0  0  0
  -25.4107  -15.1970   20.4057 N   0  0  0  0  0  0
  -31.7364  -14.9486   20.0367 O   0  0  0  0  0  0
  -21.6639   -6.8895   21.4252 O   0  0  0  0  0  0
  -22.3461  -14.5516   20.6785 O   0  0  0  0  0  0
  -24.6342  -31.8473   23.1887 C   0  0  0  0  0  0
  -25.9137  -32.4702   23.8284 C   0  0  1  0  0  0
  -27.2285  -27.1852   20.1781 C   0  0  0  0  0  0
  -25.5883  -33.8508   24.2180 N   0  0  0  0  0  0
  -23.4405  -30.4605   21.5328 C   0  0  2  0  0  0
  -24.8976  -28.8906   20.1156 C   0  0  0  0  0  0
  -22.7519  -29.4543   22.4875 C   0  0  0  0  0  0
  -18.0272  -28.1405   22.8415 C   0  0  0  0  0  0
  -24.1521  -36.7292   23.2645 C   0  0  0  0  0  0
  -25.9902  -30.7404   21.3832 C   0  0  0  0  0  0
  -26.0680  -29.3532   20.7316 C   0  0  0  0  0  0
  -27.2389  -28.5147   20.7414 C   0  0  0  0  0  0
  -26.0388  -26.7990   19.5336 C   0  0  0  0  0  0
  -24.8927  -27.6253   19.5015 C   0  0  0  0  0  0
  -23.6687  -29.7841   20.1539 C   0  0  0  0  0  0
  -25.4135  -36.3038   24.0304 C   0  0  1  0  0  0
  -20.5864  -28.3739   23.1223 C   0  0  2  0  0  0
  -20.6792  -26.9452   22.5384 C   0  0  0  0  0  0
  -19.5796  -26.6393   21.5171 C   0  0  0  0  0  0
  -18.1948  -26.7930   22.1567 C   0  0  0  0  0  0
  -19.1527  -28.8881   23.2808 C   0  0  0  0  0  0
  -18.9464  -30.1450   23.8872 C   0  0  0  0  0  0
  -17.6476  -30.6599   24.0556 C   0  0  0  0  0  0
  -25.9074  -34.9417   23.5072 C   0  0  0  0  0  0
  -16.5358  -29.9096   23.6341 C   0  0  0  0  0  0
  -16.7252  -28.6519   23.0332 C   0  0  0  0  0  0
  -26.4487  -31.6554   25.0718 C   0  0  0  0  0  0
  -25.3661  -31.3688   26.1401 C   0  0  0  0  0  0
  -27.0360  -30.2952   24.6252 C   0  0  0  0  0  0
  -27.6035  -32.4323   25.7465 C   0  0  0  0  0  0
  -27.5614  -37.1753   24.8432 C   0  0  0  0  0  0
  -21.4212  -29.3066   22.3626 N   0  0  0  0  0  0
  -26.4322  -37.3732   23.9395 N   0  0  0  0  0  0
  -24.7068  -31.0364   22.0900 N   0  0  0  0  0  0
  -23.4175  -28.8060   23.2995 O   0  0  0  0  0  0
  -28.3267  -26.2734   20.1718 O   0  0  0  0  0  0
  -26.5719  -34.8916   22.4687 O   0  0  0  0  0  0
  -23.5459  -32.1340   23.7095 O   0  0  0  0  0  0
  -30.1159  -19.7344   19.6740 C   0  0  0  0  0  0
  -28.4462  -19.6431   21.3224 C   0  0  0  0  0  0
  -29.2100  -20.5010   20.4754 C   0  0  0  0  0  0
  -30.3439  -18.3020   19.7777 C   0  0  0  0  0  0
  -28.6312  -18.2075   21.4268 C   0  0  0  0  0  0
  -29.6532  -17.4493   20.7229 C   0  0  0  0  0  0
  -27.7138  -25.0170   22.2612 C   0  0  0  0  0  0
  -27.1279  -23.6985   22.7808 C   0  0  0  0  0  0
  -26.7533  -22.8141   20.4742 C   0  0  0  0  0  0
  -28.1954  -23.3424   20.2323 C   0  0  1  0  0  0
  -28.3723  -24.8926   20.8602 C   0  0  1  0  0  0
  -31.4303  -17.7497   18.8728 C   0  0  0  0  0  0
  -27.6742  -17.5037   22.3777 C   0  0  0  0  0  0
  -30.2310  -15.8638   22.5726 C   0  0  0  0  0  0
  -29.2998  -22.1409   20.5838 C   0  0  0  0  0  0
  -29.9829  -15.9939   21.1219 N   0  0  0  0  0  0
  -26.1660  -23.1840   21.7882 N   0  3  0  0  0  0
  -31.4643  -12.6858   19.1822 H   0  0  0  0  0  0
  -30.4056  -11.5876   20.0114 H   0  0  0  0  0  0
  -29.8247  -11.7566   17.5522 H   0  0  0  0  0  0
  -29.6167  -13.4837   17.7190 H   0  0  0  0  0  0
  -27.9050  -11.2895   18.9248 H   0  0  0  0  0  0
  -27.3933  -12.5116   17.7899 H   0  0  0  0  0  0
  -27.6024  -14.2634   19.4227 H   0  0  0  0  0  0
  -28.7170  -12.2598   21.4410 H   0  0  0  0  0  0
  -28.3356  -13.9376   21.7424 H   0  0  0  0  0  0
  -25.2787   -9.5683   22.4745 H   0  0  0  0  0  0
  -24.0027   -7.4636   22.7462 H   0  0  0  0  0  0
  -21.0880   -8.8790   19.8930 H   0  0  0  0  0  0
  -22.3752  -10.9669   19.6157 H   0  0  0  0  0  0
  -21.1997   -7.6150   23.9746 H   0  0  0  0  0  0
  -21.1484   -6.0503   25.9089 H   0  0  0  0  0  0
  -22.0593   -2.7625   23.2828 H   0  0  0  0  0  0
  -22.4073  -11.9771   22.4782 H   0  0  0  0  0  0
  -21.1072  -13.1175   22.2692 H   0  0  0  0  0  0
  -24.6463  -15.8531   20.5203 H   0  0  0  0  0  0
  -26.2604  -15.6331   20.0694 H   0  0  0  0  0  0
  -26.7210  -32.5371   23.1032 H   0  0  0  0  0  0
  -24.9820  -33.9621   25.0169 H   0  0  0  0  0  0
  -22.7409  -31.2825   21.3748 H   0  0  0  0  0  0
  -23.3778  -35.9630   23.3237 H   0  0  0  0  0  0
  -24.3579  -36.9007   22.2071 H   0  0  0  0  0  0
  -23.7323  -37.6464   23.6750 H   0  0  0  0  0  0
  -26.1380  -31.4991   20.6140 H   0  0  0  0  0  0
  -26.8615  -30.7948   22.0255 H   0  0  0  0  0  0
  -28.1450  -28.8639   21.2185 H   0  0  0  0  0  0
  -25.9934  -25.8307   19.0582 H   0  0  0  0  0  0
  -24.0031  -27.2629   19.0089 H   0  0  0  0  0  0
  -23.7895  -30.5568   19.3928 H   0  0  0  0  0  0
  -22.7887  -29.2143   19.8513 H   0  0  0  0  0  0
  -25.1313  -36.1867   25.0796 H   0  0  0  0  0  0
  -20.9930  -28.3367   24.1353 H   0  0  0  0  0  0
  -20.5693  -26.2333   23.3576 H   0  0  0  0  0  0
  -21.6673  -26.7494   22.1197 H   0  0  0  0  0  0
  -19.7004  -25.6287   21.1235 H   0  0  0  0  0  0
  -19.6793  -27.3187   20.6691 H   0  0  0  0  0  0
  -17.4219  -26.6573   21.3991 H   0  0  0  0  0  0
  -18.0410  -26.0119   22.9014 H   0  0  0  0  0  0
  -19.7975  -30.7203   24.2302 H   0  0  0  0  0  0
  -17.5075  -31.6290   24.5149 H   0  0  0  0  0  0
  -15.5367  -30.3016   23.7733 H   0  0  0  0  0  0
  -15.8620  -28.0855   22.7093 H   0  0  0  0  0  0
  -24.5889  -30.6993   25.7666 H   0  0  0  0  0  0
  -24.8789  -32.2841   26.4783 H   0  0  0  0  0  0
  -25.7962  -30.8866   27.0205 H   0  0  0  0  0  0
  -26.2966  -29.6599   24.1350 H   0  0  0  0  0  0
  -27.4065  -29.7294   25.4809 H   0  0  0  0  0  0
  -27.8826  -30.4125   23.9490 H   0  0  0  0  0  0
  -27.2659  -33.3672   26.1941 H   0  0  0  0  0  0
  -28.3885  -32.6781   25.0305 H   0  0  0  0  0  0
  -28.0665  -31.8523   26.5455 H   0  0  0  0  0  0
  -28.2498  -38.0167   24.7593 H   0  0  0  0  0  0
  -28.1265  -36.2697   24.6140 H   0  0  0  0  0  0
  -27.2332  -37.1219   25.8828 H   0  0  0  0  0  0
  -20.9420  -29.8783   21.6789 H   0  0  0  0  0  0
  -26.0188  -38.2781   24.1457 H   0  0  0  0  0  0
  -30.7329  -20.2936   18.9837 H   0  0  0  0  0  0
  -27.7070  -20.1035   21.9648 H   0  0  0  0  0  0
  -28.4222  -25.4233   22.9866 H   0  0  0  0  0  0
  -26.8897  -25.7290   22.2319 H   0  0  0  0  0  0
  -26.6140  -23.8638   23.7285 H   0  0  0  0  0  0
  -27.9088  -22.9710   22.9947 H   0  0  0  0  0  0
  -26.7255  -21.7298   20.3813 H   0  0  0  0  0  0
  -26.0850  -23.1880   19.7018 H   0  0  0  0  0  0
  -28.2922  -23.4503   19.1498 H   0  0  0  0  0  0
  -29.4375  -24.8736   21.0845 H   0  0  0  0  0  0
  -31.7959  -18.5054   18.1728 H   0  0  0  0  0  0
  -31.0538  -16.9187   18.2777 H   0  0  0  0  0  0
  -32.2854  -17.4172   19.4613 H   0  0  0  0  0  0
  -26.7084  -18.0107   22.3917 H   0  0  0  0  0  0
  -28.0671  -17.5033   23.3962 H   0  0  0  0  0  0
  -27.4839  -16.4754   22.0718 H   0  0  0  0  0  0
  -30.2420  -16.8317   23.0740 H   0  0  0  0  0  0
  -31.2025  -15.4191   22.8022 H   0  0  0  0  0  0
  -29.4723  -15.2536   23.0586 H   0  0  0  0  0  0
  -30.1905  -22.4069   20.0115 H   0  0  0  0  0  0
  -29.6244  -22.3106   21.6084 H   0  0  0  0  0  0
  -25.4831  -23.9075   21.6233 H   0  0  0  0  0  0
  -25.6586  -22.4040   22.1740 H   0  0  0  0  0  0
  1 25  1  0  0  0
  1 30  2  0  0  0
  1 86  1  0  0  0
  2  3  1  0  0  0
  2 25  1  0  0  0
  2 88  1  0  0  0
  2 89  1  0  0  0
  3  4  1  0  0  0
  3 90  1  0  0  0
  3 91  1  0  0  0
  4  5  1  0  0  0
  4 92  1  0  0  0
  4 93  1  0  0  0
  5  6  1  0  0  0
  5 26  1  0  0  0
  5 94  1  0  0  0
  6 25  1  0  0  0
  6 95  1  0  0  0
  6 96  1  0  0  0
  7  8  2  0  0  0
  7 26  1  0  0  0
  7 29  1  0  0  0
  8  9  1  0  0  0
  8 22  1  0  0  0
  9 10  1  0  0  0
  9 27  2  0  0  0
 10 11  2  0  0  0
 10 15  1  0  0  0
 11 12  1  0  0  0
 11 97  1  0  0  0
 12 13  2  0  0  0
 12 98  1  0  0  0
 13 14  1  0  0  0
 13 31  1  0  0  0
 14 15  2  0  0  0
 14 99  1  0  0  0
 15100  1  0  0  0
 16 17  2  0  0  0
 16 21  1  0  0  0
 16 31  1  0  0  0
 17 18  1  0  0  0
 17101  1  0  0  0
 18 19  2  0  0  0
 18102  1  0  0  0
 19 20  1  0  0  0
 19 24  1  0  0  0
 20 21  2  0  0  0
 20103  1  0  0  0
 21 23  1  0  0  0
 22 28  1  0  0  0
 22 32  2  0  0  0
 26 27  1  0  0  0
 28104  1  0  0  0
 28105  1  0  0  0
 29106  1  0  0  0
 29107  1  0  0  0
 33 34  1  0  0  0
 33 66  1  0  0  0
 33 70  2  0  0  0
 34 36  1  0  0  0
 34 59  1  0  0  0
 34108  1  0  0  0
 35 44  2  0  0  0
 35 45  1  0  0  0
 35 68  1  0  0  0
 36 56  1  0  0  0
 36109  1  0  0  0
 37 39  1  0  0  0
 37 47  1  0  0  0
 37 66  1  0  0  0
 37110  1  0  0  0
 38 43  2  0  0  0
 38 46  1  0  0  0
 38 47  1  0  0  0
 39 64  1  0  0  0
 39 67  2  0  0  0
 40 52  1  0  0  0
 40 53  2  0  0  0
 40 58  1  0  0  0
 41111  1  0  0  0
 41112  1  0  0  0
 41113  1  0  0  0
 41 48  1  0  0  0
 42 43  1  0  0  0
 42 66  1  0  0  0
 42114  1  0  0  0
 42115  1  0  0  0
 43 44  1  0  0  0
 44116  1  0  0  0
 45 46  2  0  0  0
 45117  1  0  0  0
 46118  1  0  0  0
 47119  1  0  0  0
 47120  1  0  0  0
 48 56  1  0  0  0
 48 65  1  0  0  0
 48121  1  0  0  0
 49 50  1  0  0  0
 49 53  1  0  0  0
 49 64  1  0  0  0
 49122  1  0  0  0
 50 51  1  0  0  0
 50123  1  0  0  0
 50124  1  0  0  0
 51 52  1  0  0  0
 51125  1  0  0  0
 51126  1  0  0  0
 52127  1  0  0  0
 52128  1  0  0  0
 53 54  1  0  0  0
 54 55  2  0  0  0
 54129  1  0  0  0
 55 57  1  0  0  0
 55130  1  0  0  0
 56 69  2  0  0  0
 57 58  2  0  0  0
 57131  1  0  0  0
 58132  1  0  0  0
 59 60  1  0  0  0
 59 61  1  0  0  0
 59 62  1  0  0  0
 60133  1  0  0  0
 60134  1  0  0  0
 60135  1  0  0  0
 61136  1  0  0  0
 61137  1  0  0  0
 61138  1  0  0  0
 62139  1  0  0  0
 62140  1  0  0  0
 62141  1  0  0  0
 63 65  1  0  0  0
 63142  1  0  0  0
 63143  1  0  0  0
 63144  1  0  0  0
 64145  1  0  0  0
 65146  1  0  0  0
 68 81  1  0  0  0
 71 73  2  0  0  0
 71 74  1  0  0  0
 71147  1  0  0  0
 72 73  1  0  0  0
 72 75  2  0  0  0
 72148  1  0  0  0
 73 85  1  0  0  0
 74 76  2  0  0  0
 74 82  1  0  0  0
 75 76  1  0  0  0
 75 83  1  0  0  0
 76 86  1  0  0  0
 77 78  1  0  0  0
 77 81  1  0  0  0
 77149  1  0  0  0
 77150  1  0  0  0
 78 87  1  0  0  0
 78151  1  0  0  0
 78152  1  0  0  0
 79 80  1  0  0  0
 79 87  1  0  0  0
 79153  1  0  0  0
 79154  1  0  0  0
 80 81  1  0  0  0
 80 85  1  0  0  0
 80155  1  0  0  0
 81156  1  0  0  0
 82157  1  0  0  0
 82158  1  0  0  0
 82159  1  0  0  0
 83160  1  0  0  0
 83161  1  0  0  0
 83162  1  0  0  0
 84 86  1  0  0  0
 84163  1  0  0  0
 84164  1  0  0  0
 84165  1  0  0  0
 85166  1  0  0  0
 85167  1  0  0  0
 87168  1  0  0  0
 87169  1  0  0  0
M  CHG  1  87   1
M  ISO  4   1 100  68 101  81 101  86 100
M  END
> <chiral flag>
0

> <version>
0

> <s_m_source_file>
/data/baiqing/PycharmProjects/Reinvent-master-3.2/result/LINK_invent/BTK/process_docking_weight1_custom_sum_contain_oxygen_bond_distance_aromatic_linkinvent_7_9_3/rearranged_h_0135.sdf

> <i_m_source_file_index>
49

> <r_mmod_Potential_Energy-OPLS-2005>
508.31005859375

> <r_mmod_Stretch_Energy-OPLS-2005>
223.848785400391

> <r_mmod_Bend_Energy-OPLS-2005>
304.696197509766

> <r_mmod_Torsional_Energy-OPLS-2005>
392.377960205078

> <r_mmod_Improper_Torsional_Energy-OPLS-2005>
6.83548641204834

> <r_mmod_Van_der_Waal_Energy-OPLS-2005>
142.633239746094

> <r_mmod_Electrostatic_Energy-OPLS-2005>
-259.951354980469

> <r_mmod_Solvation_Energy-OPLS-2005>
-442.915618896484

> <b_mmod_Minimization_Converged-OPLS-2005>
0

> <r_mmod_RMS_Derivative-OPLS-2005>
4.43891906738281

$$$$
49
                    3D
 Structure written by MMmdl.
166175  0  0  1  0            999 V2000
  -29.9357  -15.5337   20.2655 C   0  0  0  0  0  0
  -30.3670  -13.0108   19.5269 C   0  0  0  0  0  0
  -29.5066  -12.6014   18.3005 C   0  0  0  0  0  0
  -28.0614  -12.2666   18.7285 C   0  0  0  0  0  0
  -27.5404  -13.2565   19.7931 C   0  0  2  0  0  0
  -28.5254  -13.4682   20.9392 C   0  0  0  0  0  0
  -25.2054  -13.8172   20.5722 C   0  0  0  0  0  0
  -24.1493  -13.0410   20.9348 C   0  0  0  0  0  0
  -24.6144  -11.6872   20.8771 C   0  0  0  0  0  0
  -23.8910  -10.4275   21.0445 C   0  0  0  0  0  0
  -24.3530   -9.4189   21.9190 C   0  0  0  0  0  0
  -23.6270   -8.2182   22.0716 C   0  0  0  0  0  0
  -22.4214   -8.0226   21.3549 C   0  0  0  0  0  0
  -21.9855   -9.0162   20.4602 C   0  0  0  0  0  0
  -22.7123  -10.2072   20.3057 C   0  0  0  0  0  0
  -21.6835   -6.0688   22.5278 C   0  0  0  0  0  0
  -21.4007   -6.5622   23.8202 C   0  0  0  0  0  0
  -21.3661   -5.6793   24.9182 C   0  0  0  0  0  0
  -21.6050   -4.3051   24.7251 C   0  0  0  0  0  0
  -21.8805   -3.8121   23.4376 C   0  0  0  0  0  0
  -21.9186   -4.6924   22.3422 C   0  0  0  0  0  0
  -22.7515  -13.5129   21.2016 C   0  0  0  0  0  0
  -22.1644   -4.2134   21.0991 F   0  0  0  0  0  0
  -21.5638   -3.4514   25.7752 F   0  0  0  0  0  0
  -29.6471  -14.1222   20.2909 N   0  0  0  0  0  0
  -26.2313  -12.9364   20.2949 N   0  0  0  0  0  0
  -25.9014  -11.6499   20.5595 N   0  0  0  0  0  0
  -22.0248  -12.8123   22.0587 N   0  0  0  0  0  0
  -25.3935  -15.1949   20.4291 N   0  0  0  0  0  0
  -31.1745  -15.6486   20.1259 O   0  0  0  0  0  0
  -21.6593   -6.8815   21.4234 O   0  0  0  0  0  0
  -22.3226  -14.5487   20.6887 O   0  0  0  0  0  0
  -24.5880  -31.8707   23.0842 C   0  0  0  0  0  0
  -25.8889  -32.4718   23.7252 C   0  0  1  0  0  0
  -27.8536  -27.8508   20.2803 C   0  0  0  0  0  0
  -25.5760  -33.8470   24.1509 N   0  0  0  0  0  0
  -23.7708  -29.3656   22.4752 C   0  0  2  0  0  0
  -25.6157  -27.8424   19.5609 C   0  0  0  0  0  0
  -22.5515  -29.2142   23.1848 C   0  0  0  0  0  0
  -17.9363  -28.1252   22.8648 C   0  0  0  0  0  0
  -24.1474  -36.7257   23.2691 C   0  0  0  0  0  0
  -25.8597  -31.1383   20.4951 C   0  0  0  0  0  0
  -26.3677  -29.4518   19.3257 C   0  0  0  0  0  0
  -27.6878  -29.1065   19.6916 C   0  0  0  0  0  0
  -27.3265  -26.7350   19.5562 C   0  0  0  0  0  0
  -26.1721  -26.9074   18.8450 C   0  0  0  0  0  0
  -24.5370  -27.3110   21.6465 C   0  0  0  0  0  0
  -25.4120  -36.2980   24.0267 C   0  0  1  0  0  0
  -20.4274  -28.2970   23.1390 C   0  0  2  0  0  0
  -20.5698  -26.9064   22.4955 C   0  0  0  0  0  0
  -19.4389  -26.5846   21.5230 C   0  0  0  0  0  0
  -18.0868  -26.7646   22.2104 C   0  0  0  0  0  0
  -19.0567  -28.8754   23.2603 C   0  0  0  0  0  0
  -18.9041  -30.1470   23.8500 C   0  0  0  0  0  0
  -17.6207  -30.6911   24.0148 C   0  0  0  0  0  0
  -25.9088  -34.9489   23.4752 C   0  0  0  0  0  0
  -16.4935  -29.9369   23.6412 C   0  0  0  0  0  0
  -16.6520  -28.6466   23.0953 C   0  0  0  0  0  0
  -26.4299  -31.6771   25.0005 C   0  0  0  0  0  0
  -25.3703  -31.4087   26.0993 C   0  0  0  0  0  0
  -27.0475  -30.3184   24.6074 C   0  0  0  0  0  0
  -27.5671  -32.4729   25.6896 C   0  0  0  0  0  0
  -27.5560  -37.1749   24.8467 C   0  0  0  0  0  0
  -21.3798  -29.2392   22.5814 N   0  0  0  0  0  0
  -26.4239  -37.3713   23.9458 N   0  0  0  0  0  0
  -24.6268  -31.0131   21.9980 N   0  0  0  0  0  0
  -22.7384  -28.7085   24.2713 O   0  0  0  0  0  0
  -27.0575  -28.0466   21.3767 O   0  0  0  0  0  0
  -26.5797  -34.9120   22.4420 O   0  0  0  0  0  0
  -23.5317  -32.0831   23.6825 O   0  0  0  0  0  0
  -27.6419  -21.4053   20.2908 C   0  0  0  0  0  0
  -25.8785  -20.3561   19.3416 C   0  0  0  0  0  0
  -28.2763  -19.8520   20.8565 C   0  0  0  0  0  0
  -27.0022  -19.0224   19.1159 C   0  0  0  0  0  0
  -24.0655  -29.6063   20.0866 C   0  0  0  0  0  0
  -26.0405  -21.9161   20.0220 C   0  0  2  0  0  0
  -23.4625  -28.4423   20.1085 C   0  0  2  0  0  0
  -28.0019  -18.2828   20.2495 C   0  0  1  0  0  0
  -25.7129  -29.0747   21.4108 C   0  0  2  0  0  0
  -22.0287  -25.9875   19.3382 C   0  0  0  0  0  0
  -25.2059  -23.5912   19.3874 C   0  0  0  0  0  0
  -23.4782  -26.4966   19.4722 C   0  0  2  0  0  0
  -28.8963  -16.7105   20.2501 N   0  0  0  0  0  0
  -24.4664  -25.0761   20.0133 N   0  3  0  0  0  0
  -31.3370  -13.3622   19.1600 H   0  0  0  0  0  0
  -30.5884  -12.1560   20.1631 H   0  0  0  0  0  0
  -29.9506  -11.7679   17.7673 H   0  0  0  0  0  0
  -29.4784  -13.4404   17.6013 H   0  0  0  0  0  0
  -28.0633  -11.2535   19.1424 H   0  0  0  0  0  0
  -27.4041  -12.2391   17.8604 H   0  0  0  0  0  0
  -27.4319  -14.2029   19.2600 H   0  0  0  0  0  0
  -28.7701  -12.5376   21.4446 H   0  0  0  0  0  0
  -28.0929  -14.1402   21.6905 H   0  0  0  0  0  0
  -25.2670   -9.5662   22.4773 H   0  0  0  0  0  0
  -23.9979   -7.4546   22.7419 H   0  0  0  0  0  0
  -21.0795   -8.8658   19.8899 H   0  0  0  0  0  0
  -22.3580  -10.9604   19.6165 H   0  0  0  0  0  0
  -21.1993   -7.6124   23.9735 H   0  0  0  0  0  0
  -21.1505   -6.0498   25.9098 H   0  0  0  0  0  0
  -22.0597   -2.7587   23.2866 H   0  0  0  0  0  0
  -22.3879  -11.9767   22.4947 H   0  0  0  0  0  0
  -21.0860  -13.1058   22.2838 H   0  0  0  0  0  0
  -24.6552  -15.8713   20.5862 H   0  0  0  0  0  0
  -26.2706  -15.6185   20.1502 H   0  0  0  0  0  0
  -26.6799  -32.4894   22.9795 H   0  0  0  0  0  0
  -24.9811  -33.9434   24.9602 H   0  0  0  0  0  0
  -24.3507  -29.4783   23.4035 H   0  0  0  0  0  0
  -23.3753  -35.9563   23.3192 H   0  0  0  0  0  0
  -24.3567  -36.9088   22.2148 H   0  0  0  0  0  0
  -23.7205  -37.6369   23.6893 H   0  0  0  0  0  0
  -25.4764  -31.8939   19.8216 H   0  0  0  0  0  0
  -26.7963  -31.5628   20.8588 H   0  0  0  0  0  0
  -28.3431  -29.9001   20.0194 H   0  0  0  0  0  0
  -27.9467  -25.8638   19.3874 H   0  0  0  0  0  0
  -25.7355  -26.1811   18.1756 H   0  0  0  0  0  0
  -25.3204  -26.9062   22.2984 H   0  0  0  0  0  0
  -23.8761  -26.4854   21.8409 H   0  0  0  0  0  0
  -25.1364  -36.1598   25.0743 H   0  0  0  0  0  0
  -20.5812  -28.0807   24.1982 H   0  0  0  0  0  0
  -20.5610  -26.1373   23.2633 H   0  0  0  0  0  0
  -21.5487  -26.8107   22.0389 H   0  0  0  0  0  0
  -19.5057  -25.5597   21.1619 H   0  0  0  0  0  0
  -19.5003  -27.2336   20.6549 H   0  0  0  0  0  0
  -17.2833  -26.6524   21.4781 H   0  0  0  0  0  0
  -17.9267  -26.0079   22.9781 H   0  0  0  0  0  0
  -19.7729  -30.7070   24.1781 H   0  0  0  0  0  0
  -17.5052  -31.6926   24.4137 H   0  0  0  0  0  0
  -15.4992  -30.3405   23.7981 H   0  0  0  0  0  0
  -15.7743  -28.0619   22.8479 H   0  0  0  0  0  0
  -24.5611  -30.7637   25.7605 H   0  0  0  0  0  0
  -24.9259  -32.3413   26.4514 H   0  0  0  0  0  0
  -25.8194  -30.9248   26.9701 H   0  0  0  0  0  0
  -26.2873  -29.5589   24.4658 H   0  0  0  0  0  0
  -27.6870  -29.9201   25.3977 H   0  0  0  0  0  0
  -27.6645  -30.3876   23.7104 H   0  0  0  0  0  0
  -27.2067  -33.4158   26.1072 H   0  0  0  0  0  0
  -28.3710  -32.7072   24.9877 H   0  0  0  0  0  0
  -28.0057  -31.9171   26.5244 H   0  0  0  0  0  0
  -28.2469  -38.0136   24.7485 H   0  0  0  0  0  0
  -28.1143  -36.2638   24.6239 H   0  0  0  0  0  0
  -27.2337  -37.1340   25.8890 H   0  0  0  0  0  0
  -21.2860  -29.5638   21.6313 H   0  0  0  0  0  0
  -26.0046  -38.2739   24.1535 H   0  0  0  0  0  0
  -28.1602  -21.5760   19.3417 H   0  0  0  0  0  0
  -28.0901  -22.1603   20.9474 H   0  0  0  0  0  0
  -25.0321  -19.9258   19.8691 H   0  0  0  0  0  0
  -25.4820  -20.5432   18.3358 H   0  0  0  0  0  0
  -28.0248  -19.7992   21.9172 H   0  0  0  0  0  0
  -29.3603  -19.9657   20.8524 H   0  0  0  0  0  0
  -27.6857  -19.3309   18.3238 H   0  0  0  0  0  0
  -26.4299  -18.2191   18.6536 H   0  0  0  0  0  0
  -23.3269  -30.3783   20.3083 H   0  0  0  0  0  0
  -24.1782  -29.9042   19.0382 H   0  0  0  0  0  0
  -25.5761  -21.8384   21.0039 H   0  0  0  0  0  0
  -22.4411  -28.6392   20.4325 H   0  0  0  0  0  0
  -27.2546  -17.9202   20.9617 H   0  0  0  0  0  0
  -25.9559  -29.2066   22.4650 H   0  0  0  0  0  0
  -21.9872  -25.0456   18.8007 H   0  0  0  0  0  0
  -21.3777  -26.6859   18.8113 H   0  0  0  0  0  0
  -21.6036  -25.7691   20.2946 H   0  0  0  0  0  0
  -24.4038  -23.2577   18.7289 H   0  0  0  0  0  0
  -25.9505  -23.9947   18.6903 H   0  0  0  0  0  0
  -23.6903  -26.6078   18.4099 H   0  0  0  0  0  0
  -29.7377  -17.2294   20.0345 H   0  0  0  0  0  0
  -25.3099  -25.5933   20.1951 H   0  0  0  0  0  0
  -24.1141  -24.8258   20.9249 H   0  0  0  0  0  0
  1 25  1  0  0  0
  1 30  2  0  0  0
  1 83  1  0  0  0
  2  3  1  0  0  0
  2 25  1  0  0  0
  2 85  1  0  0  0
  2 86  1  0  0  0
  3  4  1  0  0  0
  3 87  1  0  0  0
  3 88  1  0  0  0
  4  5  1  0  0  0
  4 89  1  0  0  0
  4 90  1  0  0  0
  5  6  1  0  0  0
  5 26  1  0  0  0
  5 91  1  0  0  0
  6 25  1  0  0  0
  6 92  1  0  0  0
  6 93  1  0  0  0
  7  8  2  0  0  0
  7 26  1  0  0  0
  7 29  1  0  0  0
  8  9  1  0  0  0
  8 22  1  0  0  0
  9 10  1  0  0  0
  9 27  2  0  0  0
 10 11  2  0  0  0
 10 15  1  0  0  0
 11 12  1  0  0  0
 11 94  1  0  0  0
 12 13  2  0  0  0
 12 95  1  0  0  0
 13 14  1  0  0  0
 13 31  1  0  0  0
 14 15  2  0  0  0
 14 96  1  0  0  0
 15 97  1  0  0  0
 16 17  2  0  0  0
 16 21  1  0  0  0
 16 31  1  0  0  0
 17 18  1  0  0  0
 17 98  1  0  0  0
 18 19  2  0  0  0
 18 99  1  0  0  0
 19 20  1  0  0  0
 19 24  1  0  0  0
 20 21  2  0  0  0
 20100  1  0  0  0
 21 23  1  0  0  0
 22 28  1  0  0  0
 22 32  2  0  0  0
 26 27  1  0  0  0
 28101  1  0  0  0
 28102  1  0  0  0
 29103  1  0  0  0
 29104  1  0  0  0
 33 34  1  0  0  0
 33 66  1  0  0  0
 33 70  2  0  0  0
 34 36  1  0  0  0
 34 59  1  0  0  0
 34105  1  0  0  0
 35 44  2  0  0  0
 35 45  1  0  0  0
 35 68  1  0  0  0
 36 56  1  0  0  0
 36106  1  0  0  0
 37 39  1  0  0  0
 37 47  1  0  0  0
 37 66  1  0  0  0
 37107  1  0  0  0
 38 43  2  0  0  0
 38 46  1  0  0  0
 38 47  1  0  0  0
 39 64  1  0  0  0
 39 67  2  0  0  0
 40 52  1  0  0  0
 40 53  2  0  0  0
 40 58  1  0  0  0
 41108  1  0  0  0
 41109  1  0  0  0
 41110  1  0  0  0
 41 48  1  0  0  0
 42 43  1  0  0  0
 42 66  1  0  0  0
 42111  1  0  0  0
 42112  1  0  0  0
 43 44  1  0  0  0
 44113  1  0  0  0
 45 46  2  0  0  0
 45114  1  0  0  0
 46115  1  0  0  0
 47116  1  0  0  0
 47117  1  0  0  0
 48 56  1  0  0  0
 48 65  1  0  0  0
 48118  1  0  0  0
 49 50  1  0  0  0
 49 53  1  0  0  0
 49 64  1  0  0  0
 49119  1  0  0  0
 50 51  1  0  0  0
 50120  1  0  0  0
 50121  1  0  0  0
 51 52  1  0  0  0
 51122  1  0  0  0
 51123  1  0  0  0
 52124  1  0  0  0
 52125  1  0  0  0
 53 54  1  0  0  0
 54 55  2  0  0  0
 54126  1  0  0  0
 55 57  1  0  0  0
 55127  1  0  0  0
 56 69  2  0  0  0
 57 58  2  0  0  0
 57128  1  0  0  0
 58129  1  0  0  0
 59 60  1  0  0  0
 59 61  1  0  0  0
 59 62  1  0  0  0
 60130  1  0  0  0
 60131  1  0  0  0
 60132  1  0  0  0
 61133  1  0  0  0
 61134  1  0  0  0
 61135  1  0  0  0
 62136  1  0  0  0
 62137  1  0  0  0
 62138  1  0  0  0
 63 65  1  0  0  0
 63139  1  0  0  0
 63140  1  0  0  0
 63141  1  0  0  0
 64142  1  0  0  0
 65143  1  0  0  0
 68 79  1  0  0  0
 71 73  1  0  0  0
 71 76  1  0  0  0
 71144  1  0  0  0
 71145  1  0  0  0
 72 74  1  0  0  0
 72 76  1  0  0  0
 72146  1  0  0  0
 72147  1  0  0  0
 73 78  1  0  0  0
 73148  1  0  0  0
 73149  1  0  0  0
 74 78  1  0  0  0
 74150  1  0  0  0
 74151  1  0  0  0
 75 79  1  0  0  0
 75152  1  0  0  0
 75153  1  0  0  0
 75 77  1  0  0  0
 76 81  1  0  0  0
 76154  1  0  0  0
 77 79  1  0  0  0
 77 82  1  0  0  0
 77155  1  0  0  0
 78 83  1  0  0  0
 78156  1  0  0  0
 79157  1  0  0  0
 80158  1  0  0  0
 80159  1  0  0  0
 80160  1  0  0  0
 80 82  1  0  0  0
 81 84  1  0  0  0
 81161  1  0  0  0
 81162  1  0  0  0
 82 84  1  0  0  0
 82163  1  0  0  0
 83164  1  0  0  0
 84165  1  0  0  0
 84166  1  0  0  0
M  CHG  1  84   1
M  ISO  4   1 100  68 101  79 101  83 100
M  END
> <chiral flag>
0

> <version>
0

> <s_m_source_file>
/data/baiqing/PycharmProjects/Reinvent-master-3.2/result/LINK_invent/BTK/process_docking_weight1_custom_sum_contain_oxygen_bond_distance_aromatic_linkinvent_7_9_3/rearranged_h_0135.sdf

> <i_m_source_file_index>
50

> <r_mmod_Potential_Energy-OPLS-2005>
15363.1201171875

> <r_mmod_Stretch_Energy-OPLS-2005>
6903.392578125

> <r_mmod_Bend_Energy-OPLS-2005>
1654.21862792969

> <r_mmod_Torsional_Energy-OPLS-2005>
794.843078613281

> <r_mmod_Improper_Torsional_Energy-OPLS-2005>
78.5962905883789

> <r_mmod_Van_der_Waal_Energy-OPLS-2005>
3064.58642578125

> <r_mmod_Electrostatic_Energy-OPLS-2005>
-296.284484863281

> <r_mmod_Solvation_Energy-OPLS-2005>
-442.53662109375

> <b_mmod_Minimization_Converged-OPLS-2005>
0

> <r_mmod_RMS_Derivative-OPLS-2005>
29.7711658477783

$$$$
50
                    3D
 Structure written by MMmdl.
163172  0  0  1  0            999 V2000
  -30.5573  -14.9875   20.4702 C   0  0  0  0  0  0
  -30.4329  -12.6222   19.5259 C   0  0  0  0  0  0
  -29.5244  -12.5368   18.2756 C   0  0  0  0  0  0
  -28.0622  -12.3017   18.6899 C   0  0  0  0  0  0
  -27.6236  -13.2485   19.8341 C   0  0  2  0  0  0
  -28.6526  -13.3018   20.9829 C   0  0  0  0  0  0
  -25.2431  -13.8221   20.5704 C   0  0  0  0  0  0
  -24.1748  -13.0446   20.9215 C   0  0  0  0  0  0
  -24.6367  -11.6931   20.8723 C   0  0  0  0  0  0
  -23.9057  -10.4305   21.0407 C   0  0  0  0  0  0
  -24.3607   -9.4225   21.9195 C   0  0  0  0  0  0
  -23.6266   -8.2270   22.0781 C   0  0  0  0  0  0
  -22.4236   -8.0309   21.3583 C   0  0  0  0  0  0
  -21.9874   -9.0281   20.4679 C   0  0  0  0  0  0
  -22.7218  -10.2150   20.3068 C   0  0  0  0  0  0
  -21.6852   -6.0745   22.5305 C   0  0  0  0  0  0
  -21.4029   -6.5642   23.8245 C   0  0  0  0  0  0
  -21.3653   -5.6794   24.9199 C   0  0  0  0  0  0
  -21.6035   -4.3058   24.7242 C   0  0  0  0  0  0
  -21.8806   -3.8147   23.4363 C   0  0  0  0  0  0
  -21.9181   -4.6969   22.3422 C   0  0  0  0  0  0
  -22.7779  -13.5247   21.1864 C   0  0  0  0  0  0
  -22.1653   -4.2157   21.1005 F   0  0  0  0  0  0
  -21.5603   -3.4544   25.7754 F   0  0  0  0  0  0
  -29.9367  -13.7308   20.4057 N   0  0  0  0  0  0
  -26.2836  -12.9446   20.3178 N   0  0  0  0  0  0
  -25.9295  -11.6574   20.5685 N   0  0  0  0  0  0
  -22.0396  -12.8274   22.0413 N   0  0  0  0  0  0
  -25.4085  -15.1964   20.4201 N   0  0  0  0  0  0
  -31.7237  -15.0363   20.0641 O   0  0  0  0  0  0
  -21.6622   -6.8891   21.4271 O   0  0  0  0  0  0
  -22.3484  -14.5545   20.6680 O   0  0  0  0  0  0
  -24.6456  -31.8429   23.1890 C   0  0  0  0  0  0
  -25.9230  -32.4689   23.8281 C   0  0  1  0  0  0
  -27.2119  -27.1125   20.1490 C   0  0  0  0  0  0
  -25.5964  -33.8490   24.2208 N   0  0  0  0  0  0
  -23.4506  -30.4645   21.5344 C   0  0  2  0  0  0
  -24.8994  -28.8888   20.1137 C   0  0  0  0  0  0
  -22.7579  -29.4552   22.4843 C   0  0  0  0  0  0
  -18.0316  -28.1404   22.8480 C   0  0  0  0  0  0
  -24.1489  -36.7245   23.2636 C   0  0  0  0  0  0
  -26.0098  -30.7083   21.3929 C   0  0  0  0  0  0
  -26.0812  -29.3175   20.7330 C   0  0  0  0  0  0
  -27.2402  -28.4470   20.7313 C   0  0  0  0  0  0
  -26.0070  -26.7993   19.4813 C   0  0  0  0  0  0
  -24.8763  -27.6428   19.4737 C   0  0  0  0  0  0
  -23.6796  -29.7970   20.1537 C   0  0  0  0  0  0
  -25.4114  -36.3026   24.0321 C   0  0  1  0  0  0
  -20.5929  -28.3745   23.1221 C   0  0  2  0  0  0
  -20.6802  -26.9444   22.5399 C   0  0  0  0  0  0
  -19.5774  -26.6387   21.5209 C   0  0  0  0  0  0
  -18.1953  -26.7945   22.1620 C   0  0  0  0  0  0
  -19.1576  -28.8887   23.2848 C   0  0  0  0  0  0
  -18.9482  -30.1469   23.8893 C   0  0  0  0  0  0
  -17.6480  -30.6591   24.0559 C   0  0  0  0  0  0
  -25.9067  -34.9399   23.5071 C   0  0  0  0  0  0
  -16.5371  -29.9085   23.6334 C   0  0  0  0  0  0
  -16.7296  -28.6501   23.0363 C   0  0  0  0  0  0
  -26.4537  -31.6555   25.0728 C   0  0  0  0  0  0
  -25.3697  -31.3768   26.1409 C   0  0  0  0  0  0
  -27.0384  -30.2938   24.6319 C   0  0  0  0  0  0
  -27.6079  -32.4319   25.7491 C   0  0  0  0  0  0
  -27.5580  -37.1765   24.8458 C   0  0  0  0  0  0
  -21.4271  -29.3067   22.3581 N   0  0  0  0  0  0
  -26.4278  -37.3745   23.9415 N   0  0  0  0  0  0
  -24.7220  -31.0272   22.0936 N   0  0  0  0  0  0
  -23.4213  -28.8098   23.3010 O   0  0  0  0  0  0
  -28.2484  -26.0987   20.1741 O   0  0  0  0  0  0
  -26.5647  -34.8902   22.4651 O   0  0  0  0  0  0
  -23.5573  -32.1306   23.7100 O   0  0  0  0  0  0
  -30.4106  -20.8951   19.3784 C   0  0  0  0  0  0
  -29.9031  -23.3318   19.2726 C   0  0  0  0  0  0
  -29.3257  -20.6021   20.2334 C   0  0  0  0  0  0
  -30.6838  -22.2064   18.9026 C   0  0  0  0  0  0
  -28.7893  -23.2244   20.1291 C   0  0  0  0  0  0
  -28.5172  -21.8205   20.5828 C   0  0  0  0  0  0
  -29.6956  -16.4343   22.2421 C   0  0  0  0  0  0
  -30.0184  -17.6593   20.1569 C   0  0  0  0  0  0
  -28.6577  -17.5251   22.6178 C   0  0  0  0  0  0
  -29.1112  -18.9974   20.6749 C   0  0  1  0  0  0
  -31.8514  -22.4119   17.9534 C   0  0  0  0  0  0
  -27.2937  -21.6443   21.4689 C   0  0  0  0  0  0
  -27.8940  -24.5914   20.4474 C   0  0  0  0  0  0
  -29.8587  -16.2096   20.7921 N   0  0  0  0  0  0
  -29.0283  -18.8829   22.1411 N   0  3  0  0  0  0
  -31.4671  -12.7728   19.2180 H   0  0  0  0  0  0
  -30.4307  -11.6748   20.0675 H   0  0  0  0  0  0
  -29.8581  -11.7366   17.6134 H   0  0  0  0  0  0
  -29.6036  -13.4622   17.7019 H   0  0  0  0  0  0
  -27.9806  -11.2624   19.0177 H   0  0  0  0  0  0
  -27.3975  -12.4064   17.8313 H   0  0  0  0  0  0
  -27.5815  -14.2441   19.3907 H   0  0  0  0  0  0
  -28.7429  -12.3342   21.4774 H   0  0  0  0  0  0
  -28.3045  -13.9980   21.7425 H   0  0  0  0  0  0
  -25.2764   -9.5692   22.4763 H   0  0  0  0  0  0
  -23.9982   -7.4651   22.7491 H   0  0  0  0  0  0
  -21.0801   -8.8794   19.8976 H   0  0  0  0  0  0
  -22.3686  -10.9682   19.6165 H   0  0  0  0  0  0
  -21.2059   -7.6157   23.9754 H   0  0  0  0  0  0
  -21.1471   -6.0525   25.9102 H   0  0  0  0  0  0
  -22.0574   -2.7606   23.2865 H   0  0  0  0  0  0
  -22.3960  -11.9957   22.4883 H   0  0  0  0  0  0
  -21.1025  -13.1356   22.2588 H   0  0  0  0  0  0
  -24.6303  -15.8358   20.5308 H   0  0  0  0  0  0
  -26.2408  -15.6442   20.0598 H   0  0  0  0  0  0
  -26.7293  -32.5296   23.1003 H   0  0  0  0  0  0
  -25.0089  -33.9603   25.0342 H   0  0  0  0  0  0
  -22.7556  -31.2925   21.3806 H   0  0  0  0  0  0
  -23.3767  -35.9558   23.3260 H   0  0  0  0  0  0
  -24.3587  -36.8904   22.2058 H   0  0  0  0  0  0
  -23.7221  -37.6423   23.6694 H   0  0  0  0  0  0
  -26.1729  -31.4622   20.6220 H   0  0  0  0  0  0
  -26.8773  -30.7566   22.0387 H   0  0  0  0  0  0
  -28.1426  -28.7758   21.2290 H   0  0  0  0  0  0
  -25.9086  -25.8643   18.9522 H   0  0  0  0  0  0
  -23.9787  -27.3113   18.9691 H   0  0  0  0  0  0
  -23.8278  -30.5736   19.4023 H   0  0  0  0  0  0
  -22.7909  -29.2476   19.8383 H   0  0  0  0  0  0
  -25.1297  -36.1845   25.0812 H   0  0  0  0  0  0
  -21.0025  -28.3338   24.1339 H   0  0  0  0  0  0
  -20.5701  -26.2350   23.3615 H   0  0  0  0  0  0
  -21.6668  -26.7448   22.1193 H   0  0  0  0  0  0
  -19.6933  -25.6286   21.1263 H   0  0  0  0  0  0
  -19.6703  -27.3174   20.6715 H   0  0  0  0  0  0
  -17.4218  -26.6692   21.4022 H   0  0  0  0  0  0
  -18.0350  -26.0085   22.9016 H   0  0  0  0  0  0
  -19.7949  -30.7290   24.2272 H   0  0  0  0  0  0
  -17.5024  -31.6274   24.5151 H   0  0  0  0  0  0
  -15.5371  -30.2984   23.7649 H   0  0  0  0  0  0
  -15.8694  -28.0795   22.7111 H   0  0  0  0  0  0
  -24.5886  -30.7106   25.7739 H   0  0  0  0  0  0
  -24.8864  -32.2944   26.4764 H   0  0  0  0  0  0
  -25.7951  -30.8990   27.0237 H   0  0  0  0  0  0
  -26.2988  -29.6661   24.1325 H   0  0  0  0  0  0
  -27.3977  -29.7261   25.4915 H   0  0  0  0  0  0
  -27.8925  -30.4177   23.9654 H   0  0  0  0  0  0
  -27.2697  -33.3644   26.2024 H   0  0  0  0  0  0
  -28.3896  -32.6823   25.0308 H   0  0  0  0  0  0
  -28.0731  -31.8454   26.5425 H   0  0  0  0  0  0
  -28.2574  -38.0089   24.7540 H   0  0  0  0  0  0
  -28.1104  -36.2619   24.6236 H   0  0  0  0  0  0
  -27.2308  -37.1354   25.8866 H   0  0  0  0  0  0
  -20.9475  -29.8741   21.6723 H   0  0  0  0  0  0
  -26.0141  -38.2808   24.1439 H   0  0  0  0  0  0
  -31.0486  -20.0832   19.0584 H   0  0  0  0  0  0
  -30.1543  -24.3068   18.8734 H   0  0  0  0  0  0
  -29.4325  -15.5152   22.7620 H   0  0  0  0  0  0
  -30.6673  -16.7154   22.6516 H   0  0  0  0  0  0
  -31.0693  -17.9172   20.2947 H   0  0  0  0  0  0
  -29.8943  -17.5591   19.0789 H   0  0  0  0  0  0
  -28.5635  -17.5667   23.7027 H   0  0  0  0  0  0
  -27.6714  -17.2548   22.2367 H   0  0  0  0  0  0
  -28.1030  -18.7870   20.3149 H   0  0  0  0  0  0
  -32.2378  -21.4636   17.5767 H   0  0  0  0  0  0
  -32.6687  -22.9314   18.4552 H   0  0  0  0  0  0
  -31.5474  -23.0081   17.0915 H   0  0  0  0  0  0
  -26.8837  -20.6359   21.4205 H   0  0  0  0  0  0
  -26.4915  -22.3168   21.1621 H   0  0  0  0  0  0
  -27.5397  -21.8740   22.5076 H   0  0  0  0  0  0
  -27.7045  -24.5600   21.5208 H   0  0  0  0  0  0
  -26.9286  -24.3711   20.0007 H   0  0  0  0  0  0
  -29.9137  -19.1525   22.5373 H   0  0  0  0  0  0
  -28.3410  -19.5369   22.4759 H   0  0  0  0  0  0
  1 25  1  0  0  0
  1 30  2  0  0  0
  1 84  1  0  0  0
  2  3  1  0  0  0
  2 25  1  0  0  0
  2 86  1  0  0  0
  2 87  1  0  0  0
  3  4  1  0  0  0
  3 88  1  0  0  0
  3 89  1  0  0  0
  4  5  1  0  0  0
  4 90  1  0  0  0
  4 91  1  0  0  0
  5  6  1  0  0  0
  5 26  1  0  0  0
  5 92  1  0  0  0
  6 25  1  0  0  0
  6 93  1  0  0  0
  6 94  1  0  0  0
  7  8  2  0  0  0
  7 26  1  0  0  0
  7 29  1  0  0  0
  8  9  1  0  0  0
  8 22  1  0  0  0
  9 10  1  0  0  0
  9 27  2  0  0  0
 10 11  2  0  0  0
 10 15  1  0  0  0
 11 12  1  0  0  0
 11 95  1  0  0  0
 12 13  2  0  0  0
 12 96  1  0  0  0
 13 14  1  0  0  0
 13 31  1  0  0  0
 14 15  2  0  0  0
 14 97  1  0  0  0
 15 98  1  0  0  0
 16 17  2  0  0  0
 16 21  1  0  0  0
 16 31  1  0  0  0
 17 18  1  0  0  0
 17 99  1  0  0  0
 18 19  2  0  0  0
 18100  1  0  0  0
 19 20  1  0  0  0
 19 24  1  0  0  0
 20 21  2  0  0  0
 20101  1  0  0  0
 21 23  1  0  0  0
 22 28  1  0  0  0
 22 32  2  0  0  0
 26 27  1  0  0  0
 28102  1  0  0  0
 28103  1  0  0  0
 29104  1  0  0  0
 29105  1  0  0  0
 33 34  1  0  0  0
 33 66  1  0  0  0
 33 70  2  0  0  0
 34 36  1  0  0  0
 34 59  1  0  0  0
 34106  1  0  0  0
 35 44  2  0  0  0
 35 45  1  0  0  0
 35 68  1  0  0  0
 36 56  1  0  0  0
 36107  1  0  0  0
 37 39  1  0  0  0
 37 47  1  0  0  0
 37 66  1  0  0  0
 37108  1  0  0  0
 38 43  2  0  0  0
 38 46  1  0  0  0
 38 47  1  0  0  0
 39 64  1  0  0  0
 39 67  2  0  0  0
 40 52  1  0  0  0
 40 53  2  0  0  0
 40 58  1  0  0  0
 41109  1  0  0  0
 41110  1  0  0  0
 41111  1  0  0  0
 41 48  1  0  0  0
 42 43  1  0  0  0
 42 66  1  0  0  0
 42112  1  0  0  0
 42113  1  0  0  0
 43 44  1  0  0  0
 44114  1  0  0  0
 45 46  2  0  0  0
 45115  1  0  0  0
 46116  1  0  0  0
 47117  1  0  0  0
 47118  1  0  0  0
 48 56  1  0  0  0
 48 65  1  0  0  0
 48119  1  0  0  0
 49 50  1  0  0  0
 49 53  1  0  0  0
 49 64  1  0  0  0
 49120  1  0  0  0
 50 51  1  0  0  0
 50121  1  0  0  0
 50122  1  0  0  0
 51 52  1  0  0  0
 51123  1  0  0  0
 51124  1  0  0  0
 52125  1  0  0  0
 52126  1  0  0  0
 53 54  1  0  0  0
 54 55  2  0  0  0
 54127  1  0  0  0
 55 57  1  0  0  0
 55128  1  0  0  0
 56 69  2  0  0  0
 57 58  2  0  0  0
 57129  1  0  0  0
 58130  1  0  0  0
 59 60  1  0  0  0
 59 61  1  0  0  0
 59 62  1  0  0  0
 60131  1  0  0  0
 60132  1  0  0  0
 60133  1  0  0  0
 61134  1  0  0  0
 61135  1  0  0  0
 61136  1  0  0  0
 62137  1  0  0  0
 62138  1  0  0  0
 62139  1  0  0  0
 63 65  1  0  0  0
 63140  1  0  0  0
 63141  1  0  0  0
 63142  1  0  0  0
 64143  1  0  0  0
 65144  1  0  0  0
 68 83  1  0  0  0
 71 73  2  0  0  0
 71 74  1  0  0  0
 71145  1  0  0  0
 72 74  2  0  0  0
 72 75  1  0  0  0
 72146  1  0  0  0
 73 76  1  0  0  0
 73 80  1  0  0  0
 74 81  1  0  0  0
 75 76  2  0  0  0
 75 83  1  0  0  0
 76 82  1  0  0  0
 77 79  1  0  0  0
 77 84  1  0  0  0
 77147  1  0  0  0
 77148  1  0  0  0
 78 80  1  0  0  0
 78 84  1  0  0  0
 78149  1  0  0  0
 78150  1  0  0  0
 79 85  1  0  0  0
 79151  1  0  0  0
 79152  1  0  0  0
 80 85  1  0  0  0
 80153  1  0  0  0
 81154  1  0  0  0
 81155  1  0  0  0
 81156  1  0  0  0
 82157  1  0  0  0
 82158  1  0  0  0
 82159  1  0  0  0
 83160  1  0  0  0
 83161  1  0  0  0
 85162  1  0  0  0
 85163  1  0  0  0
M  CHG  1  85   1
M  ISO  4   1 100  68 101  83 101  84 100
M  END
> <chiral flag>
0

> <version>
0

> <s_m_source_file>
/data/baiqing/PycharmProjects/Reinvent-master-3.2/result/LINK_invent/BTK/process_docking_weight1_custom_sum_contain_oxygen_bond_distance_aromatic_linkinvent_7_9_3/rearranged_h_0135.sdf

> <i_m_source_file_index>
51

> <r_mmod_Potential_Energy-OPLS-2005>
558.387817382812

> <r_mmod_Stretch_Energy-OPLS-2005>
303.330352783203

> <r_mmod_Bend_Energy-OPLS-2005>
260.906188964844

> <r_mmod_Torsional_Energy-OPLS-2005>
376.558380126953

> <r_mmod_Improper_Torsional_Energy-OPLS-2005>
8.00684356689453

> <r_mmod_Van_der_Waal_Energy-OPLS-2005>
131.254135131836

> <r_mmod_Electrostatic_Energy-OPLS-2005>
-271.506530761719

> <r_mmod_Solvation_Energy-OPLS-2005>
-465.960693359375

> <b_mmod_Minimization_Converged-OPLS-2005>
0

> <r_mmod_RMS_Derivative-OPLS-2005>
3.20131707191467

$$$$
51
                    3D
 Structure written by MMmdl.
168178  0  0  1  0            999 V2000
  -30.7090  -14.4534   20.6224 C   0  0  0  0  0  0
  -30.4232  -12.3163   19.4159 C   0  0  0  0  0  0
  -29.4922  -12.5165   18.2030 C   0  0  0  0  0  0
  -28.0147  -12.3686   18.6178 C   0  0  0  0  0  0
  -27.6609  -13.2055   19.8763 C   0  0  2  0  0  0
  -28.6997  -12.9749   20.9959 C   0  0  0  0  0  0
  -25.2582  -13.8160   20.5676 C   0  0  0  0  0  0
  -24.1830  -13.0438   20.9166 C   0  0  0  0  0  0
  -24.6378  -11.6903   20.8722 C   0  0  0  0  0  0
  -23.9044  -10.4293   21.0392 C   0  0  0  0  0  0
  -24.3603   -9.4215   21.9176 C   0  0  0  0  0  0
  -23.6283   -8.2243   22.0750 C   0  0  0  0  0  0
  -22.4268   -8.0277   21.3540 C   0  0  0  0  0  0
  -21.9897   -9.0246   20.4641 C   0  0  0  0  0  0
  -22.7218  -10.2126   20.3044 C   0  0  0  0  0  0
  -21.6853   -6.0728   22.5276 C   0  0  0  0  0  0
  -21.4005   -6.5628   23.8206 C   0  0  0  0  0  0
  -21.3655   -5.6784   24.9171 C   0  0  0  0  0  0
  -21.6043   -4.3048   24.7221 C   0  0  0  0  0  0
  -21.8825   -3.8139   23.4344 C   0  0  0  0  0  0
  -21.9198   -4.6956   22.3401 C   0  0  0  0  0  0
  -22.7855  -13.5241   21.1840 C   0  0  0  0  0  0
  -22.1670   -4.2145   21.0979 F   0  0  0  0  0  0
  -21.5632   -3.4529   25.7734 F   0  0  0  0  0  0
  -30.0318  -13.2870   20.4498 N   0  0  0  0  0  0
  -26.3017  -12.9323   20.3366 N   0  0  0  0  0  0
  -25.9308  -11.6484   20.5754 N   0  0  0  0  0  0
  -22.0490  -12.8235   22.0392 N   0  0  0  0  0  0
  -25.4313  -15.1871   20.4102 N   0  0  0  0  0  0
  -31.8049  -14.6768   20.1009 O   0  0  0  0  0  0
  -21.6639   -6.8870   21.4238 O   0  0  0  0  0  0
  -22.3554  -14.5557   20.6702 O   0  0  0  0  0  0
  -24.6133  -31.8675   23.2085 C   0  0  0  0  0  0
  -25.9031  -32.4819   23.8383 C   0  0  1  0  0  0
  -27.2378  -27.4339   20.1102 C   0  0  0  0  0  0
  -25.5897  -33.8616   24.2316 N   0  0  0  0  0  0
  -23.4015  -30.4897   21.5475 C   0  0  2  0  0  0
  -24.8501  -28.9465   20.1210 C   0  0  0  0  0  0
  -22.7403  -29.4658   22.4978 C   0  0  0  0  0  0
  -18.0277  -28.1390   22.8493 C   0  0  0  0  0  0
  -24.1472  -36.7283   23.2637 C   0  0  0  0  0  0
  -25.9283  -30.8327   21.3608 C   0  0  0  0  0  0
  -26.0065  -29.4623   20.7196 C   0  0  0  0  0  0
  -27.2032  -28.7114   20.7133 C   0  0  0  0  0  0
  -26.0673  -26.9271   19.5081 C   0  0  0  0  0  0
  -24.8731  -27.6763   19.5156 C   0  0  0  0  0  0
  -23.6124  -29.8156   20.1641 C   0  0  0  0  0  0
  -25.4091  -36.3097   24.0349 C   0  0  1  0  0  0
  -20.5868  -28.3659   23.1327 C   0  0  2  0  0  0
  -20.6762  -26.9393   22.5430 C   0  0  0  0  0  0
  -19.5744  -26.6390   21.5217 C   0  0  0  0  0  0
  -18.1918  -26.7945   22.1613 C   0  0  0  0  0  0
  -19.1528  -28.8839   23.2916 C   0  0  0  0  0  0
  -18.9457  -30.1447   23.8926 C   0  0  0  0  0  0
  -17.6460  -30.6588   24.0577 C   0  0  0  0  0  0
  -25.9031  -34.9475   23.5124 C   0  0  0  0  0  0
  -16.5349  -29.9096   23.6334 C   0  0  0  0  0  0
  -16.7266  -28.6521   23.0342 C   0  0  0  0  0  0
  -26.4469  -31.6594   25.0708 C   0  0  0  0  0  0
  -25.3753  -31.3736   26.1481 C   0  0  0  0  0  0
  -27.0259  -30.3021   24.6073 C   0  0  0  0  0  0
  -27.6069  -32.4298   25.7449 C   0  0  0  0  0  0
  -27.5586  -37.1764   24.8444 C   0  0  0  0  0  0
  -21.4132  -29.3024   22.3720 N   0  0  0  0  0  0
  -26.4252  -37.3808   23.9462 N   0  0  0  0  0  0
  -24.6657  -31.0784   22.0975 N   0  0  0  0  0  0
  -23.4180  -28.8211   23.3024 O   0  0  0  0  0  0
  -28.4242  -26.7386   20.0380 O   0  0  0  0  0  0
  -26.5589  -34.8938   22.4681 O   0  0  0  0  0  0
  -23.5326  -32.1425   23.7482 O   0  0  0  0  0  0
  -29.7354  -23.3044   20.3937 C   0  0  0  0  0  0
  -29.4564  -24.5847   19.8726 C   0  0  0  0  0  0
  -27.9012  -24.9848   21.6842 C   0  0  0  0  0  0
  -28.1807  -23.7049   22.2312 C   0  0  0  0  0  0
  -29.1194  -22.8498   21.5816 C   0  0  0  0  0  0
  -28.5519  -25.4488   20.5192 C   0  0  0  0  0  0
  -27.2282  -24.3218   24.6155 C   0  0  0  0  0  0
  -28.2721  -23.2533   24.8177 C   0  0  0  0  0  0
  -30.2964  -17.0890   23.1588 C   0  0  0  0  0  0
  -29.6978  -18.5084   23.1548 C   0  0  0  0  0  0
  -27.5017  -23.3148   23.5171 C   0  0  0  0  0  0
  -30.6047  -16.7212   21.6892 C   0  0  2  0  0  0
  -30.0994  -19.0995   21.7975 C   0  0  1  0  0  0
  -29.9680  -17.8730   20.8675 C   0  0  1  0  0  0
  -29.5880  -21.5111   22.1895 C   0  0  0  0  0  0
  -30.0771  -15.3918   21.3508 N   0  0  0  0  0  0
  -29.3209  -20.2987   21.3726 N   0  3  0  0  0  0
  -30.6612  -18.0764   19.6504 O   0  0  0  0  0  0
  -31.4664  -12.4256   19.1138 H   0  0  0  0  0  0
  -30.3330  -11.3008   19.8047 H   0  0  0  0  0  0
  -29.7358  -11.7986   17.4187 H   0  0  0  0  0  0
  -29.6557  -13.5062   17.7727 H   0  0  0  0  0  0
  -27.8306  -11.3112   18.8133 H   0  0  0  0  0  0
  -27.3605  -12.6389   17.7882 H   0  0  0  0  0  0
  -27.7098  -14.2553   19.5861 H   0  0  0  0  0  0
  -28.6768  -11.9352   21.3243 H   0  0  0  0  0  0
  -28.4505  -13.5596   21.8821 H   0  0  0  0  0  0
  -25.2746   -9.5694   22.4746 H   0  0  0  0  0  0
  -23.9995   -7.4637   22.7469 H   0  0  0  0  0  0
  -21.0829   -8.8752   19.8952 H   0  0  0  0  0  0
  -22.3672  -10.9654   19.6144 H   0  0  0  0  0  0
  -21.1977   -7.6136   23.9704 H   0  0  0  0  0  0
  -21.1471   -6.0514   25.9073 H   0  0  0  0  0  0
  -22.0607   -2.7602   23.2843 H   0  0  0  0  0  0
  -22.4081  -11.9880   22.4769 H   0  0  0  0  0  0
  -21.1105  -13.1269   22.2584 H   0  0  0  0  0  0
  -24.6630  -15.8418   20.5068 H   0  0  0  0  0  0
  -26.2878  -15.6248   20.0945 H   0  0  0  0  0  0
  -26.7107  -32.5537   23.1152 H   0  0  0  0  0  0
  -25.0072  -33.9769   25.0478 H   0  0  0  0  0  0
  -22.6902  -31.3062   21.4053 H   0  0  0  0  0  0
  -23.3787  -35.9552   23.3211 H   0  0  0  0  0  0
  -24.3594  -36.8981   22.2065 H   0  0  0  0  0  0
  -23.7138  -37.6427   23.6703 H   0  0  0  0  0  0
  -26.0365  -31.5928   20.5854 H   0  0  0  0  0  0
  -26.8182  -30.8931   21.9753 H   0  0  0  0  0  0
  -28.1027  -29.1111   21.1600 H   0  0  0  0  0  0
  -26.0858  -25.9596   19.0260 H   0  0  0  0  0  0
  -23.9835  -27.2753   19.0496 H   0  0  0  0  0  0
  -23.7240  -30.5871   19.4011 H   0  0  0  0  0  0
  -22.7373  -29.2342   19.8675 H   0  0  0  0  0  0
  -25.1257  -36.1926   25.0837 H   0  0  0  0  0  0
  -20.9975  -28.3225   24.1443 H   0  0  0  0  0  0
  -20.5646  -26.2266   23.3617 H   0  0  0  0  0  0
  -21.6634  -26.7429   22.1224 H   0  0  0  0  0  0
  -19.6894  -25.6308   21.1229 H   0  0  0  0  0  0
  -19.6704  -27.3222   20.6768 H   0  0  0  0  0  0
  -17.4200  -26.6727   21.3995 H   0  0  0  0  0  0
  -18.0295  -26.0081   22.8992 H   0  0  0  0  0  0
  -19.7936  -30.7257   24.2301 H   0  0  0  0  0  0
  -17.5019  -31.6265   24.5186 H   0  0  0  0  0  0
  -15.5351  -30.3002   23.7659 H   0  0  0  0  0  0
  -15.8666  -28.0853   22.7029 H   0  0  0  0  0  0
  -24.5872  -30.7141   25.7835 H   0  0  0  0  0  0
  -24.9020  -32.2917   26.4978 H   0  0  0  0  0  0
  -25.8107  -30.8854   27.0207 H   0  0  0  0  0  0
  -26.2759  -29.6786   24.1192 H   0  0  0  0  0  0
  -27.4085  -29.7262   25.4506 H   0  0  0  0  0  0
  -27.8587  -30.4314   23.9159 H   0  0  0  0  0  0
  -27.2729  -33.3635   26.1989 H   0  0  0  0  0  0
  -28.3900  -32.6781   25.0272 H   0  0  0  0  0  0
  -28.0709  -31.8434   26.5386 H   0  0  0  0  0  0
  -28.2526  -38.0142   24.7638 H   0  0  0  0  0  0
  -28.1159  -36.2691   24.6064 H   0  0  0  0  0  0
  -27.2351  -37.1159   25.8851 H   0  0  0  0  0  0
  -20.9287  -29.8718   21.6925 H   0  0  0  0  0  0
  -26.0129  -38.2852   24.1593 H   0  0  0  0  0  0
  -30.4727  -22.6926   19.8925 H   0  0  0  0  0  0
  -29.9761  -24.9231   18.9868 H   0  0  0  0  0  0
  -27.2114  -25.6435   22.1935 H   0  0  0  0  0  0
  -27.5915  -25.3417   24.5005 H   0  0  0  0  0  0
  -26.3050  -24.2173   25.1820 H   0  0  0  0  0  0
  -28.0312  -22.4541   25.5159 H   0  0  0  0  0  0
  -29.3136  -23.5704   24.8109 H   0  0  0  0  0  0
  -29.6038  -16.3910   23.6321 H   0  0  0  0  0  0
  -31.2158  -17.0642   23.7470 H   0  0  0  0  0  0
  -30.0568  -19.1031   23.9958 H   0  0  0  0  0  0
  -28.6115  -18.4435   23.2361 H   0  0  0  0  0  0
  -26.7384  -22.5588   23.3401 H   0  0  0  0  0  0
  -31.6919  -16.7434   21.5766 H   0  0  0  0  0  0
  -31.1542  -19.3786   21.8475 H   0  0  0  0  0  0
  -28.9136  -17.6686   20.6707 H   0  0  0  0  0  0
  -29.1588  -21.3489   23.1756 H   0  0  0  0  0  0
  -30.6629  -21.6037   22.3514 H   0  0  0  0  0  0
  -29.1665  -15.1445   21.7081 H   0  0  0  0  0  0
  -28.3340  -20.1020   21.3743 H   0  0  0  0  0  0
  -29.5882  -20.4932   20.4213 H   0  0  0  0  0  0
  -31.5868  -17.9144   19.8080 H   0  0  0  0  0  0
  1 25  1  0  0  0
  1 30  2  0  0  0
  1 86  1  0  0  0
  2  3  1  0  0  0
  2 25  1  0  0  0
  2 89  1  0  0  0
  2 90  1  0  0  0
  3  4  1  0  0  0
  3 91  1  0  0  0
  3 92  1  0  0  0
  4  5  1  0  0  0
  4 93  1  0  0  0
  4 94  1  0  0  0
  5  6  1  0  0  0
  5 26  1  0  0  0
  5 95  1  0  0  0
  6 25  1  0  0  0
  6 96  1  0  0  0
  6 97  1  0  0  0
  7  8  2  0  0  0
  7 26  1  0  0  0
  7 29  1  0  0  0
  8  9  1  0  0  0
  8 22  1  0  0  0
  9 10  1  0  0  0
  9 27  2  0  0  0
 10 11  2  0  0  0
 10 15  1  0  0  0
 11 12  1  0  0  0
 11 98  1  0  0  0
 12 13  2  0  0  0
 12 99  1  0  0  0
 13 14  1  0  0  0
 13 31  1  0  0  0
 14 15  2  0  0  0
 14100  1  0  0  0
 15101  1  0  0  0
 16 17  2  0  0  0
 16 21  1  0  0  0
 16 31  1  0  0  0
 17 18  1  0  0  0
 17102  1  0  0  0
 18 19  2  0  0  0
 18103  1  0  0  0
 19 20  1  0  0  0
 19 24  1  0  0  0
 20 21  2  0  0  0
 20104  1  0  0  0
 21 23  1  0  0  0
 22 28  1  0  0  0
 22 32  2  0  0  0
 26 27  1  0  0  0
 28105  1  0  0  0
 28106  1  0  0  0
 29107  1  0  0  0
 29108  1  0  0  0
 33 34  1  0  0  0
 33 66  1  0  0  0
 33 70  2  0  0  0
 34 36  1  0  0  0
 34 59  1  0  0  0
 34109  1  0  0  0
 35 44  2  0  0  0
 35 45  1  0  0  0
 35 68  1  0  0  0
 36 56  1  0  0  0
 36110  1  0  0  0
 37 39  1  0  0  0
 37 47  1  0  0  0
 37 66  1  0  0  0
 37111  1  0  0  0
 38 43  2  0  0  0
 38 46  1  0  0  0
 38 47  1  0  0  0
 39 64  1  0  0  0
 39 67  2  0  0  0
 40 52  1  0  0  0
 40 53  2  0  0  0
 40 58  1  0  0  0
 41112  1  0  0  0
 41113  1  0  0  0
 41114  1  0  0  0
 41 48  1  0  0  0
 42 43  1  0  0  0
 42 66  1  0  0  0
 42115  1  0  0  0
 42116  1  0  0  0
 43 44  1  0  0  0
 44117  1  0  0  0
 45 46  2  0  0  0
 45118  1  0  0  0
 46119  1  0  0  0
 47120  1  0  0  0
 47121  1  0  0  0
 48 56  1  0  0  0
 48 65  1  0  0  0
 48122  1  0  0  0
 49 50  1  0  0  0
 49 53  1  0  0  0
 49 64  1  0  0  0
 49123  1  0  0  0
 50 51  1  0  0  0
 50124  1  0  0  0
 50125  1  0  0  0
 51 52  1  0  0  0
 51126  1  0  0  0
 51127  1  0  0  0
 52128  1  0  0  0
 52129  1  0  0  0
 53 54  1  0  0  0
 54 55  2  0  0  0
 54130  1  0  0  0
 55 57  1  0  0  0
 55131  1  0  0  0
 56 69  2  0  0  0
 57 58  2  0  0  0
 57132  1  0  0  0
 58133  1  0  0  0
 59 60  1  0  0  0
 59 61  1  0  0  0
 59 62  1  0  0  0
 60134  1  0  0  0
 60135  1  0  0  0
 60136  1  0  0  0
 61137  1  0  0  0
 61138  1  0  0  0
 61139  1  0  0  0
 62140  1  0  0  0
 62141  1  0  0  0
 62142  1  0  0  0
 63 65  1  0  0  0
 63143  1  0  0  0
 63144  1  0  0  0
 63145  1  0  0  0
 64146  1  0  0  0
 65147  1  0  0  0
 68 76  1  0  0  0
 71 72  2  0  0  0
 71 75  1  0  0  0
 71148  1  0  0  0
 72 76  1  0  0  0
 72149  1  0  0  0
 73 74  1  0  0  0
 73 76  2  0  0  0
 73150  1  0  0  0
 74 75  2  0  0  0
 74 81  1  0  0  0
 75 85  1  0  0  0
 77 78  1  0  0  0
 77 81  1  0  0  0
 77151  1  0  0  0
 77152  1  0  0  0
 78 81  1  0  0  0
 78153  1  0  0  0
 78154  1  0  0  0
 79 80  1  0  0  0
 79 82  1  0  0  0
 79155  1  0  0  0
 79156  1  0  0  0
 80 83  1  0  0  0
 80157  1  0  0  0
 80158  1  0  0  0
 81159  1  0  0  0
 82 84  1  0  0  0
 82 86  1  0  0  0
 82160  1  0  0  0
 83 84  1  0  0  0
 83 87  1  0  0  0
 83161  1  0  0  0
 84 88  1  0  0  0
 84162  1  0  0  0
 85 87  1  0  0  0
 85163  1  0  0  0
 85164  1  0  0  0
 86165  1  0  0  0
 87166  1  0  0  0
 87167  1  0  0  0
 88168  1  0  0  0
M  CHG  1  87   1
M  ISO  4   1 100  68 101  76 101  86 100
M  END
> <chiral flag>
0

> <version>
0

> <s_m_source_file>
/data/baiqing/PycharmProjects/Reinvent-master-3.2/result/LINK_invent/BTK/process_docking_weight1_custom_sum_contain_oxygen_bond_distance_aromatic_linkinvent_7_9_3/rearranged_h_0135.sdf

> <i_m_source_file_index>
52

> <r_mmod_Potential_Energy-OPLS-2005>
-293.126495361328

> <r_mmod_Stretch_Energy-OPLS-2005>
38.29931640625

> <r_mmod_Bend_Energy-OPLS-2005>
126.718101501465

> <r_mmod_Torsional_Energy-OPLS-2005>
272.416809082031

> <r_mmod_Improper_Torsional_Energy-OPLS-2005>
2.96343851089478

> <r_mmod_Van_der_Waal_Energy-OPLS-2005>
141.64729309082

> <r_mmod_Electrostatic_Energy-OPLS-2005>
-412.058654785156

> <r_mmod_Solvation_Energy-OPLS-2005>
-473.244598388672

> <b_mmod_Minimization_Converged-OPLS-2005>
0

> <r_mmod_RMS_Derivative-OPLS-2005>
1.13916504383087

$$$$
52
                    3D
 Structure written by MMmdl.
162171  0  0  1  0            999 V2000
  -30.7745  -14.4546   20.6945 C   0  0  0  0  0  0
  -30.4143  -12.3412   19.4365 C   0  0  0  0  0  0
  -29.4956  -12.5335   18.2135 C   0  0  0  0  0  0
  -28.0200  -12.3672   18.6151 C   0  0  0  0  0  0
  -27.6573  -13.2117   19.8606 C   0  0  2  0  0  0
  -28.6848  -13.0122   20.9907 C   0  0  0  0  0  0
  -25.2569  -13.8167   20.5645 C   0  0  0  0  0  0
  -24.1829  -13.0436   20.9150 C   0  0  0  0  0  0
  -24.6390  -11.6907   20.8701 C   0  0  0  0  0  0
  -23.9059  -10.4292   21.0390 C   0  0  0  0  0  0
  -24.3613   -9.4214   21.9174 C   0  0  0  0  0  0
  -23.6291   -8.2249   22.0751 C   0  0  0  0  0  0
  -22.4274   -8.0279   21.3542 C   0  0  0  0  0  0
  -21.9904   -9.0251   20.4645 C   0  0  0  0  0  0
  -22.7229  -10.2130   20.3047 C   0  0  0  0  0  0
  -21.6857   -6.0734   22.5278 C   0  0  0  0  0  0
  -21.4017   -6.5638   23.8210 C   0  0  0  0  0  0
  -21.3659   -5.6793   24.9172 C   0  0  0  0  0  0
  -21.6044   -4.3056   24.7226 C   0  0  0  0  0  0
  -21.8820   -3.8146   23.4348 C   0  0  0  0  0  0
  -21.9194   -4.6961   22.3402 C   0  0  0  0  0  0
  -22.7857  -13.5232   21.1846 C   0  0  0  0  0  0
  -22.1662   -4.2146   21.0982 F   0  0  0  0  0  0
  -21.5626   -3.4541   25.7739 F   0  0  0  0  0  0
  -30.0361  -13.3173   20.4811 N   0  0  0  0  0  0
  -26.2989  -12.9345   20.3246 N   0  0  0  0  0  0
  -25.9308  -11.6500   20.5684 N   0  0  0  0  0  0
  -22.0514  -12.8213   22.0407 N   0  0  0  0  0  0
  -25.4305  -15.1889   20.4115 N   0  0  0  0  0  0
  -31.7490  -14.7130   19.9789 O   0  0  0  0  0  0
  -21.6642   -6.8874   21.4239 O   0  0  0  0  0  0
  -22.3536  -14.5546   20.6714 O   0  0  0  0  0  0
  -24.6176  -31.8654   23.2067 C   0  0  0  0  0  0
  -25.9059  -32.4807   23.8372 C   0  0  1  0  0  0
  -27.2323  -27.4021   20.1118 C   0  0  0  0  0  0
  -25.5900  -33.8604   24.2310 N   0  0  0  0  0  0
  -23.4073  -30.4876   21.5472 C   0  0  2  0  0  0
  -24.8543  -28.9457   20.1171 C   0  0  0  0  0  0
  -22.7424  -29.4651   22.4973 C   0  0  0  0  0  0
  -18.0274  -28.1376   22.8492 C   0  0  0  0  0  0
  -24.1489  -36.7310   23.2638 C   0  0  0  0  0  0
  -25.9379  -30.8237   21.3616 C   0  0  0  0  0  0
  -26.0168  -29.4543   20.7111 C   0  0  0  0  0  0
  -27.2117  -28.6935   20.6970 C   0  0  0  0  0  0
  -26.0533  -26.9132   19.5116 C   0  0  0  0  0  0
  -24.8692  -27.6761   19.5124 C   0  0  0  0  0  0
  -23.6176  -29.8162   20.1637 C   0  0  0  0  0  0
  -25.4111  -36.3101   24.0334 C   0  0  1  0  0  0
  -20.5867  -28.3670   23.1308 C   0  0  2  0  0  0
  -20.6766  -26.9402   22.5417 C   0  0  0  0  0  0
  -19.5746  -26.6386   21.5212 C   0  0  0  0  0  0
  -18.1922  -26.7922   22.1620 C   0  0  0  0  0  0
  -19.1524  -28.8837   23.2899 C   0  0  0  0  0  0
  -18.9452  -30.1442   23.8912 C   0  0  0  0  0  0
  -17.6456  -30.6586   24.0559 C   0  0  0  0  0  0
  -25.9039  -34.9466   23.5123 C   0  0  0  0  0  0
  -16.5347  -29.9086   23.6328 C   0  0  0  0  0  0
  -16.7264  -28.6501   23.0354 C   0  0  0  0  0  0
  -26.4478  -31.6589   25.0711 C   0  0  0  0  0  0
  -25.3739  -31.3686   26.1456 C   0  0  0  0  0  0
  -27.0315  -30.3032   24.6094 C   0  0  0  0  0  0
  -27.6060  -32.4303   25.7476 C   0  0  0  0  0  0
  -27.5577  -37.1810   24.8465 C   0  0  0  0  0  0
  -21.4147  -29.3037   22.3713 N   0  0  0  0  0  0
  -26.4295  -37.3786   23.9408 N   0  0  0  0  0  0
  -24.6728  -31.0737   22.0971 N   0  0  0  0  0  0
  -23.4184  -28.8200   23.3029 O   0  0  0  0  0  0
  -28.3869  -26.6410   20.0996 O   0  0  0  0  0  0
  -26.5604  -34.8919   22.4686 O   0  0  0  0  0  0
  -23.5363  -32.1411   23.7452 O   0  0  0  0  0  0
  -30.8619  -20.0905   20.1564 C   0  0  0  0  0  0
  -31.3648  -18.8636   20.6356 C   0  0  0  0  0  0
  -28.6563  -19.2440   20.6005 C   0  0  0  0  0  0
  -29.4700  -20.3134   20.1512 C   0  0  0  0  0  0
  -30.4805  -17.8652   21.0921 C   0  0  0  0  0  0
  -31.0830  -15.5887   24.0134 C   0  0  0  0  0  0
  -31.1012  -16.9522   23.3574 C   0  0  0  0  0  0
  -30.1959  -14.7830   23.0721 C   0  0  0  0  0  0
  -31.0544  -16.6505   21.8526 C   0  0  1  0  0  0
  -28.8817  -21.6177   19.5569 C   0  0  0  0  0  0
  -28.5790  -24.1264   19.7578 C   0  0  0  0  0  0
  -28.3179  -25.3298   20.7191 C   0  0  0  0  0  0
  -29.1397  -18.0577   21.0662 N   0  0  0  0  0  0
  -30.4224  -15.3020   21.7083 N   0  0  0  0  0  0
  -28.8342  -22.8157   20.4528 N   0  3  0  0  0  0
  -31.4605  -12.4286   19.1381 H   0  0  0  0  0  0
  -30.3115  -11.3280   19.8285 H   0  0  0  0  0  0
  -29.7517  -11.8170   17.4319 H   0  0  0  0  0  0
  -29.6528  -13.5248   17.7855 H   0  0  0  0  0  0
  -27.8451  -11.3100   18.8189 H   0  0  0  0  0  0
  -27.3687  -12.6283   17.7803 H   0  0  0  0  0  0
  -27.6988  -14.2588   19.5585 H   0  0  0  0  0  0
  -28.6580  -11.9863   21.3612 H   0  0  0  0  0  0
  -28.3698  -13.6328   21.8220 H   0  0  0  0  0  0
  -25.2761   -9.5696   22.4743 H   0  0  0  0  0  0
  -24.0004   -7.4644   22.7473 H   0  0  0  0  0  0
  -21.0834   -8.8764   19.8955 H   0  0  0  0  0  0
  -22.3684  -10.9663   19.6151 H   0  0  0  0  0  0
  -21.2013   -7.6148   23.9710 H   0  0  0  0  0  0
  -21.1480   -6.0526   25.9074 H   0  0  0  0  0  0
  -22.0599   -2.7609   23.2851 H   0  0  0  0  0  0
  -22.4136  -11.9861   22.4764 H   0  0  0  0  0  0
  -21.1137  -13.1234   22.2639 H   0  0  0  0  0  0
  -24.6727  -15.8504   20.5409 H   0  0  0  0  0  0
  -26.3004  -15.6307   20.1394 H   0  0  0  0  0  0
  -26.7133  -32.5514   23.1137 H   0  0  0  0  0  0
  -25.0064  -33.9759   25.0462 H   0  0  0  0  0  0
  -22.6975  -31.3051   21.4048 H   0  0  0  0  0  0
  -23.3742  -35.9650   23.3319 H   0  0  0  0  0  0
  -24.3583  -36.8912   22.2049 H   0  0  0  0  0  0
  -23.7253  -37.6523   23.6649 H   0  0  0  0  0  0
  -26.0506  -31.5874   20.5908 H   0  0  0  0  0  0
  -26.8252  -30.8807   21.9804 H   0  0  0  0  0  0
  -28.1110  -29.0849   21.1526 H   0  0  0  0  0  0
  -26.0480  -25.9413   19.0396 H   0  0  0  0  0  0
  -23.9756  -27.2790   19.0506 H   0  0  0  0  0  0
  -23.7278  -30.5885   19.4015 H   0  0  0  0  0  0
  -22.7413  -29.2367   19.8685 H   0  0  0  0  0  0
  -25.1289  -36.1963   25.0827 H   0  0  0  0  0  0
  -20.9959  -28.3237   24.1429 H   0  0  0  0  0  0
  -20.5672  -26.2275   23.3607 H   0  0  0  0  0  0
  -21.6637  -26.7449   22.1207 H   0  0  0  0  0  0
  -19.6911  -25.6302   21.1231 H   0  0  0  0  0  0
  -19.6684  -27.3207   20.6749 H   0  0  0  0  0  0
  -17.4194  -26.6676   21.4017 H   0  0  0  0  0  0
  -18.0320  -26.0057   22.9010 H   0  0  0  0  0  0
  -19.7930  -30.7249   24.2289 H   0  0  0  0  0  0
  -17.5015  -31.6270   24.5157 H   0  0  0  0  0  0
  -15.5349  -30.2992   23.7648 H   0  0  0  0  0  0
  -15.8665  -28.0825   22.7068 H   0  0  0  0  0  0
  -24.5931  -30.7011   25.7789 H   0  0  0  0  0  0
  -24.8905  -32.2831   26.4897 H   0  0  0  0  0  0
  -25.8092  -30.8864   27.0218 H   0  0  0  0  0  0
  -26.2865  -29.6781   24.1159 H   0  0  0  0  0  0
  -27.4101  -29.7276   25.4550 H   0  0  0  0  0  0
  -27.8686  -30.4354   23.9236 H   0  0  0  0  0  0
  -27.2699  -33.3608   26.2062 H   0  0  0  0  0  0
  -28.3867  -32.6849   25.0296 H   0  0  0  0  0  0
  -28.0727  -31.8410   26.5381 H   0  0  0  0  0  0
  -28.2604  -38.0096   24.7506 H   0  0  0  0  0  0
  -28.1063  -36.2630   24.6307 H   0  0  0  0  0  0
  -27.2292  -37.1481   25.8866 H   0  0  0  0  0  0
  -20.9311  -29.8756   21.6931 H   0  0  0  0  0  0
  -26.0181  -38.2865   24.1394 H   0  0  0  0  0  0
  -31.5437  -20.8518   19.8040 H   0  0  0  0  0  0
  -32.4343  -18.7117   20.6884 H   0  0  0  0  0  0
  -27.5802  -19.3374   20.5863 H   0  0  0  0  0  0
  -30.7066  -15.6135   25.0372 H   0  0  0  0  0  0
  -32.0902  -15.1686   24.0347 H   0  0  0  0  0  0
  -31.9616  -17.5594   23.6411 H   0  0  0  0  0  0
  -30.2042  -17.4965   23.6577 H   0  0  0  0  0  0
  -29.1535  -14.9521   23.3447 H   0  0  0  0  0  0
  -30.4015  -13.7151   23.1762 H   0  0  0  0  0  0
  -32.0976  -16.5558   21.5446 H   0  0  0  0  0  0
  -27.8756  -21.4174   19.1859 H   0  0  0  0  0  0
  -29.4752  -21.8686   18.6763 H   0  0  0  0  0  0
  -29.4446  -24.3538   19.1342 H   0  0  0  0  0  0
  -27.7302  -24.0222   19.0813 H   0  0  0  0  0  0
  -29.0811  -25.3259   21.4979 H   0  0  0  0  0  0
  -27.3714  -25.1862   21.2434 H   0  0  0  0  0  0
  -29.7119  -22.8851   20.9437 H   0  0  0  0  0  0
  -28.1159  -22.6597   21.1430 H   0  0  0  0  0  0
  1 25  1  0  0  0
  1 30  2  0  0  0
  1 84  1  0  0  0
  2  3  1  0  0  0
  2 25  1  0  0  0
  2 86  1  0  0  0
  2 87  1  0  0  0
  3  4  1  0  0  0
  3 88  1  0  0  0
  3 89  1  0  0  0
  4  5  1  0  0  0
  4 90  1  0  0  0
  4 91  1  0  0  0
  5  6  1  0  0  0
  5 26  1  0  0  0
  5 92  1  0  0  0
  6 25  1  0  0  0
  6 93  1  0  0  0
  6 94  1  0  0  0
  7  8  2  0  0  0
  7 26  1  0  0  0
  7 29  1  0  0  0
  8  9  1  0  0  0
  8 22  1  0  0  0
  9 10  1  0  0  0
  9 27  2  0  0  0
 10 11  2  0  0  0
 10 15  1  0  0  0
 11 12  1  0  0  0
 11 95  1  0  0  0
 12 13  2  0  0  0
 12 96  1  0  0  0
 13 14  1  0  0  0
 13 31  1  0  0  0
 14 15  2  0  0  0
 14 97  1  0  0  0
 15 98  1  0  0  0
 16 17  2  0  0  0
 16 21  1  0  0  0
 16 31  1  0  0  0
 17 18  1  0  0  0
 17 99  1  0  0  0
 18 19  2  0  0  0
 18100  1  0  0  0
 19 20  1  0  0  0
 19 24  1  0  0  0
 20 21  2  0  0  0
 20101  1  0  0  0
 21 23  1  0  0  0
 22 28  1  0  0  0
 22 32  2  0  0  0
 26 27  1  0  0  0
 28102  1  0  0  0
 28103  1  0  0  0
 29104  1  0  0  0
 29105  1  0  0  0
 33 34  1  0  0  0
 33 66  1  0  0  0
 33 70  2  0  0  0
 34 36  1  0  0  0
 34 59  1  0  0  0
 34106  1  0  0  0
 35 44  2  0  0  0
 35 45  1  0  0  0
 35 68  1  0  0  0
 36 56  1  0  0  0
 36107  1  0  0  0
 37 39  1  0  0  0
 37 47  1  0  0  0
 37 66  1  0  0  0
 37108  1  0  0  0
 38 43  2  0  0  0
 38 46  1  0  0  0
 38 47  1  0  0  0
 39 64  1  0  0  0
 39 67  2  0  0  0
 40 52  1  0  0  0
 40 53  2  0  0  0
 40 58  1  0  0  0
 41109  1  0  0  0
 41110  1  0  0  0
 41111  1  0  0  0
 41 48  1  0  0  0
 42 43  1  0  0  0
 42 66  1  0  0  0
 42112  1  0  0  0
 42113  1  0  0  0
 43 44  1  0  0  0
 44114  1  0  0  0
 45 46  2  0  0  0
 45115  1  0  0  0
 46116  1  0  0  0
 47117  1  0  0  0
 47118  1  0  0  0
 48 56  1  0  0  0
 48 65  1  0  0  0
 48119  1  0  0  0
 49 50  1  0  0  0
 49 53  1  0  0  0
 49 64  1  0  0  0
 49120  1  0  0  0
 50 51  1  0  0  0
 50121  1  0  0  0
 50122  1  0  0  0
 51 52  1  0  0  0
 51123  1  0  0  0
 51124  1  0  0  0
 52125  1  0  0  0
 52126  1  0  0  0
 53 54  1  0  0  0
 54 55  2  0  0  0
 54127  1  0  0  0
 55 57  1  0  0  0
 55128  1  0  0  0
 56 69  2  0  0  0
 57 58  2  0  0  0
 57129  1  0  0  0
 58130  1  0  0  0
 59 60  1  0  0  0
 59 61  1  0  0  0
 59 62  1  0  0  0
 60131  1  0  0  0
 60132  1  0  0  0
 60133  1  0  0  0
 61134  1  0  0  0
 61135  1  0  0  0
 61136  1  0  0  0
 62137  1  0  0  0
 62138  1  0  0  0
 62139  1  0  0  0
 63 65  1  0  0  0
 63140  1  0  0  0
 63141  1  0  0  0
 63142  1  0  0  0
 64143  1  0  0  0
 65144  1  0  0  0
 68 82  1  0  0  0
 71 72  2  0  0  0
 71 74  1  0  0  0
 71145  1  0  0  0
 72 75  1  0  0  0
 72146  1  0  0  0
 73 74  2  0  0  0
 73 83  1  0  0  0
 73147  1  0  0  0
 74 80  1  0  0  0
 75 83  2  0  0  0
 75 79  1  0  0  0
 76 77  1  0  0  0
 76 78  1  0  0  0
 76148  1  0  0  0
 76149  1  0  0  0
 77 79  1  0  0  0
 77150  1  0  0  0
 77151  1  0  0  0
 78 84  1  0  0  0
 78152  1  0  0  0
 78153  1  0  0  0
 79 84  1  0  0  0
 79154  1  0  0  0
 80 85  1  0  0  0
 80155  1  0  0  0
 80156  1  0  0  0
 81 82  1  0  0  0
 81 85  1  0  0  0
 81157  1  0  0  0
 81158  1  0  0  0
 82159  1  0  0  0
 82160  1  0  0  0
 85161  1  0  0  0
 85162  1  0  0  0
M  CHG  1  85   1
M  ISO  4   1 100  68 101  82 101  84 100
M  END
> <chiral flag>
0

> <version>
0

> <s_m_source_file>
/data/baiqing/PycharmProjects/Reinvent-master-3.2/result/LINK_invent/BTK/process_docking_weight1_custom_sum_contain_oxygen_bond_distance_aromatic_linkinvent_7_9_3/rearranged_h_0135.sdf

> <i_m_source_file_index>
53

> <r_mmod_Potential_Energy-OPLS-2005>
-163.458160400391

> <r_mmod_Stretch_Energy-OPLS-2005>
52.1654052734375

> <r_mmod_Bend_Energy-OPLS-2005>
137.065689086914

> <r_mmod_Torsional_Energy-OPLS-2005>
305.093658447266

> <r_mmod_Improper_Torsional_Energy-OPLS-2005>
6.60588836669922

> <r_mmod_Van_der_Waal_Energy-OPLS-2005>
149.486404418945

> <r_mmod_Electrostatic_Energy-OPLS-2005>
-380.485687255859

> <r_mmod_Solvation_Energy-OPLS-2005>
-448.421936035156

> <b_mmod_Minimization_Converged-OPLS-2005>
0

> <r_mmod_RMS_Derivative-OPLS-2005>
0.745439827442169

$$$$
53
                    3D
 Structure written by MMmdl.
170179  0  0  1  0            999 V2000
  -30.6664  -14.6049   20.4787 C   0  0  0  0  0  0
  -30.4178  -12.3653   19.4530 C   0  0  0  0  0  0
  -29.4977  -12.4848   18.2209 C   0  0  0  0  0  0
  -28.0211  -12.3385   18.6357 C   0  0  0  0  0  0
  -27.6466  -13.2233   19.8562 C   0  0  2  0  0  0
  -28.6910  -13.1096   20.9874 C   0  0  0  0  0  0
  -25.2537  -13.8198   20.5697 C   0  0  0  0  0  0
  -24.1806  -13.0449   20.9180 C   0  0  0  0  0  0
  -24.6384  -11.6923   20.8743 C   0  0  0  0  0  0
  -23.9064  -10.4294   21.0405 C   0  0  0  0  0  0
  -24.3612   -9.4208   21.9186 C   0  0  0  0  0  0
  -23.6285   -8.2244   22.0760 C   0  0  0  0  0  0
  -22.4274   -8.0276   21.3540 C   0  0  0  0  0  0
  -21.9910   -9.0251   20.4642 C   0  0  0  0  0  0
  -22.7235  -10.2136   20.3053 C   0  0  0  0  0  0
  -21.6850   -6.0733   22.5276 C   0  0  0  0  0  0
  -21.4016   -6.5637   23.8210 C   0  0  0  0  0  0
  -21.3656   -5.6793   24.9173 C   0  0  0  0  0  0
  -21.6049   -4.3057   24.7225 C   0  0  0  0  0  0
  -21.8818   -3.8148   23.4343 C   0  0  0  0  0  0
  -21.9191   -4.6963   22.3397 C   0  0  0  0  0  0
  -22.7830  -13.5234   21.1845 C   0  0  0  0  0  0
  -22.1658   -4.2149   21.0974 F   0  0  0  0  0  0
  -21.5628   -3.4540   25.7735 F   0  0  0  0  0  0
  -30.0023  -13.4123   20.4045 N   0  0  0  0  0  0
  -26.2958  -12.9389   20.3315 N   0  0  0  0  0  0
  -25.9313  -11.6537   20.5770 N   0  0  0  0  0  0
  -22.0479  -12.8211   22.0396 N   0  0  0  0  0  0
  -25.4273  -15.1916   20.4140 N   0  0  0  0  0  0
  -31.8588  -14.6863   20.1665 O   0  0  0  0  0  0
  -21.6633   -6.8876   21.4237 O   0  0  0  0  0  0
  -22.3507  -14.5539   20.6697 O   0  0  0  0  0  0
  -24.6243  -31.8617   23.2038 C   0  0  0  0  0  0
  -25.9108  -32.4780   23.8354 C   0  0  1  0  0  0
  -27.2258  -27.3438   20.0935 C   0  0  0  0  0  0
  -25.5935  -33.8583   24.2274 N   0  0  0  0  0  0
  -23.4149  -30.4865   21.5462 C   0  0  2  0  0  0
  -24.8583  -28.9438   20.1099 C   0  0  0  0  0  0
  -22.7449  -29.4647   22.4952 C   0  0  0  0  0  0
  -18.0276  -28.1396   22.8500 C   0  0  0  0  0  0
  -24.1488  -36.7286   23.2640 C   0  0  0  0  0  0
  -25.9543  -30.7983   21.3706 C   0  0  0  0  0  0
  -26.0263  -29.4279   20.7109 C   0  0  0  0  0  0
  -27.2089  -28.6356   20.7000 C   0  0  0  0  0  0
  -26.0234  -26.8936   19.5001 C   0  0  0  0  0  0
  -24.8569  -27.6798   19.5012 C   0  0  0  0  0  0
  -23.6256  -29.8211   20.1608 C   0  0  0  0  0  0
  -25.4115  -36.3076   24.0322 C   0  0  1  0  0  0
  -20.5875  -28.3696   23.1296 C   0  0  2  0  0  0
  -20.6766  -26.9423   22.5412 C   0  0  0  0  0  0
  -19.5737  -26.6398   21.5218 C   0  0  0  0  0  0
  -18.1917  -26.7942   22.1626 C   0  0  0  0  0  0
  -19.1529  -28.8863   23.2892 C   0  0  0  0  0  0
  -18.9452  -30.1466   23.8902 C   0  0  0  0  0  0
  -17.6454  -30.6601   24.0573 C   0  0  0  0  0  0
  -25.9055  -34.9453   23.5092 C   0  0  0  0  0  0
  -16.5344  -29.9098   23.6344 C   0  0  0  0  0  0
  -16.7262  -28.6515   23.0364 C   0  0  0  0  0  0
  -26.4502  -31.6596   25.0725 C   0  0  0  0  0  0
  -25.3748  -31.3727   26.1460 C   0  0  0  0  0  0
  -27.0354  -30.3024   24.6185 C   0  0  0  0  0  0
  -27.6060  -32.4337   25.7493 C   0  0  0  0  0  0
  -27.5577  -37.1791   24.8461 C   0  0  0  0  0  0
  -21.4168  -29.3052   22.3687 N   0  0  0  0  0  0
  -26.4284  -37.3778   23.9415 N   0  0  0  0  0  0
  -24.6833  -31.0655   22.0968 N   0  0  0  0  0  0
  -23.4182  -28.8192   23.3026 O   0  0  0  0  0  0
  -28.3693  -26.5385   20.1452 O   0  0  0  0  0  0
  -26.5618  -34.8921   22.4657 O   0  0  0  0  0  0
  -23.5414  -32.1410   23.7381 O   0  0  0  0  0  0
  -27.7244  -22.9919   19.8835 C   0  0  0  0  0  0
  -27.9814  -21.6167   20.1677 C   0  0  0  0  0  0
  -30.0682  -23.4695   20.0710 C   0  0  0  0  0  0
  -28.7648  -23.9519   19.8101 C   0  0  0  0  0  0
  -30.3410  -22.0961   20.3503 C   0  0  0  0  0  0
  -29.2990  -21.1203   20.3892 C   0  0  0  0  0  0
  -28.8988  -17.7686   19.3172 C   0  0  0  0  0  0
  -28.8523  -17.6974   21.8165 C   0  0  0  0  0  0
  -30.0226  -16.6893   19.3883 C   0  0  0  0  0  0
  -29.9547  -16.5877   21.7563 C   0  0  0  0  0  0
  -28.7348  -18.6440   20.5856 C   0  0  0  0  0  0
  -31.7581  -22.3127   23.0574 C   0  0  0  0  0  0
  -32.5969  -21.8088   19.2509 C   0  0  0  0  0  0
  -28.5422  -25.3950   19.2431 C   0  0  0  0  0  0
  -32.4843  -22.4481   21.7112 C   0  0  0  0  0  0
  -31.8006  -21.6805   20.5592 C   0  0  1  0  0  0
  -29.9063  -15.7535   20.5355 N   0  0  0  0  0  0
  -29.6523  -19.7752   20.6380 O   0  0  0  0  0  0
  -31.4634  -12.4599   19.1540 H   0  0  0  0  0  0
  -30.3247  -11.3800   19.9121 H   0  0  0  0  0  0
  -29.7540  -11.7233   17.4829 H   0  0  0  0  0  0
  -29.6504  -13.4488   17.7336 H   0  0  0  0  0  0
  -27.8517  -11.2883   18.8768 H   0  0  0  0  0  0
  -27.3673  -12.5634   17.7925 H   0  0  0  0  0  0
  -27.6580  -14.2540   19.5012 H   0  0  0  0  0  0
  -28.6899  -12.1079   21.4205 H   0  0  0  0  0  0
  -28.4546  -13.7986   21.8005 H   0  0  0  0  0  0
  -25.2757   -9.5688   22.4763 H   0  0  0  0  0  0
  -23.9992   -7.4640   22.7492 H   0  0  0  0  0  0
  -21.0843   -8.8763   19.8946 H   0  0  0  0  0  0
  -22.3684  -10.9672   19.6163 H   0  0  0  0  0  0
  -21.2012   -7.6148   23.9706 H   0  0  0  0  0  0
  -21.1480   -6.0529   25.9075 H   0  0  0  0  0  0
  -22.0602   -2.7613   23.2841 H   0  0  0  0  0  0
  -22.4101  -11.9865   22.4759 H   0  0  0  0  0  0
  -21.1102  -13.1234   22.2627 H   0  0  0  0  0  0
  -24.6694  -15.8541   20.5367 H   0  0  0  0  0  0
  -26.2952  -15.6262   20.1282 H   0  0  0  0  0  0
  -26.7176  -32.5461   23.1107 H   0  0  0  0  0  0
  -25.0102  -33.9739   25.0430 H   0  0  0  0  0  0
  -22.7079  -31.3070   21.4045 H   0  0  0  0  0  0
  -23.3760  -35.9606   23.3286 H   0  0  0  0  0  0
  -24.3573  -36.8938   22.2057 H   0  0  0  0  0  0
  -23.7234  -37.6474   23.6686 H   0  0  0  0  0  0
  -26.0850  -31.5641   20.6047 H   0  0  0  0  0  0
  -26.8344  -30.8434   22.0003 H   0  0  0  0  0  0
  -28.1076  -29.0048   21.1747 H   0  0  0  0  0  0
  -25.9354  -25.9128   19.0610 H   0  0  0  0  0  0
  -23.9552  -27.2944   19.0454 H   0  0  0  0  0  0
  -23.7395  -30.5966   19.4025 H   0  0  0  0  0  0
  -22.7459  -29.2472   19.8640 H   0  0  0  0  0  0
  -25.1296  -36.1914   25.0813 H   0  0  0  0  0  0
  -20.9967  -28.3275   24.1417 H   0  0  0  0  0  0
  -20.5684  -26.2304   23.3607 H   0  0  0  0  0  0
  -21.6634  -26.7465   22.1203 H   0  0  0  0  0  0
  -19.6899  -25.6312   21.1247 H   0  0  0  0  0  0
  -19.6676  -27.3209   20.6747 H   0  0  0  0  0  0
  -17.4189  -26.6709   21.4022 H   0  0  0  0  0  0
  -18.0295  -26.0080   22.9015 H   0  0  0  0  0  0
  -19.7929  -30.7281   24.2269 H   0  0  0  0  0  0
  -17.5013  -31.6285   24.5173 H   0  0  0  0  0  0
  -15.5344  -30.2998   23.7678 H   0  0  0  0  0  0
  -15.8664  -28.0836   22.7079 H   0  0  0  0  0  0
  -24.5897  -30.7110   25.7785 H   0  0  0  0  0  0
  -24.8974  -32.2893   26.4929 H   0  0  0  0  0  0
  -25.8084  -30.8864   27.0208 H   0  0  0  0  0  0
  -26.2921  -29.6752   24.1247 H   0  0  0  0  0  0
  -27.4091  -29.7313   25.4696 H   0  0  0  0  0  0
  -27.8773  -30.4313   23.9381 H   0  0  0  0  0  0
  -27.2679  -33.3664   26.2021 H   0  0  0  0  0  0
  -28.3891  -32.6851   25.0329 H   0  0  0  0  0  0
  -28.0697  -31.8492   26.5450 H   0  0  0  0  0  0
  -28.2574  -38.0107   24.7542 H   0  0  0  0  0  0
  -28.1095  -36.2641   24.6248 H   0  0  0  0  0  0
  -27.2298  -37.1399   25.8863 H   0  0  0  0  0  0
  -20.9328  -29.8771   21.6905 H   0  0  0  0  0  0
  -26.0159  -38.2842   24.1446 H   0  0  0  0  0  0
  -26.7108  -23.2987   19.6662 H   0  0  0  0  0  0
  -27.1279  -20.9575   20.1832 H   0  0  0  0  0  0
  -30.8924  -24.1638   19.9953 H   0  0  0  0  0  0
  -27.9565  -17.2487   19.1389 H   0  0  0  0  0  0
  -29.0465  -18.4082   18.4466 H   0  0  0  0  0  0
  -28.9720  -18.2930   22.7219 H   0  0  0  0  0  0
  -27.8936  -17.1892   21.9331 H   0  0  0  0  0  0
  -30.9959  -17.1835   19.4179 H   0  0  0  0  0  0
  -30.0083  -16.1174   18.4578 H   0  0  0  0  0  0
  -29.8563  -15.9452   22.6331 H   0  0  0  0  0  0
  -30.9393  -17.0528   21.8340 H   0  0  0  0  0  0
  -27.7154  -19.0194   20.5954 H   0  0  0  0  0  0
  -32.3118  -22.8195   23.8481 H   0  0  0  0  0  0
  -31.6521  -21.2658   23.3444 H   0  0  0  0  0  0
  -30.7608  -22.7524   23.0215 H   0  0  0  0  0  0
  -32.1477  -21.2043   18.4625 H   0  0  0  0  0  0
  -33.6246  -21.4686   19.3790 H   0  0  0  0  0  0
  -32.6332  -22.8395   18.8977 H   0  0  0  0  0  0
  -27.8065  -25.3443   18.4441 H   0  0  0  0  0  0
  -29.4547  -25.6313   18.6951 H   0  0  0  0  0  0
  -33.5054  -22.0813   21.8272 H   0  0  0  0  0  0
  -32.5767  -23.5054   21.4607 H   0  0  0  0  0  0
  -31.8374  -20.6270   20.8361 H   0  0  0  0  0  0
  1 25  1  0  0  0
  1 30  2  0  0  0
  1 87  1  0  0  0
  2  3  1  0  0  0
  2 25  1  0  0  0
  2 89  1  0  0  0
  2 90  1  0  0  0
  3  4  1  0  0  0
  3 91  1  0  0  0
  3 92  1  0  0  0
  4  5  1  0  0  0
  4 93  1  0  0  0
  4 94  1  0  0  0
  5  6  1  0  0  0
  5 26  1  0  0  0
  5 95  1  0  0  0
  6 25  1  0  0  0
  6 96  1  0  0  0
  6 97  1  0  0  0
  7  8  2  0  0  0
  7 26  1  0  0  0
  7 29  1  0  0  0
  8  9  1  0  0  0
  8 22  1  0  0  0
  9 10  1  0  0  0
  9 27  2  0  0  0
 10 11  2  0  0  0
 10 15  1  0  0  0
 11 12  1  0  0  0
 11 98  1  0  0  0
 12 13  2  0  0  0
 12 99  1  0  0  0
 13 14  1  0  0  0
 13 31  1  0  0  0
 14 15  2  0  0  0
 14100  1  0  0  0
 15101  1  0  0  0
 16 17  2  0  0  0
 16 21  1  0  0  0
 16 31  1  0  0  0
 17 18  1  0  0  0
 17102  1  0  0  0
 18 19  2  0  0  0
 18103  1  0  0  0
 19 20  1  0  0  0
 19 24  1  0  0  0
 20 21  2  0  0  0
 20104  1  0  0  0
 21 23  1  0  0  0
 22 28  1  0  0  0
 22 32  2  0  0  0
 26 27  1  0  0  0
 28105  1  0  0  0
 28106  1  0  0  0
 29107  1  0  0  0
 29108  1  0  0  0
 33 34  1  0  0  0
 33 66  1  0  0  0
 33 70  2  0  0  0
 34 36  1  0  0  0
 34 59  1  0  0  0
 34109  1  0  0  0
 35 44  2  0  0  0
 35 45  1  0  0  0
 35 68  1  0  0  0
 36 56  1  0  0  0
 36110  1  0  0  0
 37 39  1  0  0  0
 37 47  1  0  0  0
 37 66  1  0  0  0
 37111  1  0  0  0
 38 43  2  0  0  0
 38 46  1  0  0  0
 38 47  1  0  0  0
 39 64  1  0  0  0
 39 67  2  0  0  0
 40 52  1  0  0  0
 40 53  2  0  0  0
 40 58  1  0  0  0
 41112  1  0  0  0
 41113  1  0  0  0
 41114  1  0  0  0
 41 48  1  0  0  0
 42 43  1  0  0  0
 42 66  1  0  0  0
 42115  1  0  0  0
 42116  1  0  0  0
 43 44  1  0  0  0
 44117  1  0  0  0
 45 46  2  0  0  0
 45118  1  0  0  0
 46119  1  0  0  0
 47120  1  0  0  0
 47121  1  0  0  0
 48 56  1  0  0  0
 48 65  1  0  0  0
 48122  1  0  0  0
 49 50  1  0  0  0
 49 53  1  0  0  0
 49 64  1  0  0  0
 49123  1  0  0  0
 50 51  1  0  0  0
 50124  1  0  0  0
 50125  1  0  0  0
 51 52  1  0  0  0
 51126  1  0  0  0
 51127  1  0  0  0
 52128  1  0  0  0
 52129  1  0  0  0
 53 54  1  0  0  0
 54 55  2  0  0  0
 54130  1  0  0  0
 55 57  1  0  0  0
 55131  1  0  0  0
 56 69  2  0  0  0
 57 58  2  0  0  0
 57132  1  0  0  0
 58133  1  0  0  0
 59 60  1  0  0  0
 59 61  1  0  0  0
 59 62  1  0  0  0
 60134  1  0  0  0
 60135  1  0  0  0
 60136  1  0  0  0
 61137  1  0  0  0
 61138  1  0  0  0
 61139  1  0  0  0
 62140  1  0  0  0
 62141  1  0  0  0
 62142  1  0  0  0
 63 65  1  0  0  0
 63143  1  0  0  0
 63144  1  0  0  0
 63145  1  0  0  0
 64146  1  0  0  0
 65147  1  0  0  0
 68 84  1  0  0  0
 71 72  2  0  0  0
 71 74  1  0  0  0
 71148  1  0  0  0
 72 76  1  0  0  0
 72149  1  0  0  0
 73 74  2  0  0  0
 73 75  1  0  0  0
 73150  1  0  0  0
 74 84  1  0  0  0
 75 76  2  0  0  0
 75 86  1  0  0  0
 76 88  1  0  0  0
 77 79  1  0  0  0
 77 81  1  0  0  0
 77151  1  0  0  0
 77152  1  0  0  0
 78 80  1  0  0  0
 78 81  1  0  0  0
 78153  1  0  0  0
 78154  1  0  0  0
 79 87  1  0  0  0
 79155  1  0  0  0
 79156  1  0  0  0
 80 87  1  0  0  0
 80157  1  0  0  0
 80158  1  0  0  0
 81 88  1  0  0  0
 81159  1  0  0  0
 82 85  1  0  0  0
 82160  1  0  0  0
 82161  1  0  0  0
 82162  1  0  0  0
 83163  1  0  0  0
 83164  1  0  0  0
 83165  1  0  0  0
 83 86  1  0  0  0
 84166  1  0  0  0
 84167  1  0  0  0
 85 86  1  0  0  0
 85168  1  0  0  0
 85169  1  0  0  0
 86170  1  0  0  0
M  ISO  4   1 100  68 101  84 101  87 100
M  END
> <chiral flag>
0

> <version>
0

> <s_m_source_file>
/data/baiqing/PycharmProjects/Reinvent-master-3.2/result/LINK_invent/BTK/process_docking_weight1_custom_sum_contain_oxygen_bond_distance_aromatic_linkinvent_7_9_3/rearranged_h_0135.sdf

> <i_m_source_file_index>
54

> <r_mmod_Potential_Energy-OPLS-2005>
299.821929931641

> <r_mmod_Stretch_Energy-OPLS-2005>
69.7172622680664

> <r_mmod_Bend_Energy-OPLS-2005>
163.179275512695

> <r_mmod_Torsional_Energy-OPLS-2005>
341.009216308594

> <r_mmod_Improper_Torsional_Energy-OPLS-2005>
16.0464382171631

> <r_mmod_Van_der_Waal_Energy-OPLS-2005>
146.35417175293

> <r_mmod_Electrostatic_Energy-OPLS-2005>
-288.291778564453

> <r_mmod_Solvation_Energy-OPLS-2005>
-189.344085693359

> <b_mmod_Minimization_Converged-OPLS-2005>
0

> <r_mmod_RMS_Derivative-OPLS-2005>
1.01361131668091

$$$$
54
                    3D
 Structure written by MMmdl.
161170  0  0  1  0            999 V2000
  -30.6630  -14.6488   20.4536 C   0  0  0  0  0  0
  -30.4202  -12.3920   19.4669 C   0  0  0  0  0  0
  -29.5044  -12.4907   18.2287 C   0  0  0  0  0  0
  -28.0277  -12.3368   18.6402 C   0  0  0  0  0  0
  -27.6449  -13.2285   19.8521 C   0  0  2  0  0  0
  -28.6896  -13.1428   20.9876 C   0  0  0  0  0  0
  -25.2526  -13.8196   20.5680 C   0  0  0  0  0  0
  -24.1812  -13.0443   20.9197 C   0  0  0  0  0  0
  -24.6403  -11.6920   20.8745 C   0  0  0  0  0  0
  -23.9074  -10.4295   21.0402 C   0  0  0  0  0  0
  -24.3623   -9.4208   21.9181 C   0  0  0  0  0  0
  -23.6296   -8.2241   22.0750 C   0  0  0  0  0  0
  -22.4278   -8.0281   21.3542 C   0  0  0  0  0  0
  -21.9918   -9.0254   20.4641 C   0  0  0  0  0  0
  -22.7245  -10.2135   20.3052 C   0  0  0  0  0  0
  -21.6857   -6.0739   22.5274 C   0  0  0  0  0  0
  -21.4015   -6.5640   23.8207 C   0  0  0  0  0  0
  -21.3656   -5.6794   24.9170 C   0  0  0  0  0  0
  -21.6041   -4.3056   24.7224 C   0  0  0  0  0  0
  -21.8825   -3.8148   23.4345 C   0  0  0  0  0  0
  -21.9195   -4.6966   22.3399 C   0  0  0  0  0  0
  -22.7836  -13.5226   21.1855 C   0  0  0  0  0  0
  -22.1663   -4.2150   21.0981 F   0  0  0  0  0  0
  -21.5627   -3.4541   25.7737 F   0  0  0  0  0  0
  -29.9996  -13.4517   20.4056 N   0  0  0  0  0  0
  -26.2952  -12.9397   20.3285 N   0  0  0  0  0  0
  -25.9331  -11.6543   20.5756 N   0  0  0  0  0  0
  -22.0488  -12.8204   22.0412 N   0  0  0  0  0  0
  -25.4231  -15.1916   20.4079 N   0  0  0  0  0  0
  -31.8611  -14.7056   20.1686 O   0  0  0  0  0  0
  -21.6644   -6.8881   21.4238 O   0  0  0  0  0  0
  -22.3514  -14.5527   20.6703 O   0  0  0  0  0  0
  -24.6256  -31.8597   23.2013 C   0  0  0  0  0  0
  -25.9111  -32.4773   23.8345 C   0  0  1  0  0  0
  -27.2208  -27.3230   20.1308 C   0  0  0  0  0  0
  -25.5933  -33.8573   24.2275 N   0  0  0  0  0  0
  -23.4185  -30.4804   21.5439 C   0  0  2  0  0  0
  -24.8648  -28.9273   20.1169 C   0  0  0  0  0  0
  -22.7469  -29.4609   22.4949 C   0  0  0  0  0  0
  -18.0275  -28.1355   22.8477 C   0  0  0  0  0  0
  -24.1494  -36.7299   23.2639 C   0  0  0  0  0  0
  -25.9568  -30.7924   21.3691 C   0  0  0  0  0  0
  -26.0332  -29.4178   20.7153 C   0  0  0  0  0  0
  -27.2198  -28.6282   20.7072 C   0  0  0  0  0  0
  -26.0339  -26.8719   19.5198 C   0  0  0  0  0  0
  -24.8646  -27.6587   19.5120 C   0  0  0  0  0  0
  -23.6321  -29.8081   20.1616 C   0  0  0  0  0  0
  -25.4113  -36.3079   24.0328 C   0  0  1  0  0  0
  -20.5877  -28.3672   23.1278 C   0  0  2  0  0  0
  -20.6772  -26.9398   22.5408 C   0  0  0  0  0  0
  -19.5756  -26.6367   21.5203 C   0  0  0  0  0  0
  -18.1931  -26.7898   22.1609 C   0  0  0  0  0  0
  -19.1527  -28.8830   23.2869 C   0  0  0  0  0  0
  -18.9465  -30.1436   23.8879 C   0  0  0  0  0  0
  -17.6468  -30.6572   24.0544 C   0  0  0  0  0  0
  -25.9048  -34.9447   23.5102 C   0  0  0  0  0  0
  -16.5352  -29.9070   23.6327 C   0  0  0  0  0  0
  -16.7266  -28.6481   23.0351 C   0  0  0  0  0  0
  -26.4495  -31.6581   25.0721 C   0  0  0  0  0  0
  -25.3728  -31.3728   26.1457 C   0  0  0  0  0  0
  -27.0345  -30.3001   24.6180 C   0  0  0  0  0  0
  -27.6047  -32.4337   25.7489 C   0  0  0  0  0  0
  -27.5585  -37.1795   24.8461 C   0  0  0  0  0  0
  -21.4184  -29.3026   22.3683 N   0  0  0  0  0  0
  -26.4293  -37.3772   23.9411 N   0  0  0  0  0  0
  -24.6856  -31.0607   22.0958 N   0  0  0  0  0  0
  -23.4197  -28.8146   23.3025 O   0  0  0  0  0  0
  -28.3343  -26.4807   20.1293 O   0  0  0  0  0  0
  -26.5624  -34.8921   22.4671 O   0  0  0  0  0  0
  -23.5424  -32.1404   23.7344 O   0  0  0  0  0  0
  -29.9451  -20.5744   21.7842 C   0  0  0  0  0  0
  -28.6868  -20.5109   19.7699 C   0  0  0  0  0  0
  -30.2776  -19.2014   21.6031 C   0  0  0  0  0  0
  -29.1617  -21.3017   20.8509 C   0  0  0  0  0  0
  -29.8114  -18.5235   20.4482 C   0  0  0  0  0  0
  -30.7085  -17.3338   23.4008 C   0  0  0  0  0  0
  -30.9083  -18.6616   24.0903 C   0  0  0  0  0  0
  -31.1726  -18.5332   22.6064 C   0  0  0  0  0  0
  -30.4896  -17.0760   18.4382 C   0  0  0  0  0  0
  -28.5614  -23.7969   20.1399 C   0  0  0  0  0  0
  -28.2141  -25.1936   20.8438 C   0  0  0  0  0  0
  -30.4112  -17.1340   19.9813 C   0  0  2  0  0  0
  -28.9815  -19.1839   19.5892 N   0  0  0  0  0  0
  -28.9005  -22.6969   21.0995 N   0  0  0  0  0  0
  -29.9257  -15.8071   20.5158 N   0  0  0  0  0  0
  -31.4660  -12.4853   19.1680 H   0  0  0  0  0  0
  -30.3319  -11.4124   19.9383 H   0  0  0  0  0  0
  -29.7703  -11.7237   17.4999 H   0  0  0  0  0  0
  -29.6523  -13.4512   17.7318 H   0  0  0  0  0  0
  -27.8663  -11.2875   18.8888 H   0  0  0  0  0  0
  -27.3755  -12.5516   17.7929 H   0  0  0  0  0  0
  -27.6474  -14.2538   19.4814 H   0  0  0  0  0  0
  -28.7001  -12.1467   21.4320 H   0  0  0  0  0  0
  -28.4477  -13.8382   21.7926 H   0  0  0  0  0  0
  -25.2771   -9.5684   22.4753 H   0  0  0  0  0  0
  -24.0004   -7.4640   22.7475 H   0  0  0  0  0  0
  -21.0844   -8.8775   19.8949 H   0  0  0  0  0  0
  -22.3703  -10.9673   19.6158 H   0  0  0  0  0  0
  -21.2012   -7.6150   23.9709 H   0  0  0  0  0  0
  -21.1467   -6.0526   25.9072 H   0  0  0  0  0  0
  -22.0609   -2.7610   23.2848 H   0  0  0  0  0  0
  -22.4116  -11.9876   22.4798 H   0  0  0  0  0  0
  -21.1096  -13.1213   22.2608 H   0  0  0  0  0  0
  -24.6570  -15.8477   20.5143 H   0  0  0  0  0  0
  -26.2672  -15.6261   20.0563 H   0  0  0  0  0  0
  -26.7188  -32.5450   23.1103 H   0  0  0  0  0  0
  -25.0100  -33.9715   25.0431 H   0  0  0  0  0  0
  -22.7116  -31.3005   21.3992 H   0  0  0  0  0  0
  -23.3758  -35.9633   23.3286 H   0  0  0  0  0  0
  -24.3593  -36.8941   22.2061 H   0  0  0  0  0  0
  -23.7241  -37.6491   23.6673 H   0  0  0  0  0  0
  -26.0850  -31.5559   20.6005 H   0  0  0  0  0  0
  -26.8375  -30.8435   21.9977 H   0  0  0  0  0  0
  -28.1217  -29.0007   21.1734 H   0  0  0  0  0  0
  -26.0092  -25.8952   19.0577 H   0  0  0  0  0  0
  -23.9654  -27.2746   19.0511 H   0  0  0  0  0  0
  -23.7484  -30.5817   19.4014 H   0  0  0  0  0  0
  -22.7533  -29.2340   19.8631 H   0  0  0  0  0  0
  -25.1278  -36.1938   25.0818 H   0  0  0  0  0  0
  -20.9953  -28.3261   24.1404 H   0  0  0  0  0  0
  -20.5672  -26.2285   23.3610 H   0  0  0  0  0  0
  -21.6640  -26.7426   22.1197 H   0  0  0  0  0  0
  -19.6933  -25.6281   21.1240 H   0  0  0  0  0  0
  -19.6694  -27.3176   20.6736 H   0  0  0  0  0  0
  -17.4194  -26.6650   21.4013 H   0  0  0  0  0  0
  -18.0313  -26.0025   22.8990 H   0  0  0  0  0  0
  -19.7949  -30.7240   24.2242 H   0  0  0  0  0  0
  -17.5028  -31.6253   24.5161 H   0  0  0  0  0  0
  -15.5354  -30.2966   23.7662 H   0  0  0  0  0  0
  -15.8660  -28.0804   22.7070 H   0  0  0  0  0  0
  -24.5901  -30.7076   25.7796 H   0  0  0  0  0  0
  -24.8926  -32.2900   26.4877 H   0  0  0  0  0  0
  -25.8059  -30.8917   27.0236 H   0  0  0  0  0  0
  -26.2919  -29.6748   24.1215 H   0  0  0  0  0  0
  -27.4047  -29.7266   25.4689 H   0  0  0  0  0  0
  -27.8783  -30.4279   23.9395 H   0  0  0  0  0  0
  -27.2634  -33.3644   26.2033 H   0  0  0  0  0  0
  -28.3858  -32.6895   25.0316 H   0  0  0  0  0  0
  -28.0705  -31.8491   26.5433 H   0  0  0  0  0  0
  -28.2570  -38.0125   24.7520 H   0  0  0  0  0  0
  -28.1110  -36.2648   24.6247 H   0  0  0  0  0  0
  -27.2308  -37.1390   25.8867 H   0  0  0  0  0  0
  -20.9370  -29.8749   21.6888 H   0  0  0  0  0  0
  -26.0183  -38.2848   24.1423 H   0  0  0  0  0  0
  -30.3345  -21.0867   22.6522 H   0  0  0  0  0  0
  -28.0489  -20.9519   19.0193 H   0  0  0  0  0  0
  -29.6844  -16.9919   23.2622 H   0  0  0  0  0  0
  -31.4357  -16.5541   23.6197 H   0  0  0  0  0  0
  -31.7662  -18.7484   24.7544 H   0  0  0  0  0  0
  -30.0119  -19.1869   24.4153 H   0  0  0  0  0  0
  -32.2118  -18.5541   22.2791 H   0  0  0  0  0  0
  -30.9855  -17.9643   18.0448 H   0  0  0  0  0  0
  -29.4951  -17.0270   17.9933 H   0  0  0  0  0  0
  -31.0528  -16.2143   18.0808 H   0  0  0  0  0  0
  -29.4177  -23.9370   19.4788 H   0  0  0  0  0  0
  -27.7289  -23.4935   19.5029 H   0  0  0  0  0  0
  -28.8970  -25.3008   21.6866 H   0  0  0  0  0  0
  -27.2302  -25.1106   21.3102 H   0  0  0  0  0  0
  -31.4527  -17.1993   20.3010 H   0  0  0  0  0  0
  -29.2925  -23.0444   21.9728 H   0  0  0  0  0  0
  -28.9445  -15.7371   20.7348 H   0  0  0  0  0  0
  1 25  1  0  0  0
  1 30  2  0  0  0
  1 85  1  0  0  0
  2  3  1  0  0  0
  2 25  1  0  0  0
  2 86  1  0  0  0
  2 87  1  0  0  0
  3  4  1  0  0  0
  3 88  1  0  0  0
  3 89  1  0  0  0
  4  5  1  0  0  0
  4 90  1  0  0  0
  4 91  1  0  0  0
  5  6  1  0  0  0
  5 26  1  0  0  0
  5 92  1  0  0  0
  6 25  1  0  0  0
  6 93  1  0  0  0
  6 94  1  0  0  0
  7  8  2  0  0  0
  7 26  1  0  0  0
  7 29  1  0  0  0
  8  9  1  0  0  0
  8 22  1  0  0  0
  9 10  1  0  0  0
  9 27  2  0  0  0
 10 11  2  0  0  0
 10 15  1  0  0  0
 11 12  1  0  0  0
 11 95  1  0  0  0
 12 13  2  0  0  0
 12 96  1  0  0  0
 13 14  1  0  0  0
 13 31  1  0  0  0
 14 15  2  0  0  0
 14 97  1  0  0  0
 15 98  1  0  0  0
 16 17  2  0  0  0
 16 21  1  0  0  0
 16 31  1  0  0  0
 17 18  1  0  0  0
 17 99  1  0  0  0
 18 19  2  0  0  0
 18100  1  0  0  0
 19 20  1  0  0  0
 19 24  1  0  0  0
 20 21  2  0  0  0
 20101  1  0  0  0
 21 23  1  0  0  0
 22 28  1  0  0  0
 22 32  2  0  0  0
 26 27  1  0  0  0
 28102  1  0  0  0
 28103  1  0  0  0
 29104  1  0  0  0
 29105  1  0  0  0
 33 34  1  0  0  0
 33 66  1  0  0  0
 33 70  2  0  0  0
 34 36  1  0  0  0
 34 59  1  0  0  0
 34106  1  0  0  0
 35 44  2  0  0  0
 35 45  1  0  0  0
 35 68  1  0  0  0
 36 56  1  0  0  0
 36107  1  0  0  0
 37 39  1  0  0  0
 37 47  1  0  0  0
 37 66  1  0  0  0
 37108  1  0  0  0
 38 43  2  0  0  0
 38 46  1  0  0  0
 38 47  1  0  0  0
 39 64  1  0  0  0
 39 67  2  0  0  0
 40 52  1  0  0  0
 40 53  2  0  0  0
 40 58  1  0  0  0
 41109  1  0  0  0
 41110  1  0  0  0
 41111  1  0  0  0
 41 48  1  0  0  0
 42 43  1  0  0  0
 42 66  1  0  0  0
 42112  1  0  0  0
 42113  1  0  0  0
 43 44  1  0  0  0
 44114  1  0  0  0
 45 46  2  0  0  0
 45115  1  0  0  0
 46116  1  0  0  0
 47117  1  0  0  0
 47118  1  0  0  0
 48 56  1  0  0  0
 48 65  1  0  0  0
 48119  1  0  0  0
 49 50  1  0  0  0
 49 53  1  0  0  0
 49 64  1  0  0  0
 49120  1  0  0  0
 50 51  1  0  0  0
 50121  1  0  0  0
 50122  1  0  0  0
 51 52  1  0  0  0
 51123  1  0  0  0
 51124  1  0  0  0
 52125  1  0  0  0
 52126  1  0  0  0
 53 54  1  0  0  0
 54 55  2  0  0  0
 54127  1  0  0  0
 55 57  1  0  0  0
 55128  1  0  0  0
 56 69  2  0  0  0
 57 58  2  0  0  0
 57129  1  0  0  0
 58130  1  0  0  0
 59 60  1  0  0  0
 59 61  1  0  0  0
 59 62  1  0  0  0
 60131  1  0  0  0
 60132  1  0  0  0
 60133  1  0  0  0
 61134  1  0  0  0
 61135  1  0  0  0
 61136  1  0  0  0
 62137  1  0  0  0
 62138  1  0  0  0
 62139  1  0  0  0
 63 65  1  0  0  0
 63140  1  0  0  0
 63141  1  0  0  0
 63142  1  0  0  0
 64143  1  0  0  0
 65144  1  0  0  0
 68 81  1  0  0  0
 71 73  2  0  0  0
 71 74  1  0  0  0
 71145  1  0  0  0
 72 74  2  0  0  0
 72 83  1  0  0  0
 72146  1  0  0  0
 73 75  1  0  0  0
 73 78  1  0  0  0
 74 84  1  0  0  0
 75 82  1  0  0  0
 75 83  2  0  0  0
 76 77  1  0  0  0
 76 78  1  0  0  0
 76147  1  0  0  0
 76148  1  0  0  0
 77 78  1  0  0  0
 77149  1  0  0  0
 77150  1  0  0  0
 78151  1  0  0  0
 79152  1  0  0  0
 79153  1  0  0  0
 79154  1  0  0  0
 79 82  1  0  0  0
 80 81  1  0  0  0
 80 84  1  0  0  0
 80155  1  0  0  0
 80156  1  0  0  0
 81157  1  0  0  0
 81158  1  0  0  0
 82 85  1  0  0  0
 82159  1  0  0  0
 84160  1  0  0  0
 85161  1  0  0  0
M  ISO  4   1 100  68 101  81 101  85 100
M  END
> <chiral flag>
0

> <version>
0

> <s_m_source_file>
/data/baiqing/PycharmProjects/Reinvent-master-3.2/result/LINK_invent/BTK/process_docking_weight1_custom_sum_contain_oxygen_bond_distance_aromatic_linkinvent_7_9_3/rearranged_h_0135.sdf

> <i_m_source_file_index>
55

> <r_mmod_Potential_Energy-OPLS-2005>
-19.3967514038086

> <r_mmod_Stretch_Energy-OPLS-2005>
79.4347763061523

> <r_mmod_Bend_Energy-OPLS-2005>
160.745300292969

> <r_mmod_Torsional_Energy-OPLS-2005>
265.185394287109

> <r_mmod_Improper_Torsional_Energy-OPLS-2005>
10.5636930465698

> <r_mmod_Van_der_Waal_Energy-OPLS-2005>
138.238800048828

> <r_mmod_Electrostatic_Energy-OPLS-2005>
-505.954711914062

> <r_mmod_Solvation_Energy-OPLS-2005>
-220.53498840332

> <b_mmod_Minimization_Converged-OPLS-2005>
0

> <r_mmod_RMS_Derivative-OPLS-2005>
1.641188621521

$$$$
55
                    3D
 Structure written by MMmdl.
170180  0  0  1  0            999 V2000
  -30.7237  -14.5548   20.3540 C   0  0  0  0  0  0
  -30.4113  -12.3178   19.4147 C   0  0  0  0  0  0
  -29.4738  -12.4125   18.1927 C   0  0  0  0  0  0
  -28.0010  -12.3152   18.6279 C   0  0  0  0  0  0
  -27.6430  -13.2232   19.8376 C   0  0  2  0  0  0
  -28.7102  -13.1432   20.9508 C   0  0  0  0  0  0
  -25.2514  -13.8100   20.5848 C   0  0  0  0  0  0
  -24.1798  -13.0352   20.9277 C   0  0  0  0  0  0
  -24.6403  -11.6849   20.8766 C   0  0  0  0  0  0
  -23.9072  -10.4238   21.0410 C   0  0  0  0  0  0
  -24.3612   -9.4159   21.9191 C   0  0  0  0  0  0
  -23.6292   -8.2197   22.0740 C   0  0  0  0  0  0
  -22.4269   -8.0250   21.3536 C   0  0  0  0  0  0
  -21.9909   -9.0224   20.4634 C   0  0  0  0  0  0
  -22.7235  -10.2100   20.3054 C   0  0  0  0  0  0
  -21.6836   -6.0734   22.5285 C   0  0  0  0  0  0
  -21.3998   -6.5640   23.8218 C   0  0  0  0  0  0
  -21.3655   -5.6796   24.9185 C   0  0  0  0  0  0
  -21.6044   -4.3061   24.7237 C   0  0  0  0  0  0
  -21.8816   -3.8153   23.4353 C   0  0  0  0  0  0
  -21.9178   -4.6967   22.3411 C   0  0  0  0  0  0
  -22.7822  -13.5142   21.1917 C   0  0  0  0  0  0
  -22.1643   -4.2152   21.0990 F   0  0  0  0  0  0
  -21.5637   -3.4537   25.7751 F   0  0  0  0  0  0
  -30.0163  -13.3923   20.3312 N   0  0  0  0  0  0
  -26.2973  -12.9372   20.3338 N   0  0  0  0  0  0
  -25.9341  -11.6504   20.5784 N   0  0  0  0  0  0
  -22.0460  -12.8149   22.0487 N   0  0  0  0  0  0
  -25.3958  -15.1818   20.4481 N   0  0  0  0  0  0
  -31.9513  -14.5543   20.4311 O   0  0  0  0  0  0
  -21.6615   -6.8870   21.4245 O   0  0  0  0  0  0
  -22.3507  -14.5449   20.6760 O   0  0  0  0  0  0
  -24.6154  -31.8674   23.2083 C   0  0  0  0  0  0
  -25.9039  -32.4816   23.8395 C   0  0  1  0  0  0
  -27.2317  -27.4286   20.1092 C   0  0  0  0  0  0
  -25.5903  -33.8613   24.2332 N   0  0  0  0  0  0
  -23.4050  -30.4917   21.5464 C   0  0  2  0  0  0
  -24.8553  -28.9599   20.1080 C   0  0  0  0  0  0
  -22.7423  -29.4664   22.4957 C   0  0  0  0  0  0
  -18.0283  -28.1379   22.8496 C   0  0  0  0  0  0
  -24.1486  -36.7310   23.2638 C   0  0  0  0  0  0
  -25.9344  -30.8347   21.3612 C   0  0  0  0  0  0
  -26.0149  -29.4693   20.7074 C   0  0  0  0  0  0
  -27.2103  -28.7112   20.7049 C   0  0  0  0  0  0
  -26.0627  -26.9449   19.4844 C   0  0  0  0  0  0
  -24.8745  -27.6988   19.4887 C   0  0  0  0  0  0
  -23.6157  -29.8254   20.1602 C   0  0  0  0  0  0
  -25.4099  -36.3106   24.0346 C   0  0  1  0  0  0
  -20.5879  -28.3669   23.1315 C   0  0  2  0  0  0
  -20.6761  -26.9399   22.5420 C   0  0  0  0  0  0
  -19.5736  -26.6395   21.5217 C   0  0  0  0  0  0
  -18.1921  -26.7928   22.1635 C   0  0  0  0  0  0
  -19.1533  -28.8838   23.2908 C   0  0  0  0  0  0
  -18.9456  -30.1451   23.8908 C   0  0  0  0  0  0
  -17.6454  -30.6578   24.0576 C   0  0  0  0  0  0
  -25.9033  -34.9470   23.5134 C   0  0  0  0  0  0
  -16.5348  -29.9082   23.6330 C   0  0  0  0  0  0
  -16.7276  -28.6507   23.0339 C   0  0  0  0  0  0
  -26.4469  -31.6589   25.0715 C   0  0  0  0  0  0
  -25.3738  -31.3703   26.1468 C   0  0  0  0  0  0
  -27.0291  -30.3032   24.6074 C   0  0  0  0  0  0
  -27.6049  -32.4297   25.7479 C   0  0  0  0  0  0
  -27.5580  -37.1811   24.8466 C   0  0  0  0  0  0
  -21.4146  -29.3041   22.3712 N   0  0  0  0  0  0
  -26.4291  -37.3787   23.9413 N   0  0  0  0  0  0
  -24.6696  -31.0786   22.0975 N   0  0  0  0  0  0
  -23.4192  -28.8202   23.2993 O   0  0  0  0  0  0
  -28.3497  -26.6221   20.1602 O   0  0  0  0  0  0
  -26.5586  -34.8920   22.4687 O   0  0  0  0  0  0
  -23.5347  -32.1420   23.7485 O   0  0  0  0  0  0
  -28.4848  -20.1536   18.1847 C   0  0  0  0  0  0
  -28.4066  -21.5418   18.3898 C   0  0  0  0  0  0
  -29.4371  -21.2812   20.5672 C   0  0  0  0  0  0
  -29.0117  -19.2938   19.1764 C   0  0  0  0  0  0
  -29.5156  -19.8727   20.3662 C   0  0  0  0  0  0
  -28.8642  -22.1337   19.5806 C   0  0  0  0  0  0
  -27.7103  -17.2590   18.4104 C   0  0  0  0  0  0
  -30.1455  -18.9780   21.4257 C   0  0  0  0  0  0
  -30.7183  -17.6609   20.8564 C   0  0  0  0  0  0
  -26.5466  -15.7574   16.6336 C   0  0  0  0  0  0
  -26.3545  -17.1884   16.2047 C   0  0  0  0  0  0
  -29.0718  -17.7754   18.8985 C   0  0  2  0  0  0
  -27.5971  -16.7960   16.9788 C   0  0  0  0  0  0
  -29.6780  -16.8569   20.0368 C   0  0  1  0  0  0
  -30.8556  -15.6269   18.2271 C   0  0  0  0  0  0
  -28.1482  -25.4708   21.0109 C   0  0  0  0  0  0
  -29.1023  -24.2668   20.7965 C   0  0  0  0  0  0
  -30.1989  -15.5307   19.5516 N   0  0  0  0  0  0
  -26.7388  -17.2808   19.1664 O   0  0  0  0  0  0
  -28.6969  -23.5104   19.6519 O   0  0  0  0  0  0
  -31.4534  -12.4047   19.0990 H   0  0  0  0  0  0
  -30.3183  -11.3471   19.9042 H   0  0  0  0  0  0
  -29.7007  -11.6138   17.4851 H   0  0  0  0  0  0
  -29.6283  -13.3397   17.6461 H   0  0  0  0  0  0
  -27.8172  -11.2704   18.8823 H   0  0  0  0  0  0
  -27.3453  -12.5374   17.7849 H   0  0  0  0  0  0
  -27.6377  -14.2465   19.4617 H   0  0  0  0  0  0
  -28.7027  -12.1632   21.4325 H   0  0  0  0  0  0
  -28.5084  -13.8826   21.7269 H   0  0  0  0  0  0
  -25.2734   -9.5625   22.4800 H   0  0  0  0  0  0
  -23.9987   -7.4580   22.7456 H   0  0  0  0  0  0
  -21.0835   -8.8741   19.8950 H   0  0  0  0  0  0
  -22.3686  -10.9656   19.6188 H   0  0  0  0  0  0
  -21.1988   -7.6149   23.9709 H   0  0  0  0  0  0
  -21.1487   -6.0543   25.9088 H   0  0  0  0  0  0
  -22.0601   -2.7614   23.2869 H   0  0  0  0  0  0
  -22.4026  -11.9790   22.4880 H   0  0  0  0  0  0
  -21.1103  -13.1232   22.2698 H   0  0  0  0  0  0
  -24.5979  -15.7951   20.5641 H   0  0  0  0  0  0
  -26.1900  -15.6816   20.0563 H   0  0  0  0  0  0
  -26.7113  -32.5538   23.1171 H   0  0  0  0  0  0
  -25.0079  -33.9772   25.0495 H   0  0  0  0  0  0
  -22.6950  -31.3102   21.4077 H   0  0  0  0  0  0
  -23.3742  -35.9653   23.3308 H   0  0  0  0  0  0
  -24.3595  -36.8901   22.2054 H   0  0  0  0  0  0
  -23.7248  -37.6524   23.6633 H   0  0  0  0  0  0
  -26.0469  -31.6009   20.5922 H   0  0  0  0  0  0
  -26.8216  -30.8895   21.9800 H   0  0  0  0  0  0
  -28.1003  -29.0934   21.1831 H   0  0  0  0  0  0
  -26.0663  -25.9735   19.0092 H   0  0  0  0  0  0
  -23.9856  -27.3036   19.0166 H   0  0  0  0  0  0
  -23.7234  -30.6007   19.4007 H   0  0  0  0  0  0
  -22.7400  -29.2445   19.8650 H   0  0  0  0  0  0
  -25.1279  -36.1968   25.0845 H   0  0  0  0  0  0
  -21.0000  -28.3223   24.1426 H   0  0  0  0  0  0
  -20.5664  -26.2268   23.3606 H   0  0  0  0  0  0
  -21.6631  -26.7432   22.1216 H   0  0  0  0  0  0
  -19.6885  -25.6313   21.1234 H   0  0  0  0  0  0
  -19.6670  -27.3221   20.6761 H   0  0  0  0  0  0
  -17.4196  -26.6701   21.4026 H   0  0  0  0  0  0
  -18.0306  -26.0062   22.9026 H   0  0  0  0  0  0
  -19.7932  -30.7274   24.2266 H   0  0  0  0  0  0
  -17.5012  -31.6255   24.5183 H   0  0  0  0  0  0
  -15.5350  -30.2987   23.7636 H   0  0  0  0  0  0
  -15.8684  -28.0844   22.7014 H   0  0  0  0  0  0
  -24.5919  -30.7029   25.7827 H   0  0  0  0  0  0
  -24.8922  -32.2862   26.4905 H   0  0  0  0  0  0
  -25.8110  -30.8902   27.0233 H   0  0  0  0  0  0
  -26.2832  -29.6801   24.1121 H   0  0  0  0  0  0
  -27.4065  -29.7252   25.4523 H   0  0  0  0  0  0
  -27.8670  -30.4362   23.9221 H   0  0  0  0  0  0
  -27.2680  -33.3596   26.2077 H   0  0  0  0  0  0
  -28.3855  -32.6849   25.0296 H   0  0  0  0  0  0
  -28.0714  -31.8394   26.5378 H   0  0  0  0  0  0
  -28.2606  -38.0101   24.7505 H   0  0  0  0  0  0
  -28.1071  -36.2634   24.6295 H   0  0  0  0  0  0
  -27.2310  -37.1468   25.8874 H   0  0  0  0  0  0
  -20.9284  -29.8795   21.6975 H   0  0  0  0  0  0
  -26.0176  -38.2870   24.1395 H   0  0  0  0  0  0
  -28.1229  -19.7554   17.2465 H   0  0  0  0  0  0
  -27.9814  -22.1657   17.6159 H   0  0  0  0  0  0
  -29.8257  -21.6852   21.4906 H   0  0  0  0  0  0
  -29.3878  -18.7599   22.1800 H   0  0  0  0  0  0
  -30.9392  -19.5269   21.9342 H   0  0  0  0  0  0
  -31.1083  -17.0661   21.6827 H   0  0  0  0  0  0
  -31.5737  -17.8960   20.2202 H   0  0  0  0  0  0
  -26.7987  -15.0316   15.8626 H   0  0  0  0  0  0
  -25.9029  -15.3834   17.4286 H   0  0  0  0  0  0
  -25.5885  -17.7691   16.7151 H   0  0  0  0  0  0
  -26.4857  -17.4239   15.1502 H   0  0  0  0  0  0
  -29.7307  -17.7563   18.0348 H   0  0  0  0  0  0
  -28.5196  -16.7770   16.4035 H   0  0  0  0  0  0
  -28.8723  -16.6196   20.7347 H   0  0  0  0  0  0
  -30.1243  -15.6927   17.4260 H   0  0  0  0  0  0
  -31.4678  -14.7576   17.9749 H   0  0  0  0  0  0
  -31.5207  -16.4895   18.1749 H   0  0  0  0  0  0
  -28.2775  -25.8255   22.0347 H   0  0  0  0  0  0
  -27.1250  -25.0922   20.9675 H   0  0  0  0  0  0
  -29.0371  -23.6584   21.6975 H   0  0  0  0  0  0
  -30.1385  -24.5937   20.7007 H   0  0  0  0  0  0
  1 25  1  0  0  0
  1 30  2  0  0  0
  1 88  1  0  0  0
  2  3  1  0  0  0
  2 25  1  0  0  0
  2 91  1  0  0  0
  2 92  1  0  0  0
  3  4  1  0  0  0
  3 93  1  0  0  0
  3 94  1  0  0  0
  4  5  1  0  0  0
  4 95  1  0  0  0
  4 96  1  0  0  0
  5  6  1  0  0  0
  5 26  1  0  0  0
  5 97  1  0  0  0
  6 25  1  0  0  0
  6 98  1  0  0  0
  6 99  1  0  0  0
  7  8  2  0  0  0
  7 26  1  0  0  0
  7 29  1  0  0  0
  8  9  1  0  0  0
  8 22  1  0  0  0
  9 10  1  0  0  0
  9 27  2  0  0  0
 10 11  2  0  0  0
 10 15  1  0  0  0
 11 12  1  0  0  0
 11100  1  0  0  0
 12 13  2  0  0  0
 12101  1  0  0  0
 13 14  1  0  0  0
 13 31  1  0  0  0
 14 15  2  0  0  0
 14102  1  0  0  0
 15103  1  0  0  0
 16 17  2  0  0  0
 16 21  1  0  0  0
 16 31  1  0  0  0
 17 18  1  0  0  0
 17104  1  0  0  0
 18 19  2  0  0  0
 18105  1  0  0  0
 19 20  1  0  0  0
 19 24  1  0  0  0
 20 21  2  0  0  0
 20106  1  0  0  0
 21 23  1  0  0  0
 22 28  1  0  0  0
 22 32  2  0  0  0
 26 27  1  0  0  0
 28107  1  0  0  0
 28108  1  0  0  0
 29109  1  0  0  0
 29110  1  0  0  0
 33 34  1  0  0  0
 33 66  1  0  0  0
 33 70  2  0  0  0
 34 36  1  0  0  0
 34 59  1  0  0  0
 34111  1  0  0  0
 35 44  2  0  0  0
 35 45  1  0  0  0
 35 68  1  0  0  0
 36 56  1  0  0  0
 36112  1  0  0  0
 37 39  1  0  0  0
 37 47  1  0  0  0
 37 66  1  0  0  0
 37113  1  0  0  0
 38 43  2  0  0  0
 38 46  1  0  0  0
 38 47  1  0  0  0
 39 64  1  0  0  0
 39 67  2  0  0  0
 40 52  1  0  0  0
 40 53  2  0  0  0
 40 58  1  0  0  0
 41114  1  0  0  0
 41115  1  0  0  0
 41116  1  0  0  0
 41 48  1  0  0  0
 42 43  1  0  0  0
 42 66  1  0  0  0
 42117  1  0  0  0
 42118  1  0  0  0
 43 44  1  0  0  0
 44119  1  0  0  0
 45 46  2  0  0  0
 45120  1  0  0  0
 46121  1  0  0  0
 47122  1  0  0  0
 47123  1  0  0  0
 48 56  1  0  0  0
 48 65  1  0  0  0
 48124  1  0  0  0
 49 50  1  0  0  0
 49 53  1  0  0  0
 49 64  1  0  0  0
 49125  1  0  0  0
 50 51  1  0  0  0
 50126  1  0  0  0
 50127  1  0  0  0
 51 52  1  0  0  0
 51128  1  0  0  0
 51129  1  0  0  0
 52130  1  0  0  0
 52131  1  0  0  0
 53 54  1  0  0  0
 54 55  2  0  0  0
 54132  1  0  0  0
 55 57  1  0  0  0
 55133  1  0  0  0
 56 69  2  0  0  0
 57 58  2  0  0  0
 57134  1  0  0  0
 58135  1  0  0  0
 59 60  1  0  0  0
 59 61  1  0  0  0
 59 62  1  0  0  0
 60136  1  0  0  0
 60137  1  0  0  0
 60138  1  0  0  0
 61139  1  0  0  0
 61140  1  0  0  0
 61141  1  0  0  0
 62142  1  0  0  0
 62143  1  0  0  0
 62144  1  0  0  0
 63 65  1  0  0  0
 63145  1  0  0  0
 63146  1  0  0  0
 63147  1  0  0  0
 64148  1  0  0  0
 65149  1  0  0  0
 68 86  1  0  0  0
 71 72  2  0  0  0
 71 74  1  0  0  0
 71150  1  0  0  0
 72 76  1  0  0  0
 72151  1  0  0  0
 73 75  1  0  0  0
 73 76  2  0  0  0
 73152  1  0  0  0
 74 75  2  0  0  0
 74 82  1  0  0  0
 75 78  1  0  0  0
 76 90  1  0  0  0
 77 89  2  0  0  0
 77 82  1  0  0  0
 77 83  1  0  0  0
 78 79  1  0  0  0
 78153  1  0  0  0
 78154  1  0  0  0
 79 84  1  0  0  0
 79155  1  0  0  0
 79156  1  0  0  0
 80 81  1  0  0  0
 80 83  1  0  0  0
 80157  1  0  0  0
 80158  1  0  0  0
 81 83  1  0  0  0
 81159  1  0  0  0
 81160  1  0  0  0
 82 84  1  0  0  0
 82161  1  0  0  0
 83162  1  0  0  0
 84 88  1  0  0  0
 84163  1  0  0  0
 85 88  1  0  0  0
 85164  1  0  0  0
 85165  1  0  0  0
 85166  1  0  0  0
 86 87  1  0  0  0
 86167  1  0  0  0
 86168  1  0  0  0
 87 90  1  0  0  0
 87169  1  0  0  0
 87170  1  0  0  0
M  ISO  4   1 100  68 101  86 101  88 100
M  END
> <chiral flag>
0

> <version>
0

> <s_m_source_file>
/data/baiqing/PycharmProjects/Reinvent-master-3.2/result/LINK_invent/BTK/process_docking_weight1_custom_sum_contain_oxygen_bond_distance_aromatic_linkinvent_7_9_3/rearranged_h_0135.sdf

> <i_m_source_file_index>
56

> <r_mmod_Potential_Energy-OPLS-2005>
349.040618896484

> <r_mmod_Stretch_Energy-OPLS-2005>
51.2002830505371

> <r_mmod_Bend_Energy-OPLS-2005>
131.975936889648

> <r_mmod_Torsional_Energy-OPLS-2005>
369.983337402344

> <r_mmod_Improper_Torsional_Energy-OPLS-2005>
32.9454765319824

> <r_mmod_Van_der_Waal_Energy-OPLS-2005>
154.031051635742

> <r_mmod_Electrostatic_Energy-OPLS-2005>
-245.313659667969

> <r_mmod_Solvation_Energy-OPLS-2005>
-200.994003295898

> <b_mmod_Minimization_Converged-OPLS-2005>
0

> <r_mmod_RMS_Derivative-OPLS-2005>
1.75980806350708

$$$$
56
                    3D
 Structure written by MMmdl.
156164  0  0  1  0            999 V2000
  -30.6283  -14.7303   20.4578 C   0  0  0  0  0  0
  -30.4302  -12.4509   19.4642 C   0  0  0  0  0  0
  -29.5070  -12.5041   18.2285 C   0  0  0  0  0  0
  -28.0318  -12.3384   18.6399 C   0  0  0  0  0  0
  -27.6391  -13.2349   19.8457 C   0  0  2  0  0  0
  -28.6853  -13.1701   20.9797 C   0  0  0  0  0  0
  -25.2490  -13.8202   20.5701 C   0  0  0  0  0  0
  -24.1796  -13.0437   20.9228 C   0  0  0  0  0  0
  -24.6395  -11.6921   20.8759 C   0  0  0  0  0  0
  -23.9069  -10.4296   21.0403 C   0  0  0  0  0  0
  -24.3617   -9.4209   21.9182 C   0  0  0  0  0  0
  -23.6304   -8.2235   22.0737 C   0  0  0  0  0  0
  -22.4283   -8.0272   21.3530 C   0  0  0  0  0  0
  -21.9914   -9.0244   20.4632 C   0  0  0  0  0  0
  -22.7238  -10.2128   20.3050 C   0  0  0  0  0  0
  -21.6851   -6.0727   22.5273 C   0  0  0  0  0  0
  -21.4014   -6.5629   23.8210 C   0  0  0  0  0  0
  -21.3666   -5.6785   24.9174 C   0  0  0  0  0  0
  -21.6057   -4.3051   24.7220 C   0  0  0  0  0  0
  -21.8825   -3.8136   23.4342 C   0  0  0  0  0  0
  -21.9198   -4.6955   22.3400 C   0  0  0  0  0  0
  -22.7817  -13.5209   21.1894 C   0  0  0  0  0  0
  -22.1667   -4.2142   21.0977 F   0  0  0  0  0  0
  -21.5631   -3.4536   25.7730 F   0  0  0  0  0  0
  -29.9872  -13.5147   20.3941 N   0  0  0  0  0  0
  -26.2921  -12.9418   20.3264 N   0  0  0  0  0  0
  -25.9320  -11.6556   20.5739 N   0  0  0  0  0  0
  -22.0463  -12.8199   22.0453 N   0  0  0  0  0  0
  -25.4151  -15.1927   20.4093 N   0  0  0  0  0  0
  -31.8212  -14.8139   20.1571 O   0  0  0  0  0  0
  -21.6649   -6.8864   21.4226 O   0  0  0  0  0  0
  -22.3508  -14.5512   20.6734 O   0  0  0  0  0  0
  -24.6318  -31.8554   23.1970 C   0  0  0  0  0  0
  -25.9141  -32.4755   23.8318 C   0  0  1  0  0  0
  -27.2118  -27.2545   20.1270 C   0  0  0  0  0  0
  -25.5924  -33.8561   24.2239 N   0  0  0  0  0  0
  -23.4286  -30.4784   21.5417 C   0  0  2  0  0  0
  -24.8746  -28.9299   20.1055 C   0  0  0  0  0  0
  -22.7509  -29.4596   22.4912 C   0  0  0  0  0  0
  -18.0294  -28.1378   22.8488 C   0  0  0  0  0  0
  -24.1487  -36.7291   23.2633 C   0  0  0  0  0  0
  -25.9754  -30.7647   21.3816 C   0  0  0  0  0  0
  -26.0464  -29.3876   20.7212 C   0  0  0  0  0  0
  -27.2173  -28.5615   20.7237 C   0  0  0  0  0  0
  -26.0210  -26.8813   19.4593 C   0  0  0  0  0  0
  -24.8671  -27.6843   19.4642 C   0  0  0  0  0  0
  -23.6466  -29.8162   20.1565 C   0  0  0  0  0  0
  -25.4115  -36.3073   24.0324 C   0  0  1  0  0  0
  -20.5897  -28.3690   23.1273 C   0  0  2  0  0  0
  -20.6780  -26.9409   22.5402 C   0  0  0  0  0  0
  -19.5752  -26.6377   21.5203 C   0  0  0  0  0  0
  -18.1938  -26.7920   22.1621 C   0  0  0  0  0  0
  -19.1548  -28.8856   23.2867 C   0  0  0  0  0  0
  -18.9456  -30.1455   23.8883 C   0  0  0  0  0  0
  -17.6451  -30.6575   24.0565 C   0  0  0  0  0  0
  -25.9058  -34.9445   23.5088 C   0  0  0  0  0  0
  -16.5347  -29.9068   23.6334 C   0  0  0  0  0  0
  -16.7274  -28.6488   23.0356 C   0  0  0  0  0  0
  -26.4503  -31.6568   25.0704 C   0  0  0  0  0  0
  -25.3712  -31.3732   26.1405 C   0  0  0  0  0  0
  -27.0342  -30.2976   24.6201 C   0  0  0  0  0  0
  -27.6070  -32.4302   25.7474 C   0  0  0  0  0  0
  -27.5579  -37.1801   24.8458 C   0  0  0  0  0  0
  -21.4210  -29.3043   22.3673 N   0  0  0  0  0  0
  -26.4280  -37.3782   23.9420 N   0  0  0  0  0  0
  -24.6973  -31.0527   22.0946 N   0  0  0  0  0  0
  -23.4199  -28.8142   23.3010 O   0  0  0  0  0  0
  -28.2837  -26.3289   20.2100 O   0  0  0  0  0  0
  -26.5623  -34.8933   22.4651 O   0  0  0  0  0  0
  -23.5470  -32.1364   23.7264 O   0  0  0  0  0  0
  -30.0423  -20.6148   23.4379 C   0  0  0  0  0  0
  -29.7062  -21.6988   22.5950 C   0  0  0  0  0  0
  -29.9162  -19.4761   22.7065 C   0  0  0  0  0  0
  -29.3941  -21.2297   21.3444 C   0  0  0  0  0  0
  -28.9103  -22.1636   20.2434 C   0  0  0  0  0  0
  -27.1572  -24.6328   21.6073 C   0  0  0  0  0  0
  -29.1804  -23.7543   20.2980 C   0  0  0  0  0  0
  -29.3677  -18.6109   20.4356 C   0  0  0  0  0  0
  -30.3749  -17.3289   20.5598 C   0  0  0  0  0  0
  -27.9854  -24.8442   20.3223 C   0  0  2  0  0  0
  -29.5647  -19.7769   21.3932 N   0  0  0  0  0  0
  -29.8794  -15.8816   20.6383 N   0  0  0  0  0  0
  -28.3413  -21.7006   19.2515 O   0  0  0  0  0  0
  -31.4700  -12.5760   19.1553 H   0  0  0  0  0  0
  -30.3768  -11.4754   19.9494 H   0  0  0  0  0  0
  -29.7869  -11.7267   17.5158 H   0  0  0  0  0  0
  -29.6406  -13.4560   17.7117 H   0  0  0  0  0  0
  -27.8794  -11.2875   18.8921 H   0  0  0  0  0  0
  -27.3795  -12.5436   17.7904 H   0  0  0  0  0  0
  -27.6302  -14.2582   19.4690 H   0  0  0  0  0  0
  -28.7206  -12.1750   21.4245 H   0  0  0  0  0  0
  -28.4266  -13.8583   21.7852 H   0  0  0  0  0  0
  -25.2752   -9.5699   22.4768 H   0  0  0  0  0  0
  -24.0026   -7.4619   22.7444 H   0  0  0  0  0  0
  -21.0848   -8.8743   19.8939 H   0  0  0  0  0  0
  -22.3676  -10.9658   19.6167 H   0  0  0  0  0  0
  -21.1997   -7.6133   23.9709 H   0  0  0  0  0  0
  -21.1492   -6.0514   25.9082 H   0  0  0  0  0  0
  -22.0603   -2.7592   23.2844 H   0  0  0  0  0  0
  -22.4089  -11.9870   22.4845 H   0  0  0  0  0  0
  -21.1056  -13.1179   22.2613 H   0  0  0  0  0  0
  -24.6404  -15.8395   20.5141 H   0  0  0  0  0  0
  -26.2502  -15.6323   20.0449 H   0  0  0  0  0  0
  -26.7212  -32.5397   23.1067 H   0  0  0  0  0  0
  -25.0100  -33.9686   25.0411 H   0  0  0  0  0  0
  -22.7234  -31.2991   21.3974 H   0  0  0  0  0  0
  -23.3756  -35.9616   23.3279 H   0  0  0  0  0  0
  -24.3578  -36.8920   22.2048 H   0  0  0  0  0  0
  -23.7240  -37.6490   23.6663 H   0  0  0  0  0  0
  -26.1188  -31.5272   20.6142 H   0  0  0  0  0  0
  -26.8520  -30.8060   22.0179 H   0  0  0  0  0  0
  -28.1071  -28.9017   21.2358 H   0  0  0  0  0  0
  -25.9401  -25.9401   18.9432 H   0  0  0  0  0  0
  -23.9746  -27.3301   18.9670 H   0  0  0  0  0  0
  -23.7719  -30.5929   19.4007 H   0  0  0  0  0  0
  -22.7650  -29.2481   19.8538 H   0  0  0  0  0  0
  -25.1309  -36.1911   25.0818 H   0  0  0  0  0  0
  -20.9972  -28.3238   24.1393 H   0  0  0  0  0  0
  -20.5668  -26.2292   23.3596 H   0  0  0  0  0  0
  -21.6652  -26.7428   22.1199 H   0  0  0  0  0  0
  -19.6907  -25.6281   21.1232 H   0  0  0  0  0  0
  -19.6685  -27.3191   20.6733 H   0  0  0  0  0  0
  -17.4206  -26.6667   21.4018 H   0  0  0  0  0  0
  -18.0334  -26.0059   22.9014 H   0  0  0  0  0  0
  -19.7934  -30.7297   24.2215 H   0  0  0  0  0  0
  -17.5003  -31.6249   24.5173 H   0  0  0  0  0  0
  -15.5344  -30.2963   23.7671 H   0  0  0  0  0  0
  -15.8676  -28.0808   22.7069 H   0  0  0  0  0  0
  -24.5884  -30.7091   25.7718 H   0  0  0  0  0  0
  -24.8900  -32.2898   26.4807 H   0  0  0  0  0  0
  -25.7984  -30.8898   27.0193 H   0  0  0  0  0  0
  -26.2917  -29.6720   24.1220 H   0  0  0  0  0  0
  -27.4011  -29.7252   25.4731 H   0  0  0  0  0  0
  -27.8811  -30.4246   23.9462 H   0  0  0  0  0  0
  -27.2686  -33.3626   26.2022 H   0  0  0  0  0  0
  -28.3879  -32.6814   25.0278 H   0  0  0  0  0  0
  -28.0728  -31.8421   26.5390 H   0  0  0  0  0  0
  -28.2597  -38.0100   24.7536 H   0  0  0  0  0  0
  -28.1077  -36.2644   24.6249 H   0  0  0  0  0  0
  -27.2297  -37.1400   25.8855 H   0  0  0  0  0  0
  -20.9374  -29.8781   21.6921 H   0  0  0  0  0  0
  -26.0154  -38.2856   24.1419 H   0  0  0  0  0  0
  -30.3156  -20.6621   24.4848 H   0  0  0  0  0  0
  -29.6657  -22.7353   22.9007 H   0  0  0  0  0  0
  -30.0481  -18.4523   23.0320 H   0  0  0  0  0  0
  -26.8428  -23.5954   21.7195 H   0  0  0  0  0  0
  -26.2489  -25.2334   21.6202 H   0  0  0  0  0  0
  -27.7375  -24.8970   22.4921 H   0  0  0  0  0  0
  -29.7840  -23.9647   19.4158 H   0  0  0  0  0  0
  -29.8462  -23.9593   21.1329 H   0  0  0  0  0  0
  -28.3403  -18.2664   20.5612 H   0  0  0  0  0  0
  -29.4185  -19.0060   19.4199 H   0  0  0  0  0  0
  -31.0622  -17.4637   21.3929 H   0  0  0  0  0  0
  -31.0367  -17.3789   19.6939 H   0  0  0  0  0  0
  -27.3733  -24.5590   19.4701 H   0  0  0  0  0  0
  -28.8957  -15.7461   20.8136 H   0  0  0  0  0  0
  1 25  1  0  0  0
  1 30  2  0  0  0
  1 82  1  0  0  0
  2  3  1  0  0  0
  2 25  1  0  0  0
  2 84  1  0  0  0
  2 85  1  0  0  0
  3  4  1  0  0  0
  3 86  1  0  0  0
  3 87  1  0  0  0
  4  5  1  0  0  0
  4 88  1  0  0  0
  4 89  1  0  0  0
  5  6  1  0  0  0
  5 26  1  0  0  0
  5 90  1  0  0  0
  6 25  1  0  0  0
  6 91  1  0  0  0
  6 92  1  0  0  0
  7  8  2  0  0  0
  7 26  1  0  0  0
  7 29  1  0  0  0
  8  9  1  0  0  0
  8 22  1  0  0  0
  9 10  1  0  0  0
  9 27  2  0  0  0
 10 11  2  0  0  0
 10 15  1  0  0  0
 11 12  1  0  0  0
 11 93  1  0  0  0
 12 13  2  0  0  0
 12 94  1  0  0  0
 13 14  1  0  0  0
 13 31  1  0  0  0
 14 15  2  0  0  0
 14 95  1  0  0  0
 15 96  1  0  0  0
 16 17  2  0  0  0
 16 21  1  0  0  0
 16 31  1  0  0  0
 17 18  1  0  0  0
 17 97  1  0  0  0
 18 19  2  0  0  0
 18 98  1  0  0  0
 19 20  1  0  0  0
 19 24  1  0  0  0
 20 21  2  0  0  0
 20 99  1  0  0  0
 21 23  1  0  0  0
 22 28  1  0  0  0
 22 32  2  0  0  0
 26 27  1  0  0  0
 28100  1  0  0  0
 28101  1  0  0  0
 29102  1  0  0  0
 29103  1  0  0  0
 33 34  1  0  0  0
 33 66  1  0  0  0
 33 70  2  0  0  0
 34 36  1  0  0  0
 34 59  1  0  0  0
 34104  1  0  0  0
 35 44  2  0  0  0
 35 45  1  0  0  0
 35 68  1  0  0  0
 36 56  1  0  0  0
 36105  1  0  0  0
 37 39  1  0  0  0
 37 47  1  0  0  0
 37 66  1  0  0  0
 37106  1  0  0  0
 38 43  2  0  0  0
 38 46  1  0  0  0
 38 47  1  0  0  0
 39 64  1  0  0  0
 39 67  2  0  0  0
 40 52  1  0  0  0
 40 53  2  0  0  0
 40 58  1  0  0  0
 41107  1  0  0  0
 41108  1  0  0  0
 41109  1  0  0  0
 41 48  1  0  0  0
 42 43  1  0  0  0
 42 66  1  0  0  0
 42110  1  0  0  0
 42111  1  0  0  0
 43 44  1  0  0  0
 44112  1  0  0  0
 45 46  2  0  0  0
 45113  1  0  0  0
 46114  1  0  0  0
 47115  1  0  0  0
 47116  1  0  0  0
 48 56  1  0  0  0
 48 65  1  0  0  0
 48117  1  0  0  0
 49 50  1  0  0  0
 49 53  1  0  0  0
 49 64  1  0  0  0
 49118  1  0  0  0
 50 51  1  0  0  0
 50119  1  0  0  0
 50120  1  0  0  0
 51 52  1  0  0  0
 51121  1  0  0  0
 51122  1  0  0  0
 52123  1  0  0  0
 52124  1  0  0  0
 53 54  1  0  0  0
 54 55  2  0  0  0
 54125  1  0  0  0
 55 57  1  0  0  0
 55126  1  0  0  0
 56 69  2  0  0  0
 57 58  2  0  0  0
 57127  1  0  0  0
 58128  1  0  0  0
 59 60  1  0  0  0
 59 61  1  0  0  0
 59 62  1  0  0  0
 60129  1  0  0  0
 60130  1  0  0  0
 60131  1  0  0  0
 61132  1  0  0  0
 61133  1  0  0  0
 61134  1  0  0  0
 62135  1  0  0  0
 62136  1  0  0  0
 62137  1  0  0  0
 63 65  1  0  0  0
 63138  1  0  0  0
 63139  1  0  0  0
 63140  1  0  0  0
 64141  1  0  0  0
 65142  1  0  0  0
 68 80  1  0  0  0
 71 72  1  0  0  0
 71 73  2  0  0  0
 71143  1  0  0  0
 72 74  2  0  0  0
 72144  1  0  0  0
 73 81  1  0  0  0
 73145  1  0  0  0
 74 75  1  0  0  0
 74 81  1  0  0  0
 75 77  1  0  0  0
 75 83  2  0  0  0
 76146  1  0  0  0
 76147  1  0  0  0
 76148  1  0  0  0
 76 80  1  0  0  0
 77 80  1  0  0  0
 77149  1  0  0  0
 77150  1  0  0  0
 78 79  1  0  0  0
 78 81  1  0  0  0
 78151  1  0  0  0
 78152  1  0  0  0
 79 82  1  0  0  0
 79153  1  0  0  0
 79154  1  0  0  0
 80155  1  0  0  0
 82156  1  0  0  0
M  ISO  4   1 100  68 101  80 101  82 100
M  END
> <chiral flag>
0

> <version>
0

> <s_m_source_file>
/data/baiqing/PycharmProjects/Reinvent-master-3.2/result/LINK_invent/BTK/process_docking_weight1_custom_sum_contain_oxygen_bond_distance_aromatic_linkinvent_7_9_3/rearranged_h_0135.sdf

> <i_m_source_file_index>
57

> <r_mmod_Potential_Energy-OPLS-2005>
215.244064331055

> <r_mmod_Stretch_Energy-OPLS-2005>
135.458023071289

> <r_mmod_Bend_Energy-OPLS-2005>
189.499938964844

> <r_mmod_Torsional_Energy-OPLS-2005>
243.903350830078

> <r_mmod_Improper_Torsional_Energy-OPLS-2005>
5.61053133010864

> <r_mmod_Van_der_Waal_Energy-OPLS-2005>
122.159103393555

> <r_mmod_Electrostatic_Energy-OPLS-2005>
-347.437377929688

> <r_mmod_Solvation_Energy-OPLS-2005>
-222.646911621094

> <b_mmod_Minimization_Converged-OPLS-2005>
0

> <r_mmod_RMS_Derivative-OPLS-2005>
2.53591847419739

$$$$
57
                    3D
 Structure written by MMmdl.
181190  0  0  1  0            999 V2000
  -30.8520  -14.2282   20.8170 C   0  0  0  0  0  0
  -30.4030  -12.2991   19.3542 C   0  0  0  0  0  0
  -29.4609  -12.5472   18.1691 C   0  0  0  0  0  0
  -27.9956  -12.3750   18.6019 C   0  0  0  0  0  0
  -27.6583  -13.2032   19.8679 C   0  0  2  0  0  0
  -28.6937  -12.9600   20.9845 C   0  0  0  0  0  0
  -25.2561  -13.8159   20.5670 C   0  0  0  0  0  0
  -24.1815  -13.0432   20.9167 C   0  0  0  0  0  0
  -24.6360  -11.6895   20.8699 C   0  0  0  0  0  0
  -23.9036  -10.4280   21.0369 C   0  0  0  0  0  0
  -24.3605   -9.4208   21.9147 C   0  0  0  0  0  0
  -23.6286   -8.2240   22.0733 C   0  0  0  0  0  0
  -22.4266   -8.0271   21.3541 C   0  0  0  0  0  0
  -21.9895   -9.0227   20.4639 C   0  0  0  0  0  0
  -22.7203  -10.2118   20.3028 C   0  0  0  0  0  0
  -21.6850   -6.0726   22.5282 C   0  0  0  0  0  0
  -21.4002   -6.5631   23.8219 C   0  0  0  0  0  0
  -21.3659   -5.6791   24.9175 C   0  0  0  0  0  0
  -21.6049   -4.3055   24.7229 C   0  0  0  0  0  0
  -21.8820   -3.8142   23.4351 C   0  0  0  0  0  0
  -21.9187   -4.6949   22.3410 C   0  0  0  0  0  0
  -22.7843  -13.5223   21.1849 C   0  0  0  0  0  0
  -22.1661   -4.2137   21.0987 F   0  0  0  0  0  0
  -21.5634   -3.4542   25.7735 F   0  0  0  0  0  0
  -30.0450  -13.2089   20.4489 N   0  0  0  0  0  0
  -26.2992  -12.9327   20.3327 N   0  0  0  0  0  0
  -25.9282  -11.6483   20.5723 N   0  0  0  0  0  0
  -22.0507  -12.8202   22.0413 N   0  0  0  0  0  0
  -25.4266  -15.1881   20.4105 N   0  0  0  0  0  0
  -31.7510  -14.6894   20.1040 O   0  0  0  0  0  0
  -21.6638   -6.8855   21.4250 O   0  0  0  0  0  0
  -22.3513  -14.5523   20.6687 O   0  0  0  0  0  0
  -24.6130  -31.8703   23.2129 C   0  0  0  0  0  0
  -25.9043  -32.4817   23.8409 C   0  0  1  0  0  0
  -27.2242  -27.4480   20.0636 C   0  0  0  0  0  0
  -25.5925  -33.8609   24.2359 N   0  0  0  0  0  0
  -23.3978  -30.4987   21.5522 C   0  0  2  0  0  0
  -24.8379  -28.9654   20.1185 C   0  0  0  0  0  0
  -22.7383  -29.4685   22.4971 C   0  0  0  0  0  0
  -18.0268  -28.1377   22.8486 C   0  0  0  0  0  0
  -24.1464  -36.7287   23.2623 C   0  0  0  0  0  0
  -25.9285  -30.8344   21.3683 C   0  0  0  0  0  0
  -26.0009  -29.4706   20.7133 C   0  0  0  0  0  0
  -27.1926  -28.7150   20.6890 C   0  0  0  0  0  0
  -26.0289  -26.9403   19.4975 C   0  0  0  0  0  0
  -24.8442  -27.6969   19.5187 C   0  0  0  0  0  0
  -23.6049  -29.8366   20.1668 C   0  0  0  0  0  0
  -25.4081  -36.3097   24.0336 C   0  0  1  0  0  0
  -20.5857  -28.3665   23.1302 C   0  0  2  0  0  0
  -20.6748  -26.9396   22.5400 C   0  0  0  0  0  0
  -19.5736  -26.6390   21.5184 C   0  0  0  0  0  0
  -18.1917  -26.7937   22.1594 C   0  0  0  0  0  0
  -19.1519  -28.8832   23.2909 C   0  0  0  0  0  0
  -18.9455  -30.1429   23.8943 C   0  0  0  0  0  0
  -17.6455  -30.6579   24.0559 C   0  0  0  0  0  0
  -25.9022  -34.9468   23.5140 C   0  0  0  0  0  0
  -16.5351  -29.9077   23.6322 C   0  0  0  0  0  0
  -16.7255  -28.6487   23.0369 C   0  0  0  0  0  0
  -26.4476  -31.6578   25.0719 C   0  0  0  0  0  0
  -25.3754  -31.3727   26.1482 C   0  0  0  0  0  0
  -27.0261  -30.2994   24.6097 C   0  0  0  0  0  0
  -27.6079  -32.4276   25.7475 C   0  0  0  0  0  0
  -27.5585  -37.1771   24.8440 C   0  0  0  0  0  0
  -21.4116  -29.3031   22.3697 N   0  0  0  0  0  0
  -26.4262  -37.3792   23.9445 N   0  0  0  0  0  0
  -24.6640  -31.0821   22.1032 N   0  0  0  0  0  0
  -23.4162  -28.8217   23.3004 O   0  0  0  0  0  0
  -28.4258  -26.7686   20.0286 O   0  0  0  0  0  0
  -26.5566  -34.8918   22.4690 O   0  0  0  0  0  0
  -23.5328  -32.1470   23.7540 O   0  0  0  0  0  0
  -30.6236  -16.6972   24.1731 C   0  0  0  0  0  0
  -32.9621  -17.0554   23.6275 C   0  0  0  0  0  0
  -31.8181  -16.2408   23.5831 C   0  0  0  0  0  0
  -30.5618  -17.9733   24.7754 C   0  0  0  0  0  0
  -32.9169  -18.3386   24.2045 C   0  0  0  0  0  0
  -31.7019  -18.8259   24.7602 C   0  0  0  0  0  0
  -31.0068  -23.4467   23.4001 C   0  0  0  0  0  0
  -31.7842  -22.6372   24.4607 C   0  0  0  0  0  0
  -30.3072  -21.1639   23.3488 C   0  0  0  0  0  0
  -30.3782  -22.4052   22.4527 C   0  0  1  0  0  0
  -29.2566  -18.3801   25.4448 C   0  0  0  0  0  0
  -34.2087  -19.1461   24.2200 C   0  0  0  0  0  0
  -28.3153  -21.6675   21.0991 C   0  0  0  0  0  0
  -31.9204  -14.8531   22.9724 C   0  0  0  0  0  0
  -31.6253  -20.2654   25.2836 C   0  0  0  0  0  0
  -28.2347  -24.3339   19.8949 C   0  0  0  0  0  0
  -28.5658  -25.6427   19.1543 C   0  0  0  0  0  0
  -29.0435  -22.8476   21.7885 C   0  0  2  0  0  0
  -30.7937  -14.4535   22.1362 N   0  0  0  0  0  0
  -31.5474  -21.2131   24.1452 N   0  3  2  0  0  0
  -29.3090  -23.9755   20.8534 N   0  3  0  0  0  0
  -31.4424  -12.4162   19.0402 H   0  0  0  0  0  0
  -30.3127  -11.2683   19.7018 H   0  0  0  0  0  0
  -29.6929  -11.8615   17.3528 H   0  0  0  0  0  0
  -29.6131  -13.5559   17.7822 H   0  0  0  0  0  0
  -27.8233  -11.3151   18.7933 H   0  0  0  0  0  0
  -27.3301  -12.6484   17.7823 H   0  0  0  0  0  0
  -27.7147  -14.2555   19.5864 H   0  0  0  0  0  0
  -28.6379  -11.9326   21.3440 H   0  0  0  0  0  0
  -28.4446  -13.5940   21.8369 H   0  0  0  0  0  0
  -25.2753   -9.5689   22.4721 H   0  0  0  0  0  0
  -24.0003   -7.4630   22.7445 H   0  0  0  0  0  0
  -21.0831   -8.8735   19.8942 H   0  0  0  0  0  0
  -22.3647  -10.9651   19.6143 H   0  0  0  0  0  0
  -21.1985   -7.6138   23.9718 H   0  0  0  0  0  0
  -21.1487   -6.0515   25.9080 H   0  0  0  0  0  0
  -22.0597   -2.7602   23.2864 H   0  0  0  0  0  0
  -22.4146  -11.9879   22.4810 H   0  0  0  0  0  0
  -21.1108  -13.1186   22.2610 H   0  0  0  0  0  0
  -24.6590  -15.8417   20.5209 H   0  0  0  0  0  0
  -26.2877  -15.6342   20.1166 H   0  0  0  0  0  0
  -26.7110  -32.5529   23.1170 H   0  0  0  0  0  0
  -25.0110  -33.9761   25.0530 H   0  0  0  0  0  0
  -22.6850  -31.3160   21.4155 H   0  0  0  0  0  0
  -23.3744  -35.9595   23.3237 H   0  0  0  0  0  0
  -24.3576  -36.8935   22.2047 H   0  0  0  0  0  0
  -23.7173  -37.6461   23.6659 H   0  0  0  0  0  0
  -26.0439  -31.6008   20.6013 H   0  0  0  0  0  0
  -26.8170  -30.8829   21.9871 H   0  0  0  0  0  0
  -28.0972  -29.1052   21.1360 H   0  0  0  0  0  0
  -25.9737  -25.9671   19.0336 H   0  0  0  0  0  0
  -23.9427  -27.2985   19.0743 H   0  0  0  0  0  0
  -23.7138  -30.6147   19.4096 H   0  0  0  0  0  0
  -22.7270  -29.2606   19.8691 H   0  0  0  0  0  0
  -25.1226  -36.1955   25.0816 H   0  0  0  0  0  0
  -20.9950  -28.3247   24.1421 H   0  0  0  0  0  0
  -20.5612  -26.2265   23.3583 H   0  0  0  0  0  0
  -21.6619  -26.7409   22.1216 H   0  0  0  0  0  0
  -19.6888  -25.6305   21.1194 H   0  0  0  0  0  0
  -19.6694  -27.3207   20.6729 H   0  0  0  0  0  0
  -17.4171  -26.6686   21.4014 H   0  0  0  0  0  0
  -18.0337  -26.0073   22.8979 H   0  0  0  0  0  0
  -19.7925  -30.7233   24.2353 H   0  0  0  0  0  0
  -17.5001  -31.6266   24.5139 H   0  0  0  0  0  0
  -15.5351  -30.2991   23.7624 H   0  0  0  0  0  0
  -15.8650  -28.0791   22.7117 H   0  0  0  0  0  0
  -24.5944  -30.7021   25.7865 H   0  0  0  0  0  0
  -24.8925  -32.2896   26.4877 H   0  0  0  0  0  0
  -25.8125  -30.8969   27.0268 H   0  0  0  0  0  0
  -26.2786  -29.6800   24.1114 H   0  0  0  0  0  0
  -27.3946  -29.7190   25.4566 H   0  0  0  0  0  0
  -27.8671  -30.4247   23.9274 H   0  0  0  0  0  0
  -27.2719  -33.3571   26.2084 H   0  0  0  0  0  0
  -28.3892  -32.6831   25.0303 H   0  0  0  0  0  0
  -28.0734  -31.8358   26.5369 H   0  0  0  0  0  0
  -28.2534  -38.0141   24.7599 H   0  0  0  0  0  0
  -28.1153  -36.2682   24.6100 H   0  0  0  0  0  0
  -27.2334  -37.1212   25.8845 H   0  0  0  0  0  0
  -20.9265  -29.8759   21.6928 H   0  0  0  0  0  0
  -26.0139  -38.2829   24.1581 H   0  0  0  0  0  0
  -29.7550  -16.0533   24.1770 H   0  0  0  0  0  0
  -33.8903  -16.6877   23.2116 H   0  0  0  0  0  0
  -31.6578  -24.1419   22.8676 H   0  0  0  0  0  0
  -30.2359  -24.0386   23.8958 H   0  0  0  0  0  0
  -31.4152  -22.8814   25.4582 H   0  0  0  0  0  0
  -32.8515  -22.8601   24.4447 H   0  0  0  0  0  0
  -30.2346  -20.2382   22.7762 H   0  0  0  0  0  0
  -29.4402  -21.2299   24.0084 H   0  0  0  0  0  0
  -31.0996  -22.1772   21.6648 H   0  0  0  0  0  0
  -28.5527  -17.5484   25.4781 H   0  0  0  0  0  0
  -28.7696  -19.1946   24.9119 H   0  0  0  0  0  0
  -29.4266  -18.6859   26.4777 H   0  0  0  0  0  0
  -34.9241  -18.7525   23.4970 H   0  0  0  0  0  0
  -34.6765  -19.0896   25.2031 H   0  0  0  0  0  0
  -34.0607  -20.1945   23.9705 H   0  0  0  0  0  0
  -28.1592  -20.8350   21.7842 H   0  0  0  0  0  0
  -28.8639  -21.2874   20.2369 H   0  0  0  0  0  0
  -27.3179  -21.9555   20.7651 H   0  0  0  0  0  0
  -31.9814  -14.1380   23.7942 H   0  0  0  0  0  0
  -32.8611  -14.7510   22.4281 H   0  0  0  0  0  0
  -32.5135  -20.4753   25.8817 H   0  0  0  0  0  0
  -30.7847  -20.4262   25.9559 H   0  0  0  0  0  0
  -28.1419  -23.5383   19.1540 H   0  0  0  0  0  0
  -27.2742  -24.4131   20.4055 H   0  0  0  0  0  0
  -27.9683  -25.7419   18.2470 H   0  0  0  0  0  0
  -29.5942  -25.6156   18.7956 H   0  0  0  0  0  0
  -28.3723  -23.2247   22.5630 H   0  0  0  0  0  0
  -30.0365  -13.9837   22.6094 H   0  0  0  0  0  0
  -32.2909  -20.9411   23.5200 H   0  0  0  0  0  0
  -29.5086  -24.7972   21.4066 H   0  0  0  0  0  0
  -30.1449  -23.7689   20.3272 H   0  0  0  0  0  0
  1 25  1  0  0  0
  1 30  2  0  0  0
  1 89  1  0  0  0
  2  3  1  0  0  0
  2 25  1  0  0  0
  2 92  1  0  0  0
  2 93  1  0  0  0
  3  4  1  0  0  0
  3 94  1  0  0  0
  3 95  1  0  0  0
  4  5  1  0  0  0
  4 96  1  0  0  0
  4 97  1  0  0  0
  5  6  1  0  0  0
  5 26  1  0  0  0
  5 98  1  0  0  0
  6 25  1  0  0  0
  6 99  1  0  0  0
  6100  1  0  0  0
  7  8  2  0  0  0
  7 26  1  0  0  0
  7 29  1  0  0  0
  8  9  1  0  0  0
  8 22  1  0  0  0
  9 10  1  0  0  0
  9 27  2  0  0  0
 10 11  2  0  0  0
 10 15  1  0  0  0
 11 12  1  0  0  0
 11101  1  0  0  0
 12 13  2  0  0  0
 12102  1  0  0  0
 13 14  1  0  0  0
 13 31  1  0  0  0
 14 15  2  0  0  0
 14103  1  0  0  0
 15104  1  0  0  0
 16 17  2  0  0  0
 16 21  1  0  0  0
 16 31  1  0  0  0
 17 18  1  0  0  0
 17105  1  0  0  0
 18 19  2  0  0  0
 18106  1  0  0  0
 19 20  1  0  0  0
 19 24  1  0  0  0
 20 21  2  0  0  0
 20107  1  0  0  0
 21 23  1  0  0  0
 22 28  1  0  0  0
 22 32  2  0  0  0
 26 27  1  0  0  0
 28108  1  0  0  0
 28109  1  0  0  0
 29110  1  0  0  0
 29111  1  0  0  0
 33 34  1  0  0  0
 33 66  1  0  0  0
 33 70  2  0  0  0
 34 36  1  0  0  0
 34 59  1  0  0  0
 34112  1  0  0  0
 35 44  2  0  0  0
 35 45  1  0  0  0
 35 68  1  0  0  0
 36 56  1  0  0  0
 36113  1  0  0  0
 37 39  1  0  0  0
 37 47  1  0  0  0
 37 66  1  0  0  0
 37114  1  0  0  0
 38 43  2  0  0  0
 38 46  1  0  0  0
 38 47  1  0  0  0
 39 64  1  0  0  0
 39 67  2  0  0  0
 40 52  1  0  0  0
 40 53  2  0  0  0
 40 58  1  0  0  0
 41115  1  0  0  0
 41116  1  0  0  0
 41117  1  0  0  0
 41 48  1  0  0  0
 42 43  1  0  0  0
 42 66  1  0  0  0
 42118  1  0  0  0
 42119  1  0  0  0
 43 44  1  0  0  0
 44120  1  0  0  0
 45 46  2  0  0  0
 45121  1  0  0  0
 46122  1  0  0  0
 47123  1  0  0  0
 47124  1  0  0  0
 48 56  1  0  0  0
 48 65  1  0  0  0
 48125  1  0  0  0
 49 50  1  0  0  0
 49 53  1  0  0  0
 49 64  1  0  0  0
 49126  1  0  0  0
 50 51  1  0  0  0
 50127  1  0  0  0
 50128  1  0  0  0
 51 52  1  0  0  0
 51129  1  0  0  0
 51130  1  0  0  0
 52131  1  0  0  0
 52132  1  0  0  0
 53 54  1  0  0  0
 54 55  2  0  0  0
 54133  1  0  0  0
 55 57  1  0  0  0
 55134  1  0  0  0
 56 69  2  0  0  0
 57 58  2  0  0  0
 57135  1  0  0  0
 58136  1  0  0  0
 59 60  1  0  0  0
 59 61  1  0  0  0
 59 62  1  0  0  0
 60137  1  0  0  0
 60138  1  0  0  0
 60139  1  0  0  0
 61140  1  0  0  0
 61141  1  0  0  0
 61142  1  0  0  0
 62143  1  0  0  0
 62144  1  0  0  0
 62145  1  0  0  0
 63 65  1  0  0  0
 63146  1  0  0  0
 63147  1  0  0  0
 63148  1  0  0  0
 64149  1  0  0  0
 65150  1  0  0  0
 68 87  1  0  0  0
 71 73  2  0  0  0
 71 74  1  0  0  0
 71151  1  0  0  0
 72 73  1  0  0  0
 72 75  2  0  0  0
 72152  1  0  0  0
 73 84  1  0  0  0
 74 76  2  0  0  0
 74 81  1  0  0  0
 75 76  1  0  0  0
 75 82  1  0  0  0
 76 85  1  0  0  0
 77 78  1  0  0  0
 77153  1  0  0  0
 77154  1  0  0  0
 77 80  1  0  0  0
 78 90  1  0  0  0
 78155  1  0  0  0
 78156  1  0  0  0
 79 80  1  0  0  0
 79 90  1  0  0  0
 79157  1  0  0  0
 79158  1  0  0  0
 80 88  1  0  0  0
 80159  1  0  0  0
 81160  1  0  0  0
 81161  1  0  0  0
 81162  1  0  0  0
 82163  1  0  0  0
 82164  1  0  0  0
 82165  1  0  0  0
 83166  1  0  0  0
 83167  1  0  0  0
 83168  1  0  0  0
 83 88  1  0  0  0
 84 89  1  0  0  0
 84169  1  0  0  0
 84170  1  0  0  0
 85171  1  0  0  0
 85172  1  0  0  0
 85 90  1  0  0  0
 86 87  1  0  0  0
 86 91  1  0  0  0
 86173  1  0  0  0
 86174  1  0  0  0
 87175  1  0  0  0
 87176  1  0  0  0
 88 91  1  0  0  0
 88177  1  0  0  0
 89178  1  0  0  0
 90179  1  0  0  0
 91180  1  0  0  0
 91181  1  0  0  0
M  CHG  2  90   1  91   1
M  ISO  4   1 100  68 101  87 101  89 100
M  END
> <chiral flag>
0

> <version>
0

> <s_m_source_file>
/data/baiqing/PycharmProjects/Reinvent-master-3.2/result/LINK_invent/BTK/process_docking_weight1_custom_sum_contain_oxygen_bond_distance_aromatic_linkinvent_7_9_3/rearranged_h_0135.sdf

> <i_m_source_file_index>
58

> <r_mmod_Potential_Energy-OPLS-2005>
-291.424346923828

> <r_mmod_Stretch_Energy-OPLS-2005>
35.694278717041

> <r_mmod_Bend_Energy-OPLS-2005>
126.076850891113

> <r_mmod_Torsional_Energy-OPLS-2005>
279.541900634766

> <r_mmod_Improper_Torsional_Energy-OPLS-2005>
8.87274169921875

> <r_mmod_Van_der_Waal_Energy-OPLS-2005>
156.35481262207

> <r_mmod_Electrostatic_Energy-OPLS-2005>
-8.30905532836914

> <r_mmod_Solvation_Energy-OPLS-2005>
-903.310180664062

> <b_mmod_Minimization_Converged-OPLS-2005>
0

> <r_mmod_RMS_Derivative-OPLS-2005>
2.99987387657166

$$$$
58
                    3D
 Structure written by MMmdl.
171180  0  0  1  0            999 V2000
  -30.8084  -14.3174   20.7318 C   0  0  0  0  0  0
  -30.4103  -12.2945   19.3783 C   0  0  0  0  0  0
  -29.4731  -12.5319   18.1825 C   0  0  0  0  0  0
  -28.0025  -12.3786   18.6075 C   0  0  0  0  0  0
  -27.6638  -13.2036   19.8751 C   0  0  2  0  0  0
  -28.7015  -12.9540   20.9905 C   0  0  0  0  0  0
  -25.2599  -13.8163   20.5678 C   0  0  0  0  0  0
  -24.1841  -13.0443   20.9171 C   0  0  0  0  0  0
  -24.6387  -11.6906   20.8729 C   0  0  0  0  0  0
  -23.9054  -10.4295   21.0406 C   0  0  0  0  0  0
  -24.3607   -9.4211   21.9183 C   0  0  0  0  0  0
  -23.6286   -8.2247   22.0753 C   0  0  0  0  0  0
  -22.4271   -8.0283   21.3540 C   0  0  0  0  0  0
  -21.9905   -9.0254   20.4642 C   0  0  0  0  0  0
  -22.7230  -10.2135   20.3051 C   0  0  0  0  0  0
  -21.6850   -6.0736   22.5276 C   0  0  0  0  0  0
  -21.4016   -6.5640   23.8210 C   0  0  0  0  0  0
  -21.3658   -5.6792   24.9173 C   0  0  0  0  0  0
  -21.6044   -4.3053   24.7225 C   0  0  0  0  0  0
  -21.8817   -3.8147   23.4345 C   0  0  0  0  0  0
  -21.9193   -4.6964   22.3402 C   0  0  0  0  0  0
  -22.7865  -13.5244   21.1841 C   0  0  0  0  0  0
  -22.1660   -4.2151   21.0978 F   0  0  0  0  0  0
  -21.5628   -3.4536   25.7739 F   0  0  0  0  0  0
  -30.0483  -13.2294   20.4530 N   0  0  0  0  0  0
  -26.3032  -12.9327   20.3364 N   0  0  0  0  0  0
  -25.9312  -11.6487   20.5754 N   0  0  0  0  0  0
  -22.0502  -12.8235   22.0392 N   0  0  0  0  0  0
  -25.4345  -15.1881   20.4091 N   0  0  0  0  0  0
  -31.7870  -14.6570   20.0599 O   0  0  0  0  0  0
  -21.6634   -6.8879   21.4237 O   0  0  0  0  0  0
  -22.3555  -14.5556   20.6699 O   0  0  0  0  0  0
  -24.6116  -31.8703   23.2111 C   0  0  0  0  0  0
  -25.9023  -32.4832   23.8397 C   0  0  1  0  0  0
  -27.2356  -27.4556   20.0862 C   0  0  0  0  0  0
  -25.5890  -33.8628   24.2328 N   0  0  0  0  0  0
  -23.3973  -30.4926   21.5534 C   0  0  2  0  0  0
  -24.8391  -28.9557   20.1217 C   0  0  0  0  0  0
  -22.7389  -29.4675   22.5042 C   0  0  0  0  0  0
  -18.0268  -28.1377   22.8489 C   0  0  0  0  0  0
  -24.1498  -36.7306   23.2639 C   0  0  0  0  0  0
  -25.9233  -30.8400   21.3601 C   0  0  0  0  0  0
  -25.9992  -29.4755   20.7089 C   0  0  0  0  0  0
  -27.1983  -28.7336   20.6839 C   0  0  0  0  0  0
  -26.0512  -26.9361   19.5120 C   0  0  0  0  0  0
  -24.8583  -27.6832   19.5260 C   0  0  0  0  0  0
  -23.6008  -29.8200   20.1697 C   0  0  0  0  0  0
  -25.4120  -36.3112   24.0342 C   0  0  1  0  0  0
  -20.5850  -28.3648   23.1344 C   0  0  2  0  0  0
  -20.6755  -26.9395   22.5417 C   0  0  0  0  0  0
  -19.5733  -26.6380   21.5214 C   0  0  0  0  0  0
  -18.1910  -26.7925   22.1627 C   0  0  0  0  0  0
  -19.1515  -28.8835   23.2908 C   0  0  0  0  0  0
  -18.9448  -30.1445   23.8913 C   0  0  0  0  0  0
  -17.6450  -30.6583   24.0572 C   0  0  0  0  0  0
  -25.9041  -34.9479   23.5135 C   0  0  0  0  0  0
  -16.5343  -29.9083   23.6332 C   0  0  0  0  0  0
  -16.7259  -28.6506   23.0342 C   0  0  0  0  0  0
  -26.4457  -31.6613   25.0726 C   0  0  0  0  0  0
  -25.3724  -31.3706   26.1475 C   0  0  0  0  0  0
  -27.0308  -30.3075   24.6080 C   0  0  0  0  0  0
  -27.6037  -32.4332   25.7481 C   0  0  0  0  0  0
  -27.5591  -37.1803   24.8469 C   0  0  0  0  0  0
  -21.4124  -29.3028   22.3772 N   0  0  0  0  0  0
  -26.4309  -37.3789   23.9409 N   0  0  0  0  0  0
  -24.6625  -31.0810   22.1003 N   0  0  0  0  0  0
  -23.4178  -28.8219   23.3071 O   0  0  0  0  0  0
  -28.4467  -26.8008   20.0402 O   0  0  0  0  0  0
  -26.5596  -34.8929   22.4692 O   0  0  0  0  0  0
  -23.5318  -32.1454   23.7527 O   0  0  0  0  0  0
  -28.6316  -25.5610   22.5986 C   0  0  0  0  0  0
  -28.5715  -24.9875   23.8806 C   0  0  0  0  0  0
  -27.9989  -23.4243   21.6173 C   0  0  0  0  0  0
  -28.3433  -24.7834   21.4593 C   0  0  0  0  0  0
  -28.2480  -23.6239   24.0418 C   0  0  0  0  0  0
  -27.9635  -22.8293   22.8995 C   0  0  0  0  0  0
  -28.5565  -18.9896   23.4428 C   0  0  0  0  0  0
  -30.6711  -19.4978   21.5897 C   0  0  0  0  0  0
  -30.3280  -18.0766   22.1082 C   0  0  1  0  0  0
  -28.8793  -20.4296   22.9852 C   0  0  2  0  0  0
  -28.2166  -23.0473   25.4475 C   0  0  0  0  0  0
  -27.6319  -21.3431   23.0263 C   0  0  0  0  0  0
  -28.4832  -25.3738   20.0639 C   0  0  0  0  0  0
  -31.5965  -17.1985   22.1425 C   0  0  0  0  0  0
  -31.4297  -15.7561   22.6699 C   0  0  0  0  0  0
  -29.7756  -18.1797   23.4615 N   0  0  0  0  0  0
  -30.5187  -14.9122   21.8957 N   0  0  0  0  0  0
  -29.4949  -20.3908   21.6396 N   0  3  0  0  0  0
  -31.4516  -12.3983   19.0672 H   0  0  0  0  0  0
  -30.3122  -11.2695   19.7397 H   0  0  0  0  0  0
  -29.7040  -11.8309   17.3790 H   0  0  0  0  0  0
  -29.6379  -13.5310   17.7760 H   0  0  0  0  0  0
  -27.8161  -11.3199   18.7926 H   0  0  0  0  0  0
  -27.3428  -12.6636   17.7873 H   0  0  0  0  0  0
  -27.7209  -14.2568   19.5986 H   0  0  0  0  0  0
  -28.6583  -11.9162   21.3240 H   0  0  0  0  0  0
  -28.4449  -13.5521   21.8651 H   0  0  0  0  0  0
  -25.2752   -9.5691   22.4757 H   0  0  0  0  0  0
  -23.9996   -7.4640   22.7471 H   0  0  0  0  0  0
  -21.0839   -8.8768   19.8945 H   0  0  0  0  0  0
  -22.3687  -10.9673   19.6159 H   0  0  0  0  0  0
  -21.2007   -7.6148   23.9716 H   0  0  0  0  0  0
  -21.1482   -6.0522   25.9077 H   0  0  0  0  0  0
  -22.0598   -2.7609   23.2843 H   0  0  0  0  0  0
  -22.4098  -11.9884   22.4766 H   0  0  0  0  0  0
  -21.1123  -13.1268   22.2598 H   0  0  0  0  0  0
  -24.6733  -15.8497   20.5188 H   0  0  0  0  0  0
  -26.2955  -15.6217   20.0984 H   0  0  0  0  0  0
  -26.7097  -32.5552   23.1166 H   0  0  0  0  0  0
  -25.0065  -33.9788   25.0489 H   0  0  0  0  0  0
  -22.6858  -31.3094   21.4137 H   0  0  0  0  0  0
  -23.3766  -35.9632   23.3313 H   0  0  0  0  0  0
  -24.3589  -36.8906   22.2048 H   0  0  0  0  0  0
  -23.7241  -37.6513   23.6645 H   0  0  0  0  0  0
  -26.0328  -31.6066   20.5920 H   0  0  0  0  0  0
  -26.8122  -30.8913   21.9775 H   0  0  0  0  0  0
  -28.1004  -29.1373   21.1220 H   0  0  0  0  0  0
  -26.0257  -25.9730   19.0275 H   0  0  0  0  0  0
  -23.9650  -27.2745   19.0732 H   0  0  0  0  0  0
  -23.7030  -30.5911   19.4047 H   0  0  0  0  0  0
  -22.7257  -29.2339   19.8816 H   0  0  0  0  0  0
  -25.1292  -36.1980   25.0833 H   0  0  0  0  0  0
  -20.9934  -28.3190   24.1468 H   0  0  0  0  0  0
  -20.5682  -26.2250   23.3595 H   0  0  0  0  0  0
  -21.6626  -26.7452   22.1200 H   0  0  0  0  0  0
  -19.6906  -25.6293   21.1239 H   0  0  0  0  0  0
  -19.6682  -27.3207   20.6757 H   0  0  0  0  0  0
  -17.4184  -26.6686   21.4022 H   0  0  0  0  0  0
  -18.0301  -26.0066   22.9023 H   0  0  0  0  0  0
  -19.7925  -30.7248   24.2296 H   0  0  0  0  0  0
  -17.5009  -31.6274   24.5151 H   0  0  0  0  0  0
  -15.5344  -30.2989   23.7653 H   0  0  0  0  0  0
  -15.8661  -28.0839   22.7033 H   0  0  0  0  0  0
  -24.5887  -30.7075   25.7791 H   0  0  0  0  0  0
  -24.8931  -32.2863   26.4949 H   0  0  0  0  0  0
  -25.8064  -30.8839   27.0219 H   0  0  0  0  0  0
  -26.2857  -29.6830   24.1143 H   0  0  0  0  0  0
  -27.4123  -29.7307   25.4513 H   0  0  0  0  0  0
  -27.8660  -30.4435   23.9208 H   0  0  0  0  0  0
  -27.2661  -33.3620   26.2092 H   0  0  0  0  0  0
  -28.3818  -32.6915   25.0286 H   0  0  0  0  0  0
  -28.0746  -31.8448   26.5368 H   0  0  0  0  0  0
  -28.2600  -38.0108   24.7523 H   0  0  0  0  0  0
  -28.1093  -36.2635   24.6288 H   0  0  0  0  0  0
  -27.2302  -37.1436   25.8870 H   0  0  0  0  0  0
  -20.9292  -29.8761   21.7006 H   0  0  0  0  0  0
  -26.0210  -38.2876   24.1392 H   0  0  0  0  0  0
  -28.9109  -26.6004   22.4957 H   0  0  0  0  0  0
  -28.7908  -25.6045   24.7414 H   0  0  0  0  0  0
  -27.7791  -22.8343   20.7384 H   0  0  0  0  0  0
  -27.8037  -18.5299   22.7995 H   0  0  0  0  0  0
  -28.1358  -19.0075   24.4493 H   0  0  0  0  0  0
  -31.0340  -19.4464   20.5618 H   0  0  0  0  0  0
  -31.4757  -19.9376   22.1813 H   0  0  0  0  0  0
  -29.5927  -17.6090   21.4497 H   0  0  0  0  0  0
  -29.6169  -20.8390   23.6786 H   0  0  0  0  0  0
  -28.5906  -23.7639   26.1795 H   0  0  0  0  0  0
  -28.8355  -22.1538   25.5231 H   0  0  0  0  0  0
  -27.1972  -22.7871   25.7335 H   0  0  0  0  0  0
  -26.9259  -21.0565   22.2456 H   0  0  0  0  0  0
  -27.0920  -21.1772   23.9584 H   0  0  0  0  0  0
  -27.7832  -24.9077   19.3737 H   0  0  0  0  0  0
  -29.4691  -25.0832   19.7006 H   0  0  0  0  0  0
  -32.3524  -17.6914   22.7561 H   0  0  0  0  0  0
  -32.0275  -17.1598   21.1409 H   0  0  0  0  0  0
  -31.0864  -15.7722   23.7046 H   0  0  0  0  0  0
  -32.4091  -15.2741   22.7000 H   0  0  0  0  0  0
  -29.5342  -17.2484   23.7880 H   0  0  0  0  0  0
  -29.7090  -14.5512   22.3797 H   0  0  0  0  0  0
  -28.8190  -20.0644   20.9702 H   0  0  0  0  0  0
  -29.7866  -21.3180   21.3789 H   0  0  0  0  0  0
  1 25  1  0  0  0
  1 30  2  0  0  0
  1 87  1  0  0  0
  2  3  1  0  0  0
  2 25  1  0  0  0
  2 89  1  0  0  0
  2 90  1  0  0  0
  3  4  1  0  0  0
  3 91  1  0  0  0
  3 92  1  0  0  0
  4  5  1  0  0  0
  4 93  1  0  0  0
  4 94  1  0  0  0
  5  6  1  0  0  0
  5 26  1  0  0  0
  5 95  1  0  0  0
  6 25  1  0  0  0
  6 96  1  0  0  0
  6 97  1  0  0  0
  7  8  2  0  0  0
  7 26  1  0  0  0
  7 29  1  0  0  0
  8  9  1  0  0  0
  8 22  1  0  0  0
  9 10  1  0  0  0
  9 27  2  0  0  0
 10 11  2  0  0  0
 10 15  1  0  0  0
 11 12  1  0  0  0
 11 98  1  0  0  0
 12 13  2  0  0  0
 12 99  1  0  0  0
 13 14  1  0  0  0
 13 31  1  0  0  0
 14 15  2  0  0  0
 14100  1  0  0  0
 15101  1  0  0  0
 16 17  2  0  0  0
 16 21  1  0  0  0
 16 31  1  0  0  0
 17 18  1  0  0  0
 17102  1  0  0  0
 18 19  2  0  0  0
 18103  1  0  0  0
 19 20  1  0  0  0
 19 24  1  0  0  0
 20 21  2  0  0  0
 20104  1  0  0  0
 21 23  1  0  0  0
 22 28  1  0  0  0
 22 32  2  0  0  0
 26 27  1  0  0  0
 28105  1  0  0  0
 28106  1  0  0  0
 29107  1  0  0  0
 29108  1  0  0  0
 33 34  1  0  0  0
 33 66  1  0  0  0
 33 70  2  0  0  0
 34 36  1  0  0  0
 34 59  1  0  0  0
 34109  1  0  0  0
 35 44  2  0  0  0
 35 45  1  0  0  0
 35 68  1  0  0  0
 36 56  1  0  0  0
 36110  1  0  0  0
 37 39  1  0  0  0
 37 47  1  0  0  0
 37 66  1  0  0  0
 37111  1  0  0  0
 38 43  2  0  0  0
 38 46  1  0  0  0
 38 47  1  0  0  0
 39 64  1  0  0  0
 39 67  2  0  0  0
 40 52  1  0  0  0
 40 53  2  0  0  0
 40 58  1  0  0  0
 41112  1  0  0  0
 41113  1  0  0  0
 41114  1  0  0  0
 41 48  1  0  0  0
 42 43  1  0  0  0
 42 66  1  0  0  0
 42115  1  0  0  0
 42116  1  0  0  0
 43 44  1  0  0  0
 44117  1  0  0  0
 45 46  2  0  0  0
 45118  1  0  0  0
 46119  1  0  0  0
 47120  1  0  0  0
 47121  1  0  0  0
 48 56  1  0  0  0
 48 65  1  0  0  0
 48122  1  0  0  0
 49 50  1  0  0  0
 49 53  1  0  0  0
 49 64  1  0  0  0
 49123  1  0  0  0
 50 51  1  0  0  0
 50124  1  0  0  0
 50125  1  0  0  0
 51 52  1  0  0  0
 51126  1  0  0  0
 51127  1  0  0  0
 52128  1  0  0  0
 52129  1  0  0  0
 53 54  1  0  0  0
 54 55  2  0  0  0
 54130  1  0  0  0
 55 57  1  0  0  0
 55131  1  0  0  0
 56 69  2  0  0  0
 57 58  2  0  0  0
 57132  1  0  0  0
 58133  1  0  0  0
 59 60  1  0  0  0
 59 61  1  0  0  0
 59 62  1  0  0  0
 60134  1  0  0  0
 60135  1  0  0  0
 60136  1  0  0  0
 61137  1  0  0  0
 61138  1  0  0  0
 61139  1  0  0  0
 62140  1  0  0  0
 62141  1  0  0  0
 62142  1  0  0  0
 63 65  1  0  0  0
 63143  1  0  0  0
 63144  1  0  0  0
 63145  1  0  0  0
 64146  1  0  0  0
 65147  1  0  0  0
 68 83  1  0  0  0
 71 72  2  0  0  0
 71 74  1  0  0  0
 71148  1  0  0  0
 72 75  1  0  0  0
 72149  1  0  0  0
 73 74  2  0  0  0
 73 76  1  0  0  0
 73150  1  0  0  0
 74 83  1  0  0  0
 75 76  2  0  0  0
 75 81  1  0  0  0
 76 82  1  0  0  0
 77 80  1  0  0  0
 77 86  1  0  0  0
 77151  1  0  0  0
 77152  1  0  0  0
 78 79  1  0  0  0
 78 88  1  0  0  0
 78153  1  0  0  0
 78154  1  0  0  0
 79 84  1  0  0  0
 79 86  1  0  0  0
 79155  1  0  0  0
 80 82  1  0  0  0
 80 88  1  0  0  0
 80156  1  0  0  0
 81157  1  0  0  0
 81158  1  0  0  0
 81159  1  0  0  0
 82160  1  0  0  0
 82161  1  0  0  0
 83162  1  0  0  0
 83163  1  0  0  0
 84 85  1  0  0  0
 84164  1  0  0  0
 84165  1  0  0  0
 85 87  1  0  0  0
 85166  1  0  0  0
 85167  1  0  0  0
 86168  1  0  0  0
 87169  1  0  0  0
 88170  1  0  0  0
 88171  1  0  0  0
M  CHG  1  88   1
M  ISO  4   1 100  68 101  83 101  87 100
M  END
> <chiral flag>
0

> <version>
0

> <s_m_source_file>
/data/baiqing/PycharmProjects/Reinvent-master-3.2/result/LINK_invent/BTK/process_docking_weight1_custom_sum_contain_oxygen_bond_distance_aromatic_linkinvent_7_9_3/rearranged_h_0135.sdf

> <i_m_source_file_index>
59

> <r_mmod_Potential_Energy-OPLS-2005>
-182.495651245117

> <r_mmod_Stretch_Energy-OPLS-2005>
34.7028427124023

> <r_mmod_Bend_Energy-OPLS-2005>
97.4718017578125

> <r_mmod_Torsional_Energy-OPLS-2005>
227.728424072266

> <r_mmod_Improper_Torsional_Energy-OPLS-2005>
3.97144174575806

> <r_mmod_Van_der_Waal_Energy-OPLS-2005>
158.722198486328

> <r_mmod_Electrostatic_Energy-OPLS-2005>
-253.638275146484

> <r_mmod_Solvation_Energy-OPLS-2005>
-459.815582275391

> <b_mmod_Minimization_Converged-OPLS-2005>
0

> <r_mmod_RMS_Derivative-OPLS-2005>
1.20405280590057

$$$$
59
                    3D
 Structure written by MMmdl.
151159  0  0  1  0            999 V2000
  -30.6744  -14.6399   20.4690 C   0  0  0  0  0  0
  -30.4163  -12.3859   19.4690 C   0  0  0  0  0  0
  -29.5021  -12.4816   18.2300 C   0  0  0  0  0  0
  -28.0250  -12.3324   18.6410 C   0  0  0  0  0  0
  -27.6430  -13.2284   19.8511 C   0  0  2  0  0  0
  -28.6870  -13.1434   20.9864 C   0  0  0  0  0  0
  -25.2510  -13.8209   20.5702 C   0  0  0  0  0  0
  -24.1793  -13.0455   20.9221 C   0  0  0  0  0  0
  -24.6377  -11.6933   20.8753 C   0  0  0  0  0  0
  -23.9058  -10.4305   21.0409 C   0  0  0  0  0  0
  -24.3614   -9.4222   21.9186 C   0  0  0  0  0  0
  -23.6294   -8.2250   22.0747 C   0  0  0  0  0  0
  -22.4274   -8.0288   21.3540 C   0  0  0  0  0  0
  -21.9909   -9.0264   20.4645 C   0  0  0  0  0  0
  -22.7232  -10.2146   20.3058 C   0  0  0  0  0  0
  -21.6851   -6.0743   22.5280 C   0  0  0  0  0  0
  -21.4018   -6.5645   23.8218 C   0  0  0  0  0  0
  -21.3658   -5.6793   24.9178 C   0  0  0  0  0  0
  -21.6039   -4.3056   24.7225 C   0  0  0  0  0  0
  -21.8818   -3.8152   23.4346 C   0  0  0  0  0  0
  -21.9193   -4.6970   22.3404 C   0  0  0  0  0  0
  -22.7812  -13.5237   21.1884 C   0  0  0  0  0  0
  -22.1659   -4.2160   21.0980 F   0  0  0  0  0  0
  -21.5626   -3.4537   25.7736 F   0  0  0  0  0  0
  -29.9978  -13.4506   20.4051 N   0  0  0  0  0  0
  -26.2935  -12.9411   20.3286 N   0  0  0  0  0  0
  -25.9305  -11.6556   20.5757 N   0  0  0  0  0  0
  -22.0453  -12.8226   22.0441 N   0  0  0  0  0  0
  -25.4195  -15.1933   20.4116 N   0  0  0  0  0  0
  -31.8630  -14.6982   20.1460 O   0  0  0  0  0  0
  -21.6637   -6.8886   21.4240 O   0  0  0  0  0  0
  -22.3495  -14.5541   20.6732 O   0  0  0  0  0  0
  -24.6250  -31.8605   23.2020 C   0  0  0  0  0  0
  -25.9102  -32.4787   23.8348 C   0  0  1  0  0  0
  -27.2236  -27.3269   20.1256 C   0  0  0  0  0  0
  -25.5919  -33.8582   24.2287 N   0  0  0  0  0  0
  -23.4193  -30.4825   21.5441 C   0  0  2  0  0  0
  -24.8671  -28.9358   20.1125 C   0  0  0  0  0  0
  -22.7472  -29.4622   22.4936 C   0  0  0  0  0  0
  -18.0286  -28.1394   22.8491 C   0  0  0  0  0  0
  -24.1481  -36.7293   23.2640 C   0  0  0  0  0  0
  -25.9581  -30.7954   21.3689 C   0  0  0  0  0  0
  -26.0349  -29.4210   20.7161 C   0  0  0  0  0  0
  -27.2205  -28.6286   20.7106 C   0  0  0  0  0  0
  -26.0395  -26.8925   19.4940 C   0  0  0  0  0  0
  -24.8701  -27.6762   19.4918 C   0  0  0  0  0  0
  -23.6343  -29.8149   20.1600 C   0  0  0  0  0  0
  -25.4107  -36.3092   24.0337 C   0  0  1  0  0  0
  -20.5886  -28.3695   23.1287 C   0  0  2  0  0  0
  -20.6776  -26.9419   22.5415 C   0  0  0  0  0  0
  -19.5752  -26.6393   21.5217 C   0  0  0  0  0  0
  -18.1932  -26.7938   22.1628 C   0  0  0  0  0  0
  -19.1539  -28.8861   23.2886 C   0  0  0  0  0  0
  -18.9461  -30.1464   23.8903 C   0  0  0  0  0  0
  -17.6463  -30.6597   24.0568 C   0  0  0  0  0  0
  -25.9043  -34.9458   23.5115 C   0  0  0  0  0  0
  -16.5353  -29.9099   23.6329 C   0  0  0  0  0  0
  -16.7274  -28.6515   23.0351 C   0  0  0  0  0  0
  -26.4494  -31.6589   25.0707 C   0  0  0  0  0  0
  -25.3737  -31.3724   26.1442 C   0  0  0  0  0  0
  -27.0333  -30.3019   24.6139 C   0  0  0  0  0  0
  -27.6058  -32.4312   25.7483 C   0  0  0  0  0  0
  -27.5576  -37.1806   24.8474 C   0  0  0  0  0  0
  -21.4185  -29.3047   22.3681 N   0  0  0  0  0  0
  -26.4288  -37.3783   23.9413 N   0  0  0  0  0  0
  -24.6865  -31.0622   22.0963 N   0  0  0  0  0  0
  -23.4192  -28.8160   23.3018 O   0  0  0  0  0  0
  -28.3273  -26.4669   20.1494 O   0  0  0  0  0  0
  -26.5613  -34.8926   22.4680 O   0  0  0  0  0  0
  -23.5412  -32.1393   23.7355 O   0  0  0  0  0  0
  -30.2531  -19.5837   19.5517 C   0  0  0  0  0  0
  -28.9576  -18.9195   21.4634 C   0  0  0  0  0  0
  -29.7890  -20.9289   19.6702 C   0  0  0  0  0  0
  -28.4924  -20.2662   21.5799 C   0  0  0  0  0  0
  -29.8692  -18.5439   20.4472 C   0  0  0  0  0  0
  -28.9031  -21.3133   20.7071 C   0  0  0  0  0  0
  -30.5970  -17.1497   20.3608 C   0  0  0  0  0  0
  -28.7904  -23.8070   20.1704 C   0  0  0  0  0  0
  -28.1065  -25.1286   20.7483 C   0  0  0  0  0  0
  -29.9752  -15.8087   20.6519 N   0  0  0  0  0  0
  -28.4178  -22.6165   20.9435 O   0  0  0  0  0  0
  -31.4631  -12.4723   19.1729 H   0  0  0  0  0  0
  -30.3237  -11.4080   19.9445 H   0  0  0  0  0  0
  -29.7676  -11.7109   17.5050 H   0  0  0  0  0  0
  -29.6533  -13.4389   17.7294 H   0  0  0  0  0  0
  -27.8592  -11.2836   18.8911 H   0  0  0  0  0  0
  -27.3741  -12.5462   17.7929 H   0  0  0  0  0  0
  -27.6469  -14.2531   19.4790 H   0  0  0  0  0  0
  -28.6952  -12.1478   21.4330 H   0  0  0  0  0  0
  -28.4413  -13.8387   21.7905 H   0  0  0  0  0  0
  -25.2758   -9.5702   22.4762 H   0  0  0  0  0  0
  -24.0013   -7.4634   22.7451 H   0  0  0  0  0  0
  -21.0847   -8.8781   19.8940 H   0  0  0  0  0  0
  -22.3691  -10.9688   19.6168 H   0  0  0  0  0  0
  -21.2012   -7.6153   23.9732 H   0  0  0  0  0  0
  -21.1475   -6.0517   25.9083 H   0  0  0  0  0  0
  -22.0595   -2.7616   23.2841 H   0  0  0  0  0  0
  -22.4067  -11.9903   22.4859 H   0  0  0  0  0  0
  -21.1059  -13.1239   22.2617 H   0  0  0  0  0  0
  -24.6509  -15.8457   20.5245 H   0  0  0  0  0  0
  -26.2650  -15.6354   20.0742 H   0  0  0  0  0  0
  -26.7167  -32.5474   23.1095 H   0  0  0  0  0  0
  -25.0082  -33.9724   25.0444 H   0  0  0  0  0  0
  -22.7126  -31.3024   21.3998 H   0  0  0  0  0  0
  -23.3742  -35.9627   23.3315 H   0  0  0  0  0  0
  -24.3570  -36.8893   22.2050 H   0  0  0  0  0  0
  -23.7229  -37.6501   23.6641 H   0  0  0  0  0  0
  -26.0798  -31.5546   20.5949 H   0  0  0  0  0  0
  -26.8420  -30.8530   21.9920 H   0  0  0  0  0  0
  -28.1184  -28.9947   21.1880 H   0  0  0  0  0  0
  -26.0123  -25.9257   19.0111 H   0  0  0  0  0  0
  -23.9758  -27.2988   19.0146 H   0  0  0  0  0  0
  -23.7544  -30.5901   19.4023 H   0  0  0  0  0  0
  -22.7551  -29.2436   19.8579 H   0  0  0  0  0  0
  -25.1280  -36.1954   25.0829 H   0  0  0  0  0  0
  -20.9980  -28.3277   24.1407 H   0  0  0  0  0  0
  -20.5682  -26.2309   23.3616 H   0  0  0  0  0  0
  -21.6645  -26.7460   22.1204 H   0  0  0  0  0  0
  -19.6912  -25.6302   21.1249 H   0  0  0  0  0  0
  -19.6686  -27.3203   20.6744 H   0  0  0  0  0  0
  -17.4200  -26.6684   21.4032 H   0  0  0  0  0  0
  -18.0332  -26.0084   22.9027 H   0  0  0  0  0  0
  -19.7937  -30.7281   24.2270 H   0  0  0  0  0  0
  -17.5019  -31.6276   24.5176 H   0  0  0  0  0  0
  -15.5355  -30.3006   23.7654 H   0  0  0  0  0  0
  -15.8670  -28.0842   22.7059 H   0  0  0  0  0  0
  -24.5915  -30.7065   25.7775 H   0  0  0  0  0  0
  -24.8924  -32.2891   26.4860 H   0  0  0  0  0  0
  -25.8075  -30.8912   27.0217 H   0  0  0  0  0  0
  -26.2900  -29.6774   24.1170 H   0  0  0  0  0  0
  -27.4050  -29.7265   25.4626 H   0  0  0  0  0  0
  -27.8754  -30.4308   23.9337 H   0  0  0  0  0  0
  -27.2675  -33.3605   26.2073 H   0  0  0  0  0  0
  -28.3872  -32.6881   25.0320 H   0  0  0  0  0  0
  -28.0722  -31.8428   26.5393 H   0  0  0  0  0  0
  -28.2615  -38.0083   24.7502 H   0  0  0  0  0  0
  -28.1049  -36.2617   24.6321 H   0  0  0  0  0  0
  -27.2297  -37.1489   25.8879 H   0  0  0  0  0  0
  -20.9362  -29.8772   21.6893 H   0  0  0  0  0  0
  -26.0177  -38.2860   24.1408 H   0  0  0  0  0  0
  -30.9592  -19.3597   18.7640 H   0  0  0  0  0  0
  -28.6430  -18.1886   22.1952 H   0  0  0  0  0  0
  -30.1424  -21.6650   18.9623 H   0  0  0  0  0  0
  -27.8175  -20.5077   22.3889 H   0  0  0  0  0  0
  -31.4700  -17.2366   21.0102 H   0  0  0  0  0  0
  -31.0071  -17.0843   19.3509 H   0  0  0  0  0  0
  -29.8755  -23.9180   20.1773 H   0  0  0  0  0  0
  -28.4907  -23.6629   19.1322 H   0  0  0  0  0  0
  -28.4322  -25.2246   21.7846 H   0  0  0  0  0  0
  -27.0405  -24.9172   20.8294 H   0  0  0  0  0  0
  -28.9880  -15.7630   20.8520 H   0  0  0  0  0  0
  1 25  1  0  0  0
  1 30  2  0  0  0
  1 80  1  0  0  0
  2  3  1  0  0  0
  2 25  1  0  0  0
  2 82  1  0  0  0
  2 83  1  0  0  0
  3  4  1  0  0  0
  3 84  1  0  0  0
  3 85  1  0  0  0
  4  5  1  0  0  0
  4 86  1  0  0  0
  4 87  1  0  0  0
  5  6  1  0  0  0
  5 26  1  0  0  0
  5 88  1  0  0  0
  6 25  1  0  0  0
  6 89  1  0  0  0
  6 90  1  0  0  0
  7  8  2  0  0  0
  7 26  1  0  0  0
  7 29  1  0  0  0
  8  9  1  0  0  0
  8 22  1  0  0  0
  9 10  1  0  0  0
  9 27  2  0  0  0
 10 11  2  0  0  0
 10 15  1  0  0  0
 11 12  1  0  0  0
 11 91  1  0  0  0
 12 13  2  0  0  0
 12 92  1  0  0  0
 13 14  1  0  0  0
 13 31  1  0  0  0
 14 15  2  0  0  0
 14 93  1  0  0  0
 15 94  1  0  0  0
 16 17  2  0  0  0
 16 21  1  0  0  0
 16 31  1  0  0  0
 17 18  1  0  0  0
 17 95  1  0  0  0
 18 19  2  0  0  0
 18 96  1  0  0  0
 19 20  1  0  0  0
 19 24  1  0  0  0
 20 21  2  0  0  0
 20 97  1  0  0  0
 21 23  1  0  0  0
 22 28  1  0  0  0
 22 32  2  0  0  0
 26 27  1  0  0  0
 28 98  1  0  0  0
 28 99  1  0  0  0
 29100  1  0  0  0
 29101  1  0  0  0
 33 34  1  0  0  0
 33 66  1  0  0  0
 33 70  2  0  0  0
 34 36  1  0  0  0
 34 59  1  0  0  0
 34102  1  0  0  0
 35 44  2  0  0  0
 35 45  1  0  0  0
 35 68  1  0  0  0
 36 56  1  0  0  0
 36103  1  0  0  0
 37 39  1  0  0  0
 37 47  1  0  0  0
 37 66  1  0  0  0
 37104  1  0  0  0
 38 43  2  0  0  0
 38 46  1  0  0  0
 38 47  1  0  0  0
 39 64  1  0  0  0
 39 67  2  0  0  0
 40 52  1  0  0  0
 40 53  2  0  0  0
 40 58  1  0  0  0
 41105  1  0  0  0
 41106  1  0  0  0
 41107  1  0  0  0
 41 48  1  0  0  0
 42 43  1  0  0  0
 42 66  1  0  0  0
 42108  1  0  0  0
 42109  1  0  0  0
 43 44  1  0  0  0
 44110  1  0  0  0
 45 46  2  0  0  0
 45111  1  0  0  0
 46112  1  0  0  0
 47113  1  0  0  0
 47114  1  0  0  0
 48 56  1  0  0  0
 48 65  1  0  0  0
 48115  1  0  0  0
 49 50  1  0  0  0
 49 53  1  0  0  0
 49 64  1  0  0  0
 49116  1  0  0  0
 50 51  1  0  0  0
 50117  1  0  0  0
 50118  1  0  0  0
 51 52  1  0  0  0
 51119  1  0  0  0
 51120  1  0  0  0
 52121  1  0  0  0
 52122  1  0  0  0
 53 54  1  0  0  0
 54 55  2  0  0  0
 54123  1  0  0  0
 55 57  1  0  0  0
 55124  1  0  0  0
 56 69  2  0  0  0
 57 58  2  0  0  0
 57125  1  0  0  0
 58126  1  0  0  0
 59 60  1  0  0  0
 59 61  1  0  0  0
 59 62  1  0  0  0
 60127  1  0  0  0
 60128  1  0  0  0
 60129  1  0  0  0
 61130  1  0  0  0
 61131  1  0  0  0
 61132  1  0  0  0
 62133  1  0  0  0
 62134  1  0  0  0
 62135  1  0  0  0
 63 65  1  0  0  0
 63136  1  0  0  0
 63137  1  0  0  0
 63138  1  0  0  0
 64139  1  0  0  0
 65140  1  0  0  0
 68 79  1  0  0  0
 71 73  2  0  0  0
 71 75  1  0  0  0
 71141  1  0  0  0
 72 74  1  0  0  0
 72 75  2  0  0  0
 72142  1  0  0  0
 73 76  1  0  0  0
 73143  1  0  0  0
 74 76  2  0  0  0
 74144  1  0  0  0
 75 77  1  0  0  0
 76 81  1  0  0  0
 77 80  1  0  0  0
 77145  1  0  0  0
 77146  1  0  0  0
 78 79  1  0  0  0
 78 81  1  0  0  0
 78147  1  0  0  0
 78148  1  0  0  0
 79149  1  0  0  0
 79150  1  0  0  0
 80151  1  0  0  0
M  ISO  4   1 100  68 101  79 101  80 100
M  END
> <chiral flag>
0

> <version>
0

> <s_m_source_file>
/data/baiqing/PycharmProjects/Reinvent-master-3.2/result/LINK_invent/BTK/process_docking_weight1_custom_sum_contain_oxygen_bond_distance_aromatic_linkinvent_7_9_3/rearranged_h_0135.sdf

> <i_m_source_file_index>
60

> <r_mmod_Potential_Energy-OPLS-2005>
36.7274284362793

> <r_mmod_Stretch_Energy-OPLS-2005>
76.701904296875

> <r_mmod_Bend_Energy-OPLS-2005>
155.474868774414

> <r_mmod_Torsional_Energy-OPLS-2005>
221.02214050293

> <r_mmod_Improper_Torsional_Energy-OPLS-2005>
6.35961389541626

> <r_mmod_Van_der_Waal_Energy-OPLS-2005>
143.365112304688

> <r_mmod_Electrostatic_Energy-OPLS-2005>
-407.782104492188

> <r_mmod_Solvation_Energy-OPLS-2005>
-210.192901611328

> <b_mmod_Minimization_Converged-OPLS-2005>
0

> <r_mmod_RMS_Derivative-OPLS-2005>
0.90838497877121

$$$$
60
                    3D
 Structure written by MMmdl.
170178  0  0  1  0            999 V2000
  -30.7327  -14.3388   20.7223 C   0  0  0  0  0  0
  -30.4389  -12.2914   19.3672 C   0  0  0  0  0  0
  -29.4808  -12.5322   18.1824 C   0  0  0  0  0  0
  -28.0069  -12.3825   18.6043 C   0  0  0  0  0  0
  -27.6742  -13.1842   19.8873 C   0  0  2  0  0  0
  -28.7136  -12.8599   20.9864 C   0  0  0  0  0  0
  -25.2645  -13.8118   20.5667 C   0  0  0  0  0  0
  -24.1872  -13.0430   20.9172 C   0  0  0  0  0  0
  -24.6377  -11.6887   20.8716 C   0  0  0  0  0  0
  -23.9029  -10.4285   21.0395 C   0  0  0  0  0  0
  -24.3598   -9.4201   21.9146 C   0  0  0  0  0  0
  -23.6284   -8.2236   22.0721 C   0  0  0  0  0  0
  -22.4261   -8.0274   21.3530 C   0  0  0  0  0  0
  -21.9874   -9.0252   20.4648 C   0  0  0  0  0  0
  -22.7200  -10.2131   20.3047 C   0  0  0  0  0  0
  -21.6839   -6.0757   22.5282 C   0  0  0  0  0  0
  -21.4001   -6.5651   23.8220 C   0  0  0  0  0  0
  -21.3657   -5.6791   24.9174 C   0  0  0  0  0  0
  -21.6032   -4.3051   24.7212 C   0  0  0  0  0  0
  -21.8813   -3.8165   23.4321 C   0  0  0  0  0  0
  -21.9186   -4.6991   22.3393 C   0  0  0  0  0  0
  -22.7890  -13.5253   21.1822 C   0  0  0  0  0  0
  -22.1656   -4.2194   21.0961 F   0  0  0  0  0  0
  -21.5643   -3.4512   25.7709 F   0  0  0  0  0  0
  -30.0634  -13.1851   20.4705 N   0  0  0  0  0  0
  -26.3066  -12.9247   20.3386 N   0  0  0  0  0  0
  -25.9291  -11.6431   20.5753 N   0  0  0  0  0  0
  -22.0517  -12.8211   22.0341 N   0  0  0  0  0  0
  -25.4342  -15.1838   20.4024 N   0  0  0  0  0  0
  -31.6881  -14.7535   20.0571 O   0  0  0  0  0  0
  -21.6625   -6.8886   21.4234 O   0  0  0  0  0  0
  -22.3602  -14.5578   20.6699 O   0  0  0  0  0  0
  -24.6084  -31.8708   23.2135 C   0  0  0  0  0  0
  -25.9024  -32.4822   23.8400 C   0  0  1  0  0  0
  -27.2377  -27.4792   20.0844 C   0  0  0  0  0  0
  -25.5912  -33.8621   24.2336 N   0  0  0  0  0  0
  -23.3922  -30.4938   21.5504 C   0  0  2  0  0  0
  -24.8427  -28.9589   20.1173 C   0  0  0  0  0  0
  -22.7369  -29.4701   22.5013 C   0  0  0  0  0  0
  -18.0284  -28.1341   22.8494 C   0  0  0  0  0  0
  -24.1483  -36.7323   23.2625 C   0  0  0  0  0  0
  -25.9142  -30.8459   21.3624 C   0  0  0  0  0  0
  -25.9947  -29.4764   20.7239 C   0  0  0  0  0  0
  -27.1936  -28.7361   20.7209 C   0  0  0  0  0  0
  -26.0839  -26.9749   19.4538 C   0  0  0  0  0  0
  -24.8797  -27.7028   19.4845 C   0  0  0  0  0  0
  -23.5987  -29.8156   20.1677 C   0  0  0  0  0  0
  -25.4103  -36.3108   24.0322 C   0  0  1  0  0  0
  -20.5862  -28.3680   23.1351 C   0  0  2  0  0  0
  -20.6799  -26.9422   22.5463 C   0  0  0  0  0  0
  -19.5820  -26.6419   21.5206 C   0  0  0  0  0  0
  -18.1982  -26.7886   22.1606 C   0  0  0  0  0  0
  -19.1511  -28.8835   23.2895 C   0  0  0  0  0  0
  -18.9421  -30.1463   23.8848 C   0  0  0  0  0  0
  -17.6418  -30.6594   24.0474 C   0  0  0  0  0  0
  -25.9033  -34.9469   23.5122 C   0  0  0  0  0  0
  -16.5330  -29.9049   23.6282 C   0  0  0  0  0  0
  -16.7258  -28.6445   23.0340 C   0  0  0  0  0  0
  -26.4472  -31.6582   25.0708 C   0  0  0  0  0  0
  -25.3759  -31.3717   26.1483 C   0  0  0  0  0  0
  -27.0283  -30.3023   24.6038 C   0  0  0  0  0  0
  -27.6041  -32.4304   25.7474 C   0  0  0  0  0  0
  -27.5569  -37.1817   24.8457 C   0  0  0  0  0  0
  -21.4108  -29.3041   22.3741 N   0  0  0  0  0  0
  -26.4283  -37.3793   23.9402 N   0  0  0  0  0  0
  -24.6558  -31.0853   22.1013 N   0  0  0  0  0  0
  -23.4174  -28.8257   23.3048 O   0  0  0  0  0  0
  -28.3973  -26.7552   20.0167 O   0  0  0  0  0  0
  -26.5574  -34.8920   22.4671 O   0  0  0  0  0  0
  -23.5310  -32.1434   23.7584 O   0  0  0  0  0  0
  -25.6934  -22.7370   21.6423 C   0  0  0  0  0  0
  -26.6844  -22.6150   23.9994 C   0  0  0  0  0  0
  -25.9822  -24.2285   21.9047 C   0  0  0  0  0  0
  -27.8340  -23.4437   23.4010 C   0  0  0  0  0  0
  -25.8957  -21.8615   22.9004 C   0  0  2  0  0  0
  -30.1348  -16.4268   21.9980 C   0  0  0  0  0  0
  -26.5191  -19.6138   23.5616 C   0  0  0  0  0  0
  -28.3577  -24.7085   21.3119 C   0  0  0  0  0  0
  -28.6493  -16.6951   22.3282 C   0  0  0  0  0  0
  -26.8788  -18.2187   23.0354 C   0  0  0  0  0  0
  -28.8209  -26.1788   21.2474 C   0  0  0  0  0  0
  -30.2530  -14.9871   21.7862 N   0  0  0  0  0  0
  -26.5378  -20.6079   22.4908 N   0  0  0  0  0  0
  -27.3705  -24.4556   22.4009 N   0  3  1  0  0  0
  -28.2968  -18.0991   22.6305 N   0  3  0  0  0  0
  -31.4730  -12.4437   19.0505 H   0  0  0  0  0  0
  -30.3790  -11.2537   19.6999 H   0  0  0  0  0  0
  -29.7063  -11.8404   17.3690 H   0  0  0  0  0  0
  -29.6388  -13.5341   17.7818 H   0  0  0  0  0  0
  -27.8123  -11.3217   18.7683 H   0  0  0  0  0  0
  -27.3504  -12.6912   17.7903 H   0  0  0  0  0  0
  -27.7524  -14.2452   19.6488 H   0  0  0  0  0  0
  -28.6750  -11.7954   21.2277 H   0  0  0  0  0  0
  -28.4478  -13.3598   21.9181 H   0  0  0  0  0  0
  -25.2753   -9.5685   22.4710 H   0  0  0  0  0  0
  -24.0032   -7.4612   22.7398 H   0  0  0  0  0  0
  -21.0804   -8.8745   19.8960 H   0  0  0  0  0  0
  -22.3629  -10.9662   19.6163 H   0  0  0  0  0  0
  -21.1996   -7.6160   23.9734 H   0  0  0  0  0  0
  -21.1479   -6.0519   25.9083 H   0  0  0  0  0  0
  -22.0600   -2.7629   23.2797 H   0  0  0  0  0  0
  -22.4111  -11.9831   22.4647 H   0  0  0  0  0  0
  -21.1117  -13.1193   22.2522 H   0  0  0  0  0  0
  -24.6245  -15.7950   20.4463 H   0  0  0  0  0  0
  -26.2020  -15.5839   19.8792 H   0  0  0  0  0  0
  -26.7103  -32.5568   23.1177 H   0  0  0  0  0  0
  -25.0123  -33.9769   25.0522 H   0  0  0  0  0  0
  -22.6787  -31.3081   21.4100 H   0  0  0  0  0  0
  -23.3725  -35.9679   23.3300 H   0  0  0  0  0  0
  -24.3570  -36.8922   22.2036 H   0  0  0  0  0  0
  -23.7262  -37.6540   23.6634 H   0  0  0  0  0  0
  -26.0084  -31.6036   20.5834 H   0  0  0  0  0  0
  -26.8104  -30.9151   21.9671 H   0  0  0  0  0  0
  -28.0862  -29.1371   21.1819 H   0  0  0  0  0  0
  -26.1206  -26.0265   18.9354 H   0  0  0  0  0  0
  -23.9989  -27.3079   18.9973 H   0  0  0  0  0  0
  -23.6902  -30.5788   19.3956 H   0  0  0  0  0  0
  -22.7291  -29.2181   19.8847 H   0  0  0  0  0  0
  -25.1279  -36.1955   25.0811 H   0  0  0  0  0  0
  -20.9954  -28.3263   24.1470 H   0  0  0  0  0  0
  -20.5650  -26.2310   23.3650 H   0  0  0  0  0  0
  -21.6696  -26.7490   22.1307 H   0  0  0  0  0  0
  -19.7038  -25.6366   21.1143 H   0  0  0  0  0  0
  -19.6732  -27.3288   20.6787 H   0  0  0  0  0  0
  -17.4267  -26.6605   21.3989 H   0  0  0  0  0  0
  -18.0460  -25.9978   22.8971 H   0  0  0  0  0  0
  -19.7889  -30.7302   24.2159 H   0  0  0  0  0  0
  -17.4956  -31.6303   24.4995 H   0  0  0  0  0  0
  -15.5327  -30.2950   23.7562 H   0  0  0  0  0  0
  -15.8653  -28.0747   22.7091 H   0  0  0  0  0  0
  -24.5906  -30.7067   25.7872 H   0  0  0  0  0  0
  -24.8985  -32.2891   26.4937 H   0  0  0  0  0  0
  -25.8132  -30.8911   27.0238 H   0  0  0  0  0  0
  -26.2812  -29.6834   24.1053 H   0  0  0  0  0  0
  -27.4020  -29.7209   25.4477 H   0  0  0  0  0  0
  -27.8664  -30.4347   23.9191 H   0  0  0  0  0  0
  -27.2627  -33.3583   26.2082 H   0  0  0  0  0  0
  -28.3838  -32.6900   25.0298 H   0  0  0  0  0  0
  -28.0714  -31.8414   26.5373 H   0  0  0  0  0  0
  -28.2602  -38.0104   24.7493 H   0  0  0  0  0  0
  -28.1050  -36.2631   24.6294 H   0  0  0  0  0  0
  -27.2284  -37.1482   25.8861 H   0  0  0  0  0  0
  -20.9284  -29.8690   21.6884 H   0  0  0  0  0  0
  -26.0167  -38.2867   24.1412 H   0  0  0  0  0  0
  -26.3252  -22.4064   20.8158 H   0  0  0  0  0  0
  -24.6685  -22.6229   21.2821 H   0  0  0  0  0  0
  -26.0060  -23.2885   24.5242 H   0  0  0  0  0  0
  -27.0560  -21.9533   24.7794 H   0  0  0  0  0  0
  -25.2810  -24.6105   22.6475 H   0  0  0  0  0  0
  -25.7836  -24.8075   21.0047 H   0  0  0  0  0  0
  -28.5311  -22.7385   22.9460 H   0  0  0  0  0  0
  -28.3825  -23.9534   24.1938 H   0  0  0  0  0  0
  -24.9094  -21.6273   23.3054 H   0  0  0  0  0  0
  -30.7774  -16.7221   22.8290 H   0  0  0  0  0  0
  -30.4559  -16.9877   21.1176 H   0  0  0  0  0  0
  -27.1928  -19.8806   24.3764 H   0  0  0  0  0  0
  -25.5145  -19.5604   23.9868 H   0  0  0  0  0  0
  -29.2490  -24.0984   21.4471 H   0  0  0  0  0  0
  -27.9629  -24.3886   20.3454 H   0  0  0  0  0  0
  -28.3721  -16.0889   23.1929 H   0  0  0  0  0  0
  -28.0213  -16.3504   21.5053 H   0  0  0  0  0  0
  -26.2203  -17.9287   22.2142 H   0  0  0  0  0  0
  -26.6932  -17.5127   23.8452 H   0  0  0  0  0  0
  -29.9101  -26.2175   21.2638 H   0  0  0  0  0  0
  -28.4907  -26.7513   22.1161 H   0  0  0  0  0  0
  -29.6179  -14.4227   22.3309 H   0  0  0  0  0  0
  -25.9845  -20.2379   21.7194 H   0  0  0  0  0  0
  -27.3169  -25.3223   22.9167 H   0  0  0  0  0  0
  -28.4497  -18.6932   21.8306 H   0  0  0  0  0  0
  -28.8752  -18.4423   23.3792 H   0  0  0  0  0  0
  1 25  1  0  0  0
  1 30  2  0  0  0
  1 82  1  0  0  0
  2  3  1  0  0  0
  2 25  1  0  0  0
  2 86  1  0  0  0
  2 87  1  0  0  0
  3  4  1  0  0  0
  3 88  1  0  0  0
  3 89  1  0  0  0
  4  5  1  0  0  0
  4 90  1  0  0  0
  4 91  1  0  0  0
  5  6  1  0  0  0
  5 26  1  0  0  0
  5 92  1  0  0  0
  6 25  1  0  0  0
  6 93  1  0  0  0
  6 94  1  0  0  0
  7  8  2  0  0  0
  7 26  1  0  0  0
  7 29  1  0  0  0
  8  9  1  0  0  0
  8 22  1  0  0  0
  9 10  1  0  0  0
  9 27  2  0  0  0
 10 11  2  0  0  0
 10 15  1  0  0  0
 11 12  1  0  0  0
 11 95  1  0  0  0
 12 13  2  0  0  0
 12 96  1  0  0  0
 13 14  1  0  0  0
 13 31  1  0  0  0
 14 15  2  0  0  0
 14 97  1  0  0  0
 15 98  1  0  0  0
 16 17  2  0  0  0
 16 21  1  0  0  0
 16 31  1  0  0  0
 17 18  1  0  0  0
 17 99  1  0  0  0
 18 19  2  0  0  0
 18100  1  0  0  0
 19 20  1  0  0  0
 19 24  1  0  0  0
 20 21  2  0  0  0
 20101  1  0  0  0
 21 23  1  0  0  0
 22 28  1  0  0  0
 22 32  2  0  0  0
 26 27  1  0  0  0
 28102  1  0  0  0
 28103  1  0  0  0
 29104  1  0  0  0
 29105  1  0  0  0
 33 34  1  0  0  0
 33 66  1  0  0  0
 33 70  2  0  0  0
 34 36  1  0  0  0
 34 59  1  0  0  0
 34106  1  0  0  0
 35 44  2  0  0  0
 35 45  1  0  0  0
 35 68  1  0  0  0
 36 56  1  0  0  0
 36107  1  0  0  0
 37 39  1  0  0  0
 37 47  1  0  0  0
 37 66  1  0  0  0
 37108  1  0  0  0
 38 43  2  0  0  0
 38 46  1  0  0  0
 38 47  1  0  0  0
 39 64  1  0  0  0
 39 67  2  0  0  0
 40 52  1  0  0  0
 40 53  2  0  0  0
 40 58  1  0  0  0
 41109  1  0  0  0
 41110  1  0  0  0
 41111  1  0  0  0
 41 48  1  0  0  0
 42 43  1  0  0  0
 42 66  1  0  0  0
 42112  1  0  0  0
 42113  1  0  0  0
 43 44  1  0  0  0
 44114  1  0  0  0
 45 46  2  0  0  0
 45115  1  0  0  0
 46116  1  0  0  0
 47117  1  0  0  0
 47118  1  0  0  0
 48 56  1  0  0  0
 48 65  1  0  0  0
 48119  1  0  0  0
 49 50  1  0  0  0
 49 53  1  0  0  0
 49 64  1  0  0  0
 49120  1  0  0  0
 50 51  1  0  0  0
 50121  1  0  0  0
 50122  1  0  0  0
 51 52  1  0  0  0
 51123  1  0  0  0
 51124  1  0  0  0
 52125  1  0  0  0
 52126  1  0  0  0
 53 54  1  0  0  0
 54 55  2  0  0  0
 54127  1  0  0  0
 55 57  1  0  0  0
 55128  1  0  0  0
 56 69  2  0  0  0
 57 58  2  0  0  0
 57129  1  0  0  0
 58130  1  0  0  0
 59 60  1  0  0  0
 59 61  1  0  0  0
 59 62  1  0  0  0
 60131  1  0  0  0
 60132  1  0  0  0
 60133  1  0  0  0
 61134  1  0  0  0
 61135  1  0  0  0
 61136  1  0  0  0
 62137  1  0  0  0
 62138  1  0  0  0
 62139  1  0  0  0
 63 65  1  0  0  0
 63140  1  0  0  0
 63141  1  0  0  0
 63142  1  0  0  0
 64143  1  0  0  0
 65144  1  0  0  0
 68 81  1  0  0  0
 71 73  1  0  0  0
 71 75  1  0  0  0
 71145  1  0  0  0
 71146  1  0  0  0
 72 74  1  0  0  0
 72 75  1  0  0  0
 72147  1  0  0  0
 72148  1  0  0  0
 73 84  1  0  0  0
 73149  1  0  0  0
 73150  1  0  0  0
 74 84  1  0  0  0
 74151  1  0  0  0
 74152  1  0  0  0
 75 83  1  0  0  0
 75153  1  0  0  0
 76 79  1  0  0  0
 76 82  1  0  0  0
 76154  1  0  0  0
 76155  1  0  0  0
 77 80  1  0  0  0
 77 83  1  0  0  0
 77156  1  0  0  0
 77157  1  0  0  0
 78 81  1  0  0  0
 78158  1  0  0  0
 78159  1  0  0  0
 78 84  1  0  0  0
 79 85  1  0  0  0
 79160  1  0  0  0
 79161  1  0  0  0
 80 85  1  0  0  0
 80162  1  0  0  0
 80163  1  0  0  0
 81164  1  0  0  0
 81165  1  0  0  0
 82166  1  0  0  0
 83167  1  0  0  0
 84168  1  0  0  0
 85169  1  0  0  0
 85170  1  0  0  0
M  CHG  2  84   1  85   1
M  ISO  4   1 100  68 101  81 101  82 100
M  END
> <chiral flag>
0

> <version>
0

> <s_m_source_file>
/data/baiqing/PycharmProjects/Reinvent-master-3.2/result/LINK_invent/BTK/process_docking_weight1_custom_sum_contain_oxygen_bond_distance_aromatic_linkinvent_7_9_3/rearranged_h_0135.sdf

> <i_m_source_file_index>
61

> <r_mmod_Potential_Energy-OPLS-2005>
-301.254058837891

> <r_mmod_Stretch_Energy-OPLS-2005>
33.8261260986328

> <r_mmod_Bend_Energy-OPLS-2005>
101.182945251465

> <r_mmod_Torsional_Energy-OPLS-2005>
300.764434814453

> <r_mmod_Improper_Torsional_Energy-OPLS-2005>
4.893310546875

> <r_mmod_Van_der_Waal_Energy-OPLS-2005>
143.356903076172

> <r_mmod_Electrostatic_Energy-OPLS-2005>
-14.3702707290649

> <r_mmod_Solvation_Energy-OPLS-2005>
-880.302795410156

> <b_mmod_Minimization_Converged-OPLS-2005>
0

> <r_mmod_RMS_Derivative-OPLS-2005>
3.15140175819397

$$$$
61
                    3D
 Structure written by MMmdl.
162170  0  0  1  0            999 V2000
  -30.6015  -14.7842   20.4187 C   0  0  0  0  0  0
  -30.4256  -12.4728   19.4864 C   0  0  0  0  0  0
  -29.5141  -12.5183   18.2420 C   0  0  0  0  0  0
  -28.0341  -12.3556   18.6437 C   0  0  0  0  0  0
  -27.6346  -13.2473   19.8480 C   0  0  2  0  0  0
  -28.6787  -13.2057   20.9845 C   0  0  0  0  0  0
  -25.2436  -13.8227   20.5701 C   0  0  0  0  0  0
  -24.1756  -13.0452   20.9217 C   0  0  0  0  0  0
  -24.6387  -11.6942   20.8751 C   0  0  0  0  0  0
  -23.9068  -10.4311   21.0401 C   0  0  0  0  0  0
  -24.3615   -9.4208   21.9171 C   0  0  0  0  0  0
  -23.6299   -8.2239   22.0750 C   0  0  0  0  0  0
  -22.4274   -8.0277   21.3546 C   0  0  0  0  0  0
  -21.9916   -9.0239   20.4628 C   0  0  0  0  0  0
  -22.7242  -10.2123   20.3035 C   0  0  0  0  0  0
  -21.6852   -6.0721   22.5266 C   0  0  0  0  0  0
  -21.4016   -6.5629   23.8197 C   0  0  0  0  0  0
  -21.3671   -5.6790   24.9162 C   0  0  0  0  0  0
  -21.6056   -4.3057   24.7220 C   0  0  0  0  0  0
  -21.8813   -3.8133   23.4345 C   0  0  0  0  0  0
  -21.9192   -4.6945   22.3394 C   0  0  0  0  0  0
  -22.7761  -13.5181   21.1903 C   0  0  0  0  0  0
  -22.1652   -4.2132   21.0972 F   0  0  0  0  0  0
  -21.5645   -3.4535   25.7737 F   0  0  0  0  0  0
  -29.9770  -13.5536   20.3938 N   0  0  0  0  0  0
  -26.2899  -12.9480   20.3275 N   0  0  0  0  0  0
  -25.9320  -11.6608   20.5733 N   0  0  0  0  0  0
  -22.0438  -12.8156   22.0454 N   0  0  0  0  0  0
  -25.4121  -15.1968   20.4128 N   0  0  0  0  0  0
  -31.7965  -14.8589   20.1238 O   0  0  0  0  0  0
  -21.6642   -6.8860   21.4234 O   0  0  0  0  0  0
  -22.3443  -14.5498   20.6765 O   0  0  0  0  0  0
  -24.6326  -31.8527   23.1967 C   0  0  0  0  0  0
  -25.9144  -32.4767   23.8306 C   0  0  1  0  0  0
  -27.2212  -27.2487   20.1050 C   0  0  0  0  0  0
  -25.5942  -33.8565   24.2275 N   0  0  0  0  0  0
  -23.4335  -30.4740   21.5424 C   0  0  2  0  0  0
  -24.8850  -28.9301   20.1041 C   0  0  0  0  0  0
  -22.7553  -29.4560   22.4897 C   0  0  0  0  0  0
  -18.0305  -28.1404   22.8497 C   0  0  0  0  0  0
  -24.1478  -36.7256   23.2645 C   0  0  0  0  0  0
  -25.9807  -30.7588   21.3814 C   0  0  0  0  0  0
  -26.0596  -29.3812   20.7218 C   0  0  0  0  0  0
  -27.2349  -28.5526   20.7144 C   0  0  0  0  0  0
  -26.0337  -26.8949   19.4243 C   0  0  0  0  0  0
  -24.8787  -27.6956   19.4432 C   0  0  0  0  0  0
  -23.6533  -29.8116   20.1607 C   0  0  0  0  0  0
  -25.4117  -36.3071   24.0342 C   0  0  1  0  0  0
  -20.5905  -28.3684   23.1287 C   0  0  2  0  0  0
  -20.6783  -26.9398   22.5418 C   0  0  0  0  0  0
  -19.5764  -26.6382   21.5230 C   0  0  0  0  0  0
  -18.1941  -26.7958   22.1617 C   0  0  0  0  0  0
  -19.1558  -28.8878   23.2883 C   0  0  0  0  0  0
  -18.9470  -30.1483   23.8871 C   0  0  0  0  0  0
  -17.6469  -30.6598   24.0573 C   0  0  0  0  0  0
  -25.9048  -34.9442   23.5103 C   0  0  0  0  0  0
  -16.5371  -29.9089   23.6330 C   0  0  0  0  0  0
  -16.7292  -28.6519   23.0342 C   0  0  0  0  0  0
  -26.4495  -31.6587   25.0687 C   0  0  0  0  0  0
  -25.3732  -31.3771   26.1421 C   0  0  0  0  0  0
  -27.0319  -30.2993   24.6177 C   0  0  0  0  0  0
  -27.6077  -32.4302   25.7435 C   0  0  0  0  0  0
  -27.5572  -37.1788   24.8476 C   0  0  0  0  0  0
  -21.4241  -29.3005   22.3655 N   0  0  0  0  0  0
  -26.4289  -37.3778   23.9428 N   0  0  0  0  0  0
  -24.7007  -31.0466   22.0961 N   0  0  0  0  0  0
  -23.4247  -28.8100   23.3000 O   0  0  0  0  0  0
  -28.2395  -26.2580   20.1674 O   0  0  0  0  0  0
  -26.5622  -34.8917   22.4657 O   0  0  0  0  0  0
  -23.5456  -32.1324   23.7238 O   0  0  0  0  0  0
  -28.9595  -22.5005   19.9794 C   0  0  0  0  0  0
  -28.3638  -23.4888   20.8839 C   0  0  0  0  0  0
  -28.1658  -22.7380   22.0320 C   0  0  0  0  0  0
  -29.1249  -21.2566   20.6119 C   0  0  0  0  0  0
  -27.4493  -23.1511   23.2907 C   0  0  0  0  0  0
  -30.1736  -19.9797   23.3497 C   0  0  0  0  0  0
  -27.6718  -19.3729   22.9986 C   0  0  0  0  0  0
  -27.7469  -24.9809   20.7942 C   0  0  0  0  0  0
  -29.2259  -18.6078   20.1383 C   0  0  0  0  0  0
  -30.2914  -17.4031   20.3994 C   0  0  0  0  0  0
  -28.7464  -20.4765   23.0544 C   0  0  0  0  0  0
  -28.6904  -21.4356   21.9277 N   0  0  0  0  0  0
  -29.7207  -20.0496   20.0447 N   0  0  0  0  0  0
  -29.8419  -15.9414   20.5599 N   0  0  0  0  0  0
  -31.4701  -12.5854   19.1959 H   0  0  0  0  0  0
  -30.3545  -11.5068   19.9870 H   0  0  0  0  0  0
  -29.8009  -11.7394   17.5350 H   0  0  0  0  0  0
  -29.6503  -13.4677   17.7215 H   0  0  0  0  0  0
  -27.8744  -11.3051   18.8937 H   0  0  0  0  0  0
  -27.3892  -12.5675   17.7905 H   0  0  0  0  0  0
  -27.6175  -14.2666   19.4628 H   0  0  0  0  0  0
  -28.7165  -12.2215   21.4485 H   0  0  0  0  0  0
  -28.4133  -13.9103   21.7754 H   0  0  0  0  0  0
  -25.2754   -9.5684   22.4748 H   0  0  0  0  0  0
  -24.0002   -7.4624   22.7475 H   0  0  0  0  0  0
  -21.0845   -8.8743   19.8929 H   0  0  0  0  0  0
  -22.3690  -10.9653   19.6139 H   0  0  0  0  0  0
  -21.1995   -7.6136   23.9692 H   0  0  0  0  0  0
  -21.1519   -6.0522   25.9067 H   0  0  0  0  0  0
  -22.0588   -2.7597   23.2842 H   0  0  0  0  0  0
  -22.4086  -11.9779   22.4774 H   0  0  0  0  0  0
  -21.1053  -13.1147   22.2702 H   0  0  0  0  0  0
  -24.6476  -15.8537   20.5128 H   0  0  0  0  0  0
  -26.2543  -15.6287   20.0577 H   0  0  0  0  0  0
  -26.7202  -32.5388   23.1020 H   0  0  0  0  0  0
  -25.0119  -33.9712   25.0446 H   0  0  0  0  0  0
  -22.7313  -31.2962   21.3951 H   0  0  0  0  0  0
  -23.3760  -35.9552   23.3313 H   0  0  0  0  0  0
  -24.3589  -36.8847   22.2053 H   0  0  0  0  0  0
  -23.7202  -37.6458   23.6640 H   0  0  0  0  0  0
  -26.1270  -31.5162   20.6098 H   0  0  0  0  0  0
  -26.8611  -30.8109   22.0095 H   0  0  0  0  0  0
  -28.1315  -28.8889   21.2162 H   0  0  0  0  0  0
  -25.9780  -25.9559   18.8916 H   0  0  0  0  0  0
  -23.9821  -27.3468   18.9481 H   0  0  0  0  0  0
  -23.7762  -30.5853   19.4018 H   0  0  0  0  0  0
  -22.7734  -29.2405   19.8586 H   0  0  0  0  0  0
  -25.1292  -36.1915   25.0838 H   0  0  0  0  0  0
  -21.0003  -28.3233   24.1415 H   0  0  0  0  0  0
  -20.5686  -26.2269   23.3602 H   0  0  0  0  0  0
  -21.6643  -26.7400   22.1214 H   0  0  0  0  0  0
  -19.6898  -25.6309   21.1226 H   0  0  0  0  0  0
  -19.6728  -27.3209   20.6791 H   0  0  0  0  0  0
  -17.4216  -26.6719   21.4016 H   0  0  0  0  0  0
  -18.0306  -26.0132   22.9025 H   0  0  0  0  0  0
  -19.7946  -30.7317   24.2192 H   0  0  0  0  0  0
  -17.5027  -31.6270   24.5177 H   0  0  0  0  0  0
  -15.5375  -30.2968   23.7713 H   0  0  0  0  0  0
  -15.8694  -28.0858   22.7026 H   0  0  0  0  0  0
  -24.5988  -30.6985   25.7830 H   0  0  0  0  0  0
  -24.8800  -32.2928   26.4678 H   0  0  0  0  0  0
  -25.8066  -30.9142   27.0299 H   0  0  0  0  0  0
  -26.2877  -29.6764   24.1187 H   0  0  0  0  0  0
  -27.4013  -29.7232   25.4682 H   0  0  0  0  0  0
  -27.8766  -30.4285   23.9411 H   0  0  0  0  0  0
  -27.2743  -33.3666   26.1935 H   0  0  0  0  0  0
  -28.3922  -32.6763   25.0261 H   0  0  0  0  0  0
  -28.0700  -31.8454   26.5406 H   0  0  0  0  0  0
  -28.2588  -38.0074   24.7537 H   0  0  0  0  0  0
  -28.1068  -36.2622   24.6277 H   0  0  0  0  0  0
  -27.2322  -37.1428   25.8885 H   0  0  0  0  0  0
  -20.9419  -29.8732   21.6869 H   0  0  0  0  0  0
  -26.0154  -38.2841   24.1443 H   0  0  0  0  0  0
  -29.1964  -22.6880   18.9410 H   0  0  0  0  0  0
  -26.8393  -24.0395   23.1719 H   0  0  0  0  0  0
  -28.1552  -23.3403   24.0976 H   0  0  0  0  0  0
  -26.7503  -22.3771   23.6083 H   0  0  0  0  0  0
  -30.1685  -18.9971   23.8211 H   0  0  0  0  0  0
  -30.6811  -20.6621   24.0347 H   0  0  0  0  0  0
  -30.7906  -19.9131   22.4543 H   0  0  0  0  0  0
  -27.1026  -19.3306   23.9289 H   0  0  0  0  0  0
  -28.1117  -18.3856   22.8722 H   0  0  0  0  0  0
  -26.9485  -19.5338   22.1956 H   0  0  0  0  0  0
  -27.7561  -25.3260   21.8250 H   0  0  0  0  0  0
  -26.6969  -24.8006   20.5806 H   0  0  0  0  0  0
  -28.3984  -18.5401   20.8272 H   0  0  0  0  0  0
  -28.7591  -18.4077   19.1718 H   0  0  0  0  0  0
  -30.8673  -17.6514   21.2879 H   0  0  0  0  0  0
  -31.0059  -17.4143   19.5736 H   0  0  0  0  0  0
  -28.5034  -21.0162   23.9672 H   0  0  0  0  0  0
  -30.1643  -20.2353   19.1489 H   0  0  0  0  0  0
  -28.8666  -15.7981   20.7809 H   0  0  0  0  0  0
  1 25  1  0  0  0
  1 30  2  0  0  0
  1 84  1  0  0  0
  2  3  1  0  0  0
  2 25  1  0  0  0
  2 85  1  0  0  0
  2 86  1  0  0  0
  3  4  1  0  0  0
  3 87  1  0  0  0
  3 88  1  0  0  0
  4  5  1  0  0  0
  4 89  1  0  0  0
  4 90  1  0  0  0
  5  6  1  0  0  0
  5 26  1  0  0  0
  5 91  1  0  0  0
  6 25  1  0  0  0
  6 92  1  0  0  0
  6 93  1  0  0  0
  7  8  2  0  0  0
  7 26  1  0  0  0
  7 29  1  0  0  0
  8  9  1  0  0  0
  8 22  1  0  0  0
  9 10  1  0  0  0
  9 27  2  0  0  0
 10 11  2  0  0  0
 10 15  1  0  0  0
 11 12  1  0  0  0
 11 94  1  0  0  0
 12 13  2  0  0  0
 12 95  1  0  0  0
 13 14  1  0  0  0
 13 31  1  0  0  0
 14 15  2  0  0  0
 14 96  1  0  0  0
 15 97  1  0  0  0
 16 17  2  0  0  0
 16 21  1  0  0  0
 16 31  1  0  0  0
 17 18  1  0  0  0
 17 98  1  0  0  0
 18 19  2  0  0  0
 18 99  1  0  0  0
 19 20  1  0  0  0
 19 24  1  0  0  0
 20 21  2  0  0  0
 20100  1  0  0  0
 21 23  1  0  0  0
 22 28  1  0  0  0
 22 32  2  0  0  0
 26 27  1  0  0  0
 28101  1  0  0  0
 28102  1  0  0  0
 29103  1  0  0  0
 29104  1  0  0  0
 33 34  1  0  0  0
 33 66  1  0  0  0
 33 70  2  0  0  0
 34 36  1  0  0  0
 34 59  1  0  0  0
 34105  1  0  0  0
 35 44  2  0  0  0
 35 45  1  0  0  0
 35 68  1  0  0  0
 36 56  1  0  0  0
 36106  1  0  0  0
 37 39  1  0  0  0
 37 47  1  0  0  0
 37 66  1  0  0  0
 37107  1  0  0  0
 38 43  2  0  0  0
 38 46  1  0  0  0
 38 47  1  0  0  0
 39 64  1  0  0  0
 39 67  2  0  0  0
 40 52  1  0  0  0
 40 53  2  0  0  0
 40 58  1  0  0  0
 41108  1  0  0  0
 41109  1  0  0  0
 41110  1  0  0  0
 41 48  1  0  0  0
 42 43  1  0  0  0
 42 66  1  0  0  0
 42111  1  0  0  0
 42112  1  0  0  0
 43 44  1  0  0  0
 44113  1  0  0  0
 45 46  2  0  0  0
 45114  1  0  0  0
 46115  1  0  0  0
 47116  1  0  0  0
 47117  1  0  0  0
 48 56  1  0  0  0
 48 65  1  0  0  0
 48118  1  0  0  0
 49 50  1  0  0  0
 49 53  1  0  0  0
 49 64  1  0  0  0
 49119  1  0  0  0
 50 51  1  0  0  0
 50120  1  0  0  0
 50121  1  0  0  0
 51 52  1  0  0  0
 51122  1  0  0  0
 51123  1  0  0  0
 52124  1  0  0  0
 52125  1  0  0  0
 53 54  1  0  0  0
 54 55  2  0  0  0
 54126  1  0  0  0
 55 57  1  0  0  0
 55127  1  0  0  0
 56 69  2  0  0  0
 57 58  2  0  0  0
 57128  1  0  0  0
 58129  1  0  0  0
 59 60  1  0  0  0
 59 61  1  0  0  0
 59 62  1  0  0  0
 60130  1  0  0  0
 60131  1  0  0  0
 60132  1  0  0  0
 61133  1  0  0  0
 61134  1  0  0  0
 61135  1  0  0  0
 62136  1  0  0  0
 62137  1  0  0  0
 62138  1  0  0  0
 63 65  1  0  0  0
 63139  1  0  0  0
 63140  1  0  0  0
 63141  1  0  0  0
 64142  1  0  0  0
 65143  1  0  0  0
 68 78  1  0  0  0
 71 72  1  0  0  0
 71 74  2  0  0  0
 71144  1  0  0  0
 72 73  2  0  0  0
 72 78  1  0  0  0
 73 75  1  0  0  0
 73 82  1  0  0  0
 74 82  1  0  0  0
 74 83  1  0  0  0
 75145  1  0  0  0
 75146  1  0  0  0
 75147  1  0  0  0
 76148  1  0  0  0
 76149  1  0  0  0
 76150  1  0  0  0
 76 81  1  0  0  0
 77 81  1  0  0  0
 77151  1  0  0  0
 77152  1  0  0  0
 77153  1  0  0  0
 78154  1  0  0  0
 78155  1  0  0  0
 79 80  1  0  0  0
 79 83  1  0  0  0
 79156  1  0  0  0
 79157  1  0  0  0
 80 84  1  0  0  0
 80158  1  0  0  0
 80159  1  0  0  0
 81 82  1  0  0  0
 81160  1  0  0  0
 83161  1  0  0  0
 84162  1  0  0  0
M  ISO  4   1 100  68 101  78 101  84 100
M  END
> <chiral flag>
0

> <version>
0

> <s_m_source_file>
/data/baiqing/PycharmProjects/Reinvent-master-3.2/result/LINK_invent/BTK/process_docking_weight1_custom_sum_contain_oxygen_bond_distance_aromatic_linkinvent_7_9_3/rearranged_h_0135.sdf

> <i_m_source_file_index>
62

> <r_mmod_Potential_Energy-OPLS-2005>
270.349395751953

> <r_mmod_Stretch_Energy-OPLS-2005>
134.794708251953

> <r_mmod_Bend_Energy-OPLS-2005>
242.207733154297

> <r_mmod_Torsional_Energy-OPLS-2005>
287.653198242188

> <r_mmod_Improper_Torsional_Energy-OPLS-2005>
9.5065279006958

> <r_mmod_Van_der_Waal_Energy-OPLS-2005>
136.600158691406

> <r_mmod_Electrostatic_Energy-OPLS-2005>
-427.320434570312

> <r_mmod_Solvation_Energy-OPLS-2005>
-223.351516723633

> <b_mmod_Minimization_Converged-OPLS-2005>
0

> <r_mmod_RMS_Derivative-OPLS-2005>
5.28913116455078

$$$$
62
                    3D
 Structure written by MMmdl.
163172  0  0  1  0            999 V2000
  -30.3506  -15.4420   20.3493 C   0  0  0  0  0  0
  -30.4328  -12.9334   19.5455 C   0  0  0  0  0  0
  -29.5443  -12.6162   18.3118 C   0  0  0  0  0  0
  -28.1052  -12.2941   18.7449 C   0  0  0  0  0  0
  -27.6045  -13.2853   19.8219 C   0  0  2  0  0  0
  -28.6252  -13.5303   20.9560 C   0  0  0  0  0  0
  -25.2370  -13.8254   20.5803 C   0  0  0  0  0  0
  -24.1719  -13.0444   20.9275 C   0  0  0  0  0  0
  -24.6368  -11.6939   20.8747 C   0  0  0  0  0  0
  -23.9058  -10.4305   21.0388 C   0  0  0  0  0  0
  -24.3606   -9.4225   21.9174 C   0  0  0  0  0  0
  -23.6291   -8.2253   22.0753 C   0  0  0  0  0  0
  -22.4277   -8.0284   21.3542 C   0  0  0  0  0  0
  -21.9899   -9.0250   20.4643 C   0  0  0  0  0  0
  -22.7221  -10.2135   20.3048 C   0  0  0  0  0  0
  -21.6857   -6.0727   22.5272 C   0  0  0  0  0  0
  -21.4014   -6.5627   23.8208 C   0  0  0  0  0  0
  -21.3666   -5.6780   24.9167 C   0  0  0  0  0  0
  -21.6048   -4.3042   24.7212 C   0  0  0  0  0  0
  -21.8822   -3.8136   23.4332 C   0  0  0  0  0  0
  -21.9192   -4.6954   22.3394 C   0  0  0  0  0  0
  -22.7742  -13.5210   21.1902 C   0  0  0  0  0  0
  -22.1666   -4.2141   21.0971 F   0  0  0  0  0  0
  -21.5627   -3.4528   25.7724 F   0  0  0  0  0  0
  -29.8337  -14.0945   20.3267 N   0  0  0  0  0  0
  -26.2779  -12.9531   20.3219 N   0  0  0  0  0  0
  -25.9304  -11.6628   20.5682 N   0  0  0  0  0  0
  -22.0365  -12.8218   22.0444 N   0  0  0  0  0  0
  -25.4052  -15.1993   20.4338 N   0  0  0  0  0  0
  -31.5703  -15.4354   20.1077 O   0  0  0  0  0  0
  -21.6646   -6.8872   21.4242 O   0  0  0  0  0  0
  -22.3447  -14.5515   20.6729 O   0  0  0  0  0  0
  -24.6720  -31.8139   23.1627 C   0  0  0  0  0  0
  -25.9360  -32.4551   23.8128 C   0  0  1  0  0  0
  -27.2200  -26.8243   20.2003 C   0  0  0  0  0  0
  -25.6008  -33.8368   24.2055 N   0  0  0  0  0  0
  -23.4913  -30.4194   21.5156 C   0  0  2  0  0  0
  -24.9466  -28.7873   20.1099 C   0  0  0  0  0  0
  -22.7720  -29.4383   22.4789 C   0  0  0  0  0  0
  -18.0325  -28.1410   22.8472 C   0  0  0  0  0  0
  -24.1477  -36.7171   23.2646 C   0  0  0  0  0  0
  -26.0633  -30.5874   21.4062 C   0  0  0  0  0  0
  -26.1291  -29.1646   20.7557 C   0  0  0  0  0  0
  -27.2518  -28.2040   20.7786 C   0  0  0  0  0  0
  -26.0144  -26.6327   19.4851 C   0  0  0  0  0  0
  -24.9210  -27.5443   19.4540 C   0  0  0  0  0  0
  -23.7354  -29.7260   20.1442 C   0  0  0  0  0  0
  -25.4123  -36.2952   24.0305 C   0  0  1  0  0  0
  -20.5954  -28.3751   23.1189 C   0  0  2  0  0  0
  -20.6791  -26.9427   22.5413 C   0  0  0  0  0  0
  -19.5761  -26.6373   21.5226 C   0  0  0  0  0  0
  -18.1942  -26.7948   22.1621 C   0  0  0  0  0  0
  -19.1589  -28.8908   23.2808 C   0  0  0  0  0  0
  -18.9490  -30.1498   23.8834 C   0  0  0  0  0  0
  -17.6479  -30.6596   24.0548 C   0  0  0  0  0  0
  -25.9101  -34.9337   23.5008 C   0  0  0  0  0  0
  -16.5370  -29.9075   23.6354 C   0  0  0  0  0  0
  -16.7304  -28.6500   23.0370 C   0  0  0  0  0  0
  -26.4586  -31.6514   25.0680 C   0  0  0  0  0  0
  -25.3711  -31.3823   26.1354 C   0  0  0  0  0  0
  -27.0464  -30.2867   24.6453 C   0  0  0  0  0  0
  -27.6097  -32.4312   25.7463 C   0  0  0  0  0  0
  -27.5563  -37.1741   24.8463 C   0  0  0  0  0  0
  -21.4382  -29.3022   22.3539 N   0  0  0  0  0  0
  -26.4262  -37.3698   23.9426 N   0  0  0  0  0  0
  -24.7646  -30.9711   22.0812 N   0  0  0  0  0  0
  -23.4227  -28.7992   23.3091 O   0  0  0  0  0  0
  -28.1950  -25.6640   20.3452 O   0  0  0  0  0  0
  -26.5698  -34.8888   22.4599 O   0  0  0  0  0  0
  -23.5768  -32.1146   23.6677 O   0  0  0  0  0  0
  -24.3200  -21.3193   18.8880 C   0  0  0  0  0  0
  -24.2048  -21.7813   17.5647 C   0  0  0  0  0  0
  -25.5923  -21.0604   19.4316 C   0  0  0  0  0  0
  -25.3629  -21.9962   16.7965 C   0  0  0  0  0  0
  -26.7643  -21.2627   18.6688 C   0  0  0  0  0  0
  -26.6435  -21.7477   17.3371 C   0  0  0  0  0  0
  -29.7797  -21.3774   20.8856 C   0  0  0  0  0  0
  -29.8365  -19.6925   21.2438 C   0  0  0  0  0  0
  -28.2242  -19.2940   19.6647 C   0  0  0  0  0  0
  -28.1155  -20.9737   19.3303 C   0  0  2  0  0  0
  -28.4456  -22.2356   20.3712 C   0  0  2  0  0  0
  -29.5663  -18.4494   20.1665 C   0  0  2  0  0  0
  -27.8557  -22.0291   16.4647 C   0  0  0  0  0  0
  -28.1832  -24.0329   19.8555 C   0  0  0  0  0  0
  -29.5537  -16.7356   20.4569 N   0  0  0  0  0  0
  -31.4416  -13.1672   19.2034 H   0  0  0  0  0  0
  -30.5434  -12.0512   20.1788 H   0  0  0  0  0  0
  -29.9643  -11.7874   17.7409 H   0  0  0  0  0  0
  -29.5355  -13.4762   17.6410 H   0  0  0  0  0  0
  -28.1002  -11.2829   19.1531 H   0  0  0  0  0  0
  -27.4354  -12.2824   17.8841 H   0  0  0  0  0  0
  -27.4976  -14.2312   19.2894 H   0  0  0  0  0  0
  -28.8342  -12.6180   21.5161 H   0  0  0  0  0  0
  -28.2257  -14.2492   21.6729 H   0  0  0  0  0  0
  -25.2736   -9.5717   22.4759 H   0  0  0  0  0  0
  -23.9997   -7.4648   22.7478 H   0  0  0  0  0  0
  -21.0825   -8.8759   19.8952 H   0  0  0  0  0  0
  -22.3655  -10.9671   19.6165 H   0  0  0  0  0  0
  -21.2010   -7.6135   23.9708 H   0  0  0  0  0  0
  -21.1491   -6.0506   25.9071 H   0  0  0  0  0  0
  -22.0595   -2.7598   23.2826 H   0  0  0  0  0  0
  -22.3968  -11.9881   22.4848 H   0  0  0  0  0  0
  -21.0977  -13.1265   22.2608 H   0  0  0  0  0  0
  -24.6457  -15.8552   20.5781 H   0  0  0  0  0  0
  -26.2532  -15.6412   20.1052 H   0  0  0  0  0  0
  -26.7441  -32.5062   23.0843 H   0  0  0  0  0  0
  -25.0160  -33.9429   25.0215 H   0  0  0  0  0  0
  -22.8083  -31.2528   21.3396 H   0  0  0  0  0  0
  -23.3784  -35.9453   23.3244 H   0  0  0  0  0  0
  -24.3572  -36.8871   22.2075 H   0  0  0  0  0  0
  -23.7159  -37.6315   23.6726 H   0  0  0  0  0  0
  -26.2447  -31.3188   20.6176 H   0  0  0  0  0  0
  -26.9233  -30.6581   22.0595 H   0  0  0  0  0  0
  -28.1367  -28.4908   21.3294 H   0  0  0  0  0  0
  -25.8665  -25.6895   18.9810 H   0  0  0  0  0  0
  -24.0259  -27.2491   18.9244 H   0  0  0  0  0  0
  -23.8927  -30.4906   19.3823 H   0  0  0  0  0  0
  -22.8418  -29.1837   19.8306 H   0  0  0  0  0  0
  -25.1314  -36.1748   25.0792 H   0  0  0  0  0  0
  -21.0021  -28.3337   24.1320 H   0  0  0  0  0  0
  -20.5666  -26.2364   23.3655 H   0  0  0  0  0  0
  -21.6649  -26.7386   22.1217 H   0  0  0  0  0  0
  -19.6904  -25.6274   21.1276 H   0  0  0  0  0  0
  -19.6696  -27.3170   20.6748 H   0  0  0  0  0  0
  -17.4223  -26.6725   21.4007 H   0  0  0  0  0  0
  -18.0290  -26.0091   22.9008 H   0  0  0  0  0  0
  -19.7961  -30.7342   24.2159 H   0  0  0  0  0  0
  -17.5024  -31.6270   24.5156 H   0  0  0  0  0  0
  -15.5364  -30.2949   23.7714 H   0  0  0  0  0  0
  -15.8706  -28.0797   22.7113 H   0  0  0  0  0  0
  -24.5879  -30.7175   25.7693 H   0  0  0  0  0  0
  -24.8917  -32.3048   26.4641 H   0  0  0  0  0  0
  -25.7938  -30.9084   27.0222 H   0  0  0  0  0  0
  -26.3143  -29.6562   24.1396 H   0  0  0  0  0  0
  -27.3909  -29.7221   25.5126 H   0  0  0  0  0  0
  -27.9125  -30.4038   23.9936 H   0  0  0  0  0  0
  -27.2719  -33.3701   26.1863 H   0  0  0  0  0  0
  -28.3992  -32.6716   25.0330 H   0  0  0  0  0  0
  -28.0664  -31.8530   26.5509 H   0  0  0  0  0  0
  -28.2562  -38.0055   24.7541 H   0  0  0  0  0  0
  -28.1073  -36.2592   24.6241 H   0  0  0  0  0  0
  -27.2304  -37.1330   25.8869 H   0  0  0  0  0  0
  -20.9666  -29.8697   21.6635 H   0  0  0  0  0  0
  -26.0109  -38.2753   24.1448 H   0  0  0  0  0  0
  -23.4323  -21.1635   19.4853 H   0  0  0  0  0  0
  -23.2299  -21.9771   17.1392 H   0  0  0  0  0  0
  -25.6664  -20.7084   20.4512 H   0  0  0  0  0  0
  -25.2608  -22.3616   15.7829 H   0  0  0  0  0  0
  -30.5703  -21.5617   20.1581 H   0  0  0  0  0  0
  -30.1288  -21.8897   21.7823 H   0  0  0  0  0  0
  -29.1448  -19.5414   22.0742 H   0  0  0  0  0  0
  -30.8154  -19.5062   21.6861 H   0  0  0  0  0  0
  -27.8997  -18.7921   18.7520 H   0  0  0  0  0  0
  -27.4321  -19.0695   20.3802 H   0  0  0  0  0  0
  -28.8709  -21.0875   18.5553 H   0  0  0  0  0  0
  -27.7323  -22.1329   21.1890 H   0  0  0  0  0  0
  -30.3183  -18.5602   19.3848 H   0  0  0  0  0  0
  -27.5654  -22.4030   15.4818 H   0  0  0  0  0  0
  -28.4429  -21.1237   16.3113 H   0  0  0  0  0  0
  -28.4924  -22.7836   16.9258 H   0  0  0  0  0  0
  -27.1839  -23.9733   19.4292 H   0  0  0  0  0  0
  -28.8239  -24.1000   18.9769 H   0  0  0  0  0  0
  -28.6141  -16.4627   20.7081 H   0  0  0  0  0  0
  1 25  1  0  0  0
  1 30  2  0  0  0
  1 85  1  0  0  0
  2  3  1  0  0  0
  2 25  1  0  0  0
  2 86  1  0  0  0
  2 87  1  0  0  0
  3  4  1  0  0  0
  3 88  1  0  0  0
  3 89  1  0  0  0
  4  5  1  0  0  0
  4 90  1  0  0  0
  4 91  1  0  0  0
  5  6  1  0  0  0
  5 26  1  0  0  0
  5 92  1  0  0  0
  6 25  1  0  0  0
  6 93  1  0  0  0
  6 94  1  0  0  0
  7  8  2  0  0  0
  7 26  1  0  0  0
  7 29  1  0  0  0
  8  9  1  0  0  0
  8 22  1  0  0  0
  9 10  1  0  0  0
  9 27  2  0  0  0
 10 11  2  0  0  0
 10 15  1  0  0  0
 11 12  1  0  0  0
 11 95  1  0  0  0
 12 13  2  0  0  0
 12 96  1  0  0  0
 13 14  1  0  0  0
 13 31  1  0  0  0
 14 15  2  0  0  0
 14 97  1  0  0  0
 15 98  1  0  0  0
 16 17  2  0  0  0
 16 21  1  0  0  0
 16 31  1  0  0  0
 17 18  1  0  0  0
 17 99  1  0  0  0
 18 19  2  0  0  0
 18100  1  0  0  0
 19 20  1  0  0  0
 19 24  1  0  0  0
 20 21  2  0  0  0
 20101  1  0  0  0
 21 23  1  0  0  0
 22 28  1  0  0  0
 22 32  2  0  0  0
 26 27  1  0  0  0
 28102  1  0  0  0
 28103  1  0  0  0
 29104  1  0  0  0
 29105  1  0  0  0
 33 34  1  0  0  0
 33 66  1  0  0  0
 33 70  2  0  0  0
 34 36  1  0  0  0
 34 59  1  0  0  0
 34106  1  0  0  0
 35 44  2  0  0  0
 35 45  1  0  0  0
 35 68  1  0  0  0
 36 56  1  0  0  0
 36107  1  0  0  0
 37 39  1  0  0  0
 37 47  1  0  0  0
 37 66  1  0  0  0
 37108  1  0  0  0
 38 43  2  0  0  0
 38 46  1  0  0  0
 38 47  1  0  0  0
 39 64  1  0  0  0
 39 67  2  0  0  0
 40 52  1  0  0  0
 40 53  2  0  0  0
 40 58  1  0  0  0
 41109  1  0  0  0
 41110  1  0  0  0
 41111  1  0  0  0
 41 48  1  0  0  0
 42 43  1  0  0  0
 42 66  1  0  0  0
 42112  1  0  0  0
 42113  1  0  0  0
 43 44  1  0  0  0
 44114  1  0  0  0
 45 46  2  0  0  0
 45115  1  0  0  0
 46116  1  0  0  0
 47117  1  0  0  0
 47118  1  0  0  0
 48 56  1  0  0  0
 48 65  1  0  0  0
 48119  1  0  0  0
 49 50  1  0  0  0
 49 53  1  0  0  0
 49 64  1  0  0  0
 49120  1  0  0  0
 50 51  1  0  0  0
 50121  1  0  0  0
 50122  1  0  0  0
 51 52  1  0  0  0
 51123  1  0  0  0
 51124  1  0  0  0
 52125  1  0  0  0
 52126  1  0  0  0
 53 54  1  0  0  0
 54 55  2  0  0  0
 54127  1  0  0  0
 55 57  1  0  0  0
 55128  1  0  0  0
 56 69  2  0  0  0
 57 58  2  0  0  0
 57129  1  0  0  0
 58130  1  0  0  0
 59 60  1  0  0  0
 59 61  1  0  0  0
 59 62  1  0  0  0
 60131  1  0  0  0
 60132  1  0  0  0
 60133  1  0  0  0
 61134  1  0  0  0
 61135  1  0  0  0
 61136  1  0  0  0
 62137  1  0  0  0
 62138  1  0  0  0
 62139  1  0  0  0
 63 65  1  0  0  0
 63140  1  0  0  0
 63141  1  0  0  0
 63142  1  0  0  0
 64143  1  0  0  0
 65144  1  0  0  0
 68 84  1  0  0  0
 71 72  2  0  0  0
 71 73  1  0  0  0
 71145  1  0  0  0
 72 74  1  0  0  0
 72146  1  0  0  0
 73 75  2  0  0  0
 73147  1  0  0  0
 74 76  2  0  0  0
 74148  1  0  0  0
 75 76  1  0  0  0
 75 80  1  0  0  0
 76 83  1  0  0  0
 77 78  1  0  0  0
 77 81  1  0  0  0
 77149  1  0  0  0
 77150  1  0  0  0
 78 82  1  0  0  0
 78151  1  0  0  0
 78152  1  0  0  0
 79 80  1  0  0  0
 79 82  1  0  0  0
 79153  1  0  0  0
 79154  1  0  0  0
 80 81  1  0  0  0
 80155  1  0  0  0
 81 84  1  0  0  0
 81156  1  0  0  0
 82 85  1  0  0  0
 82157  1  0  0  0
 83158  1  0  0  0
 83159  1  0  0  0
 83160  1  0  0  0
 84161  1  0  0  0
 84162  1  0  0  0
 85163  1  0  0  0
M  ISO  4   1 100  68 101  84 101  85 100
M  END
> <chiral flag>
0

> <version>
0

> <s_m_source_file>
/data/baiqing/PycharmProjects/Reinvent-master-3.2/result/LINK_invent/BTK/process_docking_weight1_custom_sum_contain_oxygen_bond_distance_aromatic_linkinvent_7_9_3/rearranged_h_0135.sdf

> <i_m_source_file_index>
63

> <r_mmod_Potential_Energy-OPLS-2005>
1860.21069335938

> <r_mmod_Stretch_Energy-OPLS-2005>
768.845703125

> <r_mmod_Bend_Energy-OPLS-2005>
646.357727050781

> <r_mmod_Torsional_Energy-OPLS-2005>
228.817962646484

> <r_mmod_Improper_Torsional_Energy-OPLS-2005>
3.80459904670715

> <r_mmod_Van_der_Waal_Energy-OPLS-2005>
130.835830688477

> <r_mmod_Electrostatic_Energy-OPLS-2005>
-358.794342041016

> <r_mmod_Solvation_Energy-OPLS-2005>
-213.19075012207

> <b_mmod_Minimization_Converged-OPLS-2005>
0

> <r_mmod_RMS_Derivative-OPLS-2005>
1.7590469121933

$$$$
63
                    3D
 Structure written by MMmdl.
154162  0  0  1  0            999 V2000
  -30.6896  -14.5241   20.4615 C   0  0  0  0  0  0
  -30.4107  -12.3048   19.4464 C   0  0  0  0  0  0
  -29.4970  -12.4872   18.2177 C   0  0  0  0  0  0
  -28.0192  -12.3515   18.6274 C   0  0  0  0  0  0
  -27.6549  -13.2133   19.8688 C   0  0  2  0  0  0
  -28.7011  -13.0559   20.9987 C   0  0  0  0  0  0
  -25.2557  -13.8159   20.5697 C   0  0  0  0  0  0
  -24.1849  -13.0405   20.9178 C   0  0  0  0  0  0
  -24.6400  -11.6877   20.8709 C   0  0  0  0  0  0
  -23.9110  -10.4263   21.0369 C   0  0  0  0  0  0
  -24.3667   -9.4188   21.9158 C   0  0  0  0  0  0
  -23.6336   -8.2237   22.0748 C   0  0  0  0  0  0
  -22.4298   -8.0290   21.3555 C   0  0  0  0  0  0
  -21.9942   -9.0248   20.4636 C   0  0  0  0  0  0
  -22.7269  -10.2128   20.3026 C   0  0  0  0  0  0
  -21.6854   -6.0765   22.5285 C   0  0  0  0  0  0
  -21.4017   -6.5653   23.8217 C   0  0  0  0  0  0
  -21.3662   -5.6801   24.9175 C   0  0  0  0  0  0
  -21.6040   -4.3061   24.7224 C   0  0  0  0  0  0
  -21.8818   -3.8183   23.4335 C   0  0  0  0  0  0
  -21.9196   -4.7005   22.3400 C   0  0  0  0  0  0
  -22.7862  -13.5187   21.1842 C   0  0  0  0  0  0
  -22.1643   -4.2187   21.0973 F   0  0  0  0  0  0
  -21.5643   -3.4527   25.7734 F   0  0  0  0  0  0
  -30.0268  -13.3344   20.4286 N   0  0  0  0  0  0
  -26.3009  -12.9357   20.3368 N   0  0  0  0  0  0
  -25.9332  -11.6500   20.5772 N   0  0  0  0  0  0
  -22.0576  -12.8163   22.0414 N   0  0  0  0  0  0
  -25.4180  -15.1909   20.4087 N   0  0  0  0  0  0
  -31.8746  -14.6200   20.1361 O   0  0  0  0  0  0
  -21.6644   -6.8905   21.4247 O   0  0  0  0  0  0
  -22.3499  -14.5465   20.6687 O   0  0  0  0  0  0
  -24.6098  -31.8696   23.2106 C   0  0  0  0  0  0
  -25.8981  -32.4847   23.8441 C   0  0  1  0  0  0
  -27.2370  -27.4122   20.1334 C   0  0  0  0  0  0
  -25.5852  -33.8650   24.2362 N   0  0  0  0  0  0
  -23.4009  -30.4895   21.5506 C   0  0  2  0  0  0
  -24.8510  -28.9477   20.1178 C   0  0  0  0  0  0
  -22.7369  -29.4678   22.5015 C   0  0  0  0  0  0
  -18.0263  -28.1366   22.8488 C   0  0  0  0  0  0
  -24.1482  -36.7316   23.2653 C   0  0  0  0  0  0
  -25.9280  -30.8318   21.3624 C   0  0  0  0  0  0
  -26.0088  -29.4633   20.7117 C   0  0  0  0  0  0
  -27.2029  -28.7060   20.7081 C   0  0  0  0  0  0
  -26.0630  -26.9134   19.5246 C   0  0  0  0  0  0
  -24.8754  -27.6752   19.5172 C   0  0  0  0  0  0
  -23.6100  -29.8127   20.1678 C   0  0  0  0  0  0
  -25.4097  -36.3127   24.0364 C   0  0  1  0  0  0
  -20.5842  -28.3653   23.1328 C   0  0  2  0  0  0
  -20.6744  -26.9392   22.5408 C   0  0  0  0  0  0
  -19.5739  -26.6370   21.5190 C   0  0  0  0  0  0
  -18.1916  -26.7926   22.1601 C   0  0  0  0  0  0
  -19.1511  -28.8824   23.2910 C   0  0  0  0  0  0
  -18.9438  -30.1440   23.8911 C   0  0  0  0  0  0
  -17.6441  -30.6583   24.0554 C   0  0  0  0  0  0
  -25.9006  -34.9493   23.5148 C   0  0  0  0  0  0
  -16.5333  -29.9067   23.6324 C   0  0  0  0  0  0
  -16.7251  -28.6479   23.0346 C   0  0  0  0  0  0
  -26.4419  -31.6641   25.0773 C   0  0  0  0  0  0
  -25.3740  -31.3716   26.1569 C   0  0  0  0  0  0
  -27.0235  -30.3102   24.6104 C   0  0  0  0  0  0
  -27.5995  -32.4401   25.7510 C   0  0  0  0  0  0
  -27.5579  -37.1815   24.8474 C   0  0  0  0  0  0
  -21.4106  -29.3036   22.3739 N   0  0  0  0  0  0
  -26.4291  -37.3794   23.9418 N   0  0  0  0  0  0
  -24.6645  -31.0779   22.1003 N   0  0  0  0  0  0
  -23.4142  -28.8244   23.3077 O   0  0  0  0  0  0
  -28.4200  -26.6996   20.1958 O   0  0  0  0  0  0
  -26.5565  -34.8938   22.4710 O   0  0  0  0  0  0
  -23.5283  -32.1471   23.7508 O   0  0  0  0  0  0
  -30.0827  -19.2296   19.0166 C   0  0  0  0  0  0
  -28.9154  -18.5990   21.0427 C   0  0  0  0  0  0
  -29.6399  -20.5614   19.1589 C   0  0  0  0  0  0
  -28.4762  -19.9473   21.1948 C   0  0  0  0  0  0
  -29.7158  -18.2203   19.9364 C   0  0  0  0  0  0
  -28.8168  -20.9420   20.2344 C   0  0  0  0  0  0
  -30.2024  -16.7857   19.6272 C   0  0  0  0  0  0
  -27.8054  -24.4599   21.2358 C   0  0  0  0  0  0
  -28.2876  -22.9833   21.4401 C   0  0  0  0  0  0
  -28.4449  -25.2589   20.0625 C   0  0  0  0  0  0
  -29.9168  -15.6369   20.5198 N   0  0  0  0  0  0
  -28.3452  -22.2467   20.2188 O   0  0  0  0  0  0
  -31.4598  -12.3660   19.1501 H   0  0  0  0  0  0
  -30.2755  -11.3070   19.8691 H   0  0  0  0  0  0
  -29.7366  -11.7474   17.4514 H   0  0  0  0  0  0
  -29.6724  -13.4630   17.7654 H   0  0  0  0  0  0
  -27.8359  -11.2986   18.8415 H   0  0  0  0  0  0
  -27.3737  -12.6028   17.7869 H   0  0  0  0  0  0
  -27.6812  -14.2523   19.5426 H   0  0  0  0  0  0
  -28.6889  -12.0447   21.4057 H   0  0  0  0  0  0
  -28.4770  -13.7219   21.8345 H   0  0  0  0  0  0
  -25.2816   -9.5671   22.4714 H   0  0  0  0  0  0
  -24.0077   -7.4620   22.7423 H   0  0  0  0  0  0
  -21.0903   -8.8747   19.8902 H   0  0  0  0  0  0
  -22.3722  -10.9688   19.6141 H   0  0  0  0  0  0
  -21.1989   -7.6152   23.9730 H   0  0  0  0  0  0
  -21.1474   -6.0526   25.9081 H   0  0  0  0  0  0
  -22.0591   -2.7647   23.2819 H   0  0  0  0  0  0
  -22.4300  -11.9873   22.4819 H   0  0  0  0  0  0
  -21.1142  -13.1092   22.2549 H   0  0  0  0  0  0
  -24.6381  -15.8296   20.5153 H   0  0  0  0  0  0
  -26.2530  -15.6467   20.0669 H   0  0  0  0  0  0
  -26.7041  -32.5560   23.1212 H   0  0  0  0  0  0
  -25.0069  -33.9856   25.0548 H   0  0  0  0  0  0
  -22.6914  -31.3070   21.4055 H   0  0  0  0  0  0
  -23.3751  -35.9636   23.3332 H   0  0  0  0  0  0
  -24.3574  -36.8891   22.2055 H   0  0  0  0  0  0
  -23.7209  -37.6525   23.6639 H   0  0  0  0  0  0
  -26.0373  -31.5957   20.5928 H   0  0  0  0  0  0
  -26.8166  -30.8928   21.9783 H   0  0  0  0  0  0
  -28.0966  -29.1024   21.1706 H   0  0  0  0  0  0
  -26.0464  -25.9361   19.0640 H   0  0  0  0  0  0
  -23.9833  -27.2686   19.0638 H   0  0  0  0  0  0
  -23.7177  -30.5870   19.4059 H   0  0  0  0  0  0
  -22.7337  -29.2305   19.8734 H   0  0  0  0  0  0
  -25.1263  -36.2015   25.0850 H   0  0  0  0  0  0
  -20.9946  -28.3199   24.1447 H   0  0  0  0  0  0
  -20.5591  -26.2258   23.3589 H   0  0  0  0  0  0
  -21.6623  -26.7403   22.1238 H   0  0  0  0  0  0
  -19.6892  -25.6266   21.1244 H   0  0  0  0  0  0
  -19.6704  -27.3155   20.6702 H   0  0  0  0  0  0
  -17.4178  -26.6683   21.4001 H   0  0  0  0  0  0
  -18.0330  -26.0055   22.8986 H   0  0  0  0  0  0
  -19.7907  -30.7248   24.2293 H   0  0  0  0  0  0
  -17.4986  -31.6267   24.5140 H   0  0  0  0  0  0
  -15.5333  -30.2957   23.7649 H   0  0  0  0  0  0
  -15.8662  -28.0795   22.7065 H   0  0  0  0  0  0
  -24.5885  -30.7069   25.7947 H   0  0  0  0  0  0
  -24.8966  -32.2840   26.5141 H   0  0  0  0  0  0
  -25.8172  -30.8832   27.0254 H   0  0  0  0  0  0
  -26.2737  -29.6921   24.1132 H   0  0  0  0  0  0
  -27.3975  -29.7290   25.4538 H   0  0  0  0  0  0
  -27.8596  -30.4458   23.9251 H   0  0  0  0  0  0
  -27.2581  -33.3676   26.2126 H   0  0  0  0  0  0
  -28.3746  -32.7021   25.0301 H   0  0  0  0  0  0
  -28.0720  -31.8531   26.5389 H   0  0  0  0  0  0
  -28.2610  -38.0103   24.7490 H   0  0  0  0  0  0
  -28.1067  -36.2626   24.6329 H   0  0  0  0  0  0
  -27.2315  -37.1499   25.8889 H   0  0  0  0  0  0
  -20.9257  -29.8761   21.6981 H   0  0  0  0  0  0
  -26.0204  -38.2883   24.1395 H   0  0  0  0  0  0
  -30.7007  -18.9838   18.1647 H   0  0  0  0  0  0
  -28.6099  -17.8550   21.7650 H   0  0  0  0  0  0
  -29.9236  -21.3005   18.4228 H   0  0  0  0  0  0
  -27.8384  -20.1965   22.0317 H   0  0  0  0  0  0
  -31.2747  -16.8705   19.4316 H   0  0  0  0  0  0
  -29.7664  -16.5194   18.6622 H   0  0  0  0  0  0
  -27.9987  -24.9990   22.1652 H   0  0  0  0  0  0
  -26.7217  -24.4705   21.1233 H   0  0  0  0  0  0
  -27.6106  -22.4867   22.1328 H   0  0  0  0  0  0
  -29.2721  -22.9660   21.9113 H   0  0  0  0  0  0
  -28.0369  -24.9438   19.1023 H   0  0  0  0  0  0
  -29.5009  -24.9925   20.0213 H   0  0  0  0  0  0
  -28.9616  -15.5095   20.8101 H   0  0  0  0  0  0
  1 25  1  0  0  0
  1 30  2  0  0  0
  1 81  1  0  0  0
  2  3  1  0  0  0
  2 25  1  0  0  0
  2 83  1  0  0  0
  2 84  1  0  0  0
  3  4  1  0  0  0
  3 85  1  0  0  0
  3 86  1  0  0  0
  4  5  1  0  0  0
  4 87  1  0  0  0
  4 88  1  0  0  0
  5  6  1  0  0  0
  5 26  1  0  0  0
  5 89  1  0  0  0
  6 25  1  0  0  0
  6 90  1  0  0  0
  6 91  1  0  0  0
  7  8  2  0  0  0
  7 26  1  0  0  0
  7 29  1  0  0  0
  8  9  1  0  0  0
  8 22  1  0  0  0
  9 10  1  0  0  0
  9 27  2  0  0  0
 10 11  2  0  0  0
 10 15  1  0  0  0
 11 12  1  0  0  0
 11 92  1  0  0  0
 12 13  2  0  0  0
 12 93  1  0  0  0
 13 14  1  0  0  0
 13 31  1  0  0  0
 14 15  2  0  0  0
 14 94  1  0  0  0
 15 95  1  0  0  0
 16 17  2  0  0  0
 16 21  1  0  0  0
 16 31  1  0  0  0
 17 18  1  0  0  0
 17 96  1  0  0  0
 18 19  2  0  0  0
 18 97  1  0  0  0
 19 20  1  0  0  0
 19 24  1  0  0  0
 20 21  2  0  0  0
 20 98  1  0  0  0
 21 23  1  0  0  0
 22 28  1  0  0  0
 22 32  2  0  0  0
 26 27  1  0  0  0
 28 99  1  0  0  0
 28100  1  0  0  0
 29101  1  0  0  0
 29102  1  0  0  0
 33 34  1  0  0  0
 33 66  1  0  0  0
 33 70  2  0  0  0
 34 36  1  0  0  0
 34 59  1  0  0  0
 34103  1  0  0  0
 35 44  2  0  0  0
 35 45  1  0  0  0
 35 68  1  0  0  0
 36 56  1  0  0  0
 36104  1  0  0  0
 37 39  1  0  0  0
 37 47  1  0  0  0
 37 66  1  0  0  0
 37105  1  0  0  0
 38 43  2  0  0  0
 38 46  1  0  0  0
 38 47  1  0  0  0
 39 64  1  0  0  0
 39 67  2  0  0  0
 40 52  1  0  0  0
 40 53  2  0  0  0
 40 58  1  0  0  0
 41106  1  0  0  0
 41107  1  0  0  0
 41108  1  0  0  0
 41 48  1  0  0  0
 42 43  1  0  0  0
 42 66  1  0  0  0
 42109  1  0  0  0
 42110  1  0  0  0
 43 44  1  0  0  0
 44111  1  0  0  0
 45 46  2  0  0  0
 45112  1  0  0  0
 46113  1  0  0  0
 47114  1  0  0  0
 47115  1  0  0  0
 48 56  1  0  0  0
 48 65  1  0  0  0
 48116  1  0  0  0
 49 50  1  0  0  0
 49 53  1  0  0  0
 49 64  1  0  0  0
 49117  1  0  0  0
 50 51  1  0  0  0
 50118  1  0  0  0
 50119  1  0  0  0
 51 52  1  0  0  0
 51120  1  0  0  0
 51121  1  0  0  0
 52122  1  0  0  0
 52123  1  0  0  0
 53 54  1  0  0  0
 54 55  2  0  0  0
 54124  1  0  0  0
 55 57  1  0  0  0
 55125  1  0  0  0
 56 69  2  0  0  0
 57 58  2  0  0  0
 57126  1  0  0  0
 58127  1  0  0  0
 59 60  1  0  0  0
 59 61  1  0  0  0
 59 62  1  0  0  0
 60128  1  0  0  0
 60129  1  0  0  0
 60130  1  0  0  0
 61131  1  0  0  0
 61132  1  0  0  0
 61133  1  0  0  0
 62134  1  0  0  0
 62135  1  0  0  0
 62136  1  0  0  0
 63 65  1  0  0  0
 63137  1  0  0  0
 63138  1  0  0  0
 63139  1  0  0  0
 64140  1  0  0  0
 65141  1  0  0  0
 68 80  1  0  0  0
 71 73  2  0  0  0
 71 75  1  0  0  0
 71142  1  0  0  0
 72 74  1  0  0  0
 72 75  2  0  0  0
 72143  1  0  0  0
 73 76  1  0  0  0
 73144  1  0  0  0
 74 76  2  0  0  0
 74145  1  0  0  0
 75 77  1  0  0  0
 76 82  1  0  0  0
 77 81  1  0  0  0
 77146  1  0  0  0
 77147  1  0  0  0
 78 79  1  0  0  0
 78 80  1  0  0  0
 78148  1  0  0  0
 78149  1  0  0  0
 79 82  1  0  0  0
 79150  1  0  0  0
 79151  1  0  0  0
 80152  1  0  0  0
 80153  1  0  0  0
 81154  1  0  0  0
M  ISO  4   1 100  68 101  80 101  81 100
M  END
> <chiral flag>
0

> <version>
0

> <s_m_source_file>
/data/baiqing/PycharmProjects/Reinvent-master-3.2/result/LINK_invent/BTK/process_docking_weight1_custom_sum_contain_oxygen_bond_distance_aromatic_linkinvent_7_9_3/rearranged_h_0135.sdf

> <i_m_source_file_index>
64

> <r_mmod_Potential_Energy-OPLS-2005>
-43.8608894348145

> <r_mmod_Stretch_Energy-OPLS-2005>
44.3968620300293

> <r_mmod_Bend_Energy-OPLS-2005>
128.683959960938

> <r_mmod_Torsional_Energy-OPLS-2005>
231.517532348633

> <r_mmod_Improper_Torsional_Energy-OPLS-2005>
11.4373321533203

> <r_mmod_Van_der_Waal_Energy-OPLS-2005>
144.70849609375

> <r_mmod_Electrostatic_Energy-OPLS-2005>
-417.623291015625

> <r_mmod_Solvation_Energy-OPLS-2005>
-211.263778686523

> <b_mmod_Minimization_Converged-OPLS-2005>
0

> <r_mmod_RMS_Derivative-OPLS-2005>
4.2318434715271

$$$$
64
                    3D
 Structure written by MMmdl.
162171  0  0  1  0            999 V2000
  -30.7749  -14.3655   20.7009 C   0  0  0  0  0  0
  -30.4136  -12.3035   19.3875 C   0  0  0  0  0  0
  -29.4770  -12.5327   18.1864 C   0  0  0  0  0  0
  -28.0049  -12.3801   18.6066 C   0  0  0  0  0  0
  -27.6627  -13.2052   19.8753 C   0  0  2  0  0  0
  -28.7018  -12.9532   20.9899 C   0  0  0  0  0  0
  -25.2573  -13.8154   20.5664 C   0  0  0  0  0  0
  -24.1823  -13.0436   20.9160 C   0  0  0  0  0  0
  -24.6378  -11.6900   20.8720 C   0  0  0  0  0  0
  -23.9050  -10.4281   21.0389 C   0  0  0  0  0  0
  -24.3603   -9.4203   21.9167 C   0  0  0  0  0  0
  -23.6279   -8.2240   22.0754 C   0  0  0  0  0  0
  -22.4262   -8.0270   21.3549 C   0  0  0  0  0  0
  -21.9895   -9.0235   20.4642 C   0  0  0  0  0  0
  -22.7221  -10.2113   20.3037 C   0  0  0  0  0  0
  -21.6852   -6.0723   22.5273 C   0  0  0  0  0  0
  -21.4003   -6.5624   23.8200 C   0  0  0  0  0  0
  -21.3665   -5.6785   24.9169 C   0  0  0  0  0  0
  -21.6053   -4.3053   24.7228 C   0  0  0  0  0  0
  -21.8818   -3.8137   23.4349 C   0  0  0  0  0  0
  -21.9186   -4.6950   22.3401 C   0  0  0  0  0  0
  -22.7843  -13.5229   21.1835 C   0  0  0  0  0  0
  -22.1655   -4.2129   21.0984 F   0  0  0  0  0  0
  -21.5641   -3.4540   25.7745 F   0  0  0  0  0  0
  -30.0432  -13.2469   20.4536 N   0  0  0  0  0  0
  -26.3012  -12.9331   20.3357 N   0  0  0  0  0  0
  -25.9304  -11.6483   20.5740 N   0  0  0  0  0  0
  -22.0491  -12.8212   22.0394 N   0  0  0  0  0  0
  -25.4286  -15.1874   20.4095 N   0  0  0  0  0  0
  -31.7957  -14.6582   20.0718 O   0  0  0  0  0  0
  -21.6645   -6.8856   21.4236 O   0  0  0  0  0  0
  -22.3521  -14.5541   20.6700 O   0  0  0  0  0  0
  -24.6099  -31.8699   23.2077 C   0  0  0  0  0  0
  -25.8988  -32.4812   23.8400 C   0  0  1  0  0  0
  -27.2536  -27.4567   20.0765 C   0  0  0  0  0  0
  -25.5854  -33.8627   24.2292 N   0  0  0  0  0  0
  -23.4012  -30.4911   21.5465 C   0  0  2  0  0  0
  -24.8510  -28.9494   20.1211 C   0  0  0  0  0  0
  -22.7376  -29.4696   22.4987 C   0  0  0  0  0  0
  -18.0258  -28.1365   22.8513 C   0  0  0  0  0  0
  -24.1494  -36.7359   23.2635 C   0  0  0  0  0  0
  -25.9267  -30.8336   21.3634 C   0  0  0  0  0  0
  -26.0062  -29.4685   20.7142 C   0  0  0  0  0  0
  -27.2074  -28.7263   20.6949 C   0  0  0  0  0  0
  -26.0693  -26.9376   19.4988 C   0  0  0  0  0  0
  -24.8721  -27.6811   19.5187 C   0  0  0  0  0  0
  -23.6108  -29.8132   20.1662 C   0  0  0  0  0  0
  -25.4111  -36.3116   24.0319 C   0  0  1  0  0  0
  -20.5842  -28.3683   23.1318 C   0  0  2  0  0  0
  -20.6763  -26.9422   22.5412 C   0  0  0  0  0  0
  -19.5740  -26.6384   21.5204 C   0  0  0  0  0  0
  -18.1913  -26.7909   22.1623 C   0  0  0  0  0  0
  -19.1506  -28.8829   23.2918 C   0  0  0  0  0  0
  -18.9444  -30.1425   23.8939 C   0  0  0  0  0  0
  -17.6457  -30.6583   24.0576 C   0  0  0  0  0  0
  -25.9048  -34.9487   23.5121 C   0  0  0  0  0  0
  -16.5354  -29.9090   23.6322 C   0  0  0  0  0  0
  -16.7250  -28.6491   23.0368 C   0  0  0  0  0  0
  -26.4428  -31.6592   25.0734 C   0  0  0  0  0  0
  -25.3690  -31.3626   26.1465 C   0  0  0  0  0  0
  -27.0261  -30.3042   24.6104 C   0  0  0  0  0  0
  -27.6038  -32.4309   25.7447 C   0  0  0  0  0  0
  -27.5586  -37.1804   24.8433 C   0  0  0  0  0  0
  -21.4092  -29.3074   22.3741 N   0  0  0  0  0  0
  -26.4285  -37.3820   23.9396 N   0  0  0  0  0  0
  -24.6638  -31.0790   22.0983 N   0  0  0  0  0  0
  -23.4137  -28.8273   23.3074 O   0  0  0  0  0  0
  -28.4608  -26.7910   20.0745 O   0  0  0  0  0  0
  -26.5658  -34.8923   22.4715 O   0  0  0  0  0  0
  -23.5293  -32.1512   23.7446 O   0  0  0  0  0  0
  -28.6782  -21.7814   21.4970 C   0  0  0  0  0  0
  -28.7612  -20.4412   21.9223 C   0  0  0  0  0  0
  -29.6109  -22.2608   20.5493 C   0  0  0  0  0  0
  -30.5984  -21.3560   20.0940 C   0  0  0  0  0  0
  -29.7678  -19.6146   21.3972 C   0  0  0  0  0  0
  -33.0878  -21.5513   19.1984 C   0  0  0  0  0  0
  -32.5049  -22.9389   19.2658 C   0  0  0  0  0  0
  -31.5938  -21.7508   19.0391 C   0  0  0  0  0  0
  -31.0624  -17.5131   21.5605 C   0  0  0  0  0  0
  -31.1058  -16.1987   22.3650 C   0  0  0  0  0  0
  -28.6350  -25.6144   19.2795 C   0  0  0  0  0  0
  -28.3965  -24.3074   20.0721 C   0  0  0  0  0  0
  -30.6681  -20.0662   20.5013 N   0  0  0  0  0  0
  -29.8412  -18.2746   21.7962 N   0  0  0  0  0  0
  -30.3602  -15.1059   21.7380 N   0  0  0  0  0  0
  -29.6107  -23.5501   20.0530 O   0  0  0  0  0  0
  -31.4547  -12.4099   19.0765 H   0  0  0  0  0  0
  -30.3216  -11.2793   19.7513 H   0  0  0  0  0  0
  -29.7095  -11.8282   17.3874 H   0  0  0  0  0  0
  -29.6424  -13.5295   17.7736 H   0  0  0  0  0  0
  -27.8201  -11.3216   18.7924 H   0  0  0  0  0  0
  -27.3469  -12.6632   17.7839 H   0  0  0  0  0  0
  -27.7183  -14.2585   19.5990 H   0  0  0  0  0  0
  -28.6659  -11.9096   21.3062 H   0  0  0  0  0  0
  -28.4446  -13.5324   21.8757 H   0  0  0  0  0  0
  -25.2742   -9.5684   22.4740 H   0  0  0  0  0  0
  -23.9990   -7.4636   22.7483 H   0  0  0  0  0  0
  -21.0824   -8.8738   19.8946 H   0  0  0  0  0  0
  -22.3673  -10.9640   19.6144 H   0  0  0  0  0  0
  -21.1990   -7.6127   23.9695 H   0  0  0  0  0  0
  -21.1494   -6.0521   25.9066 H   0  0  0  0  0  0
  -22.0598   -2.7597   23.2865 H   0  0  0  0  0  0
  -22.4097  -11.9869   22.4790 H   0  0  0  0  0  0
  -21.1102  -13.1215   22.2604 H   0  0  0  0  0  0
  -24.6656  -15.8472   20.5092 H   0  0  0  0  0  0
  -26.2968  -15.6276   20.1338 H   0  0  0  0  0  0
  -26.7085  -32.5484   23.1185 H   0  0  0  0  0  0
  -24.9846  -33.9843   25.0319 H   0  0  0  0  0  0
  -22.6919  -31.3092   21.3980 H   0  0  0  0  0  0
  -23.3746  -35.9696   23.3269 H   0  0  0  0  0  0
  -24.3581  -36.9045   22.2060 H   0  0  0  0  0  0
  -23.7305  -37.6572   23.6703 H   0  0  0  0  0  0
  -26.0427  -31.5929   20.5902 H   0  0  0  0  0  0
  -26.8133  -30.8893   21.9808 H   0  0  0  0  0  0
  -28.1071  -29.1332   21.1364 H   0  0  0  0  0  0
  -26.0496  -25.9642   19.0332 H   0  0  0  0  0  0
  -23.9757  -27.2716   19.0720 H   0  0  0  0  0  0
  -23.7260  -30.5824   19.4025 H   0  0  0  0  0  0
  -22.7355  -29.2324   19.8699 H   0  0  0  0  0  0
  -25.1287  -36.1979   25.0821 H   0  0  0  0  0  0
  -20.9952  -28.3258   24.1433 H   0  0  0  0  0  0
  -20.5640  -26.2307   23.3610 H   0  0  0  0  0  0
  -21.6643  -26.7451   22.1232 H   0  0  0  0  0  0
  -19.6932  -25.6289   21.1237 H   0  0  0  0  0  0
  -19.6662  -27.3180   20.6726 H   0  0  0  0  0  0
  -17.4194  -26.6674   21.4013 H   0  0  0  0  0  0
  -18.0340  -25.9980   22.8970 H   0  0  0  0  0  0
  -19.7916  -30.7231   24.2325 H   0  0  0  0  0  0
  -17.5011  -31.6245   24.5197 H   0  0  0  0  0  0
  -15.5362  -30.3028   23.7592 H   0  0  0  0  0  0
  -15.8649  -28.0818   22.7094 H   0  0  0  0  0  0
  -24.5895  -30.6943   25.7765 H   0  0  0  0  0  0
  -24.8798  -32.2716   26.4974 H   0  0  0  0  0  0
  -25.8055  -30.8750   27.0184 H   0  0  0  0  0  0
  -26.2799  -29.6769   24.1202 H   0  0  0  0  0  0
  -27.4109  -29.7302   25.4540 H   0  0  0  0  0  0
  -27.8585  -30.4370   23.9189 H   0  0  0  0  0  0
  -27.2746  -33.3646   26.2004 H   0  0  0  0  0  0
  -28.3828  -32.6821   25.0236 H   0  0  0  0  0  0
  -28.0697  -31.8415   26.5340 H   0  0  0  0  0  0
  -28.2566  -38.0132   24.7567 H   0  0  0  0  0  0
  -28.1140  -36.2691   24.6168 H   0  0  0  0  0  0
  -27.2303  -37.1368   25.8828 H   0  0  0  0  0  0
  -20.9262  -29.8809   21.6969 H   0  0  0  0  0  0
  -26.0165  -38.2902   24.1396 H   0  0  0  0  0  0
  -27.9074  -22.4179   21.9027 H   0  0  0  0  0  0
  -28.0470  -20.0669   22.6425 H   0  0  0  0  0  0
  -33.4488  -21.1020   20.1219 H   0  0  0  0  0  0
  -33.6685  -21.3137   18.3094 H   0  0  0  0  0  0
  -32.6715  -23.6042   18.4207 H   0  0  0  0  0  0
  -32.4821  -23.4167   20.2446 H   0  0  0  0  0  0
  -31.1725  -21.6230   18.0433 H   0  0  0  0  0  0
  -31.1979  -17.3339   20.4940 H   0  0  0  0  0  0
  -31.9016  -18.1330   21.8822 H   0  0  0  0  0  0
  -30.7504  -16.3410   23.3849 H   0  0  0  0  0  0
  -32.1468  -15.8806   22.4659 H   0  0  0  0  0  0
  -28.0629  -25.6351   18.3533 H   0  0  0  0  0  0
  -29.6736  -25.6385   18.9456 H   0  0  0  0  0  0
  -27.5974  -23.7358   19.5946 H   0  0  0  0  0  0
  -28.0848  -24.5352   21.0946 H   0  0  0  0  0  0
  -29.2033  -17.9434   22.5113 H   0  0  0  0  0  0
  -29.5198  -14.7989   22.2056 H   0  0  0  0  0  0
  1 25  1  0  0  0
  1 30  2  0  0  0
  1 85  1  0  0  0
  2  3  1  0  0  0
  2 25  1  0  0  0
  2 87  1  0  0  0
  2 88  1  0  0  0
  3  4  1  0  0  0
  3 89  1  0  0  0
  3 90  1  0  0  0
  4  5  1  0  0  0
  4 91  1  0  0  0
  4 92  1  0  0  0
  5  6  1  0  0  0
  5 26  1  0  0  0
  5 93  1  0  0  0
  6 25  1  0  0  0
  6 94  1  0  0  0
  6 95  1  0  0  0
  7  8  2  0  0  0
  7 26  1  0  0  0
  7 29  1  0  0  0
  8  9  1  0  0  0
  8 22  1  0  0  0
  9 10  1  0  0  0
  9 27  2  0  0  0
 10 11  2  0  0  0
 10 15  1  0  0  0
 11 12  1  0  0  0
 11 96  1  0  0  0
 12 13  2  0  0  0
 12 97  1  0  0  0
 13 14  1  0  0  0
 13 31  1  0  0  0
 14 15  2  0  0  0
 14 98  1  0  0  0
 15 99  1  0  0  0
 16 17  2  0  0  0
 16 21  1  0  0  0
 16 31  1  0  0  0
 17 18  1  0  0  0
 17100  1  0  0  0
 18 19  2  0  0  0
 18101  1  0  0  0
 19 20  1  0  0  0
 19 24  1  0  0  0
 20 21  2  0  0  0
 20102  1  0  0  0
 21 23  1  0  0  0
 22 28  1  0  0  0
 22 32  2  0  0  0
 26 27  1  0  0  0
 28103  1  0  0  0
 28104  1  0  0  0
 29105  1  0  0  0
 29106  1  0  0  0
 33 34  1  0  0  0
 33 66  1  0  0  0
 33 70  2  0  0  0
 34 36  1  0  0  0
 34 59  1  0  0  0
 34107  1  0  0  0
 35 44  2  0  0  0
 35 45  1  0  0  0
 35 68  1  0  0  0
 36 56  1  0  0  0
 36108  1  0  0  0
 37 39  1  0  0  0
 37 47  1  0  0  0
 37 66  1  0  0  0
 37109  1  0  0  0
 38 43  2  0  0  0
 38 46  1  0  0  0
 38 47  1  0  0  0
 39 64  1  0  0  0
 39 67  2  0  0  0
 40 52  1  0  0  0
 40 53  2  0  0  0
 40 58  1  0  0  0
 41110  1  0  0  0
 41111  1  0  0  0
 41112  1  0  0  0
 41 48  1  0  0  0
 42 43  1  0  0  0
 42 66  1  0  0  0
 42113  1  0  0  0
 42114  1  0  0  0
 43 44  1  0  0  0
 44115  1  0  0  0
 45 46  2  0  0  0
 45116  1  0  0  0
 46117  1  0  0  0
 47118  1  0  0  0
 47119  1  0  0  0
 48 56  1  0  0  0
 48 65  1  0  0  0
 48120  1  0  0  0
 49 50  1  0  0  0
 49 53  1  0  0  0
 49 64  1  0  0  0
 49121  1  0  0  0
 50 51  1  0  0  0
 50122  1  0  0  0
 50123  1  0  0  0
 51 52  1  0  0  0
 51124  1  0  0  0
 51125  1  0  0  0
 52126  1  0  0  0
 52127  1  0  0  0
 53 54  1  0  0  0
 54 55  2  0  0  0
 54128  1  0  0  0
 55 57  1  0  0  0
 55129  1  0  0  0
 56 69  2  0  0  0
 57 58  2  0  0  0
 57130  1  0  0  0
 58131  1  0  0  0
 59 60  1  0  0  0
 59 61  1  0  0  0
 59 62  1  0  0  0
 60132  1  0  0  0
 60133  1  0  0  0
 60134  1  0  0  0
 61135  1  0  0  0
 61136  1  0  0  0
 61137  1  0  0  0
 62138  1  0  0  0
 62139  1  0  0  0
 62140  1  0  0  0
 63 65  1  0  0  0
 63141  1  0  0  0
 63142  1  0  0  0
 63143  1  0  0  0
 64144  1  0  0  0
 65145  1  0  0  0
 68 81  1  0  0  0
 71 72  2  0  0  0
 71 73  1  0  0  0
 71146  1  0  0  0
 72 75  1  0  0  0
 72147  1  0  0  0
 73 74  2  0  0  0
 73 86  1  0  0  0
 74 83  1  0  0  0
 74 78  1  0  0  0
 75 83  2  0  0  0
 75 84  1  0  0  0
 76 77  1  0  0  0
 76 78  1  0  0  0
 76148  1  0  0  0
 76149  1  0  0  0
 77 78  1  0  0  0
 77150  1  0  0  0
 77151  1  0  0  0
 78152  1  0  0  0
 79 80  1  0  0  0
 79 84  1  0  0  0
 79153  1  0  0  0
 79154  1  0  0  0
 80 85  1  0  0  0
 80155  1  0  0  0
 80156  1  0  0  0
 81 82  1  0  0  0
 81157  1  0  0  0
 81158  1  0  0  0
 82 86  1  0  0  0
 82159  1  0  0  0
 82160  1  0  0  0
 84161  1  0  0  0
 85162  1  0  0  0
M  ISO  4   1 100  68 101  81 101  85 100
M  END
> <chiral flag>
0

> <version>
0

> <s_m_source_file>
/data/baiqing/PycharmProjects/Reinvent-master-3.2/result/LINK_invent/BTK/process_docking_weight1_custom_sum_contain_oxygen_bond_distance_aromatic_linkinvent_7_9_3/rearranged_h_0135.sdf

> <i_m_source_file_index>
65

> <r_mmod_Potential_Energy-OPLS-2005>
-313.787811279297

> <r_mmod_Stretch_Energy-OPLS-2005>
34.1082000732422

> <r_mmod_Bend_Energy-OPLS-2005>
113.129028320312

> <r_mmod_Torsional_Energy-OPLS-2005>
222.515716552734

> <r_mmod_Improper_Torsional_Energy-OPLS-2005>
3.37101745605469

> <r_mmod_Van_der_Waal_Energy-OPLS-2005>
161.630432128906

> <r_mmod_Electrostatic_Energy-OPLS-2005>
-615.448791503906

> <r_mmod_Solvation_Energy-OPLS-2005>
-241.34375

> <b_mmod_Minimization_Converged-OPLS-2005>
0

> <r_mmod_RMS_Derivative-OPLS-2005>
3.76751065254211

$$$$
65
                    3D
 Structure written by MMmdl.
179189  0  0  1  0            999 V2000
  -30.7822  -14.4011   20.6542 C   0  0  0  0  0  0
  -30.4117  -12.2984   19.4268 C   0  0  0  0  0  0
  -29.4927  -12.5210   18.2117 C   0  0  0  0  0  0
  -28.0176  -12.3714   18.6247 C   0  0  0  0  0  0
  -27.6650  -13.2134   19.8798 C   0  0  2  0  0  0
  -28.7017  -13.0044   21.0083 C   0  0  0  0  0  0
  -25.2600  -13.8173   20.5704 C   0  0  0  0  0  0
  -24.1856  -13.0447   20.9181 C   0  0  0  0  0  0
  -24.6411  -11.6908   20.8744 C   0  0  0  0  0  0
  -23.9086  -10.4301   21.0417 C   0  0  0  0  0  0
  -24.3630   -9.4205   21.9190 C   0  0  0  0  0  0
  -23.6298   -8.2246   22.0756 C   0  0  0  0  0  0
  -22.4284   -8.0288   21.3540 C   0  0  0  0  0  0
  -21.9927   -9.0270   20.4646 C   0  0  0  0  0  0
  -22.7267  -10.2145   20.3057 C   0  0  0  0  0  0
  -21.6846   -6.0744   22.5277 C   0  0  0  0  0  0
  -21.4018   -6.5645   23.8213 C   0  0  0  0  0  0
  -21.3651   -5.6794   24.9177 C   0  0  0  0  0  0
  -21.6047   -4.3057   24.7227 C   0  0  0  0  0  0
  -21.8810   -3.8151   23.4340 C   0  0  0  0  0  0
  -21.9195   -4.6973   22.3403 C   0  0  0  0  0  0
  -22.7873  -13.5235   21.1849 C   0  0  0  0  0  0
  -22.1657   -4.2162   21.0978 F   0  0  0  0  0  0
  -21.5624   -3.4538   25.7732 F   0  0  0  0  0  0
  -30.0441  -13.2744   20.4661 N   0  0  0  0  0  0
  -26.3044  -12.9362   20.3384 N   0  0  0  0  0  0
  -25.9338  -11.6512   20.5767 N   0  0  0  0  0  0
  -22.0509  -12.8226   22.0381 N   0  0  0  0  0  0
  -25.4316  -15.1905   20.4115 N   0  0  0  0  0  0
  -31.8293  -14.6165   20.0385 O   0  0  0  0  0  0
  -21.6631   -6.8896   21.4240 O   0  0  0  0  0  0
  -22.3576  -14.5556   20.6712 O   0  0  0  0  0  0
  -24.6131  -31.8724   23.2101 C   0  0  0  0  0  0
  -25.9042  -32.4849   23.8382 C   0  0  1  0  0  0
  -27.2302  -27.4590   20.1099 C   0  0  0  0  0  0
  -25.5902  -33.8629   24.2320 N   0  0  0  0  0  0
  -23.3965  -30.4954   21.5516 C   0  0  2  0  0  0
  -24.8454  -28.9654   20.1117 C   0  0  0  0  0  0
  -22.7405  -29.4661   22.5016 C   0  0  0  0  0  0
  -18.0275  -28.1350   22.8490 C   0  0  0  0  0  0
  -24.1487  -36.7318   23.2633 C   0  0  0  0  0  0
  -25.9177  -30.8501   21.3523 C   0  0  0  0  0  0
  -26.0017  -29.4807   20.7124 C   0  0  0  0  0  0
  -27.1990  -28.7328   20.7179 C   0  0  0  0  0  0
  -26.0683  -26.9550   19.4972 C   0  0  0  0  0  0
  -24.8723  -27.6995   19.4992 C   0  0  0  0  0  0
  -23.6010  -29.8247   20.1650 C   0  0  0  0  0  0
  -25.4106  -36.3117   24.0331 C   0  0  1  0  0  0
  -20.5861  -28.3633   23.1321 C   0  0  2  0  0  0
  -20.6779  -26.9376   22.5410 C   0  0  0  0  0  0
  -19.5763  -26.6373   21.5197 C   0  0  0  0  0  0
  -18.1931  -26.7902   22.1609 C   0  0  0  0  0  0
  -19.1529  -28.8811   23.2898 C   0  0  0  0  0  0
  -18.9474  -30.1423   23.8907 C   0  0  0  0  0  0
  -17.6488  -30.6578   24.0545 C   0  0  0  0  0  0
  -25.9038  -34.9490   23.5128 C   0  0  0  0  0  0
  -16.5364  -29.9072   23.6328 C   0  0  0  0  0  0
  -16.7272  -28.6473   23.0361 C   0  0  0  0  0  0
  -26.4466  -31.6609   25.0688 C   0  0  0  0  0  0
  -25.3712  -31.3703   26.1427 C   0  0  0  0  0  0
  -27.0321  -30.3087   24.5991 C   0  0  0  0  0  0
  -27.6053  -32.4298   25.7463 C   0  0  0  0  0  0
  -27.5575  -37.1799   24.8458 C   0  0  0  0  0  0
  -21.4133  -29.3012   22.3748 N   0  0  0  0  0  0
  -26.4287  -37.3800   23.9406 N   0  0  0  0  0  0
  -24.6615  -31.0856   22.0987 N   0  0  0  0  0  0
  -23.4198  -28.8213   23.3048 O   0  0  0  0  0  0
  -28.3638  -26.6862   20.0791 O   0  0  0  0  0  0
  -26.5608  -34.8934   22.4695 O   0  0  0  0  0  0
  -23.5340  -32.1453   23.7548 O   0  0  0  0  0  0
  -30.4718  -24.3822   20.9696 C   0  0  0  0  0  0
  -30.8198  -23.0217   21.0335 C   0  0  0  0  0  0
  -28.2678  -23.8657   21.8644 C   0  0  0  0  0  0
  -29.2042  -24.8171   21.4004 C   0  0  0  0  0  0
  -29.8944  -22.0671   21.5170 C   0  0  0  0  0  0
  -28.6011  -22.4868   21.9062 C   0  0  0  0  0  0
  -25.5996  -21.6429   23.4745 C   0  0  0  0  0  0
  -25.9156  -20.3781   21.3214 C   0  0  0  0  0  0
  -31.1112  -17.6192   20.8747 C   0  0  0  0  0  0
  -25.8055  -20.3249   24.2461 C   0  0  0  0  0  0
  -26.0602  -19.0711   22.1306 C   0  0  0  0  0  0
  -30.6394  -17.2663   23.1657 C   0  0  0  0  0  0
  -31.0994  -16.4979   21.9180 C   0  0  1  0  0  0
  -26.3447  -21.6165   22.1290 C   0  0  0  0  0  0
  -31.7706  -18.7566   21.6691 C   0  0  1  0  0  0
  -28.8674  -26.3027   21.3578 C   0  0  0  0  0  0
  -31.4754  -20.1732   21.1430 C   0  0  0  0  0  0
  -30.1957  -20.6966   21.6241 N   0  0  0  0  0  0
  -30.3332  -15.2922   21.5549 N   0  0  0  0  0  0
  -25.3802  -19.1569   23.4419 N   0  3  0  0  0  0
  -31.3213  -18.5766   23.0653 N   0  3  0  0  0  0
  -27.7474  -21.5054   22.3668 O   0  0  0  0  0  0
  -31.4585  -12.3747   19.1268 H   0  0  0  0  0  0
  -30.2945  -11.2861   19.8163 H   0  0  0  0  0  0
  -29.7366  -11.8126   17.4191 H   0  0  0  0  0  0
  -29.6635  -13.5164   17.7985 H   0  0  0  0  0  0
  -27.8365  -11.3144   18.8233 H   0  0  0  0  0  0
  -27.3652  -12.6406   17.7934 H   0  0  0  0  0  0
  -27.7098  -14.2614   19.5820 H   0  0  0  0  0  0
  -28.6604  -11.9785   21.3770 H   0  0  0  0  0  0
  -28.4532  -13.6319   21.8646 H   0  0  0  0  0  0
  -25.2773   -9.5667   22.4767 H   0  0  0  0  0  0
  -24.0001   -7.4627   22.7468 H   0  0  0  0  0  0
  -21.0859   -8.8801   19.8937 H   0  0  0  0  0  0
  -22.3741  -10.9688   19.6164 H   0  0  0  0  0  0
  -21.2009   -7.6152   23.9729 H   0  0  0  0  0  0
  -21.1478   -6.0518   25.9082 H   0  0  0  0  0  0
  -22.0599   -2.7613   23.2837 H   0  0  0  0  0  0
  -22.4105  -11.9857   22.4733 H   0  0  0  0  0  0
  -21.1121  -13.1239   22.2578 H   0  0  0  0  0  0
  -24.6503  -15.8338   20.4729 H   0  0  0  0  0  0
  -26.2756  -15.6165   20.0488 H   0  0  0  0  0  0
  -26.7115  -32.5582   23.1151 H   0  0  0  0  0  0
  -25.0035  -33.9773   25.0458 H   0  0  0  0  0  0
  -22.6834  -31.3110   21.4157 H   0  0  0  0  0  0
  -23.3754  -35.9647   23.3300 H   0  0  0  0  0  0
  -24.3590  -36.8944   22.2053 H   0  0  0  0  0  0
  -23.7224  -37.6505   23.6665 H   0  0  0  0  0  0
  -26.0033  -31.6095   20.5743 H   0  0  0  0  0  0
  -26.8131  -30.9235   21.9546 H   0  0  0  0  0  0
  -28.0903  -29.1314   21.1821 H   0  0  0  0  0  0
  -26.0848  -25.9807   19.0322 H   0  0  0  0  0  0
  -23.9840  -27.2981   19.0294 H   0  0  0  0  0  0
  -23.6904  -30.5955   19.3991 H   0  0  0  0  0  0
  -22.7277  -29.2335   19.8814 H   0  0  0  0  0  0
  -25.1275  -36.1988   25.0819 H   0  0  0  0  0  0
  -20.9943  -28.3204   24.1445 H   0  0  0  0  0  0
  -20.5691  -26.2240   23.3595 H   0  0  0  0  0  0
  -21.6650  -26.7445   22.1189 H   0  0  0  0  0  0
  -19.6930  -25.6282   21.1227 H   0  0  0  0  0  0
  -19.6704  -27.3191   20.6734 H   0  0  0  0  0  0
  -17.4199  -26.6661   21.3998 H   0  0  0  0  0  0
  -18.0314  -26.0019   22.8985 H   0  0  0  0  0  0
  -19.7959  -30.7206   24.2299 H   0  0  0  0  0  0
  -17.5053  -31.6271   24.5133 H   0  0  0  0  0  0
  -15.5363  -30.2987   23.7658 H   0  0  0  0  0  0
  -15.8660  -28.0800   22.7096 H   0  0  0  0  0  0
  -24.5891  -30.7068   25.7721 H   0  0  0  0  0  0
  -24.8900  -32.2869   26.4848 H   0  0  0  0  0  0
  -25.8031  -30.8863   27.0194 H   0  0  0  0  0  0
  -26.2859  -29.6826   24.1091 H   0  0  0  0  0  0
  -27.4216  -29.7333   25.4394 H   0  0  0  0  0  0
  -27.8617  -30.4467   23.9047 H   0  0  0  0  0  0
  -27.2693  -33.3585   26.2079 H   0  0  0  0  0  0
  -28.3857  -32.6868   25.0286 H   0  0  0  0  0  0
  -28.0720  -31.8379   26.5346 H   0  0  0  0  0  0
  -28.2576  -38.0118   24.7561 H   0  0  0  0  0  0
  -28.1092  -36.2653   24.6233 H   0  0  0  0  0  0
  -27.2301  -37.1385   25.8863 H   0  0  0  0  0  0
  -20.9309  -29.8733   21.6949 H   0  0  0  0  0  0
  -26.0197  -38.2869   24.1445 H   0  0  0  0  0  0
  -31.1873  -25.1008   20.5958 H   0  0  0  0  0  0
  -31.8034  -22.7391   20.6939 H   0  0  0  0  0  0
  -27.3036  -24.2094   22.2055 H   0  0  0  0  0  0
  -25.9323  -22.4875   24.0784 H   0  0  0  0  0  0
  -24.5335  -21.7965   23.2980 H   0  0  0  0  0  0
  -24.8781  -20.4936   21.0039 H   0  0  0  0  0  0
  -26.5064  -20.3099   20.4064 H   0  0  0  0  0  0
  -30.0937  -17.8870   20.5842 H   0  0  0  0  0  0
  -31.6659  -17.3700   19.9691 H   0  0  0  0  0  0
  -25.2527  -20.3399   25.1862 H   0  0  0  0  0  0
  -26.8592  -20.2162   24.5098 H   0  0  0  0  0  0
  -27.1160  -18.8432   22.2887 H   0  0  0  0  0  0
  -25.6470  -18.2342   21.5663 H   0  0  0  0  0  0
  -30.8872  -16.7548   24.0967 H   0  0  0  0  0  0
  -29.5615  -17.4339   23.1490 H   0  0  0  0  0  0
  -32.1311  -16.1844   22.1009 H   0  0  0  0  0  0
  -26.0810  -22.4999   21.5477 H   0  0  0  0  0  0
  -32.8507  -18.5923   21.6495 H   0  0  0  0  0  0
  -29.7730  -26.8795   21.5582 H   0  0  0  0  0  0
  -28.1764  -26.5328   22.1726 H   0  0  0  0  0  0
  -31.5129  -20.1858   20.0516 H   0  0  0  0  0  0
  -32.2788  -20.8230   21.4936 H   0  0  0  0  0  0
  -29.3808  -20.0960   21.5461 H   0  0  0  0  0  0
  -29.4721  -15.0877   22.0407 H   0  0  0  0  0  0
  -24.3830  -19.1881   23.3008 H   0  0  0  0  0  0
  -25.5737  -18.3155   23.9624 H   0  0  0  0  0  0
  -32.1136  -18.6272   23.6852 H   0  0  0  0  0  0
  -30.6958  -19.3411   23.2786 H   0  0  0  0  0  0
  1 25  1  0  0  0
  1 30  2  0  0  0
  1 89  1  0  0  0
  2  3  1  0  0  0
  2 25  1  0  0  0
  2 93  1  0  0  0
  2 94  1  0  0  0
  3  4  1  0  0  0
  3 95  1  0  0  0
  3 96  1  0  0  0
  4  5  1  0  0  0
  4 97  1  0  0  0
  4 98  1  0  0  0
  5  6  1  0  0  0
  5 26  1  0  0  0
  5 99  1  0  0  0
  6 25  1  0  0  0
  6100  1  0  0  0
  6101  1  0  0  0
  7  8  2  0  0  0
  7 26  1  0  0  0
  7 29  1  0  0  0
  8  9  1  0  0  0
  8 22  1  0  0  0
  9 10  1  0  0  0
  9 27  2  0  0  0
 10 11  2  0  0  0
 10 15  1  0  0  0
 11 12  1  0  0  0
 11102  1  0  0  0
 12 13  2  0  0  0
 12103  1  0  0  0
 13 14  1  0  0  0
 13 31  1  0  0  0
 14 15  2  0  0  0
 14104  1  0  0  0
 15105  1  0  0  0
 16 17  2  0  0  0
 16 21  1  0  0  0
 16 31  1  0  0  0
 17 18  1  0  0  0
 17106  1  0  0  0
 18 19  2  0  0  0
 18107  1  0  0  0
 19 20  1  0  0  0
 19 24  1  0  0  0
 20 21  2  0  0  0
 20108  1  0  0  0
 21 23  1  0  0  0
 22 28  1  0  0  0
 22 32  2  0  0  0
 26 27  1  0  0  0
 28109  1  0  0  0
 28110  1  0  0  0
 29111  1  0  0  0
 29112  1  0  0  0
 33 34  1  0  0  0
 33 66  1  0  0  0
 33 70  2  0  0  0
 34 36  1  0  0  0
 34 59  1  0  0  0
 34113  1  0  0  0
 35 44  2  0  0  0
 35 45  1  0  0  0
 35 68  1  0  0  0
 36 56  1  0  0  0
 36114  1  0  0  0
 37 39  1  0  0  0
 37 47  1  0  0  0
 37 66  1  0  0  0
 37115  1  0  0  0
 38 43  2  0  0  0
 38 46  1  0  0  0
 38 47  1  0  0  0
 39 64  1  0  0  0
 39 67  2  0  0  0
 40 52  1  0  0  0
 40 53  2  0  0  0
 40 58  1  0  0  0
 41116  1  0  0  0
 41117  1  0  0  0
 41118  1  0  0  0
 41 48  1  0  0  0
 42 43  1  0  0  0
 42 66  1  0  0  0
 42119  1  0  0  0
 42120  1  0  0  0
 43 44  1  0  0  0
 44121  1  0  0  0
 45 46  2  0  0  0
 45122  1  0  0  0
 46123  1  0  0  0
 47124  1  0  0  0
 47125  1  0  0  0
 48 56  1  0  0  0
 48 65  1  0  0  0
 48126  1  0  0  0
 49 50  1  0  0  0
 49 53  1  0  0  0
 49 64  1  0  0  0
 49127  1  0  0  0
 50 51  1  0  0  0
 50128  1  0  0  0
 50129  1  0  0  0
 51 52  1  0  0  0
 51130  1  0  0  0
 51131  1  0  0  0
 52132  1  0  0  0
 52133  1  0  0  0
 53 54  1  0  0  0
 54 55  2  0  0  0
 54134  1  0  0  0
 55 57  1  0  0  0
 55135  1  0  0  0
 56 69  2  0  0  0
 57 58  2  0  0  0
 57136  1  0  0  0
 58137  1  0  0  0
 59 60  1  0  0  0
 59 61  1  0  0  0
 59 62  1  0  0  0
 60138  1  0  0  0
 60139  1  0  0  0
 60140  1  0  0  0
 61141  1  0  0  0
 61142  1  0  0  0
 61143  1  0  0  0
 62144  1  0  0  0
 62145  1  0  0  0
 62146  1  0  0  0
 63 65  1  0  0  0
 63147  1  0  0  0
 63148  1  0  0  0
 63149  1  0  0  0
 64150  1  0  0  0
 65151  1  0  0  0
 68 86  1  0  0  0
 71 72  2  0  0  0
 71 74  1  0  0  0
 71152  1  0  0  0
 72 75  1  0  0  0
 72153  1  0  0  0
 73 74  2  0  0  0
 73 76  1  0  0  0
 73154  1  0  0  0
 74 86  1  0  0  0
 75 76  2  0  0  0
 75 88  1  0  0  0
 76 92  1  0  0  0
 77 80  1  0  0  0
 77 84  1  0  0  0
 77155  1  0  0  0
 77156  1  0  0  0
 78 81  1  0  0  0
 78 84  1  0  0  0
 78157  1  0  0  0
 78158  1  0  0  0
 79 83  1  0  0  0
 79 85  1  0  0  0
 79159  1  0  0  0
 79160  1  0  0  0
 80 90  1  0  0  0
 80161  1  0  0  0
 80162  1  0  0  0
 81 90  1  0  0  0
 81163  1  0  0  0
 81164  1  0  0  0
 82 83  1  0  0  0
 82 91  1  0  0  0
 82165  1  0  0  0
 82166  1  0  0  0
 83 89  1  0  0  0
 83167  1  0  0  0
 84 92  1  0  0  0
 84168  1  0  0  0
 85 87  1  0  0  0
 85 91  1  0  0  0
 85169  1  0  0  0
 86170  1  0  0  0
 86171  1  0  0  0
 87 88  1  0  0  0
 87172  1  0  0  0
 87173  1  0  0  0
 88174  1  0  0  0
 89175  1  0  0  0
 90176  1  0  0  0
 90177  1  0  0  0
 91178  1  0  0  0
 91179  1  0  0  0
M  CHG  2  90   1  91   1
M  ISO  4   1 100  68 101  86 101  89 100
M  END
> <chiral flag>
0

> <version>
0

> <s_m_source_file>
/data/baiqing/PycharmProjects/Reinvent-master-3.2/result/LINK_invent/BTK/process_docking_weight1_custom_sum_contain_oxygen_bond_distance_aromatic_linkinvent_7_9_3/rearranged_h_0135.sdf

> <i_m_source_file_index>
66

> <r_mmod_Potential_Energy-OPLS-2005>
-357.365447998047

> <r_mmod_Stretch_Energy-OPLS-2005>
35.5239677429199

> <r_mmod_Bend_Energy-OPLS-2005>
146.066299438477

> <r_mmod_Torsional_Energy-OPLS-2005>
348.693511962891

> <r_mmod_Improper_Torsional_Energy-OPLS-2005>
4.45768070220947

> <r_mmod_Van_der_Waal_Energy-OPLS-2005>
156.319320678711

> <r_mmod_Electrostatic_Energy-OPLS-2005>
-108.506858825684

> <r_mmod_Solvation_Energy-OPLS-2005>
-948.416625976562

> <b_mmod_Minimization_Converged-OPLS-2005>
0

> <r_mmod_RMS_Derivative-OPLS-2005>
3.18105363845825

$$$$
66
                    3D
 Structure written by MMmdl.
162170  0  0  1  0            999 V2000
  -30.6695  -14.5848   20.5090 C   0  0  0  0  0  0
  -30.4192  -12.3540   19.4736 C   0  0  0  0  0  0
  -29.5085  -12.4809   18.2333 C   0  0  0  0  0  0
  -28.0265  -12.3472   18.6335 C   0  0  0  0  0  0
  -27.6481  -13.2221   19.8589 C   0  0  2  0  0  0
  -28.6835  -13.0950   20.9992 C   0  0  0  0  0  0
  -25.2527  -13.8179   20.5691 C   0  0  0  0  0  0
  -24.1815  -13.0440   20.9196 C   0  0  0  0  0  0
  -24.6390  -11.6913   20.8742 C   0  0  0  0  0  0
  -23.9074  -10.4296   21.0405 C   0  0  0  0  0  0
  -24.3620   -9.4210   21.9183 C   0  0  0  0  0  0
  -23.6306   -8.2245   22.0747 C   0  0  0  0  0  0
  -22.4288   -8.0279   21.3536 C   0  0  0  0  0  0
  -21.9928   -9.0244   20.4624 C   0  0  0  0  0  0
  -22.7258  -10.2123   20.3042 C   0  0  0  0  0  0
  -21.6847   -6.0738   22.5275 C   0  0  0  0  0  0
  -21.4007   -6.5637   23.8208 C   0  0  0  0  0  0
  -21.3672   -5.6798   24.9170 C   0  0  0  0  0  0
  -21.6041   -4.3057   24.7217 C   0  0  0  0  0  0
  -21.8824   -3.8157   23.4343 C   0  0  0  0  0  0
  -21.9193   -4.6975   22.3401 C   0  0  0  0  0  0
  -22.7845  -13.5206   21.1893 C   0  0  0  0  0  0
  -22.1667   -4.2166   21.0977 F   0  0  0  0  0  0
  -21.5634   -3.4541   25.7728 F   0  0  0  0  0  0
  -30.0072  -13.3921   20.4358 N   0  0  0  0  0  0
  -26.2950  -12.9384   20.3269 N   0  0  0  0  0  0
  -25.9305  -11.6530   20.5720 N   0  0  0  0  0  0
  -22.0521  -12.8145   22.0422 N   0  0  0  0  0  0
  -25.4248  -15.1914   20.4109 N   0  0  0  0  0  0
  -31.8363  -14.7025   20.1284 O   0  0  0  0  0  0
  -21.6638   -6.8886   21.4241 O   0  0  0  0  0  0
  -22.3531  -14.5547   20.6789 O   0  0  0  0  0  0
  -24.6191  -31.8612   23.2022 C   0  0  0  0  0  0
  -25.9074  -32.4770   23.8355 C   0  0  1  0  0  0
  -27.2278  -27.3740   20.1302 C   0  0  0  0  0  0
  -25.5927  -33.8559   24.2304 N   0  0  0  0  0  0
  -23.4113  -30.4805   21.5450 C   0  0  2  0  0  0
  -24.8640  -28.9473   20.1023 C   0  0  0  0  0  0
  -22.7434  -29.4631   22.4977 C   0  0  0  0  0  0
  -18.0282  -28.1377   22.8497 C   0  0  0  0  0  0
  -24.1494  -36.7295   23.2635 C   0  0  0  0  0  0
  -25.9440  -30.8133   21.3629 C   0  0  0  0  0  0
  -26.0253  -29.4458   20.7080 C   0  0  0  0  0  0
  -27.2157  -28.6691   20.7138 C   0  0  0  0  0  0
  -26.0617  -26.9222   19.4769 C   0  0  0  0  0  0
  -24.8837  -27.6925   19.4716 C   0  0  0  0  0  0
  -23.6184  -29.8074   20.1614 C   0  0  0  0  0  0
  -25.4100  -36.3056   24.0344 C   0  0  1  0  0  0
  -20.5878  -28.3683   23.1311 C   0  0  2  0  0  0
  -20.6774  -26.9412   22.5421 C   0  0  0  0  0  0
  -19.5759  -26.6392   21.5212 C   0  0  0  0  0  0
  -18.1921  -26.7948   22.1588 C   0  0  0  0  0  0
  -19.1534  -28.8853   23.2890 C   0  0  0  0  0  0
  -18.9446  -30.1466   23.8884 C   0  0  0  0  0  0
  -17.6437  -30.6574   24.0565 C   0  0  0  0  0  0
  -25.9028  -34.9431   23.5111 C   0  0  0  0  0  0
  -16.5335  -29.9065   23.6365 C   0  0  0  0  0  0
  -16.7274  -28.6483   23.0388 C   0  0  0  0  0  0
  -26.4507  -31.6551   25.0684 C   0  0  0  0  0  0
  -25.3753  -31.3627   26.1409 C   0  0  0  0  0  0
  -27.0386  -30.2996   24.6090 C   0  0  0  0  0  0
  -27.6068  -32.4302   25.7453 C   0  0  0  0  0  0
  -27.5579  -37.1767   24.8457 C   0  0  0  0  0  0
  -21.4154  -29.3023   22.3698 N   0  0  0  0  0  0
  -26.4277  -37.3747   23.9422 N   0  0  0  0  0  0
  -24.6759  -31.0689   22.0945 N   0  0  0  0  0  0
  -23.4184  -28.8174   23.3041 O   0  0  0  0  0  0
  -28.3106  -26.5081   20.2445 O   0  0  0  0  0  0
  -26.5570  -34.8898   22.4663 O   0  0  0  0  0  0
  -23.5377  -32.1416   23.7387 O   0  0  0  0  0  0
  -28.5160  -23.2508   19.6102 C   0  0  0  0  0  0
  -28.7667  -23.0153   22.0740 C   0  0  0  0  0  0
  -29.2808  -21.9003   19.4326 C   0  0  0  0  0  0
  -29.4676  -21.6318   21.8999 C   0  0  0  0  0  0
  -28.9039  -24.0309   20.8913 C   0  0  2  0  0  0
  -29.0984  -20.8790   20.5961 C   0  0  2  0  0  0
  -28.1690  -25.8518   22.5787 C   0  0  0  0  0  0
  -30.3801  -17.0930   20.4894 C   0  0  0  0  0  0
  -29.4260  -18.2955   20.8677 C   0  0  0  0  0  0
  -28.0502  -25.3550   21.1177 C   0  0  1  0  0  0
  -29.9322  -15.6960   20.7888 N   0  0  0  0  0  0
  -29.9256  -19.6323   20.3804 N   0  3  0  0  0  0
  -31.4688  -12.4416   19.1890 H   0  0  0  0  0  0
  -30.3170  -11.3658   19.9272 H   0  0  0  0  0  0
  -29.7655  -11.7112   17.5030 H   0  0  0  0  0  0
  -29.6788  -13.4400   17.7425 H   0  0  0  0  0  0
  -27.8422  -11.2967   18.8601 H   0  0  0  0  0  0
  -27.3849  -12.5901   17.7852 H   0  0  0  0  0  0
  -27.6650  -14.2555   19.5106 H   0  0  0  0  0  0
  -28.6714  -12.0910   21.4254 H   0  0  0  0  0  0
  -28.4367  -13.7734   21.8179 H   0  0  0  0  0  0
  -25.2758   -9.5685   22.4760 H   0  0  0  0  0  0
  -24.0019   -7.4629   22.7456 H   0  0  0  0  0  0
  -21.0879   -8.8759   19.8908 H   0  0  0  0  0  0
  -22.3736  -10.9658   19.6144 H   0  0  0  0  0  0
  -21.1995   -7.6139   23.9717 H   0  0  0  0  0  0
  -21.1489   -6.0516   25.9071 H   0  0  0  0  0  0
  -22.0596   -2.7621   23.2829 H   0  0  0  0  0  0
  -22.4153  -11.9736   22.4676 H   0  0  0  0  0  0
  -21.1137  -13.1116   22.2695 H   0  0  0  0  0  0
  -24.6542  -15.8435   20.5055 H   0  0  0  0  0  0
  -26.2661  -15.6224   20.0539 H   0  0  0  0  0  0
  -26.7131  -32.5473   23.1100 H   0  0  0  0  0  0
  -25.0189  -33.9718   25.0527 H   0  0  0  0  0  0
  -22.7001  -31.2950   21.4005 H   0  0  0  0  0  0
  -23.3752  -35.9627   23.3252 H   0  0  0  0  0  0
  -24.3574  -36.8972   22.2056 H   0  0  0  0  0  0
  -23.7276  -37.6490   23.6695 H   0  0  0  0  0  0
  -26.0597  -31.5746   20.5912 H   0  0  0  0  0  0
  -26.8277  -30.8661   21.9872 H   0  0  0  0  0  0
  -28.1044  -29.0307   21.2131 H   0  0  0  0  0  0
  -26.0577  -25.9496   19.0031 H   0  0  0  0  0  0
  -23.9939  -27.3123   18.9881 H   0  0  0  0  0  0
  -23.7033  -30.5741   19.3912 H   0  0  0  0  0  0
  -22.7460  -29.2091   19.8873 H   0  0  0  0  0  0
  -25.1260  -36.1886   25.0836 H   0  0  0  0  0  0
  -20.9967  -28.3275   24.1439 H   0  0  0  0  0  0
  -20.5721  -26.2267   23.3598 H   0  0  0  0  0  0
  -21.6633  -26.7465   22.1180 H   0  0  0  0  0  0
  -19.6915  -25.6302   21.1242 H   0  0  0  0  0  0
  -19.6729  -27.3198   20.6736 H   0  0  0  0  0  0
  -17.4217  -26.6778   21.3954 H   0  0  0  0  0  0
  -18.0253  -26.0062   22.8934 H   0  0  0  0  0  0
  -19.7907  -30.7305   24.2244 H   0  0  0  0  0  0
  -17.4979  -31.6250   24.5152 H   0  0  0  0  0  0
  -15.5330  -30.2936   23.7723 H   0  0  0  0  0  0
  -15.8676  -28.0786   22.7142 H   0  0  0  0  0  0
  -24.6103  -30.6756   25.7786 H   0  0  0  0  0  0
  -24.8711  -32.2716   26.4675 H   0  0  0  0  0  0
  -25.8133  -30.9013   27.0265 H   0  0  0  0  0  0
  -26.2980  -29.6711   24.1127 H   0  0  0  0  0  0
  -27.4167  -29.7259   25.4559 H   0  0  0  0  0  0
  -27.8779  -30.4334   23.9266 H   0  0  0  0  0  0
  -27.2744  -33.3713   26.1847 H   0  0  0  0  0  0
  -28.3961  -32.6674   25.0308 H   0  0  0  0  0  0
  -28.0622  -31.8519   26.5500 H   0  0  0  0  0  0
  -28.2512  -38.0131   24.7554 H   0  0  0  0  0  0
  -28.1168  -36.2659   24.6232 H   0  0  0  0  0  0
  -27.2290  -37.1349   25.8852 H   0  0  0  0  0  0
  -20.9342  -29.8719   21.6869 H   0  0  0  0  0  0
  -26.0161  -38.2822   24.1425 H   0  0  0  0  0  0
  -27.4417  -23.0510   19.6230 H   0  0  0  0  0  0
  -28.6957  -23.8884   18.7438 H   0  0  0  0  0  0
  -29.1859  -23.4609   22.9770 H   0  0  0  0  0  0
  -27.7061  -22.8596   22.2802 H   0  0  0  0  0  0
  -30.3415  -22.1203   19.3077 H   0  0  0  0  0  0
  -28.9533  -21.4416   18.4979 H   0  0  0  0  0  0
  -29.2168  -21.0086   22.7590 H   0  0  0  0  0  0
  -30.5471  -21.7814   21.9401 H   0  0  0  0  0  0
  -29.9544  -24.3192   20.8134 H   0  0  0  0  0  0
  -28.0455  -20.5922   20.6363 H   0  0  0  0  0  0
  -27.6502  -25.1787   23.2644 H   0  0  0  0  0  0
  -27.7220  -26.8329   22.7299 H   0  0  0  0  0  0
  -29.2103  -25.9137   22.8924 H   0  0  0  0  0  0
  -31.3423  -17.2476   20.9805 H   0  0  0  0  0  0
  -30.5847  -17.1386   19.4181 H   0  0  0  0  0  0
  -29.3072  -18.3364   21.9500 H   0  0  0  0  0  0
  -28.4336  -18.1269   20.4502 H   0  0  0  0  0  0
  -27.0101  -25.0527   20.9923 H   0  0  0  0  0  0
  -28.9711  -15.5551   21.0637 H   0  0  0  0  0  0
  -30.8500  -19.7885   20.7479 H   0  0  0  0  0  0
  -30.0265  -19.5357   19.3834 H   0  0  0  0  0  0
  1 25  1  0  0  0
  1 30  2  0  0  0
  1 81  1  0  0  0
  2  3  1  0  0  0
  2 25  1  0  0  0
  2 83  1  0  0  0
  2 84  1  0  0  0
  3  4  1  0  0  0
  3 85  1  0  0  0
  3 86  1  0  0  0
  4  5  1  0  0  0
  4 87  1  0  0  0
  4 88  1  0  0  0
  5  6  1  0  0  0
  5 26  1  0  0  0
  5 89  1  0  0  0
  6 25  1  0  0  0
  6 90  1  0  0  0
  6 91  1  0  0  0
  7  8  2  0  0  0
  7 26  1  0  0  0
  7 29  1  0  0  0
  8  9  1  0  0  0
  8 22  1  0  0  0
  9 10  1  0  0  0
  9 27  2  0  0  0
 10 11  2  0  0  0
 10 15  1  0  0  0
 11 12  1  0  0  0
 11 92  1  0  0  0
 12 13  2  0  0  0
 12 93  1  0  0  0
 13 14  1  0  0  0
 13 31  1  0  0  0
 14 15  2  0  0  0
 14 94  1  0  0  0
 15 95  1  0  0  0
 16 17  2  0  0  0
 16 21  1  0  0  0
 16 31  1  0  0  0
 17 18  1  0  0  0
 17 96  1  0  0  0
 18 19  2  0  0  0
 18 97  1  0  0  0
 19 20  1  0  0  0
 19 24  1  0  0  0
 20 21  2  0  0  0
 20 98  1  0  0  0
 21 23  1  0  0  0
 22 28  1  0  0  0
 22 32  2  0  0  0
 26 27  1  0  0  0
 28 99  1  0  0  0
 28100  1  0  0  0
 29101  1  0  0  0
 29102  1  0  0  0
 33 34  1  0  0  0
 33 66  1  0  0  0
 33 70  2  0  0  0
 34 36  1  0  0  0
 34 59  1  0  0  0
 34103  1  0  0  0
 35 44  2  0  0  0
 35 45  1  0  0  0
 35 68  1  0  0  0
 36 56  1  0  0  0
 36104  1  0  0  0
 37 39  1  0  0  0
 37 47  1  0  0  0
 37 66  1  0  0  0
 37105  1  0  0  0
 38 43  2  0  0  0
 38 46  1  0  0  0
 38 47  1  0  0  0
 39 64  1  0  0  0
 39 67  2  0  0  0
 40 52  1  0  0  0
 40 53  2  0  0  0
 40 58  1  0  0  0
 41106  1  0  0  0
 41107  1  0  0  0
 41108  1  0  0  0
 41 48  1  0  0  0
 42 43  1  0  0  0
 42 66  1  0  0  0
 42109  1  0  0  0
 42110  1  0  0  0
 43 44  1  0  0  0
 44111  1  0  0  0
 45 46  2  0  0  0
 45112  1  0  0  0
 46113  1  0  0  0
 47114  1  0  0  0
 47115  1  0  0  0
 48 56  1  0  0  0
 48 65  1  0  0  0
 48116  1  0  0  0
 49 50  1  0  0  0
 49 53  1  0  0  0
 49 64  1  0  0  0
 49117  1  0  0  0
 50 51  1  0  0  0
 50118  1  0  0  0
 50119  1  0  0  0
 51 52  1  0  0  0
 51120  1  0  0  0
 51121  1  0  0  0
 52122  1  0  0  0
 52123  1  0  0  0
 53 54  1  0  0  0
 54 55  2  0  0  0
 54124  1  0  0  0
 55 57  1  0  0  0
 55125  1  0  0  0
 56 69  2  0  0  0
 57 58  2  0  0  0
 57126  1  0  0  0
 58127  1  0  0  0
 59 60  1  0  0  0
 59 61  1  0  0  0
 59 62  1  0  0  0
 60128  1  0  0  0
 60129  1  0  0  0
 60130  1  0  0  0
 61131  1  0  0  0
 61132  1  0  0  0
 61133  1  0  0  0
 62134  1  0  0  0
 62135  1  0  0  0
 62136  1  0  0  0
 63 65  1  0  0  0
 63137  1  0  0  0
 63138  1  0  0  0
 63139  1  0  0  0
 64140  1  0  0  0
 65141  1  0  0  0
 68 80  1  0  0  0
 71 73  1  0  0  0
 71142  1  0  0  0
 71143  1  0  0  0
 71 75  1  0  0  0
 72 74  1  0  0  0
 72 75  1  0  0  0
 72144  1  0  0  0
 72145  1  0  0  0
 73 76  1  0  0  0
 73146  1  0  0  0
 73147  1  0  0  0
 74 76  1  0  0  0
 74148  1  0  0  0
 74149  1  0  0  0
 75 80  1  0  0  0
 75150  1  0  0  0
 76 82  1  0  0  0
 76151  1  0  0  0
 77152  1  0  0  0
 77153  1  0  0  0
 77154  1  0  0  0
 77 80  1  0  0  0
 78 79  1  0  0  0
 78 81  1  0  0  0
 78155  1  0  0  0
 78156  1  0  0  0
 79 82  1  0  0  0
 79157  1  0  0  0
 79158  1  0  0  0
 80159  1  0  0  0
 81160  1  0  0  0
 82161  1  0  0  0
 82162  1  0  0  0
M  CHG  1  82   1
M  ISO  4   1 100  68 101  80 101  81 100
M  END
> <chiral flag>
0

> <version>
0

> <s_m_source_file>
/data/baiqing/PycharmProjects/Reinvent-master-3.2/result/LINK_invent/BTK/process_docking_weight1_custom_sum_contain_oxygen_bond_distance_aromatic_linkinvent_7_9_3/rearranged_h_0135.sdf

> <i_m_source_file_index>
67

> <r_mmod_Potential_Energy-OPLS-2005>
-157.272399902344

> <r_mmod_Stretch_Energy-OPLS-2005>
60.3521575927734

> <r_mmod_Bend_Energy-OPLS-2005>
117.549034118652

> <r_mmod_Torsional_Energy-OPLS-2005>
258.356567382812

> <r_mmod_Improper_Torsional_Energy-OPLS-2005>
5.89285469055176

> <r_mmod_Van_der_Waal_Energy-OPLS-2005>
130.542282104492

> <r_mmod_Electrostatic_Energy-OPLS-2005>
-293.981079101562

> <r_mmod_Solvation_Energy-OPLS-2005>
-475.14404296875

> <b_mmod_Minimization_Converged-OPLS-2005>
0

> <r_mmod_RMS_Derivative-OPLS-2005>
3.61761093139648

$$$$
67
                    3D
 Structure written by MMmdl.
156165  0  0  1  0            999 V2000
  -29.8716  -15.8603   20.2887 C   0  0  0  0  0  0
  -30.3477  -13.2733   19.5372 C   0  0  0  0  0  0
  -29.5314  -12.6936   18.3413 C   0  0  0  0  0  0
  -28.1223  -12.2684   18.7831 C   0  0  0  0  0  0
  -27.5385  -13.2871   19.7836 C   0  0  2  0  0  0
  -28.5019  -13.6674   20.9126 C   0  0  0  0  0  0
  -25.2080  -13.8187   20.5734 C   0  0  0  0  0  0
  -24.1523  -13.0365   20.9347 C   0  0  0  0  0  0
  -24.6224  -11.6876   20.8801 C   0  0  0  0  0  0
  -23.8979  -10.4243   21.0443 C   0  0  0  0  0  0
  -24.3563   -9.4170   21.9207 C   0  0  0  0  0  0
  -23.6258   -8.2197   22.0759 C   0  0  0  0  0  0
  -22.4248   -8.0234   21.3540 C   0  0  0  0  0  0
  -21.9867   -9.0197   20.4646 C   0  0  0  0  0  0
  -22.7176  -10.2081   20.3069 C   0  0  0  0  0  0
  -21.6836   -6.0712   22.5287 C   0  0  0  0  0  0
  -21.4005   -6.5626   23.8217 C   0  0  0  0  0  0
  -21.3654   -5.6784   24.9180 C   0  0  0  0  0  0
  -21.6039   -4.3047   24.7234 C   0  0  0  0  0  0
  -21.8818   -3.8134   23.4358 C   0  0  0  0  0  0
  -21.9189   -4.6944   22.3412 C   0  0  0  0  0  0
  -22.7569  -13.5132   21.1992 C   0  0  0  0  0  0
  -22.1658   -4.2131   21.0988 F   0  0  0  0  0  0
  -21.5628   -3.4536   25.7748 F   0  0  0  0  0  0
  -29.5702  -14.4140   20.2352 N   0  0  0  0  0  0
  -26.2376  -12.9428   20.2987 N   0  0  0  0  0  0
  -25.9104  -11.6545   20.5590 N   0  0  0  0  0  0
  -22.0229  -12.8128   22.0548 N   0  0  0  0  0  0
  -25.3717  -15.1924   20.4132 N   0  0  0  0  0  0
  -31.1288  -15.8960   20.2159 O   0  0  0  0  0  0
  -21.6614   -6.8842   21.4244 O   0  0  0  0  0  0
  -22.3282  -14.5443   20.6823 O   0  0  0  0  0  0
  -24.5911  -31.7669   23.0967 C   0  0  0  0  0  0
  -25.8737  -32.4225   23.7461 C   0  0  1  0  0  0
  -28.2859  -27.2098   20.4116 C   0  0  0  0  0  0
  -25.5500  -33.8084   24.1507 N   0  0  0  0  0  0
  -23.3850  -30.2176   21.4702 C   0  0  2  0  0  0
  -24.6752  -28.1136   20.3209 C   0  0  0  0  0  0
  -22.7006  -29.3944   22.5467 C   0  0  0  0  0  0
  -18.0090  -28.1340   22.8515 C   0  0  0  0  0  0
  -24.1473  -36.7125   23.2696 C   0  0  0  0  0  0
  -25.8222  -30.5814   21.2277 C   0  0  0  0  0  0
  -25.9861  -29.0877   20.8126 C   0  0  0  0  0  0
  -27.5821  -28.6464   20.8550 C   0  0  0  0  0  0
  -27.4559  -25.9045   20.0558 C   0  0  0  0  0  0
  -24.9579  -26.2912   19.8274 C   0  0  0  0  0  0
  -23.5348  -29.1871   20.2306 C   0  0  0  0  0  0
  -25.4128  -36.2787   24.0273 C   0  0  1  0  0  0
  -20.5552  -28.3433   23.1692 C   0  0  2  0  0  0
  -20.6520  -26.9227   22.5651 C   0  0  0  0  0  0
  -19.5636  -26.6365   21.5273 C   0  0  0  0  0  0
  -18.1764  -26.7914   22.1585 C   0  0  0  0  0  0
  -19.1303  -28.8727   23.3071 C   0  0  0  0  0  0
  -18.9301  -30.1364   23.9032 C   0  0  0  0  0  0
  -17.6335  -30.6588   24.0579 C   0  0  0  0  0  0
  -25.9035  -34.9177   23.4843 C   0  0  0  0  0  0
  -16.5224  -29.9127   23.6284 C   0  0  0  0  0  0
  -16.7107  -28.6536   23.0301 C   0  0  0  0  0  0
  -26.4311  -31.6376   25.0069 C   0  0  0  0  0  0
  -25.3639  -31.3597   26.0929 C   0  0  0  0  0  0
  -27.0250  -30.2835   24.5623 C   0  0  0  0  0  0
  -27.5808  -32.4278   25.6844 C   0  0  0  0  0  0
  -27.5546  -37.1660   24.8463 C   0  0  0  0  0  0
  -21.3775  -29.2730   22.4172 N   0  0  0  0  0  0
  -26.4252  -37.3559   23.9405 N   0  0  0  0  0  0
  -24.6203  -30.9023   22.0045 N   0  0  0  0  0  0
  -23.3656  -28.8008   23.3979 O   0  0  0  0  0  0
  -28.8833  -27.0600   19.1478 O   0  0  0  0  0  0
  -26.5885  -34.8839   22.4597 O   0  0  0  0  0  0
  -23.5170  -32.0770   23.6336 O   0  0  0  0  0  0
  -26.1747  -26.7687   21.5397 C   0  0  0  0  0  0
  -25.9896  -24.9245   21.5447 C   0  0  0  0  0  0
  -26.2683  -24.5238   18.5519 C   0  0  0  0  0  0
  -26.4852  -27.5473   18.9863 C   0  0  0  0  0  0
  -26.5477  -26.1824   17.9767 C   0  0  0  0  0  0
  -26.2418  -23.8086   20.1562 C   0  0  0  0  0  0
  -26.8599  -28.7888   18.1416 C   0  0  0  0  0  0
  -27.8913  -28.1518   17.2126 C   0  0  0  0  0  0
  -28.0657  -26.7420   17.8141 C   0  0  1  0  0  0
  -27.4033  -20.5953   19.9005 C   0  0  0  0  0  0
  -28.5657  -18.9894   20.4646 C   0  0  0  0  0  0
  -26.8487  -22.2442   20.4438 N   0  0  0  0  0  0
  -28.8765  -17.1484   20.2675 N   0  0  0  0  0  0
  -31.2974  -13.6511   19.1570 H   0  0  0  0  0  0
  -30.6204  -12.4849   20.2415 H   0  0  0  0  0  0
  -30.0577  -11.8560   17.8816 H   0  0  0  0  0  0
  -29.4433  -13.4626   17.5731 H   0  0  0  0  0  0
  -28.1959  -11.2924   19.2647 H   0  0  0  0  0  0
  -27.4666  -12.1396   17.9213 H   0  0  0  0  0  0
  -27.3755  -14.1802   19.1773 H   0  0  0  0  0  0
  -28.8449  -12.7962   21.4727 H   0  0  0  0  0  0
  -28.0125  -14.3269   21.6307 H   0  0  0  0  0  0
  -25.2694   -9.5664   22.4795 H   0  0  0  0  0  0
  -23.9971   -7.4584   22.7469 H   0  0  0  0  0  0
  -21.0802   -8.8695   19.8951 H   0  0  0  0  0  0
  -22.3618  -10.9618   19.6187 H   0  0  0  0  0  0
  -21.1997   -7.6136   23.9714 H   0  0  0  0  0  0
  -21.1479   -6.0519   25.9081 H   0  0  0  0  0  0
  -22.0605   -2.7600   23.2862 H   0  0  0  0  0  0
  -22.3840  -11.9789   22.4940 H   0  0  0  0  0  0
  -21.0844  -13.1146   22.2753 H   0  0  0  0  0  0
  -24.5880  -15.8301   20.5043 H   0  0  0  0  0  0
  -26.1580  -15.6001   19.9295 H   0  0  0  0  0  0
  -26.6728  -32.4820   23.0108 H   0  0  0  0  0  0
  -24.9352  -33.9075   24.9452 H   0  0  0  0  0  0
  -22.7006  -31.0107   21.1636 H   0  0  0  0  0  0
  -23.3721  -35.9465   23.3280 H   0  0  0  0  0  0
  -24.3526  -36.8892   22.2125 H   0  0  0  0  0  0
  -23.7261  -37.6278   23.6865 H   0  0  0  0  0  0
  -25.8095  -31.1867   20.3209 H   0  0  0  0  0  0
  -26.7296  -30.8606   21.7514 H   0  0  0  0  0  0
  -28.2873  -29.4339   21.0777 H   0  0  0  0  0  0
  -28.1189  -25.0655   19.8338 H   0  0  0  0  0  0
  -24.1871  -25.6128   19.4857 H   0  0  0  0  0  0
  -23.7141  -29.7634   19.3223 H   0  0  0  0  0  0
  -22.5976  -28.6609   20.0426 H   0  0  0  0  0  0
  -25.1377  -36.1488   25.0766 H   0  0  0  0  0  0
  -20.9536  -28.2944   24.1854 H   0  0  0  0  0  0
  -20.5274  -26.2019   23.3748 H   0  0  0  0  0  0
  -21.6438  -26.7248   22.1563 H   0  0  0  0  0  0
  -19.6796  -25.6305   21.1228 H   0  0  0  0  0  0
  -19.6706  -27.3253   20.6879 H   0  0  0  0  0  0
  -17.4095  -26.6731   21.3914 H   0  0  0  0  0  0
  -18.0080  -26.0012   22.8919 H   0  0  0  0  0  0
  -19.7791  -30.7107   24.2486 H   0  0  0  0  0  0
  -17.4908  -31.6286   24.5149 H   0  0  0  0  0  0
  -15.5238  -30.3092   23.7521 H   0  0  0  0  0  0
  -15.8494  -28.0923   22.6937 H   0  0  0  0  0  0
  -24.5729  -30.7008   25.7329 H   0  0  0  0  0  0
  -24.8925  -32.2800   26.4390 H   0  0  0  0  0  0
  -25.8028  -30.8748   26.9658 H   0  0  0  0  0  0
  -26.2734  -29.6351   24.1101 H   0  0  0  0  0  0
  -27.4459  -29.7352   25.4061 H   0  0  0  0  0  0
  -27.8271  -30.4146   23.8350 H   0  0  0  0  0  0
  -27.2317  -33.3588   26.1320 H   0  0  0  0  0  0
  -28.3617  -32.6844   24.9675 H   0  0  0  0  0  0
  -28.0487  -31.8513   26.4833 H   0  0  0  0  0  0
  -28.2529  -37.9984   24.7488 H   0  0  0  0  0  0
  -28.1068  -36.2499   24.6304 H   0  0  0  0  0  0
  -27.2261  -37.1313   25.8866 H   0  0  0  0  0  0
  -20.9141  -29.7974   21.6883 H   0  0  0  0  0  0
  -26.0067  -38.2602   24.1416 H   0  0  0  0  0  0
  -26.1586  -27.3375   22.4640 H   0  0  0  0  0  0
  -25.9484  -24.4718   22.5249 H   0  0  0  0  0  0
  -26.4850  -23.7952   17.7855 H   0  0  0  0  0  0
  -27.2931  -29.6495   18.6471 H   0  0  0  0  0  0
  -25.9873  -29.1389   17.5895 H   0  0  0  0  0  0
  -28.8251  -28.7118   17.1668 H   0  0  0  0  0  0
  -27.4927  -28.0825   16.1995 H   0  0  0  0  0  0
  -28.6494  -26.0995   17.1541 H   0  0  0  0  0  0
  -27.7340  -20.7883   18.8785 H   0  0  0  0  0  0
  -26.4350  -20.1165   19.7489 H   0  0  0  0  0  0
  -28.4040  -19.0044   21.5422 H   0  0  0  0  0  0
  -29.5781  -19.3813   20.3616 H   0  0  0  0  0  0
  -26.8717  -22.1700   21.4595 H   0  0  0  0  0  0
  -27.9591  -16.7354   20.1881 H   0  0  0  0  0  0
  1 25  1  0  0  0
  1 30  2  0  0  0
  1 83  1  0  0  0
  2  3  1  0  0  0
  2 25  1  0  0  0
  2 84  1  0  0  0
  2 85  1  0  0  0
  3  4  1  0  0  0
  3 86  1  0  0  0
  3 87  1  0  0  0
  4  5  1  0  0  0
  4 88  1  0  0  0
  4 89  1  0  0  0
  5  6  1  0  0  0
  5 26  1  0  0  0
  5 90  1  0  0  0
  6 25  1  0  0  0
  6 91  1  0  0  0
  6 92  1  0  0  0
  7  8  2  0  0  0
  7 26  1  0  0  0
  7 29  1  0  0  0
  8  9  1  0  0  0
  8 22  1  0  0  0
  9 10  1  0  0  0
  9 27  2  0  0  0
 10 11  2  0  0  0
 10 15  1  0  0  0
 11 12  1  0  0  0
 11 93  1  0  0  0
 12 13  2  0  0  0
 12 94  1  0  0  0
 13 14  1  0  0  0
 13 31  1  0  0  0
 14 15  2  0  0  0
 14 95  1  0  0  0
 15 96  1  0  0  0
 16 17  2  0  0  0
 16 21  1  0  0  0
 16 31  1  0  0  0
 17 18  1  0  0  0
 17 97  1  0  0  0
 18 19  2  0  0  0
 18 98  1  0  0  0
 19 20  1  0  0  0
 19 24  1  0  0  0
 20 21  2  0  0  0
 20 99  1  0  0  0
 21 23  1  0  0  0
 22 28  1  0  0  0
 22 32  2  0  0  0
 26 27  1  0  0  0
 28100  1  0  0  0
 28101  1  0  0  0
 29102  1  0  0  0
 29103  1  0  0  0
 33 34  1  0  0  0
 33 66  1  0  0  0
 33 70  2  0  0  0
 34 36  1  0  0  0
 34 59  1  0  0  0
 34104  1  0  0  0
 35 44  2  0  0  0
 35 45  1  0  0  0
 35 68  1  0  0  0
 36 56  1  0  0  0
 36105  1  0  0  0
 37 39  1  0  0  0
 37 47  1  0  0  0
 37 66  1  0  0  0
 37106  1  0  0  0
 38 43  2  0  0  0
 38 46  1  0  0  0
 38 47  1  0  0  0
 39 64  1  0  0  0
 39 67  2  0  0  0
 40 52  1  0  0  0
 40 53  2  0  0  0
 40 58  1  0  0  0
 41107  1  0  0  0
 41108  1  0  0  0
 41109  1  0  0  0
 41 48  1  0  0  0
 42 43  1  0  0  0
 42 66  1  0  0  0
 42110  1  0  0  0
 42111  1  0  0  0
 43 44  1  0  0  0
 44112  1  0  0  0
 45 46  2  0  0  0
 45113  1  0  0  0
 46114  1  0  0  0
 47115  1  0  0  0
 47116  1  0  0  0
 48 56  1  0  0  0
 48 65  1  0  0  0
 48117  1  0  0  0
 49 50  1  0  0  0
 49 53  1  0  0  0
 49 64  1  0  0  0
 49118  1  0  0  0
 50 51  1  0  0  0
 50119  1  0  0  0
 50120  1  0  0  0
 51 52  1  0  0  0
 51121  1  0  0  0
 51122  1  0  0  0
 52123  1  0  0  0
 52124  1  0  0  0
 53 54  1  0  0  0
 54 55  2  0  0  0
 54125  1  0  0  0
 55 57  1  0  0  0
 55126  1  0  0  0
 56 69  2  0  0  0
 57 58  2  0  0  0
 57127  1  0  0  0
 58128  1  0  0  0
 59 60  1  0  0  0
 59 61  1  0  0  0
 59 62  1  0  0  0
 60129  1  0  0  0
 60130  1  0  0  0
 60131  1  0  0  0
 61132  1  0  0  0
 61133  1  0  0  0
 61134  1  0  0  0
 62135  1  0  0  0
 62136  1  0  0  0
 62137  1  0  0  0
 63 65  1  0  0  0
 63138  1  0  0  0
 63139  1  0  0  0
 63140  1  0  0  0
 64141  1  0  0  0
 65142  1  0  0  0
 68 79  1  0  0  0
 71 72  2  0  0  0
 71 74  1  0  0  0
 71143  1  0  0  0
 72 76  1  0  0  0
 72144  1  0  0  0
 73 75  1  0  0  0
 73 76  2  0  0  0
 73145  1  0  0  0
 74 75  2  0  0  0
 74 77  1  0  0  0
 75 79  1  0  0  0
 76 82  1  0  0  0
 77 78  1  0  0  0
 77146  1  0  0  0
 77147  1  0  0  0
 78 79  1  0  0  0
 78148  1  0  0  0
 78149  1  0  0  0
 79150  1  0  0  0
 80 81  1  0  0  0
 80 82  1  0  0  0
 80151  1  0  0  0
 80152  1  0  0  0
 81 83  1  0  0  0
 81153  1  0  0  0
 81154  1  0  0  0
 82155  1  0  0  0
 83156  1  0  0  0
M  ISO  4   1 100  68 101  79 101  83 100
M  END
> <chiral flag>
0

> <version>
0

> <s_m_source_file>
/data/baiqing/PycharmProjects/Reinvent-master-3.2/result/LINK_invent/BTK/process_docking_weight1_custom_sum_contain_oxygen_bond_distance_aromatic_linkinvent_7_9_3/rearranged_h_0135.sdf

> <i_m_source_file_index>
68

> <r_mmod_Potential_Energy-OPLS-2005>
16361.21484375

> <r_mmod_Stretch_Energy-OPLS-2005>
9584.5888671875

> <r_mmod_Bend_Energy-OPLS-2005>
1171.77026367188

> <r_mmod_Torsional_Energy-OPLS-2005>
500.681182861328

> <r_mmod_Improper_Torsional_Energy-OPLS-2005>
58.21875

> <r_mmod_Van_der_Waal_Energy-OPLS-2005>
3847.36059570312

> <r_mmod_Electrostatic_Energy-OPLS-2005>
-392.542510986328

> <r_mmod_Solvation_Energy-OPLS-2005>
-238.181640625

> <b_mmod_Minimization_Converged-OPLS-2005>
0

> <r_mmod_RMS_Derivative-OPLS-2005>
1.89488983154297

$$$$
68
                    3D
 Structure written by MMmdl.
162170  0  0  1  0            999 V2000
  -30.7206  -14.3989   20.6246 C   0  0  0  0  0  0
  -30.4192  -12.2811   19.3965 C   0  0  0  0  0  0
  -29.4907  -12.5209   18.1897 C   0  0  0  0  0  0
  -28.0078  -12.3958   18.5975 C   0  0  0  0  0  0
  -27.6664  -13.2030   19.8798 C   0  0  2  0  0  0
  -28.7048  -12.9285   20.9892 C   0  0  0  0  0  0
  -25.2615  -13.8160   20.5688 C   0  0  0  0  0  0
  -24.1850  -13.0442   20.9154 C   0  0  0  0  0  0
  -24.6399  -11.6906   20.8712 C   0  0  0  0  0  0
  -23.9060  -10.4296   21.0396 C   0  0  0  0  0  0
  -24.3626   -9.4206   21.9163 C   0  0  0  0  0  0
  -23.6305   -8.2242   22.0745 C   0  0  0  0  0  0
  -22.4282   -8.0282   21.3554 C   0  0  0  0  0  0
  -21.9909   -9.0251   20.4651 C   0  0  0  0  0  0
  -22.7235  -10.2132   20.3055 C   0  0  0  0  0  0
  -21.6859   -6.0731   22.5282 C   0  0  0  0  0  0
  -21.4011   -6.5630   23.8212 C   0  0  0  0  0  0
  -21.3671   -5.6784   24.9176 C   0  0  0  0  0  0
  -21.6056   -4.3048   24.7231 C   0  0  0  0  0  0
  -21.8819   -3.8143   23.4350 C   0  0  0  0  0  0
  -21.9200   -4.6960   22.3406 C   0  0  0  0  0  0
  -22.7876  -13.5241   21.1826 C   0  0  0  0  0  0
  -22.1662   -4.2140   21.0988 F   0  0  0  0  0  0
  -21.5644   -3.4536   25.7748 F   0  0  0  0  0  0
  -30.0434  -13.2339   20.4506 N   0  0  0  0  0  0
  -26.3046  -12.9320   20.3370 N   0  0  0  0  0  0
  -25.9323  -11.6481   20.5728 N   0  0  0  0  0  0
  -22.0532  -12.8237   22.0400 N   0  0  0  0  0  0
  -25.4360  -15.1882   20.4146 N   0  0  0  0  0  0
  -31.7915  -14.6528   20.0623 O   0  0  0  0  0  0
  -21.6650   -6.8876   21.4245 O   0  0  0  0  0  0
  -22.3551  -14.5550   20.6686 O   0  0  0  0  0  0
  -24.6116  -31.8698   23.2135 C   0  0  0  0  0  0
  -25.9010  -32.4841   23.8417 C   0  0  1  0  0  0
  -27.2343  -27.4549   20.0721 C   0  0  0  0  0  0
  -25.5878  -33.8642   24.2344 N   0  0  0  0  0  0
  -23.3986  -30.4950   21.5538 C   0  0  2  0  0  0
  -24.8436  -28.9636   20.1165 C   0  0  0  0  0  0
  -22.7391  -29.4662   22.5002 C   0  0  0  0  0  0
  -18.0270  -28.1367   22.8498 C   0  0  0  0  0  0
  -24.1482  -36.7322   23.2641 C   0  0  0  0  0  0
  -25.9278  -30.8335   21.3712 C   0  0  0  0  0  0
  -26.0010  -29.4685   20.7206 C   0  0  0  0  0  0
  -27.1936  -28.7128   20.7131 C   0  0  0  0  0  0
  -26.0546  -26.9587   19.4716 C   0  0  0  0  0  0
  -24.8621  -27.7041   19.4960 C   0  0  0  0  0  0
  -23.6064  -29.8298   20.1674 C   0  0  0  0  0  0
  -25.4104  -36.3133   24.0351 C   0  0  1  0  0  0
  -20.5857  -28.3648   23.1333 C   0  0  2  0  0  0
  -20.6752  -26.9381   22.5441 C   0  0  0  0  0  0
  -19.5743  -26.6370   21.5223 C   0  0  0  0  0  0
  -18.1912  -26.7920   22.1614 C   0  0  0  0  0  0
  -19.1518  -28.8823   23.2917 C   0  0  0  0  0  0
  -18.9444  -30.1430   23.8925 C   0  0  0  0  0  0
  -17.6448  -30.6579   24.0562 C   0  0  0  0  0  0
  -25.9026  -34.9492   23.5145 C   0  0  0  0  0  0
  -16.5341  -29.9083   23.6321 C   0  0  0  0  0  0
  -16.7261  -28.6497   23.0352 C   0  0  0  0  0  0
  -26.4451  -31.6621   25.0743 C   0  0  0  0  0  0
  -25.3723  -31.3725   26.1500 C   0  0  0  0  0  0
  -27.0285  -30.3067   24.6117 C   0  0  0  0  0  0
  -27.6038  -32.4344   25.7479 C   0  0  0  0  0  0
  -27.5595  -37.1808   24.8460 C   0  0  0  0  0  0
  -21.4125  -29.3017   22.3743 N   0  0  0  0  0  0
  -26.4297  -37.3811   23.9420 N   0  0  0  0  0  0
  -24.6638  -31.0809   22.1038 N   0  0  0  0  0  0
  -23.4172  -28.8197   23.3031 O   0  0  0  0  0  0
  -28.4124  -26.7396   20.0673 O   0  0  0  0  0  0
  -26.5598  -34.8933   22.4713 O   0  0  0  0  0  0
  -23.5316  -32.1454   23.7532 O   0  0  0  0  0  0
  -31.1604  -19.3464   21.9535 C   0  0  0  0  0  0
  -31.5531  -18.3896   22.9101 C   0  0  0  0  0  0
  -30.0753  -17.5981   20.6552 C   0  0  0  0  0  0
  -30.3916  -18.9630   20.8315 C   0  0  0  0  0  0
  -31.2026  -17.0325   22.7520 C   0  0  0  0  0  0
  -30.4889  -16.6329   21.6011 C   0  0  0  0  0  0
  -31.5853  -16.0216   23.8188 C   0  0  0  0  0  0
  -29.8796  -19.9772   19.8095 C   0  0  0  0  0  0
  -29.9042  -21.4585   20.2487 C   0  0  0  0  0  0
  -29.1623  -22.3723   19.2531 C   0  0  0  0  0  0
  -28.5192  -24.6856   18.6592 C   0  0  0  0  0  0
  -28.8352  -26.1891   18.8164 C   0  0  0  0  0  0
  -30.1147  -15.2810   21.4321 N   0  0  0  0  0  0
  -29.3101  -23.8141   19.5617 N   0  3  0  0  0  0
  -31.4643  -12.3775   19.0962 H   0  0  0  0  0  0
  -30.3104  -11.2589   19.7641 H   0  0  0  0  0  0
  -29.7191  -11.8102   17.3943 H   0  0  0  0  0  0
  -29.6779  -13.5133   17.7758 H   0  0  0  0  0  0
  -27.7910  -11.3386   18.7541 H   0  0  0  0  0  0
  -27.3671  -12.7130   17.7742 H   0  0  0  0  0  0
  -27.7263  -14.2603   19.6201 H   0  0  0  0  0  0
  -28.6689  -11.8776   21.2816 H   0  0  0  0  0  0
  -28.4618  -13.4822   21.8969 H   0  0  0  0  0  0
  -25.2781   -9.5680   22.4709 H   0  0  0  0  0  0
  -24.0037   -7.4632   22.7453 H   0  0  0  0  0  0
  -21.0838   -8.8759   19.8957 H   0  0  0  0  0  0
  -22.3688  -10.9665   19.6165 H   0  0  0  0  0  0
  -21.1973   -7.6132   23.9710 H   0  0  0  0  0  0
  -21.1509   -6.0513   25.9075 H   0  0  0  0  0  0
  -22.0590   -2.7605   23.2856 H   0  0  0  0  0  0
  -22.4161  -11.9933   22.4847 H   0  0  0  0  0  0
  -21.1143  -13.1248   22.2579 H   0  0  0  0  0  0
  -24.6794  -15.8515   20.5414 H   0  0  0  0  0  0
  -26.3027  -15.6293   20.1329 H   0  0  0  0  0  0
  -26.7073  -32.5553   23.1175 H   0  0  0  0  0  0
  -25.0038  -33.9808   25.0496 H   0  0  0  0  0  0
  -22.6863  -31.3115   21.4167 H   0  0  0  0  0  0
  -23.3754  -35.9644   23.3301 H   0  0  0  0  0  0
  -24.3577  -36.8937   22.2056 H   0  0  0  0  0  0
  -23.7212  -37.6520   23.6648 H   0  0  0  0  0  0
  -26.0441  -31.5974   20.6007 H   0  0  0  0  0  0
  -26.8145  -30.8835   21.9916 H   0  0  0  0  0  0
  -28.0865  -29.0999   21.1835 H   0  0  0  0  0  0
  -26.0272  -25.9998   18.9828 H   0  0  0  0  0  0
  -23.9701  -27.3077   19.0305 H   0  0  0  0  0  0
  -23.7140  -30.6051   19.4080 H   0  0  0  0  0  0
  -22.7305  -29.2493   19.8724 H   0  0  0  0  0  0
  -25.1272  -36.2014   25.0846 H   0  0  0  0  0  0
  -20.9949  -28.3208   24.1452 H   0  0  0  0  0  0
  -20.5628  -26.2252   23.3628 H   0  0  0  0  0  0
  -21.6629  -26.7406   22.1253 H   0  0  0  0  0  0
  -19.6898  -25.6280   21.1252 H   0  0  0  0  0  0
  -19.6702  -27.3186   20.6757 H   0  0  0  0  0  0
  -17.4196  -26.6705   21.3994 H   0  0  0  0  0  0
  -18.0281  -26.0047   22.8986 H   0  0  0  0  0  0
  -19.7922  -30.7242   24.2305 H   0  0  0  0  0  0
  -17.5005  -31.6261   24.5158 H   0  0  0  0  0  0
  -15.5345  -30.2995   23.7621 H   0  0  0  0  0  0
  -15.8660  -28.0824   22.7051 H   0  0  0  0  0  0
  -24.5914  -30.7041   25.7849 H   0  0  0  0  0  0
  -24.8889  -32.2879   26.4925 H   0  0  0  0  0  0
  -25.8095  -30.8929   27.0266 H   0  0  0  0  0  0
  -26.2831  -29.6835   24.1162 H   0  0  0  0  0  0
  -27.4044  -29.7300   25.4575 H   0  0  0  0  0  0
  -27.8669  -30.4391   23.9276 H   0  0  0  0  0  0
  -27.2661  -33.3619   26.2108 H   0  0  0  0  0  0
  -28.3800  -32.6949   25.0272 H   0  0  0  0  0  0
  -28.0761  -31.8448   26.5344 H   0  0  0  0  0  0
  -28.2609  -38.0112   24.7533 H   0  0  0  0  0  0
  -28.1097  -36.2649   24.6243 H   0  0  0  0  0  0
  -27.2327  -37.1417   25.8866 H   0  0  0  0  0  0
  -20.9272  -29.8747   21.6986 H   0  0  0  0  0  0
  -26.0200  -38.2892   24.1431 H   0  0  0  0  0  0
  -31.4419  -20.3779   22.1096 H   0  0  0  0  0  0
  -32.1167  -18.7090   23.7758 H   0  0  0  0  0  0
  -29.4987  -17.2880   19.7942 H   0  0  0  0  0  0
  -32.1584  -16.4827   24.6233 H   0  0  0  0  0  0
  -32.1887  -15.2218   23.3890 H   0  0  0  0  0  0
  -30.6879  -15.5776   24.2520 H   0  0  0  0  0  0
  -28.8509  -19.7016   19.5670 H   0  0  0  0  0  0
  -30.4520  -19.8564   18.8886 H   0  0  0  0  0  0
  -30.9370  -21.7894   20.3565 H   0  0  0  0  0  0
  -29.4360  -21.5568   21.2295 H   0  0  0  0  0  0
  -28.1030  -22.1123   19.2449 H   0  0  0  0  0  0
  -29.5315  -22.1904   18.2418 H   0  0  0  0  0  0
  -28.7467  -24.4092   17.6284 H   0  0  0  0  0  0
  -27.4613  -24.4763   18.8025 H   0  0  0  0  0  0
  -28.3951  -26.7455   17.9874 H   0  0  0  0  0  0
  -29.9102  -26.3478   18.7294 H   0  0  0  0  0  0
  -29.2701  -14.9737   21.8879 H   0  0  0  0  0  0
  -30.2854  -24.0583   19.4871 H   0  0  0  0  0  0
  -29.0252  -23.9867   20.5140 H   0  0  0  0  0  0
  1 25  1  0  0  0
  1 30  2  0  0  0
  1 83  1  0  0  0
  2  3  1  0  0  0
  2 25  1  0  0  0
  2 85  1  0  0  0
  2 86  1  0  0  0
  3  4  1  0  0  0
  3 87  1  0  0  0
  3 88  1  0  0  0
  4  5  1  0  0  0
  4 89  1  0  0  0
  4 90  1  0  0  0
  5  6  1  0  0  0
  5 26  1  0  0  0
  5 91  1  0  0  0
  6 25  1  0  0  0
  6 92  1  0  0  0
  6 93  1  0  0  0
  7  8  2  0  0  0
  7 26  1  0  0  0
  7 29  1  0  0  0
  8  9  1  0  0  0
  8 22  1  0  0  0
  9 10  1  0  0  0
  9 27  2  0  0  0
 10 11  2  0  0  0
 10 15  1  0  0  0
 11 12  1  0  0  0
 11 94  1  0  0  0
 12 13  2  0  0  0
 12 95  1  0  0  0
 13 14  1  0  0  0
 13 31  1  0  0  0
 14 15  2  0  0  0
 14 96  1  0  0  0
 15 97  1  0  0  0
 16 17  2  0  0  0
 16 21  1  0  0  0
 16 31  1  0  0  0
 17 18  1  0  0  0
 17 98  1  0  0  0
 18 19  2  0  0  0
 18 99  1  0  0  0
 19 20  1  0  0  0
 19 24  1  0  0  0
 20 21  2  0  0  0
 20100  1  0  0  0
 21 23  1  0  0  0
 22 28  1  0  0  0
 22 32  2  0  0  0
 26 27  1  0  0  0
 28101  1  0  0  0
 28102  1  0  0  0
 29103  1  0  0  0
 29104  1  0  0  0
 33 34  1  0  0  0
 33 66  1  0  0  0
 33 70  2  0  0  0
 34 36  1  0  0  0
 34 59  1  0  0  0
 34105  1  0  0  0
 35 44  2  0  0  0
 35 45  1  0  0  0
 35 68  1  0  0  0
 36 56  1  0  0  0
 36106  1  0  0  0
 37 39  1  0  0  0
 37 47  1  0  0  0
 37 66  1  0  0  0
 37107  1  0  0  0
 38 43  2  0  0  0
 38 46  1  0  0  0
 38 47  1  0  0  0
 39 64  1  0  0  0
 39 67  2  0  0  0
 40 52  1  0  0  0
 40 53  2  0  0  0
 40 58  1  0  0  0
 41108  1  0  0  0
 41109  1  0  0  0
 41110  1  0  0  0
 41 48  1  0  0  0
 42 43  1  0  0  0
 42 66  1  0  0  0
 42111  1  0  0  0
 42112  1  0  0  0
 43 44  1  0  0  0
 44113  1  0  0  0
 45 46  2  0  0  0
 45114  1  0  0  0
 46115  1  0  0  0
 47116  1  0  0  0
 47117  1  0  0  0
 48 56  1  0  0  0
 48 65  1  0  0  0
 48118  1  0  0  0
 49 50  1  0  0  0
 49 53  1  0  0  0
 49 64  1  0  0  0
 49119  1  0  0  0
 50 51  1  0  0  0
 50120  1  0  0  0
 50121  1  0  0  0
 51 52  1  0  0  0
 51122  1  0  0  0
 51123  1  0  0  0
 52124  1  0  0  0
 52125  1  0  0  0
 53 54  1  0  0  0
 54 55  2  0  0  0
 54126  1  0  0  0
 55 57  1  0  0  0
 55127  1  0  0  0
 56 69  2  0  0  0
 57 58  2  0  0  0
 57128  1  0  0  0
 58129  1  0  0  0
 59 60  1  0  0  0
 59 61  1  0  0  0
 59 62  1  0  0  0
 60130  1  0  0  0
 60131  1  0  0  0
 60132  1  0  0  0
 61133  1  0  0  0
 61134  1  0  0  0
 61135  1  0  0  0
 62136  1  0  0  0
 62137  1  0  0  0
 62138  1  0  0  0
 63 65  1  0  0  0
 63139  1  0  0  0
 63140  1  0  0  0
 63141  1  0  0  0
 64142  1  0  0  0
 65143  1  0  0  0
 68 82  1  0  0  0
 71 72  2  0  0  0
 71 74  1  0  0  0
 71144  1  0  0  0
 72 75  1  0  0  0
 72145  1  0  0  0
 73 74  2  0  0  0
 73 76  1  0  0  0
 73146  1  0  0  0
 74 78  1  0  0  0
 75 76  2  0  0  0
 75 77  1  0  0  0
 76 83  1  0  0  0
 77147  1  0  0  0
 77148  1  0  0  0
 77149  1  0  0  0
 78 79  1  0  0  0
 78150  1  0  0  0
 78151  1  0  0  0
 79 80  1  0  0  0
 79152  1  0  0  0
 79153  1  0  0  0
 80 84  1  0  0  0
 80154  1  0  0  0
 80155  1  0  0  0
 81 82  1  0  0  0
 81 84  1  0  0  0
 81156  1  0  0  0
 81157  1  0  0  0
 82158  1  0  0  0
 82159  1  0  0  0
 83160  1  0  0  0
 84161  1  0  0  0
 84162  1  0  0  0
M  CHG  1  84   1
M  ISO  4   1 100  68 101  82 101  83 100
M  END
> <chiral flag>
0

> <version>
0

> <s_m_source_file>
/data/baiqing/PycharmProjects/Reinvent-master-3.2/result/LINK_invent/BTK/process_docking_weight1_custom_sum_contain_oxygen_bond_distance_aromatic_linkinvent_7_9_3/rearranged_h_0135.sdf

> <i_m_source_file_index>
69

> <r_mmod_Potential_Energy-OPLS-2005>
-199.274642944336

> <r_mmod_Stretch_Energy-OPLS-2005>
32.9568939208984

> <r_mmod_Bend_Energy-OPLS-2005>
88.9626998901367

> <r_mmod_Torsional_Energy-OPLS-2005>
246.744522094727

> <r_mmod_Improper_Torsional_Energy-OPLS-2005>
2.16946458816528

> <r_mmod_Van_der_Waal_Energy-OPLS-2005>
154.965179443359

> <r_mmod_Electrostatic_Energy-OPLS-2005>
-284.353942871094

> <r_mmod_Solvation_Energy-OPLS-2005>
-448.853393554688

> <b_mmod_Minimization_Converged-OPLS-2005>
0

> <r_mmod_RMS_Derivative-OPLS-2005>
1.80381178855896

$$$$
69
                    3D
 Structure written by MMmdl.
157166  0  0  1  0            999 V2000
  -30.4951  -15.2063   20.3821 C   0  0  0  0  0  0
  -30.4336  -12.7762   19.5098 C   0  0  0  0  0  0
  -29.5283  -12.5600   18.2741 C   0  0  0  0  0  0
  -28.0785  -12.2833   18.7080 C   0  0  0  0  0  0
  -27.6104  -13.2537   19.8197 C   0  0  2  0  0  0
  -28.6496  -13.4396   20.9465 C   0  0  0  0  0  0
  -25.2406  -13.8178   20.5740 C   0  0  0  0  0  0
  -24.1749  -13.0397   20.9255 C   0  0  0  0  0  0
  -24.6388  -11.6886   20.8775 C   0  0  0  0  0  0
  -23.9081  -10.4267   21.0430 C   0  0  0  0  0  0
  -24.3632   -9.4192   21.9206 C   0  0  0  0  0  0
  -23.6295   -8.2224   22.0759 C   0  0  0  0  0  0
  -22.4277   -8.0269   21.3541 C   0  0  0  0  0  0
  -21.9918   -9.0246   20.4654 C   0  0  0  0  0  0
  -22.7251  -10.2123   20.3076 C   0  0  0  0  0  0
  -21.6853   -6.0738   22.5287 C   0  0  0  0  0  0
  -21.4011   -6.5643   23.8215 C   0  0  0  0  0  0
  -21.3660   -5.6791   24.9172 C   0  0  0  0  0  0
  -21.6047   -4.3052   24.7228 C   0  0  0  0  0  0
  -21.8823   -3.8150   23.4347 C   0  0  0  0  0  0
  -21.9192   -4.6972   22.3403 C   0  0  0  0  0  0
  -22.7774  -13.5177   21.1877 C   0  0  0  0  0  0
  -22.1660   -4.2165   21.0975 F   0  0  0  0  0  0
  -21.5630   -3.4533   25.7740 F   0  0  0  0  0  0
  -29.8820  -13.9283   20.3085 N   0  0  0  0  0  0
  -26.2820  -12.9411   20.3248 N   0  0  0  0  0  0
  -25.9318  -11.6539   20.5753 N   0  0  0  0  0  0
  -22.0422  -12.8191   22.0444 N   0  0  0  0  0  0
  -25.4026  -15.1900   20.4123 N   0  0  0  0  0  0
  -31.7243  -15.1599   20.2310 O   0  0  0  0  0  0
  -21.6638   -6.8872   21.4240 O   0  0  0  0  0  0
  -22.3476  -14.5479   20.6706 O   0  0  0  0  0  0
  -24.6577  -31.8276   23.1733 C   0  0  0  0  0  0
  -25.9280  -32.4613   23.8191 C   0  0  1  0  0  0
  -27.2285  -26.9871   20.1846 C   0  0  0  0  0  0
  -25.5962  -33.8424   24.2106 N   0  0  0  0  0  0
  -23.4700  -30.4388   21.5221 C   0  0  2  0  0  0
  -24.9237  -28.8307   20.1154 C   0  0  0  0  0  0
  -22.7647  -29.4450   22.4811 C   0  0  0  0  0  0
  -18.0316  -28.1403   22.8480 C   0  0  0  0  0  0
  -24.1495  -36.7221   23.2648 C   0  0  0  0  0  0
  -26.0339  -30.6562   21.3918 C   0  0  0  0  0  0
  -26.1057  -29.2497   20.7399 C   0  0  0  0  0  0
  -27.2553  -28.3493   20.7432 C   0  0  0  0  0  0
  -26.0160  -26.6975   19.5218 C   0  0  0  0  0  0
  -24.9008  -27.5742   19.4866 C   0  0  0  0  0  0
  -23.7066  -29.7517   20.1487 C   0  0  0  0  0  0
  -25.4137  -36.2988   24.0305 C   0  0  1  0  0  0
  -20.5939  -28.3737   23.1205 C   0  0  2  0  0  0
  -20.6791  -26.9423   22.5409 C   0  0  0  0  0  0
  -19.5762  -26.6375   21.5222 C   0  0  0  0  0  0
  -18.1943  -26.7938   22.1632 C   0  0  0  0  0  0
  -19.1576  -28.8893   23.2827 C   0  0  0  0  0  0
  -18.9487  -30.1491   23.8855 C   0  0  0  0  0  0
  -17.6475  -30.6595   24.0554 C   0  0  0  0  0  0
  -25.9096  -34.9363   23.5028 C   0  0  0  0  0  0
  -16.5369  -29.9083   23.6338 C   0  0  0  0  0  0
  -16.7295  -28.6501   23.0360 C   0  0  0  0  0  0
  -26.4556  -31.6532   25.0691 C   0  0  0  0  0  0
  -25.3703  -31.3757   26.1364 C   0  0  0  0  0  0
  -27.0437  -30.2908   24.6362 C   0  0  0  0  0  0
  -27.6064  -32.4325   25.7485 C   0  0  0  0  0  0
  -27.5572  -37.1777   24.8471 C   0  0  0  0  0  0
  -21.4320  -29.3031   22.3568 N   0  0  0  0  0  0
  -26.4295  -37.3708   23.9397 N   0  0  0  0  0  0
  -24.7415  -30.9994   22.0839 N   0  0  0  0  0  0
  -23.4214  -28.8029   23.3043 O   0  0  0  0  0  0
  -28.2767  -25.9482   20.2329 O   0  0  0  0  0  0
  -26.5700  -34.8881   22.4622 O   0  0  0  0  0  0
  -23.5660  -32.1218   23.6859 O   0  0  0  0  0  0
  -28.1172  -18.3779   19.8592 C   0  0  0  0  0  0
  -28.4074  -23.2760   19.1332 C   0  0  0  0  0  0
  -29.0937  -23.5024   21.3474 C   0  0  0  0  0  0
  -28.3834  -16.8337   20.1874 C   0  0  0  0  0  0
  -30.3224  -18.0395   20.4955 C   0  0  0  0  0  0
  -28.3240  -21.6159   19.3281 C   0  0  0  0  0  0
  -29.0462  -21.8500   21.5377 C   0  0  0  0  0  0
  -29.1397  -19.2484   20.6149 C   0  0  1  0  0  0
  -28.1294  -24.3270   20.3406 C   0  0  1  0  0  0
  -29.8148  -16.5249   20.4374 N   0  0  0  0  0  0
  -29.2302  -20.8903   20.3449 N   0  3  1  0  0  0
  -31.4537  -12.9700   19.1757 H   0  0  0  0  0  0
  -30.4870  -11.8695   20.1156 H   0  0  0  0  0  0
  -29.9036  -11.7368   17.6656 H   0  0  0  0  0  0
  -29.5612  -13.4488   17.6409 H   0  0  0  0  0  0
  -28.0343  -11.2565   19.0727 H   0  0  0  0  0  0
  -27.4061  -12.3327   17.8505 H   0  0  0  0  0  0
  -27.5123  -14.2037   19.3055 H   0  0  0  0  0  0
  -28.8164  -12.5129   21.4953 H   0  0  0  0  0  0
  -28.2957  -14.1693   21.6760 H   0  0  0  0  0  0
  -25.2775   -9.5663   22.4790 H   0  0  0  0  0  0
  -24.0000   -7.4616   22.7478 H   0  0  0  0  0  0
  -21.0847   -8.8784   19.8957 H   0  0  0  0  0  0
  -22.3715  -10.9678   19.6193 H   0  0  0  0  0  0
  -21.2002   -7.6149   23.9722 H   0  0  0  0  0  0
  -21.1474   -6.0523   25.9075 H   0  0  0  0  0  0
  -22.0602   -2.7618   23.2851 H   0  0  0  0  0  0
  -22.3994  -11.9846   22.4865 H   0  0  0  0  0  0
  -21.1042  -13.1252   22.2621 H   0  0  0  0  0  0
  -24.6347  -15.8405   20.5345 H   0  0  0  0  0  0
  -26.2465  -15.6315   20.0759 H   0  0  0  0  0  0
  -26.7346  -32.5172   23.0911 H   0  0  0  0  0  0
  -25.0065  -33.9519   25.0224 H   0  0  0  0  0  0
  -22.7806  -31.2684   21.3528 H   0  0  0  0  0  0
  -23.3751  -35.9558   23.3319 H   0  0  0  0  0  0
  -24.3565  -36.8851   22.2058 H   0  0  0  0  0  0
  -23.7266  -37.6422   23.6689 H   0  0  0  0  0  0
  -26.2027  -31.3990   20.6111 H   0  0  0  0  0  0
  -26.8988  -30.7172   22.0408 H   0  0  0  0  0  0
  -28.1576  -28.6732   21.2426 H   0  0  0  0  0  0
  -25.9113  -25.7354   19.0412 H   0  0  0  0  0  0
  -24.0017  -27.2481   18.9816 H   0  0  0  0  0  0
  -23.8567  -30.5183   19.3877 H   0  0  0  0  0  0
  -22.8183  -29.2000   19.8351 H   0  0  0  0  0  0
  -25.1339  -36.1802   25.0794 H   0  0  0  0  0  0
  -21.0024  -28.3332   24.1328 H   0  0  0  0  0  0
  -20.5675  -26.2351   23.3644 H   0  0  0  0  0  0
  -21.6654  -26.7403   22.1209 H   0  0  0  0  0  0
  -19.6916  -25.6272   21.1277 H   0  0  0  0  0  0
  -19.6703  -27.3165   20.6733 H   0  0  0  0  0  0
  -17.4215  -26.6686   21.4029 H   0  0  0  0  0  0
  -18.0336  -26.0087   22.9036 H   0  0  0  0  0  0
  -19.7956  -30.7327   24.2198 H   0  0  0  0  0  0
  -17.5017  -31.6270   24.5168 H   0  0  0  0  0  0
  -15.5362  -30.2967   23.7682 H   0  0  0  0  0  0
  -15.8699  -28.0807   22.7092 H   0  0  0  0  0  0
  -24.5871  -30.7131   25.7661 H   0  0  0  0  0  0
  -24.8918  -32.2950   26.4741 H   0  0  0  0  0  0
  -25.7950  -30.8937   27.0179 H   0  0  0  0  0  0
  -26.3075  -29.6604   24.1360 H   0  0  0  0  0  0
  -27.3989  -29.7251   25.4988 H   0  0  0  0  0  0
  -27.9012  -30.4114   23.9740 H   0  0  0  0  0  0
  -27.2637  -33.3642   26.1997 H   0  0  0  0  0  0
  -28.3902  -32.6861   25.0334 H   0  0  0  0  0  0
  -28.0703  -31.8499   26.5455 H   0  0  0  0  0  0
  -28.2597  -38.0062   24.7477 H   0  0  0  0  0  0
  -28.1062  -36.2589   24.6356 H   0  0  0  0  0  0
  -27.2277  -37.1482   25.8871 H   0  0  0  0  0  0
  -20.9575  -29.8722   21.6704 H   0  0  0  0  0  0
  -26.0151  -38.2776   24.1375 H   0  0  0  0  0  0
  -27.0912  -18.6617   20.0980 H   0  0  0  0  0  0
  -28.2479  -18.5373   18.7874 H   0  0  0  0  0  0
  -27.7272  -23.5353   18.3220 H   0  0  0  0  0  0
  -29.3982  -23.4956   18.7326 H   0  0  0  0  0  0
  -30.1226  -23.7629   21.0939 H   0  0  0  0  0  0
  -28.9472  -23.9341   22.3376 H   0  0  0  0  0  0
  -28.0184  -16.2439   19.3511 H   0  0  0  0  0  0
  -27.8247  -16.5456   21.0786 H   0  0  0  0  0  0
  -31.0264  -18.1362   21.3217 H   0  0  0  0  0  0
  -30.9057  -18.2091   19.5896 H   0  0  0  0  0  0
  -28.5052  -21.1503   18.3598 H   0  0  0  0  0  0
  -27.2931  -21.3618   19.5761 H   0  0  0  0  0  0
  -28.0894  -21.6032   22.0010 H   0  0  0  0  0  0
  -29.7971  -21.5769   22.2796 H   0  0  0  0  0  0
  -28.8223  -19.2065   21.6579 H   0  0  0  0  0  0
  -27.1044  -24.1609   20.6733 H   0  0  0  0  0  0
  -30.1733  -21.0382   20.0184 H   0  0  0  0  0  0
  1 25  1  0  0  0
  1 30  2  0  0  0
  1 80  1  0  0  0
  2  3  1  0  0  0
  2 25  1  0  0  0
  2 82  1  0  0  0
  2 83  1  0  0  0
  3  4  1  0  0  0
  3 84  1  0  0  0
  3 85  1  0  0  0
  4  5  1  0  0  0
  4 86  1  0  0  0
  4 87  1  0  0  0
  5  6  1  0  0  0
  5 26  1  0  0  0
  5 88  1  0  0  0
  6 25  1  0  0  0
  6 89  1  0  0  0
  6 90  1  0  0  0
  7  8  2  0  0  0
  7 26  1  0  0  0
  7 29  1  0  0  0
  8  9  1  0  0  0
  8 22  1  0  0  0
  9 10  1  0  0  0
  9 27  2  0  0  0
 10 11  2  0  0  0
 10 15  1  0  0  0
 11 12  1  0  0  0
 11 91  1  0  0  0
 12 13  2  0  0  0
 12 92  1  0  0  0
 13 14  1  0  0  0
 13 31  1  0  0  0
 14 15  2  0  0  0
 14 93  1  0  0  0
 15 94  1  0  0  0
 16 17  2  0  0  0
 16 21  1  0  0  0
 16 31  1  0  0  0
 17 18  1  0  0  0
 17 95  1  0  0  0
 18 19  2  0  0  0
 18 96  1  0  0  0
 19 20  1  0  0  0
 19 24  1  0  0  0
 20 21  2  0  0  0
 20 97  1  0  0  0
 21 23  1  0  0  0
 22 28  1  0  0  0
 22 32  2  0  0  0
 26 27  1  0  0  0
 28 98  1  0  0  0
 28 99  1  0  0  0
 29100  1  0  0  0
 29101  1  0  0  0
 33 34  1  0  0  0
 33 66  1  0  0  0
 33 70  2  0  0  0
 34 36  1  0  0  0
 34 59  1  0  0  0
 34102  1  0  0  0
 35 44  2  0  0  0
 35 45  1  0  0  0
 35 68  1  0  0  0
 36 56  1  0  0  0
 36103  1  0  0  0
 37 39  1  0  0  0
 37 47  1  0  0  0
 37 66  1  0  0  0
 37104  1  0  0  0
 38 43  2  0  0  0
 38 46  1  0  0  0
 38 47  1  0  0  0
 39 64  1  0  0  0
 39 67  2  0  0  0
 40 52  1  0  0  0
 40 53  2  0  0  0
 40 58  1  0  0  0
 41105  1  0  0  0
 41106  1  0  0  0
 41107  1  0  0  0
 41 48  1  0  0  0
 42 43  1  0  0  0
 42 66  1  0  0  0
 42108  1  0  0  0
 42109  1  0  0  0
 43 44  1  0  0  0
 44110  1  0  0  0
 45 46  2  0  0  0
 45111  1  0  0  0
 46112  1  0  0  0
 47113  1  0  0  0
 47114  1  0  0  0
 48 56  1  0  0  0
 48 65  1  0  0  0
 48115  1  0  0  0
 49 50  1  0  0  0
 49 53  1  0  0  0
 49 64  1  0  0  0
 49116  1  0  0  0
 50 51  1  0  0  0
 50117  1  0  0  0
 50118  1  0  0  0
 51 52  1  0  0  0
 51119  1  0  0  0
 51120  1  0  0  0
 52121  1  0  0  0
 52122  1  0  0  0
 53 54  1  0  0  0
 54 55  2  0  0  0
 54123  1  0  0  0
 55 57  1  0  0  0
 55124  1  0  0  0
 56 69  2  0  0  0
 57 58  2  0  0  0
 57125  1  0  0  0
 58126  1  0  0  0
 59 60  1  0  0  0
 59 61  1  0  0  0
 59 62  1  0  0  0
 60127  1  0  0  0
 60128  1  0  0  0
 60129  1  0  0  0
 61130  1  0  0  0
 61131  1  0  0  0
 61132  1  0  0  0
 62133  1  0  0  0
 62134  1  0  0  0
 62135  1  0  0  0
 63 65  1  0  0  0
 63136  1  0  0  0
 63137  1  0  0  0
 63138  1  0  0  0
 64139  1  0  0  0
 65140  1  0  0  0
 68 79  1  0  0  0
 71 74  1  0  0  0
 71141  1  0  0  0
 71142  1  0  0  0
 71 78  1  0  0  0
 72 76  1  0  0  0
 72 79  1  0  0  0
 72143  1  0  0  0
 72144  1  0  0  0
 73 77  1  0  0  0
 73 79  1  0  0  0
 73145  1  0  0  0
 73146  1  0  0  0
 74 80  1  0  0  0
 74147  1  0  0  0
 74148  1  0  0  0
 75 78  1  0  0  0
 75 80  1  0  0  0
 75149  1  0  0  0
 75150  1  0  0  0
 76151  1  0  0  0
 76152  1  0  0  0
 76 81  1  0  0  0
 77 81  1  0  0  0
 77153  1  0  0  0
 77154  1  0  0  0
 78 81  1  0  0  0
 78155  1  0  0  0
 79156  1  0  0  0
 81157  1  0  0  0
M  CHG  1  81   1
M  ISO  4   1 100  68 101  79 101  80 100
M  END
> <chiral flag>
0

> <version>
0

> <s_m_source_file>
/data/baiqing/PycharmProjects/Reinvent-master-3.2/result/LINK_invent/BTK/process_docking_weight1_custom_sum_contain_oxygen_bond_distance_aromatic_linkinvent_7_9_3/rearranged_h_0135.sdf

> <i_m_source_file_index>
70

> <r_mmod_Potential_Energy-OPLS-2005>
1069.53295898438

> <r_mmod_Stretch_Energy-OPLS-2005>
414.823150634766

> <r_mmod_Bend_Energy-OPLS-2005>
454.195068359375

> <r_mmod_Torsional_Energy-OPLS-2005>
354.850280761719

> <r_mmod_Improper_Torsional_Energy-OPLS-2005>
3.90050935745239

> <r_mmod_Van_der_Waal_Energy-OPLS-2005>
106.813079833984

> <r_mmod_Electrostatic_Energy-OPLS-2005>
-190.55876159668

> <r_mmod_Solvation_Energy-OPLS-2005>
-456.012176513672

> <b_mmod_Minimization_Converged-OPLS-2005>
0

> <r_mmod_RMS_Derivative-OPLS-2005>
1.81571173667908

$$$$
70
                    3D
 Structure written by MMmdl.
165174  0  0  1  0            999 V2000
  -29.1537  -16.1313   20.3341 C   0  0  0  0  0  0
  -30.1729  -13.5894   19.5782 C   0  0  0  0  0  0
  -29.4929  -12.8006   18.4030 C   0  0  0  0  0  0
  -28.1219  -12.2523   18.8267 C   0  0  0  0  0  0
  -27.4590  -13.2551   19.7858 C   0  0  2  0  0  0
  -28.3333  -13.6781   20.9532 C   0  0  0  0  0  0
  -25.1724  -13.8032   20.5723 C   0  0  0  0  0  0
  -24.1182  -13.0234   20.9235 C   0  0  0  0  0  0
  -24.5901  -11.6739   20.8765 C   0  0  0  0  0  0
  -23.8761  -10.4147   21.0468 C   0  0  0  0  0  0
  -24.3443   -9.4128   21.9226 C   0  0  0  0  0  0
  -23.6195   -8.2139   22.0764 C   0  0  0  0  0  0
  -22.4187   -8.0163   21.3543 C   0  0  0  0  0  0
  -21.9752   -9.0093   20.4644 C   0  0  0  0  0  0
  -22.6996  -10.1992   20.3071 C   0  0  0  0  0  0
  -21.6810   -6.0668   22.5294 C   0  0  0  0  0  0
  -21.3984   -6.5603   23.8217 C   0  0  0  0  0  0
  -21.3650   -5.6773   24.9189 C   0  0  0  0  0  0
  -21.6043   -4.3034   24.7249 C   0  0  0  0  0  0
  -21.8824   -3.8108   23.4377 C   0  0  0  0  0  0
  -21.9179   -4.6909   22.3424 C   0  0  0  0  0  0
  -22.7322  -13.5091   21.1981 C   0  0  0  0  0  0
  -22.1656   -4.2101   21.1001 F   0  0  0  0  0  0
  -21.5630   -3.4526   25.7765 F   0  0  0  0  0  0
  -29.2035  -14.6195   20.2829 N   0  0  0  0  0  0
  -26.1803  -12.9110   20.2880 N   0  0  0  0  0  0
  -25.8710  -11.6291   20.5534 N   0  0  0  0  0  0
  -22.0001  -12.8116   22.0559 N   0  0  0  0  0  0
  -25.3625  -15.1804   20.4534 N   0  0  0  0  0  0
  -30.4188  -16.2948   20.2129 O   0  0  0  0  0  0
  -21.6574   -6.8765   21.4242 O   0  0  0  0  0  0
  -22.3169  -14.5487   20.6890 O   0  0  0  0  0  0
  -24.6740  -31.9611   23.1737 C   0  0  0  0  0  0
  -25.9519  -32.5204   23.8528 C   0  0  1  0  0  0
  -26.7014  -27.3015   20.6881 C   0  0  0  0  0  0
  -25.6329  -33.8897   24.2575 N   0  0  0  0  0  0
  -23.5287  -30.7062   21.3958 C   0  0  2  0  0  0
  -24.9098  -29.1560   19.9497 C   0  0  0  0  0  0
  -23.0280  -29.5914   22.2586 C   0  0  0  0  0  0
  -18.6188  -27.6674   22.5252 C   0  0  0  0  0  0
  -24.1502  -36.7402   23.2605 C   0  0  0  0  0  0
  -26.0258  -30.9325   21.3322 C   0  0  0  0  0  0
  -26.0293  -29.5623   20.6896 C   0  0  0  0  0  0
  -27.0297  -28.6316   20.9833 C   0  0  0  0  0  0
  -25.9176  -26.9913   19.5735 C   0  0  0  0  0  0
  -24.8822  -27.8989   19.3101 C   0  0  0  0  0  0
  -23.7583  -30.1228   19.9608 C   0  0  0  0  0  0
  -25.4117  -36.3267   24.0348 C   0  0  1  0  0  0
  -21.3506  -27.9925   22.4334 C   0  0  2  0  0  0
  -21.6019  -24.9345   22.9685 C   0  0  0  0  0  0
  -20.1034  -24.2179   22.7273 C   0  0  0  0  0  0
  -18.7782  -25.1849   22.7359 C   0  0  0  0  0  0
  -19.7408  -28.6403   22.6593 C   0  0  0  0  0  0
  -19.4761  -29.9041   23.3859 C   0  0  0  0  0  0
  -18.2083  -30.4215   23.7809 C   0  0  0  0  0  0
  -25.9122  -34.9681   23.5173 C   0  0  0  0  0  0
  -17.1015  -29.7510   23.3011 C   0  0  0  0  0  0
  -17.3590  -28.5575   22.5845 C   0  0  0  0  0  0
  -26.4554  -31.6695   25.0797 C   0  0  0  0  0  0
  -25.3626  -31.3751   26.1327 C   0  0  0  0  0  0
  -27.0317  -30.3169   24.6048 C   0  0  0  0  0  0
  -27.6115  -32.4206   25.7797 C   0  0  0  0  0  0
  -27.5604  -37.1898   24.8461 C   0  0  0  0  0  0
  -22.0335  -28.9395   21.7057 N   0  0  0  0  0  0
  -26.4293  -37.3947   23.9447 N   0  0  0  0  0  0
  -24.7596  -31.2399   22.0189 N   0  0  0  0  0  0
  -23.5229  -29.2919   23.3524 O   0  0  0  0  0  0
  -26.3494  -26.4957   21.7691 O   0  0  0  0  0  0
  -26.5486  -34.9094   22.4612 O   0  0  0  0  0  0
  -23.5812  -32.2138   23.7067 O   0  0  0  0  0  0
  -22.1221  -26.7621   24.2498 C   0  0  0  0  0  0
  -23.1945  -26.1745   21.5327 C   0  0  0  0  0  0
  -20.3577  -26.5406   23.7498 C   0  0  0  0  0  0
  -20.4397  -26.1844   21.4814 C   0  0  0  0  0  0
  -23.4108  -26.6079   23.0223 C   0  0  0  0  0  0
  -22.0497  -25.4855   20.7779 C   0  0  0  0  0  0
  -18.6016  -26.5806   24.6283 C   0  0  0  0  0  0
  -18.6745  -26.1731   20.6125 C   0  0  0  0  0  0
  -16.8681  -26.2438   23.4425 C   0  0  0  0  0  0
  -25.1662  -26.8212   22.9401 C   0  0  0  0  0  0
  -25.2665  -20.5853   20.4699 C   0  0  0  0  0  0
  -24.3685  -22.6665   20.5323 C   0  0  0  0  0  0
  -27.0378  -19.1667   20.4085 C   0  0  0  0  0  0
  -22.8120  -23.8637   20.5016 N   0  0  0  0  0  0
  -27.8653  -17.3003   20.3905 N   0  0  0  0  0  0
  -17.0292  -26.1626   21.5406 N   0  3  0  0  0  0
  -31.0265  -14.1288   19.1650 H   0  0  0  0  0  0
  -30.6170  -12.9018   20.3010 H   0  0  0  0  0  0
  -30.1396  -12.0006   18.0411 H   0  0  0  0  0  0
  -29.3488  -13.4837   17.5643 H   0  0  0  0  0  0
  -28.2692  -11.3026   19.3448 H   0  0  0  0  0  0
  -27.4934  -12.0459   17.9606 H   0  0  0  0  0  0
  -27.2555  -14.1148   19.1398 H   0  0  0  0  0  0
  -28.8190  -12.8404   21.4592 H   0  0  0  0  0  0
  -27.7735  -14.2171   21.7186 H   0  0  0  0  0  0
  -25.2582   -9.5666   22.4799 H   0  0  0  0  0  0
  -23.9929   -7.4527   22.7472 H   0  0  0  0  0  0
  -21.0688   -8.8561   19.8948 H   0  0  0  0  0  0
  -22.3441  -10.9529   19.6187 H   0  0  0  0  0  0
  -21.1973   -7.6112   23.9705 H   0  0  0  0  0  0
  -21.1472   -6.0509   25.9088 H   0  0  0  0  0  0
  -22.0616   -2.7572   23.2891 H   0  0  0  0  0  0
  -22.3570  -11.9718   22.4880 H   0  0  0  0  0  0
  -21.0660  -13.1201   22.2839 H   0  0  0  0  0  0
  -24.4722  -15.6616   20.5481 H   0  0  0  0  0  0
  -25.9522  -15.4902   21.2131 H   0  0  0  0  0  0
  -26.7809  -32.5968   23.1547 H   0  0  0  0  0  0
  -25.0676  -34.0020   25.0862 H   0  0  0  0  0  0
  -22.7682  -31.4878   21.3427 H   0  0  0  0  0  0
  -23.3797  -35.9703   23.3264 H   0  0  0  0  0  0
  -24.3620  -36.9009   22.2021 H   0  0  0  0  0  0
  -23.7206  -37.6599   23.6586 H   0  0  0  0  0  0
  -26.1982  -31.6866   20.5631 H   0  0  0  0  0  0
  -26.8980  -30.9582   21.9743 H   0  0  0  0  0  0
  -27.7219  -28.8589   21.7846 H   0  0  0  0  0  0
  -25.7502  -25.9612   19.2857 H   0  0  0  0  0  0
  -24.0436  -27.6008   18.6981 H   0  0  0  0  0  0
  -24.0199  -30.9417   19.2912 H   0  0  0  0  0  0
  -22.8719  -29.6795   19.5062 H   0  0  0  0  0  0
  -25.1261  -36.2144   25.0833 H   0  0  0  0  0  0
  -21.3742  -28.5907   23.3596 H   0  0  0  0  0  0
  -21.6614  -24.5802   24.0147 H   0  0  0  0  0  0
  -22.4710  -24.2962   22.7891 H   0  0  0  0  0  0
  -19.9867  -23.3950   23.4363 H   0  0  0  0  0  0
  -20.1460  -23.6811   21.7762 H   0  0  0  0  0  0
  -18.2412  -24.4530   22.1098 H   0  0  0  0  0  0
  -18.4265  -24.6333   23.6211 H   0  0  0  0  0  0
  -20.3336  -30.5030   23.6660 H   0  0  0  0  0  0
  -18.1163  -31.3534   24.3211 H   0  0  0  0  0  0
  -16.1043  -30.1538   23.4143 H   0  0  0  0  0  0
  -16.3833  -28.2527   22.2434 H   0  0  0  0  0  0
  -24.5737  -30.7344   25.7369 H   0  0  0  0  0  0
  -24.8928  -32.2905   26.4927 H   0  0  0  0  0  0
  -25.7763  -30.8621   27.0016 H   0  0  0  0  0  0
  -26.2867  -29.7241   24.0774 H   0  0  0  0  0  0
  -27.3769  -29.7153   25.4467 H   0  0  0  0  0  0
  -27.8873  -30.4515   23.9425 H   0  0  0  0  0  0
  -27.2772  -33.3462   26.2499 H   0  0  0  0  0  0
  -28.4036  -32.6805   25.0758 H   0  0  0  0  0  0
  -28.0632  -31.8148   26.5667 H   0  0  0  0  0  0
  -28.2580  -38.0238   24.7605 H   0  0  0  0  0  0
  -28.1147  -36.2787   24.6164 H   0  0  0  0  0  0
  -27.2339  -37.1401   25.8863 H   0  0  0  0  0  0
  -21.6648  -29.2217   20.8122 H   0  0  0  0  0  0
  -26.0195  -38.3014   24.1527 H   0  0  0  0  0  0
  -22.3701  -27.0158   25.2707 H   0  0  0  0  0  0
  -24.1237  -25.9447   21.0471 H   0  0  0  0  0  0
  -18.5062  -27.5491   25.1237 H   0  0  0  0  0  0
  -18.6105  -25.8769   25.4613 H   0  0  0  0  0  0
  -18.6650  -25.3205   19.9334 H   0  0  0  0  0  0
  -18.6546  -27.0335   19.9421 H   0  0  0  0  0  0
  -16.0303  -26.8556   23.7821 H   0  0  0  0  0  0
  -16.4463  -25.2776   23.7300 H   0  0  0  0  0  0
  -25.5063  -26.2238   23.7866 H   0  0  0  0  0  0
  -25.3888  -27.8313   23.2649 H   0  0  0  0  0  0
  -24.6928  -20.1816   19.6341 H   0  0  0  0  0  0
  -24.7597  -20.1758   21.3440 H   0  0  0  0  0  0
  -24.8942  -23.0876   21.3903 H   0  0  0  0  0  0
  -24.8965  -23.1031   19.6839 H   0  0  0  0  0  0
  -27.6398  -19.5923   21.2117 H   0  0  0  0  0  0
  -27.5214  -19.5387   19.5055 H   0  0  0  0  0  0
  -22.0402  -23.2605   20.2188 H   0  0  0  0  0  0
  -27.0550  -16.6908   20.3795 H   0  0  0  0  0  0
  -16.4545  -25.4164   21.1845 H   0  0  0  0  0  0
  -16.5910  -27.0090   21.2172 H   0  0  0  0  0  0
  1 25  1  0  0  0
  1 30  2  0  0  0
  1 85  1  0  0  0
  2  3  1  0  0  0
  2 25  1  0  0  0
  2 87  1  0  0  0
  2 88  1  0  0  0
  3  4  1  0  0  0
  3 89  1  0  0  0
  3 90  1  0  0  0
  4  5  1  0  0  0
  4 91  1  0  0  0
  4 92  1  0  0  0
  5  6  1  0  0  0
  5 26  1  0  0  0
  5 93  1  0  0  0
  6 25  1  0  0  0
  6 94  1  0  0  0
  6 95  1  0  0  0
  7  8  2  0  0  0
  7 26  1  0  0  0
  7 29  1  0  0  0
  8  9  1  0  0  0
  8 22  1  0  0  0
  9 10  1  0  0  0
  9 27  2  0  0  0
 10 11  2  0  0  0
 10 15  1  0  0  0
 11 12  1  0  0  0
 11 96  1  0  0  0
 12 13  2  0  0  0
 12 97  1  0  0  0
 13 14  1  0  0  0
 13 31  1  0  0  0
 14 15  2  0  0  0
 14 98  1  0  0  0
 15 99  1  0  0  0
 16 17  2  0  0  0
 16 21  1  0  0  0
 16 31  1  0  0  0
 17 18  1  0  0  0
 17100  1  0  0  0
 18 19  2  0  0  0
 18101  1  0  0  0
 19 20  1  0  0  0
 19 24  1  0  0  0
 20 21  2  0  0  0
 20102  1  0  0  0
 21 23  1  0  0  0
 22 28  1  0  0  0
 22 32  2  0  0  0
 26 27  1  0  0  0
 28103  1  0  0  0
 28104  1  0  0  0
 29105  1  0  0  0
 29106  1  0  0  0
 33 34  1  0  0  0
 33 66  1  0  0  0
 33 70  2  0  0  0
 34 36  1  0  0  0
 34 59  1  0  0  0
 34107  1  0  0  0
 35 44  2  0  0  0
 35 45  1  0  0  0
 35 68  1  0  0  0
 36 56  1  0  0  0
 36108  1  0  0  0
 37 39  1  0  0  0
 37 47  1  0  0  0
 37 66  1  0  0  0
 37109  1  0  0  0
 38 43  2  0  0  0
 38 46  1  0  0  0
 38 47  1  0  0  0
 39 64  1  0  0  0
 39 67  2  0  0  0
 40 52  1  0  0  0
 40 53  2  0  0  0
 40 58  1  0  0  0
 41110  1  0  0  0
 41111  1  0  0  0
 41112  1  0  0  0
 41 48  1  0  0  0
 42 43  1  0  0  0
 42 66  1  0  0  0
 42113  1  0  0  0
 42114  1  0  0  0
 43 44  1  0  0  0
 44115  1  0  0  0
 45 46  2  0  0  0
 45116  1  0  0  0
 46117  1  0  0  0
 47118  1  0  0  0
 47119  1  0  0  0
 48 56  1  0  0  0
 48 65  1  0  0  0
 48120  1  0  0  0
 49 50  1  0  0  0
 49 53  1  0  0  0
 49 64  1  0  0  0
 49121  1  0  0  0
 50 51  1  0  0  0
 50122  1  0  0  0
 50123  1  0  0  0
 51 52  1  0  0  0
 51124  1  0  0  0
 51125  1  0  0  0
 52126  1  0  0  0
 52127  1  0  0  0
 53 54  1  0  0  0
 54 55  2  0  0  0
 54128  1  0  0  0
 55 57  1  0  0  0
 55129  1  0  0  0
 56 69  2  0  0  0
 57 58  2  0  0  0
 57130  1  0  0  0
 58131  1  0  0  0
 59 60  1  0  0  0
 59 61  1  0  0  0
 59 62  1  0  0  0
 60132  1  0  0  0
 60133  1  0  0  0
 60134  1  0  0  0
 61135  1  0  0  0
 61136  1  0  0  0
 61137  1  0  0  0
 62138  1  0  0  0
 62139  1  0  0  0
 62140  1  0  0  0
 63 65  1  0  0  0
 63141  1  0  0  0
 63142  1  0  0  0
 63143  1  0  0  0
 64144  1  0  0  0
 65145  1  0  0  0
 68 80  1  0  0  0
 71 73  2  0  0  0
 71 75  1  0  0  0
 71146  1  0  0  0
 72 75  2  0  0  0
 72 76  1  0  0  0
 72147  1  0  0  0
 73 74  1  0  0  0
 73 77  1  0  0  0
 74 76  2  0  0  0
 74 78  1  0  0  0
 75 80  1  0  0  0
 76 84  1  0  0  0
 77 79  1  0  0  0
 77148  1  0  0  0
 77149  1  0  0  0
 78 86  1  0  0  0
 78150  1  0  0  0
 78151  1  0  0  0
 79 86  1  0  0  0
 79152  1  0  0  0
 79153  1  0  0  0
 80154  1  0  0  0
 80155  1  0  0  0
 81 82  1  0  0  0
 81 83  1  0  0  0
 81156  1  0  0  0
 81157  1  0  0  0
 82 84  1  0  0  0
 82158  1  0  0  0
 82159  1  0  0  0
 83 85  1  0  0  0
 83160  1  0  0  0
 83161  1  0  0  0
 84162  1  0  0  0
 85163  1  0  0  0
 86164  1  0  0  0
 86165  1  0  0  0
M  CHG  1  86   1
M  ISO  4   1 100  68 101  80 101  85 100
M  END
> <chiral flag>
0

> <version>
0

> <s_m_source_file>
/data/baiqing/PycharmProjects/Reinvent-master-3.2/result/LINK_invent/BTK/process_docking_weight1_custom_sum_contain_oxygen_bond_distance_aromatic_linkinvent_7_9_3/rearranged_h_0135.sdf

> <i_m_source_file_index>
71

> <r_mmod_Potential_Energy-OPLS-2005>
22230.537109375

> <r_mmod_Stretch_Energy-OPLS-2005>
11811.5771484375

> <r_mmod_Bend_Energy-OPLS-2005>
1744.46435546875

> <r_mmod_Torsional_Energy-OPLS-2005>
672.785827636719

> <r_mmod_Improper_Torsional_Energy-OPLS-2005>
59.7896041870117

> <r_mmod_Van_der_Waal_Energy-OPLS-2005>
4065.46362304688

> <r_mmod_Electrostatic_Energy-OPLS-2005>
-324.407836914062

> <r_mmod_Solvation_Energy-OPLS-2005>
-488.098968505859

> <b_mmod_Minimization_Converged-OPLS-2005>
0

> <r_mmod_RMS_Derivative-OPLS-2005>
5.3180570602417

$$$$
71
                    3D
 Structure written by MMmdl.
173182  0  0  1  0            999 V2000
  -30.7719  -14.3713   20.6838 C   0  0  0  0  0  0
  -30.4168  -12.2978   19.3918 C   0  0  0  0  0  0
  -29.4820  -12.5282   18.1906 C   0  0  0  0  0  0
  -28.0076  -12.3804   18.6100 C   0  0  0  0  0  0
  -27.6653  -13.2044   19.8787 C   0  0  2  0  0  0
  -28.7047  -12.9518   20.9925 C   0  0  0  0  0  0
  -25.2600  -13.8160   20.5671 C   0  0  0  0  0  0
  -24.1843  -13.0441   20.9162 C   0  0  0  0  0  0
  -24.6394  -11.6908   20.8727 C   0  0  0  0  0  0
  -23.9061  -10.4294   21.0402 C   0  0  0  0  0  0
  -24.3612   -9.4212   21.9183 C   0  0  0  0  0  0
  -23.6288   -8.2248   22.0759 C   0  0  0  0  0  0
  -22.4274   -8.0283   21.3545 C   0  0  0  0  0  0
  -21.9907   -9.0254   20.4646 C   0  0  0  0  0  0
  -22.7234  -10.2133   20.3052 C   0  0  0  0  0  0
  -21.6852   -6.0738   22.5280 C   0  0  0  0  0  0
  -21.4011   -6.5641   23.8212 C   0  0  0  0  0  0
  -21.3659   -5.6792   24.9174 C   0  0  0  0  0  0
  -21.6045   -4.3055   24.7223 C   0  0  0  0  0  0
  -21.8819   -3.8147   23.4345 C   0  0  0  0  0  0
  -21.9192   -4.6965   22.3402 C   0  0  0  0  0  0
  -22.7868  -13.5244   21.1835 C   0  0  0  0  0  0
  -22.1661   -4.2151   21.0980 F   0  0  0  0  0  0
  -21.5631   -3.4539   25.7737 F   0  0  0  0  0  0
  -30.0467  -13.2457   20.4528 N   0  0  0  0  0  0
  -26.3044  -12.9328   20.3385 N   0  0  0  0  0  0
  -25.9322  -11.6488   20.5767 N   0  0  0  0  0  0
  -22.0504  -12.8228   22.0384 N   0  0  0  0  0  0
  -25.4329  -15.1869   20.4070 N   0  0  0  0  0  0
  -31.8000  -14.6553   20.0626 O   0  0  0  0  0  0
  -21.6640   -6.8880   21.4242 O   0  0  0  0  0  0
  -22.3551  -14.5557   20.6702 O   0  0  0  0  0  0
  -24.6129  -31.8695   23.2117 C   0  0  0  0  0  0
  -25.9029  -32.4833   23.8405 C   0  0  1  0  0  0
  -27.2410  -27.4704   20.0658 C   0  0  0  0  0  0
  -25.5895  -33.8630   24.2337 N   0  0  0  0  0  0
  -23.3996  -30.4933   21.5524 C   0  0  2  0  0  0
  -24.8459  -28.9648   20.1127 C   0  0  0  0  0  0
  -22.7397  -29.4668   22.5009 C   0  0  0  0  0  0
  -18.0264  -28.1380   22.8494 C   0  0  0  0  0  0
  -24.1483  -36.7317   23.2636 C   0  0  0  0  0  0
  -25.9263  -30.8439   21.3605 C   0  0  0  0  0  0
  -26.0059  -29.4822   20.7035 C   0  0  0  0  0  0
  -27.2059  -28.7383   20.6845 C   0  0  0  0  0  0
  -26.0565  -26.9468   19.5069 C   0  0  0  0  0  0
  -24.8636  -27.6924   19.5158 C   0  0  0  0  0  0
  -23.6054  -29.8263   20.1662 C   0  0  0  0  0  0
  -25.4106  -36.3123   24.0339 C   0  0  1  0  0  0
  -20.5854  -28.3662   23.1327 C   0  0  2  0  0  0
  -20.6762  -26.9403   22.5421 C   0  0  0  0  0  0
  -19.5743  -26.6390   21.5213 C   0  0  0  0  0  0
  -18.1915  -26.7930   22.1617 C   0  0  0  0  0  0
  -19.1514  -28.8834   23.2910 C   0  0  0  0  0  0
  -18.9447  -30.1442   23.8919 C   0  0  0  0  0  0
  -17.6451  -30.6586   24.0566 C   0  0  0  0  0  0
  -25.9033  -34.9484   23.5137 C   0  0  0  0  0  0
  -16.5340  -29.9092   23.6327 C   0  0  0  0  0  0
  -16.7253  -28.6506   23.0352 C   0  0  0  0  0  0
  -26.4467  -31.6600   25.0719 C   0  0  0  0  0  0
  -25.3743  -31.3681   26.1468 C   0  0  0  0  0  0
  -27.0294  -30.3050   24.6069 C   0  0  0  0  0  0
  -27.6045  -32.4310   25.7488 C   0  0  0  0  0  0
  -27.5587  -37.1814   24.8459 C   0  0  0  0  0  0
  -21.4128  -29.3031   22.3740 N   0  0  0  0  0  0
  -26.4291  -37.3810   23.9411 N   0  0  0  0  0  0
  -24.6646  -31.0816   22.1007 N   0  0  0  0  0  0
  -23.4172  -28.8213   23.3050 O   0  0  0  0  0  0
  -28.3896  -26.7178   20.1047 O   0  0  0  0  0  0
  -26.5597  -34.8932   22.4701 O   0  0  0  0  0  0
  -23.5329  -32.1438   23.7527 O   0  0  0  0  0  0
  -31.8974  -18.0900   20.7584 C   0  0  0  0  0  0
  -31.8296  -19.3567   20.1492 C   0  0  0  0  0  0
  -29.6147  -19.6792   21.0923 C   0  0  0  0  0  0
  -30.8391  -17.6107   21.5593 C   0  0  0  0  0  0
  -30.6947  -20.1716   20.3190 C   0  0  0  0  0  0
  -29.6728  -18.4055   21.7180 C   0  0  0  0  0  0
  -28.3426  -24.1818   18.4474 C   0  0  0  0  0  0
  -30.3886  -24.5568   19.8877 C   0  0  0  0  0  0
  -28.5076  -25.6006   17.8727 C   0  0  0  0  0  0
  -30.5099  -25.9889   19.3206 C   0  0  0  0  0  0
  -29.6860  -23.5836   18.9120 C   0  0  1  0  0  0
  -29.1428  -26.5603   18.8999 C   0  0  2  0  0  0
  -26.2933  -17.8013   23.3362 C   0  0  0  0  0  0
  -31.0292  -16.2727   22.2798 C   0  0  0  0  0  0
  -29.4581  -22.1924   19.5436 C   0  0  0  0  0  0
  -27.3244  -18.6061   22.5416 C   0  0  0  0  0  0
  -30.6995  -21.4472   19.7261 N   0  0  0  0  0  0
  -28.6122  -17.9268   22.5089 N   0  0  0  0  0  0
  -30.3265  -15.1352   21.6875 N   0  0  0  0  0  0
  -31.4590  -12.4004   19.0843 H   0  0  0  0  0  0
  -30.3188  -11.2755   19.7607 H   0  0  0  0  0  0
  -29.7147  -11.8240   17.3910 H   0  0  0  0  0  0
  -29.6488  -13.5252   17.7797 H   0  0  0  0  0  0
  -27.8174  -11.3220   18.7930 H   0  0  0  0  0  0
  -27.3519  -12.6684   17.7876 H   0  0  0  0  0  0
  -27.7214  -14.2583   19.6042 H   0  0  0  0  0  0
  -28.6696  -11.9091   21.3113 H   0  0  0  0  0  0
  -28.4488  -13.5301   21.8803 H   0  0  0  0  0  0
  -25.2758   -9.5691   22.4756 H   0  0  0  0  0  0
  -23.9999   -7.4642   22.7481 H   0  0  0  0  0  0
  -21.0840   -8.8766   19.8949 H   0  0  0  0  0  0
  -22.3695  -10.9668   19.6157 H   0  0  0  0  0  0
  -21.1999   -7.6147   23.9716 H   0  0  0  0  0  0
  -21.1481   -6.0522   25.9077 H   0  0  0  0  0  0
  -22.0598   -2.7608   23.2846 H   0  0  0  0  0  0
  -22.4110  -11.9871   22.4747 H   0  0  0  0  0  0
  -21.1122  -13.1255   22.2591 H   0  0  0  0  0  0
  -24.6731  -15.8475   20.5256 H   0  0  0  0  0  0
  -26.3006  -15.6269   20.1265 H   0  0  0  0  0  0
  -26.7104  -32.5552   23.1176 H   0  0  0  0  0  0
  -25.0055  -33.9800   25.0487 H   0  0  0  0  0  0
  -22.6876  -31.3097   21.4152 H   0  0  0  0  0  0
  -23.3755  -35.9641   23.3294 H   0  0  0  0  0  0
  -24.3583  -36.8933   22.2051 H   0  0  0  0  0  0
  -23.7219  -37.6514   23.6648 H   0  0  0  0  0  0
  -26.0344  -31.6133   20.5946 H   0  0  0  0  0  0
  -26.8154  -30.8961   21.9771 H   0  0  0  0  0  0
  -28.1019  -29.1307   21.1449 H   0  0  0  0  0  0
  -26.0397  -25.9538   19.0843 H   0  0  0  0  0  0
  -23.9664  -27.2772   19.0774 H   0  0  0  0  0  0
  -23.7082  -30.6014   19.4060 H   0  0  0  0  0  0
  -22.7306  -29.2429   19.8737 H   0  0  0  0  0  0
  -25.1284  -36.1994   25.0832 H   0  0  0  0  0  0
  -20.9939  -28.3225   24.1450 H   0  0  0  0  0  0
  -20.5672  -26.2269   23.3606 H   0  0  0  0  0  0
  -21.6634  -26.7464   22.1204 H   0  0  0  0  0  0
  -19.6907  -25.6307   21.1231 H   0  0  0  0  0  0
  -19.6687  -27.3216   20.6759 H   0  0  0  0  0  0
  -17.4194  -26.6689   21.4008 H   0  0  0  0  0  0
  -18.0304  -26.0060   22.9000 H   0  0  0  0  0  0
  -19.7923  -30.7250   24.2306 H   0  0  0  0  0  0
  -17.5007  -31.6271   24.5157 H   0  0  0  0  0  0
  -15.5345  -30.3002   23.7647 H   0  0  0  0  0  0
  -15.8649  -28.0836   22.7064 H   0  0  0  0  0  0
  -24.5919  -30.7030   25.7793 H   0  0  0  0  0  0
  -24.8933  -32.2824   26.4948 H   0  0  0  0  0  0
  -25.8102  -30.8821   27.0203 H   0  0  0  0  0  0
  -26.2828  -29.6819   24.1127 H   0  0  0  0  0  0
  -27.4084  -29.7272   25.4508 H   0  0  0  0  0  0
  -27.8652  -30.4382   23.9196 H   0  0  0  0  0  0
  -27.2669  -33.3604   26.2088 H   0  0  0  0  0  0
  -28.3851  -32.6875   25.0314 H   0  0  0  0  0  0
  -28.0711  -31.8413   26.5389 H   0  0  0  0  0  0
  -28.2590  -38.0128   24.7542 H   0  0  0  0  0  0
  -28.1098  -36.2663   24.6240 H   0  0  0  0  0  0
  -27.2307  -37.1405   25.8861 H   0  0  0  0  0  0
  -20.9285  -29.8753   21.6964 H   0  0  0  0  0  0
  -26.0182  -38.2885   24.1429 H   0  0  0  0  0  0
  -32.7868  -17.4905   20.6242 H   0  0  0  0  0  0
  -32.6695  -19.6999   19.5605 H   0  0  0  0  0  0
  -28.7415  -20.2966   21.2282 H   0  0  0  0  0  0
  -27.8922  -23.5361   17.6925 H   0  0  0  0  0  0
  -27.6441  -24.2062   19.2847 H   0  0  0  0  0  0
  -29.8340  -24.5917   20.8264 H   0  0  0  0  0  0
  -31.3812  -24.1814   20.1390 H   0  0  0  0  0  0
  -27.5595  -25.9860   17.5023 H   0  0  0  0  0  0
  -29.1498  -25.5528   16.9921 H   0  0  0  0  0  0
  -31.1803  -25.9814   18.4603 H   0  0  0  0  0  0
  -30.9740  -26.6434   20.0592 H   0  0  0  0  0  0
  -30.3132  -23.4680   18.0260 H   0  0  0  0  0  0
  -29.2888  -27.5411   18.4436 H   0  0  0  0  0  0
  -25.3369  -18.3249   23.3629 H   0  0  0  0  0  0
  -26.6114  -17.6503   24.3685 H   0  0  0  0  0  0
  -26.1166  -16.8225   22.8884 H   0  0  0  0  0  0
  -30.7004  -16.3796   23.3139 H   0  0  0  0  0  0
  -32.0946  -16.0442   22.3494 H   0  0  0  0  0  0
  -28.7982  -21.6014   18.9052 H   0  0  0  0  0  0
  -28.9455  -22.3172   20.4985 H   0  0  0  0  0  0
  -27.4433  -19.5914   22.9960 H   0  0  0  0  0  0
  -26.9603  -18.7602   21.5240 H   0  0  0  0  0  0
  -31.4870  -21.7007   19.1349 H   0  0  0  0  0  0
  -28.6586  -16.9792   22.8673 H   0  0  0  0  0  0
  -29.4911  -14.8149   22.1519 H   0  0  0  0  0  0
  1 25  1  0  0  0
  1 30  2  0  0  0
  1 89  1  0  0  0
  2  3  1  0  0  0
  2 25  1  0  0  0
  2 90  1  0  0  0
  2 91  1  0  0  0
  3  4  1  0  0  0
  3 92  1  0  0  0
  3 93  1  0  0  0
  4  5  1  0  0  0
  4 94  1  0  0  0
  4 95  1  0  0  0
  5  6  1  0  0  0
  5 26  1  0  0  0
  5 96  1  0  0  0
  6 25  1  0  0  0
  6 97  1  0  0  0
  6 98  1  0  0  0
  7  8  2  0  0  0
  7 26  1  0  0  0
  7 29  1  0  0  0
  8  9  1  0  0  0
  8 22  1  0  0  0
  9 10  1  0  0  0
  9 27  2  0  0  0
 10 11  2  0  0  0
 10 15  1  0  0  0
 11 12  1  0  0  0
 11 99  1  0  0  0
 12 13  2  0  0  0
 12100  1  0  0  0
 13 14  1  0  0  0
 13 31  1  0  0  0
 14 15  2  0  0  0
 14101  1  0  0  0
 15102  1  0  0  0
 16 17  2  0  0  0
 16 21  1  0  0  0
 16 31  1  0  0  0
 17 18  1  0  0  0
 17103  1  0  0  0
 18 19  2  0  0  0
 18104  1  0  0  0
 19 20  1  0  0  0
 19 24  1  0  0  0
 20 21  2  0  0  0
 20105  1  0  0  0
 21 23  1  0  0  0
 22 28  1  0  0  0
 22 32  2  0  0  0
 26 27  1  0  0  0
 28106  1  0  0  0
 28107  1  0  0  0
 29108  1  0  0  0
 29109  1  0  0  0
 33 34  1  0  0  0
 33 66  1  0  0  0
 33 70  2  0  0  0
 34 36  1  0  0  0
 34 59  1  0  0  0
 34110  1  0  0  0
 35 44  2  0  0  0
 35 45  1  0  0  0
 35 68  1  0  0  0
 36 56  1  0  0  0
 36111  1  0  0  0
 37 39  1  0  0  0
 37 47  1  0  0  0
 37 66  1  0  0  0
 37112  1  0  0  0
 38 43  2  0  0  0
 38 46  1  0  0  0
 38 47  1  0  0  0
 39 64  1  0  0  0
 39 67  2  0  0  0
 40 52  1  0  0  0
 40 53  2  0  0  0
 40 58  1  0  0  0
 41113  1  0  0  0
 41114  1  0  0  0
 41115  1  0  0  0
 41 48  1  0  0  0
 42 43  1  0  0  0
 42 66  1  0  0  0
 42116  1  0  0  0
 42117  1  0  0  0
 43 44  1  0  0  0
 44118  1  0  0  0
 45 46  2  0  0  0
 45119  1  0  0  0
 46120  1  0  0  0
 47121  1  0  0  0
 47122  1  0  0  0
 48 56  1  0  0  0
 48 65  1  0  0  0
 48123  1  0  0  0
 49 50  1  0  0  0
 49 53  1  0  0  0
 49 64  1  0  0  0
 49124  1  0  0  0
 50 51  1  0  0  0
 50125  1  0  0  0
 50126  1  0  0  0
 51 52  1  0  0  0
 51127  1  0  0  0
 51128  1  0  0  0
 52129  1  0  0  0
 52130  1  0  0  0
 53 54  1  0  0  0
 54 55  2  0  0  0
 54131  1  0  0  0
 55 57  1  0  0  0
 55132  1  0  0  0
 56 69  2  0  0  0
 57 58  2  0  0  0
 57133  1  0  0  0
 58134  1  0  0  0
 59 60  1  0  0  0
 59 61  1  0  0  0
 59 62  1  0  0  0
 60135  1  0  0  0
 60136  1  0  0  0
 60137  1  0  0  0
 61138  1  0  0  0
 61139  1  0  0  0
 61140  1  0  0  0
 62141  1  0  0  0
 62142  1  0  0  0
 62143  1  0  0  0
 63 65  1  0  0  0
 63144  1  0  0  0
 63145  1  0  0  0
 63146  1  0  0  0
 64147  1  0  0  0
 65148  1  0  0  0
 68 82  1  0  0  0
 71 72  2  0  0  0
 71 74  1  0  0  0
 71149  1  0  0  0
 72 75  1  0  0  0
 72150  1  0  0  0
 73 75  2  0  0  0
 73 76  1  0  0  0
 73151  1  0  0  0
 74 76  2  0  0  0
 74 84  1  0  0  0
 75 87  1  0  0  0
 76 88  1  0  0  0
 77 79  1  0  0  0
 77 81  1  0  0  0
 77152  1  0  0  0
 77153  1  0  0  0
 78 80  1  0  0  0
 78 81  1  0  0  0
 78154  1  0  0  0
 78155  1  0  0  0
 79 82  1  0  0  0
 79156  1  0  0  0
 79157  1  0  0  0
 80 82  1  0  0  0
 80158  1  0  0  0
 80159  1  0  0  0
 81 85  1  0  0  0
 81160  1  0  0  0
 82161  1  0  0  0
 83 86  1  0  0  0
 83162  1  0  0  0
 83163  1  0  0  0
 83164  1  0  0  0
 84 89  1  0  0  0
 84165  1  0  0  0
 84166  1  0  0  0
 85 87  1  0  0  0
 85167  1  0  0  0
 85168  1  0  0  0
 86 88  1  0  0  0
 86169  1  0  0  0
 86170  1  0  0  0
 87171  1  0  0  0
 88172  1  0  0  0
 89173  1  0  0  0
M  ISO  4   1 100  68 101  82 101  89 100
M  END
> <chiral flag>
0

> <version>
0

> <s_m_source_file>
/data/baiqing/PycharmProjects/Reinvent-master-3.2/result/LINK_invent/BTK/process_docking_weight1_custom_sum_contain_oxygen_bond_distance_aromatic_linkinvent_7_9_3/rearranged_h_0135.sdf

> <i_m_source_file_index>
72

> <r_mmod_Potential_Energy-OPLS-2005>
-55.3365592956543

> <r_mmod_Stretch_Energy-OPLS-2005>
35.3239974975586

> <r_mmod_Bend_Energy-OPLS-2005>
116.128608703613

> <r_mmod_Torsional_Energy-OPLS-2005>
229.598571777344

> <r_mmod_Improper_Torsional_Energy-OPLS-2005>
4.13762235641479

> <r_mmod_Van_der_Waal_Energy-OPLS-2005>
154.531646728516

> <r_mmod_Electrostatic_Energy-OPLS-2005>
-385.309326171875

> <r_mmod_Solvation_Energy-OPLS-2005>
-217.448776245117

> <b_mmod_Minimization_Converged-OPLS-2005>
0

> <r_mmod_RMS_Derivative-OPLS-2005>
0.530226647853851

$$$$
72
                    3D
 Structure written by MMmdl.
186195  0  0  1  0            999 V2000
  -30.6884  -14.4419   20.6281 C   0  0  0  0  0  0
  -30.4255  -12.3180   19.4004 C   0  0  0  0  0  0
  -29.4938  -12.5461   18.1939 C   0  0  0  0  0  0
  -28.0120  -12.4004   18.6010 C   0  0  0  0  0  0
  -27.6614  -13.2088   19.8793 C   0  0  2  0  0  0
  -28.7001  -12.9433   20.9901 C   0  0  0  0  0  0
  -25.2556  -13.8154   20.5625 C   0  0  0  0  0  0
  -24.1838  -13.0439   20.9182 C   0  0  0  0  0  0
  -24.6390  -11.6897   20.8729 C   0  0  0  0  0  0
  -23.9074  -10.4286   21.0387 C   0  0  0  0  0  0
  -24.3621   -9.4204   21.9170 C   0  0  0  0  0  0
  -23.6291   -8.2245   22.0747 C   0  0  0  0  0  0
  -22.4274   -8.0278   21.3549 C   0  0  0  0  0  0
  -21.9901   -9.0254   20.4654 C   0  0  0  0  0  0
  -22.7235  -10.2122   20.3049 C   0  0  0  0  0  0
  -21.6851   -6.0740   22.5288 C   0  0  0  0  0  0
  -21.4010   -6.5652   23.8221 C   0  0  0  0  0  0
  -21.3660   -5.6793   24.9173 C   0  0  0  0  0  0
  -21.6049   -4.3052   24.7228 C   0  0  0  0  0  0
  -21.8820   -3.8138   23.4345 C   0  0  0  0  0  0
  -21.9195   -4.6967   22.3405 C   0  0  0  0  0  0
  -22.7849  -13.5218   21.1867 C   0  0  0  0  0  0
  -22.1656   -4.2152   21.0982 F   0  0  0  0  0  0
  -21.5637   -3.4525   25.7735 F   0  0  0  0  0  0
  -30.0305  -13.2705   20.4468 N   0  0  0  0  0  0
  -26.3009  -12.9339   20.3362 N   0  0  0  0  0  0
  -25.9329  -11.6499   20.5753 N   0  0  0  0  0  0
  -22.0497  -12.8208   22.0409 N   0  0  0  0  0  0
  -25.4229  -15.1866   20.3929 N   0  0  0  0  0  0
  -31.7924  -14.6841   20.1293 O   0  0  0  0  0  0
  -21.6639   -6.8870   21.4244 O   0  0  0  0  0  0
  -22.3537  -14.5526   20.6710 O   0  0  0  0  0  0
  -24.6116  -31.8710   23.2149 C   0  0  0  0  0  0
  -25.9046  -32.4857   23.8389 C   0  0  1  0  0  0
  -27.1962  -27.4561   20.1173 C   0  0  0  0  0  0
  -25.5909  -33.8655   24.2376 N   0  0  0  0  0  0
  -23.3916  -30.5034   21.5530 C   0  0  2  0  0  0
  -24.8299  -28.9788   20.1037 C   0  0  0  0  0  0
  -22.7395  -29.4717   22.5010 C   0  0  0  0  0  0
  -18.0268  -28.1347   22.8513 C   0  0  0  0  0  0
  -24.1487  -36.7311   23.2616 C   0  0  0  0  0  0
  -25.9162  -30.8519   21.3571 C   0  0  0  0  0  0
  -25.9912  -29.4897   20.7044 C   0  0  0  0  0  0
  -27.1825  -28.7374   20.7024 C   0  0  0  0  0  0
  -26.0341  -26.9602   19.4921 C   0  0  0  0  0  0
  -24.8494  -27.7152   19.4850 C   0  0  0  0  0  0
  -23.5911  -29.8408   20.1612 C   0  0  0  0  0  0
  -25.4082  -36.3131   24.0367 C   0  0  1  0  0  0
  -20.5864  -28.3626   23.1334 C   0  0  2  0  0  0
  -20.6767  -26.9379   22.5398 C   0  0  0  0  0  0
  -19.5730  -26.6347   21.5213 C   0  0  0  0  0  0
  -18.1910  -26.7911   22.1619 C   0  0  0  0  0  0
  -19.1524  -28.8797   23.2911 C   0  0  0  0  0  0
  -18.9452  -30.1410   23.8898 C   0  0  0  0  0  0
  -17.6469  -30.6564   24.0565 C   0  0  0  0  0  0
  -25.9020  -34.9520   23.5154 C   0  0  0  0  0  0
  -16.5353  -29.9079   23.6330 C   0  0  0  0  0  0
  -16.7257  -28.6498   23.0340 C   0  0  0  0  0  0
  -26.4456  -31.6620   25.0713 C   0  0  0  0  0  0
  -25.3755  -31.3764   26.1521 C   0  0  0  0  0  0
  -27.0201  -30.3056   24.6014 C   0  0  0  0  0  0
  -27.6098  -32.4276   25.7417 C   0  0  0  0  0  0
  -27.5633  -37.1703   24.8399 C   0  0  0  0  0  0
  -21.4127  -29.3039   22.3748 N   0  0  0  0  0  0
  -26.4249  -37.3860   23.9530 N   0  0  0  0  0  0
  -24.6584  -31.0878   22.1001 N   0  0  0  0  0  0
  -23.4233  -28.8251   23.3000 O   0  0  0  0  0  0
  -28.3365  -26.7054   20.1551 O   0  0  0  0  0  0
  -26.5589  -34.8974   22.4717 O   0  0  0  0  0  0
  -23.5329  -32.1413   23.7599 O   0  0  0  0  0  0
  -34.3051  -27.3841   21.0629 C   0  0  0  0  0  0
  -32.9238  -27.1569   21.6820 C   0  0  0  0  0  0
  -33.6901  -26.9073   19.7428 C   0  0  0  0  0  0
  -31.0430  -20.2381   18.9688 C   0  0  0  0  0  0
  -30.1955  -19.5605   17.8824 C   0  0  0  0  0  0
  -32.6768  -26.1070   20.5786 C   0  0  0  0  0  0
  -30.0326  -20.7929   19.9799 C   0  0  2  0  0  0
  -28.8334  -19.8041   19.8528 C   0  0  2  0  0  0
  -28.4352  -19.0117   22.2356 C   0  0  0  0  0  0
  -27.7850  -19.9907   17.6044 C   0  0  0  0  0  0
  -31.2733  -25.8919   20.0178 C   0  0  0  0  0  0
  -30.2910  -17.8548   20.9012 C   0  0  0  0  0  0
  -30.5206  -16.6421   21.8353 C   0  0  0  0  0  0
  -28.9069  -22.9884   20.4444 C   0  0  0  0  0  0
  -28.2082  -25.4553   20.8427 C   0  0  0  0  0  0
  -28.8992  -18.5692   20.8353 C   0  0  2  0  0  0
  -29.2134  -24.4832   20.1932 C   0  0  1  0  0  0
  -30.0096  -15.3622   21.3434 N   0  0  0  0  0  0
  -29.8034  -22.1974   19.5969 N   0  0  0  0  0  0
  -28.8356  -19.3561   18.4372 N   0  3  1  0  0  0
  -30.5809  -24.7639   20.6802 N   0  3  0  0  0  0
  -31.4701  -12.4358   19.1059 H   0  0  0  0  0  0
  -30.3354  -11.2970   19.7715 H   0  0  0  0  0  0
  -29.7370  -11.8507   17.3906 H   0  0  0  0  0  0
  -29.6602  -13.5462   17.7916 H   0  0  0  0  0  0
  -27.8098  -11.3403   18.7588 H   0  0  0  0  0  0
  -27.3688  -12.7103   17.7771 H   0  0  0  0  0  0
  -27.7139  -14.2662   19.6171 H   0  0  0  0  0  0
  -28.6802  -11.8932   21.2824 H   0  0  0  0  0  0
  -28.4549  -13.4957   21.8992 H   0  0  0  0  0  0
  -25.2774   -9.5687   22.4735 H   0  0  0  0  0  0
  -24.0021   -7.4623   22.7445 H   0  0  0  0  0  0
  -21.0841   -8.8766   19.8945 H   0  0  0  0  0  0
  -22.3702  -10.9660   19.6153 H   0  0  0  0  0  0
  -21.1980   -7.6173   23.9730 H   0  0  0  0  0  0
  -21.1490   -6.0515   25.9078 H   0  0  0  0  0  0
  -22.0592   -2.7598   23.2837 H   0  0  0  0  0  0
  -22.4103  -11.9864   22.4797 H   0  0  0  0  0  0
  -21.1106  -13.1235   22.2604 H   0  0  0  0  0  0
  -24.6405  -15.8292   20.4474 H   0  0  0  0  0  0
  -26.2610  -15.6142   20.0198 H   0  0  0  0  0  0
  -26.7143  -32.5570   23.1168 H   0  0  0  0  0  0
  -25.0120  -33.9811   25.0561 H   0  0  0  0  0  0
  -22.6769  -31.3182   21.4206 H   0  0  0  0  0  0
  -23.3854  -35.9510   23.3071 H   0  0  0  0  0  0
  -24.3644  -36.9091   22.2068 H   0  0  0  0  0  0
  -23.7091  -37.6404   23.6732 H   0  0  0  0  0  0
  -26.0198  -31.6191   20.5880 H   0  0  0  0  0  0
  -26.8150  -30.9053   21.9644 H   0  0  0  0  0  0
  -28.0796  -29.1258   21.1647 H   0  0  0  0  0  0
  -26.0412  -25.9884   19.0146 H   0  0  0  0  0  0
  -23.9621  -27.3269   19.0018 H   0  0  0  0  0  0
  -23.6923  -30.6177   19.4028 H   0  0  0  0  0  0
  -22.7128  -29.2598   19.8726 H   0  0  0  0  0  0
  -25.1220  -36.1907   25.0841 H   0  0  0  0  0  0
  -20.9912  -28.3150   24.1470 H   0  0  0  0  0  0
  -20.5656  -26.2248   23.3562 H   0  0  0  0  0  0
  -21.6633  -26.7409   22.1181 H   0  0  0  0  0  0
  -19.6935  -25.6278   21.1189 H   0  0  0  0  0  0
  -19.6688  -27.3205   20.6784 H   0  0  0  0  0  0
  -17.4186  -26.6633   21.4025 H   0  0  0  0  0  0
  -18.0342  -26.0047   22.8982 H   0  0  0  0  0  0
  -19.7931  -30.7210   24.2229 H   0  0  0  0  0  0
  -17.5048  -31.6260   24.5153 H   0  0  0  0  0  0
  -15.5373  -30.3002   23.7666 H   0  0  0  0  0  0
  -15.8640  -28.0839   22.7030 H   0  0  0  0  0  0
  -24.5801  -30.7245   25.7896 H   0  0  0  0  0  0
  -24.9118  -32.2970   26.5099 H   0  0  0  0  0  0
  -25.8113  -30.8808   27.0203 H   0  0  0  0  0  0
  -26.2660  -29.6871   24.1152 H   0  0  0  0  0  0
  -27.4097  -29.7242   25.4367 H   0  0  0  0  0  0
  -27.8476  -30.4406   23.9045 H   0  0  0  0  0  0
  -27.2815  -33.3645   26.1940 H   0  0  0  0  0  0
  -28.3945  -32.6659   25.0222 H   0  0  0  0  0  0
  -28.0735  -31.8398   26.5357 H   0  0  0  0  0  0
  -28.2362  -38.0268   24.7892 H   0  0  0  0  0  0
  -28.1387  -36.2866   24.5627 H   0  0  0  0  0  0
  -27.2446  -37.0587   25.8770 H   0  0  0  0  0  0
  -20.9234  -29.8814   21.7053 H   0  0  0  0  0  0
  -26.0109  -38.2848   24.1814 H   0  0  0  0  0  0
  -35.0591  -26.6979   21.4520 H   0  0  0  0  0  0
  -34.6508  -28.4178   21.0741 H   0  0  0  0  0  0
  -32.2810  -28.0386   21.5938 H   0  0  0  0  0  0
  -32.9323  -26.7702   22.7028 H   0  0  0  0  0  0
  -34.3379  -26.3027   19.1053 H   0  0  0  0  0  0
  -33.2213  -27.7194   19.1803 H   0  0  0  0  0  0
  -31.7238  -20.9840   18.5614 H   0  0  0  0  0  0
  -31.6855  -19.4956   19.4339 H   0  0  0  0  0  0
  -30.6263  -18.6040   17.5852 H   0  0  0  0  0  0
  -30.1652  -20.1918   16.9953 H   0  0  0  0  0  0
  -33.1411  -25.1565   20.8596 H   0  0  0  0  0  0
  -30.4349  -20.7847   20.9948 H   0  0  0  0  0  0
  -27.8926  -20.3225   20.0568 H   0  0  0  0  0  0
  -27.4536  -19.4869   22.1972 H   0  0  0  0  0  0
  -29.1245  -19.7266   22.6870 H   0  0  0  0  0  0
  -28.3434  -18.1640   22.9116 H   0  0  0  0  0  0
  -27.7885  -19.5814   16.5941 H   0  0  0  0  0  0
  -27.9462  -21.0656   17.5245 H   0  0  0  0  0  0
  -26.7903  -19.8295   18.0203 H   0  0  0  0  0  0
  -31.3198  -25.6877   18.9479 H   0  0  0  0  0  0
  -30.7004  -26.8130   20.1269 H   0  0  0  0  0  0
  -30.6128  -17.5635   19.9013 H   0  0  0  0  0  0
  -31.0103  -18.5863   21.2691 H   0  0  0  0  0  0
  -30.1251  -16.8359   22.8314 H   0  0  0  0  0  0
  -31.6001  -16.5418   21.9792 H   0  0  0  0  0  0
  -27.8753  -22.7677   20.1627 H   0  0  0  0  0  0
  -29.0269  -22.7475   21.5031 H   0  0  0  0  0  0
  -28.4304  -25.6017   21.9034 H   0  0  0  0  0  0
  -27.1977  -25.0450   20.8072 H   0  0  0  0  0  0
  -28.1657  -17.8402   20.4891 H   0  0  0  0  0  0
  -29.1728  -24.6539   19.1128 H   0  0  0  0  0  0
  -29.1019  -15.0757   21.6836 H   0  0  0  0  0  0
  -29.5262  -22.2835   18.6174 H   0  0  0  0  0  0
  -28.6371  -18.3680   18.4264 H   0  0  0  0  0  0
  -30.5742  -24.9137   21.6772 H   0  0  0  0  0  0
  -31.0899  -23.9115   20.4880 H   0  0  0  0  0  0
  1 25  1  0  0  0
  1 30  2  0  0  0
  1 88  1  0  0  0
  2  3  1  0  0  0
  2 25  1  0  0  0
  2 92  1  0  0  0
  2 93  1  0  0  0
  3  4  1  0  0  0
  3 94  1  0  0  0
  3 95  1  0  0  0
  4  5  1  0  0  0
  4 96  1  0  0  0
  4 97  1  0  0  0
  5  6  1  0  0  0
  5 26  1  0  0  0
  5 98  1  0  0  0
  6 25  1  0  0  0
  6 99  1  0  0  0
  6100  1  0  0  0
  7  8  2  0  0  0
  7 26  1  0  0  0
  7 29  1  0  0  0
  8  9  1  0  0  0
  8 22  1  0  0  0
  9 10  1  0  0  0
  9 27  2  0  0  0
 10 11  2  0  0  0
 10 15  1  0  0  0
 11 12  1  0  0  0
 11101  1  0  0  0
 12 13  2  0  0  0
 12102  1  0  0  0
 13 14  1  0  0  0
 13 31  1  0  0  0
 14 15  2  0  0  0
 14103  1  0  0  0
 15104  1  0  0  0
 16 17  2  0  0  0
 16 21  1  0  0  0
 16 31  1  0  0  0
 17 18  1  0  0  0
 17105  1  0  0  0
 18 19  2  0  0  0
 18106  1  0  0  0
 19 20  1  0  0  0
 19 24  1  0  0  0
 20 21  2  0  0  0
 20107  1  0  0  0
 21 23  1  0  0  0
 22 28  1  0  0  0
 22 32  2  0  0  0
 26 27  1  0  0  0
 28108  1  0  0  0
 28109  1  0  0  0
 29110  1  0  0  0
 29111  1  0  0  0
 33 34  1  0  0  0
 33 66  1  0  0  0
 33 70  2  0  0  0
 34 36  1  0  0  0
 34 59  1  0  0  0
 34112  1  0  0  0
 35 44  2  0  0  0
 35 45  1  0  0  0
 35 68  1  0  0  0
 36 56  1  0  0  0
 36113  1  0  0  0
 37 39  1  0  0  0
 37 47  1  0  0  0
 37 66  1  0  0  0
 37114  1  0  0  0
 38 43  2  0  0  0
 38 46  1  0  0  0
 38 47  1  0  0  0
 39 64  1  0  0  0
 39 67  2  0  0  0
 40 52  1  0  0  0
 40 53  2  0  0  0
 40 58  1  0  0  0
 41115  1  0  0  0
 41116  1  0  0  0
 41117  1  0  0  0
 41 48  1  0  0  0
 42 43  1  0  0  0
 42 66  1  0  0  0
 42118  1  0  0  0
 42119  1  0  0  0
 43 44  1  0  0  0
 44120  1  0  0  0
 45 46  2  0  0  0
 45121  1  0  0  0
 46122  1  0  0  0
 47123  1  0  0  0
 47124  1  0  0  0
 48 56  1  0  0  0
 48 65  1  0  0  0
 48125  1  0  0  0
 49 50  1  0  0  0
 49 53  1  0  0  0
 49 64  1  0  0  0
 49126  1  0  0  0
 50 51  1  0  0  0
 50127  1  0  0  0
 50128  1  0  0  0
 51 52  1  0  0  0
 51129  1  0  0  0
 51130  1  0  0  0
 52131  1  0  0  0
 52132  1  0  0  0
 53 54  1  0  0  0
 54 55  2  0  0  0
 54133  1  0  0  0
 55 57  1  0  0  0
 55134  1  0  0  0
 56 69  2  0  0  0
 57 58  2  0  0  0
 57135  1  0  0  0
 58136  1  0  0  0
 59 60  1  0  0  0
 59 61  1  0  0  0
 59 62  1  0  0  0
 60137  1  0  0  0
 60138  1  0  0  0
 60139  1  0  0  0
 61140  1  0  0  0
 61141  1  0  0  0
 61142  1  0  0  0
 62143  1  0  0  0
 62144  1  0  0  0
 62145  1  0  0  0
 63 65  1  0  0  0
 63146  1  0  0  0
 63147  1  0  0  0
 63148  1  0  0  0
 64149  1  0  0  0
 65150  1  0  0  0
 68 85  1  0  0  0
 71 72  1  0  0  0
 71 73  1  0  0  0
 71151  1  0  0  0
 71152  1  0  0  0
 72 76  1  0  0  0
 72153  1  0  0  0
 72154  1  0  0  0
 73 76  1  0  0  0
 73155  1  0  0  0
 73156  1  0  0  0
 74 75  1  0  0  0
 74 77  1  0  0  0
 74157  1  0  0  0
 74158  1  0  0  0
 75 90  1  0  0  0
 75159  1  0  0  0
 75160  1  0  0  0
 76 81  1  0  0  0
 76161  1  0  0  0
 77 78  1  0  0  0
 77 89  1  0  0  0
 77162  1  0  0  0
 78 86  1  0  0  0
 78 90  1  0  0  0
 78163  1  0  0  0
 79164  1  0  0  0
 79165  1  0  0  0
 79166  1  0  0  0
 79 86  1  0  0  0
 80167  1  0  0  0
 80168  1  0  0  0
 80169  1  0  0  0
 80 90  1  0  0  0
 81 91  1  0  0  0
 81170  1  0  0  0
 81171  1  0  0  0
 82 83  1  0  0  0
 82 86  1  0  0  0
 82172  1  0  0  0
 82173  1  0  0  0
 83 88  1  0  0  0
 83174  1  0  0  0
 83175  1  0  0  0
 84 89  1  0  0  0
 84176  1  0  0  0
 84177  1  0  0  0
 84 87  1  0  0  0
 85 87  1  0  0  0
 85178  1  0  0  0
 85179  1  0  0  0
 86180  1  0  0  0
 87 91  1  0  0  0
 87181  1  0  0  0
 88182  1  0  0  0
 89183  1  0  0  0
 90184  1  0  0  0
 91185  1  0  0  0
 91186  1  0  0  0
M  CHG  2  90   1  91   1
M  ISO  4   1 100  68 101  85 101  88 100
M  END
> <chiral flag>
0

> <version>
0

> <s_m_source_file>
/data/baiqing/PycharmProjects/Reinvent-master-3.2/result/LINK_invent/BTK/process_docking_weight1_custom_sum_contain_oxygen_bond_distance_aromatic_linkinvent_7_9_3/rearranged_h_0135.sdf

> <i_m_source_file_index>
73

> <r_mmod_Potential_Energy-OPLS-2005>
-114.177452087402

> <r_mmod_Stretch_Energy-OPLS-2005>
39.146068572998

> <r_mmod_Bend_Energy-OPLS-2005>
153.705856323242

> <r_mmod_Torsional_Energy-OPLS-2005>
336.139434814453

> <r_mmod_Improper_Torsional_Energy-OPLS-2005>
2.74882745742798

> <r_mmod_Van_der_Waal_Energy-OPLS-2005>
140.294906616211

> <r_mmod_Electrostatic_Energy-OPLS-2005>
64.1847839355469

> <r_mmod_Solvation_Energy-OPLS-2005>
-863.256042480469

> <b_mmod_Minimization_Converged-OPLS-2005>
0

> <r_mmod_RMS_Derivative-OPLS-2005>
6.56324148178101

$$$$
73
                    3D
 Structure written by MMmdl.
174184  0  0  1  0            999 V2000
  -30.4372  -15.0919   20.3467 C   0  0  0  0  0  0
  -30.4398  -12.6863   19.4771 C   0  0  0  0  0  0
  -29.5154  -12.5487   18.2443 C   0  0  0  0  0  0
  -28.0577  -12.3034   18.6796 C   0  0  0  0  0  0
  -27.6139  -13.2497   19.8222 C   0  0  2  0  0  0
  -28.6587  -13.3441   20.9485 C   0  0  0  0  0  0
  -25.2425  -13.8203   20.5668 C   0  0  0  0  0  0
  -24.1777  -13.0446   20.9206 C   0  0  0  0  0  0
  -24.6403  -11.6911   20.8795 C   0  0  0  0  0  0
  -23.9087  -10.4304   21.0495 C   0  0  0  0  0  0
  -24.3657   -9.4207   21.9245 C   0  0  0  0  0  0
  -23.6330   -8.2248   22.0803 C   0  0  0  0  0  0
  -22.4328   -8.0288   21.3560 C   0  0  0  0  0  0
  -21.9966   -9.0274   20.4665 C   0  0  0  0  0  0
  -22.7288  -10.2155   20.3121 C   0  0  0  0  0  0
  -21.6851   -6.0743   22.5255 C   0  0  0  0  0  0
  -21.4020   -6.5631   23.8186 C   0  0  0  0  0  0
  -21.3692   -5.6817   24.9178 C   0  0  0  0  0  0
  -21.6066   -4.3073   24.7206 C   0  0  0  0  0  0
  -21.8839   -3.8154   23.4340 C   0  0  0  0  0  0
  -21.9210   -4.6966   22.3391 C   0  0  0  0  0  0
  -22.7802  -13.5200   21.1853 C   0  0  0  0  0  0
  -22.1677   -4.2165   21.0979 F   0  0  0  0  0  0
  -21.5639   -3.4571   25.7721 F   0  0  0  0  0  0
  -29.8990  -13.7993   20.3082 N   0  0  0  0  0  0
  -26.2826  -12.9421   20.3213 N   0  0  0  0  0  0
  -25.9315  -11.6541   20.5755 N   0  0  0  0  0  0
  -22.0507  -12.8190   22.0420 N   0  0  0  0  0  0
  -25.4083  -15.1946   20.3998 N   0  0  0  0  0  0
  -31.6672  -15.1704   20.2587 O   0  0  0  0  0  0
  -21.6670   -6.8898   21.4226 O   0  0  0  0  0  0
  -22.3483  -14.5489   20.6688 O   0  0  0  0  0  0
  -24.6465  -31.8455   23.1892 C   0  0  0  0  0  0
  -25.9238  -32.4700   23.8266 C   0  0  1  0  0  0
  -27.1985  -27.1296   20.0873 C   0  0  0  0  0  0
  -25.5981  -33.8517   24.2161 N   0  0  0  0  0  0
  -23.4464  -30.4715   21.5399 C   0  0  2  0  0  0
  -24.8837  -28.9026   20.0980 C   0  0  0  0  0  0
  -22.7561  -29.4565   22.4876 C   0  0  0  0  0  0
  -18.0301  -28.1400   22.8482 C   0  0  0  0  0  0
  -24.1491  -36.7250   23.2636 C   0  0  0  0  0  0
  -26.0060  -30.7091   21.3932 C   0  0  0  0  0  0
  -26.0672  -29.3253   20.7144 C   0  0  0  0  0  0
  -27.2220  -28.4506   20.7001 C   0  0  0  0  0  0
  -25.9927  -26.8226   19.4272 C   0  0  0  0  0  0
  -24.8566  -27.6600   19.4479 C   0  0  0  0  0  0
  -23.6659  -29.8135   20.1545 C   0  0  0  0  0  0
  -25.4136  -36.3036   24.0307 C   0  0  1  0  0  0
  -20.5905  -28.3733   23.1226 C   0  0  2  0  0  0
  -20.6784  -26.9445   22.5400 C   0  0  0  0  0  0
  -19.5749  -26.6386   21.5219 C   0  0  0  0  0  0
  -18.1931  -26.7941   22.1622 C   0  0  0  0  0  0
  -19.1559  -28.8891   23.2843 C   0  0  0  0  0  0
  -18.9479  -30.1484   23.8882 C   0  0  0  0  0  0
  -17.6482  -30.6607   24.0569 C   0  0  0  0  0  0
  -25.9107  -34.9427   23.5040 C   0  0  0  0  0  0
  -16.5372  -29.9107   23.6336 C   0  0  0  0  0  0
  -16.7295  -28.6513   23.0381 C   0  0  0  0  0  0
  -26.4535  -31.6572   25.0729 C   0  0  0  0  0  0
  -25.3697  -31.3772   26.1405 C   0  0  0  0  0  0
  -27.0406  -30.2948   24.6361 C   0  0  0  0  0  0
  -27.6037  -32.4361   25.7536 C   0  0  0  0  0  0
  -27.5575  -37.1772   24.8453 C   0  0  0  0  0  0
  -21.4259  -29.3061   22.3599 N   0  0  0  0  0  0
  -26.4283  -37.3757   23.9408 N   0  0  0  0  0  0
  -24.7201  -31.0273   22.0942 N   0  0  0  0  0  0
  -23.4192  -28.8134   23.3063 O   0  0  0  0  0  0
  -28.2247  -26.1138   20.1867 O   0  0  0  0  0  0
  -26.5694  -34.8914   22.4625 O   0  0  0  0  0  0
  -23.5591  -32.1394   23.7101 O   0  0  0  0  0  0
  -29.2017  -22.1316   20.0876 C   0  0  0  0  0  0
  -28.2538  -23.1795   19.6329 C   0  0  0  0  0  0
  -28.8680  -20.7610   19.8103 C   0  0  0  0  0  0
  -27.2442  -22.3568   19.1721 C   0  0  0  0  0  0
  -24.9061  -23.5559   19.4330 C   0  0  0  0  0  0
  -24.6053  -22.1462   19.0171 C   0  0  0  0  0  0
  -31.0569  -19.7498   20.5860 C   0  0  0  0  0  0
  -30.8610  -20.0601   22.0966 C   0  0  0  0  0  0
  -29.9204  -17.8071   22.1813 C   0  0  0  0  0  0
  -29.7331  -19.3025   19.9252 C   0  0  1  0  0  0
  -25.9127  -22.7946   18.5981 C   0  0  0  0  0  0
  -29.4019  -17.7833   20.7228 C   0  0  1  0  0  0
  -26.5411  -18.7421   18.7838 C   0  0  0  0  0  0
  -27.8594  -19.8909   16.8865 C   0  0  0  0  0  0
  -28.3496  -24.8299   19.3086 C   0  0  0  0  0  0
  -27.0144  -20.0517   18.1599 C   0  0  0  0  0  0
  -27.6719  -20.9927   19.0855 N   0  0  0  0  0  0
  -29.5735  -16.2465   20.2320 N   0  0  0  0  0  0
  -29.8693  -19.1671   22.7326 N   0  3  0  0  0  0
  -31.4652  -12.8867   19.1601 H   0  0  0  0  0  0
  -30.4680  -11.7550   20.0485 H   0  0  0  0  0  0
  -29.8544  -11.7438   17.5921 H   0  0  0  0  0  0
  -29.5577  -13.4659   17.6544 H   0  0  0  0  0  0
  -27.9823  -11.2626   19.0041 H   0  0  0  0  0  0
  -27.3872  -12.4139   17.8261 H   0  0  0  0  0  0
  -27.5510  -14.2353   19.3573 H   0  0  0  0  0  0
  -28.7922  -12.3907   21.4625 H   0  0  0  0  0  0
  -28.3371  -14.0603   21.7084 H   0  0  0  0  0  0
  -25.2837   -9.5646   22.4785 H   0  0  0  0  0  0
  -24.0050   -7.4642   22.7527 H   0  0  0  0  0  0
  -21.0915   -8.8791   19.8956 H   0  0  0  0  0  0
  -22.3796  -10.9694   19.6223 H   0  0  0  0  0  0
  -21.2004   -7.6140   23.9659 H   0  0  0  0  0  0
  -21.1494   -6.0565   25.9069 H   0  0  0  0  0  0
  -22.0591   -2.7611   23.2817 H   0  0  0  0  0  0
  -22.4153  -11.9835   22.4773 H   0  0  0  0  0  0
  -21.1126  -13.1129   22.2658 H   0  0  0  0  0  0
  -24.6214  -15.8278   20.4673 H   0  0  0  0  0  0
  -26.2165  -15.6188   19.9660 H   0  0  0  0  0  0
  -26.7314  -32.5260   23.0995 H   0  0  0  0  0  0
  -25.0059  -33.9639   25.0257 H   0  0  0  0  0  0
  -22.7508  -31.3031   21.3966 H   0  0  0  0  0  0
  -23.3775  -35.9540   23.3263 H   0  0  0  0  0  0
  -24.3559  -36.8936   22.2048 H   0  0  0  0  0  0
  -23.7220  -37.6419   23.6718 H   0  0  0  0  0  0
  -26.1795  -31.4761   20.6372 H   0  0  0  0  0  0
  -26.8700  -30.7359   22.0465 H   0  0  0  0  0  0
  -28.1269  -28.7669   21.1987 H   0  0  0  0  0  0
  -25.8805  -25.8814   18.9204 H   0  0  0  0  0  0
  -23.9472  -27.3347   18.9591 H   0  0  0  0  0  0
  -23.8044  -30.6012   19.4123 H   0  0  0  0  0  0
  -22.7716  -29.2753   19.8373 H   0  0  0  0  0  0
  -25.1316  -36.1845   25.0791 H   0  0  0  0  0  0
  -21.0003  -28.3338   24.1339 H   0  0  0  0  0  0
  -20.5675  -26.2371   23.3630 H   0  0  0  0  0  0
  -21.6650  -26.7449   22.1205 H   0  0  0  0  0  0
  -19.6916  -25.6285   21.1276 H   0  0  0  0  0  0
  -19.6679  -27.3169   20.6721 H   0  0  0  0  0  0
  -17.4201  -26.6718   21.4021 H   0  0  0  0  0  0
  -18.0311  -26.0087   22.9010 H   0  0  0  0  0  0
  -19.7969  -30.7291   24.2253 H   0  0  0  0  0  0
  -17.5053  -31.6289   24.5166 H   0  0  0  0  0  0
  -15.5378  -30.3023   23.7669 H   0  0  0  0  0  0
  -15.8682  -28.0831   22.7130 H   0  0  0  0  0  0
  -24.5868  -30.7144   25.7691 H   0  0  0  0  0  0
  -24.8911  -32.2975   26.4764 H   0  0  0  0  0  0
  -25.7959  -30.8958   27.0222 H   0  0  0  0  0  0
  -26.3029  -29.6656   24.1367 H   0  0  0  0  0  0
  -27.3972  -29.7263   25.4963 H   0  0  0  0  0  0
  -27.8964  -30.4140   23.9714 H   0  0  0  0  0  0
  -27.2568  -33.3637   26.2100 H   0  0  0  0  0  0
  -28.3849  -32.6986   25.0389 H   0  0  0  0  0  0
  -28.0719  -31.8531   26.5475 H   0  0  0  0  0  0
  -28.2555  -38.0108   24.7564 H   0  0  0  0  0  0
  -28.1121  -36.2646   24.6213 H   0  0  0  0  0  0
  -27.2301  -37.1330   25.8855 H   0  0  0  0  0  0
  -20.9474  -29.8760   21.6753 H   0  0  0  0  0  0
  -26.0148  -38.2798   24.1470 H   0  0  0  0  0  0
  -30.1728  -22.4154   20.4703 H   0  0  0  0  0  0
  -25.1471  -23.7313   20.4785 H   0  0  0  0  0  0
  -24.3087  -24.3283   18.9493 H   0  0  0  0  0  0
  -23.8268  -22.0206   18.2642 H   0  0  0  0  0  0
  -24.6506  -21.3682   19.7754 H   0  0  0  0  0  0
  -31.8138  -18.9771   20.4675 H   0  0  0  0  0  0
  -31.4714  -20.6231   20.0833 H   0  0  0  0  0  0
  -30.5452  -21.0903   22.2649 H   0  0  0  0  0  0
  -31.8150  -19.9517   22.6115 H   0  0  0  0  0  0
  -30.9515  -17.4570   22.2326 H   0  0  0  0  0  0
  -29.3330  -17.1372   22.8091 H   0  0  0  0  0  0
  -29.9821  -19.0272   18.9028 H   0  0  0  0  0  0
  -26.0022  -23.0779   17.5506 H   0  0  0  0  0  0
  -28.3215  -17.8334   20.8609 H   0  0  0  0  0  0
  -25.8898  -18.2062   18.0933 H   0  0  0  0  0  0
  -25.9686  -18.9268   19.6945 H   0  0  0  0  0  0
  -27.3628  -18.0696   18.9980 H   0  0  0  0  0  0
  -27.3390  -19.2910   16.1422 H   0  0  0  0  0  0
  -28.8266  -19.4298   17.0693 H   0  0  0  0  0  0
  -28.0417  -20.8670   16.4339 H   0  0  0  0  0  0
  -27.7390  -24.9742   18.4181 H   0  0  0  0  0  0
  -29.3549  -24.9262   18.8910 H   0  0  0  0  0  0
  -26.0972  -20.4932   17.7858 H   0  0  0  0  0  0
  -28.6663  -15.9126   19.9453 H   0  0  0  0  0  0
  -28.9431  -19.5429   22.5918 H   0  0  0  0  0  0
  -30.0266  -19.1381   23.7262 H   0  0  0  0  0  0
  1 25  1  0  0  0
  1 30  2  0  0  0
  1 88  1  0  0  0
  2  3  1  0  0  0
  2 25  1  0  0  0
  2 90  1  0  0  0
  2 91  1  0  0  0
  3  4  1  0  0  0
  3 92  1  0  0  0
  3 93  1  0  0  0
  4  5  1  0  0  0
  4 94  1  0  0  0
  4 95  1  0  0  0
  5  6  1  0  0  0
  5 26  1  0  0  0
  5 96  1  0  0  0
  6 25  1  0  0  0
  6 97  1  0  0  0
  6 98  1  0  0  0
  7  8  2  0  0  0
  7 26  1  0  0  0
  7 29  1  0  0  0
  8  9  1  0  0  0
  8 22  1  0  0  0
  9 10  1  0  0  0
  9 27  2  0  0  0
 10 11  2  0  0  0
 10 15  1  0  0  0
 11 12  1  0  0  0
 11 99  1  0  0  0
 12 13  2  0  0  0
 12100  1  0  0  0
 13 14  1  0  0  0
 13 31  1  0  0  0
 14 15  2  0  0  0
 14101  1  0  0  0
 15102  1  0  0  0
 16 17  2  0  0  0
 16 21  1  0  0  0
 16 31  1  0  0  0
 17 18  1  0  0  0
 17103  1  0  0  0
 18 19  2  0  0  0
 18104  1  0  0  0
 19 20  1  0  0  0
 19 24  1  0  0  0
 20 21  2  0  0  0
 20105  1  0  0  0
 21 23  1  0  0  0
 22 28  1  0  0  0
 22 32  2  0  0  0
 26 27  1  0  0  0
 28106  1  0  0  0
 28107  1  0  0  0
 29108  1  0  0  0
 29109  1  0  0  0
 33 34  1  0  0  0
 33 66  1  0  0  0
 33 70  2  0  0  0
 34 36  1  0  0  0
 34 59  1  0  0  0
 34110  1  0  0  0
 35 44  2  0  0  0
 35 45  1  0  0  0
 35 68  1  0  0  0
 36 56  1  0  0  0
 36111  1  0  0  0
 37 39  1  0  0  0
 37 47  1  0  0  0
 37 66  1  0  0  0
 37112  1  0  0  0
 38 43  2  0  0  0
 38 46  1  0  0  0
 38 47  1  0  0  0
 39 64  1  0  0  0
 39 67  2  0  0  0
 40 52  1  0  0  0
 40 53  2  0  0  0
 40 58  1  0  0  0
 41113  1  0  0  0
 41114  1  0  0  0
 41115  1  0  0  0
 41 48  1  0  0  0
 42 43  1  0  0  0
 42 66  1  0  0  0
 42116  1  0  0  0
 42117  1  0  0  0
 43 44  1  0  0  0
 44118  1  0  0  0
 45 46  2  0  0  0
 45119  1  0  0  0
 46120  1  0  0  0
 47121  1  0  0  0
 47122  1  0  0  0
 48 56  1  0  0  0
 48 65  1  0  0  0
 48123  1  0  0  0
 49 50  1  0  0  0
 49 53  1  0  0  0
 49 64  1  0  0  0
 49124  1  0  0  0
 50 51  1  0  0  0
 50125  1  0  0  0
 50126  1  0  0  0
 51 52  1  0  0  0
 51127  1  0  0  0
 51128  1  0  0  0
 52129  1  0  0  0
 52130  1  0  0  0
 53 54  1  0  0  0
 54 55  2  0  0  0
 54131  1  0  0  0
 55 57  1  0  0  0
 55132  1  0  0  0
 56 69  2  0  0  0
 57 58  2  0  0  0
 57133  1  0  0  0
 58134  1  0  0  0
 59 60  1  0  0  0
 59 61  1  0  0  0
 59 62  1  0  0  0
 60135  1  0  0  0
 60136  1  0  0  0
 60137  1  0  0  0
 61138  1  0  0  0
 61139  1  0  0  0
 61140  1  0  0  0
 62141  1  0  0  0
 62142  1  0  0  0
 62143  1  0  0  0
 63 65  1  0  0  0
 63144  1  0  0  0
 63145  1  0  0  0
 63146  1  0  0  0
 64147  1  0  0  0
 65148  1  0  0  0
 68 85  1  0  0  0
 71 72  1  0  0  0
 71 73  2  0  0  0
 71149  1  0  0  0
 72 74  2  0  0  0
 72 85  1  0  0  0
 73 87  1  0  0  0
 73 80  1  0  0  0
 74 87  1  0  0  0
 74 81  1  0  0  0
 75 76  1  0  0  0
 75 81  1  0  0  0
 75150  1  0  0  0
 75151  1  0  0  0
 76 81  1  0  0  0
 76152  1  0  0  0
 76153  1  0  0  0
 77 78  1  0  0  0
 77 80  1  0  0  0
 77154  1  0  0  0
 77155  1  0  0  0
 78 89  1  0  0  0
 78156  1  0  0  0
 78157  1  0  0  0
 79 82  1  0  0  0
 79 89  1  0  0  0
 79158  1  0  0  0
 79159  1  0  0  0
 80 82  1  0  0  0
 80160  1  0  0  0
 81161  1  0  0  0
 82 88  1  0  0  0
 82162  1  0  0  0
 83163  1  0  0  0
 83164  1  0  0  0
 83165  1  0  0  0
 83 86  1  0  0  0
 84 86  1  0  0  0
 84166  1  0  0  0
 84167  1  0  0  0
 84168  1  0  0  0
 85169  1  0  0  0
 85170  1  0  0  0
 86 87  1  0  0  0
 86171  1  0  0  0
 88172  1  0  0  0
 89173  1  0  0  0
 89174  1  0  0  0
M  CHG  1  89   1
M  ISO  4   1 100  68 101  85 101  88 100
M  END
> <chiral flag>
0

> <version>
0

> <s_m_source_file>
/data/baiqing/PycharmProjects/Reinvent-master-3.2/result/LINK_invent/BTK/process_docking_weight1_custom_sum_contain_oxygen_bond_distance_aromatic_linkinvent_7_9_3/rearranged_h_0135.sdf

> <i_m_source_file_index>
74

> <r_mmod_Potential_Energy-OPLS-2005>
678.477722167969

> <r_mmod_Stretch_Energy-OPLS-2005>
341.801971435547

> <r_mmod_Bend_Energy-OPLS-2005>
392.179779052734

> <r_mmod_Torsional_Energy-OPLS-2005>
380.28759765625

> <r_mmod_Improper_Torsional_Energy-OPLS-2005>
16.1141738891602

> <r_mmod_Van_der_Waal_Energy-OPLS-2005>
119.780624389648

> <r_mmod_Electrostatic_Energy-OPLS-2005>
-380.940277099609

> <r_mmod_Solvation_Energy-OPLS-2005>
-464.857269287109

> <b_mmod_Minimization_Converged-OPLS-2005>
0

> <r_mmod_RMS_Derivative-OPLS-2005>
6.39507913589478

$$$$
74
                    3D
 Structure written by MMmdl.
163173  0  0  1  0            999 V2000
  -30.6319  -14.6784   20.3679 C   0  0  0  0  0  0
  -30.4368  -12.3840   19.4533 C   0  0  0  0  0  0
  -29.5071  -12.3772   18.2219 C   0  0  0  0  0  0
  -28.0213  -12.2939   18.6405 C   0  0  0  0  0  0
  -27.6386  -13.2101   19.8368 C   0  0  2  0  0  0
  -28.6955  -13.1580   20.9590 C   0  0  0  0  0  0
  -25.2512  -13.8142   20.5661 C   0  0  0  0  0  0
  -24.1776  -13.0454   20.9180 C   0  0  0  0  0  0
  -24.6347  -11.6918   20.8765 C   0  0  0  0  0  0
  -23.9036  -10.4286   21.0425 C   0  0  0  0  0  0
  -24.3596   -9.4205   21.9195 C   0  0  0  0  0  0
  -23.6279   -8.2235   22.0753 C   0  0  0  0  0  0
  -22.4260   -8.0270   21.3552 C   0  0  0  0  0  0
  -21.9884   -9.0243   20.4665 C   0  0  0  0  0  0
  -22.7202  -10.2126   20.3078 C   0  0  0  0  0  0
  -21.6846   -6.0724   22.5270 C   0  0  0  0  0  0
  -21.3994   -6.5632   23.8191 C   0  0  0  0  0  0
  -21.3643   -5.6789   24.9162 C   0  0  0  0  0  0
  -21.6036   -4.3047   24.7218 C   0  0  0  0  0  0
  -21.8830   -3.8135   23.4338 C   0  0  0  0  0  0
  -21.9188   -4.6952   22.3397 C   0  0  0  0  0  0
  -22.7806  -13.5270   21.1835 C   0  0  0  0  0  0
  -22.1679   -4.2145   21.0977 F   0  0  0  0  0  0
  -21.5624   -3.4535   25.7726 F   0  0  0  0  0  0
  -29.9918  -13.4679   20.3473 N   0  0  0  0  0  0
  -26.2920  -12.9307   20.3283 N   0  0  0  0  0  0
  -25.9274  -11.6489   20.5823 N   0  0  0  0  0  0
  -22.0468  -12.8264   22.0390 N   0  0  0  0  0  0
  -25.4238  -15.1849   20.4043 N   0  0  0  0  0  0
  -31.8566  -14.7483   20.2344 O   0  0  0  0  0  0
  -21.6638   -6.8865   21.4225 O   0  0  0  0  0  0
  -22.3486  -14.5581   20.6682 O   0  0  0  0  0  0
  -24.6208  -31.8619   23.2046 C   0  0  0  0  0  0
  -25.9079  -32.4794   23.8364 C   0  0  1  0  0  0
  -27.2347  -27.3497   20.1413 C   0  0  0  0  0  0
  -25.5904  -33.8594   24.2299 N   0  0  0  0  0  0
  -23.4131  -30.4827   21.5436 C   0  0  2  0  0  0
  -24.8643  -28.9305   20.1185 C   0  0  0  0  0  0
  -22.7445  -29.4623   22.4951 C   0  0  0  0  0  0
  -18.0283  -28.1356   22.8495 C   0  0  0  0  0  0
  -24.1478  -36.7300   23.2643 C   0  0  0  0  0  0
  -25.9483  -30.8030   21.3677 C   0  0  0  0  0  0
  -26.0259  -29.4270   20.7239 C   0  0  0  0  0  0
  -27.2114  -28.6444   20.7315 C   0  0  0  0  0  0
  -26.0599  -26.8923   19.5064 C   0  0  0  0  0  0
  -24.8802  -27.6644   19.5056 C   0  0  0  0  0  0
  -23.6295  -29.8081   20.1612 C   0  0  0  0  0  0
  -25.4097  -36.3101   24.0347 C   0  0  1  0  0  0
  -20.5873  -28.3682   23.1307 C   0  0  2  0  0  0
  -20.6769  -26.9403   22.5429 C   0  0  0  0  0  0
  -19.5770  -26.6373   21.5217 C   0  0  0  0  0  0
  -18.1945  -26.7893   22.1636 C   0  0  0  0  0  0
  -19.1526  -28.8828   23.2898 C   0  0  0  0  0  0
  -18.9444  -30.1431   23.8897 C   0  0  0  0  0  0
  -17.6442  -30.6565   24.0532 C   0  0  0  0  0  0
  -25.9033  -34.9470   23.5124 C   0  0  0  0  0  0
  -16.5339  -29.9061   23.6300 C   0  0  0  0  0  0
  -16.7263  -28.6471   23.0343 C   0  0  0  0  0  0
  -26.4478  -31.6608   25.0726 C   0  0  0  0  0  0
  -25.3723  -31.3760   26.1468 C   0  0  0  0  0  0
  -27.0306  -30.3036   24.6151 C   0  0  0  0  0  0
  -27.6028  -32.4335   25.7492 C   0  0  0  0  0  0
  -27.5575  -37.1803   24.8467 C   0  0  0  0  0  0
  -21.4164  -29.3063   22.3719 N   0  0  0  0  0  0
  -26.4278  -37.3791   23.9425 N   0  0  0  0  0  0
  -24.6797  -31.0646   22.0980 N   0  0  0  0  0  0
  -23.4191  -28.8164   23.3008 O   0  0  0  0  0  0
  -28.3899  -26.5718   20.1337 O   0  0  0  0  0  0
  -26.5594  -34.8926   22.4690 O   0  0  0  0  0  0
  -23.5380  -32.1415   23.7389 O   0  0  0  0  0  0
  -29.4853  -22.8932   20.0306 C   0  0  0  0  0  0
  -29.3925  -24.3205   19.7882 C   0  0  0  0  0  0
  -27.6170  -23.0386   21.4348 C   0  0  0  0  0  0
  -27.5255  -24.4607   21.1970 C   0  0  0  0  0  0
  -28.5799  -22.1790   20.8780 C   0  0  0  0  0  0
  -28.3965  -25.1831   20.3598 C   0  0  0  0  0  0
  -26.4319  -23.0380   22.3667 C   0  0  0  0  0  0
  -26.3353  -24.6198   22.1108 C   0  0  0  0  0  0
  -28.3123  -17.0217   18.6082 C   0  0  0  0  0  0
  -28.7056  -18.4065   19.1067 C   0  0  0  0  0  0
  -29.4950  -16.0559   18.7659 C   0  0  0  0  0  0
  -30.2298  -17.1583   20.7694 C   0  0  0  0  0  0
  -29.1870  -18.3505   20.5644 C   0  0  1  0  0  0
  -29.6652  -19.8031   20.9800 C   0  0  0  0  0  0
  -29.8596  -15.8160   20.1793 N   0  0  0  0  0  0
  -28.5623  -20.7828   21.1603 N   0  0  0  0  0  0
  -31.4764  -12.5004   19.1407 H   0  0  0  0  0  0
  -30.3861  -11.4289   19.9754 H   0  0  0  0  0  0
  -29.7506  -11.5175   17.5960 H   0  0  0  0  0  0
  -29.6960  -13.2345   17.5816 H   0  0  0  0  0  0
  -27.8394  -11.2551   18.9171 H   0  0  0  0  0  0
  -27.3742  -12.4959   17.7871 H   0  0  0  0  0  0
  -27.6132  -14.2220   19.4441 H   0  0  0  0  0  0
  -28.7193  -12.1717   21.4239 H   0  0  0  0  0  0
  -28.4623  -13.8738   21.7500 H   0  0  0  0  0  0
  -25.2736   -9.5696   22.4776 H   0  0  0  0  0  0
  -24.0012   -7.4629   22.7479 H   0  0  0  0  0  0
  -21.0805   -8.8748   19.8988 H   0  0  0  0  0  0
  -22.3643  -10.9680   19.6205 H   0  0  0  0  0  0
  -21.1978   -7.6138   23.9690 H   0  0  0  0  0  0
  -21.1470   -6.0529   25.9070 H   0  0  0  0  0  0
  -22.0624   -2.7595   23.2851 H   0  0  0  0  0  0
  -22.4109  -11.9918   22.4753 H   0  0  0  0  0  0
  -21.1086  -13.1297   22.2626 H   0  0  0  0  0  0
  -24.6612  -15.8473   20.5037 H   0  0  0  0  0  0
  -26.2909  -15.6129   20.1105 H   0  0  0  0  0  0
  -26.7147  -32.5476   23.1113 H   0  0  0  0  0  0
  -25.0073  -33.9738   25.0459 H   0  0  0  0  0  0
  -22.7043  -31.3015   21.3975 H   0  0  0  0  0  0
  -23.3739  -35.9633   23.3304 H   0  0  0  0  0  0
  -24.3564  -36.8907   22.2055 H   0  0  0  0  0  0
  -23.7217  -37.6506   23.6642 H   0  0  0  0  0  0
  -26.0630  -31.5599   20.5906 H   0  0  0  0  0  0
  -26.8345  -30.8655   21.9870 H   0  0  0  0  0  0
  -28.1079  -29.0238   21.2024 H   0  0  0  0  0  0
  -26.0524  -25.9249   19.0242 H   0  0  0  0  0  0
  -23.9899  -27.2754   19.0311 H   0  0  0  0  0  0
  -23.7469  -30.5798   19.3998 H   0  0  0  0  0  0
  -22.7527  -29.2330   19.8600 H   0  0  0  0  0  0
  -25.1263  -36.1971   25.0835 H   0  0  0  0  0  0
  -20.9957  -28.3240   24.1428 H   0  0  0  0  0  0
  -20.5615  -26.2302   23.3634 H   0  0  0  0  0  0
  -21.6646  -26.7405   22.1242 H   0  0  0  0  0  0
  -19.6944  -25.6284   21.1241 H   0  0  0  0  0  0
  -19.6720  -27.3187   20.6754 H   0  0  0  0  0  0
  -17.4219  -26.6610   21.4036 H   0  0  0  0  0  0
  -18.0385  -26.0021   22.9030 H   0  0  0  0  0  0
  -19.7915  -30.7229   24.2291 H   0  0  0  0  0  0
  -17.4973  -31.6245   24.5129 H   0  0  0  0  0  0
  -15.5332  -30.2956   23.7573 H   0  0  0  0  0  0
  -15.8672  -28.0773   22.7066 H   0  0  0  0  0  0
  -24.5866  -30.7140   25.7820 H   0  0  0  0  0  0
  -24.8960  -32.2949   26.4909 H   0  0  0  0  0  0
  -25.8063  -30.8936   27.0241 H   0  0  0  0  0  0
  -26.2891  -29.6801   24.1146 H   0  0  0  0  0  0
  -27.3992  -29.7268   25.4649 H   0  0  0  0  0  0
  -27.8759  -30.4322   23.9376 H   0  0  0  0  0  0
  -27.2634  -33.3614   26.2100 H   0  0  0  0  0  0
  -28.3835  -32.6936   25.0332 H   0  0  0  0  0  0
  -28.0708  -31.8455   26.5397 H   0  0  0  0  0  0
  -28.2604  -38.0092   24.7500 H   0  0  0  0  0  0
  -28.1057  -36.2623   24.6292 H   0  0  0  0  0  0
  -27.2295  -37.1459   25.8871 H   0  0  0  0  0  0
  -20.9337  -29.8838   21.6987 H   0  0  0  0  0  0
  -26.0171  -38.2872   24.1424 H   0  0  0  0  0  0
  -30.2803  -22.3537   19.5361 H   0  0  0  0  0  0
  -30.1321  -24.7656   19.1387 H   0  0  0  0  0  0
  -26.7023  -22.7555   23.3846 H   0  0  0  0  0  0
  -25.5946  -22.4615   21.9711 H   0  0  0  0  0  0
  -25.4321  -24.9337   21.5870 H   0  0  0  0  0  0
  -26.5510  -25.2324   22.9866 H   0  0  0  0  0  0
  -28.0166  -17.0855   17.5595 H   0  0  0  0  0  0
  -27.4387  -16.6628   19.1492 H   0  0  0  0  0  0
  -27.8595  -19.0897   19.0068 H   0  0  0  0  0  0
  -29.4961  -18.8078   18.4687 H   0  0  0  0  0  0
  -30.3628  -16.4485   18.2307 H   0  0  0  0  0  0
  -29.2368  -15.1413   18.2463 H   0  0  0  0  0  0
  -30.3980  -17.0284   21.8397 H   0  0  0  0  0  0
  -31.1930  -17.4617   20.3533 H   0  0  0  0  0  0
  -28.3231  -18.0964   21.1812 H   0  0  0  0  0  0
  -30.3995  -20.1777   20.2656 H   0  0  0  0  0  0
  -30.1935  -19.7296   21.9312 H   0  0  0  0  0  0
  -27.8556  -20.4925   21.8315 H   0  0  0  0  0  0
  1 25  1  0  0  0
  1 30  2  0  0  0
  1 85  1  0  0  0
  2  3  1  0  0  0
  2 25  1  0  0  0
  2 87  1  0  0  0
  2 88  1  0  0  0
  3  4  1  0  0  0
  3 89  1  0  0  0
  3 90  1  0  0  0
  4  5  1  0  0  0
  4 91  1  0  0  0
  4 92  1  0  0  0
  5  6  1  0  0  0
  5 26  1  0  0  0
  5 93  1  0  0  0
  6 25  1  0  0  0
  6 94  1  0  0  0
  6 95  1  0  0  0
  7  8  2  0  0  0
  7 26  1  0  0  0
  7 29  1  0  0  0
  8  9  1  0  0  0
  8 22  1  0  0  0
  9 10  1  0  0  0
  9 27  2  0  0  0
 10 11  2  0  0  0
 10 15  1  0  0  0
 11 12  1  0  0  0
 11 96  1  0  0  0
 12 13  2  0  0  0
 12 97  1  0  0  0
 13 14  1  0  0  0
 13 31  1  0  0  0
 14 15  2  0  0  0
 14 98  1  0  0  0
 15 99  1  0  0  0
 16 17  2  0  0  0
 16 21  1  0  0  0
 16 31  1  0  0  0
 17 18  1  0  0  0
 17100  1  0  0  0
 18 19  2  0  0  0
 18101  1  0  0  0
 19 20  1  0  0  0
 19 24  1  0  0  0
 20 21  2  0  0  0
 20102  1  0  0  0
 21 23  1  0  0  0
 22 28  1  0  0  0
 22 32  2  0  0  0
 26 27  1  0  0  0
 28103  1  0  0  0
 28104  1  0  0  0
 29105  1  0  0  0
 29106  1  0  0  0
 33 34  1  0  0  0
 33 66  1  0  0  0
 33 70  2  0  0  0
 34 36  1  0  0  0
 34 59  1  0  0  0
 34107  1  0  0  0
 35 44  2  0  0  0
 35 45  1  0  0  0
 35 68  1  0  0  0
 36 56  1  0  0  0
 36108  1  0  0  0
 37 39  1  0  0  0
 37 47  1  0  0  0
 37 66  1  0  0  0
 37109  1  0  0  0
 38 43  2  0  0  0
 38 46  1  0  0  0
 38 47  1  0  0  0
 39 64  1  0  0  0
 39 67  2  0  0  0
 40 52  1  0  0  0
 40 53  2  0  0  0
 40 58  1  0  0  0
 41110  1  0  0  0
 41111  1  0  0  0
 41112  1  0  0  0
 41 48  1  0  0  0
 42 43  1  0  0  0
 42 66  1  0  0  0
 42113  1  0  0  0
 42114  1  0  0  0
 43 44  1  0  0  0
 44115  1  0  0  0
 45 46  2  0  0  0
 45116  1  0  0  0
 46117  1  0  0  0
 47118  1  0  0  0
 47119  1  0  0  0
 48 56  1  0  0  0
 48 65  1  0  0  0
 48120  1  0  0  0
 49 50  1  0  0  0
 49 53  1  0  0  0
 49 64  1  0  0  0
 49121  1  0  0  0
 50 51  1  0  0  0
 50122  1  0  0  0
 50123  1  0  0  0
 51 52  1  0  0  0
 51124  1  0  0  0
 51125  1  0  0  0
 52126  1  0  0  0
 52127  1  0  0  0
 53 54  1  0  0  0
 54 55  2  0  0  0
 54128  1  0  0  0
 55 57  1  0  0  0
 55129  1  0  0  0
 56 69  2  0  0  0
 57 58  2  0  0  0
 57130  1  0  0  0
 58131  1  0  0  0
 59 60  1  0  0  0
 59 61  1  0  0  0
 59 62  1  0  0  0
 60132  1  0  0  0
 60133  1  0  0  0
 60134  1  0  0  0
 61135  1  0  0  0
 61136  1  0  0  0
 61137  1  0  0  0
 62138  1  0  0  0
 62139  1  0  0  0
 62140  1  0  0  0
 63 65  1  0  0  0
 63141  1  0  0  0
 63142  1  0  0  0
 63143  1  0  0  0
 64144  1  0  0  0
 65145  1  0  0  0
 68 76  1  0  0  0
 71 72  2  0  0  0
 71 75  1  0  0  0
 71146  1  0  0  0
 72 76  1  0  0  0
 72147  1  0  0  0
 73 74  1  0  0  0
 73 75  2  0  0  0
 73 77  1  0  0  0
 74 76  2  0  0  0
 74 78  1  0  0  0
 75 86  1  0  0  0
 77 78  1  0  0  0
 77148  1  0  0  0
 77149  1  0  0  0
 78150  1  0  0  0
 78151  1  0  0  0
 79 80  1  0  0  0
 79 81  1  0  0  0
 79152  1  0  0  0
 79153  1  0  0  0
 80 83  1  0  0  0
 80154  1  0  0  0
 80155  1  0  0  0
 81 85  1  0  0  0
 81156  1  0  0  0
 81157  1  0  0  0
 82 83  1  0  0  0
 82 85  1  0  0  0
 82158  1  0  0  0
 82159  1  0  0  0
 83 84  1  0  0  0
 83160  1  0  0  0
 84 86  1  0  0  0
 84161  1  0  0  0
 84162  1  0  0  0
 86163  1  0  0  0
M  ISO  4   1 100  68 101  76 101  85 100
M  END
> <chiral flag>
0

> <version>
0

> <s_m_source_file>
/data/baiqing/PycharmProjects/Reinvent-master-3.2/result/LINK_invent/BTK/process_docking_weight1_custom_sum_contain_oxygen_bond_distance_aromatic_linkinvent_7_9_3/rearranged_h_0135.sdf

> <i_m_source_file_index>
75

> <r_mmod_Potential_Energy-OPLS-2005>
619.499145507812

> <r_mmod_Stretch_Energy-OPLS-2005>
83.8545608520508

> <r_mmod_Bend_Energy-OPLS-2005>
520.227355957031

> <r_mmod_Torsional_Energy-OPLS-2005>
340.793060302734

> <r_mmod_Improper_Torsional_Energy-OPLS-2005>
15.0646123886108

> <r_mmod_Van_der_Waal_Energy-OPLS-2005>
136.567687988281

> <r_mmod_Electrostatic_Energy-OPLS-2005>
-337.565399169922

> <r_mmod_Solvation_Energy-OPLS-2005>
-199.95295715332

> <b_mmod_Minimization_Converged-OPLS-2005>
0

> <r_mmod_RMS_Derivative-OPLS-2005>
2.83566403388977

$$$$
75
                    3D
 Structure written by MMmdl.
155163  0  0  1  0            999 V2000
  -30.7529  -14.3952   20.6689 C   0  0  0  0  0  0
  -30.4181  -12.3045   19.3957 C   0  0  0  0  0  0
  -29.4841  -12.5318   18.1921 C   0  0  0  0  0  0
  -28.0097  -12.3812   18.6109 C   0  0  0  0  0  0
  -27.6649  -13.2053   19.8791 C   0  0  2  0  0  0
  -28.7043  -12.9554   20.9939 C   0  0  0  0  0  0
  -25.2595  -13.8162   20.5674 C   0  0  0  0  0  0
  -24.1838  -13.0436   20.9176 C   0  0  0  0  0  0
  -24.6394  -11.6908   20.8733 C   0  0  0  0  0  0
  -23.9065  -10.4292   21.0409 C   0  0  0  0  0  0
  -24.3617   -9.4211   21.9188 C   0  0  0  0  0  0
  -23.6293   -8.2244   22.0757 C   0  0  0  0  0  0
  -22.4274   -8.0285   21.3544 C   0  0  0  0  0  0
  -21.9917   -9.0256   20.4640 C   0  0  0  0  0  0
  -22.7243  -10.2132   20.3051 C   0  0  0  0  0  0
  -21.6852   -6.0740   22.5279 C   0  0  0  0  0  0
  -21.4013   -6.5640   23.8216 C   0  0  0  0  0  0
  -21.3654   -5.6792   24.9176 C   0  0  0  0  0  0
  -21.6043   -4.3059   24.7222 C   0  0  0  0  0  0
  -21.8819   -3.8156   23.4345 C   0  0  0  0  0  0
  -21.9189   -4.6972   22.3399 C   0  0  0  0  0  0
  -22.7861  -13.5238   21.1849 C   0  0  0  0  0  0
  -22.1659   -4.2160   21.0980 F   0  0  0  0  0  0
  -21.5627   -3.4542   25.7736 F   0  0  0  0  0  0
  -30.0429  -13.2571   20.4525 N   0  0  0  0  0  0
  -26.3040  -12.9331   20.3380 N   0  0  0  0  0  0
  -25.9322  -11.6492   20.5766 N   0  0  0  0  0  0
  -22.0488  -12.8220   22.0394 N   0  0  0  0  0  0
  -25.4318  -15.1877   20.4082 N   0  0  0  0  0  0
  -31.8007  -14.6627   20.0731 O   0  0  0  0  0  0
  -21.6633   -6.8885   21.4245 O   0  0  0  0  0  0
  -22.3558  -14.5557   20.6720 O   0  0  0  0  0  0
  -24.6139  -31.8674   23.2169 C   0  0  0  0  0  0
  -25.9032  -32.4824   23.8452 C   0  0  1  0  0  0
  -27.2311  -27.4435   20.0743 C   0  0  0  0  0  0
  -25.5889  -33.8638   24.2366 N   0  0  0  0  0  0
  -23.3989  -30.4959   21.5566 C   0  0  2  0  0  0
  -24.8411  -28.9668   20.1158 C   0  0  0  0  0  0
  -22.7381  -29.4667   22.5003 C   0  0  0  0  0  0
  -18.0255  -28.1382   22.8502 C   0  0  0  0  0  0
  -24.1473  -36.7317   23.2642 C   0  0  0  0  0  0
  -25.9281  -30.8327   21.3703 C   0  0  0  0  0  0
  -26.0018  -29.4695   20.7148 C   0  0  0  0  0  0
  -27.1949  -28.7128   20.6976 C   0  0  0  0  0  0
  -26.0458  -26.9589   19.4677 C   0  0  0  0  0  0
  -24.8576  -27.7094   19.4941 C   0  0  0  0  0  0
  -23.6048  -29.8352   20.1686 C   0  0  0  0  0  0
  -25.4104  -36.3133   24.0334 C   0  0  1  0  0  0
  -20.5843  -28.3662   23.1321 C   0  0  2  0  0  0
  -20.6747  -26.9402   22.5421 C   0  0  0  0  0  0
  -19.5716  -26.6402   21.5211 C   0  0  0  0  0  0
  -18.1894  -26.7930   22.1625 C   0  0  0  0  0  0
  -19.1506  -28.8840   23.2908 C   0  0  0  0  0  0
  -18.9447  -30.1448   23.8919 C   0  0  0  0  0  0
  -17.6453  -30.6582   24.0592 C   0  0  0  0  0  0
  -25.9026  -34.9489   23.5146 C   0  0  0  0  0  0
  -16.5342  -29.9095   23.6342 C   0  0  0  0  0  0
  -16.7252  -28.6514   23.0362 C   0  0  0  0  0  0
  -26.4480  -31.6603   25.0774 C   0  0  0  0  0  0
  -25.3769  -31.3638   26.1530 C   0  0  0  0  0  0
  -27.0347  -30.3071   24.6141 C   0  0  0  0  0  0
  -27.6054  -32.4337   25.7534 C   0  0  0  0  0  0
  -27.5579  -37.1818   24.8472 C   0  0  0  0  0  0
  -21.4110  -29.3038   22.3736 N   0  0  0  0  0  0
  -26.4285  -37.3824   23.9430 N   0  0  0  0  0  0
  -24.6658  -31.0785   22.1067 N   0  0  0  0  0  0
  -23.4148  -28.8189   23.3034 O   0  0  0  0  0  0
  -28.4203  -26.7384   20.0915 O   0  0  0  0  0  0
  -26.5591  -34.8925   22.4706 O   0  0  0  0  0  0
  -23.5333  -32.1429   23.7558 O   0  0  0  0  0  0
  -28.3317  -21.9477   22.0121 C   0  0  0  0  0  0
  -28.3811  -20.5470   22.1411 C   0  0  0  0  0  0
  -30.2962  -21.8022   20.6282 C   0  0  0  0  0  0
  -29.3029  -22.6076   21.2355 C   0  0  0  0  0  0
  -29.4134  -19.8376   21.5083 C   0  0  0  0  0  0
  -30.6420  -17.6752   21.2201 C   0  0  0  0  0  0
  -30.8885  -16.4354   22.1050 C   0  0  0  0  0  0
  -28.4886  -25.4706   19.4274 C   0  0  0  0  0  0
  -29.6645  -24.6266   19.9439 C   0  0  0  0  0  0
  -30.3506  -20.4554   20.7602 N   0  0  0  0  0  0
  -29.4844  -18.4470   21.6666 N   0  0  0  0  0  0
  -30.2471  -15.2230   21.5945 N   0  0  0  0  0  0
  -29.2444  -23.9844   21.1525 O   0  0  0  0  0  0
  -31.4601  -12.4098   19.0888 H   0  0  0  0  0  0
  -30.3224  -11.2832   19.7666 H   0  0  0  0  0  0
  -29.7196  -11.8288   17.3917 H   0  0  0  0  0  0
  -29.6489  -13.5292   17.7807 H   0  0  0  0  0  0
  -27.8224  -11.3226   18.7959 H   0  0  0  0  0  0
  -27.3535  -12.6677   17.7881 H   0  0  0  0  0  0
  -27.7192  -14.2584   19.6028 H   0  0  0  0  0  0
  -28.6736  -11.9119   21.3108 H   0  0  0  0  0  0
  -28.4513  -13.5311   21.8841 H   0  0  0  0  0  0
  -25.2762   -9.5686   22.4767 H   0  0  0  0  0  0
  -24.0002   -7.4638   22.7481 H   0  0  0  0  0  0
  -21.0854   -8.8778   19.8942 H   0  0  0  0  0  0
  -22.3720  -10.9672   19.6159 H   0  0  0  0  0  0
  -21.2011   -7.6147   23.9724 H   0  0  0  0  0  0
  -21.1472   -6.0518   25.9074 H   0  0  0  0  0  0
  -22.0604   -2.7618   23.2841 H   0  0  0  0  0  0
  -22.4078  -11.9858   22.4761 H   0  0  0  0  0  0
  -21.1111  -13.1260   22.2598 H   0  0  0  0  0  0
  -24.6675  -15.8467   20.5090 H   0  0  0  0  0  0
  -26.2935  -15.6249   20.1054 H   0  0  0  0  0  0
  -26.7100  -32.5527   23.1217 H   0  0  0  0  0  0
  -25.0060  -33.9823   25.0523 H   0  0  0  0  0  0
  -22.6891  -31.3149   21.4222 H   0  0  0  0  0  0
  -23.3748  -35.9625   23.3299 H   0  0  0  0  0  0
  -24.3561  -36.8951   22.2061 H   0  0  0  0  0  0
  -23.7208  -37.6507   23.6665 H   0  0  0  0  0  0
  -26.0389  -31.5998   20.6023 H   0  0  0  0  0  0
  -26.8174  -30.8862   21.9864 H   0  0  0  0  0  0
  -28.0911  -29.1015   21.1602 H   0  0  0  0  0  0
  -25.9990  -26.0092   18.9581 H   0  0  0  0  0  0
  -23.9655  -27.3165   19.0261 H   0  0  0  0  0  0
  -23.7143  -30.6149   19.4142 H   0  0  0  0  0  0
  -22.7272  -29.2599   19.8693 H   0  0  0  0  0  0
  -25.1270  -36.2005   25.0824 H   0  0  0  0  0  0
  -20.9918  -28.3234   24.1449 H   0  0  0  0  0  0
  -20.5655  -26.2273   23.3598 H   0  0  0  0  0  0
  -21.6620  -26.7448   22.1220 H   0  0  0  0  0  0
  -19.6881  -25.6326   21.1216 H   0  0  0  0  0  0
  -19.6649  -27.3232   20.6752 H   0  0  0  0  0  0
  -17.4167  -26.6696   21.4025 H   0  0  0  0  0  0
  -18.0293  -26.0047   22.8998 H   0  0  0  0  0  0
  -19.7923  -30.7266   24.2280 H   0  0  0  0  0  0
  -17.5006  -31.6251   24.5208 H   0  0  0  0  0  0
  -15.5348  -30.3019   23.7632 H   0  0  0  0  0  0
  -15.8651  -28.0842   22.7076 H   0  0  0  0  0  0
  -24.5984  -30.6924   25.7874 H   0  0  0  0  0  0
  -24.8905  -32.2746   26.5031 H   0  0  0  0  0  0
  -25.8174  -30.8809   27.0263 H   0  0  0  0  0  0
  -26.2905  -29.6789   24.1228 H   0  0  0  0  0  0
  -27.4184  -29.7335   25.4591 H   0  0  0  0  0  0
  -27.8695  -30.4436   23.9256 H   0  0  0  0  0  0
  -27.2704  -33.3662   26.2083 H   0  0  0  0  0  0
  -28.3882  -32.6853   25.0364 H   0  0  0  0  0  0
  -28.0687  -31.8474   26.5477 H   0  0  0  0  0  0
  -28.2586  -38.0131   24.7561 H   0  0  0  0  0  0
  -28.1094  -36.2669   24.6254 H   0  0  0  0  0  0
  -27.2289  -37.1423   25.8869 H   0  0  0  0  0  0
  -20.9249  -29.8795   21.7004 H   0  0  0  0  0  0
  -26.0161  -38.2880   24.1481 H   0  0  0  0  0  0
  -27.5515  -22.5128   22.5016 H   0  0  0  0  0  0
  -27.6309  -20.0429   22.7353 H   0  0  0  0  0  0
  -31.0899  -22.2407   20.0422 H   0  0  0  0  0  0
  -30.5350  -17.4082   20.1684 H   0  0  0  0  0  0
  -31.5312  -18.3045   21.2866 H   0  0  0  0  0  0
  -30.5797  -16.6123   23.1359 H   0  0  0  0  0  0
  -31.9639  -16.2550   22.1585 H   0  0  0  0  0  0
  -27.5950  -24.8626   19.5591 H   0  0  0  0  0  0
  -28.6069  -25.6554   18.3595 H   0  0  0  0  0  0
  -30.5451  -25.2443   20.1231 H   0  0  0  0  0  0
  -29.9269  -23.9142   19.1610 H   0  0  0  0  0  0
  -28.8039  -17.9869   22.2614 H   0  0  0  0  0  0
  -29.3854  -14.9355   22.0342 H   0  0  0  0  0  0
  1 25  1  0  0  0
  1 30  2  0  0  0
  1 82  1  0  0  0
  2  3  1  0  0  0
  2 25  1  0  0  0
  2 84  1  0  0  0
  2 85  1  0  0  0
  3  4  1  0  0  0
  3 86  1  0  0  0
  3 87  1  0  0  0
  4  5  1  0  0  0
  4 88  1  0  0  0
  4 89  1  0  0  0
  5  6  1  0  0  0
  5 26  1  0  0  0
  5 90  1  0  0  0
  6 25  1  0  0  0
  6 91  1  0  0  0
  6 92  1  0  0  0
  7  8  2  0  0  0
  7 26  1  0  0  0
  7 29  1  0  0  0
  8  9  1  0  0  0
  8 22  1  0  0  0
  9 10  1  0  0  0
  9 27  2  0  0  0
 10 11  2  0  0  0
 10 15  1  0  0  0
 11 12  1  0  0  0
 11 93  1  0  0  0
 12 13  2  0  0  0
 12 94  1  0  0  0
 13 14  1  0  0  0
 13 31  1  0  0  0
 14 15  2  0  0  0
 14 95  1  0  0  0
 15 96  1  0  0  0
 16 17  2  0  0  0
 16 21  1  0  0  0
 16 31  1  0  0  0
 17 18  1  0  0  0
 17 97  1  0  0  0
 18 19  2  0  0  0
 18 98  1  0  0  0
 19 20  1  0  0  0
 19 24  1  0  0  0
 20 21  2  0  0  0
 20 99  1  0  0  0
 21 23  1  0  0  0
 22 28  1  0  0  0
 22 32  2  0  0  0
 26 27  1  0  0  0
 28100  1  0  0  0
 28101  1  0  0  0
 29102  1  0  0  0
 29103  1  0  0  0
 33 34  1  0  0  0
 33 66  1  0  0  0
 33 70  2  0  0  0
 34 36  1  0  0  0
 34 59  1  0  0  0
 34104  1  0  0  0
 35 44  2  0  0  0
 35 45  1  0  0  0
 35 68  1  0  0  0
 36 56  1  0  0  0
 36105  1  0  0  0
 37 39  1  0  0  0
 37 47  1  0  0  0
 37 66  1  0  0  0
 37106  1  0  0  0
 38 43  2  0  0  0
 38 46  1  0  0  0
 38 47  1  0  0  0
 39 64  1  0  0  0
 39 67  2  0  0  0
 40 52  1  0  0  0
 40 53  2  0  0  0
 40 58  1  0  0  0
 41107  1  0  0  0
 41108  1  0  0  0
 41109  1  0  0  0
 41 48  1  0  0  0
 42 43  1  0  0  0
 42 66  1  0  0  0
 42110  1  0  0  0
 42111  1  0  0  0
 43 44  1  0  0  0
 44112  1  0  0  0
 45 46  2  0  0  0
 45113  1  0  0  0
 46114  1  0  0  0
 47115  1  0  0  0
 47116  1  0  0  0
 48 56  1  0  0  0
 48 65  1  0  0  0
 48117  1  0  0  0
 49 50  1  0  0  0
 49 53  1  0  0  0
 49 64  1  0  0  0
 49118  1  0  0  0
 50 51  1  0  0  0
 50119  1  0  0  0
 50120  1  0  0  0
 51 52  1  0  0  0
 51121  1  0  0  0
 51122  1  0  0  0
 52123  1  0  0  0
 52124  1  0  0  0
 53 54  1  0  0  0
 54 55  2  0  0  0
 54125  1  0  0  0
 55 57  1  0  0  0
 55126  1  0  0  0
 56 69  2  0  0  0
 57 58  2  0  0  0
 57127  1  0  0  0
 58128  1  0  0  0
 59 60  1  0  0  0
 59 61  1  0  0  0
 59 62  1  0  0  0
 60129  1  0  0  0
 60130  1  0  0  0
 60131  1  0  0  0
 61132  1  0  0  0
 61133  1  0  0  0
 61134  1  0  0  0
 62135  1  0  0  0
 62136  1  0  0  0
 62137  1  0  0  0
 63 65  1  0  0  0
 63138  1  0  0  0
 63139  1  0  0  0
 63140  1  0  0  0
 64141  1  0  0  0
 65142  1  0  0  0
 68 78  1  0  0  0
 71 72  2  0  0  0
 71 74  1  0  0  0
 71143  1  0  0  0
 72 75  1  0  0  0
 72144  1  0  0  0
 73 74  2  0  0  0
 73 80  1  0  0  0
 73145  1  0  0  0
 74 83  1  0  0  0
 75 80  2  0  0  0
 75 81  1  0  0  0
 76 77  1  0  0  0
 76 81  1  0  0  0
 76146  1  0  0  0
 76147  1  0  0  0
 77 82  1  0  0  0
 77148  1  0  0  0
 77149  1  0  0  0
 78 79  1  0  0  0
 78150  1  0  0  0
 78151  1  0  0  0
 79 83  1  0  0  0
 79152  1  0  0  0
 79153  1  0  0  0
 81154  1  0  0  0
 82155  1  0  0  0
M  ISO  4   1 100  68 101  78 101  82 100
M  END
> <chiral flag>
0

> <version>
0

> <s_m_source_file>
/data/baiqing/PycharmProjects/Reinvent-master-3.2/result/LINK_invent/BTK/process_docking_weight1_custom_sum_contain_oxygen_bond_distance_aromatic_linkinvent_7_9_3/rearranged_h_0135.sdf

> <i_m_source_file_index>
76

> <r_mmod_Potential_Energy-OPLS-2005>
-312.486755371094

> <r_mmod_Stretch_Energy-OPLS-2005>
33.7906761169434

> <r_mmod_Bend_Energy-OPLS-2005>
113.939880371094

> <r_mmod_Torsional_Energy-OPLS-2005>
196.425018310547

> <r_mmod_Improper_Torsional_Energy-OPLS-2005>
2.13188815116882

> <r_mmod_Van_der_Waal_Energy-OPLS-2005>
170.019470214844

> <r_mmod_Electrostatic_Energy-OPLS-2005>
-591.684204101562

> <r_mmod_Solvation_Energy-OPLS-2005>
-245.819320678711

> <b_mmod_Minimization_Converged-OPLS-2005>
0

> <r_mmod_RMS_Derivative-OPLS-2005>
1.70281863212585

$$$$
76
                    3D
 Structure written by MMmdl.
160168  0  0  1  0            999 V2000
  -30.5939  -14.7548   20.4506 C   0  0  0  0  0  0
  -30.4362  -12.4618   19.4642 C   0  0  0  0  0  0
  -29.5083  -12.5078   18.2285 C   0  0  0  0  0  0
  -28.0339  -12.3317   18.6439 C   0  0  0  0  0  0
  -27.6396  -13.2300   19.8466 C   0  0  2  0  0  0
  -28.6872  -13.1633   20.9789 C   0  0  0  0  0  0
  -25.2493  -13.8192   20.5712 C   0  0  0  0  0  0
  -24.1787  -13.0438   20.9227 C   0  0  0  0  0  0
  -24.6375  -11.6918   20.8762 C   0  0  0  0  0  0
  -23.9057  -10.4290   21.0391 C   0  0  0  0  0  0
  -24.3608   -9.4210   21.9172 C   0  0  0  0  0  0
  -23.6286   -8.2238   22.0735 C   0  0  0  0  0  0
  -22.4267   -8.0280   21.3534 C   0  0  0  0  0  0
  -21.9913   -9.0255   20.4638 C   0  0  0  0  0  0
  -22.7231  -10.2132   20.3040 C   0  0  0  0  0  0
  -21.6850   -6.0741   22.5284 C   0  0  0  0  0  0
  -21.4020   -6.5640   23.8229 C   0  0  0  0  0  0
  -21.3656   -5.6783   24.9176 C   0  0  0  0  0  0
  -21.6038   -4.3048   24.7220 C   0  0  0  0  0  0
  -21.8822   -3.8151   23.4340 C   0  0  0  0  0  0
  -21.9195   -4.6968   22.3393 C   0  0  0  0  0  0
  -22.7801  -13.5223   21.1878 C   0  0  0  0  0  0
  -22.1654   -4.2163   21.0963 F   0  0  0  0  0  0
  -21.5619   -3.4515   25.7723 F   0  0  0  0  0  0
  -29.9830  -13.5227   20.3905 N   0  0  0  0  0  0
  -26.2912  -12.9398   20.3267 N   0  0  0  0  0  0
  -25.9304  -11.6549   20.5756 N   0  0  0  0  0  0
  -22.0440  -12.8229   22.0440 N   0  0  0  0  0  0
  -25.4175  -15.1924   20.4144 N   0  0  0  0  0  0
  -31.7893  -14.8658   20.1669 O   0  0  0  0  0  0
  -21.6638   -6.8870   21.4243 O   0  0  0  0  0  0
  -22.3493  -14.5525   20.6717 O   0  0  0  0  0  0
  -24.6308  -31.8561   23.1966 C   0  0  0  0  0  0
  -25.9134  -32.4759   23.8317 C   0  0  1  0  0  0
  -27.2217  -27.2586   20.1349 C   0  0  0  0  0  0
  -25.5929  -33.8555   24.2244 N   0  0  0  0  0  0
  -23.4284  -30.4765   21.5402 C   0  0  2  0  0  0
  -24.8760  -28.9141   20.1161 C   0  0  0  0  0  0
  -22.7498  -29.4609   22.4912 C   0  0  0  0  0  0
  -18.0298  -28.1400   22.8495 C   0  0  0  0  0  0
  -24.1488  -36.7282   23.2637 C   0  0  0  0  0  0
  -25.9721  -30.7668   21.3762 C   0  0  0  0  0  0
  -26.0456  -29.3836   20.7276 C   0  0  0  0  0  0
  -27.2219  -28.5674   20.7276 C   0  0  0  0  0  0
  -26.0306  -26.8490   19.5024 C   0  0  0  0  0  0
  -24.8722  -27.6540   19.4937 C   0  0  0  0  0  0
  -23.6491  -29.8064   20.1576 C   0  0  0  0  0  0
  -25.4115  -36.3061   24.0319 C   0  0  1  0  0  0
  -20.5898  -28.3712   23.1275 C   0  0  2  0  0  0
  -20.6782  -26.9431   22.5410 C   0  0  0  0  0  0
  -19.5752  -26.6395   21.5220 C   0  0  0  0  0  0
  -18.1941  -26.7945   22.1635 C   0  0  0  0  0  0
  -19.1549  -28.8871   23.2886 C   0  0  0  0  0  0
  -18.9467  -30.1475   23.8898 C   0  0  0  0  0  0
  -17.6465  -30.6597   24.0576 C   0  0  0  0  0  0
  -25.9056  -34.9433   23.5083 C   0  0  0  0  0  0
  -16.5357  -29.9100   23.6334 C   0  0  0  0  0  0
  -16.7287  -28.6520   23.0354 C   0  0  0  0  0  0
  -26.4496  -31.6589   25.0712 C   0  0  0  0  0  0
  -25.3715  -31.3757   26.1433 C   0  0  0  0  0  0
  -27.0336  -30.3004   24.6202 C   0  0  0  0  0  0
  -27.6041  -32.4334   25.7500 C   0  0  0  0  0  0
  -27.5572  -37.1803   24.8462 C   0  0  0  0  0  0
  -21.4204  -29.3057   22.3645 N   0  0  0  0  0  0
  -26.4281  -37.3767   23.9405 N   0  0  0  0  0  0
  -24.6960  -31.0519   22.0946 N   0  0  0  0  0  0
  -23.4198  -28.8161   23.3020 O   0  0  0  0  0  0
  -28.3315  -26.3883   20.1072 O   0  0  0  0  0  0
  -26.5626  -34.8914   22.4654 O   0  0  0  0  0  0
  -23.5456  -32.1384   23.7255 O   0  0  0  0  0  0
  -28.7197  -23.8373   19.6225 C   0  0  0  0  0  0
  -27.7312  -24.4000   21.5136 C   0  0  0  0  0  0
  -28.2375  -24.9856   20.3841 C   0  0  0  0  0  0
  -28.4581  -22.6118   20.2545 C   0  0  0  0  0  0
  -25.9408  -22.4861   22.9880 C   0  0  0  0  0  0
  -28.3594  -22.0096   23.6294 C   0  0  0  0  0  0
  -28.5870  -21.0907   19.7840 C   0  0  0  0  0  0
  -30.1632  -17.3670   20.7087 C   0  0  0  0  0  0
  -29.1274  -18.5200   20.2023 C   0  0  0  0  0  0
  -27.3401  -22.0962   22.4858 C   0  0  0  0  0  0
  -27.8226  -22.9991   21.4413 N   0  0  0  0  0  0
  -29.7946  -15.8764   20.6246 N   0  0  0  0  0  0
  -29.4237  -20.0113   20.4955 N   0  3  0  0  0  0
  -31.4750  -12.5984   19.1596 H   0  0  0  0  0  0
  -30.3903  -11.4875   19.9532 H   0  0  0  0  0  0
  -29.7915  -11.7335   17.5138 H   0  0  0  0  0  0
  -29.6301  -13.4619   17.7123 H   0  0  0  0  0  0
  -27.8918  -11.2836   18.9093 H   0  0  0  0  0  0
  -27.3742  -12.5240   17.7958 H   0  0  0  0  0  0
  -27.6332  -14.2506   19.4630 H   0  0  0  0  0  0
  -28.7272  -12.1656   21.4200 H   0  0  0  0  0  0
  -28.4229  -13.8420   21.7917 H   0  0  0  0  0  0
  -25.2732   -9.5696   22.4768 H   0  0  0  0  0  0
  -23.9996   -7.4630   22.7444 H   0  0  0  0  0  0
  -21.0849   -8.8779   19.8940 H   0  0  0  0  0  0
  -22.3679  -10.9685   19.6159 H   0  0  0  0  0  0
  -21.2025   -7.6156   23.9745 H   0  0  0  0  0  0
  -21.1461   -6.0496   25.9088 H   0  0  0  0  0  0
  -22.0605   -2.7621   23.2831 H   0  0  0  0  0  0
  -22.4055  -11.9882   22.4821 H   0  0  0  0  0  0
  -21.1060  -13.1255   22.2615 H   0  0  0  0  0  0
  -24.6390  -15.8350   20.5164 H   0  0  0  0  0  0
  -26.2485  -15.6339   20.0441 H   0  0  0  0  0  0
  -26.7203  -32.5421   23.1059 H   0  0  0  0  0  0
  -25.0061  -33.9694   25.0379 H   0  0  0  0  0  0
  -22.7235  -31.2973   21.3909 H   0  0  0  0  0  0
  -23.3743  -35.9626   23.3301 H   0  0  0  0  0  0
  -24.3568  -36.8911   22.2051 H   0  0  0  0  0  0
  -23.7252  -37.6484   23.6671 H   0  0  0  0  0  0
  -26.1049  -31.5224   20.6004 H   0  0  0  0  0  0
  -26.8501  -30.8230   22.0071 H   0  0  0  0  0  0
  -28.1224  -28.9272   21.2049 H   0  0  0  0  0  0
  -25.9939  -25.8825   19.0180 H   0  0  0  0  0  0
  -23.9780  -27.2905   19.0067 H   0  0  0  0  0  0
  -23.7757  -30.5801   19.3990 H   0  0  0  0  0  0
  -22.7669  -29.2418   19.8524 H   0  0  0  0  0  0
  -25.1306  -36.1902   25.0812 H   0  0  0  0  0  0
  -21.0009  -28.3299   24.1386 H   0  0  0  0  0  0
  -20.5689  -26.2332   23.3618 H   0  0  0  0  0  0
  -21.6655  -26.7451   22.1204 H   0  0  0  0  0  0
  -19.6908  -25.6305   21.1258 H   0  0  0  0  0  0
  -19.6685  -27.3192   20.6738 H   0  0  0  0  0  0
  -17.4212  -26.6703   21.4037 H   0  0  0  0  0  0
  -18.0338  -26.0085   22.9022 H   0  0  0  0  0  0
  -19.7940  -30.7305   24.2256 H   0  0  0  0  0  0
  -17.5016  -31.6271   24.5189 H   0  0  0  0  0  0
  -15.5362  -30.3005   23.7641 H   0  0  0  0  0  0
  -15.8692  -28.0837   22.7058 H   0  0  0  0  0  0
  -24.5889  -30.7112   25.7758 H   0  0  0  0  0  0
  -24.8904  -32.2932   26.4826 H   0  0  0  0  0  0
  -25.8016  -30.8949   27.0228 H   0  0  0  0  0  0
  -26.2921  -29.6770   24.1199 H   0  0  0  0  0  0
  -27.3976  -29.7256   25.4729 H   0  0  0  0  0  0
  -27.8817  -30.4260   23.9470 H   0  0  0  0  0  0
  -27.2638  -33.3636   26.2061 H   0  0  0  0  0  0
  -28.3865  -32.6902   25.0346 H   0  0  0  0  0  0
  -28.0698  -31.8477   26.5435 H   0  0  0  0  0  0
  -28.2596  -38.0094   24.7497 H   0  0  0  0  0  0
  -28.1063  -36.2624   24.6307 H   0  0  0  0  0  0
  -27.2286  -37.1474   25.8864 H   0  0  0  0  0  0
  -20.9382  -29.8772   21.6842 H   0  0  0  0  0  0
  -26.0156  -38.2842   24.1408 H   0  0  0  0  0  0
  -29.1930  -23.9076   18.6532 H   0  0  0  0  0  0
  -27.2911  -24.8688   22.3834 H   0  0  0  0  0  0
  -25.5453  -21.7161   23.6493 H   0  0  0  0  0  0
  -25.2413  -22.5944   22.1581 H   0  0  0  0  0  0
  -25.9456  -23.4196   23.5504 H   0  0  0  0  0  0
  -28.0642  -21.2591   24.3616 H   0  0  0  0  0  0
  -28.4512  -22.9626   24.1502 H   0  0  0  0  0  0
  -29.3492  -21.7371   23.2624 H   0  0  0  0  0  0
  -28.9260  -21.0941   18.7478 H   0  0  0  0  0  0
  -27.5714  -20.6972   19.7200 H   0  0  0  0  0  0
  -30.3890  -17.5602   21.7570 H   0  0  0  0  0  0
  -31.1071  -17.5071   20.1819 H   0  0  0  0  0  0
  -28.1428  -18.3033   20.6166 H   0  0  0  0  0  0
  -29.0176  -18.4164   19.1221 H   0  0  0  0  0  0
  -27.2373  -21.1006   22.0569 H   0  0  0  0  0  0
  -28.8198  -15.6663   20.7782 H   0  0  0  0  0  0
  -30.3871  -20.1930   20.2664 H   0  0  0  0  0  0
  -29.3298  -20.1463   21.4859 H   0  0  0  0  0  0
  1 25  1  0  0  0
  1 30  2  0  0  0
  1 82  1  0  0  0
  2  3  1  0  0  0
  2 25  1  0  0  0
  2 84  1  0  0  0
  2 85  1  0  0  0
  3  4  1  0  0  0
  3 86  1  0  0  0
  3 87  1  0  0  0
  4  5  1  0  0  0
  4 88  1  0  0  0
  4 89  1  0  0  0
  5  6  1  0  0  0
  5 26  1  0  0  0
  5 90  1  0  0  0
  6 25  1  0  0  0
  6 91  1  0  0  0
  6 92  1  0  0  0
  7  8  2  0  0  0
  7 26  1  0  0  0
  7 29  1  0  0  0
  8  9  1  0  0  0
  8 22  1  0  0  0
  9 10  1  0  0  0
  9 27  2  0  0  0
 10 11  2  0  0  0
 10 15  1  0  0  0
 11 12  1  0  0  0
 11 93  1  0  0  0
 12 13  2  0  0  0
 12 94  1  0  0  0
 13 14  1  0  0  0
 13 31  1  0  0  0
 14 15  2  0  0  0
 14 95  1  0  0  0
 15 96  1  0  0  0
 16 17  2  0  0  0
 16 21  1  0  0  0
 16 31  1  0  0  0
 17 18  1  0  0  0
 17 97  1  0  0  0
 18 19  2  0  0  0
 18 98  1  0  0  0
 19 20  1  0  0  0
 19 24  1  0  0  0
 20 21  2  0  0  0
 20 99  1  0  0  0
 21 23  1  0  0  0
 22 28  1  0  0  0
 22 32  2  0  0  0
 26 27  1  0  0  0
 28100  1  0  0  0
 28101  1  0  0  0
 29102  1  0  0  0
 29103  1  0  0  0
 33 34  1  0  0  0
 33 66  1  0  0  0
 33 70  2  0  0  0
 34 36  1  0  0  0
 34 59  1  0  0  0
 34104  1  0  0  0
 35 44  2  0  0  0
 35 45  1  0  0  0
 35 68  1  0  0  0
 36 56  1  0  0  0
 36105  1  0  0  0
 37 39  1  0  0  0
 37 47  1  0  0  0
 37 66  1  0  0  0
 37106  1  0  0  0
 38 43  2  0  0  0
 38 46  1  0  0  0
 38 47  1  0  0  0
 39 64  1  0  0  0
 39 67  2  0  0  0
 40 52  1  0  0  0
 40 53  2  0  0  0
 40 58  1  0  0  0
 41107  1  0  0  0
 41108  1  0  0  0
 41109  1  0  0  0
 41 48  1  0  0  0
 42 43  1  0  0  0
 42 66  1  0  0  0
 42110  1  0  0  0
 42111  1  0  0  0
 43 44  1  0  0  0
 44112  1  0  0  0
 45 46  2  0  0  0
 45113  1  0  0  0
 46114  1  0  0  0
 47115  1  0  0  0
 47116  1  0  0  0
 48 56  1  0  0  0
 48 65  1  0  0  0
 48117  1  0  0  0
 49 50  1  0  0  0
 49 53  1  0  0  0
 49 64  1  0  0  0
 49118  1  0  0  0
 50 51  1  0  0  0
 50119  1  0  0  0
 50120  1  0  0  0
 51 52  1  0  0  0
 51121  1  0  0  0
 51122  1  0  0  0
 52123  1  0  0  0
 52124  1  0  0  0
 53 54  1  0  0  0
 54 55  2  0  0  0
 54125  1  0  0  0
 55 57  1  0  0  0
 55126  1  0  0  0
 56 69  2  0  0  0
 57 58  2  0  0  0
 57127  1  0  0  0
 58128  1  0  0  0
 59 60  1  0  0  0
 59 61  1  0  0  0
 59 62  1  0  0  0
 60129  1  0  0  0
 60130  1  0  0  0
 60131  1  0  0  0
 61132  1  0  0  0
 61133  1  0  0  0
 61134  1  0  0  0
 62135  1  0  0  0
 62136  1  0  0  0
 62137  1  0  0  0
 63 65  1  0  0  0
 63138  1  0  0  0
 63139  1  0  0  0
 63140  1  0  0  0
 64141  1  0  0  0
 65142  1  0  0  0
 68 73  1  0  0  0
 71 73  1  0  0  0
 71 74  2  0  0  0
 71143  1  0  0  0
 72 73  2  0  0  0
 72 81  1  0  0  0
 72144  1  0  0  0
 74 77  1  0  0  0
 74 81  1  0  0  0
 75145  1  0  0  0
 75146  1  0  0  0
 75147  1  0  0  0
 75 80  1  0  0  0
 76 80  1  0  0  0
 76148  1  0  0  0
 76149  1  0  0  0
 76150  1  0  0  0
 77 83  1  0  0  0
 77151  1  0  0  0
 77152  1  0  0  0
 78 79  1  0  0  0
 78 82  1  0  0  0
 78153  1  0  0  0
 78154  1  0  0  0
 79 83  1  0  0  0
 79155  1  0  0  0
 79156  1  0  0  0
 80 81  1  0  0  0
 80157  1  0  0  0
 82158  1  0  0  0
 83159  1  0  0  0
 83160  1  0  0  0
M  CHG  1  83   1
M  ISO  4   1 100  68 101  73 101  82 100
M  END
> <chiral flag>
0

> <version>
0

> <s_m_source_file>
/data/baiqing/PycharmProjects/Reinvent-master-3.2/result/LINK_invent/BTK/process_docking_weight1_custom_sum_contain_oxygen_bond_distance_aromatic_linkinvent_7_9_3/rearranged_h_0135.sdf

> <i_m_source_file_index>
77

> <r_mmod_Potential_Energy-OPLS-2005>
-129.821350097656

> <r_mmod_Stretch_Energy-OPLS-2005>
118.154678344727

> <r_mmod_Bend_Energy-OPLS-2005>
160.255249023438

> <r_mmod_Torsional_Energy-OPLS-2005>
231.890838623047

> <r_mmod_Improper_Torsional_Energy-OPLS-2005>
5.46991682052612

> <r_mmod_Van_der_Waal_Energy-OPLS-2005>
109.276206970215

> <r_mmod_Electrostatic_Energy-OPLS-2005>
-339.909851074219

> <r_mmod_Solvation_Energy-OPLS-2005>
-500.981170654297

> <b_mmod_Minimization_Converged-OPLS-2005>
0

> <r_mmod_RMS_Derivative-OPLS-2005>
2.32625317573547

$$$$
77
                    3D
 Structure written by MMmdl.
171179  0  0  1  0            999 V2000
  -29.6622  -16.6259   20.5527 C   0  0  0  0  0  0
  -30.2374  -13.8930   19.6519 C   0  0  0  0  0  0
  -29.5672  -13.0193   18.4995 C   0  0  0  0  0  0
  -28.2430  -12.3963   18.9426 C   0  0  0  0  0  0
  -27.5411  -13.4151   19.8497 C   0  0  2  0  0  0
  -28.4153  -14.0716   20.9684 C   0  0  0  0  0  0
  -25.1933  -13.8396   20.5899 C   0  0  0  0  0  0
  -24.1477  -13.0393   20.9342 C   0  0  0  0  0  0
  -24.6360  -11.6960   20.8741 C   0  0  0  0  0  0
  -23.9124  -10.4268   21.0355 C   0  0  0  0  0  0
  -24.3648   -9.4200   21.9169 C   0  0  0  0  0  0
  -23.6310   -8.2239   22.0754 C   0  0  0  0  0  0
  -22.4297   -8.0265   21.3538 C   0  0  0  0  0  0
  -21.9931   -9.0234   20.4638 C   0  0  0  0  0  0
  -22.7273  -10.2104   20.3027 C   0  0  0  0  0  0
  -21.6856   -6.0728   22.5285 C   0  0  0  0  0  0
  -21.4011   -6.5636   23.8215 C   0  0  0  0  0  0
  -21.3657   -5.6792   24.9179 C   0  0  0  0  0  0
  -21.6043   -4.3054   24.7232 C   0  0  0  0  0  0
  -21.8816   -3.8142   23.4354 C   0  0  0  0  0  0
  -21.9190   -4.6955   22.3408 C   0  0  0  0  0  0
  -22.7487  -13.5064   21.1958 C   0  0  0  0  0  0
  -22.1660   -4.2139   21.0985 F   0  0  0  0  0  0
  -21.5631   -3.4538   25.7746 F   0  0  0  0  0  0
  -29.3635  -15.0734   20.3408 N   0  0  0  0  0  0
  -26.2468  -12.9918   20.3360 N   0  0  0  0  0  0
  -25.9335  -11.6875   20.5649 N   0  0  0  0  0  0
  -22.0185  -12.8050   22.0529 N   0  0  0  0  0  0
  -25.3380  -15.2169   20.4393 N   0  0  0  0  0  0
  -30.9237  -16.4567   20.4209 O   0  0  0  0  0  0
  -21.6641   -6.8873   21.4249 O   0  0  0  0  0  0
  -22.3156  -14.5373   20.6810 O   0  0  0  0  0  0
  -24.6946  -31.6121   23.3312 C   0  0  0  0  0  0
  -25.9280  -32.3887   23.8888 C   0  0  1  0  0  0
  -28.1817  -26.6639   19.1111 C   0  0  0  0  0  0
  -25.5577  -33.7977   24.1886 N   0  0  0  0  0  0
  -23.3890  -29.9071   21.8700 C   0  0  2  0  0  0
  -24.8602  -28.0940   19.7201 C   0  0  0  0  0  0
  -22.5711  -29.2735   22.8676 C   0  0  0  0  0  0
  -17.9467  -28.1209   22.8449 C   0  0  0  0  0  0
  -24.1496  -36.6995   23.2595 C   0  0  0  0  0  0
  -26.4237  -29.9091   22.1906 C   0  0  0  0  0  0
  -26.6969  -28.7914   20.8452 C   0  0  0  0  0  0
  -28.1711  -27.9013   20.4775 C   0  0  0  0  0  0
  -26.6957  -26.3571   17.7800 C   0  0  0  0  0  0
  -25.0050  -27.0624   18.2584 C   0  0  0  0  0  0
  -23.3197  -28.7823   20.3716 C   0  0  0  0  0  0
  -25.4122  -36.2657   24.0202 C   0  0  1  0  0  0
  -20.4502  -28.2661   23.2369 C   0  0  2  0  0  0
  -20.5701  -26.8670   22.5932 C   0  0  0  0  0  0
  -19.5123  -26.6254   21.5216 C   0  0  0  0  0  0
  -18.1186  -26.7833   22.1394 C   0  0  0  0  0  0
  -19.0603  -28.8407   23.3265 C   0  0  0  0  0  0
  -18.8882  -30.1114   23.9172 C   0  0  0  0  0  0
  -17.6009  -30.6559   24.0537 C   0  0  0  0  0  0
  -25.9034  -34.8948   23.4942 C   0  0  0  0  0  0
  -16.4852  -29.9215   23.6120 C   0  0  0  0  0  0
  -16.6580  -28.6592   23.0120 C   0  0  0  0  0  0
  -26.4750  -31.7113   25.2075 C   0  0  0  0  0  0
  -25.3629  -31.4735   26.2537 C   0  0  0  0  0  0
  -27.1425  -30.3449   25.0141 C   0  0  0  0  0  0
  -27.5890  -32.5839   25.8213 C   0  0  0  0  0  0
  -27.5528  -37.1566   24.8446 C   0  0  0  0  0  0
  -21.2975  -29.1906   22.5523 N   0  0  0  0  0  0
  -26.4260  -37.3428   23.9344 N   0  0  0  0  0  0
  -24.8409  -30.4379   22.6212 N   0  0  0  0  0  0
  -23.1141  -28.7463   23.8285 O   0  0  0  0  0  0
  -28.8866  -25.7293   19.5418 O   0  0  0  0  0  0
  -26.5919  -34.8468   22.4727 O   0  0  0  0  0  0
  -23.5798  -32.0783   23.6141 O   0  0  0  0  0  0
  -25.0869  -30.3168   20.2618 C   0  0  0  0  0  0
  -24.9983  -27.8811   21.9332 C   0  0  0  0  0  0
  -26.0441  -29.4780   17.8939 C   0  0  0  0  0  0
  -25.2236  -30.5132   18.6687 C   0  0  1  0  0  0
  -26.8076  -28.3097   18.7399 C   0  0  1  0  0  0
  -26.3183  -26.4874   20.9771 C   0  0  1  0  0  0
  -23.9308  -30.8358   17.8879 C   0  0  0  0  0  0
  -25.3894  -24.5769   19.2944 C   0  0  0  0  0  0
  -29.3267  -20.5878   22.3293 C   0  0  0  0  0  0
  -27.1952  -22.3699   21.0739 C   0  0  0  0  0  0
  -27.7525  -24.9935   19.4269 C   0  0  0  0  0  0
  -26.2226  -25.9835   19.9371 C   0  0  2  0  0  0
  -28.4664  -20.3336   21.0864 C   0  0  2  0  0  0
  -28.8440  -18.2370   20.7493 N   0  0  0  0  0  0
  -26.8223  -24.3973   21.6051 N   0  3  0  0  0  0
  -31.1172  -14.3535   19.2038 H   0  0  0  0  0  0
  -30.6684  -13.2409   20.4128 H   0  0  0  0  0  0
  -30.2539  -12.2492   18.1423 H   0  0  0  0  0  0
  -29.3777  -13.6771   17.6507 H   0  0  0  0  0  0
  -28.4469  -11.4842   19.5081 H   0  0  0  0  0  0
  -27.6287  -12.1183   18.0848 H   0  0  0  0  0  0
  -27.3136  -14.2276   19.1562 H   0  0  0  0  0  0
  -28.8938  -13.3234   21.6025 H   0  0  0  0  0  0
  -27.7806  -14.6425   21.6461 H   0  0  0  0  0  0
  -25.2771   -9.5682   22.4774 H   0  0  0  0  0  0
  -23.9995   -7.4635   22.7499 H   0  0  0  0  0  0
  -21.0848   -8.8753   19.8956 H   0  0  0  0  0  0
  -22.3714  -10.9637   19.6137 H   0  0  0  0  0  0
  -21.2004   -7.6144   23.9713 H   0  0  0  0  0  0
  -21.1486   -6.0527   25.9082 H   0  0  0  0  0  0
  -22.0597   -2.7602   23.2860 H   0  0  0  0  0  0
  -22.3836  -11.9741   22.4934 H   0  0  0  0  0  0
  -21.0784  -13.1033   22.2724 H   0  0  0  0  0  0
  -24.5599  -15.8563   20.5591 H   0  0  0  0  0  0
  -26.1866  -15.6738   20.1285 H   0  0  0  0  0  0
  -26.7206  -32.4256   23.1453 H   0  0  0  0  0  0
  -24.9344  -33.9280   24.9720 H   0  0  0  0  0  0
  -22.8113  -30.8026   21.6165 H   0  0  0  0  0  0
  -23.3753  -35.9334   23.3173 H   0  0  0  0  0  0
  -24.3587  -36.8751   22.2034 H   0  0  0  0  0  0
  -23.7262  -37.6138   23.6754 H   0  0  0  0  0  0
  -27.1438  -30.7166   22.0854 H   0  0  0  0  0  0
  -26.8681  -29.2612   22.9238 H   0  0  0  0  0  0
  -29.0205  -27.9793   21.1402 H   0  0  0  0  0  0
  -26.7571  -25.6383   16.9696 H   0  0  0  0  0  0
  -24.1245  -26.8314   17.6758 H   0  0  0  0  0  0
  -22.7549  -29.2860   19.5928 H   0  0  0  0  0  0
  -22.6609  -27.9335   20.5634 H   0  0  0  0  0  0
  -25.1319  -36.1465   25.0691 H   0  0  0  0  0  0
  -20.7636  -28.1708   24.2799 H   0  0  0  0  0  0
  -20.4114  -26.1255   23.3783 H   0  0  0  0  0  0
  -21.5716  -26.6635   22.2155 H   0  0  0  0  0  0
  -19.6244  -25.6290   21.0941 H   0  0  0  0  0  0
  -19.6414  -27.3349   20.7035 H   0  0  0  0  0  0
  -17.3591  -26.6760   21.3628 H   0  0  0  0  0  0
  -17.9370  -25.9838   22.8596 H   0  0  0  0  0  0
  -19.7425  -30.6664   24.2822 H   0  0  0  0  0  0
  -17.4642  -31.6266   24.5124 H   0  0  0  0  0  0
  -15.4900  -30.3316   23.7266 H   0  0  0  0  0  0
  -15.7914  -28.1134   22.6639 H   0  0  0  0  0  0
  -24.6239  -30.7395   25.9292 H   0  0  0  0  0  0
  -24.8253  -32.3922   26.4907 H   0  0  0  0  0  0
  -25.7759  -31.0994   27.1912 H   0  0  0  0  0  0
  -26.4107  -29.5576   24.8363 H   0  0  0  0  0  0
  -27.6148  -30.0254   25.9454 H   0  0  0  0  0  0
  -27.9579  -30.3765   24.2916 H   0  0  0  0  0  0
  -27.2154  -33.5503   26.1622 H   0  0  0  0  0  0
  -28.3836  -32.7818   25.1004 H   0  0  0  0  0  0
  -28.0471  -32.1167   26.6944 H   0  0  0  0  0  0
  -28.2477  -37.9921   24.7502 H   0  0  0  0  0  0
  -28.1088  -36.2424   24.6311 H   0  0  0  0  0  0
  -27.2193  -37.1203   25.8830 H   0  0  0  0  0  0
  -20.9433  -29.6492   21.7250 H   0  0  0  0  0  0
  -26.0072  -38.2482   24.1309 H   0  0  0  0  0  0
  -25.9180  -31.0233   20.3909 H   0  0  0  0  0  0
  -24.3763  -31.1443   20.3578 H   0  0  0  0  0  0
  -24.0826  -27.2946   22.0105 H   0  0  0  0  0  0
  -25.2611  -27.9458   22.9914 H   0  0  0  0  0  0
  -26.8150  -30.0339   17.3591 H   0  0  0  0  0  0
  -25.4774  -29.0922   17.0456 H   0  0  0  0  0  0
  -25.7830  -31.4447   18.5323 H   0  0  0  0  0  0
  -27.8096  -28.6675   18.3964 H   0  0  0  0  0  0
  -26.9518  -26.6425   21.8901 H   0  0  0  0  0  0
  -23.3056  -31.5607   18.4087 H   0  0  0  0  0  0
  -23.3430  -29.9413   17.6833 H   0  0  0  0  0  0
  -24.1765  -31.2629   16.9119 H   0  0  0  0  0  0
  -24.5576  -24.6580   18.5559 H   0  0  0  0  0  0
  -24.9959  -23.8570   20.0376 H   0  0  0  0  0  0
  -25.9509  -23.8858   18.6764 H   0  0  0  0  0  0
  -29.6202  -21.6355   22.3894 H   0  0  0  0  0  0
  -30.2437  -20.0011   22.3130 H   0  0  0  0  0  0
  -28.7907  -20.3490   23.2453 H   0  0  0  0  0  0
  -26.2596  -21.9808   21.4747 H   0  0  0  0  0  0
  -26.9672  -22.3954   20.0116 H   0  0  0  0  0  0
  -27.8104  -24.4680   18.4608 H   0  0  0  0  0  0
  -28.2056  -24.1568   19.9317 H   0  0  0  0  0  0
  -25.0161  -25.6766   19.9139 H   0  0  0  0  0  0
  -29.1039  -20.6280   20.2516 H   0  0  0  0  0  0
  -29.8061  -18.5242   20.6219 H   0  0  0  0  0  0
  -26.1183  -24.2558   22.3130 H   0  0  0  0  0  0
  -27.6478  -24.5743   22.1579 H   0  0  0  0  0  0
  1 25  1  0  0  0
  1 30  2  0  0  0
  1 84  1  0  0  0
  2  3  1  0  0  0
  2 25  1  0  0  0
  2 86  1  0  0  0
  2 87  1  0  0  0
  3  4  1  0  0  0
  3 88  1  0  0  0
  3 89  1  0  0  0
  4  5  1  0  0  0
  4 90  1  0  0  0
  4 91  1  0  0  0
  5  6  1  0  0  0
  5 26  1  0  0  0
  5 92  1  0  0  0
  6 25  1  0  0  0
  6 93  1  0  0  0
  6 94  1  0  0  0
  7  8  2  0  0  0
  7 26  1  0  0  0
  7 29  1  0  0  0
  8  9  1  0  0  0
  8 22  1  0  0  0
  9 10  1  0  0  0
  9 27  2  0  0  0
 10 11  2  0  0  0
 10 15  1  0  0  0
 11 12  1  0  0  0
 11 95  1  0  0  0
 12 13  2  0  0  0
 12 96  1  0  0  0
 13 14  1  0  0  0
 13 31  1  0  0  0
 14 15  2  0  0  0
 14 97  1  0  0  0
 15 98  1  0  0  0
 16 17  2  0  0  0
 16 21  1  0  0  0
 16 31  1  0  0  0
 17 18  1  0  0  0
 17 99  1  0  0  0
 18 19  2  0  0  0
 18100  1  0  0  0
 19 20  1  0  0  0
 19 24  1  0  0  0
 20 21  2  0  0  0
 20101  1  0  0  0
 21 23  1  0  0  0
 22 28  1  0  0  0
 22 32  2  0  0  0
 26 27  1  0  0  0
 28102  1  0  0  0
 28103  1  0  0  0
 29104  1  0  0  0
 29105  1  0  0  0
 33 34  1  0  0  0
 33 66  1  0  0  0
 33 70  2  0  0  0
 34 36  1  0  0  0
 34 59  1  0  0  0
 34106  1  0  0  0
 35 44  2  0  0  0
 35 45  1  0  0  0
 35 68  1  0  0  0
 36 56  1  0  0  0
 36107  1  0  0  0
 37 39  1  0  0  0
 37 47  1  0  0  0
 37 66  1  0  0  0
 37108  1  0  0  0
 38 43  2  0  0  0
 38 46  1  0  0  0
 38 47  1  0  0  0
 39 64  1  0  0  0
 39 67  2  0  0  0
 40 52  1  0  0  0
 40 53  2  0  0  0
 40 58  1  0  0  0
 41109  1  0  0  0
 41110  1  0  0  0
 41111  1  0  0  0
 41 48  1  0  0  0
 42 43  1  0  0  0
 42 66  1  0  0  0
 42112  1  0  0  0
 42113  1  0  0  0
 43 44  1  0  0  0
 44114  1  0  0  0
 45 46  2  0  0  0
 45115  1  0  0  0
 46116  1  0  0  0
 47117  1  0  0  0
 47118  1  0  0  0
 48 56  1  0  0  0
 48 65  1  0  0  0
 48119  1  0  0  0
 49 50  1  0  0  0
 49 53  1  0  0  0
 49 64  1  0  0  0
 49120  1  0  0  0
 50 51  1  0  0  0
 50121  1  0  0  0
 50122  1  0  0  0
 51 52  1  0  0  0
 51123  1  0  0  0
 51124  1  0  0  0
 52125  1  0  0  0
 52126  1  0  0  0
 53 54  1  0  0  0
 54 55  2  0  0  0
 54127  1  0  0  0
 55 57  1  0  0  0
 55128  1  0  0  0
 56 69  2  0  0  0
 57 58  2  0  0  0
 57129  1  0  0  0
 58130  1  0  0  0
 59 60  1  0  0  0
 59 61  1  0  0  0
 59 62  1  0  0  0
 60131  1  0  0  0
 60132  1  0  0  0
 60133  1  0  0  0
 61134  1  0  0  0
 61135  1  0  0  0
 61136  1  0  0  0
 62137  1  0  0  0
 62138  1  0  0  0
 62139  1  0  0  0
 63 65  1  0  0  0
 63140  1  0  0  0
 63141  1  0  0  0
 63142  1  0  0  0
 64143  1  0  0  0
 65144  1  0  0  0
 68 81  1  0  0  0
 71 72  1  0  0  0
 71 74  1  0  0  0
 71145  1  0  0  0
 71146  1  0  0  0
 72 76  1  0  0  0
 72147  1  0  0  0
 72148  1  0  0  0
 73 74  1  0  0  0
 73149  1  0  0  0
 73150  1  0  0  0
 73 75  1  0  0  0
 74 77  1  0  0  0
 74151  1  0  0  0
 75 76  1  0  0  0
 75 82  1  0  0  0
 75152  1  0  0  0
 76 85  1  0  0  0
 76153  1  0  0  0
 77154  1  0  0  0
 77155  1  0  0  0
 77156  1  0  0  0
 78157  1  0  0  0
 78158  1  0  0  0
 78159  1  0  0  0
 78 82  1  0  0  0
 79160  1  0  0  0
 79161  1  0  0  0
 79162  1  0  0  0
 79 83  1  0  0  0
 80 83  1  0  0  0
 80 85  1  0  0  0
 80163  1  0  0  0
 80164  1  0  0  0
 81 82  1  0  0  0
 81165  1  0  0  0
 81166  1  0  0  0
 82167  1  0  0  0
 83 84  1  0  0  0
 83168  1  0  0  0
 84169  1  0  0  0
 85170  1  0  0  0
 85171  1  0  0  0
M  CHG  1  85   1
M  ISO  4   1 100  68 101  81 101  84 100
M  END
> <chiral flag>
0

> <version>
0

> <s_m_source_file>
/data/baiqing/PycharmProjects/Reinvent-master-3.2/result/LINK_invent/BTK/process_docking_weight1_custom_sum_contain_oxygen_bond_distance_aromatic_linkinvent_7_9_3/rearranged_h_0135.sdf

> <i_m_source_file_index>
78

> <r_mmod_Potential_Energy-OPLS-2005>
26348.533203125

> <r_mmod_Stretch_Energy-OPLS-2005>
14708.1845703125

> <r_mmod_Bend_Energy-OPLS-2005>
2834.95581054688

> <r_mmod_Torsional_Energy-OPLS-2005>
442.183868408203

> <r_mmod_Improper_Torsional_Energy-OPLS-2005>
18.0796737670898

> <r_mmod_Van_der_Waal_Energy-OPLS-2005>
5277.9453125

> <r_mmod_Electrostatic_Energy-OPLS-2005>
-315.265960693359

> <r_mmod_Solvation_Energy-OPLS-2005>
-428.877471923828

> <b_mmod_Minimization_Converged-OPLS-2005>
0

> <r_mmod_RMS_Derivative-OPLS-2005>
6.4488263130188

$$$$
78
                    3D
 Structure written by MMmdl.
157165  0  0  1  0            999 V2000
  -30.6344  -14.6925   20.5046 C   0  0  0  0  0  0
  -30.4300  -12.4275   19.4748 C   0  0  0  0  0  0
  -29.5084  -12.5130   18.2396 C   0  0  0  0  0  0
  -28.0363  -12.3320   18.6539 C   0  0  0  0  0  0
  -27.6453  -13.2278   19.8586 C   0  0  2  0  0  0
  -28.6856  -13.1475   20.9969 C   0  0  0  0  0  0
  -25.2523  -13.8184   20.5674 C   0  0  0  0  0  0
  -24.1805  -13.0427   20.9185 C   0  0  0  0  0  0
  -24.6398  -11.6913   20.8723 C   0  0  0  0  0  0
  -23.9079  -10.4277   21.0389 C   0  0  0  0  0  0
  -24.3630   -9.4191   21.9166 C   0  0  0  0  0  0
  -23.6299   -8.2245   22.0757 C   0  0  0  0  0  0
  -22.4284   -8.0284   21.3558 C   0  0  0  0  0  0
  -21.9919   -9.0244   20.4664 C   0  0  0  0  0  0
  -22.7248  -10.2126   20.3054 C   0  0  0  0  0  0
  -21.6863   -6.0725   22.5273 C   0  0  0  0  0  0
  -21.4017   -6.5639   23.8203 C   0  0  0  0  0  0
  -21.3658   -5.6793   24.9162 C   0  0  0  0  0  0
  -21.6061   -4.3060   24.7218 C   0  0  0  0  0  0
  -21.8816   -3.8144   23.4344 C   0  0  0  0  0  0
  -21.9201   -4.6951   22.3392 C   0  0  0  0  0  0
  -22.7847  -13.5208   21.1860 C   0  0  0  0  0  0
  -22.1666   -4.2144   21.0962 F   0  0  0  0  0  0
  -21.5629   -3.4544   25.7726 F   0  0  0  0  0  0
  -29.9960  -13.4775   20.4246 N   0  0  0  0  0  0
  -26.2955  -12.9390   20.3308 N   0  0  0  0  0  0
  -25.9335  -11.6548   20.5774 N   0  0  0  0  0  0
  -22.0531  -12.8170   22.0438 N   0  0  0  0  0  0
  -25.4199  -15.1914   20.4077 N   0  0  0  0  0  0
  -31.8087  -14.8019   20.1464 O   0  0  0  0  0  0
  -21.6662   -6.8882   21.4249 O   0  0  0  0  0  0
  -22.3524  -14.5504   20.6714 O   0  0  0  0  0  0
  -24.6328  -31.8594   23.1954 C   0  0  0  0  0  0
  -25.9165  -32.4759   23.8319 C   0  0  1  0  0  0
  -27.2527  -27.3017   20.1037 C   0  0  0  0  0  0
  -25.5983  -33.8564   24.2242 N   0  0  0  0  0  0
  -23.4259  -30.4786   21.5399 C   0  0  2  0  0  0
  -24.8743  -28.9189   20.1177 C   0  0  0  0  0  0
  -22.7474  -29.4627   22.4918 C   0  0  0  0  0  0
  -18.0282  -28.1367   22.8508 C   0  0  0  0  0  0
  -24.1461  -36.7257   23.2626 C   0  0  0  0  0  0
  -25.9702  -30.7785   21.3680 C   0  0  0  0  0  0
  -26.0462  -29.4078   20.7084 C   0  0  0  0  0  0
  -27.2356  -28.6130   20.6831 C   0  0  0  0  0  0
  -26.0439  -26.8570   19.5200 C   0  0  0  0  0  0
  -24.8747  -27.6459   19.5230 C   0  0  0  0  0  0
  -23.6444  -29.8050   20.1597 C   0  0  0  0  0  0
  -25.4106  -36.3080   24.0313 C   0  0  1  0  0  0
  -20.5888  -28.3706   23.1261 C   0  0  2  0  0  0
  -20.6772  -26.9432   22.5378 C   0  0  0  0  0  0
  -19.5764  -26.6391   21.5175 C   0  0  0  0  0  0
  -18.1935  -26.7917   22.1602 C   0  0  0  0  0  0
  -19.1540  -28.8857   23.2890 C   0  0  0  0  0  0
  -18.9464  -30.1450   23.8890 C   0  0  0  0  0  0
  -17.6474  -30.6598   24.0565 C   0  0  0  0  0  0
  -25.9065  -34.9452   23.5058 C   0  0  0  0  0  0
  -16.5362  -29.9088   23.6347 C   0  0  0  0  0  0
  -16.7269  -28.6504   23.0381 C   0  0  0  0  0  0
  -26.4535  -31.6642   25.0745 C   0  0  0  0  0  0
  -25.3727  -31.3815   26.1459 C   0  0  0  0  0  0
  -27.0387  -30.3044   24.6295 C   0  0  0  0  0  0
  -27.6113  -32.4390   25.7497 C   0  0  0  0  0  0
  -27.5572  -37.1748   24.8448 C   0  0  0  0  0  0
  -21.4198  -29.3063   22.3655 N   0  0  0  0  0  0
  -26.4242  -37.3810   23.9480 N   0  0  0  0  0  0
  -24.6943  -31.0563   22.0923 N   0  0  0  0  0  0
  -23.4152  -28.8174   23.3053 O   0  0  0  0  0  0
  -28.3894  -26.4668   20.1835 O   0  0  0  0  0  0
  -26.5585  -34.8920   22.4593 O   0  0  0  0  0  0
  -23.5483  -32.1403   23.7279 O   0  0  0  0  0  0
  -27.6492  -22.8868   19.2546 C   0  0  0  0  0  0
  -27.7779  -21.4755   19.3910 C   0  0  0  0  0  0
  -28.5986  -23.7807   19.8173 C   0  0  0  0  0  0
  -29.5951  -23.1183   20.6131 C   0  0  0  0  0  0
  -28.8587  -20.9065   20.0978 C   0  0  0  0  0  0
  -30.6635  -23.8866   21.3725 C   0  0  0  0  0  0
  -29.9177  -25.5852   18.5340 C   0  0  0  0  0  0
  -29.3189  -18.4680   21.0305 C   0  0  0  0  0  0
  -30.3373  -17.2572   20.7266 C   0  0  0  0  0  0
  -28.6124  -25.2945   19.2985 C   0  0  2  0  0  0
  -29.7146  -21.7467   20.7366 N   0  0  0  0  0  0
  -29.1504  -19.5064   19.9601 N   0  0  0  0  0  0
  -29.8837  -15.8113   20.8075 N   0  0  0  0  0  0
  -31.4739  -12.5410   19.1770 H   0  0  0  0  0  0
  -30.3574  -11.4448   19.9431 H   0  0  0  0  0  0
  -29.7876  -11.7571   17.5045 H   0  0  0  0  0  0
  -29.6388  -13.4801   17.7493 H   0  0  0  0  0  0
  -27.8957  -11.2807   18.9108 H   0  0  0  0  0  0
  -27.3785  -12.5234   17.8051 H   0  0  0  0  0  0
  -27.6472  -14.2507   19.4817 H   0  0  0  0  0  0
  -28.7078  -12.1528   21.4437 H   0  0  0  0  0  0
  -28.4247  -13.8358   21.8031 H   0  0  0  0  0  0
  -25.2784   -9.5667   22.4725 H   0  0  0  0  0  0
  -24.0009   -7.4642   22.7464 H   0  0  0  0  0  0
  -21.0871   -8.8759   19.8964 H   0  0  0  0  0  0
  -22.3701  -10.9654   19.6162 H   0  0  0  0  0  0
  -21.1999   -7.6152   23.9696 H   0  0  0  0  0  0
  -21.1496   -6.0533   25.9065 H   0  0  0  0  0  0
  -22.0597   -2.7613   23.2847 H   0  0  0  0  0  0
  -22.4200  -11.9812   22.4743 H   0  0  0  0  0  0
  -21.1168  -13.1173   22.2704 H   0  0  0  0  0  0
  -24.6423  -15.8379   20.4921 H   0  0  0  0  0  0
  -26.2625  -15.6304   20.0581 H   0  0  0  0  0  0
  -26.7233  -32.5422   23.1065 H   0  0  0  0  0  0
  -25.0302  -33.9727   25.0500 H   0  0  0  0  0  0
  -22.7255  -31.3037   21.3907 H   0  0  0  0  0  0
  -23.3767  -35.9524   23.3234 H   0  0  0  0  0  0
  -24.3553  -36.8946   22.2049 H   0  0  0  0  0  0
  -23.7129  -37.6399   23.6690 H   0  0  0  0  0  0
  -26.1063  -31.5364   20.5961 H   0  0  0  0  0  0
  -26.8487  -30.8266   22.0016 H   0  0  0  0  0  0
  -28.1456  -28.9950   21.1263 H   0  0  0  0  0  0
  -25.9626  -25.8654   19.0978 H   0  0  0  0  0  0
  -23.9688  -27.2448   19.0925 H   0  0  0  0  0  0
  -23.7776  -30.5792   19.4036 H   0  0  0  0  0  0
  -22.7585  -29.2440   19.8515 H   0  0  0  0  0  0
  -25.1242  -36.1884   25.0781 H   0  0  0  0  0  0
  -21.0000  -28.3294   24.1382 H   0  0  0  0  0  0
  -20.5656  -26.2330   23.3595 H   0  0  0  0  0  0
  -21.6647  -26.7443   22.1178 H   0  0  0  0  0  0
  -19.6925  -25.6284   21.1255 H   0  0  0  0  0  0
  -19.6680  -27.3153   20.6661 H   0  0  0  0  0  0
  -17.4203  -26.6690   21.4009 H   0  0  0  0  0  0
  -18.0350  -26.0019   22.8957 H   0  0  0  0  0  0
  -19.7948  -30.7299   24.2244 H   0  0  0  0  0  0
  -17.5033  -31.6290   24.5140 H   0  0  0  0  0  0
  -15.5369  -30.3002   23.7692 H   0  0  0  0  0  0
  -15.8664  -28.0832   22.7094 H   0  0  0  0  0  0
  -24.5901  -30.7160   25.7821 H   0  0  0  0  0  0
  -24.8903  -32.2983   26.4866 H   0  0  0  0  0  0
  -25.8006  -30.9024   27.0269 H   0  0  0  0  0  0
  -26.2964  -29.6808   24.1305 H   0  0  0  0  0  0
  -27.4024  -29.7365   25.4880 H   0  0  0  0  0  0
  -27.8878  -30.4337   23.9584 H   0  0  0  0  0  0
  -27.2756  -33.3745   26.2004 H   0  0  0  0  0  0
  -28.3959  -32.6876   25.0329 H   0  0  0  0  0  0
  -28.0735  -31.8556   26.5485 H   0  0  0  0  0  0
  -28.2513  -38.0118   24.7655 H   0  0  0  0  0  0
  -28.1133  -36.2660   24.6063 H   0  0  0  0  0  0
  -27.2330  -37.1157   25.8848 H   0  0  0  0  0  0
  -20.9387  -29.8791   21.6868 H   0  0  0  0  0  0
  -26.0110  -38.2841   24.1624 H   0  0  0  0  0  0
  -26.8535  -23.2760   18.6333 H   0  0  0  0  0  0
  -27.0642  -20.8424   18.8787 H   0  0  0  0  0  0
  -31.5374  -24.0758   20.7493 H   0  0  0  0  0  0
  -31.0002  -23.3100   22.2364 H   0  0  0  0  0  0
  -30.2891  -24.8400   21.7466 H   0  0  0  0  0  0
  -30.0970  -24.8355   17.7600 H   0  0  0  0  0  0
  -30.7847  -25.5889   19.1910 H   0  0  0  0  0  0
  -29.8910  -26.5587   18.0403 H   0  0  0  0  0  0
  -29.6226  -18.9755   21.9473 H   0  0  0  0  0  0
  -28.3349  -18.0543   21.2581 H   0  0  0  0  0  0
  -31.1364  -17.3416   21.4644 H   0  0  0  0  0  0
  -30.8392  -17.4181   19.7732 H   0  0  0  0  0  0
  -27.8754  -25.3298   18.5007 H   0  0  0  0  0  0
  -28.6063  -19.1129   19.1998 H   0  0  0  0  0  0
  -28.9232  -15.6424   21.0641 H   0  0  0  0  0  0
  1 25  1  0  0  0
  1 30  2  0  0  0
  1 83  1  0  0  0
  2  3  1  0  0  0
  2 25  1  0  0  0
  2 84  1  0  0  0
  2 85  1  0  0  0
  3  4  1  0  0  0
  3 86  1  0  0  0
  3 87  1  0  0  0
  4  5  1  0  0  0
  4 88  1  0  0  0
  4 89  1  0  0  0
  5  6  1  0  0  0
  5 26  1  0  0  0
  5 90  1  0  0  0
  6 25  1  0  0  0
  6 91  1  0  0  0
  6 92  1  0  0  0
  7  8  2  0  0  0
  7 26  1  0  0  0
  7 29  1  0  0  0
  8  9  1  0  0  0
  8 22  1  0  0  0
  9 10  1  0  0  0
  9 27  2  0  0  0
 10 11  2  0  0  0
 10 15  1  0  0  0
 11 12  1  0  0  0
 11 93  1  0  0  0
 12 13  2  0  0  0
 12 94  1  0  0  0
 13 14  1  0  0  0
 13 31  1  0  0  0
 14 15  2  0  0  0
 14 95  1  0  0  0
 15 96  1  0  0  0
 16 17  2  0  0  0
 16 21  1  0  0  0
 16 31  1  0  0  0
 17 18  1  0  0  0
 17 97  1  0  0  0
 18 19  2  0  0  0
 18 98  1  0  0  0
 19 20  1  0  0  0
 19 24  1  0  0  0
 20 21  2  0  0  0
 20 99  1  0  0  0
 21 23  1  0  0  0
 22 28  1  0  0  0
 22 32  2  0  0  0
 26 27  1  0  0  0
 28100  1  0  0  0
 28101  1  0  0  0
 29102  1  0  0  0
 29103  1  0  0  0
 33 34  1  0  0  0
 33 66  1  0  0  0
 33 70  2  0  0  0
 34 36  1  0  0  0
 34 59  1  0  0  0
 34104  1  0  0  0
 35 44  2  0  0  0
 35 45  1  0  0  0
 35 68  1  0  0  0
 36 56  1  0  0  0
 36105  1  0  0  0
 37 39  1  0  0  0
 37 47  1  0  0  0
 37 66  1  0  0  0
 37106  1  0  0  0
 38 43  2  0  0  0
 38 46  1  0  0  0
 38 47  1  0  0  0
 39 64  1  0  0  0
 39 67  2  0  0  0
 40 52  1  0  0  0
 40 53  2  0  0  0
 40 58  1  0  0  0
 41107  1  0  0  0
 41108  1  0  0  0
 41109  1  0  0  0
 41 48  1  0  0  0
 42 43  1  0  0  0
 42 66  1  0  0  0
 42110  1  0  0  0
 42111  1  0  0  0
 43 44  1  0  0  0
 44112  1  0  0  0
 45 46  2  0  0  0
 45113  1  0  0  0
 46114  1  0  0  0
 47115  1  0  0  0
 47116  1  0  0  0
 48 56  1  0  0  0
 48 65  1  0  0  0
 48117  1  0  0  0
 49 50  1  0  0  0
 49 53  1  0  0  0
 49 64  1  0  0  0
 49118  1  0  0  0
 50 51  1  0  0  0
 50119  1  0  0  0
 50120  1  0  0  0
 51 52  1  0  0  0
 51121  1  0  0  0
 51122  1  0  0  0
 52123  1  0  0  0
 52124  1  0  0  0
 53 54  1  0  0  0
 54 55  2  0  0  0
 54125  1  0  0  0
 55 57  1  0  0  0
 55126  1  0  0  0
 56 69  2  0  0  0
 57 58  2  0  0  0
 57127  1  0  0  0
 58128  1  0  0  0
 59 60  1  0  0  0
 59 61  1  0  0  0
 59 62  1  0  0  0
 60129  1  0  0  0
 60130  1  0  0  0
 60131  1  0  0  0
 61132  1  0  0  0
 61133  1  0  0  0
 61134  1  0  0  0
 62135  1  0  0  0
 62136  1  0  0  0
 62137  1  0  0  0
 63 65  1  0  0  0
 63138  1  0  0  0
 63139  1  0  0  0
 63140  1  0  0  0
 64141  1  0  0  0
 65142  1  0  0  0
 68 80  1  0  0  0
 71 72  2  0  0  0
 71 73  1  0  0  0
 71143  1  0  0  0
 72 75  1  0  0  0
 72144  1  0  0  0
 73 74  2  0  0  0
 73 80  1  0  0  0
 74 76  1  0  0  0
 74 81  1  0  0  0
 75 81  2  0  0  0
 75 82  1  0  0  0
 76145  1  0  0  0
 76146  1  0  0  0
 76147  1  0  0  0
 77148  1  0  0  0
 77149  1  0  0  0
 77150  1  0  0  0
 77 80  1  0  0  0
 78 79  1  0  0  0
 78 82  1  0  0  0
 78151  1  0  0  0
 78152  1  0  0  0
 79 83  1  0  0  0
 79153  1  0  0  0
 79154  1  0  0  0
 80155  1  0  0  0
 82156  1  0  0  0
 83157  1  0  0  0
M  ISO  4   1 100  68 101  80 101  83 100
M  END
> <chiral flag>
0

> <version>
0

> <s_m_source_file>
/data/baiqing/PycharmProjects/Reinvent-master-3.2/result/LINK_invent/BTK/process_docking_weight1_custom_sum_contain_oxygen_bond_distance_aromatic_linkinvent_7_9_3/rearranged_h_0135.sdf

> <i_m_source_file_index>
79

> <r_mmod_Potential_Energy-OPLS-2005>
-134.225616455078

> <r_mmod_Stretch_Energy-OPLS-2005>
96.2981719970703

> <r_mmod_Bend_Energy-OPLS-2005>
180.615829467773

> <r_mmod_Torsional_Energy-OPLS-2005>
242.533248901367

> <r_mmod_Improper_Torsional_Energy-OPLS-2005>
10.8819952011108

> <r_mmod_Van_der_Waal_Energy-OPLS-2005>
139.249481201172

> <r_mmod_Electrostatic_Energy-OPLS-2005>
-620.600891113281

> <r_mmod_Solvation_Energy-OPLS-2005>
-246.357620239258

> <b_mmod_Minimization_Converged-OPLS-2005>
0

> <r_mmod_RMS_Derivative-OPLS-2005>
5.71352386474609

$$$$
79
                    3D
 Structure written by MMmdl.
162170  0  0  1  0            999 V2000
  -30.4648  -15.1319   20.3996 C   0  0  0  0  0  0
  -30.4452  -12.7122   19.5280 C   0  0  0  0  0  0
  -29.5360  -12.5686   18.2823 C   0  0  0  0  0  0
  -28.0733  -12.3241   18.6954 C   0  0  0  0  0  0
  -27.6249  -13.2655   19.8419 C   0  0  2  0  0  0
  -28.6622  -13.3575   20.9816 C   0  0  0  0  0  0
  -25.2428  -13.8245   20.5709 C   0  0  0  0  0  0
  -24.1765  -13.0445   20.9224 C   0  0  0  0  0  0
  -24.6411  -11.6935   20.8762 C   0  0  0  0  0  0
  -23.9100  -10.4298   21.0407 C   0  0  0  0  0  0
  -24.3639   -9.4207   21.9187 C   0  0  0  0  0  0
  -23.6301   -8.2250   22.0767 C   0  0  0  0  0  0
  -22.4282   -8.0293   21.3552 C   0  0  0  0  0  0
  -21.9924   -9.0268   20.4656 C   0  0  0  0  0  0
  -22.7266  -10.2141   20.3061 C   0  0  0  0  0  0
  -21.6857   -6.0739   22.5276 C   0  0  0  0  0  0
  -21.4010   -6.5642   23.8210 C   0  0  0  0  0  0
  -21.3658   -5.6792   24.9173 C   0  0  0  0  0  0
  -21.6044   -4.3057   24.7222 C   0  0  0  0  0  0
  -21.8822   -3.8149   23.4340 C   0  0  0  0  0  0
  -21.9190   -4.6965   22.3396 C   0  0  0  0  0  0
  -22.7782  -13.5206   21.1863 C   0  0  0  0  0  0
  -22.1660   -4.2152   21.0969 F   0  0  0  0  0  0
  -21.5629   -3.4538   25.7735 F   0  0  0  0  0  0
  -29.9156  -13.8319   20.3786 N   0  0  0  0  0  0
  -26.2871  -12.9502   20.3267 N   0  0  0  0  0  0
  -25.9350  -11.6618   20.5758 N   0  0  0  0  0  0
  -22.0433  -12.8206   22.0431 N   0  0  0  0  0  0
  -25.4066  -15.1978   20.4098 N   0  0  0  0  0  0
  -31.6657  -15.1870   20.1003 O   0  0  0  0  0  0
  -21.6645   -6.8888   21.4241 O   0  0  0  0  0  0
  -22.3463  -14.5504   20.6699 O   0  0  0  0  0  0
  -24.6538  -31.8302   23.1731 C   0  0  0  0  0  0
  -25.9252  -32.4611   23.8188 C   0  0  1  0  0  0
  -27.2144  -26.9919   20.1865 C   0  0  0  0  0  0
  -25.5961  -33.8428   24.2115 N   0  0  0  0  0  0
  -23.4658  -30.4391   21.5210 C   0  0  2  0  0  0
  -24.9172  -28.8340   20.1095 C   0  0  0  0  0  0
  -22.7627  -29.4441   22.4799 C   0  0  0  0  0  0
  -18.0315  -28.1376   22.8464 C   0  0  0  0  0  0
  -24.1479  -36.7197   23.2648 C   0  0  0  0  0  0
  -26.0289  -30.6544   21.3974 C   0  0  0  0  0  0
  -26.0945  -29.2511   20.7406 C   0  0  0  0  0  0
  -27.2361  -28.3472   20.7585 C   0  0  0  0  0  0
  -26.0132  -26.7020   19.5054 C   0  0  0  0  0  0
  -24.8961  -27.5779   19.4760 C   0  0  0  0  0  0
  -23.7009  -29.7552   20.1453 C   0  0  0  0  0  0
  -25.4122  -36.2978   24.0312 C   0  0  1  0  0  0
  -20.5929  -28.3711   23.1183 C   0  0  2  0  0  0
  -20.6796  -26.9403   22.5389 C   0  0  0  0  0  0
  -19.5772  -26.6361   21.5193 C   0  0  0  0  0  0
  -18.1947  -26.7912   22.1602 C   0  0  0  0  0  0
  -19.1578  -28.8862   23.2803 C   0  0  0  0  0  0
  -18.9501  -30.1456   23.8842 C   0  0  0  0  0  0
  -17.6495  -30.6572   24.0535 C   0  0  0  0  0  0
  -25.9088  -34.9360   23.5038 C   0  0  0  0  0  0
  -16.5381  -29.9067   23.6332 C   0  0  0  0  0  0
  -16.7296  -28.6477   23.0376 C   0  0  0  0  0  0
  -26.4536  -31.6552   25.0709 C   0  0  0  0  0  0
  -25.3673  -31.3802   26.1376 C   0  0  0  0  0  0
  -27.0450  -30.2927   24.6426 C   0  0  0  0  0  0
  -27.6028  -32.4375   25.7511 C   0  0  0  0  0  0
  -27.5573  -37.1743   24.8472 C   0  0  0  0  0  0
  -21.4305  -29.3016   22.3548 N   0  0  0  0  0  0
  -26.4267  -37.3713   23.9429 N   0  0  0  0  0  0
  -24.7362  -31.0018   22.0834 N   0  0  0  0  0  0
  -23.4202  -28.8025   23.3028 O   0  0  0  0  0  0
  -28.2578  -25.9632   20.3279 O   0  0  0  0  0  0
  -26.5692  -34.8884   22.4627 O   0  0  0  0  0  0
  -23.5613  -32.1265   23.6843 O   0  0  0  0  0  0
  -28.4223  -18.7172   19.6989 C   0  0  0  0  0  0
  -30.0262  -19.0629   21.4155 C   0  0  0  0  0  0
  -28.3463  -20.3505   19.4038 C   0  0  0  0  0  0
  -29.9810  -20.7020   21.1157 C   0  0  0  0  0  0
  -29.7401  -17.9602   20.2633 C   0  0  1  0  0  0
  -27.0268  -24.2217   22.7051 C   0  0  0  0  0  0
  -27.4230  -21.8026   23.0598 C   0  0  0  0  0  0
  -28.3468  -24.3840   19.9395 C   0  0  0  0  0  0
  -27.9629  -23.0568   22.3272 C   0  0  0  0  0  0
  -28.1088  -22.8493   20.7823 C   0  0  2  0  0  0
  -29.6608  -16.3405   20.5602 N   0  0  0  0  0  0
  -28.6946  -21.3109   20.5412 N   0  3  1  0  0  0
  -31.4718  -12.8978   19.2102 H   0  0  0  0  0  0
  -30.4808  -11.7790   20.0921 H   0  0  0  0  0  0
  -29.8887  -11.7601   17.6401 H   0  0  0  0  0  0
  -29.5971  -13.4807   17.6879 H   0  0  0  0  0  0
  -27.9872  -11.2849   19.0143 H   0  0  0  0  0  0
  -27.4128  -12.4327   17.8347 H   0  0  0  0  0  0
  -27.5676  -14.2559   19.3900 H   0  0  0  0  0  0
  -28.7945  -12.3945   21.4760 H   0  0  0  0  0  0
  -28.3292  -14.0551   21.7509 H   0  0  0  0  0  0
  -25.2783   -9.5680   22.4767 H   0  0  0  0  0  0
  -24.0000   -7.4646   22.7501 H   0  0  0  0  0  0
  -21.0850   -8.8796   19.8967 H   0  0  0  0  0  0
  -22.3724  -10.9683   19.6177 H   0  0  0  0  0  0
  -21.2005   -7.6151   23.9713 H   0  0  0  0  0  0
  -21.1476   -6.0523   25.9075 H   0  0  0  0  0  0
  -22.0601   -2.7613   23.2839 H   0  0  0  0  0  0
  -22.4047  -11.9865   22.4807 H   0  0  0  0  0  0
  -21.1067  -13.1263   22.2668 H   0  0  0  0  0  0
  -24.6271  -15.8412   20.4953 H   0  0  0  0  0  0
  -26.2395  -15.6342   20.0371 H   0  0  0  0  0  0
  -26.7322  -32.5161   23.0901 H   0  0  0  0  0  0
  -25.0081  -33.9530   25.0247 H   0  0  0  0  0  0
  -22.7734  -31.2668   21.3530 H   0  0  0  0  0  0
  -23.3763  -35.9506   23.3293 H   0  0  0  0  0  0
  -24.3551  -36.8858   22.2067 H   0  0  0  0  0  0
  -23.7210  -37.6366   23.6717 H   0  0  0  0  0  0
  -26.2103  -31.4012   20.6232 H   0  0  0  0  0  0
  -26.8871  -30.7015   22.0564 H   0  0  0  0  0  0
  -28.1268  -28.6590   21.2851 H   0  0  0  0  0  0
  -25.9047  -25.7374   19.0299 H   0  0  0  0  0  0
  -23.9948  -27.2507   18.9749 H   0  0  0  0  0  0
  -23.8473  -30.5251   19.3864 H   0  0  0  0  0  0
  -22.8155  -29.2003   19.8319 H   0  0  0  0  0  0
  -25.1306  -36.1777   25.0799 H   0  0  0  0  0  0
  -21.0006  -28.3318   24.1308 H   0  0  0  0  0  0
  -20.5651  -26.2352   23.3638 H   0  0  0  0  0  0
  -21.6671  -26.7367   22.1221 H   0  0  0  0  0  0
  -19.6942  -25.6261   21.1270 H   0  0  0  0  0  0
  -19.6716  -27.3134   20.6690 H   0  0  0  0  0  0
  -17.4229  -26.6645   21.3993 H   0  0  0  0  0  0
  -18.0321  -26.0048   22.8996 H   0  0  0  0  0  0
  -19.7991  -30.7258   24.2206 H   0  0  0  0  0  0
  -17.5063  -31.6256   24.5139 H   0  0  0  0  0  0
  -15.5378  -30.2954   23.7683 H   0  0  0  0  0  0
  -15.8703  -28.0757   22.7153 H   0  0  0  0  0  0
  -24.5826  -30.7194   25.7680 H   0  0  0  0  0  0
  -24.8886  -32.3010   26.4711 H   0  0  0  0  0  0
  -25.7871  -30.9012   27.0231 H   0  0  0  0  0  0
  -26.3129  -29.6593   24.1400 H   0  0  0  0  0  0
  -27.3979  -29.7283   25.5068 H   0  0  0  0  0  0
  -27.9063  -30.4133   23.9852 H   0  0  0  0  0  0
  -27.2582  -33.3704   26.1988 H   0  0  0  0  0  0
  -28.3868  -32.6906   25.0367 H   0  0  0  0  0  0
  -28.0679  -31.8596   26.5510 H   0  0  0  0  0  0
  -28.2548  -38.0077   24.7544 H   0  0  0  0  0  0
  -28.1103  -36.2600   24.6256 H   0  0  0  0  0  0
  -27.2301  -37.1336   25.8877 H   0  0  0  0  0  0
  -20.9554  -29.8726   21.6707 H   0  0  0  0  0  0
  -26.0119  -38.2769   24.1454 H   0  0  0  0  0  0
  -28.1406  -18.2126   18.7747 H   0  0  0  0  0  0
  -27.6045  -18.4884   20.3839 H   0  0  0  0  0  0
  -29.3338  -18.8687   22.2362 H   0  0  0  0  0  0
  -31.0088  -18.8395   21.8329 H   0  0  0  0  0  0
  -27.3412  -20.5884   19.0552 H   0  0  0  0  0  0
  -29.0060  -20.5848   18.5662 H   0  0  0  0  0  0
  -30.7917  -20.9513   20.4297 H   0  0  0  0  0  0
  -30.2225  -21.2289   22.0398 H   0  0  0  0  0  0
  -30.5254  -18.0684   19.5133 H   0  0  0  0  0  0
  -26.8534  -24.2565   23.7810 H   0  0  0  0  0  0
  -26.0493  -24.1269   22.2311 H   0  0  0  0  0  0
  -27.4404  -25.1923   22.4462 H   0  0  0  0  0  0
  -28.1357  -20.9813   23.0987 H   0  0  0  0  0  0
  -26.4974  -21.4347   22.6112 H   0  0  0  0  0  0
  -27.2010  -22.0250   24.1042 H   0  0  0  0  0  0
  -27.8041  -24.2938   18.9996 H   0  0  0  0  0  0
  -29.3902  -24.3197   19.6352 H   0  0  0  0  0  0
  -28.9487  -23.2823   22.7383 H   0  0  0  0  0  0
  -27.0771  -22.6583   20.4839 H   0  0  0  0  0  0
  -28.7290  -16.0733   20.8435 H   0  0  0  0  0  0
  -28.0610  -20.9305   21.2300 H   0  0  0  0  0  0
  1 25  1  0  0  0
  1 30  2  0  0  0
  1 81  1  0  0  0
  2  3  1  0  0  0
  2 25  1  0  0  0
  2 83  1  0  0  0
  2 84  1  0  0  0
  3  4  1  0  0  0
  3 85  1  0  0  0
  3 86  1  0  0  0
  4  5  1  0  0  0
  4 87  1  0  0  0
  4 88  1  0  0  0
  5  6  1  0  0  0
  5 26  1  0  0  0
  5 89  1  0  0  0
  6 25  1  0  0  0
  6 90  1  0  0  0
  6 91  1  0  0  0
  7  8  2  0  0  0
  7 26  1  0  0  0
  7 29  1  0  0  0
  8  9  1  0  0  0
  8 22  1  0  0  0
  9 10  1  0  0  0
  9 27  2  0  0  0
 10 11  2  0  0  0
 10 15  1  0  0  0
 11 12  1  0  0  0
 11 92  1  0  0  0
 12 13  2  0  0  0
 12 93  1  0  0  0
 13 14  1  0  0  0
 13 31  1  0  0  0
 14 15  2  0  0  0
 14 94  1  0  0  0
 15 95  1  0  0  0
 16 17  2  0  0  0
 16 21  1  0  0  0
 16 31  1  0  0  0
 17 18  1  0  0  0
 17 96  1  0  0  0
 18 19  2  0  0  0
 18 97  1  0  0  0
 19 20  1  0  0  0
 19 24  1  0  0  0
 20 21  2  0  0  0
 20 98  1  0  0  0
 21 23  1  0  0  0
 22 28  1  0  0  0
 22 32  2  0  0  0
 26 27  1  0  0  0
 28 99  1  0  0  0
 28100  1  0  0  0
 29101  1  0  0  0
 29102  1  0  0  0
 33 34  1  0  0  0
 33 66  1  0  0  0
 33 70  2  0  0  0
 34 36  1  0  0  0
 34 59  1  0  0  0
 34103  1  0  0  0
 35 44  2  0  0  0
 35 45  1  0  0  0
 35 68  1  0  0  0
 36 56  1  0  0  0
 36104  1  0  0  0
 37 39  1  0  0  0
 37 47  1  0  0  0
 37 66  1  0  0  0
 37105  1  0  0  0
 38 43  2  0  0  0
 38 46  1  0  0  0
 38 47  1  0  0  0
 39 64  1  0  0  0
 39 67  2  0  0  0
 40 52  1  0  0  0
 40 53  2  0  0  0
 40 58  1  0  0  0
 41106  1  0  0  0
 41107  1  0  0  0
 41108  1  0  0  0
 41 48  1  0  0  0
 42 43  1  0  0  0
 42 66  1  0  0  0
 42109  1  0  0  0
 42110  1  0  0  0
 43 44  1  0  0  0
 44111  1  0  0  0
 45 46  2  0  0  0
 45112  1  0  0  0
 46113  1  0  0  0
 47114  1  0  0  0
 47115  1  0  0  0
 48 56  1  0  0  0
 48 65  1  0  0  0
 48116  1  0  0  0
 49 50  1  0  0  0
 49 53  1  0  0  0
 49 64  1  0  0  0
 49117  1  0  0  0
 50 51  1  0  0  0
 50118  1  0  0  0
 50119  1  0  0  0
 51 52  1  0  0  0
 51120  1  0  0  0
 51121  1  0  0  0
 52122  1  0  0  0
 52123  1  0  0  0
 53 54  1  0  0  0
 54 55  2  0  0  0
 54124  1  0  0  0
 55 57  1  0  0  0
 55125  1  0  0  0
 56 69  2  0  0  0
 57 58  2  0  0  0
 57126  1  0  0  0
 58127  1  0  0  0
 59 60  1  0  0  0
 59 61  1  0  0  0
 59 62  1  0  0  0
 60128  1  0  0  0
 60129  1  0  0  0
 60130  1  0  0  0
 61131  1  0  0  0
 61132  1  0  0  0
 61133  1  0  0  0
 62134  1  0  0  0
 62135  1  0  0  0
 62136  1  0  0  0
 63 65  1  0  0  0
 63137  1  0  0  0
 63138  1  0  0  0
 63139  1  0  0  0
 64140  1  0  0  0
 65141  1  0  0  0
 68 78  1  0  0  0
 71 73  1  0  0  0
 71 75  1  0  0  0
 71142  1  0  0  0
 71143  1  0  0  0
 72 74  1  0  0  0
 72 75  1  0  0  0
 72144  1  0  0  0
 72145  1  0  0  0
 73146  1  0  0  0
 73147  1  0  0  0
 73 82  1  0  0  0
 74 82  1  0  0  0
 74148  1  0  0  0
 74149  1  0  0  0
 75 81  1  0  0  0
 75150  1  0  0  0
 76151  1  0  0  0
 76152  1  0  0  0
 76153  1  0  0  0
 76 79  1  0  0  0
 77 79  1  0  0  0
 77154  1  0  0  0
 77155  1  0  0  0
 77156  1  0  0  0
 78157  1  0  0  0
 78158  1  0  0  0
 78 80  1  0  0  0
 79 80  1  0  0  0
 79159  1  0  0  0
 80 82  1  0  0  0
 80160  1  0  0  0
 81161  1  0  0  0
 82162  1  0  0  0
M  CHG  1  82   1
M  ISO  4   1 100  68 101  78 101  81 100
M  END
> <chiral flag>
0

> <version>
0

> <s_m_source_file>
/data/baiqing/PycharmProjects/Reinvent-master-3.2/result/LINK_invent/BTK/process_docking_weight1_custom_sum_contain_oxygen_bond_distance_aromatic_linkinvent_7_9_3/rearranged_h_0135.sdf

> <i_m_source_file_index>
80

> <r_mmod_Potential_Energy-OPLS-2005>
1025.81591796875

> <r_mmod_Stretch_Energy-OPLS-2005>
435.163269042969

> <r_mmod_Bend_Energy-OPLS-2005>
490.408782958984

> <r_mmod_Torsional_Energy-OPLS-2005>
268.590606689453

> <r_mmod_Improper_Torsional_Energy-OPLS-2005>
4.50720167160034

> <r_mmod_Van_der_Waal_Energy-OPLS-2005>
110.684478759766

> <r_mmod_Electrostatic_Energy-OPLS-2005>
-192.838973999023

> <r_mmod_Solvation_Energy-OPLS-2005>
-433.698303222656

> <b_mmod_Minimization_Converged-OPLS-2005>
0

> <r_mmod_RMS_Derivative-OPLS-2005>
2.45187377929688

$$$$
80
                    3D
 Structure written by MMmdl.
165173  0  0  1  0            999 V2000
  -30.7100  -14.4733   20.5378 C   0  0  0  0  0  0
  -30.4096  -12.2964   19.4292 C   0  0  0  0  0  0
  -29.4877  -12.4987   18.2101 C   0  0  0  0  0  0
  -28.0116  -12.3626   18.6277 C   0  0  0  0  0  0
  -27.6617  -13.2091   19.8802 C   0  0  2  0  0  0
  -28.7029  -13.0178   21.0085 C   0  0  0  0  0  0
  -25.2564  -13.8156   20.5660 C   0  0  0  0  0  0
  -24.1828  -13.0423   20.9205 C   0  0  0  0  0  0
  -24.6408  -11.6893   20.8774 C   0  0  0  0  0  0
  -23.9087  -10.4282   21.0419 C   0  0  0  0  0  0
  -24.3630   -9.4198   21.9196 C   0  0  0  0  0  0
  -23.6301   -8.2224   22.0763 C   0  0  0  0  0  0
  -22.4275   -8.0281   21.3551 C   0  0  0  0  0  0
  -21.9911   -9.0259   20.4661 C   0  0  0  0  0  0
  -22.7252  -10.2139   20.3082 C   0  0  0  0  0  0
  -21.6837   -6.0719   22.5276 C   0  0  0  0  0  0
  -21.4009   -6.5636   23.8206 C   0  0  0  0  0  0
  -21.3666   -5.6803   24.9177 C   0  0  0  0  0  0
  -21.6032   -4.3053   24.7234 C   0  0  0  0  0  0
  -21.8812   -3.8144   23.4352 C   0  0  0  0  0  0
  -21.9197   -4.6952   22.3411 C   0  0  0  0  0  0
  -22.7853  -13.5214   21.1822 C   0  0  0  0  0  0
  -22.1673   -4.2139   21.0983 F   0  0  0  0  0  0
  -21.5634   -3.4549   25.7743 F   0  0  0  0  0  0
  -30.0341  -13.2971   20.4434 N   0  0  0  0  0  0
  -26.3040  -12.9335   20.3419 N   0  0  0  0  0  0
  -25.9344  -11.6504   20.5834 N   0  0  0  0  0  0
  -22.0482  -12.8242   22.0403 N   0  0  0  0  0  0
  -25.4217  -15.1867   20.3958 N   0  0  0  0  0  0
  -31.8400  -14.6361   20.0720 O   0  0  0  0  0  0
  -21.6646   -6.8868   21.4231 O   0  0  0  0  0  0
  -22.3563  -14.5510   20.6629 O   0  0  0  0  0  0
  -24.6186  -31.8665   23.2101 C   0  0  0  0  0  0
  -25.9080  -32.4826   23.8401 C   0  0  1  0  0  0
  -27.2341  -27.4025   20.0861 C   0  0  0  0  0  0
  -25.5947  -33.8619   24.2340 N   0  0  0  0  0  0
  -23.4084  -30.4913   21.5533 C   0  0  2  0  0  0
  -24.8503  -28.9529   20.1187 C   0  0  0  0  0  0
  -22.7434  -29.4656   22.4989 C   0  0  0  0  0  0
  -18.0289  -28.1367   22.8505 C   0  0  0  0  0  0
  -24.1474  -36.7283   23.2633 C   0  0  0  0  0  0
  -25.9413  -30.8164   21.3728 C   0  0  0  0  0  0
  -26.0135  -29.4497   20.7181 C   0  0  0  0  0  0
  -27.2052  -28.6830   20.6971 C   0  0  0  0  0  0
  -26.0471  -26.9348   19.4742 C   0  0  0  0  0  0
  -24.8649  -27.6972   19.4911 C   0  0  0  0  0  0
  -23.6159  -29.8242   20.1678 C   0  0  0  0  0  0
  -25.4100  -36.3105   24.0335 C   0  0  1  0  0  0
  -20.5877  -28.3661   23.1293 C   0  0  2  0  0  0
  -20.6765  -26.9393   22.5397 C   0  0  0  0  0  0
  -19.5746  -26.6379   21.5192 C   0  0  0  0  0  0
  -18.1932  -26.7925   22.1616 C   0  0  0  0  0  0
  -19.1537  -28.8828   23.2906 C   0  0  0  0  0  0
  -18.9460  -30.1430   23.8911 C   0  0  0  0  0  0
  -17.6461  -30.6577   24.0550 C   0  0  0  0  0  0
  -25.9019  -34.9482   23.5120 C   0  0  0  0  0  0
  -16.5355  -29.9063   23.6336 C   0  0  0  0  0  0
  -16.7274  -28.6479   23.0373 C   0  0  0  0  0  0
  -26.4483  -31.6633   25.0764 C   0  0  0  0  0  0
  -25.3721  -31.3788   26.1496 C   0  0  0  0  0  0
  -27.0296  -30.3068   24.6182 C   0  0  0  0  0  0
  -27.6069  -32.4344   25.7536 C   0  0  0  0  0  0
  -27.5573  -37.1805   24.8472 C   0  0  0  0  0  0
  -21.4167  -29.3039   22.3709 N   0  0  0  0  0  0
  -26.4283  -37.3798   23.9411 N   0  0  0  0  0  0
  -24.6752  -31.0718   22.1043 N   0  0  0  0  0  0
  -23.4184  -28.8181   23.3038 O   0  0  0  0  0  0
  -28.4195  -26.6738   20.0955 O   0  0  0  0  0  0
  -26.5569  -34.8927   22.4670 O   0  0  0  0  0  0
  -23.5380  -32.1434   23.7486 O   0  0  0  0  0  0
  -27.7831  -22.8131   22.9299 C   0  0  0  0  0  0
  -27.5284  -25.1196   22.3898 C   0  0  0  0  0  0
  -28.1601  -23.0037   21.4443 C   0  0  1  0  0  0
  -28.5250  -24.5219   21.3842 C   0  0  1  0  0  0
  -27.4195  -20.1851   20.2423 C   0  0  0  0  0  0
  -29.1840  -21.9228   20.9416 C   0  0  0  0  0  0
  -28.4034  -25.2236   20.0029 C   0  0  0  0  0  0
  -30.3120  -16.9205   20.5551 C   0  0  0  0  0  0
  -29.4863  -18.0156   21.2836 C   0  0  0  0  0  0
  -28.6923  -20.4275   21.0807 C   0  0  2  0  0  0
  -29.9976  -15.5344   20.9624 N   0  0  0  0  0  0
  -27.3496  -24.1208   23.4497 N   0  3  0  0  0  0
  -29.7301  -19.3948   20.7477 N   0  3  0  0  0  0
  -31.4559  -12.3663   19.1308 H   0  0  0  0  0  0
  -30.2819  -11.2923   19.8359 H   0  0  0  0  0  0
  -29.7211  -11.7689   17.4347 H   0  0  0  0  0  0
  -29.6575  -13.4828   17.7672 H   0  0  0  0  0  0
  -27.8289  -11.3056   18.8296 H   0  0  0  0  0  0
  -27.3540  -12.6317   17.7974 H   0  0  0  0  0  0
  -27.6980  -14.2532   19.5707 H   0  0  0  0  0  0
  -28.6722  -11.9980   21.3983 H   0  0  0  0  0  0
  -28.4728  -13.6621   21.8579 H   0  0  0  0  0  0
  -25.2769   -9.5644   22.4777 H   0  0  0  0  0  0
  -23.9989   -7.4612   22.7484 H   0  0  0  0  0  0
  -21.0836   -8.8791   19.9000 H   0  0  0  0  0  0
  -22.3723  -10.9679   19.6201 H   0  0  0  0  0  0
  -21.1988   -7.6158   23.9695 H   0  0  0  0  0  0
  -21.1506   -6.0544   25.9076 H   0  0  0  0  0  0
  -22.0581   -2.7604   23.2863 H   0  0  0  0  0  0
  -22.4088  -11.9923   22.4827 H   0  0  0  0  0  0
  -21.1096  -13.1272   22.2575 H   0  0  0  0  0  0
  -24.6175  -15.8064   20.4113 H   0  0  0  0  0  0
  -26.2406  -15.6074   19.9749 H   0  0  0  0  0  0
  -26.7163  -32.5525   23.1165 H   0  0  0  0  0  0
  -25.0198  -33.9792   25.0555 H   0  0  0  0  0  0
  -22.6997  -31.3100   21.4147 H   0  0  0  0  0  0
  -23.3750  -35.9599   23.3316 H   0  0  0  0  0  0
  -24.3553  -36.8870   22.2041 H   0  0  0  0  0  0
  -23.7190  -37.6484   23.6618 H   0  0  0  0  0  0
  -26.0548  -31.5800   20.6017 H   0  0  0  0  0  0
  -26.8288  -30.8685   21.9940 H   0  0  0  0  0  0
  -28.1047  -29.0616   21.1613 H   0  0  0  0  0  0
  -25.9979  -25.9941   18.9483 H   0  0  0  0  0  0
  -23.9758  -27.3160   19.0060 H   0  0  0  0  0  0
  -23.7275  -30.5967   19.4054 H   0  0  0  0  0  0
  -22.7386  -29.2453   19.8728 H   0  0  0  0  0  0
  -25.1273  -36.1976   25.0828 H   0  0  0  0  0  0
  -20.9988  -28.3212   24.1405 H   0  0  0  0  0  0
  -20.5628  -26.2277   23.3586 H   0  0  0  0  0  0
  -21.6637  -26.7407   22.1211 H   0  0  0  0  0  0
  -19.6889  -25.6285   21.1226 H   0  0  0  0  0  0
  -19.6678  -27.3170   20.6705 H   0  0  0  0  0  0
  -17.4201  -26.6698   21.4013 H   0  0  0  0  0  0
  -18.0336  -26.0031   22.8979 H   0  0  0  0  0  0
  -19.7923  -30.7253   24.2295 H   0  0  0  0  0  0
  -17.5002  -31.6262   24.5124 H   0  0  0  0  0  0
  -15.5343  -30.2959   23.7633 H   0  0  0  0  0  0
  -15.8691  -28.0766   22.7107 H   0  0  0  0  0  0
  -24.5890  -30.7146   25.7832 H   0  0  0  0  0  0
  -24.8916  -32.2965   26.4905 H   0  0  0  0  0  0
  -25.8037  -30.8989   27.0283 H   0  0  0  0  0  0
  -26.2864  -29.6880   24.1157 H   0  0  0  0  0  0
  -27.3940  -29.7287   25.4678 H   0  0  0  0  0  0
  -27.8751  -30.4371   23.9424 H   0  0  0  0  0  0
  -27.2709  -33.3641   26.2135 H   0  0  0  0  0  0
  -28.3879  -32.6903   25.0367 H   0  0  0  0  0  0
  -28.0724  -31.8450   26.5446 H   0  0  0  0  0  0
  -28.2619  -38.0084   24.7513 H   0  0  0  0  0  0
  -28.1052  -36.2617   24.6310 H   0  0  0  0  0  0
  -27.2292  -37.1464   25.8880 H   0  0  0  0  0  0
  -20.9324  -29.8788   21.6955 H   0  0  0  0  0  0
  -26.0181  -38.2876   24.1433 H   0  0  0  0  0  0
  -28.6443  -22.4892   23.5168 H   0  0  0  0  0  0
  -26.9934  -22.0716   23.0574 H   0  0  0  0  0  0
  -26.5578  -25.2656   21.9125 H   0  0  0  0  0  0
  -27.8469  -26.0859   22.7857 H   0  0  0  0  0  0
  -27.2479  -22.9012   20.8587 H   0  0  0  0  0  0
  -29.5340  -24.6656   21.7739 H   0  0  0  0  0  0
  -26.6033  -20.8369   20.5509 H   0  0  0  0  0  0
  -27.0364  -19.1713   20.3419 H   0  0  0  0  0  0
  -27.6041  -20.3574   19.1811 H   0  0  0  0  0  0
  -30.1205  -22.0515   21.4869 H   0  0  0  0  0  0
  -29.4303  -22.1324   19.8996 H   0  0  0  0  0  0
  -27.5452  -24.8178   19.4787 H   0  0  0  0  0  0
  -29.2534  -24.9226   19.3908 H   0  0  0  0  0  0
  -31.3786  -17.1178   20.6826 H   0  0  0  0  0  0
  -30.1209  -16.9813   19.4814 H   0  0  0  0  0  0
  -29.7184  -18.0036   22.3497 H   0  0  0  0  0  0
  -28.4342  -17.7487   21.2083 H   0  0  0  0  0  0
  -28.4473  -20.2686   22.1314 H   0  0  0  0  0  0
  -29.0858  -15.3427   21.3491 H   0  0  0  0  0  0
  -27.9023  -24.3640   24.2565 H   0  0  0  0  0  0
  -26.3822  -24.0943   23.7314 H   0  0  0  0  0  0
  -29.8138  -19.3414   19.7454 H   0  0  0  0  0  0
  -30.6223  -19.6979   21.1067 H   0  0  0  0  0  0
  1 25  1  0  0  0
  1 30  2  0  0  0
  1 81  1  0  0  0
  2  3  1  0  0  0
  2 25  1  0  0  0
  2 84  1  0  0  0
  2 85  1  0  0  0
  3  4  1  0  0  0
  3 86  1  0  0  0
  3 87  1  0  0  0
  4  5  1  0  0  0
  4 88  1  0  0  0
  4 89  1  0  0  0
  5  6  1  0  0  0
  5 26  1  0  0  0
  5 90  1  0  0  0
  6 25  1  0  0  0
  6 91  1  0  0  0
  6 92  1  0  0  0
  7  8  2  0  0  0
  7 26  1  0  0  0
  7 29  1  0  0  0
  8  9  1  0  0  0
  8 22  1  0  0  0
  9 10  1  0  0  0
  9 27  2  0  0  0
 10 11  2  0  0  0
 10 15  1  0  0  0
 11 12  1  0  0  0
 11 93  1  0  0  0
 12 13  2  0  0  0
 12 94  1  0  0  0
 13 14  1  0  0  0
 13 31  1  0  0  0
 14 15  2  0  0  0
 14 95  1  0  0  0
 15 96  1  0  0  0
 16 17  2  0  0  0
 16 21  1  0  0  0
 16 31  1  0  0  0
 17 18  1  0  0  0
 17 97  1  0  0  0
 18 19  2  0  0  0
 18 98  1  0  0  0
 19 20  1  0  0  0
 19 24  1  0  0  0
 20 21  2  0  0  0
 20 99  1  0  0  0
 21 23  1  0  0  0
 22 28  1  0  0  0
 22 32  2  0  0  0
 26 27  1  0  0  0
 28100  1  0  0  0
 28101  1  0  0  0
 29102  1  0  0  0
 29103  1  0  0  0
 33 34  1  0  0  0
 33 66  1  0  0  0
 33 70  2  0  0  0
 34 36  1  0  0  0
 34 59  1  0  0  0
 34104  1  0  0  0
 35 44  2  0  0  0
 35 45  1  0  0  0
 35 68  1  0  0  0
 36 56  1  0  0  0
 36105  1  0  0  0
 37 39  1  0  0  0
 37 47  1  0  0  0
 37 66  1  0  0  0
 37106  1  0  0  0
 38 43  2  0  0  0
 38 46  1  0  0  0
 38 47  1  0  0  0
 39 64  1  0  0  0
 39 67  2  0  0  0
 40 52  1  0  0  0
 40 53  2  0  0  0
 40 58  1  0  0  0
 41107  1  0  0  0
 41108  1  0  0  0
 41109  1  0  0  0
 41 48  1  0  0  0
 42 43  1  0  0  0
 42 66  1  0  0  0
 42110  1  0  0  0
 42111  1  0  0  0
 43 44  1  0  0  0
 44112  1  0  0  0
 45 46  2  0  0  0
 45113  1  0  0  0
 46114  1  0  0  0
 47115  1  0  0  0
 47116  1  0  0  0
 48 56  1  0  0  0
 48 65  1  0  0  0
 48117  1  0  0  0
 49 50  1  0  0  0
 49 53  1  0  0  0
 49 64  1  0  0  0
 49118  1  0  0  0
 50 51  1  0  0  0
 50119  1  0  0  0
 50120  1  0  0  0
 51 52  1  0  0  0
 51121  1  0  0  0
 51122  1  0  0  0
 52123  1  0  0  0
 52124  1  0  0  0
 53 54  1  0  0  0
 54 55  2  0  0  0
 54125  1  0  0  0
 55 57  1  0  0  0
 55126  1  0  0  0
 56 69  2  0  0  0
 57 58  2  0  0  0
 57127  1  0  0  0
 58128  1  0  0  0
 59 60  1  0  0  0
 59 61  1  0  0  0
 59 62  1  0  0  0
 60129  1  0  0  0
 60130  1  0  0  0
 60131  1  0  0  0
 61132  1  0  0  0
 61133  1  0  0  0
 61134  1  0  0  0
 62135  1  0  0  0
 62136  1  0  0  0
 62137  1  0  0  0
 63 65  1  0  0  0
 63138  1  0  0  0
 63139  1  0  0  0
 63140  1  0  0  0
 64141  1  0  0  0
 65142  1  0  0  0
 68 77  1  0  0  0
 71 73  1  0  0  0
 71 82  1  0  0  0
 71143  1  0  0  0
 71144  1  0  0  0
 72 74  1  0  0  0
 72 82  1  0  0  0
 72145  1  0  0  0
 72146  1  0  0  0
 73 74  1  0  0  0
 73 76  1  0  0  0
 73147  1  0  0  0
 74 77  1  0  0  0
 74148  1  0  0  0
 75149  1  0  0  0
 75150  1  0  0  0
 75151  1  0  0  0
 75 80  1  0  0  0
 76 80  1  0  0  0
 76152  1  0  0  0
 76153  1  0  0  0
 77154  1  0  0  0
 77155  1  0  0  0
 78 79  1  0  0  0
 78 81  1  0  0  0
 78156  1  0  0  0
 78157  1  0  0  0
 79 83  1  0  0  0
 79158  1  0  0  0
 79159  1  0  0  0
 80 83  1  0  0  0
 80160  1  0  0  0
 81161  1  0  0  0
 82162  1  0  0  0
 82163  1  0  0  0
 83164  1  0  0  0
 83165  1  0  0  0
M  CHG  2  82   1  83   1
M  ISO  4   1 100  68 101  77 101  81 100
M  END
> <chiral flag>
0

> <version>
0

> <s_m_source_file>
/data/baiqing/PycharmProjects/Reinvent-master-3.2/result/LINK_invent/BTK/process_docking_weight1_custom_sum_contain_oxygen_bond_distance_aromatic_linkinvent_7_9_3/rearranged_h_0135.sdf

> <i_m_source_file_index>
81

> <r_mmod_Potential_Energy-OPLS-2005>
-337.564147949219

> <r_mmod_Stretch_Energy-OPLS-2005>
46.2246475219727

> <r_mmod_Bend_Energy-OPLS-2005>
133.023086547852

> <r_mmod_Torsional_Energy-OPLS-2005>
281.017822265625

> <r_mmod_Improper_Torsional_Energy-OPLS-2005>
6.74450302124023

> <r_mmod_Van_der_Waal_Energy-OPLS-2005>
129.223342895508

> <r_mmod_Electrostatic_Energy-OPLS-2005>
16.5526943206787

> <r_mmod_Solvation_Energy-OPLS-2005>
-966.169921875

> <b_mmod_Minimization_Converged-OPLS-2005>
0

> <r_mmod_RMS_Derivative-OPLS-2005>
4.18389272689819

$$$$
81
                    3D
 Structure written by MMmdl.
188198  0  0  1  0            999 V2000
  -30.6789  -14.5046   20.5775 C   0  0  0  0  0  0
  -30.4360  -12.3349   19.4197 C   0  0  0  0  0  0
  -29.5004  -12.5210   18.2056 C   0  0  0  0  0  0
  -28.0206  -12.3754   18.6161 C   0  0  0  0  0  0
  -27.6642  -13.2074   19.8768 C   0  0  2  0  0  0
  -28.7080  -12.9804   20.9946 C   0  0  0  0  0  0
  -25.2594  -13.8157   20.5680 C   0  0  0  0  0  0
  -24.1846  -13.0430   20.9174 C   0  0  0  0  0  0
  -24.6402  -11.6896   20.8711 C   0  0  0  0  0  0
  -23.9064  -10.4290   21.0399 C   0  0  0  0  0  0
  -24.3618   -9.4206   21.9177 C   0  0  0  0  0  0
  -23.6295   -8.2240   22.0747 C   0  0  0  0  0  0
  -22.4268   -8.0283   21.3547 C   0  0  0  0  0  0
  -21.9906   -9.0256   20.4645 C   0  0  0  0  0  0
  -22.7234  -10.2136   20.3056 C   0  0  0  0  0  0
  -21.6855   -6.0733   22.5278 C   0  0  0  0  0  0
  -21.4016   -6.5642   23.8208 C   0  0  0  0  0  0
  -21.3657   -5.6798   24.9172 C   0  0  0  0  0  0
  -21.6046   -4.3060   24.7227 C   0  0  0  0  0  0
  -21.8818   -3.8148   23.4349 C   0  0  0  0  0  0
  -21.9194   -4.6961   22.3402 C   0  0  0  0  0  0
  -22.7867  -13.5231   21.1831 C   0  0  0  0  0  0
  -22.1663   -4.2145   21.0980 F   0  0  0  0  0  0
  -21.5628   -3.4543   25.7740 F   0  0  0  0  0  0
  -30.0378  -13.3090   20.4474 N   0  0  0  0  0  0
  -26.3032  -12.9324   20.3350 N   0  0  0  0  0  0
  -25.9334  -11.6478   20.5749 N   0  0  0  0  0  0
  -22.0518  -12.8240   22.0408 N   0  0  0  0  0  0
  -25.4304  -15.1876   20.4093 N   0  0  0  0  0  0
  -31.7925  -14.7183   20.0896 O   0  0  0  0  0  0
  -21.6639   -6.8873   21.4239 O   0  0  0  0  0  0
  -22.3555  -14.5540   20.6682 O   0  0  0  0  0  0
  -24.6191  -31.8821   23.2355 C   0  0  0  0  0  0
  -25.9158  -32.4854   23.8483 C   0  0  1  0  0  0
  -27.4563  -27.2756   20.0648 C   0  0  0  0  0  0
  -25.6064  -33.8662   24.2370 N   0  0  0  0  0  0
  -23.3531  -30.5702   21.6054 C   0  0  2  0  0  0
  -24.6200  -29.0715   20.0918 C   0  0  0  0  0  0
  -22.7131  -29.5064   22.5285 C   0  0  0  0  0  0
  -18.0225  -28.1360   22.8496 C   0  0  0  0  0  0
  -24.1489  -36.7297   23.2616 C   0  0  0  0  0  0
  -25.9126  -30.8108   21.3884 C   0  0  0  0  0  0
  -25.9358  -29.4558   20.7074 C   0  0  0  0  0  0
  -27.2212  -28.6405   20.6990 C   0  0  0  0  0  0
  -26.2942  -26.6002   19.3348 C   0  0  0  0  0  0
  -24.4702  -27.7484   19.3609 C   0  0  0  0  0  0
  -23.4792  -30.0097   20.1867 C   0  0  0  0  0  0
  -25.4115  -36.3114   24.0317 C   0  0  1  0  0  0
  -20.5800  -28.3643   23.1313 C   0  0  2  0  0  0
  -20.6756  -26.9391   22.5420 C   0  0  0  0  0  0
  -19.5744  -26.6372   21.5225 C   0  0  0  0  0  0
  -18.1905  -26.7918   22.1628 C   0  0  0  0  0  0
  -19.1463  -28.8817   23.2912 C   0  0  0  0  0  0
  -18.9425  -30.1450   23.8882 C   0  0  0  0  0  0
  -17.6436  -30.6591   24.0575 C   0  0  0  0  0  0
  -25.9068  -34.9502   23.5118 C   0  0  0  0  0  0
  -16.5315  -29.9082   23.6378 C   0  0  0  0  0  0
  -16.7234  -28.6509   23.0369 C   0  0  0  0  0  0
  -26.4538  -31.6637   25.0817 C   0  0  0  0  0  0
  -25.3779  -31.3796   26.1556 C   0  0  0  0  0  0
  -27.0318  -30.3034   24.6292 C   0  0  0  0  0  0
  -27.6129  -32.4314   25.7582 C   0  0  0  0  0  0
  -27.5597  -37.1792   24.8452 C   0  0  0  0  0  0
  -21.3966  -29.3007   22.3656 N   0  0  0  0  0  0
  -26.4282  -37.3836   23.9434 N   0  0  0  0  0  0
  -24.6548  -31.0990   22.1251 N   0  0  0  0  0  0
  -23.3815  -28.8912   23.3645 O   0  0  0  0  0  0
  -28.6538  -26.6125   20.2045 O   0  0  0  0  0  0
  -26.5601  -34.8954   22.4656 O   0  0  0  0  0  0
  -23.5439  -32.1629   23.7850 O   0  0  0  0  0  0
  -29.6257  -17.5083   22.4468 C   0  0  0  0  0  0
  -30.8437  -17.6695   20.3668 C   0  0  0  0  0  0
  -29.7650  -18.8972   22.6611 C   0  0  0  0  0  0
  -30.9722  -19.0739   20.5459 C   0  0  0  0  0  0
  -30.4454  -19.7189   21.7087 C   0  0  0  0  0  0
  -30.1777  -16.8699   21.3237 C   0  0  0  0  0  0
  -26.2152  -28.5143   18.3238 C   0  0  0  0  0  0
  -25.2938  -27.0925   17.2235 C   0  0  0  0  0  0
  -25.3076  -27.0080   21.2186 C   0  0  0  0  0  0
  -24.3852  -25.6087   18.2391 C   0  0  0  0  0  0
  -27.2821  -22.8753   22.1453 C   0  0  0  0  0  0
  -28.6896  -22.5928   22.6647 C   0  0  0  0  0  0
  -29.8262  -23.2814   20.6911 C   0  0  0  0  0  0
  -24.3593  -25.5308   20.2492 C   0  0  0  0  0  0
  -28.5469  -23.9718   20.0962 C   0  0  1  0  0  0
  -27.2566  -23.9253   21.0063 C   0  0  1  0  0  0
  -29.1617  -19.4261   23.9533 C   0  0  0  0  0  0
  -31.7126  -19.8535   19.4652 C   0  0  0  0  0  0
  -30.6683  -21.2416   21.9428 C   0  0  0  0  0  0
  -24.7400  -24.1391   20.7830 C   0  0  0  0  0  0
  -28.9141  -25.3803   19.4773 C   0  0  0  0  0  0
  -29.9601  -15.4606   21.2026 N   0  0  0  0  0  0
  -29.5086  -22.0932   21.5352 N   0  3  1  0  0  0
  -26.0211  -23.6952   20.2014 N   0  3  0  0  0  0
  -31.4786  -12.4584   19.1204 H   0  0  0  0  0  0
  -30.3585  -11.3233   19.8194 H   0  0  0  0  0  0
  -29.7494  -11.7958   17.4299 H   0  0  0  0  0  0
  -29.6631  -13.5062   17.7639 H   0  0  0  0  0  0
  -27.8322  -11.3178   18.8025 H   0  0  0  0  0  0
  -27.3735  -12.6573   17.7847 H   0  0  0  0  0  0
  -27.7071  -14.2572   19.5859 H   0  0  0  0  0  0
  -28.6947  -11.9381   21.3149 H   0  0  0  0  0  0
  -28.4553  -13.5554   21.8864 H   0  0  0  0  0  0
  -25.2766   -9.5678   22.4742 H   0  0  0  0  0  0
  -24.0004   -7.4632   22.7470 H   0  0  0  0  0  0
  -21.0828   -8.8776   19.8962 H   0  0  0  0  0  0
  -22.3690  -10.9670   19.6164 H   0  0  0  0  0  0
  -21.2010   -7.6149   23.9710 H   0  0  0  0  0  0
  -21.1483   -6.0529   25.9074 H   0  0  0  0  0  0
  -22.0602   -2.7610   23.2852 H   0  0  0  0  0  0
  -22.4135  -11.9913   22.4811 H   0  0  0  0  0  0
  -21.1141  -13.1265   22.2614 H   0  0  0  0  0  0
  -24.6609  -15.8398   20.5122 H   0  0  0  0  0  0
  -26.2850  -15.6299   20.0947 H   0  0  0  0  0  0
  -26.7182  -32.5446   23.1172 H   0  0  0  0  0  0
  -25.0355  -33.9865   25.0608 H   0  0  0  0  0  0
  -22.6486  -31.4026   21.5461 H   0  0  0  0  0  0
  -23.3793  -35.9581   23.3211 H   0  0  0  0  0  0
  -24.3625  -36.8992   22.2053 H   0  0  0  0  0  0
  -23.7180  -37.6458   23.6664 H   0  0  0  0  0  0
  -26.0624  -31.5856   20.6350 H   0  0  0  0  0  0
  -26.7917  -30.8180   22.0188 H   0  0  0  0  0  0
  -28.0700  -29.0626   21.2183 H   0  0  0  0  0  0
  -26.5361  -25.6815   18.8347 H   0  0  0  0  0  0
  -23.4939  -27.5780   18.9165 H   0  0  0  0  0  0
  -23.6467  -30.8222   19.4802 H   0  0  0  0  0  0
  -22.5602  -29.5212   19.8634 H   0  0  0  0  0  0
  -25.1270  -36.1966   25.0805 H   0  0  0  0  0  0
  -20.9890  -28.3225   24.1442 H   0  0  0  0  0  0
  -20.5750  -26.2218   23.3576 H   0  0  0  0  0  0
  -21.6627  -26.7556   22.1171 H   0  0  0  0  0  0
  -19.6892  -25.6273   21.1278 H   0  0  0  0  0  0
  -19.6686  -27.3175   20.6741 H   0  0  0  0  0  0
  -17.4174  -26.6653   21.4047 H   0  0  0  0  0  0
  -18.0307  -26.0057   22.9017 H   0  0  0  0  0  0
  -19.7900  -30.7288   24.2200 H   0  0  0  0  0  0
  -17.4980  -31.6297   24.5136 H   0  0  0  0  0  0
  -15.5302  -30.2966   23.7731 H   0  0  0  0  0  0
  -15.8630  -28.0858   22.7050 H   0  0  0  0  0  0
  -24.5930  -30.7180   25.7890 H   0  0  0  0  0  0
  -24.9005  -32.2983   26.4979 H   0  0  0  0  0  0
  -25.8114  -30.8966   27.0330 H   0  0  0  0  0  0
  -26.2899  -29.6851   24.1251 H   0  0  0  0  0  0
  -27.3870  -29.7273   25.4850 H   0  0  0  0  0  0
  -27.8851  -30.4239   23.9616 H   0  0  0  0  0  0
  -27.2782  -33.3598   26.2238 H   0  0  0  0  0  0
  -28.3949  -32.6908   25.0420 H   0  0  0  0  0  0
  -28.0799  -31.8372   26.5455 H   0  0  0  0  0  0
  -28.2535  -38.0171   24.7651 H   0  0  0  0  0  0
  -28.1186  -36.2727   24.6078 H   0  0  0  0  0  0
  -27.2357  -37.1209   25.8863 H   0  0  0  0  0  0
  -20.9059  -29.8450   21.6695 H   0  0  0  0  0  0
  -26.0151  -38.2888   24.1550 H   0  0  0  0  0  0
  -29.0948  -16.9154   23.1793 H   0  0  0  0  0  0
  -31.2535  -17.2068   19.4782 H   0  0  0  0  0  0
  -27.2732  -28.5680   18.0333 H   0  0  0  0  0  0
  -25.8046  -29.4945   18.0507 H   0  0  0  0  0  0
  -24.5492  -27.5739   16.5864 H   0  0  0  0  0  0
  -26.0162  -26.6724   16.5198 H   0  0  0  0  0  0
  -24.5741  -27.4687   21.8826 H   0  0  0  0  0  0
  -26.0580  -26.6208   21.9126 H   0  0  0  0  0  0
  -24.7942  -24.6684   17.8702 H   0  0  0  0  0  0
  -23.3506  -25.5541   17.8997 H   0  0  0  0  0  0
  -26.6689  -23.2348   22.9740 H   0  0  0  0  0  0
  -26.8298  -21.9300   21.8306 H   0  0  0  0  0  0
  -28.6462  -21.9071   23.5012 H   0  0  0  0  0  0
  -29.1262  -23.5032   23.0819 H   0  0  0  0  0  0
  -30.3971  -23.9933   21.2897 H   0  0  0  0  0  0
  -30.4880  -22.9941   19.8734 H   0  0  0  0  0  0
  -23.3102  -25.6557   20.5293 H   0  0  0  0  0  0
  -28.3244  -23.3363   19.2364 H   0  0  0  0  0  0
  -27.2014  -24.8913   21.4994 H   0  0  0  0  0  0
  -28.9911  -18.6187   24.6656 H   0  0  0  0  0  0
  -28.1821  -19.8622   23.7642 H   0  0  0  0  0  0
  -29.8049  -20.1456   24.4578 H   0  0  0  0  0  0
  -31.9860  -19.2140   18.6255 H   0  0  0  0  0  0
  -32.6395  -20.2750   19.8528 H   0  0  0  0  0  0
  -31.1021  -20.6624   19.0648 H   0  0  0  0  0  0
  -31.5609  -21.5637   21.4059 H   0  0  0  0  0  0
  -30.9254  -21.4231   22.9869 H   0  0  0  0  0  0
  -23.9722  -23.4294   20.4609 H   0  0  0  0  0  0
  -24.7520  -24.1053   21.8730 H   0  0  0  0  0  0
  -28.5634  -25.4538   18.4491 H   0  0  0  0  0  0
  -29.9927  -25.3923   19.3339 H   0  0  0  0  0  0
  -29.1176  -15.1153   21.6364 H   0  0  0  0  0  0
  -28.9486  -21.4590   20.9831 H   0  0  0  0  0  0
  -25.9307  -22.7141   19.9868 H   0  0  0  0  0  0
  -26.0755  -24.1851   19.3235 H   0  0  0  0  0  0
  1 25  1  0  0  0
  1 30  2  0  0  0
  1 92  1  0  0  0
  2  3  1  0  0  0
  2 25  1  0  0  0
  2 95  1  0  0  0
  2 96  1  0  0  0
  3  4  1  0  0  0
  3 97  1  0  0  0
  3 98  1  0  0  0
  4  5  1  0  0  0
  4 99  1  0  0  0
  4100  1  0  0  0
  5  6  1  0  0  0
  5 26  1  0  0  0
  5101  1  0  0  0
  6 25  1  0  0  0
  6102  1  0  0  0
  6103  1  0  0  0
  7  8  2  0  0  0
  7 26  1  0  0  0
  7 29  1  0  0  0
  8  9  1  0  0  0
  8 22  1  0  0  0
  9 10  1  0  0  0
  9 27  2  0  0  0
 10 11  2  0  0  0
 10 15  1  0  0  0
 11 12  1  0  0  0
 11104  1  0  0  0
 12 13  2  0  0  0
 12105  1  0  0  0
 13 14  1  0  0  0
 13 31  1  0  0  0
 14 15  2  0  0  0
 14106  1  0  0  0
 15107  1  0  0  0
 16 17  2  0  0  0
 16 21  1  0  0  0
 16 31  1  0  0  0
 17 18  1  0  0  0
 17108  1  0  0  0
 18 19  2  0  0  0
 18109  1  0  0  0
 19 20  1  0  0  0
 19 24  1  0  0  0
 20 21  2  0  0  0
 20110  1  0  0  0
 21 23  1  0  0  0
 22 28  1  0  0  0
 22 32  2  0  0  0
 26 27  1  0  0  0
 28111  1  0  0  0
 28112  1  0  0  0
 29113  1  0  0  0
 29114  1  0  0  0
 33 34  1  0  0  0
 33 66  1  0  0  0
 33 70  2  0  0  0
 34 36  1  0  0  0
 34 59  1  0  0  0
 34115  1  0  0  0
 35 44  2  0  0  0
 35 45  1  0  0  0
 35 68  1  0  0  0
 36 56  1  0  0  0
 36116  1  0  0  0
 37 39  1  0  0  0
 37 47  1  0  0  0
 37 66  1  0  0  0
 37117  1  0  0  0
 38 43  2  0  0  0
 38 46  1  0  0  0
 38 47  1  0  0  0
 39 64  1  0  0  0
 39 67  2  0  0  0
 40 52  1  0  0  0
 40 53  2  0  0  0
 40 58  1  0  0  0
 41118  1  0  0  0
 41119  1  0  0  0
 41120  1  0  0  0
 41 48  1  0  0  0
 42 43  1  0  0  0
 42 66  1  0  0  0
 42121  1  0  0  0
 42122  1  0  0  0
 43 44  1  0  0  0
 44123  1  0  0  0
 45 46  2  0  0  0
 45124  1  0  0  0
 46125  1  0  0  0
 47126  1  0  0  0
 47127  1  0  0  0
 48 56  1  0  0  0
 48 65  1  0  0  0
 48128  1  0  0  0
 49 50  1  0  0  0
 49 53  1  0  0  0
 49 64  1  0  0  0
 49129  1  0  0  0
 50 51  1  0  0  0
 50130  1  0  0  0
 50131  1  0  0  0
 51 52  1  0  0  0
 51132  1  0  0  0
 51133  1  0  0  0
 52134  1  0  0  0
 52135  1  0  0  0
 53 54  1  0  0  0
 54 55  2  0  0  0
 54136  1  0  0  0
 55 57  1  0  0  0
 55137  1  0  0  0
 56 69  2  0  0  0
 57 58  2  0  0  0
 57138  1  0  0  0
 58139  1  0  0  0
 59 60  1  0  0  0
 59 61  1  0  0  0
 59 62  1  0  0  0
 60140  1  0  0  0
 60141  1  0  0  0
 60142  1  0  0  0
 61143  1  0  0  0
 61144  1  0  0  0
 61145  1  0  0  0
 62146  1  0  0  0
 62147  1  0  0  0
 62148  1  0  0  0
 63 65  1  0  0  0
 63149  1  0  0  0
 63150  1  0  0  0
 63151  1  0  0  0
 64152  1  0  0  0
 65153  1  0  0  0
 68 91  1  0  0  0
 71 73  2  0  0  0
 71 76  1  0  0  0
 71154  1  0  0  0
 72 74  1  0  0  0
 72 76  2  0  0  0
 72155  1  0  0  0
 73 75  1  0  0  0
 73 87  1  0  0  0
 74 75  2  0  0  0
 74 88  1  0  0  0
 75 89  1  0  0  0
 76 92  1  0  0  0
 77 78  1  0  0  0
 77 79  1  0  0  0
 77156  1  0  0  0
 77157  1  0  0  0
 78 80  1  0  0  0
 78158  1  0  0  0
 78159  1  0  0  0
 79 84  1  0  0  0
 79160  1  0  0  0
 79161  1  0  0  0
 80 84  1  0  0  0
 80162  1  0  0  0
 80163  1  0  0  0
 81 82  1  0  0  0
 81 86  1  0  0  0
 81164  1  0  0  0
 81165  1  0  0  0
 82 93  1  0  0  0
 82166  1  0  0  0
 82167  1  0  0  0
 83 85  1  0  0  0
 83 93  1  0  0  0
 83168  1  0  0  0
 83169  1  0  0  0
 84 90  1  0  0  0
 84170  1  0  0  0
 85 86  1  0  0  0
 85 91  1  0  0  0
 85171  1  0  0  0
 86 94  1  0  0  0
 86172  1  0  0  0
 87173  1  0  0  0
 87174  1  0  0  0
 87175  1  0  0  0
 88176  1  0  0  0
 88177  1  0  0  0
 88178  1  0  0  0
 89179  1  0  0  0
 89180  1  0  0  0
 89 93  1  0  0  0
 90 94  1  0  0  0
 90181  1  0  0  0
 90182  1  0  0  0
 91183  1  0  0  0
 91184  1  0  0  0
 92185  1  0  0  0
 93186  1  0  0  0
 94187  1  0  0  0
 94188  1  0  0  0
M  CHG  2  93   1  94   1
M  ISO  4   1 100  68 101  91 101  92 100
M  END
> <chiral flag>
0

> <version>
0

> <s_m_source_file>
/data/baiqing/PycharmProjects/Reinvent-master-3.2/result/LINK_invent/BTK/process_docking_weight1_custom_sum_contain_oxygen_bond_distance_aromatic_linkinvent_7_9_3/rearranged_h_0135.sdf

> <i_m_source_file_index>
82

> <r_mmod_Potential_Energy-OPLS-2005>
8957.2744140625

> <r_mmod_Stretch_Energy-OPLS-2005>
6234.669921875

> <r_mmod_Bend_Energy-OPLS-2005>
286.09423828125

> <r_mmod_Torsional_Energy-OPLS-2005>
383.801666259766

> <r_mmod_Improper_Torsional_Energy-OPLS-2005>
2.96115326881409

> <r_mmod_Van_der_Waal_Energy-OPLS-2005>
2797.19653320312

> <r_mmod_Electrostatic_Energy-OPLS-2005>
108.517234802246

> <r_mmod_Solvation_Energy-OPLS-2005>
-951.317993164062

> <b_mmod_Minimization_Converged-OPLS-2005>
0

> <r_mmod_RMS_Derivative-OPLS-2005>
7.50979089736938

$$$$
82
                    3D
 Structure written by MMmdl.
167176  0  0  1  0            999 V2000
  -30.4996  -15.0457   20.4195 C   0  0  0  0  0  0
  -30.4475  -12.6633   19.4964 C   0  0  0  0  0  0
  -29.5293  -12.5607   18.2535 C   0  0  0  0  0  0
  -28.0646  -12.3285   18.6696 C   0  0  0  0  0  0
  -27.6254  -13.2594   19.8310 C   0  0  2  0  0  0
  -28.6701  -13.3156   20.9608 C   0  0  0  0  0  0
  -25.2428  -13.8207   20.5663 C   0  0  0  0  0  0
  -24.1788  -13.0443   20.9264 C   0  0  0  0  0  0
  -24.6409  -11.6915   20.8742 C   0  0  0  0  0  0
  -23.9086  -10.4298   21.0398 C   0  0  0  0  0  0
  -24.3626   -9.4211   21.9182 C   0  0  0  0  0  0
  -23.6300   -8.2247   22.0753 C   0  0  0  0  0  0
  -22.4282   -8.0300   21.3552 C   0  0  0  0  0  0
  -21.9911   -9.0267   20.4649 C   0  0  0  0  0  0
  -22.7237  -10.2141   20.3067 C   0  0  0  0  0  0
  -21.6835   -6.0718   22.5274 C   0  0  0  0  0  0
  -21.4007   -6.5639   23.8203 C   0  0  0  0  0  0
  -21.3663   -5.6795   24.9168 C   0  0  0  0  0  0
  -21.6051   -4.3061   24.7224 C   0  0  0  0  0  0
  -21.8816   -3.8144   23.4353 C   0  0  0  0  0  0
  -21.9196   -4.6948   22.3403 C   0  0  0  0  0  0
  -22.7815  -13.5213   21.1888 C   0  0  0  0  0  0
  -22.1670   -4.2154   21.0975 F   0  0  0  0  0  0
  -21.5637   -3.4548   25.7731 F   0  0  0  0  0  0
  -29.9282  -13.7654   20.3566 N   0  0  0  0  0  0
  -26.2865  -12.9450   20.3194 N   0  0  0  0  0  0
  -25.9338  -11.6569   20.5674 N   0  0  0  0  0  0
  -22.0451  -12.8227   22.0438 N   0  0  0  0  0  0
  -25.4056  -15.1904   20.3938 N   0  0  0  0  0  0
  -31.7151  -15.1246   20.2158 O   0  0  0  0  0  0
  -21.6660   -6.8876   21.4244 O   0  0  0  0  0  0
  -22.3522  -14.5526   20.6701 O   0  0  0  0  0  0
  -24.6443  -31.8357   23.1783 C   0  0  0  0  0  0
  -25.9238  -32.4641   23.8155 C   0  0  1  0  0  0
  -27.2254  -27.0836   20.1504 C   0  0  0  0  0  0
  -25.5990  -33.8442   24.2101 N   0  0  0  0  0  0
  -23.4514  -30.4483   21.5256 C   0  0  2  0  0  0
  -24.9066  -28.8641   20.0927 C   0  0  0  0  0  0
  -22.7556  -29.4452   22.4802 C   0  0  0  0  0  0
  -18.0311  -28.1386   22.8431 C   0  0  0  0  0  0
  -24.1492  -36.7224   23.2645 C   0  0  0  0  0  0
  -26.0082  -30.6882   21.3831 C   0  0  0  0  0  0
  -26.0789  -29.2978   20.7217 C   0  0  0  0  0  0
  -27.2286  -28.4175   20.7400 C   0  0  0  0  0  0
  -26.0318  -26.7592   19.4735 C   0  0  0  0  0  0
  -24.8980  -27.6095   19.4547 C   0  0  0  0  0  0
  -23.6801  -29.7710   20.1440 C   0  0  0  0  0  0
  -25.4137  -36.2973   24.0300 C   0  0  1  0  0  0
  -20.5886  -28.3712   23.1204 C   0  0  2  0  0  0
  -20.6752  -26.9361   22.5419 C   0  0  0  0  0  0
  -19.5717  -26.6256   21.5221 C   0  0  0  0  0  0
  -18.1933  -26.7890   22.1577 C   0  0  0  0  0  0
  -19.1553  -28.8839   23.2862 C   0  0  0  0  0  0
  -18.9418  -30.1419   23.8934 C   0  0  0  0  0  0
  -17.6417  -30.6489   24.0639 C   0  0  0  0  0  0
  -25.9091  -34.9364   23.5014 C   0  0  0  0  0  0
  -16.5341  -29.8966   23.6293 C   0  0  0  0  0  0
  -16.7288  -28.6396   23.0311 C   0  0  0  0  0  0
  -26.4528  -31.6560   25.0655 C   0  0  0  0  0  0
  -25.3726  -31.3747   26.1367 C   0  0  0  0  0  0
  -27.0423  -30.2937   24.6338 C   0  0  0  0  0  0
  -27.6033  -32.4342   25.7515 C   0  0  0  0  0  0
  -27.5553  -37.1789   24.8471 C   0  0  0  0  0  0
  -21.4221  -29.3061   22.3550 N   0  0  0  0  0  0
  -26.4271  -37.3717   23.9407 N   0  0  0  0  0  0
  -24.7224  -31.0120   22.0849 N   0  0  0  0  0  0
  -23.4146  -28.7988   23.2965 O   0  0  0  0  0  0
  -28.2704  -26.0886   20.3258 O   0  0  0  0  0  0
  -26.5660  -34.8941   22.4566 O   0  0  0  0  0  0
  -23.5582  -32.1181   23.7040 O   0  0  0  0  0  0
  -29.0357  -21.8265   20.2377 C   0  0  0  0  0  0
  -27.0114  -22.5615   20.0261 C   0  0  0  0  0  0
  -28.2529  -23.1047   20.0401 C   0  0  0  0  0  0
  -28.3036  -20.5844   20.1907 C   0  0  0  0  0  0
  -27.4448  -18.2340   21.1644 C   0  0  0  0  0  0
  -27.6524  -18.6825   22.6231 C   0  0  0  0  0  0
  -30.0110  -17.9954   22.2853 C   0  0  0  0  0  0
  -28.5240  -18.8767   20.2537 C   0  0  1  0  0  0
  -29.7963  -17.8216   20.7363 C   0  0  1  0  0  0
  -25.8674  -19.5773   18.2990 C   0  0  0  0  0  0
  -24.5366  -21.4414   19.2597 C   0  0  0  0  0  0
  -28.5269  -24.7136   19.6113 C   0  0  0  0  0  0
  -25.7239  -20.4804   19.5410 C   0  0  0  0  0  0
  -27.0054  -21.1551   19.9150 N   0  0  0  0  0  0
  -29.6743  -16.2167   20.5174 N   0  0  0  0  0  0
  -29.0831  -18.9754   22.9045 N   0  3  0  0  0  0
  -31.4709  -12.8665   19.1780 H   0  0  0  0  0  0
  -30.4880  -11.7245   20.0523 H   0  0  0  0  0  0
  -29.8729  -11.7543   17.6045 H   0  0  0  0  0  0
  -29.6018  -13.4789   17.6634 H   0  0  0  0  0  0
  -27.9650  -11.2859   18.9697 H   0  0  0  0  0  0
  -27.4096  -12.4632   17.8087 H   0  0  0  0  0  0
  -27.5771  -14.2565   19.3929 H   0  0  0  0  0  0
  -28.7832  -12.3440   21.4386 H   0  0  0  0  0  0
  -28.3467  -14.0010   21.7405 H   0  0  0  0  0  0
  -25.2756   -9.5700   22.4776 H   0  0  0  0  0  0
  -24.0017   -7.4637   22.7460 H   0  0  0  0  0  0
  -21.0840   -8.8752   19.8967 H   0  0  0  0  0  0
  -22.3651  -10.9686   19.6211 H   0  0  0  0  0  0
  -21.1979   -7.6151   23.9701 H   0  0  0  0  0  0
  -21.1496   -6.0531   25.9064 H   0  0  0  0  0  0
  -22.0588   -2.7627   23.2838 H   0  0  0  0  0  0
  -22.4056  -11.9888   22.4864 H   0  0  0  0  0  0
  -21.1068  -13.1261   22.2606 H   0  0  0  0  0  0
  -24.5826  -15.7812   20.3942 H   0  0  0  0  0  0
  -26.1357  -15.5524   19.7991 H   0  0  0  0  0  0
  -26.7311  -32.5209   23.0873 H   0  0  0  0  0  0
  -25.0189  -33.9512   25.0292 H   0  0  0  0  0  0
  -22.7567  -31.2774   21.3662 H   0  0  0  0  0  0
  -23.3750  -35.9543   23.3273 H   0  0  0  0  0  0
  -24.3587  -36.8894   22.2063 H   0  0  0  0  0  0
  -23.7274  -37.6436   23.6694 H   0  0  0  0  0  0
  -26.1745  -31.4400   20.6083 H   0  0  0  0  0  0
  -26.8765  -30.7335   22.0287 H   0  0  0  0  0  0
  -28.1166  -28.7363   21.2675 H   0  0  0  0  0  0
  -25.9466  -25.7929   19.0027 H   0  0  0  0  0  0
  -24.0017  -27.2685   18.9547 H   0  0  0  0  0  0
  -23.8182  -30.5387   19.3856 H   0  0  0  0  0  0
  -22.7926  -29.2144   19.8279 H   0  0  0  0  0  0
  -25.1310  -36.1753   25.0784 H   0  0  0  0  0  0
  -20.9897  -28.3421   24.1375 H   0  0  0  0  0  0
  -21.6627  -26.7273   22.1271 H   0  0  0  0  0  0
  -20.5678  -26.2320   23.3686 H   0  0  0  0  0  0
  -19.6833  -25.6095   21.1396 H   0  0  0  0  0  0
  -19.6660  -27.2844   20.6578 H   0  0  0  0  0  0
  -17.4192  -26.6549   21.4018 H   0  0  0  0  0  0
  -18.0313  -26.0051   22.8940 H   0  0  0  0  0  0
  -19.7886  -30.7208   24.2336 H   0  0  0  0  0  0
  -17.4950  -31.6089   24.5371 H   0  0  0  0  0  0
  -15.5330  -30.2818   23.7671 H   0  0  0  0  0  0
  -15.8717  -28.0589   22.7135 H   0  0  0  0  0  0
  -24.5922  -30.7059   25.7710 H   0  0  0  0  0  0
  -24.8922  -32.2931   26.4738 H   0  0  0  0  0  0
  -25.8069  -30.8988   27.0182 H   0  0  0  0  0  0
  -26.3057  -29.6671   24.1297 H   0  0  0  0  0  0
  -27.3885  -29.7247   25.4990 H   0  0  0  0  0  0
  -27.9024  -30.4108   23.9750 H   0  0  0  0  0  0
  -27.2561  -33.3653   26.2005 H   0  0  0  0  0  0
  -28.3940  -32.6899   25.0445 H   0  0  0  0  0  0
  -28.0577  -31.8523   26.5545 H   0  0  0  0  0  0
  -28.2546  -38.0103   24.7482 H   0  0  0  0  0  0
  -28.1070  -36.2630   24.6301 H   0  0  0  0  0  0
  -27.2276  -37.1442   25.8882 H   0  0  0  0  0  0
  -20.9432  -29.8975   21.6895 H   0  0  0  0  0  0
  -26.0100  -38.2754   24.1477 H   0  0  0  0  0  0
  -30.1150  -21.8302   20.3151 H   0  0  0  0  0  0
  -26.1104  -23.1451   19.9292 H   0  0  0  0  0  0
  -26.4272  -18.3453   20.8367 H   0  0  0  0  0  0
  -27.5040  -17.1496   21.1514 H   0  0  0  0  0  0
  -27.3124  -17.8945   23.2965 H   0  0  0  0  0  0
  -27.0381  -19.5583   22.8395 H   0  0  0  0  0  0
  -29.8472  -17.0491   22.8039 H   0  0  0  0  0  0
  -31.0355  -18.3080   22.5047 H   0  0  0  0  0  0
  -28.3798  -18.5485   19.2256 H   0  0  0  0  0  0
  -30.7053  -18.1582   20.2293 H   0  0  0  0  0  0
  -26.3397  -20.1037   17.4660 H   0  0  0  0  0  0
  -24.8922  -19.2340   17.9503 H   0  0  0  0  0  0
  -26.4254  -18.6665   18.4841 H   0  0  0  0  0  0
  -23.6613  -20.9075   18.8809 H   0  0  0  0  0  0
  -24.7894  -22.1905   18.5120 H   0  0  0  0  0  0
  -24.2128  -21.9529   20.1644 H   0  0  0  0  0  0
  -28.0311  -24.8168   18.6469 H   0  0  0  0  0  0
  -29.5845  -24.7386   19.3501 H   0  0  0  0  0  0
  -25.3594  -19.9230   20.3924 H   0  0  0  0  0  0
  -28.7109  -15.9282   20.5619 H   0  0  0  0  0  0
  -29.2268  -19.0188   23.9031 H   0  0  0  0  0  0
  -29.2872  -19.8920   22.5447 H   0  0  0  0  0  0
  1 25  1  0  0  0
  1 30  2  0  0  0
  1 85  1  0  0  0
  2  3  1  0  0  0
  2 25  1  0  0  0
  2 87  1  0  0  0
  2 88  1  0  0  0
  3  4  1  0  0  0
  3 89  1  0  0  0
  3 90  1  0  0  0
  4  5  1  0  0  0
  4 91  1  0  0  0
  4 92  1  0  0  0
  5  6  1  0  0  0
  5 26  1  0  0  0
  5 93  1  0  0  0
  6 25  1  0  0  0
  6 94  1  0  0  0
  6 95  1  0  0  0
  7  8  2  0  0  0
  7 26  1  0  0  0
  7 29  1  0  0  0
  8  9  1  0  0  0
  8 22  1  0  0  0
  9 10  1  0  0  0
  9 27  2  0  0  0
 10 11  2  0  0  0
 10 15  1  0  0  0
 11 12  1  0  0  0
 11 96  1  0  0  0
 12 13  2  0  0  0
 12 97  1  0  0  0
 13 14  1  0  0  0
 13 31  1  0  0  0
 14 15  2  0  0  0
 14 98  1  0  0  0
 15 99  1  0  0  0
 16 17  2  0  0  0
 16 21  1  0  0  0
 16 31  1  0  0  0
 17 18  1  0  0  0
 17100  1  0  0  0
 18 19  2  0  0  0
 18101  1  0  0  0
 19 20  1  0  0  0
 19 24  1  0  0  0
 20 21  2  0  0  0
 20102  1  0  0  0
 21 23  1  0  0  0
 22 28  1  0  0  0
 22 32  2  0  0  0
 26 27  1  0  0  0
 28103  1  0  0  0
 28104  1  0  0  0
 29105  1  0  0  0
 29106  1  0  0  0
 33 34  1  0  0  0
 33 66  1  0  0  0
 33 70  2  0  0  0
 34 36  1  0  0  0
 34 59  1  0  0  0
 34107  1  0  0  0
 35 44  2  0  0  0
 35 45  1  0  0  0
 35 68  1  0  0  0
 36 56  1  0  0  0
 36108  1  0  0  0
 37 39  1  0  0  0
 37 47  1  0  0  0
 37 66  1  0  0  0
 37109  1  0  0  0
 38 43  2  0  0  0
 38 46  1  0  0  0
 38 47  1  0  0  0
 39 64  1  0  0  0
 39 67  2  0  0  0
 40 52  1  0  0  0
 40 53  2  0  0  0
 40 58  1  0  0  0
 41110  1  0  0  0
 41111  1  0  0  0
 41112  1  0  0  0
 41 48  1  0  0  0
 42 43  1  0  0  0
 42 66  1  0  0  0
 42113  1  0  0  0
 42114  1  0  0  0
 43 44  1  0  0  0
 44115  1  0  0  0
 45 46  2  0  0  0
 45116  1  0  0  0
 46117  1  0  0  0
 47118  1  0  0  0
 47119  1  0  0  0
 48 56  1  0  0  0
 48 65  1  0  0  0
 48120  1  0  0  0
 49 50  1  0  0  0
 49 53  1  0  0  0
 49 64  1  0  0  0
 49121  1  0  0  0
 50 51  1  0  0  0
 50122  1  0  0  0
 50123  1  0  0  0
 51 52  1  0  0  0
 51124  1  0  0  0
 51125  1  0  0  0
 52126  1  0  0  0
 52127  1  0  0  0
 53 54  1  0  0  0
 54 55  2  0  0  0
 54128  1  0  0  0
 55 57  1  0  0  0
 55129  1  0  0  0
 56 69  2  0  0  0
 57 58  2  0  0  0
 57130  1  0  0  0
 58131  1  0  0  0
 59 60  1  0  0  0
 59 61  1  0  0  0
 59 62  1  0  0  0
 60132  1  0  0  0
 60133  1  0  0  0
 60134  1  0  0  0
 61135  1  0  0  0
 61136  1  0  0  0
 61137  1  0  0  0
 62138  1  0  0  0
 62139  1  0  0  0
 62140  1  0  0  0
 63 65  1  0  0  0
 63141  1  0  0  0
 63142  1  0  0  0
 63143  1  0  0  0
 64144  1  0  0  0
 65145  1  0  0  0
 68 82  1  0  0  0
 71 73  1  0  0  0
 71 74  2  0  0  0
 71146  1  0  0  0
 72 73  2  0  0  0
 72 84  1  0  0  0
 72147  1  0  0  0
 73 82  1  0  0  0
 74 84  1  0  0  0
 74 78  1  0  0  0
 75 76  1  0  0  0
 75 78  1  0  0  0
 75148  1  0  0  0
 75149  1  0  0  0
 76 86  1  0  0  0
 76150  1  0  0  0
 76151  1  0  0  0
 77 79  1  0  0  0
 77 86  1  0  0  0
 77152  1  0  0  0
 77153  1  0  0  0
 78 79  1  0  0  0
 78154  1  0  0  0
 79 85  1  0  0  0
 79155  1  0  0  0
 80156  1  0  0  0
 80157  1  0  0  0
 80158  1  0  0  0
 80 83  1  0  0  0
 81 83  1  0  0  0
 81159  1  0  0  0
 81160  1  0  0  0
 81161  1  0  0  0
 82162  1  0  0  0
 82163  1  0  0  0
 83 84  1  0  0  0
 83164  1  0  0  0
 85165  1  0  0  0
 86166  1  0  0  0
 86167  1  0  0  0
M  CHG  1  86   1
M  ISO  4   1 100  68 101  82 101  85 100
M  END
> <chiral flag>
0

> <version>
0

> <s_m_source_file>
/data/baiqing/PycharmProjects/Reinvent-master-3.2/result/LINK_invent/BTK/process_docking_weight1_custom_sum_contain_oxygen_bond_distance_aromatic_linkinvent_7_9_3/rearranged_h_0135.sdf

> <i_m_source_file_index>
83

> <r_mmod_Potential_Energy-OPLS-2005>
673.821960449219

> <r_mmod_Stretch_Energy-OPLS-2005>
366.468963623047

> <r_mmod_Bend_Energy-OPLS-2005>
397.159057617188

> <r_mmod_Torsional_Energy-OPLS-2005>
342.799224853516

> <r_mmod_Improper_Torsional_Energy-OPLS-2005>
10.2877893447876

> <r_mmod_Van_der_Waal_Energy-OPLS-2005>
139.545349121094

> <r_mmod_Electrostatic_Energy-OPLS-2005>
-372.467102050781

> <r_mmod_Solvation_Energy-OPLS-2005>
-472.470245361328

> <b_mmod_Minimization_Converged-OPLS-2005>
0

> <r_mmod_RMS_Derivative-OPLS-2005>
9.03710460662842

$$$$
83
                    3D
 Structure written by MMmdl.
156164  0  0  1  0            999 V2000
  -30.5103  -15.0683   20.3991 C   0  0  0  0  0  0
  -30.4313  -12.6668   19.5195 C   0  0  0  0  0  0
  -29.5240  -12.5416   18.2728 C   0  0  0  0  0  0
  -28.0634  -12.3036   18.6971 C   0  0  0  0  0  0
  -27.6197  -13.2601   19.8341 C   0  0  2  0  0  0
  -28.6561  -13.3538   20.9733 C   0  0  0  0  0  0
  -25.2408  -13.8229   20.5727 C   0  0  0  0  0  0
  -24.1741  -13.0431   20.9237 C   0  0  0  0  0  0
  -24.6382  -11.6926   20.8770 C   0  0  0  0  0  0
  -23.9077  -10.4289   21.0416 C   0  0  0  0  0  0
  -24.3625   -9.4202   21.9193 C   0  0  0  0  0  0
  -23.6294   -8.2239   22.0762 C   0  0  0  0  0  0
  -22.4278   -8.0280   21.3542 C   0  0  0  0  0  0
  -21.9919   -9.0257   20.4644 C   0  0  0  0  0  0
  -22.7255  -10.2132   20.3060 C   0  0  0  0  0  0
  -21.6853   -6.0737   22.5276 C   0  0  0  0  0  0
  -21.4014   -6.5642   23.8210 C   0  0  0  0  0  0
  -21.3656   -5.6798   24.9172 C   0  0  0  0  0  0
  -21.6036   -4.3056   24.7219 C   0  0  0  0  0  0
  -21.8819   -3.8145   23.4341 C   0  0  0  0  0  0
  -21.9192   -4.6966   22.3400 C   0  0  0  0  0  0
  -22.7757  -13.5189   21.1892 C   0  0  0  0  0  0
  -22.1660   -4.2149   21.0971 F   0  0  0  0  0  0
  -21.5628   -3.4542   25.7737 F   0  0  0  0  0  0
  -29.9167  -13.7958   20.3635 N   0  0  0  0  0  0
  -26.2839  -12.9484   20.3255 N   0  0  0  0  0  0
  -25.9313  -11.6605   20.5748 N   0  0  0  0  0  0
  -22.0431  -12.8161   22.0455 N   0  0  0  0  0  0
  -25.4066  -15.1961   20.4145 N   0  0  0  0  0  0
  -31.7159  -15.0855   20.1273 O   0  0  0  0  0  0
  -21.6641   -6.8875   21.4233 O   0  0  0  0  0  0
  -22.3441  -14.5506   20.6752 O   0  0  0  0  0  0
  -24.6512  -31.8335   23.1821 C   0  0  0  0  0  0
  -25.9224  -32.4667   23.8245 C   0  0  1  0  0  0
  -27.2140  -27.0405   20.1682 C   0  0  0  0  0  0
  -25.5946  -33.8491   24.2145 N   0  0  0  0  0  0
  -23.4620  -30.4499   21.5271 C   0  0  2  0  0  0
  -24.9128  -28.8614   20.1090 C   0  0  0  0  0  0
  -22.7618  -29.4472   22.4813 C   0  0  0  0  0  0
  -18.0305  -28.1396   22.8473 C   0  0  0  0  0  0
  -24.1474  -36.7238   23.2652 C   0  0  0  0  0  0
  -26.0243  -30.6782   21.3927 C   0  0  0  0  0  0
  -26.0920  -29.2796   20.7381 C   0  0  0  0  0  0
  -27.2401  -28.3861   20.7480 C   0  0  0  0  0  0
  -26.0092  -26.7503   19.4912 C   0  0  0  0  0  0
  -24.8898  -27.6139   19.4676 C   0  0  0  0  0  0
  -23.6931  -29.7729   20.1492 C   0  0  0  0  0  0
  -25.4108  -36.3027   24.0324 C   0  0  1  0  0  0
  -20.5933  -28.3713   23.1217 C   0  0  2  0  0  0
  -20.6783  -26.9408   22.5396 C   0  0  0  0  0  0
  -19.5749  -26.6362   21.5220 C   0  0  0  0  0  0
  -18.1930  -26.7943   22.1617 C   0  0  0  0  0  0
  -19.1574  -28.8875   23.2844 C   0  0  0  0  0  0
  -18.9494  -30.1477   23.8870 C   0  0  0  0  0  0
  -17.6487  -30.6602   24.0553 C   0  0  0  0  0  0
  -25.9060  -34.9399   23.5037 C   0  0  0  0  0  0
  -16.5375  -29.9077   23.6347 C   0  0  0  0  0  0
  -16.7285  -28.6494   23.0376 C   0  0  0  0  0  0
  -26.4528  -31.6602   25.0731 C   0  0  0  0  0  0
  -25.3674  -31.3811   26.1399 C   0  0  0  0  0  0
  -27.0411  -30.3000   24.6336 C   0  0  0  0  0  0
  -27.6052  -32.4379   25.7497 C   0  0  0  0  0  0
  -27.5561  -37.1784   24.8476 C   0  0  0  0  0  0
  -21.4298  -29.3052   22.3602 N   0  0  0  0  0  0
  -26.4270  -37.3754   23.9430 N   0  0  0  0  0  0
  -24.7330  -31.0096   22.0897 N   0  0  0  0  0  0
  -23.4235  -28.7996   23.2973 O   0  0  0  0  0  0
  -28.2334  -25.9938   20.2571 O   0  0  0  0  0  0
  -26.5642  -34.8917   22.4621 O   0  0  0  0  0  0
  -23.5590  -32.1228   23.6972 O   0  0  0  0  0  0
  -28.2973  -21.8383   21.3494 C   0  0  0  0  0  0
  -28.9388  -21.9000   19.0807 C   0  0  0  0  0  0
  -29.0121  -20.3553   21.5152 C   0  0  0  0  0  0
  -29.7004  -20.4602   19.2563 C   0  0  0  0  0  0
  -28.8116  -22.9482   20.2920 C   0  0  1  0  0  0
  -29.1955  -19.3267   20.2788 C   0  0  1  0  0  0
  -31.3760  -18.1885   21.2611 C   0  0  0  0  0  0
  -27.9389  -24.4408   20.0297 C   0  0  0  0  0  0
  -30.1658  -17.8746   20.3661 C   0  0  1  0  0  0
  -29.7688  -16.3098   20.5362 N   0  0  0  0  0  0
  -31.4655  -12.8221   19.2080 H   0  0  0  0  0  0
  -30.4335  -11.7351   20.0860 H   0  0  0  0  0  0
  -29.8652  -11.7268   17.6327 H   0  0  0  0  0  0
  -29.5895  -13.4517   17.6762 H   0  0  0  0  0  0
  -27.9885  -11.2701   19.0388 H   0  0  0  0  0  0
  -27.3934  -12.3891   17.8406 H   0  0  0  0  0  0
  -27.5618  -14.2474   19.3748 H   0  0  0  0  0  0
  -28.7729  -12.3971   21.4853 H   0  0  0  0  0  0
  -28.3327  -14.0739   21.7268 H   0  0  0  0  0  0
  -25.2772   -9.5680   22.4773 H   0  0  0  0  0  0
  -24.0000   -7.4630   22.7488 H   0  0  0  0  0  0
  -21.0855   -8.8763   19.8950 H   0  0  0  0  0  0
  -22.3710  -10.9665   19.6166 H   0  0  0  0  0  0
  -21.2006   -7.6160   23.9709 H   0  0  0  0  0  0
  -21.1476   -6.0533   25.9073 H   0  0  0  0  0  0
  -22.0599   -2.7612   23.2839 H   0  0  0  0  0  0
  -22.4061  -11.9803   22.4796 H   0  0  0  0  0  0
  -21.1046  -13.1159   22.2692 H   0  0  0  0  0  0
  -24.6361  -15.8472   20.5243 H   0  0  0  0  0  0
  -26.2466  -15.6361   20.0616 H   0  0  0  0  0  0
  -26.7275  -32.5247   23.0953 H   0  0  0  0  0  0
  -25.0181  -33.9612   25.0351 H   0  0  0  0  0  0
  -22.7707  -31.2796   21.3641 H   0  0  0  0  0  0
  -23.3765  -35.9541   23.3297 H   0  0  0  0  0  0
  -24.3560  -36.8875   22.2071 H   0  0  0  0  0  0
  -23.7181  -37.6410   23.6685 H   0  0  0  0  0  0
  -26.1802  -31.4238   20.6124 H   0  0  0  0  0  0
  -26.8965  -30.7395   22.0317 H   0  0  0  0  0  0
  -28.1355  -28.6938   21.2679 H   0  0  0  0  0  0
  -25.8922  -25.7978   18.9951 H   0  0  0  0  0  0
  -23.9932  -27.2892   18.9577 H   0  0  0  0  0  0
  -23.8321  -30.5426   19.3900 H   0  0  0  0  0  0
  -22.8072  -29.2164   19.8377 H   0  0  0  0  0  0
  -25.1301  -36.1855   25.0814 H   0  0  0  0  0  0
  -21.0027  -28.3283   24.1335 H   0  0  0  0  0  0
  -20.5682  -26.2329   23.3619 H   0  0  0  0  0  0
  -21.6639  -26.7391   22.1193 H   0  0  0  0  0  0
  -19.6912  -25.6263   21.1260 H   0  0  0  0  0  0
  -19.6704  -27.3160   20.6749 H   0  0  0  0  0  0
  -17.4210  -26.6723   21.4002 H   0  0  0  0  0  0
  -18.0287  -26.0102   22.9013 H   0  0  0  0  0  0
  -19.7986  -30.7289   24.2247 H   0  0  0  0  0  0
  -17.5043  -31.6296   24.5117 H   0  0  0  0  0  0
  -15.5373  -30.2969   23.7702 H   0  0  0  0  0  0
  -15.8689  -28.0787   22.7139 H   0  0  0  0  0  0
  -24.5900  -30.7106   25.7714 H   0  0  0  0  0  0
  -24.8819  -32.2998   26.4698 H   0  0  0  0  0  0
  -25.7930  -30.9084   27.0259 H   0  0  0  0  0  0
  -26.3052  -29.6713   24.1300 H   0  0  0  0  0  0
  -27.3998  -29.7300   25.4923 H   0  0  0  0  0  0
  -27.8959  -30.4274   23.9688 H   0  0  0  0  0  0
  -27.2688  -33.3775   26.1878 H   0  0  0  0  0  0
  -28.3952  -32.6767   25.0368 H   0  0  0  0  0  0
  -28.0589  -31.8615   26.5562 H   0  0  0  0  0  0
  -28.2575  -38.0083   24.7532 H   0  0  0  0  0  0
  -28.1061  -36.2625   24.6288 H   0  0  0  0  0  0
  -27.2296  -37.1392   25.8880 H   0  0  0  0  0  0
  -20.9504  -29.8827   21.6834 H   0  0  0  0  0  0
  -26.0135  -38.2816   24.1449 H   0  0  0  0  0  0
  -28.3000  -22.3104   22.3336 H   0  0  0  0  0  0
  -27.2418  -21.6605   21.1380 H   0  0  0  0  0  0
  -27.9300  -21.6875   18.7238 H   0  0  0  0  0  0
  -29.4176  -22.4218   18.2516 H   0  0  0  0  0  0
  -28.4744  -19.8196   22.2996 H   0  0  0  0  0  0
  -29.9979  -20.5374   21.9440 H   0  0  0  0  0  0
  -30.7426  -20.6782   19.4965 H   0  0  0  0  0  0
  -29.7442  -20.0002   18.2681 H   0  0  0  0  0  0
  -29.8266  -23.2317   20.5767 H   0  0  0  0  0  0
  -28.2009  -19.0213   19.9504 H   0  0  0  0  0  0
  -31.8537  -19.1199   20.9557 H   0  0  0  0  0  0
  -32.1408  -17.4164   21.2043 H   0  0  0  0  0  0
  -31.0851  -18.2983   22.3054 H   0  0  0  0  0  0
  -26.9705  -24.2717   20.4986 H   0  0  0  0  0  0
  -27.7203  -24.4094   18.9623 H   0  0  0  0  0  0
  -30.5732  -17.8318   19.3541 H   0  0  0  0  0  0
  -28.7883  -16.1556   20.7214 H   0  0  0  0  0  0
  1 25  1  0  0  0
  1 30  2  0  0  0
  1 80  1  0  0  0
  2  3  1  0  0  0
  2 25  1  0  0  0
  2 81  1  0  0  0
  2 82  1  0  0  0
  3  4  1  0  0  0
  3 83  1  0  0  0
  3 84  1  0  0  0
  4  5  1  0  0  0
  4 85  1  0  0  0
  4 86  1  0  0  0
  5  6  1  0  0  0
  5 26  1  0  0  0
  5 87  1  0  0  0
  6 25  1  0  0  0
  6 88  1  0  0  0
  6 89  1  0  0  0
  7  8  2  0  0  0
  7 26  1  0  0  0
  7 29  1  0  0  0
  8  9  1  0  0  0
  8 22  1  0  0  0
  9 10  1  0  0  0
  9 27  2  0  0  0
 10 11  2  0  0  0
 10 15  1  0  0  0
 11 12  1  0  0  0
 11 90  1  0  0  0
 12 13  2  0  0  0
 12 91  1  0  0  0
 13 14  1  0  0  0
 13 31  1  0  0  0
 14 15  2  0  0  0
 14 92  1  0  0  0
 15 93  1  0  0  0
 16 17  2  0  0  0
 16 21  1  0  0  0
 16 31  1  0  0  0
 17 18  1  0  0  0
 17 94  1  0  0  0
 18 19  2  0  0  0
 18 95  1  0  0  0
 19 20  1  0  0  0
 19 24  1  0  0  0
 20 21  2  0  0  0
 20 96  1  0  0  0
 21 23  1  0  0  0
 22 28  1  0  0  0
 22 32  2  0  0  0
 26 27  1  0  0  0
 28 97  1  0  0  0
 28 98  1  0  0  0
 29 99  1  0  0  0
 29100  1  0  0  0
 33 34  1  0  0  0
 33 66  1  0  0  0
 33 70  2  0  0  0
 34 36  1  0  0  0
 34 59  1  0  0  0
 34101  1  0  0  0
 35 44  2  0  0  0
 35 45  1  0  0  0
 35 68  1  0  0  0
 36 56  1  0  0  0
 36102  1  0  0  0
 37 39  1  0  0  0
 37 47  1  0  0  0
 37 66  1  0  0  0
 37103  1  0  0  0
 38 43  2  0  0  0
 38 46  1  0  0  0
 38 47  1  0  0  0
 39 64  1  0  0  0
 39 67  2  0  0  0
 40 52  1  0  0  0
 40 53  2  0  0  0
 40 58  1  0  0  0
 41104  1  0  0  0
 41105  1  0  0  0
 41106  1  0  0  0
 41 48  1  0  0  0
 42 43  1  0  0  0
 42 66  1  0  0  0
 42107  1  0  0  0
 42108  1  0  0  0
 43 44  1  0  0  0
 44109  1  0  0  0
 45 46  2  0  0  0
 45110  1  0  0  0
 46111  1  0  0  0
 47112  1  0  0  0
 47113  1  0  0  0
 48 56  1  0  0  0
 48 65  1  0  0  0
 48114  1  0  0  0
 49 50  1  0  0  0
 49 53  1  0  0  0
 49 64  1  0  0  0
 49115  1  0  0  0
 50 51  1  0  0  0
 50116  1  0  0  0
 50117  1  0  0  0
 51 52  1  0  0  0
 51118  1  0  0  0
 51119  1  0  0  0
 52120  1  0  0  0
 52121  1  0  0  0
 53 54  1  0  0  0
 54 55  2  0  0  0
 54122  1  0  0  0
 55 57  1  0  0  0
 55123  1  0  0  0
 56 69  2  0  0  0
 57 58  2  0  0  0
 57124  1  0  0  0
 58125  1  0  0  0
 59 60  1  0  0  0
 59 61  1  0  0  0
 59 62  1  0  0  0
 60126  1  0  0  0
 60127  1  0  0  0
 60128  1  0  0  0
 61129  1  0  0  0
 61130  1  0  0  0
 61131  1  0  0  0
 62132  1  0  0  0
 62133  1  0  0  0
 62134  1  0  0  0
 63 65  1  0  0  0
 63135  1  0  0  0
 63136  1  0  0  0
 63137  1  0  0  0
 64138  1  0  0  0
 65139  1  0  0  0
 68 78  1  0  0  0
 71 73  1  0  0  0
 71 75  1  0  0  0
 71140  1  0  0  0
 71141  1  0  0  0
 72 74  1  0  0  0
 72 75  1  0  0  0
 72142  1  0  0  0
 72143  1  0  0  0
 73144  1  0  0  0
 73145  1  0  0  0
 73 76  1  0  0  0
 74 76  1  0  0  0
 74146  1  0  0  0
 74147  1  0  0  0
 75 78  1  0  0  0
 75148  1  0  0  0
 76 79  1  0  0  0
 76149  1  0  0  0
 77150  1  0  0  0
 77151  1  0  0  0
 77152  1  0  0  0
 77 79  1  0  0  0
 78153  1  0  0  0
 78154  1  0  0  0
 79 80  1  0  0  0
 79155  1  0  0  0
 80156  1  0  0  0
M  ISO  4   1 100  68 101  78 101  80 100
M  END
> <chiral flag>
0

> <version>
0

> <s_m_source_file>
/data/baiqing/PycharmProjects/Reinvent-master-3.2/result/LINK_invent/BTK/process_docking_weight1_custom_sum_contain_oxygen_bond_distance_aromatic_linkinvent_7_9_3/rearranged_h_0135.sdf

> <i_m_source_file_index>
84

> <r_mmod_Potential_Energy-OPLS-2005>
848.515747070312

> <r_mmod_Stretch_Energy-OPLS-2005>
368.489227294922

> <r_mmod_Bend_Energy-OPLS-2005>
373.450622558594

> <r_mmod_Torsional_Energy-OPLS-2005>
253.375106811523

> <r_mmod_Improper_Torsional_Energy-OPLS-2005>
4.09218645095825

> <r_mmod_Van_der_Waal_Energy-OPLS-2005>
117.30598449707

> <r_mmod_Electrostatic_Energy-OPLS-2005>
-355.255859375

> <r_mmod_Solvation_Energy-OPLS-2005>
-201.726165771484

> <b_mmod_Minimization_Converged-OPLS-2005>
0

> <r_mmod_RMS_Derivative-OPLS-2005>
2.83057975769043

$$$$
84
                    3D
 Structure written by MMmdl.
159168  0  0  1  0            999 V2000
  -30.4850  -14.9471   20.4248 C   0  0  0  0  0  0
  -30.4502  -12.5848   19.4979 C   0  0  0  0  0  0
  -29.5253  -12.5333   18.2568 C   0  0  0  0  0  0
  -28.0562  -12.3180   18.6710 C   0  0  0  0  0  0
  -27.6338  -13.2394   19.8463 C   0  0  2  0  0  0
  -28.6752  -13.2309   20.9861 C   0  0  0  0  0  0
  -25.2479  -13.8176   20.5669 C   0  0  0  0  0  0
  -24.1792  -13.0420   20.9211 C   0  0  0  0  0  0
  -24.6395  -11.6909   20.8765 C   0  0  0  0  0  0
  -23.9069  -10.4292   21.0424 C   0  0  0  0  0  0
  -24.3620   -9.4208   21.9196 C   0  0  0  0  0  0
  -23.6297   -8.2240   22.0762 C   0  0  0  0  0  0
  -22.4278   -8.0276   21.3548 C   0  0  0  0  0  0
  -21.9915   -9.0246   20.4640 C   0  0  0  0  0  0
  -22.7248  -10.2126   20.3061 C   0  0  0  0  0  0
  -21.6847   -6.0739   22.5276 C   0  0  0  0  0  0
  -21.4003   -6.5644   23.8208 C   0  0  0  0  0  0
  -21.3656   -5.6787   24.9165 C   0  0  0  0  0  0
  -21.6040   -4.3051   24.7219 C   0  0  0  0  0  0
  -21.8820   -3.8147   23.4339 C   0  0  0  0  0  0
  -21.9192   -4.6967   22.3402 C   0  0  0  0  0  0
  -22.7821  -13.5203   21.1862 C   0  0  0  0  0  0
  -22.1658   -4.2152   21.0982 F   0  0  0  0  0  0
  -21.5636   -3.4535   25.7734 F   0  0  0  0  0  0
  -29.9540  -13.6604   20.4024 N   0  0  0  0  0  0
  -26.2904  -12.9400   20.3247 N   0  0  0  0  0  0
  -25.9325  -11.6539   20.5746 N   0  0  0  0  0  0
  -22.0456  -12.8206   22.0419 N   0  0  0  0  0  0
  -25.4133  -15.1893   20.4052 N   0  0  0  0  0  0
  -31.6699  -15.0835   20.0936 O   0  0  0  0  0  0
  -21.6637   -6.8880   21.4241 O   0  0  0  0  0  0
  -22.3523  -14.5514   20.6708 O   0  0  0  0  0  0
  -24.6421  -31.8421   23.1868 C   0  0  0  0  0  0
  -25.9206  -32.4675   23.8243 C   0  0  1  0  0  0
  -27.2214  -27.1361   20.1565 C   0  0  0  0  0  0
  -25.5973  -33.8488   24.2176 N   0  0  0  0  0  0
  -23.4436  -30.4584   21.5338 C   0  0  2  0  0  0
  -24.8900  -28.8789   20.1088 C   0  0  0  0  0  0
  -22.7552  -29.4522   22.4890 C   0  0  0  0  0  0
  -18.0292  -28.1384   22.8490 C   0  0  0  0  0  0
  -24.1462  -36.7202   23.2651 C   0  0  0  0  0  0
  -25.9966  -30.7170   21.3826 C   0  0  0  0  0  0
  -26.0641  -29.3276   20.7245 C   0  0  0  0  0  0
  -27.2249  -28.4720   20.7275 C   0  0  0  0  0  0
  -26.0199  -26.7802   19.5091 C   0  0  0  0  0  0
  -24.8808  -27.6188   19.4870 C   0  0  0  0  0  0
  -23.6653  -29.7803   20.1531 C   0  0  0  0  0  0
  -25.4110  -36.3016   24.0322 C   0  0  1  0  0  0
  -20.5908  -28.3694   23.1254 C   0  0  2  0  0  0
  -20.6770  -26.9403   22.5411 C   0  0  0  0  0  0
  -19.5745  -26.6366   21.5227 C   0  0  0  0  0  0
  -18.1920  -26.7921   22.1625 C   0  0  0  0  0  0
  -19.1553  -28.8862   23.2852 C   0  0  0  0  0  0
  -18.9477  -30.1465   23.8857 C   0  0  0  0  0  0
  -17.6477  -30.6583   24.0571 C   0  0  0  0  0  0
  -25.9085  -34.9403   23.5057 C   0  0  0  0  0  0
  -16.5366  -29.9079   23.6352 C   0  0  0  0  0  0
  -16.7278  -28.6501   23.0361 C   0  0  0  0  0  0
  -26.4559  -31.6554   25.0680 C   0  0  0  0  0  0
  -25.3750  -31.3738   26.1370 C   0  0  0  0  0  0
  -27.0465  -30.2967   24.6253 C   0  0  0  0  0  0
  -27.6066  -32.4351   25.7470 C   0  0  0  0  0  0
  -27.5560  -37.1736   24.8483 C   0  0  0  0  0  0
  -21.4248  -29.3020   22.3637 N   0  0  0  0  0  0
  -26.4256  -37.3749   23.9453 N   0  0  0  0  0  0
  -24.7137  -31.0281   22.0890 N   0  0  0  0  0  0
  -23.4198  -28.8080   23.3046 O   0  0  0  0  0  0
  -28.3303  -26.2230   20.2535 O   0  0  0  0  0  0
  -26.5670  -34.8916   22.4638 O   0  0  0  0  0  0
  -23.5547  -32.1304   23.7103 O   0  0  0  0  0  0
  -28.3898  -19.8018   21.1304 C   0  0  0  0  0  0
  -30.3156  -18.4211   19.6901 C   0  0  0  0  0  0
  -28.5814  -18.3626   21.2836 C   0  0  0  0  0  0
  -30.1151  -19.8617   19.5290 C   0  0  0  0  0  0
  -29.1142  -20.6495   20.2268 C   0  0  0  0  0  0
  -29.5545  -17.5734   20.5595 C   0  0  0  0  0  0
  -27.8901  -24.0186   18.6762 C   0  0  0  0  0  0
  -28.5303  -22.5817   18.6079 C   0  0  0  0  0  0
  -28.6019  -23.3481   20.8384 C   0  0  0  0  0  0
  -28.5009  -24.7031   19.9084 C   0  0  2  0  0  0
  -27.6610  -17.6559   22.2690 C   0  0  0  0  0  0
  -31.0564  -20.5527   18.5592 C   0  0  0  0  0  0
  -28.8206  -22.0994   19.9709 N   0  0  0  0  0  0
  -29.6157  -16.0394   20.6886 N   0  0  0  0  0  0
  -31.4811  -12.7648   19.1879 H   0  0  0  0  0  0
  -30.4596  -11.6249   20.0156 H   0  0  0  0  0  0
  -29.8447  -11.7394   17.5800 H   0  0  0  0  0  0
  -29.6121  -13.4661   17.6960 H   0  0  0  0  0  0
  -27.9468  -11.2741   18.9679 H   0  0  0  0  0  0
  -27.3930  -12.4582   17.8161 H   0  0  0  0  0  0
  -27.6051  -14.2485   19.4361 H   0  0  0  0  0  0
  -28.7625  -12.2383   21.4290 H   0  0  0  0  0  0
  -28.3720  -13.8981   21.7945 H   0  0  0  0  0  0
  -25.2762   -9.5677   22.4777 H   0  0  0  0  0  0
  -23.9992   -7.4625   22.7482 H   0  0  0  0  0  0
  -21.0844   -8.8764   19.8940 H   0  0  0  0  0  0
  -22.3708  -10.9668   19.6170 H   0  0  0  0  0  0
  -21.1989   -7.6151   23.9714 H   0  0  0  0  0  0
  -21.1469   -6.0517   25.9065 H   0  0  0  0  0  0
  -22.0606   -2.7610   23.2832 H   0  0  0  0  0  0
  -22.4061  -11.9875   22.4829 H   0  0  0  0  0  0
  -21.1076  -13.1253   22.2599 H   0  0  0  0  0  0
  -24.6303  -15.8277   20.4909 H   0  0  0  0  0  0
  -26.2292  -15.6199   19.9921 H   0  0  0  0  0  0
  -26.7249  -32.5263   23.0954 H   0  0  0  0  0  0
  -25.0149  -33.9605   25.0338 H   0  0  0  0  0  0
  -22.7473  -31.2852   21.3789 H   0  0  0  0  0  0
  -23.3792  -35.9461   23.3270 H   0  0  0  0  0  0
  -24.3554  -36.8876   22.2076 H   0  0  0  0  0  0
  -23.7111  -37.6340   23.6712 H   0  0  0  0  0  0
  -26.1579  -31.4743   20.6147 H   0  0  0  0  0  0
  -26.8661  -30.7618   22.0268 H   0  0  0  0  0  0
  -28.1213  -28.8161   21.2238 H   0  0  0  0  0  0
  -25.9290  -25.8154   19.0427 H   0  0  0  0  0  0
  -23.9779  -27.2698   19.0024 H   0  0  0  0  0  0
  -23.7967  -30.5540   19.3954 H   0  0  0  0  0  0
  -22.7785  -29.2208   19.8454 H   0  0  0  0  0  0
  -25.1285  -36.1833   25.0807 H   0  0  0  0  0  0
  -20.9982  -28.3261   24.1383 H   0  0  0  0  0  0
  -20.5674  -26.2313   23.3625 H   0  0  0  0  0  0
  -21.6628  -26.7380   22.1205 H   0  0  0  0  0  0
  -19.6911  -25.6284   21.1236 H   0  0  0  0  0  0
  -19.6681  -27.3192   20.6777 H   0  0  0  0  0  0
  -17.4196  -26.6695   21.4021 H   0  0  0  0  0  0
  -18.0289  -26.0055   22.9006 H   0  0  0  0  0  0
  -19.7966  -30.7294   24.2169 H   0  0  0  0  0  0
  -17.5046  -31.6259   24.5186 H   0  0  0  0  0  0
  -15.5364  -30.2978   23.7713 H   0  0  0  0  0  0
  -15.8676  -28.0818   22.7083 H   0  0  0  0  0  0
  -24.5934  -30.7092   25.7678 H   0  0  0  0  0  0
  -24.8954  -32.2933   26.4737 H   0  0  0  0  0  0
  -25.8038  -30.8934   27.0173 H   0  0  0  0  0  0
  -26.3090  -29.6653   24.1285 H   0  0  0  0  0  0
  -27.4164  -29.7284   25.4799 H   0  0  0  0  0  0
  -27.8947  -30.4262   23.9526 H   0  0  0  0  0  0
  -27.2643  -33.3709   26.1906 H   0  0  0  0  0  0
  -28.3947  -32.6817   25.0341 H   0  0  0  0  0  0
  -28.0658  -31.8573   26.5504 H   0  0  0  0  0  0
  -28.2535  -38.0076   24.7607 H   0  0  0  0  0  0
  -28.1082  -36.2611   24.6199 H   0  0  0  0  0  0
  -27.2296  -37.1231   25.8886 H   0  0  0  0  0  0
  -20.9468  -29.8745   21.6821 H   0  0  0  0  0  0
  -26.0116  -38.2788   24.1554 H   0  0  0  0  0  0
  -27.6049  -20.2644   21.7135 H   0  0  0  0  0  0
  -31.0790  -17.9459   19.0903 H   0  0  0  0  0  0
  -26.8143  -23.9080   18.8040 H   0  0  0  0  0  0
  -28.0636  -24.5817   17.7582 H   0  0  0  0  0  0
  -29.4582  -22.6451   18.0399 H   0  0  0  0  0  0
  -27.8755  -21.8885   18.0769 H   0  0  0  0  0  0
  -27.6816  -23.2234   21.4119 H   0  0  0  0  0  0
  -29.4174  -23.4441   21.5570 H   0  0  0  0  0  0
  -29.5448  -24.8005   19.6067 H   0  0  0  0  0  0
  -27.4021  -18.3137   23.0991 H   0  0  0  0  0  0
  -28.1193  -16.7667   22.7015 H   0  0  0  0  0  0
  -26.7351  -17.3598   21.7761 H   0  0  0  0  0  0
  -32.0140  -20.0335   18.5142 H   0  0  0  0  0  0
  -31.2664  -21.5772   18.8668 H   0  0  0  0  0  0
  -30.6297  -20.5645   17.5562 H   0  0  0  0  0  0
  -28.7454  -15.6702   21.0409 H   0  0  0  0  0  0
  1 25  1  0  0  0
  1 30  2  0  0  0
  1 84  1  0  0  0
  2  3  1  0  0  0
  2 25  1  0  0  0
  2 85  1  0  0  0
  2 86  1  0  0  0
  3  4  1  0  0  0
  3 87  1  0  0  0
  3 88  1  0  0  0
  4  5  1  0  0  0
  4 89  1  0  0  0
  4 90  1  0  0  0
  5  6  1  0  0  0
  5 26  1  0  0  0
  5 91  1  0  0  0
  6 25  1  0  0  0
  6 92  1  0  0  0
  6 93  1  0  0  0
  7  8  2  0  0  0
  7 26  1  0  0  0
  7 29  1  0  0  0
  8  9  1  0  0  0
  8 22  1  0  0  0
  9 10  1  0  0  0
  9 27  2  0  0  0
 10 11  2  0  0  0
 10 15  1  0  0  0
 11 12  1  0  0  0
 11 94  1  0  0  0
 12 13  2  0  0  0
 12 95  1  0  0  0
 13 14  1  0  0  0
 13 31  1  0  0  0
 14 15  2  0  0  0
 14 96  1  0  0  0
 15 97  1  0  0  0
 16 17  2  0  0  0
 16 21  1  0  0  0
 16 31  1  0  0  0
 17 18  1  0  0  0
 17 98  1  0  0  0
 18 19  2  0  0  0
 18 99  1  0  0  0
 19 20  1  0  0  0
 19 24  1  0  0  0
 20 21  2  0  0  0
 20100  1  0  0  0
 21 23  1  0  0  0
 22 28  1  0  0  0
 22 32  2  0  0  0
 26 27  1  0  0  0
 28101  1  0  0  0
 28102  1  0  0  0
 29103  1  0  0  0
 29104  1  0  0  0
 33 34  1  0  0  0
 33 66  1  0  0  0
 33 70  2  0  0  0
 34 36  1  0  0  0
 34 59  1  0  0  0
 34105  1  0  0  0
 35 44  2  0  0  0
 35 45  1  0  0  0
 35 68  1  0  0  0
 36 56  1  0  0  0
 36106  1  0  0  0
 37 39  1  0  0  0
 37 47  1  0  0  0
 37 66  1  0  0  0
 37107  1  0  0  0
 38 43  2  0  0  0
 38 46  1  0  0  0
 38 47  1  0  0  0
 39 64  1  0  0  0
 39 67  2  0  0  0
 40 52  1  0  0  0
 40 53  2  0  0  0
 40 58  1  0  0  0
 41108  1  0  0  0
 41109  1  0  0  0
 41110  1  0  0  0
 41 48  1  0  0  0
 42 43  1  0  0  0
 42 66  1  0  0  0
 42111  1  0  0  0
 42112  1  0  0  0
 43 44  1  0  0  0
 44113  1  0  0  0
 45 46  2  0  0  0
 45114  1  0  0  0
 46115  1  0  0  0
 47116  1  0  0  0
 47117  1  0  0  0
 48 56  1  0  0  0
 48 65  1  0  0  0
 48118  1  0  0  0
 49 50  1  0  0  0
 49 53  1  0  0  0
 49 64  1  0  0  0
 49119  1  0  0  0
 50 51  1  0  0  0
 50120  1  0  0  0
 50121  1  0  0  0
 51 52  1  0  0  0
 51122  1  0  0  0
 51123  1  0  0  0
 52124  1  0  0  0
 52125  1  0  0  0
 53 54  1  0  0  0
 54 55  2  0  0  0
 54126  1  0  0  0
 55 57  1  0  0  0
 55127  1  0  0  0
 56 69  2  0  0  0
 57 58  2  0  0  0
 57128  1  0  0  0
 58129  1  0  0  0
 59 60  1  0  0  0
 59 61  1  0  0  0
 59 62  1  0  0  0
 60130  1  0  0  0
 60131  1  0  0  0
 60132  1  0  0  0
 61133  1  0  0  0
 61134  1  0  0  0
 61135  1  0  0  0
 62136  1  0  0  0
 62137  1  0  0  0
 62138  1  0  0  0
 63 65  1  0  0  0
 63139  1  0  0  0
 63140  1  0  0  0
 63141  1  0  0  0
 64142  1  0  0  0
 65143  1  0  0  0
 68 80  1  0  0  0
 71 73  2  0  0  0
 71 75  1  0  0  0
 71144  1  0  0  0
 72 74  1  0  0  0
 72 76  2  0  0  0
 72145  1  0  0  0
 73 76  1  0  0  0
 73 81  1  0  0  0
 74 75  2  0  0  0
 74 82  1  0  0  0
 75 83  1  0  0  0
 76 84  1  0  0  0
 77 78  1  0  0  0
 77 80  1  0  0  0
 77146  1  0  0  0
 77147  1  0  0  0
 78 83  1  0  0  0
 78148  1  0  0  0
 78149  1  0  0  0
 79 80  1  0  0  0
 79 83  1  0  0  0
 79150  1  0  0  0
 79151  1  0  0  0
 80152  1  0  0  0
 81153  1  0  0  0
 81154  1  0  0  0
 81155  1  0  0  0
 82156  1  0  0  0
 82157  1  0  0  0
 82158  1  0  0  0
 84159  1  0  0  0
M  ISO  4   1 100  68 101  80 101  84 100
M  END
> <chiral flag>
0

> <version>
0

> <s_m_source_file>
/data/baiqing/PycharmProjects/Reinvent-master-3.2/result/LINK_invent/BTK/process_docking_weight1_custom_sum_contain_oxygen_bond_distance_aromatic_linkinvent_7_9_3/rearranged_h_0135.sdf

> <i_m_source_file_index>
85

> <r_mmod_Potential_Energy-OPLS-2005>
554.777954101562

> <r_mmod_Stretch_Energy-OPLS-2005>
220.752700805664

> <r_mmod_Bend_Energy-OPLS-2005>
374.564392089844

> <r_mmod_Torsional_Energy-OPLS-2005>
271.757202148438

> <r_mmod_Improper_Torsional_Energy-OPLS-2005>
4.20265960693359

> <r_mmod_Van_der_Waal_Energy-OPLS-2005>
127.181358337402

> <r_mmod_Electrostatic_Energy-OPLS-2005>
-411.343688964844

> <r_mmod_Solvation_Energy-OPLS-2005>
-219.619567871094

> <b_mmod_Minimization_Converged-OPLS-2005>
0

> <r_mmod_RMS_Derivative-OPLS-2005>
2.18603038787842

$$$$
85
                    3D
 Structure written by MMmdl.
169178  0  0  1  0            999 V2000
  -30.6652  -14.4956   20.5932 C   0  0  0  0  0  0
  -30.4396  -12.3280   19.4175 C   0  0  0  0  0  0
  -29.5007  -12.5209   18.2067 C   0  0  0  0  0  0
  -28.0210  -12.3719   18.6174 C   0  0  0  0  0  0
  -27.6670  -13.2010   19.8808 C   0  0  2  0  0  0
  -28.7081  -12.9522   20.9955 C   0  0  0  0  0  0
  -25.2613  -13.8153   20.5680 C   0  0  0  0  0  0
  -24.1849  -13.0438   20.9170 C   0  0  0  0  0  0
  -24.6393  -11.6902   20.8739 C   0  0  0  0  0  0
  -23.9057  -10.4289   21.0413 C   0  0  0  0  0  0
  -24.3613   -9.4207   21.9188 C   0  0  0  0  0  0
  -23.6294   -8.2240   22.0757 C   0  0  0  0  0  0
  -22.4276   -8.0279   21.3546 C   0  0  0  0  0  0
  -21.9909   -9.0252   20.4649 C   0  0  0  0  0  0
  -22.7234  -10.2130   20.3059 C   0  0  0  0  0  0
  -21.6846   -6.0744   22.5281 C   0  0  0  0  0  0
  -21.4010   -6.5645   23.8215 C   0  0  0  0  0  0
  -21.3659   -5.6797   24.9177 C   0  0  0  0  0  0
  -21.6045   -4.3061   24.7226 C   0  0  0  0  0  0
  -21.8819   -3.8156   23.4346 C   0  0  0  0  0  0
  -21.9190   -4.6973   22.3405 C   0  0  0  0  0  0
  -22.7869  -13.5241   21.1841 C   0  0  0  0  0  0
  -22.1656   -4.2163   21.0981 F   0  0  0  0  0  0
  -21.5633   -3.4543   25.7736 F   0  0  0  0  0  0
  -30.0412  -13.2901   20.4577 N   0  0  0  0  0  0
  -26.3047  -12.9305   20.3381 N   0  0  0  0  0  0
  -25.9320  -11.6474   20.5772 N   0  0  0  0  0  0
  -22.0503  -12.8240   22.0397 N   0  0  0  0  0  0
  -25.4359  -15.1871   20.4105 N   0  0  0  0  0  0
  -31.7615  -14.7427   20.0805 O   0  0  0  0  0  0
  -21.6635   -6.8884   21.4242 O   0  0  0  0  0  0
  -22.3556  -14.5554   20.6697 O   0  0  0  0  0  0
  -24.6167  -31.8665   23.2082 C   0  0  0  0  0  0
  -25.9050  -32.4811   23.8388 C   0  0  1  0  0  0
  -27.2441  -27.4171   20.0801 C   0  0  0  0  0  0
  -25.5896  -33.8612   24.2320 N   0  0  0  0  0  0
  -23.4062  -30.4899   21.5496 C   0  0  2  0  0  0
  -24.8534  -28.9546   20.1119 C   0  0  0  0  0  0
  -22.7425  -29.4651   22.4983 C   0  0  0  0  0  0
  -18.0271  -28.1379   22.8502 C   0  0  0  0  0  0
  -24.1483  -36.7311   23.2639 C   0  0  0  0  0  0
  -25.9377  -30.8227   21.3672 C   0  0  0  0  0  0
  -26.0137  -29.4557   20.7135 C   0  0  0  0  0  0
  -27.2053  -28.6897   20.7046 C   0  0  0  0  0  0
  -26.0548  -26.9321   19.4874 C   0  0  0  0  0  0
  -24.8694  -27.6908   19.5001 C   0  0  0  0  0  0
  -23.6155  -29.8227   20.1638 C   0  0  0  0  0  0
  -25.4104  -36.3107   24.0337 C   0  0  1  0  0  0
  -20.5866  -28.3666   23.1318 C   0  0  2  0  0  0
  -20.6759  -26.9397   22.5422 C   0  0  0  0  0  0
  -19.5734  -26.6384   21.5224 C   0  0  0  0  0  0
  -18.1914  -26.7927   22.1633 C   0  0  0  0  0  0
  -19.1523  -28.8840   23.2904 C   0  0  0  0  0  0
  -18.9447  -30.1446   23.8918 C   0  0  0  0  0  0
  -17.6447  -30.6584   24.0570 C   0  0  0  0  0  0
  -25.9036  -34.9473   23.5129 C   0  0  0  0  0  0
  -16.5338  -29.9088   23.6326 C   0  0  0  0  0  0
  -16.7258  -28.6501   23.0355 C   0  0  0  0  0  0
  -26.4470  -31.6597   25.0729 C   0  0  0  0  0  0
  -25.3729  -31.3709   26.1476 C   0  0  0  0  0  0
  -27.0301  -30.3037   24.6121 C   0  0  0  0  0  0
  -27.6044  -32.4322   25.7489 C   0  0  0  0  0  0
  -27.5578  -37.1804   24.8462 C   0  0  0  0  0  0
  -21.4151  -29.3031   22.3723 N   0  0  0  0  0  0
  -26.4289  -37.3792   23.9411 N   0  0  0  0  0  0
  -24.6717  -31.0751   22.0993 N   0  0  0  0  0  0
  -23.4192  -28.8192   23.3029 O   0  0  0  0  0  0
  -28.4117  -26.6687   20.1237 O   0  0  0  0  0  0
  -26.5610  -34.8923   22.4700 O   0  0  0  0  0  0
  -23.5354  -32.1437   23.7457 O   0  0  0  0  0  0
  -30.5359  -19.0989   20.5128 C   0  0  0  0  0  0
  -28.5468  -18.8115   21.8512 C   0  0  0  0  0  0
  -30.7508  -17.6929   20.5257 C   0  0  0  0  0  0
  -28.7611  -17.4185   21.8721 C   0  0  0  0  0  0
  -29.4276  -19.6951   21.1747 C   0  0  0  0  0  0
  -29.8589  -16.8309   21.2120 C   0  0  0  0  0  0
  -26.9568  -21.6974   18.5619 C   0  0  0  0  0  0
  -28.2942  -20.9960   18.7169 C   0  0  0  0  0  0
  -27.3435  -23.1637   18.6785 C   0  0  0  0  0  0
  -29.0849  -21.8669   19.7214 C   0  0  2  0  0  0
  -30.4033  -21.8873   21.8979 C   0  0  0  0  0  0
  -27.9413  -21.6280   22.0052 C   0  0  0  0  0  0
  -29.3855  -24.4056   19.4407 C   0  0  0  0  0  0
  -28.7471  -25.7839   19.0351 C   0  0  0  0  0  0
  -29.1984  -21.2470   21.1763 C   0  0  0  0  0  0
  -29.9538  -15.4014   21.2976 N   0  0  0  0  0  0
  -28.4550  -23.2430   19.6606 N   0  3  1  0  0  0
  -31.4807  -12.4559   19.1151 H   0  0  0  0  0  0
  -30.3655  -11.3094   19.8019 H   0  0  0  0  0  0
  -29.7456  -11.8020   17.4237 H   0  0  0  0  0  0
  -29.6605  -13.5098   17.7738 H   0  0  0  0  0  0
  -27.8339  -11.3143   18.8066 H   0  0  0  0  0  0
  -27.3694  -12.6508   17.7888 H   0  0  0  0  0  0
  -27.7186  -14.2531   19.6000 H   0  0  0  0  0  0
  -28.6932  -11.9031   21.2948 H   0  0  0  0  0  0
  -28.4532  -13.5044   21.9003 H   0  0  0  0  0  0
  -25.2763   -9.5689   22.4757 H   0  0  0  0  0  0
  -24.0014   -7.4632   22.7469 H   0  0  0  0  0  0
  -21.0846   -8.8764   19.8950 H   0  0  0  0  0  0
  -22.3698  -10.9668   19.6169 H   0  0  0  0  0  0
  -21.1995   -7.6151   23.9730 H   0  0  0  0  0  0
  -21.1483   -6.0520   25.9081 H   0  0  0  0  0  0
  -22.0601   -2.7621   23.2837 H   0  0  0  0  0  0
  -22.4102  -11.9890   22.4787 H   0  0  0  0  0  0
  -21.1123  -13.1274   22.2602 H   0  0  0  0  0  0
  -24.6751  -15.8479   20.5245 H   0  0  0  0  0  0
  -26.2965  -15.6244   20.1044 H   0  0  0  0  0  0
  -26.7121  -32.5523   23.1150 H   0  0  0  0  0  0
  -25.0024  -33.9763   25.0452 H   0  0  0  0  0  0
  -22.6956  -31.3071   21.4099 H   0  0  0  0  0  0
  -23.3740  -35.9648   23.3308 H   0  0  0  0  0  0
  -24.3578  -36.8923   22.2051 H   0  0  0  0  0  0
  -23.7237  -37.6518   23.6653 H   0  0  0  0  0  0
  -26.0563  -31.5864   20.5973 H   0  0  0  0  0  0
  -26.8231  -30.8752   21.9888 H   0  0  0  0  0  0
  -28.0983  -29.0739   21.1789 H   0  0  0  0  0  0
  -26.0056  -25.9580   19.0302 H   0  0  0  0  0  0
  -23.9744  -27.2927   19.0415 H   0  0  0  0  0  0
  -23.7222  -30.5983   19.4047 H   0  0  0  0  0  0
  -22.7396  -29.2423   19.8686 H   0  0  0  0  0  0
  -25.1278  -36.1973   25.0830 H   0  0  0  0  0  0
  -20.9958  -28.3228   24.1437 H   0  0  0  0  0  0
  -20.5669  -26.2270   23.3610 H   0  0  0  0  0  0
  -21.6626  -26.7439   22.1206 H   0  0  0  0  0  0
  -19.6891  -25.6301   21.1235 H   0  0  0  0  0  0
  -19.6675  -27.3212   20.6769 H   0  0  0  0  0  0
  -17.4186  -26.6685   21.4030 H   0  0  0  0  0  0
  -18.0302  -26.0064   22.9022 H   0  0  0  0  0  0
  -19.7920  -30.7256   24.2299 H   0  0  0  0  0  0
  -17.5000  -31.6270   24.5162 H   0  0  0  0  0  0
  -15.5340  -30.2996   23.7637 H   0  0  0  0  0  0
  -15.8655  -28.0823   22.7069 H   0  0  0  0  0  0
  -24.5888  -30.7074   25.7809 H   0  0  0  0  0  0
  -24.8938  -32.2868   26.4946 H   0  0  0  0  0  0
  -25.8073  -30.8855   27.0224 H   0  0  0  0  0  0
  -26.2851  -29.6799   24.1167 H   0  0  0  0  0  0
  -27.4054  -29.7274   25.4588 H   0  0  0  0  0  0
  -27.8696  -30.4348   23.9288 H   0  0  0  0  0  0
  -27.2657  -33.3611   26.2087 H   0  0  0  0  0  0
  -28.3835  -32.6897   25.0303 H   0  0  0  0  0  0
  -28.0732  -31.8439   26.5387 H   0  0  0  0  0  0
  -28.2587  -38.0107   24.7524 H   0  0  0  0  0  0
  -28.1079  -36.2644   24.6266 H   0  0  0  0  0  0
  -27.2304  -37.1431   25.8864 H   0  0  0  0  0  0
  -20.9314  -29.8759   21.6948 H   0  0  0  0  0  0
  -26.0179  -38.2866   24.1427 H   0  0  0  0  0  0
  -31.2406  -19.7234   19.9814 H   0  0  0  0  0  0
  -27.6770  -19.1681   22.3810 H   0  0  0  0  0  0
  -31.6094  -17.2942   20.0045 H   0  0  0  0  0  0
  -28.0540  -16.7992   22.4069 H   0  0  0  0  0  0
  -26.2789  -21.4169   19.3682 H   0  0  0  0  0  0
  -26.4643  -21.4664   17.6166 H   0  0  0  0  0  0
  -28.8142  -21.0017   17.7570 H   0  0  0  0  0  0
  -28.1688  -19.9506   18.9936 H   0  0  0  0  0  0
  -26.4923  -23.7758   18.9727 H   0  0  0  0  0  0
  -27.6848  -23.5001   17.6980 H   0  0  0  0  0  0
  -30.0971  -21.9232   19.3168 H   0  0  0  0  0  0
  -31.3387  -21.7193   21.3629 H   0  0  0  0  0  0
  -30.5264  -21.4738   22.8996 H   0  0  0  0  0  0
  -30.2856  -22.9643   22.0122 H   0  0  0  0  0  0
  -27.0283  -21.2102   21.5801 H   0  0  0  0  0  0
  -27.7977  -22.7045   22.0901 H   0  0  0  0  0  0
  -28.0212  -21.2702   23.0328 H   0  0  0  0  0  0
  -30.0287  -24.5413   20.3089 H   0  0  0  0  0  0
  -30.0516  -24.1229   18.6244 H   0  0  0  0  0  0
  -27.9735  -25.6815   18.2789 H   0  0  0  0  0  0
  -29.5258  -26.3324   18.5042 H   0  0  0  0  0  0
  -29.1783  -14.9704   21.7772 H   0  0  0  0  0  0
  -28.0186  -23.3770   20.5624 H   0  0  0  0  0  0
  1 25  1  0  0  0
  1 30  2  0  0  0
  1 86  1  0  0  0
  2  3  1  0  0  0
  2 25  1  0  0  0
  2 88  1  0  0  0
  2 89  1  0  0  0
  3  4  1  0  0  0
  3 90  1  0  0  0
  3 91  1  0  0  0
  4  5  1  0  0  0
  4 92  1  0  0  0
  4 93  1  0  0  0
  5  6  1  0  0  0
  5 26  1  0  0  0
  5 94  1  0  0  0
  6 25  1  0  0  0
  6 95  1  0  0  0
  6 96  1  0  0  0
  7  8  2  0  0  0
  7 26  1  0  0  0
  7 29  1  0  0  0
  8  9  1  0  0  0
  8 22  1  0  0  0
  9 10  1  0  0  0
  9 27  2  0  0  0
 10 11  2  0  0  0
 10 15  1  0  0  0
 11 12  1  0  0  0
 11 97  1  0  0  0
 12 13  2  0  0  0
 12 98  1  0  0  0
 13 14  1  0  0  0
 13 31  1  0  0  0
 14 15  2  0  0  0
 14 99  1  0  0  0
 15100  1  0  0  0
 16 17  2  0  0  0
 16 21  1  0  0  0
 16 31  1  0  0  0
 17 18  1  0  0  0
 17101  1  0  0  0
 18 19  2  0  0  0
 18102  1  0  0  0
 19 20  1  0  0  0
 19 24  1  0  0  0
 20 21  2  0  0  0
 20103  1  0  0  0
 21 23  1  0  0  0
 22 28  1  0  0  0
 22 32  2  0  0  0
 26 27  1  0  0  0
 28104  1  0  0  0
 28105  1  0  0  0
 29106  1  0  0  0
 29107  1  0  0  0
 33 34  1  0  0  0
 33 66  1  0  0  0
 33 70  2  0  0  0
 34 36  1  0  0  0
 34 59  1  0  0  0
 34108  1  0  0  0
 35 44  2  0  0  0
 35 45  1  0  0  0
 35 68  1  0  0  0
 36 56  1  0  0  0
 36109  1  0  0  0
 37 39  1  0  0  0
 37 47  1  0  0  0
 37 66  1  0  0  0
 37110  1  0  0  0
 38 43  2  0  0  0
 38 46  1  0  0  0
 38 47  1  0  0  0
 39 64  1  0  0  0
 39 67  2  0  0  0
 40 52  1  0  0  0
 40 53  2  0  0  0
 40 58  1  0  0  0
 41111  1  0  0  0
 41112  1  0  0  0
 41113  1  0  0  0
 41 48  1  0  0  0
 42 43  1  0  0  0
 42 66  1  0  0  0
 42114  1  0  0  0
 42115  1  0  0  0
 43 44  1  0  0  0
 44116  1  0  0  0
 45 46  2  0  0  0
 45117  1  0  0  0
 46118  1  0  0  0
 47119  1  0  0  0
 47120  1  0  0  0
 48 56  1  0  0  0
 48 65  1  0  0  0
 48121  1  0  0  0
 49 50  1  0  0  0
 49 53  1  0  0  0
 49 64  1  0  0  0
 49122  1  0  0  0
 50 51  1  0  0  0
 50123  1  0  0  0
 50124  1  0  0  0
 51 52  1  0  0  0
 51125  1  0  0  0
 51126  1  0  0  0
 52127  1  0  0  0
 52128  1  0  0  0
 53 54  1  0  0  0
 54 55  2  0  0  0
 54129  1  0  0  0
 55 57  1  0  0  0
 55130  1  0  0  0
 56 69  2  0  0  0
 57 58  2  0  0  0
 57131  1  0  0  0
 58132  1  0  0  0
 59 60  1  0  0  0
 59 61  1  0  0  0
 59 62  1  0  0  0
 60133  1  0  0  0
 60134  1  0  0  0
 60135  1  0  0  0
 61136  1  0  0  0
 61137  1  0  0  0
 61138  1  0  0  0
 62139  1  0  0  0
 62140  1  0  0  0
 62141  1  0  0  0
 63 65  1  0  0  0
 63142  1  0  0  0
 63143  1  0  0  0
 63144  1  0  0  0
 64145  1  0  0  0
 65146  1  0  0  0
 68 84  1  0  0  0
 71 73  2  0  0  0
 71 75  1  0  0  0
 71147  1  0  0  0
 72 74  1  0  0  0
 72 75  2  0  0  0
 72148  1  0  0  0
 73 76  1  0  0  0
 73149  1  0  0  0
 74 76  2  0  0  0
 74150  1  0  0  0
 75 85  1  0  0  0
 76 86  1  0  0  0
 77 78  1  0  0  0
 77 79  1  0  0  0
 77151  1  0  0  0
 77152  1  0  0  0
 78153  1  0  0  0
 78154  1  0  0  0
 78 80  1  0  0  0
 79 87  1  0  0  0
 79155  1  0  0  0
 79156  1  0  0  0
 80 85  1  0  0  0
 80 87  1  0  0  0
 80157  1  0  0  0
 81158  1  0  0  0
 81159  1  0  0  0
 81160  1  0  0  0
 81 85  1  0  0  0
 82 85  1  0  0  0
 82161  1  0  0  0
 82162  1  0  0  0
 82163  1  0  0  0
 83 84  1  0  0  0
 83164  1  0  0  0
 83165  1  0  0  0
 83 87  1  0  0  0
 84166  1  0  0  0
 84167  1  0  0  0
 86168  1  0  0  0
 87169  1  0  0  0
M  CHG  1  87   1
M  ISO  4   1 100  68 101  84 101  86 100
M  END
> <chiral flag>
0

> <version>
0

> <s_m_source_file>
/data/baiqing/PycharmProjects/Reinvent-master-3.2/result/LINK_invent/BTK/process_docking_weight1_custom_sum_contain_oxygen_bond_distance_aromatic_linkinvent_7_9_3/rearranged_h_0135.sdf

> <i_m_source_file_index>
86

> <r_mmod_Potential_Energy-OPLS-2005>
28.3274612426758

> <r_mmod_Stretch_Energy-OPLS-2005>
55.4824295043945

> <r_mmod_Bend_Energy-OPLS-2005>
159.524826049805

> <r_mmod_Torsional_Energy-OPLS-2005>
310.970245361328

> <r_mmod_Improper_Torsional_Energy-OPLS-2005>
3.20410799980164

> <r_mmod_Van_der_Waal_Energy-OPLS-2005>
159.345642089844

> <r_mmod_Electrostatic_Energy-OPLS-2005>
-262.688537597656

> <r_mmod_Solvation_Energy-OPLS-2005>
-412.948516845703

> <b_mmod_Minimization_Converged-OPLS-2005>
0

> <r_mmod_RMS_Derivative-OPLS-2005>
0.937625110149384

$$$$
86
                    3D
 Structure written by MMmdl.
167176  0  0  1  0            999 V2000
  -30.7020  -14.5214   20.5270 C   0  0  0  0  0  0
  -30.4239  -12.3281   19.4394 C   0  0  0  0  0  0
  -29.4988  -12.5026   18.2176 C   0  0  0  0  0  0
  -28.0221  -12.3489   18.6314 C   0  0  0  0  0  0
  -27.6585  -13.2129   19.8684 C   0  0  2  0  0  0
  -28.7030  -13.0452   20.9961 C   0  0  0  0  0  0
  -25.2575  -13.8167   20.5676 C   0  0  0  0  0  0
  -24.1835  -13.0443   20.9179 C   0  0  0  0  0  0
  -24.6398  -11.6910   20.8753 C   0  0  0  0  0  0
  -23.9059  -10.4296   21.0417 C   0  0  0  0  0  0
  -24.3612   -9.4202   21.9185 C   0  0  0  0  0  0
  -23.6294   -8.2237   22.0742 C   0  0  0  0  0  0
  -22.4271   -8.0282   21.3537 C   0  0  0  0  0  0
  -21.9918   -9.0259   20.4640 C   0  0  0  0  0  0
  -22.7241  -10.2139   20.3051 C   0  0  0  0  0  0
  -21.6845   -6.0745   22.5288 C   0  0  0  0  0  0
  -21.4019   -6.5643   23.8228 C   0  0  0  0  0  0
  -21.3658   -5.6781   24.9181 C   0  0  0  0  0  0
  -21.6039   -4.3049   24.7219 C   0  0  0  0  0  0
  -21.8822   -3.8146   23.4334 C   0  0  0  0  0  0
  -21.9191   -4.6977   22.3402 C   0  0  0  0  0  0
  -22.7852  -13.5237   21.1857 C   0  0  0  0  0  0
  -22.1654   -4.2168   21.0974 F   0  0  0  0  0  0
  -21.5630   -3.4526   25.7723 F   0  0  0  0  0  0
  -30.0296  -13.3407   20.4317 N   0  0  0  0  0  0
  -26.3016  -12.9350   20.3348 N   0  0  0  0  0  0
  -25.9326  -11.6505   20.5774 N   0  0  0  0  0  0
  -22.0492  -12.8235   22.0418 N   0  0  0  0  0  0
  -25.4275  -15.1895   20.4062 N   0  0  0  0  0  0
  -31.8515  -14.6617   20.1052 O   0  0  0  0  0  0
  -21.6622   -6.8891   21.4252 O   0  0  0  0  0  0
  -22.3538  -14.5544   20.6706 O   0  0  0  0  0  0
  -24.6180  -31.8686   23.2097 C   0  0  0  0  0  0
  -25.9066  -32.4827   23.8393 C   0  0  1  0  0  0
  -27.2272  -27.4021   20.0948 C   0  0  0  0  0  0
  -25.5915  -33.8624   24.2326 N   0  0  0  0  0  0
  -23.4056  -30.4959   21.5512 C   0  0  2  0  0  0
  -24.8499  -28.9621   20.1171 C   0  0  0  0  0  0
  -22.7425  -29.4683   22.4975 C   0  0  0  0  0  0
  -18.0285  -28.1393   22.8486 C   0  0  0  0  0  0
  -24.1486  -36.7310   23.2633 C   0  0  0  0  0  0
  -25.9397  -30.8265   21.3656 C   0  0  0  0  0  0
  -26.0165  -29.4590   20.7112 C   0  0  0  0  0  0
  -27.2086  -28.6892   20.6947 C   0  0  0  0  0  0
  -26.0329  -26.9373   19.4909 C   0  0  0  0  0  0
  -24.8551  -27.7013   19.5051 C   0  0  0  0  0  0
  -23.6147  -29.8326   20.1661 C   0  0  0  0  0  0
  -25.4109  -36.3111   24.0334 C   0  0  1  0  0  0
  -20.5875  -28.3688   23.1306 C   0  0  2  0  0  0
  -20.6784  -26.9423   22.5412 C   0  0  0  0  0  0
  -19.5760  -26.6400   21.5212 C   0  0  0  0  0  0
  -18.1936  -26.7940   22.1618 C   0  0  0  0  0  0
  -19.1532  -28.8854   23.2895 C   0  0  0  0  0  0
  -18.9459  -30.1459   23.8909 C   0  0  0  0  0  0
  -17.6461  -30.6594   24.0571 C   0  0  0  0  0  0
  -25.9041  -34.9479   23.5125 C   0  0  0  0  0  0
  -16.5353  -29.9097   23.6331 C   0  0  0  0  0  0
  -16.7273  -28.6518   23.0343 C   0  0  0  0  0  0
  -26.4485  -31.6602   25.0719 C   0  0  0  0  0  0
  -25.3742  -31.3713   26.1458 C   0  0  0  0  0  0
  -27.0315  -30.3044   24.6098 C   0  0  0  0  0  0
  -27.6063  -32.4311   25.7485 C   0  0  0  0  0  0
  -27.5584  -37.1813   24.8467 C   0  0  0  0  0  0
  -21.4151  -29.3055   22.3711 N   0  0  0  0  0  0
  -26.4297  -37.3797   23.9411 N   0  0  0  0  0  0
  -24.6729  -31.0779   22.1001 N   0  0  0  0  0  0
  -23.4192  -28.8226   23.3021 O   0  0  0  0  0  0
  -28.3810  -26.6247   20.1130 O   0  0  0  0  0  0
  -26.5596  -34.8935   22.4681 O   0  0  0  0  0  0
  -23.5366  -32.1438   23.7486 O   0  0  0  0  0  0
  -31.9006  -20.9383   18.9864 C   0  0  0  0  0  0
  -31.1711  -22.0460   19.4526 C   0  0  0  0  0  0
  -29.4483  -20.5352   20.2512 C   0  0  0  0  0  0
  -31.4053  -19.6209   19.1148 C   0  0  0  0  0  0
  -30.1812  -19.3902   19.8108 C   0  0  0  0  0  0
  -29.9032  -21.8702   20.0494 C   0  0  0  0  0  0
  -32.1793  -18.5658   18.4451 C   0  0  0  0  0  0
  -35.8122  -17.3240   18.4945 C   0  0  0  0  0  0
  -34.7980  -16.2063   18.5446 C   0  0  0  0  0  0
  -34.4203  -17.5439   17.9533 C   0  0  0  0  0  0
  -29.6071  -17.9621   20.0367 C   0  0  0  0  0  0
  -30.4406  -17.0064   20.9548 C   0  0  0  0  0  0
  -28.1916  -25.1879   20.0302 C   0  0  0  0  0  0
  -29.4584  -24.3034   20.1669 C   0  0  0  0  0  0
  -31.5932  -17.7544   17.5661 N   0  0  0  0  0  0
  -29.9854  -15.5917   20.9402 N   0  0  0  0  0  0
  -33.4955  -18.4359   18.6714 N   0  3  0  0  0  0
  -29.0813  -22.9287   20.4285 O   0  0  0  0  0  0
  -31.4688  -12.4195   19.1387 H   0  0  0  0  0  0
  -30.3226  -11.3292   19.8636 H   0  0  0  0  0  0
  -29.7514  -11.7772   17.4438 H   0  0  0  0  0  0
  -29.6537  -13.4892   17.7769 H   0  0  0  0  0  0
  -27.8522  -11.2952   18.8525 H   0  0  0  0  0  0
  -27.3666  -12.5914   17.7955 H   0  0  0  0  0  0
  -27.6878  -14.2513   19.5376 H   0  0  0  0  0  0
  -28.6862  -12.0260   21.3849 H   0  0  0  0  0  0
  -28.4680  -13.6899   21.8458 H   0  0  0  0  0  0
  -25.2754   -9.5678   22.4760 H   0  0  0  0  0  0
  -24.0012   -7.4621   22.7450 H   0  0  0  0  0  0
  -21.0851   -8.8776   19.8944 H   0  0  0  0  0  0
  -22.3709  -10.9679   19.6156 H   0  0  0  0  0  0
  -21.2020   -7.6148   23.9749 H   0  0  0  0  0  0
  -21.1479   -6.0494   25.9088 H   0  0  0  0  0  0
  -22.0611   -2.7615   23.2818 H   0  0  0  0  0  0
  -22.4070  -11.9864   22.4777 H   0  0  0  0  0  0
  -21.1126  -13.1295   22.2649 H   0  0  0  0  0  0
  -24.6552  -15.8397   20.5062 H   0  0  0  0  0  0
  -26.2739  -15.6316   20.0715 H   0  0  0  0  0  0
  -26.7136  -32.5543   23.1157 H   0  0  0  0  0  0
  -25.0093  -33.9780   25.0492 H   0  0  0  0  0  0
  -22.6945  -31.3132   21.4132 H   0  0  0  0  0  0
  -23.3752  -35.9640   23.3304 H   0  0  0  0  0  0
  -24.3584  -36.8917   22.2047 H   0  0  0  0  0  0
  -23.7236  -37.6518   23.6642 H   0  0  0  0  0  0
  -26.0544  -31.5910   20.5960 H   0  0  0  0  0  0
  -26.8270  -30.8802   21.9848 H   0  0  0  0  0  0
  -28.1056  -29.0705   21.1632 H   0  0  0  0  0  0
  -25.9713  -25.9807   18.9967 H   0  0  0  0  0  0
  -23.9585  -27.3111   19.0441 H   0  0  0  0  0  0
  -23.7277  -30.6081   19.4075 H   0  0  0  0  0  0
  -22.7368  -29.2563   19.8676 H   0  0  0  0  0  0
  -25.1287  -36.1974   25.0827 H   0  0  0  0  0  0
  -20.9970  -28.3263   24.1424 H   0  0  0  0  0  0
  -20.5710  -26.2292   23.3602 H   0  0  0  0  0  0
  -21.6654  -26.7489   22.1188 H   0  0  0  0  0  0
  -19.6929  -25.6315   21.1235 H   0  0  0  0  0  0
  -19.6705  -27.3216   20.6747 H   0  0  0  0  0  0
  -17.4213  -26.6687   21.4018 H   0  0  0  0  0  0
  -18.0339  -26.0084   22.9015 H   0  0  0  0  0  0
  -19.7939  -30.7270   24.2280 H   0  0  0  0  0  0
  -17.5024  -31.6274   24.5175 H   0  0  0  0  0  0
  -15.5356  -30.3003   23.7663 H   0  0  0  0  0  0
  -15.8671  -28.0851   22.7041 H   0  0  0  0  0  0
  -24.5919  -30.7055   25.7797 H   0  0  0  0  0  0
  -24.8922  -32.2866   26.4901 H   0  0  0  0  0  0
  -25.8082  -30.8890   27.0222 H   0  0  0  0  0  0
  -26.2860  -29.6805   24.1150 H   0  0  0  0  0  0
  -27.4090  -29.7284   25.4558 H   0  0  0  0  0  0
  -27.8693  -30.4371   23.9247 H   0  0  0  0  0  0
  -27.2696  -33.3610   26.2083 H   0  0  0  0  0  0
  -28.3868  -32.6870   25.0305 H   0  0  0  0  0  0
  -28.0731  -31.8413   26.5386 H   0  0  0  0  0  0
  -28.2606  -38.0107   24.7519 H   0  0  0  0  0  0
  -28.1075  -36.2643   24.6285 H   0  0  0  0  0  0
  -27.2303  -37.1451   25.8869 H   0  0  0  0  0  0
  -20.9312  -29.8770   21.6928 H   0  0  0  0  0  0
  -26.0186  -38.2875   24.1415 H   0  0  0  0  0  0
  -32.8354  -21.1223   18.4721 H   0  0  0  0  0  0
  -31.6027  -23.0235   19.3039 H   0  0  0  0  0  0
  -28.4907  -20.3959   20.7335 H   0  0  0  0  0  0
  -36.6149  -17.2676   17.7598 H   0  0  0  0  0  0
  -36.0809  -17.7999   19.4361 H   0  0  0  0  0  0
  -34.9019  -15.3755   17.8492 H   0  0  0  0  0  0
  -34.3800  -15.9457   19.5161 H   0  0  0  0  0  0
  -34.3180  -17.6277   16.8705 H   0  0  0  0  0  0
  -29.4475  -17.4933   19.0669 H   0  0  0  0  0  0
  -28.6052  -18.0538   20.4573 H   0  0  0  0  0  0
  -30.4017  -17.3735   21.9806 H   0  0  0  0  0  0
  -31.4931  -17.0496   20.6803 H   0  0  0  0  0  0
  -27.4771  -24.8954   20.8017 H   0  0  0  0  0  0
  -27.7552  -24.9208   19.0682 H   0  0  0  0  0  0
  -30.0816  -24.6556   20.9894 H   0  0  0  0  0  0
  -30.0266  -24.4220   19.2445 H   0  0  0  0  0  0
  -30.6493  -17.9379   17.2684 H   0  0  0  0  0  0
  -32.1158  -17.0201   17.1197 H   0  0  0  0  0  0
  -29.0424  -15.4071   21.2487 H   0  0  0  0  0  0
  -33.8791  -19.0429   19.3856 H   0  0  0  0  0  0
  1 25  1  0  0  0
  1 30  2  0  0  0
  1 86  1  0  0  0
  2  3  1  0  0  0
  2 25  1  0  0  0
  2 89  1  0  0  0
  2 90  1  0  0  0
  3  4  1  0  0  0
  3 91  1  0  0  0
  3 92  1  0  0  0
  4  5  1  0  0  0
  4 93  1  0  0  0
  4 94  1  0  0  0
  5  6  1  0  0  0
  5 26  1  0  0  0
  5 95  1  0  0  0
  6 25  1  0  0  0
  6 96  1  0  0  0
  6 97  1  0  0  0
  7  8  2  0  0  0
  7 26  1  0  0  0
  7 29  1  0  0  0
  8  9  1  0  0  0
  8 22  1  0  0  0
  9 10  1  0  0  0
  9 27  2  0  0  0
 10 11  2  0  0  0
 10 15  1  0  0  0
 11 12  1  0  0  0
 11 98  1  0  0  0
 12 13  2  0  0  0
 12 99  1  0  0  0
 13 14  1  0  0  0
 13 31  1  0  0  0
 14 15  2  0  0  0
 14100  1  0  0  0
 15101  1  0  0  0
 16 17  2  0  0  0
 16 21  1  0  0  0
 16 31  1  0  0  0
 17 18  1  0  0  0
 17102  1  0  0  0
 18 19  2  0  0  0
 18103  1  0  0  0
 19 20  1  0  0  0
 19 24  1  0  0  0
 20 21  2  0  0  0
 20104  1  0  0  0
 21 23  1  0  0  0
 22 28  1  0  0  0
 22 32  2  0  0  0
 26 27  1  0  0  0
 28105  1  0  0  0
 28106  1  0  0  0
 29107  1  0  0  0
 29108  1  0  0  0
 33 34  1  0  0  0
 33 66  1  0  0  0
 33 70  2  0  0  0
 34 36  1  0  0  0
 34 59  1  0  0  0
 34109  1  0  0  0
 35 44  2  0  0  0
 35 45  1  0  0  0
 35 68  1  0  0  0
 36 56  1  0  0  0
 36110  1  0  0  0
 37 39  1  0  0  0
 37 47  1  0  0  0
 37 66  1  0  0  0
 37111  1  0  0  0
 38 43  2  0  0  0
 38 46  1  0  0  0
 38 47  1  0  0  0
 39 64  1  0  0  0
 39 67  2  0  0  0
 40 52  1  0  0  0
 40 53  2  0  0  0
 40 58  1  0  0  0
 41112  1  0  0  0
 41113  1  0  0  0
 41114  1  0  0  0
 41 48  1  0  0  0
 42 43  1  0  0  0
 42 66  1  0  0  0
 42115  1  0  0  0
 42116  1  0  0  0
 43 44  1  0  0  0
 44117  1  0  0  0
 45 46  2  0  0  0
 45118  1  0  0  0
 46119  1  0  0  0
 47120  1  0  0  0
 47121  1  0  0  0
 48 56  1  0  0  0
 48 65  1  0  0  0
 48122  1  0  0  0
 49 50  1  0  0  0
 49 53  1  0  0  0
 49 64  1  0  0  0
 49123  1  0  0  0
 50 51  1  0  0  0
 50124  1  0  0  0
 50125  1  0  0  0
 51 52  1  0  0  0
 51126  1  0  0  0
 51127  1  0  0  0
 52128  1  0  0  0
 52129  1  0  0  0
 53 54  1  0  0  0
 54 55  2  0  0  0
 54130  1  0  0  0
 55 57  1  0  0  0
 55131  1  0  0  0
 56 69  2  0  0  0
 57 58  2  0  0  0
 57132  1  0  0  0
 58133  1  0  0  0
 59 60  1  0  0  0
 59 61  1  0  0  0
 59 62  1  0  0  0
 60134  1  0  0  0
 60135  1  0  0  0
 60136  1  0  0  0
 61137  1  0  0  0
 61138  1  0  0  0
 61139  1  0  0  0
 62140  1  0  0  0
 62141  1  0  0  0
 62142  1  0  0  0
 63 65  1  0  0  0
 63143  1  0  0  0
 63144  1  0  0  0
 63145  1  0  0  0
 64146  1  0  0  0
 65147  1  0  0  0
 68 83  1  0  0  0
 71 72  2  0  0  0
 71 74  1  0  0  0
 71148  1  0  0  0
 72 76  1  0  0  0
 72149  1  0  0  0
 73 75  1  0  0  0
 73 76  2  0  0  0
 73150  1  0  0  0
 74 75  2  0  0  0
 74 77  1  0  0  0
 75 81  1  0  0  0
 76 88  1  0  0  0
 77 85  1  0  0  0
 77 87  2  0  0  0
 78 79  1  0  0  0
 78 80  1  0  0  0
 78151  1  0  0  0
 78152  1  0  0  0
 79 80  1  0  0  0
 79153  1  0  0  0
 79154  1  0  0  0
 80 87  1  0  0  0
 80155  1  0  0  0
 81 82  1  0  0  0
 81156  1  0  0  0
 81157  1  0  0  0
 82 86  1  0  0  0
 82158  1  0  0  0
 82159  1  0  0  0
 83 84  1  0  0  0
 83160  1  0  0  0
 83161  1  0  0  0
 84 88  1  0  0  0
 84162  1  0  0  0
 84163  1  0  0  0
 85164  1  0  0  0
 85165  1  0  0  0
 86166  1  0  0  0
 87167  1  0  0  0
M  CHG  1  87   1
M  ISO  4   1 100  68 101  83 101  86 100
M  END
> <chiral flag>
0

> <version>
0

> <s_m_source_file>
/data/baiqing/PycharmProjects/Reinvent-master-3.2/result/LINK_invent/BTK/process_docking_weight1_custom_sum_contain_oxygen_bond_distance_aromatic_linkinvent_7_9_3/rearranged_h_0135.sdf

> <i_m_source_file_index>
87

> <r_mmod_Potential_Energy-OPLS-2005>
-157.958786010742

> <r_mmod_Stretch_Energy-OPLS-2005>
50.8116645812988

> <r_mmod_Bend_Energy-OPLS-2005>
114.927169799805

> <r_mmod_Torsional_Energy-OPLS-2005>
235.534759521484

> <r_mmod_Improper_Torsional_Energy-OPLS-2005>
4.43893146514893

> <r_mmod_Van_der_Waal_Energy-OPLS-2005>
158.537872314453

> <r_mmod_Electrostatic_Energy-OPLS-2005>
-332.885192871094

> <r_mmod_Solvation_Energy-OPLS-2005>
-410.074523925781

> <b_mmod_Minimization_Converged-OPLS-2005>
0

> <r_mmod_RMS_Derivative-OPLS-2005>
1.80375337600708

$$$$
87
                    3D
 Structure written by MMmdl.
180189  0  0  1  0            999 V2000
  -30.6249  -14.7054   20.4937 C   0  0  0  0  0  0
  -30.4213  -12.4179   19.5233 C   0  0  0  0  0  0
  -29.5344  -12.5180   18.2614 C   0  0  0  0  0  0
  -28.0475  -12.3724   18.6409 C   0  0  0  0  0  0
  -27.6483  -13.2433   19.8633 C   0  0  2  0  0  0
  -28.6750  -13.1576   21.0146 C   0  0  0  0  0  0
  -25.2496  -13.8252   20.5674 C   0  0  0  0  0  0
  -24.1817  -13.0472   20.9177 C   0  0  0  0  0  0
  -24.6410  -11.6960   20.8730 C   0  0  0  0  0  0
  -23.9109  -10.4327   21.0390 C   0  0  0  0  0  0
  -24.3667   -9.4222   21.9149 C   0  0  0  0  0  0
  -23.6345   -8.2251   22.0739 C   0  0  0  0  0  0
  -22.4305   -8.0309   21.3550 C   0  0  0  0  0  0
  -21.9948   -9.0288   20.4650 C   0  0  0  0  0  0
  -22.7280  -10.2150   20.3047 C   0  0  0  0  0  0
  -21.6880   -6.0763   22.5274 C   0  0  0  0  0  0
  -21.4032   -6.5663   23.8203 C   0  0  0  0  0  0
  -21.3675   -5.6808   24.9169 C   0  0  0  0  0  0
  -21.6049   -4.3070   24.7201 C   0  0  0  0  0  0
  -21.8812   -3.8154   23.4323 C   0  0  0  0  0  0
  -21.9197   -4.6992   22.3378 C   0  0  0  0  0  0
  -22.7824  -13.5239   21.1839 C   0  0  0  0  0  0
  -22.1663   -4.2189   21.0950 F   0  0  0  0  0  0
  -21.5633   -3.4532   25.7690 F   0  0  0  0  0  0
  -29.9981  -13.4790   20.4638 N   0  0  0  0  0  0
  -26.2959  -12.9477   20.3306 N   0  0  0  0  0  0
  -25.9347  -11.6600   20.5763 N   0  0  0  0  0  0
  -22.0474  -12.8231   22.0387 N   0  0  0  0  0  0
  -25.4154  -15.1981   20.4074 N   0  0  0  0  0  0
  -31.7689  -14.8260   20.0482 O   0  0  0  0  0  0
  -21.6678   -6.8904   21.4235 O   0  0  0  0  0  0
  -22.3487  -14.5531   20.6702 O   0  0  0  0  0  0
  -24.6206  -31.8576   23.1986 C   0  0  0  0  0  0
  -25.9028  -32.4779   23.8327 C   0  0  1  0  0  0
  -27.2268  -27.2847   20.1488 C   0  0  0  0  0  0
  -25.5819  -33.8583   24.2223 N   0  0  0  0  0  0
  -23.4220  -30.4793   21.5371 C   0  0  2  0  0  0
  -24.8811  -28.9404   20.1029 C   0  0  0  0  0  0
  -22.7471  -29.4575   22.4867 C   0  0  0  0  0  0
  -18.0286  -28.1405   22.8482 C   0  0  0  0  0  0
  -24.1480  -36.7295   23.2643 C   0  0  0  0  0  0
  -25.9677  -30.7815   21.3824 C   0  0  0  0  0  0
  -26.0462  -29.4077   20.7244 C   0  0  0  0  0  0
  -27.2178  -28.5926   20.7416 C   0  0  0  0  0  0
  -26.0476  -26.8954   19.4739 C   0  0  0  0  0  0
  -24.8882  -27.6934   19.4627 C   0  0  0  0  0  0
  -23.6431  -29.8118   20.1534 C   0  0  0  0  0  0
  -25.4109  -36.3087   24.0321 C   0  0  1  0  0  0
  -20.5888  -28.3673   23.1296 C   0  0  2  0  0  0
  -20.6780  -26.9382   22.5445 C   0  0  0  0  0  0
  -19.5753  -26.6368   21.5255 C   0  0  0  0  0  0
  -18.1923  -26.7939   22.1648 C   0  0  0  0  0  0
  -19.1537  -28.8854   23.2886 C   0  0  0  0  0  0
  -18.9464  -30.1459   23.8892 C   0  0  0  0  0  0
  -17.6460  -30.6604   24.0548 C   0  0  0  0  0  0
  -25.9043  -34.9458   23.5091 C   0  0  0  0  0  0
  -16.5356  -29.9103   23.6321 C   0  0  0  0  0  0
  -16.7260  -28.6527   23.0333 C   0  0  0  0  0  0
  -26.4369  -31.6626   25.0728 C   0  0  0  0  0  0
  -25.3546  -31.3865   26.1408 C   0  0  0  0  0  0
  -27.0195  -30.3028   24.6252 C   0  0  0  0  0  0
  -27.5881  -32.4361   25.7528 C   0  0  0  0  0  0
  -27.5579  -37.1806   24.8437 C   0  0  0  0  0  0
  -21.4181  -29.3002   22.3654 N   0  0  0  0  0  0
  -26.4286  -37.3779   23.9390 N   0  0  0  0  0  0
  -24.6888  -31.0554   22.0950 N   0  0  0  0  0  0
  -23.4196  -28.8096   23.2930 O   0  0  0  0  0  0
  -28.3217  -26.3992   20.2610 O   0  0  0  0  0  0
  -26.5643  -34.8919   22.4679 O   0  0  0  0  0  0
  -23.5349  -32.1348   23.7289 O   0  0  0  0  0  0
  -29.5267  -18.4221   18.2341 C   0  0  0  0  0  0
  -29.3300  -19.6295   18.9279 C   0  0  0  0  0  0
  -29.7809  -17.2194   18.9147 C   0  0  0  0  0  0
  -29.3894  -19.6948   20.3406 C   0  0  0  0  0  0
  -29.6226  -18.4269   21.0415 C   0  0  0  0  0  0
  -29.8187  -17.1622   20.3262 C   0  0  0  0  0  0
  -33.0150  -18.5431   23.9777 C   0  0  0  0  0  0
  -32.0377  -18.1884   22.8597 C   0  0  0  0  0  0
  -30.7513  -18.9247   24.6674 C   0  0  0  0  0  0
  -32.1241  -18.4627   25.2066 C   0  0  2  0  0  0
  -31.9890  -20.0850   28.6255 C   0  0  0  0  0  0
  -32.8200  -17.7163   28.3188 C   0  0  0  0  0  0
  -29.6313  -18.4048   22.5735 C   0  0  0  0  0  0
  -29.1937  -21.1275   21.0278 C   0  0  0  0  0  0
  -28.9749  -23.7834   20.7594 C   0  0  0  0  0  0
  -28.1291  -24.9333   20.0031 C   0  0  0  0  0  0
  -32.0514  -18.8828   27.6689 C   0  0  0  0  0  0
  -30.8421  -18.9589   23.1980 N   0  0  0  0  0  0
  -29.9184  -15.8125   20.9360 N   0  0  0  0  0  0
  -32.6328  -19.2566   26.3536 N   0  3  0  0  0  0
  -28.9403  -22.3681   20.1564 N   0  3  0  0  0  0
  -31.4778  -12.4869   19.2680 H   0  0  0  0  0  0
  -30.2925  -11.4450   19.9935 H   0  0  0  0  0  0
  -29.8170  -11.7551   17.5346 H   0  0  0  0  0  0
  -29.7006  -13.4822   17.7757 H   0  0  0  0  0  0
  -27.8662  -11.3202   18.8555 H   0  0  0  0  0  0
  -27.4188  -12.6265   17.7858 H   0  0  0  0  0  0
  -27.6489  -14.2750   19.5092 H   0  0  0  0  0  0
  -28.6712  -12.1638   21.4682 H   0  0  0  0  0  0
  -28.3972  -13.8558   21.8071 H   0  0  0  0  0  0
  -25.2821   -9.5722   22.4700 H   0  0  0  0  0  0
  -24.0090   -7.4647   22.7446 H   0  0  0  0  0  0
  -21.0889   -8.8814   19.8953 H   0  0  0  0  0  0
  -22.3750  -10.9699   19.6170 H   0  0  0  0  0  0
  -21.2029   -7.6173   23.9741 H   0  0  0  0  0  0
  -21.1521   -6.0520   25.9088 H   0  0  0  0  0  0
  -22.0571   -2.7619   23.2800 H   0  0  0  0  0  0
  -22.4162  -11.9968   22.4867 H   0  0  0  0  0  0
  -21.1060  -13.1205   22.2513 H   0  0  0  0  0  0
  -24.6407  -15.8475   20.5040 H   0  0  0  0  0  0
  -26.2675  -15.6407   20.0849 H   0  0  0  0  0  0
  -26.7106  -32.5447   23.1087 H   0  0  0  0  0  0
  -24.9837  -33.9722   25.0275 H   0  0  0  0  0  0
  -22.7143  -31.2961   21.3882 H   0  0  0  0  0  0
  -23.3750  -35.9620   23.3292 H   0  0  0  0  0  0
  -24.3568  -36.8938   22.2062 H   0  0  0  0  0  0
  -23.7239  -37.6493   23.6682 H   0  0  0  0  0  0
  -26.1101  -31.5506   20.6197 H   0  0  0  0  0  0
  -26.8413  -30.8285   22.0199 H   0  0  0  0  0  0
  -28.1012  -28.9364   21.2625 H   0  0  0  0  0  0
  -25.9845  -25.9504   18.9549 H   0  0  0  0  0  0
  -24.0006  -27.3308   18.9624 H   0  0  0  0  0  0
  -23.7488  -30.5822   19.3894 H   0  0  0  0  0  0
  -22.7700  -29.2261   19.8592 H   0  0  0  0  0  0
  -25.1319  -36.1939   25.0826 H   0  0  0  0  0  0
  -20.9994  -28.3279   24.1412 H   0  0  0  0  0  0
  -20.5723  -26.2261   23.3642 H   0  0  0  0  0  0
  -21.6644  -26.7428   22.1208 H   0  0  0  0  0  0
  -19.6899  -25.6277   21.1278 H   0  0  0  0  0  0
  -19.6740  -27.3190   20.6798 H   0  0  0  0  0  0
  -17.4203  -26.6660   21.4047 H   0  0  0  0  0  0
  -18.0297  -26.0134   22.9093 H   0  0  0  0  0  0
  -19.7941  -30.7273   24.2275 H   0  0  0  0  0  0
  -17.5019  -31.6296   24.5130 H   0  0  0  0  0  0
  -15.5356  -30.2998   23.7675 H   0  0  0  0  0  0
  -15.8653  -28.0868   22.7021 H   0  0  0  0  0  0
  -24.5625  -30.7337   25.7723 H   0  0  0  0  0  0
  -24.8824  -32.3103   26.4783 H   0  0  0  0  0  0
  -25.7755  -30.9022   27.0225 H   0  0  0  0  0  0
  -26.2846  -29.6854   24.1071 H   0  0  0  0  0  0
  -27.3605  -29.7221   25.4834 H   0  0  0  0  0  0
  -27.8827  -30.4262   23.9697 H   0  0  0  0  0  0
  -27.2422  -33.3614   26.2141 H   0  0  0  0  0  0
  -28.3690  -32.7007   25.0395 H   0  0  0  0  0  0
  -28.0515  -31.8463   26.5434 H   0  0  0  0  0  0
  -28.2573  -38.0130   24.7493 H   0  0  0  0  0  0
  -28.1112  -36.2650   24.6266 H   0  0  0  0  0  0
  -27.2270  -37.1444   25.8835 H   0  0  0  0  0  0
  -20.9330  -29.8714   21.6871 H   0  0  0  0  0  0
  -26.0164  -38.2845   24.1452 H   0  0  0  0  0  0
  -29.4523  -18.4192   17.1553 H   0  0  0  0  0  0
  -29.1161  -20.5054   18.3338 H   0  0  0  0  0  0
  -29.8976  -16.3203   18.3220 H   0  0  0  0  0  0
  -33.3997  -19.5525   23.8380 H   0  0  0  0  0  0
  -33.8600  -17.8569   24.0249 H   0  0  0  0  0  0
  -31.8256  -17.1170   22.8869 H   0  0  0  0  0  0
  -32.4209  -18.4314   21.8671 H   0  0  0  0  0  0
  -30.4973  -19.9287   25.0113 H   0  0  0  0  0  0
  -29.9692  -18.2552   25.0286 H   0  0  0  0  0  0
  -32.0612  -17.4110   25.4926 H   0  0  0  0  0  0
  -31.5255  -19.7925   29.5703 H   0  0  0  0  0  0
  -31.3917  -20.8952   28.2075 H   0  0  0  0  0  0
  -32.9785  -20.4769   28.8576 H   0  0  0  0  0  0
  -32.3276  -17.3992   29.2393 H   0  0  0  0  0  0
  -33.8405  -18.0001   28.5763 H   0  0  0  0  0  0
  -32.8681  -16.8430   27.6695 H   0  0  0  0  0  0
  -29.4737  -17.3846   22.9243 H   0  0  0  0  0  0
  -28.7584  -18.9603   22.9204 H   0  0  0  0  0  0
  -30.0835  -21.3267   21.6238 H   0  0  0  0  0  0
  -28.3625  -21.0626   21.7327 H   0  0  0  0  0  0
  -28.6248  -23.7321   21.7934 H   0  0  0  0  0  0
  -30.0220  -24.0828   20.8210 H   0  0  0  0  0  0
  -27.0958  -24.6706   20.2300 H   0  0  0  0  0  0
  -28.2447  -24.8054   18.9283 H   0  0  0  0  0  0
  -31.0202  -18.5625   27.5058 H   0  0  0  0  0  0
  -29.1636  -15.5820   21.5630 H   0  0  0  0  0  0
  -32.4475  -20.2279   26.1669 H   0  0  0  0  0  0
  -33.6328  -19.1423   26.4074 H   0  0  0  0  0  0
  -28.0512  -22.2399   19.7019 H   0  0  0  0  0  0
  -29.6367  -22.3495   19.4281 H   0  0  0  0  0  0
  1 25  1  0  0  0
  1 30  2  0  0  0
  1 89  1  0  0  0
  2  3  1  0  0  0
  2 25  1  0  0  0
  2 92  1  0  0  0
  2 93  1  0  0  0
  3  4  1  0  0  0
  3 94  1  0  0  0
  3 95  1  0  0  0
  4  5  1  0  0  0
  4 96  1  0  0  0
  4 97  1  0  0  0
  5  6  1  0  0  0
  5 26  1  0  0  0
  5 98  1  0  0  0
  6 25  1  0  0  0
  6 99  1  0  0  0
  6100  1  0  0  0
  7  8  2  0  0  0
  7 26  1  0  0  0
  7 29  1  0  0  0
  8  9  1  0  0  0
  8 22  1  0  0  0
  9 10  1  0  0  0
  9 27  2  0  0  0
 10 11  2  0  0  0
 10 15  1  0  0  0
 11 12  1  0  0  0
 11101  1  0  0  0
 12 13  2  0  0  0
 12102  1  0  0  0
 13 14  1  0  0  0
 13 31  1  0  0  0
 14 15  2  0  0  0
 14103  1  0  0  0
 15104  1  0  0  0
 16 17  2  0  0  0
 16 21  1  0  0  0
 16 31  1  0  0  0
 17 18  1  0  0  0
 17105  1  0  0  0
 18 19  2  0  0  0
 18106  1  0  0  0
 19 20  1  0  0  0
 19 24  1  0  0  0
 20 21  2  0  0  0
 20107  1  0  0  0
 21 23  1  0  0  0
 22 28  1  0  0  0
 22 32  2  0  0  0
 26 27  1  0  0  0
 28108  1  0  0  0
 28109  1  0  0  0
 29110  1  0  0  0
 29111  1  0  0  0
 33 34  1  0  0  0
 33 66  1  0  0  0
 33 70  2  0  0  0
 34 36  1  0  0  0
 34 59  1  0  0  0
 34112  1  0  0  0
 35 44  2  0  0  0
 35 45  1  0  0  0
 35 68  1  0  0  0
 36 56  1  0  0  0
 36113  1  0  0  0
 37 39  1  0  0  0
 37 47  1  0  0  0
 37 66  1  0  0  0
 37114  1  0  0  0
 38 43  2  0  0  0
 38 46  1  0  0  0
 38 47  1  0  0  0
 39 64  1  0  0  0
 39 67  2  0  0  0
 40 52  1  0  0  0
 40 53  2  0  0  0
 40 58  1  0  0  0
 41115  1  0  0  0
 41116  1  0  0  0
 41117  1  0  0  0
 41 48  1  0  0  0
 42 43  1  0  0  0
 42 66  1  0  0  0
 42118  1  0  0  0
 42119  1  0  0  0
 43 44  1  0  0  0
 44120  1  0  0  0
 45 46  2  0  0  0
 45121  1  0  0  0
 46122  1  0  0  0
 47123  1  0  0  0
 47124  1  0  0  0
 48 56  1  0  0  0
 48 65  1  0  0  0
 48125  1  0  0  0
 49 50  1  0  0  0
 49 53  1  0  0  0
 49 64  1  0  0  0
 49126  1  0  0  0
 50 51  1  0  0  0
 50127  1  0  0  0
 50128  1  0  0  0
 51 52  1  0  0  0
 51129  1  0  0  0
 51130  1  0  0  0
 52131  1  0  0  0
 52132  1  0  0  0
 53 54  1  0  0  0
 54 55  2  0  0  0
 54133  1  0  0  0
 55 57  1  0  0  0
 55134  1  0  0  0
 56 69  2  0  0  0
 57 58  2  0  0  0
 57135  1  0  0  0
 58136  1  0  0  0
 59 60  1  0  0  0
 59 61  1  0  0  0
 59 62  1  0  0  0
 60137  1  0  0  0
 60138  1  0  0  0
 60139  1  0  0  0
 61140  1  0  0  0
 61141  1  0  0  0
 61142  1  0  0  0
 62143  1  0  0  0
 62144  1  0  0  0
 62145  1  0  0  0
 63 65  1  0  0  0
 63146  1  0  0  0
 63147  1  0  0  0
 63148  1  0  0  0
 64149  1  0  0  0
 65150  1  0  0  0
 68 86  1  0  0  0
 71 72  2  0  0  0
 71 73  1  0  0  0
 71151  1  0  0  0
 72 74  1  0  0  0
 72152  1  0  0  0
 73 76  2  0  0  0
 73153  1  0  0  0
 74 75  2  0  0  0
 74 84  1  0  0  0
 75 76  1  0  0  0
 75 83  1  0  0  0
 76 89  1  0  0  0
 77 78  1  0  0  0
 77 80  1  0  0  0
 77154  1  0  0  0
 77155  1  0  0  0
 78 88  1  0  0  0
 78156  1  0  0  0
 78157  1  0  0  0
 79 80  1  0  0  0
 79 88  1  0  0  0
 79158  1  0  0  0
 79159  1  0  0  0
 80 90  1  0  0  0
 80160  1  0  0  0
 81161  1  0  0  0
 81162  1  0  0  0
 81163  1  0  0  0
 81 87  1  0  0  0
 82 87  1  0  0  0
 82164  1  0  0  0
 82165  1  0  0  0
 82166  1  0  0  0
 83 88  1  0  0  0
 83167  1  0  0  0
 83168  1  0  0  0
 84 91  1  0  0  0
 84169  1  0  0  0
 84170  1  0  0  0
 85 86  1  0  0  0
 85 91  1  0  0  0
 85171  1  0  0  0
 85172  1  0  0  0
 86173  1  0  0  0
 86174  1  0  0  0
 87 90  1  0  0  0
 87175  1  0  0  0
 89176  1  0  0  0
 90177  1  0  0  0
 90178  1  0  0  0
 91179  1  0  0  0
 91180  1  0  0  0
M  CHG  2  90   1  91   1
M  ISO  4   1 100  68 101  86 101  89 100
M  END
> <chiral flag>
0

> <version>
0

> <s_m_source_file>
/data/baiqing/PycharmProjects/Reinvent-master-3.2/result/LINK_invent/BTK/process_docking_weight1_custom_sum_contain_oxygen_bond_distance_aromatic_linkinvent_7_9_3/rearranged_h_0135.sdf

> <i_m_source_file_index>
88

> <r_mmod_Potential_Energy-OPLS-2005>
-56.0045051574707

> <r_mmod_Stretch_Energy-OPLS-2005>
123.16618347168

> <r_mmod_Bend_Energy-OPLS-2005>
180.001525878906

> <r_mmod_Torsional_Energy-OPLS-2005>
314.397857666016

> <r_mmod_Improper_Torsional_Energy-OPLS-2005>
4.37669706344604

> <r_mmod_Van_der_Waal_Energy-OPLS-2005>
136.412231445312

> <r_mmod_Electrostatic_Energy-OPLS-2005>
-7.437415599823

> <r_mmod_Solvation_Energy-OPLS-2005>
-881.038513183594

> <b_mmod_Minimization_Converged-OPLS-2005>
0

> <r_mmod_RMS_Derivative-OPLS-2005>
4.90755605697632

$$$$
88
                    3D
 Structure written by MMmdl.
161169  0  0  1  0            999 V2000
  -30.6599  -14.4760   20.5701 C   0  0  0  0  0  0
  -30.4347  -12.3033   19.4280 C   0  0  0  0  0  0
  -29.5061  -12.5166   18.2121 C   0  0  0  0  0  0
  -28.0233  -12.3751   18.6155 C   0  0  0  0  0  0
  -27.6683  -13.1986   19.8827 C   0  0  2  0  0  0
  -28.7053  -12.9480   21.0028 C   0  0  0  0  0  0
  -25.2615  -13.8147   20.5660 C   0  0  0  0  0  0
  -24.1847  -13.0442   20.9156 C   0  0  0  0  0  0
  -24.6388  -11.6904   20.8717 C   0  0  0  0  0  0
  -23.9054  -10.4296   21.0397 C   0  0  0  0  0  0
  -24.3610   -9.4215   21.9175 C   0  0  0  0  0  0
  -23.6288   -8.2250   22.0755 C   0  0  0  0  0  0
  -22.4263   -8.0287   21.3554 C   0  0  0  0  0  0
  -21.9897   -9.0256   20.4652 C   0  0  0  0  0  0
  -22.7227  -10.2132   20.3048 C   0  0  0  0  0  0
  -21.6854   -6.0740   22.5287 C   0  0  0  0  0  0
  -21.4019   -6.5644   23.8220 C   0  0  0  0  0  0
  -21.3652   -5.6797   24.9182 C   0  0  0  0  0  0
  -21.6035   -4.3060   24.7232 C   0  0  0  0  0  0
  -21.8822   -3.8155   23.4354 C   0  0  0  0  0  0
  -21.9196   -4.6970   22.3408 C   0  0  0  0  0  0
  -22.7872  -13.5250   21.1826 C   0  0  0  0  0  0
  -22.1662   -4.2156   21.0985 F   0  0  0  0  0  0
  -21.5618   -3.4541   25.7746 F   0  0  0  0  0  0
  -30.0425  -13.2674   20.4681 N   0  0  0  0  0  0
  -26.3049  -12.9294   20.3368 N   0  0  0  0  0  0
  -25.9313  -11.6463   20.5743 N   0  0  0  0  0  0
  -22.0509  -12.8247   22.0380 N   0  0  0  0  0  0
  -25.4369  -15.1859   20.4061 N   0  0  0  0  0  0
  -31.7560  -14.7231   20.0601 O   0  0  0  0  0  0
  -21.6636   -6.8880   21.4246 O   0  0  0  0  0  0
  -22.3557  -14.5559   20.6678 O   0  0  0  0  0  0
  -24.6150  -31.8680   23.2082 C   0  0  0  0  0  0
  -25.9042  -32.4823   23.8386 C   0  0  1  0  0  0
  -27.2437  -27.4330   20.0867 C   0  0  0  0  0  0
  -25.5897  -33.8618   24.2321 N   0  0  0  0  0  0
  -23.4020  -30.4914   21.5485 C   0  0  2  0  0  0
  -24.8474  -28.9519   20.1159 C   0  0  0  0  0  0
  -22.7405  -29.4669   22.4978 C   0  0  0  0  0  0
  -18.0276  -28.1388   22.8484 C   0  0  0  0  0  0
  -24.1485  -36.7316   23.2636 C   0  0  0  0  0  0
  -25.9297  -30.8324   21.3589 C   0  0  0  0  0  0
  -26.0058  -29.4639   20.7103 C   0  0  0  0  0  0
  -27.2006  -28.7099   20.6964 C   0  0  0  0  0  0
  -26.0564  -26.9246   19.5080 C   0  0  0  0  0  0
  -24.8667  -27.6798   19.5174 C   0  0  0  0  0  0
  -23.6103  -29.8214   20.1633 C   0  0  0  0  0  0
  -25.4102  -36.3110   24.0337 C   0  0  1  0  0  0
  -20.5867  -28.3679   23.1311 C   0  0  2  0  0  0
  -20.6771  -26.9414   22.5416 C   0  0  0  0  0  0
  -19.5749  -26.6395   21.5213 C   0  0  0  0  0  0
  -18.1925  -26.7935   22.1620 C   0  0  0  0  0  0
  -19.1525  -28.8846   23.2901 C   0  0  0  0  0  0
  -18.9459  -30.1447   23.8920 C   0  0  0  0  0  0
  -17.6460  -30.6590   24.0570 C   0  0  0  0  0  0
  -25.9035  -34.9477   23.5130 C   0  0  0  0  0  0
  -16.5352  -29.9095   23.6320 C   0  0  0  0  0  0
  -16.7265  -28.6516   23.0337 C   0  0  0  0  0  0
  -26.4468  -31.6598   25.0710 C   0  0  0  0  0  0
  -25.3743  -31.3702   26.1465 C   0  0  0  0  0  0
  -27.0292  -30.3048   24.6072 C   0  0  0  0  0  0
  -27.6059  -32.4299   25.7465 C   0  0  0  0  0  0
  -27.5578  -37.1812   24.8460 C   0  0  0  0  0  0
  -21.4136  -29.3043   22.3711 N   0  0  0  0  0  0
  -26.4287  -37.3798   23.9412 N   0  0  0  0  0  0
  -24.6673  -31.0786   22.0974 N   0  0  0  0  0  0
  -23.4178  -28.8217   23.3025 O   0  0  0  0  0  0
  -28.4473  -26.7509   20.0997 O   0  0  0  0  0  0
  -26.5601  -34.8931   22.4693 O   0  0  0  0  0  0
  -23.5345  -32.1430   23.7485 O   0  0  0  0  0  0
  -29.6566  -20.2600   21.4983 C   0  0  0  0  0  0
  -29.2621  -21.5554   21.0931 C   0  0  0  0  0  0
  -30.1790  -19.3218   20.5755 C   0  0  0  0  0  0
  -30.3076  -19.7202   19.2163 C   0  0  0  0  0  0
  -29.3640  -21.9449   19.7376 C   0  0  0  0  0  0
  -29.8662  -21.0042   18.8070 C   0  0  0  0  0  0
  -30.9026  -18.7967   18.1604 C   0  0  0  0  0  0
  -28.6984  -21.2854   16.8048 C   0  0  0  0  0  0
  -30.5821  -17.9195   21.0758 C   0  0  0  0  0  0
  -29.6910  -16.7865   20.5083 C   0  0  0  0  0  0
  -28.6470  -25.5685   19.3089 C   0  0  0  0  0  0
  -28.6457  -24.2545   20.1276 C   0  0  0  0  0  0
  -29.8817  -15.4456   21.0860 N   0  0  0  0  0  0
  -29.9485  -21.3455   17.4809 O   0  0  0  0  0  0
  -29.0154  -23.1917   19.2452 O   0  0  0  0  0  0
  -31.4811  -12.4119   19.1366 H   0  0  0  0  0  0
  -30.3368  -11.2853   19.8084 H   0  0  0  0  0  0
  -29.7494  -11.8038   17.4224 H   0  0  0  0  0  0
  -29.6779  -13.5081   17.7885 H   0  0  0  0  0  0
  -27.8260  -11.3177   18.7932 H   0  0  0  0  0  0
  -27.3788  -12.6694   17.7862 H   0  0  0  0  0  0
  -27.7219  -14.2503   19.6011 H   0  0  0  0  0  0
  -28.6799  -11.9020   21.3121 H   0  0  0  0  0  0
  -28.4610  -13.5169   21.9007 H   0  0  0  0  0  0
  -25.2766   -9.5692   22.4728 H   0  0  0  0  0  0
  -24.0018   -7.4638   22.7458 H   0  0  0  0  0  0
  -21.0836   -8.8765   19.8946 H   0  0  0  0  0  0
  -22.3700  -10.9660   19.6137 H   0  0  0  0  0  0
  -21.2020   -7.6155   23.9728 H   0  0  0  0  0  0
  -21.1458   -6.0527   25.9083 H   0  0  0  0  0  0
  -22.0604   -2.7619   23.2857 H   0  0  0  0  0  0
  -22.4124  -11.9911   22.4769 H   0  0  0  0  0  0
  -21.1113  -13.1255   22.2562 H   0  0  0  0  0  0
  -24.6739  -15.8463   20.5083 H   0  0  0  0  0  0
  -26.2938  -15.6198   20.0868 H   0  0  0  0  0  0
  -26.7119  -32.5529   23.1154 H   0  0  0  0  0  0
  -25.0042  -33.9783   25.0464 H   0  0  0  0  0  0
  -22.6904  -31.3080   21.4086 H   0  0  0  0  0  0
  -23.3748  -35.9649   23.3297 H   0  0  0  0  0  0
  -24.3586  -36.8933   22.2052 H   0  0  0  0  0  0
  -23.7242  -37.6521   23.6653 H   0  0  0  0  0  0
  -26.0390  -31.5951   20.5868 H   0  0  0  0  0  0
  -26.8194  -30.8910   21.9739 H   0  0  0  0  0  0
  -28.0972  -29.1083   21.1505 H   0  0  0  0  0  0
  -26.0183  -25.9444   19.0567 H   0  0  0  0  0  0
  -23.9711  -27.2730   19.0686 H   0  0  0  0  0  0
  -23.7221  -30.5965   19.4040 H   0  0  0  0  0  0
  -22.7326  -29.2450   19.8651 H   0  0  0  0  0  0
  -25.1279  -36.1972   25.0832 H   0  0  0  0  0  0
  -20.9963  -28.3259   24.1431 H   0  0  0  0  0  0
  -20.5680  -26.2291   23.3610 H   0  0  0  0  0  0
  -21.6644  -26.7459   22.1210 H   0  0  0  0  0  0
  -19.6914  -25.6309   21.1238 H   0  0  0  0  0  0
  -19.6688  -27.3210   20.6748 H   0  0  0  0  0  0
  -17.4196  -26.6674   21.4025 H   0  0  0  0  0  0
  -18.0327  -26.0081   22.9020 H   0  0  0  0  0  0
  -19.7935  -30.7253   24.2307 H   0  0  0  0  0  0
  -17.5020  -31.6271   24.5168 H   0  0  0  0  0  0
  -15.5356  -30.3009   23.7633 H   0  0  0  0  0  0
  -15.8664  -28.0846   22.7036 H   0  0  0  0  0  0
  -24.5894  -30.7077   25.7795 H   0  0  0  0  0  0
  -24.8959  -32.2860   26.4949 H   0  0  0  0  0  0
  -25.8096  -30.8833   27.0202 H   0  0  0  0  0  0
  -26.2826  -29.6807   24.1147 H   0  0  0  0  0  0
  -27.4102  -29.7281   25.4512 H   0  0  0  0  0  0
  -27.8642  -30.4377   23.9187 H   0  0  0  0  0  0
  -27.2710  -33.3609   26.2052 H   0  0  0  0  0  0
  -28.3864  -32.6837   25.0278 H   0  0  0  0  0  0
  -28.0729  -31.8407   26.5370 H   0  0  0  0  0  0
  -28.2595  -38.0108   24.7515 H   0  0  0  0  0  0
  -28.1076  -36.2646   24.6272 H   0  0  0  0  0  0
  -27.2307  -37.1449   25.8866 H   0  0  0  0  0  0
  -20.9297  -29.8755   21.6923 H   0  0  0  0  0  0
  -26.0174  -38.2877   24.1416 H   0  0  0  0  0  0
  -29.5584  -19.9926   22.5420 H   0  0  0  0  0  0
  -28.8771  -22.2351   21.8396 H   0  0  0  0  0  0
  -31.5842  -18.0584   18.5796 H   0  0  0  0  0  0
  -31.4761  -19.3644   17.4271 H   0  0  0  0  0  0
  -30.1083  -18.2757   17.6258 H   0  0  0  0  0  0
  -28.8598  -21.3818   15.7311 H   0  0  0  0  0  0
  -28.0302  -22.0897   17.1132 H   0  0  0  0  0  0
  -28.1944  -20.3332   16.9786 H   0  0  0  0  0  0
  -30.5248  -17.9024   22.1648 H   0  0  0  0  0  0
  -31.6306  -17.7379   20.8389 H   0  0  0  0  0  0
  -29.7900  -16.7180   19.4253 H   0  0  0  0  0  0
  -28.6485  -17.0537   20.6867 H   0  0  0  0  0  0
  -27.9857  -25.5021   18.4462 H   0  0  0  0  0  0
  -29.6401  -25.6765   18.8728 H   0  0  0  0  0  0
  -27.6632  -24.0667   20.5616 H   0  0  0  0  0  0
  -29.3660  -24.3399   20.9427 H   0  0  0  0  0  0
  -29.0786  -15.0919   21.5851 H   0  0  0  0  0  0
  1 25  1  0  0  0
  1 30  2  0  0  0
  1 83  1  0  0  0
  2  3  1  0  0  0
  2 25  1  0  0  0
  2 86  1  0  0  0
  2 87  1  0  0  0
  3  4  1  0  0  0
  3 88  1  0  0  0
  3 89  1  0  0  0
  4  5  1  0  0  0
  4 90  1  0  0  0
  4 91  1  0  0  0
  5  6  1  0  0  0
  5 26  1  0  0  0
  5 92  1  0  0  0
  6 25  1  0  0  0
  6 93  1  0  0  0
  6 94  1  0  0  0
  7  8  2  0  0  0
  7 26  1  0  0  0
  7 29  1  0  0  0
  8  9  1  0  0  0
  8 22  1  0  0  0
  9 10  1  0  0  0
  9 27  2  0  0  0
 10 11  2  0  0  0
 10 15  1  0  0  0
 11 12  1  0  0  0
 11 95  1  0  0  0
 12 13  2  0  0  0
 12 96  1  0  0  0
 13 14  1  0  0  0
 13 31  1  0  0  0
 14 15  2  0  0  0
 14 97  1  0  0  0
 15 98  1  0  0  0
 16 17  2  0  0  0
 16 21  1  0  0  0
 16 31  1  0  0  0
 17 18  1  0  0  0
 17 99  1  0  0  0
 18 19  2  0  0  0
 18100  1  0  0  0
 19 20  1  0  0  0
 19 24  1  0  0  0
 20 21  2  0  0  0
 20101  1  0  0  0
 21 23  1  0  0  0
 22 28  1  0  0  0
 22 32  2  0  0  0
 26 27  1  0  0  0
 28102  1  0  0  0
 28103  1  0  0  0
 29104  1  0  0  0
 29105  1  0  0  0
 33 34  1  0  0  0
 33 66  1  0  0  0
 33 70  2  0  0  0
 34 36  1  0  0  0
 34 59  1  0  0  0
 34106  1  0  0  0
 35 44  2  0  0  0
 35 45  1  0  0  0
 35 68  1  0  0  0
 36 56  1  0  0  0
 36107  1  0  0  0
 37 39  1  0  0  0
 37 47  1  0  0  0
 37 66  1  0  0  0
 37108  1  0  0  0
 38 43  2  0  0  0
 38 46  1  0  0  0
 38 47  1  0  0  0
 39 64  1  0  0  0
 39 67  2  0  0  0
 40 52  1  0  0  0
 40 53  2  0  0  0
 40 58  1  0  0  0
 41109  1  0  0  0
 41110  1  0  0  0
 41111  1  0  0  0
 41 48  1  0  0  0
 42 43  1  0  0  0
 42 66  1  0  0  0
 42112  1  0  0  0
 42113  1  0  0  0
 43 44  1  0  0  0
 44114  1  0  0  0
 45 46  2  0  0  0
 45115  1  0  0  0
 46116  1  0  0  0
 47117  1  0  0  0
 47118  1  0  0  0
 48 56  1  0  0  0
 48 65  1  0  0  0
 48119  1  0  0  0
 49 50  1  0  0  0
 49 53  1  0  0  0
 49 64  1  0  0  0
 49120  1  0  0  0
 50 51  1  0  0  0
 50121  1  0  0  0
 50122  1  0  0  0
 51 52  1  0  0  0
 51123  1  0  0  0
 51124  1  0  0  0
 52125  1  0  0  0
 52126  1  0  0  0
 53 54  1  0  0  0
 54 55  2  0  0  0
 54127  1  0  0  0
 55 57  1  0  0  0
 55128  1  0  0  0
 56 69  2  0  0  0
 57 58  2  0  0  0
 57129  1  0  0  0
 58130  1  0  0  0
 59 60  1  0  0  0
 59 61  1  0  0  0
 59 62  1  0  0  0
 60131  1  0  0  0
 60132  1  0  0  0
 60133  1  0  0  0
 61134  1  0  0  0
 61135  1  0  0  0
 61136  1  0  0  0
 62137  1  0  0  0
 62138  1  0  0  0
 62139  1  0  0  0
 63 65  1  0  0  0
 63140  1  0  0  0
 63141  1  0  0  0
 63142  1  0  0  0
 64143  1  0  0  0
 65144  1  0  0  0
 68 81  1  0  0  0
 71 72  2  0  0  0
 71 73  1  0  0  0
 71145  1  0  0  0
 72 75  1  0  0  0
 72146  1  0  0  0
 73 74  2  0  0  0
 73 79  1  0  0  0
 74 76  1  0  0  0
 74 77  1  0  0  0
 75 76  2  0  0  0
 75 85  1  0  0  0
 76 84  1  0  0  0
 77147  1  0  0  0
 77148  1  0  0  0
 77149  1  0  0  0
 78 84  1  0  0  0
 78150  1  0  0  0
 78151  1  0  0  0
 78152  1  0  0  0
 79 80  1  0  0  0
 79153  1  0  0  0
 79154  1  0  0  0
 80 83  1  0  0  0
 80155  1  0  0  0
 80156  1  0  0  0
 81 82  1  0  0  0
 81157  1  0  0  0
 81158  1  0  0  0
 82 85  1  0  0  0
 82159  1  0  0  0
 82160  1  0  0  0
 83161  1  0  0  0
M  ISO  4   1 100  68 101  81 101  83 100
M  END
> <chiral flag>
0

> <version>
0

> <s_m_source_file>
/data/baiqing/PycharmProjects/Reinvent-master-3.2/result/LINK_invent/BTK/process_docking_weight1_custom_sum_contain_oxygen_bond_distance_aromatic_linkinvent_7_9_3/rearranged_h_0135.sdf

> <i_m_source_file_index>
89

> <r_mmod_Potential_Energy-OPLS-2005>
-36.7225875854492

> <r_mmod_Stretch_Energy-OPLS-2005>
40.0374412536621

> <r_mmod_Bend_Energy-OPLS-2005>
116.944358825684

> <r_mmod_Torsional_Energy-OPLS-2005>
238.268264770508

> <r_mmod_Improper_Torsional_Energy-OPLS-2005>
7.25328350067139

> <r_mmod_Van_der_Waal_Energy-OPLS-2005>
154.783218383789

> <r_mmod_Electrostatic_Energy-OPLS-2005>
-387.380828857422

> <r_mmod_Solvation_Energy-OPLS-2005>
-219.665817260742

> <b_mmod_Minimization_Converged-OPLS-2005>
0

> <r_mmod_RMS_Derivative-OPLS-2005>
1.34785211086273

$$$$
89
                    3D
 Structure written by MMmdl.
175184  0  0  1  0            999 V2000
  -30.6600  -14.4981   20.5628 C   0  0  0  0  0  0
  -30.4374  -12.3200   19.4214 C   0  0  0  0  0  0
  -29.4981  -12.5045   18.2088 C   0  0  0  0  0  0
  -28.0196  -12.3541   18.6241 C   0  0  0  0  0  0
  -27.6642  -13.1863   19.8843 C   0  0  2  0  0  0
  -28.7106  -12.9620   21.0006 C   0  0  0  0  0  0
  -25.2657  -13.8102   20.5724 C   0  0  0  0  0  0
  -24.1835  -13.0409   20.9071 C   0  0  0  0  0  0
  -24.6360  -11.6863   20.8684 C   0  0  0  0  0  0
  -23.9024  -10.4269   21.0386 C   0  0  0  0  0  0
  -24.3588   -9.4199   21.9173 C   0  0  0  0  0  0
  -23.6272   -8.2234   22.0754 C   0  0  0  0  0  0
  -22.4253   -8.0269   21.3546 C   0  0  0  0  0  0
  -21.9878   -9.0233   20.4643 C   0  0  0  0  0  0
  -22.7199  -10.2114   20.3043 C   0  0  0  0  0  0
  -21.6845   -6.0729   22.5284 C   0  0  0  0  0  0
  -21.4005   -6.5635   23.8216 C   0  0  0  0  0  0
  -21.3656   -5.6792   24.9180 C   0  0  0  0  0  0
  -21.6045   -4.3054   24.7232 C   0  0  0  0  0  0
  -21.8818   -3.8142   23.4355 C   0  0  0  0  0  0
  -21.9189   -4.6957   22.3410 C   0  0  0  0  0  0
  -22.7884  -13.5256   21.1773 C   0  0  0  0  0  0
  -22.1663   -4.2143   21.0987 F   0  0  0  0  0  0
  -21.5629   -3.4538   25.7744 F   0  0  0  0  0  0
  -30.0377  -13.2928   20.4500 N   0  0  0  0  0  0
  -26.3053  -12.9213   20.3460 N   0  0  0  0  0  0
  -25.9293  -11.6399   20.5792 N   0  0  0  0  0  0
  -22.0492  -12.8257   22.0310 N   0  0  0  0  0  0
  -25.4615  -15.1842   20.4429 N   0  0  0  0  0  0
  -31.7728  -14.7350   20.0871 O   0  0  0  0  0  0
  -21.6625   -6.8865   21.4243 O   0  0  0  0  0  0
  -22.3672  -14.5639   20.6697 O   0  0  0  0  0  0
  -24.6148  -31.8675   23.2098 C   0  0  0  0  0  0
  -25.9037  -32.4824   23.8400 C   0  0  1  0  0  0
  -27.2402  -27.4354   20.1004 C   0  0  0  0  0  0
  -25.5891  -33.8622   24.2331 N   0  0  0  0  0  0
  -23.4047  -30.4891   21.5497 C   0  0  2  0  0  0
  -24.8558  -28.9534   20.1161 C   0  0  0  0  0  0
  -22.7415  -29.4651   22.4989 C   0  0  0  0  0  0
  -18.0273  -28.1380   22.8497 C   0  0  0  0  0  0
  -24.1486  -36.7315   23.2639 C   0  0  0  0  0  0
  -25.9332  -30.8324   21.3649 C   0  0  0  0  0  0
  -26.0145  -29.4651   20.7158 C   0  0  0  0  0  0
  -27.2125  -28.7118   20.7093 C   0  0  0  0  0  0
  -26.0707  -26.9380   19.4936 C   0  0  0  0  0  0
  -24.8781  -27.6877   19.5026 C   0  0  0  0  0  0
  -23.6156  -29.8187   20.1653 C   0  0  0  0  0  0
  -25.4107  -36.3116   24.0341 C   0  0  1  0  0  0
  -20.5863  -28.3667   23.1318 C   0  0  2  0  0  0
  -20.6762  -26.9402   22.5420 C   0  0  0  0  0  0
  -19.5741  -26.6386   21.5215 C   0  0  0  0  0  0
  -18.1919  -26.7927   22.1627 C   0  0  0  0  0  0
  -19.1522  -28.8841   23.2904 C   0  0  0  0  0  0
  -18.9449  -30.1448   23.8911 C   0  0  0  0  0  0
  -17.6451  -30.6586   24.0569 C   0  0  0  0  0  0
  -25.9033  -34.9477   23.5136 C   0  0  0  0  0  0
  -16.5343  -29.9088   23.6326 C   0  0  0  0  0  0
  -16.7262  -28.6505   23.0350 C   0  0  0  0  0  0
  -26.4466  -31.6598   25.0722 C   0  0  0  0  0  0
  -25.3732  -31.3698   26.1470 C   0  0  0  0  0  0
  -27.0296  -30.3041   24.6093 C   0  0  0  0  0  0
  -27.6046  -32.4310   25.7483 C   0  0  0  0  0  0
  -27.5582  -37.1812   24.8466 C   0  0  0  0  0  0
  -21.4142  -29.3032   22.3726 N   0  0  0  0  0  0
  -26.4296  -37.3796   23.9409 N   0  0  0  0  0  0
  -24.6689  -31.0773   22.1001 N   0  0  0  0  0  0
  -23.4181  -28.8198   23.3041 O   0  0  0  0  0  0
  -28.3735  -26.6528   20.0846 O   0  0  0  0  0  0
  -26.5597  -34.8927   22.4698 O   0  0  0  0  0  0
  -23.5336  -32.1427   23.7484 O   0  0  0  0  0  0
  -29.3117  -23.8950   19.7062 C   0  0  0  0  0  0
  -29.7062  -22.5488   19.5240 C   0  0  0  0  0  0
  -28.9885  -23.4561   22.0635 C   0  0  0  0  0  0
  -28.9468  -24.3654   20.9839 C   0  0  0  0  0  0
  -29.7484  -21.6245   20.6027 C   0  0  0  0  0  0
  -29.3775  -22.1048   21.8890 C   0  0  0  0  0  0
  -27.0192  -18.8621   18.3964 C   0  0  0  0  0  0
  -28.2359  -19.7262   18.7463 C   0  0  0  0  0  0
  -27.4299  -17.3987   18.2213 C   0  0  0  0  0  0
  -29.0068  -19.1947   19.9859 C   0  0  1  0  0  0
  -29.3396  -17.6571   19.8051 C   0  0  1  0  0  0
  -29.3917  -21.1995   23.1104 C   0  0  0  0  0  0
  -32.6402  -20.8288   19.8818 C   0  0  0  0  0  0
  -28.5133  -25.8165   21.2454 C   0  0  0  0  0  0
  -30.0588  -16.9490   21.0064 C   0  0  0  0  0  0
  -31.4098  -20.0346   19.4157 C   0  0  0  0  0  0
  -30.1934  -20.1487   20.3711 C   0  0  1  0  0  0
  -29.8730  -15.4777   21.0556 N   0  0  0  0  0  0
  -28.1037  -16.9154   19.4413 N   0  3  0  0  0  0
  -31.4784  -12.4428   19.1170 H   0  0  0  0  0  0
  -30.3612  -11.3054   19.8153 H   0  0  0  0  0  0
  -29.7413  -11.7789   17.4314 H   0  0  0  0  0  0
  -29.6568  -13.4885   17.7646 H   0  0  0  0  0  0
  -27.8361  -11.2966   18.8185 H   0  0  0  0  0  0
  -27.3655  -12.6266   17.7949 H   0  0  0  0  0  0
  -27.7020  -14.2303   19.5849 H   0  0  0  0  0  0
  -28.6984  -11.9196   21.3229 H   0  0  0  0  0  0
  -28.4689  -13.5400   21.8936 H   0  0  0  0  0  0
  -25.2734   -9.5679   22.4741 H   0  0  0  0  0  0
  -23.9982   -7.4628   22.7477 H   0  0  0  0  0  0
  -21.0808   -8.8745   19.8952 H   0  0  0  0  0  0
  -22.3656  -10.9647   19.6149 H   0  0  0  0  0  0
  -21.1998   -7.6143   23.9717 H   0  0  0  0  0  0
  -21.1480   -6.0524   25.9084 H   0  0  0  0  0  0
  -22.0601   -2.7602   23.2861 H   0  0  0  0  0  0
  -22.4036  -11.9856   22.4636 H   0  0  0  0  0  0
  -21.1143  -13.1348   22.2558 H   0  0  0  0  0  0
  -24.5520  -15.6357   20.4441 H   0  0  0  0  0  0
  -25.9184  -15.4912   21.2927 H   0  0  0  0  0  0
  -26.7111  -32.5548   23.1170 H   0  0  0  0  0  0
  -25.0040  -33.9785   25.0477 H   0  0  0  0  0  0
  -22.6937  -31.3056   21.4085 H   0  0  0  0  0  0
  -23.3749  -35.9647   23.3306 H   0  0  0  0  0  0
  -24.3582  -36.8926   22.2053 H   0  0  0  0  0  0
  -23.7234  -37.6520   23.6651 H   0  0  0  0  0  0
  -26.0433  -31.5961   20.5938 H   0  0  0  0  0  0
  -26.8213  -30.8896   21.9823 H   0  0  0  0  0  0
  -28.1077  -29.1017   21.1735 H   0  0  0  0  0  0
  -26.0836  -25.9645   19.0236 H   0  0  0  0  0  0
  -23.9881  -27.2870   19.0368 H   0  0  0  0  0  0
  -23.7221  -30.5924   19.4042 H   0  0  0  0  0  0
  -22.7407  -29.2363   19.8709 H   0  0  0  0  0  0
  -25.1282  -36.1986   25.0835 H   0  0  0  0  0  0
  -20.9955  -28.3232   24.1437 H   0  0  0  0  0  0
  -20.5668  -26.2272   23.3606 H   0  0  0  0  0  0
  -21.6633  -26.7444   22.1213 H   0  0  0  0  0  0
  -19.6903  -25.6302   21.1233 H   0  0  0  0  0  0
  -19.6682  -27.3207   20.6755 H   0  0  0  0  0  0
  -17.4191  -26.6684   21.4025 H   0  0  0  0  0  0
  -18.0315  -26.0062   22.9016 H   0  0  0  0  0  0
  -19.7924  -30.7262   24.2284 H   0  0  0  0  0  0
  -17.5006  -31.6269   24.5170 H   0  0  0  0  0  0
  -15.5344  -30.2996   23.7641 H   0  0  0  0  0  0
  -15.8662  -28.0830   22.7052 H   0  0  0  0  0  0
  -24.5897  -30.7060   25.7798 H   0  0  0  0  0  0
  -24.8932  -32.2850   26.4942 H   0  0  0  0  0  0
  -25.8082  -30.8840   27.0213 H   0  0  0  0  0  0
  -26.2839  -29.6806   24.1146 H   0  0  0  0  0  0
  -27.4066  -29.7274   25.4550 H   0  0  0  0  0  0
  -27.8675  -30.4364   23.9244 H   0  0  0  0  0  0
  -27.2676  -33.3604   26.2087 H   0  0  0  0  0  0
  -28.3843  -32.6875   25.0299 H   0  0  0  0  0  0
  -28.0727  -31.8412   26.5376 H   0  0  0  0  0  0
  -28.2606  -38.0103   24.7514 H   0  0  0  0  0  0
  -28.1072  -36.2635   24.6296 H   0  0  0  0  0  0
  -27.2301  -37.1471   25.8870 H   0  0  0  0  0  0
  -20.9303  -29.8750   21.6943 H   0  0  0  0  0  0
  -26.0190  -38.2878   24.1405 H   0  0  0  0  0  0
  -29.2910  -24.5650   18.8584 H   0  0  0  0  0  0
  -29.9714  -22.2292   18.5271 H   0  0  0  0  0  0
  -28.7145  -23.8095   23.0485 H   0  0  0  0  0  0
  -26.5517  -19.2285   17.4815 H   0  0  0  0  0  0
  -26.2640  -18.9474   19.1795 H   0  0  0  0  0  0
  -27.8739  -20.7387   18.9175 H   0  0  0  0  0  0
  -28.9024  -19.7777   17.8847 H   0  0  0  0  0  0
  -28.0919  -17.2859   17.3612 H   0  0  0  0  0  0
  -26.5514  -16.7819   18.0254 H   0  0  0  0  0  0
  -28.3076  -19.2538   20.8216 H   0  0  0  0  0  0
  -30.0003  -17.5523   18.9432 H   0  0  0  0  0  0
  -28.9415  -21.6873   23.9755 H   0  0  0  0  0  0
  -30.4155  -20.9350   23.3766 H   0  0  0  0  0  0
  -28.8316  -20.2828   22.9279 H   0  0  0  0  0  0
  -33.4751  -20.6857   19.1955 H   0  0  0  0  0  0
  -32.9663  -20.5032   20.8701 H   0  0  0  0  0  0
  -32.4411  -21.8992   19.9336 H   0  0  0  0  0  0
  -29.2534  -26.2780   21.9001 H   0  0  0  0  0  0
  -27.5845  -25.7794   21.8201 H   0  0  0  0  0  0
  -29.6614  -17.3457   21.9414 H   0  0  0  0  0  0
  -31.1213  -17.1997   21.0099 H   0  0  0  0  0  0
  -31.7159  -18.9933   19.3268 H   0  0  0  0  0  0
  -31.1421  -20.3451   18.4063 H   0  0  0  0  0  0
  -30.5728  -19.7798   21.3230 H   0  0  0  0  0  0
  -29.0410  -15.1435   21.5198 H   0  0  0  0  0  0
  -28.3441  -15.9511   19.2926 H   0  0  0  0  0  0
  -27.4405  -16.9562   20.1986 H   0  0  0  0  0  0
  1 25  1  0  0  0
  1 30  2  0  0  0
  1 88  1  0  0  0
  2  3  1  0  0  0
  2 25  1  0  0  0
  2 90  1  0  0  0
  2 91  1  0  0  0
  3  4  1  0  0  0
  3 92  1  0  0  0
  3 93  1  0  0  0
  4  5  1  0  0  0
  4 94  1  0  0  0
  4 95  1  0  0  0
  5  6  1  0  0  0
  5 26  1  0  0  0
  5 96  1  0  0  0
  6 25  1  0  0  0
  6 97  1  0  0  0
  6 98  1  0  0  0
  7  8  2  0  0  0
  7 26  1  0  0  0
  7 29  1  0  0  0
  8  9  1  0  0  0
  8 22  1  0  0  0
  9 10  1  0  0  0
  9 27  2  0  0  0
 10 11  2  0  0  0
 10 15  1  0  0  0
 11 12  1  0  0  0
 11 99  1  0  0  0
 12 13  2  0  0  0
 12100  1  0  0  0
 13 14  1  0  0  0
 13 31  1  0  0  0
 14 15  2  0  0  0
 14101  1  0  0  0
 15102  1  0  0  0
 16 17  2  0  0  0
 16 21  1  0  0  0
 16 31  1  0  0  0
 17 18  1  0  0  0
 17103  1  0  0  0
 18 19  2  0  0  0
 18104  1  0  0  0
 19 20  1  0  0  0
 19 24  1  0  0  0
 20 21  2  0  0  0
 20105  1  0  0  0
 21 23  1  0  0  0
 22 28  1  0  0  0
 22 32  2  0  0  0
 26 27  1  0  0  0
 28106  1  0  0  0
 28107  1  0  0  0
 29108  1  0  0  0
 29109  1  0  0  0
 33 34  1  0  0  0
 33 66  1  0  0  0
 33 70  2  0  0  0
 34 36  1  0  0  0
 34 59  1  0  0  0
 34110  1  0  0  0
 35 44  2  0  0  0
 35 45  1  0  0  0
 35 68  1  0  0  0
 36 56  1  0  0  0
 36111  1  0  0  0
 37 39  1  0  0  0
 37 47  1  0  0  0
 37 66  1  0  0  0
 37112  1  0  0  0
 38 43  2  0  0  0
 38 46  1  0  0  0
 38 47  1  0  0  0
 39 64  1  0  0  0
 39 67  2  0  0  0
 40 52  1  0  0  0
 40 53  2  0  0  0
 40 58  1  0  0  0
 41113  1  0  0  0
 41114  1  0  0  0
 41115  1  0  0  0
 41 48  1  0  0  0
 42 43  1  0  0  0
 42 66  1  0  0  0
 42116  1  0  0  0
 42117  1  0  0  0
 43 44  1  0  0  0
 44118  1  0  0  0
 45 46  2  0  0  0
 45119  1  0  0  0
 46120  1  0  0  0
 47121  1  0  0  0
 47122  1  0  0  0
 48 56  1  0  0  0
 48 65  1  0  0  0
 48123  1  0  0  0
 49 50  1  0  0  0
 49 53  1  0  0  0
 49 64  1  0  0  0
 49124  1  0  0  0
 50 51  1  0  0  0
 50125  1  0  0  0
 50126  1  0  0  0
 51 52  1  0  0  0
 51127  1  0  0  0
 51128  1  0  0  0
 52129  1  0  0  0
 52130  1  0  0  0
 53 54  1  0  0  0
 54 55  2  0  0  0
 54131  1  0  0  0
 55 57  1  0  0  0
 55132  1  0  0  0
 56 69  2  0  0  0
 57 58  2  0  0  0
 57133  1  0  0  0
 58134  1  0  0  0
 59 60  1  0  0  0
 59 61  1  0  0  0
 59 62  1  0  0  0
 60135  1  0  0  0
 60136  1  0  0  0
 60137  1  0  0  0
 61138  1  0  0  0
 61139  1  0  0  0
 61140  1  0  0  0
 62141  1  0  0  0
 62142  1  0  0  0
 62143  1  0  0  0
 63 65  1  0  0  0
 63144  1  0  0  0
 63145  1  0  0  0
 63146  1  0  0  0
 64147  1  0  0  0
 65148  1  0  0  0
 68 84  1  0  0  0
 71 72  2  0  0  0
 71 74  1  0  0  0
 71149  1  0  0  0
 72 75  1  0  0  0
 72150  1  0  0  0
 73 74  2  0  0  0
 73 76  1  0  0  0
 73151  1  0  0  0
 74 84  1  0  0  0
 75 76  2  0  0  0
 75 87  1  0  0  0
 76 82  1  0  0  0
 77 78  1  0  0  0
 77 79  1  0  0  0
 77152  1  0  0  0
 77153  1  0  0  0
 78154  1  0  0  0
 78155  1  0  0  0
 78 80  1  0  0  0
 79 89  1  0  0  0
 79156  1  0  0  0
 79157  1  0  0  0
 80 81  1  0  0  0
 80 87  1  0  0  0
 80158  1  0  0  0
 81 85  1  0  0  0
 81 89  1  0  0  0
 81159  1  0  0  0
 82160  1  0  0  0
 82161  1  0  0  0
 82162  1  0  0  0
 83 86  1  0  0  0
 83163  1  0  0  0
 83164  1  0  0  0
 83165  1  0  0  0
 84166  1  0  0  0
 84167  1  0  0  0
 85 88  1  0  0  0
 85168  1  0  0  0
 85169  1  0  0  0
 86170  1  0  0  0
 86171  1  0  0  0
 86 87  1  0  0  0
 87172  1  0  0  0
 88173  1  0  0  0
 89174  1  0  0  0
 89175  1  0  0  0
M  CHG  1  89   1
M  ISO  4   1 100  68 101  84 101  88 100
M  END
> <chiral flag>
0

> <version>
0

> <s_m_source_file>
/data/baiqing/PycharmProjects/Reinvent-master-3.2/result/LINK_invent/BTK/process_docking_weight1_custom_sum_contain_oxygen_bond_distance_aromatic_linkinvent_7_9_3/rearranged_h_0135.sdf

> <i_m_source_file_index>
90

> <r_mmod_Potential_Energy-OPLS-2005>
-127.642784118652

> <r_mmod_Stretch_Energy-OPLS-2005>
49.1084785461426

> <r_mmod_Bend_Energy-OPLS-2005>
103.428108215332

> <r_mmod_Torsional_Energy-OPLS-2005>
335.230895996094

> <r_mmod_Improper_Torsional_Energy-OPLS-2005>
11.4706087112427

> <r_mmod_Van_der_Waal_Energy-OPLS-2005>
146.154968261719

> <r_mmod_Electrostatic_Energy-OPLS-2005>
-344.187225341797

> <r_mmod_Solvation_Energy-OPLS-2005>
-443.662567138672

> <b_mmod_Minimization_Converged-OPLS-2005>
0

> <r_mmod_RMS_Derivative-OPLS-2005>
0.598208844661713

$$$$
90
                    3D
 Structure written by MMmdl.
169178  0  0  1  0            999 V2000
  -30.6720  -14.5134   20.5233 C   0  0  0  0  0  0
  -30.4192  -12.3078   19.4571 C   0  0  0  0  0  0
  -29.5066  -12.4937   18.2249 C   0  0  0  0  0  0
  -28.0228  -12.3602   18.6235 C   0  0  0  0  0  0
  -27.6550  -13.2090   19.8697 C   0  0  2  0  0  0
  -28.6930  -13.0241   21.0027 C   0  0  0  0  0  0
  -25.2495  -13.8060   20.5570 C   0  0  0  0  0  0
  -24.1798  -13.0362   20.9192 C   0  0  0  0  0  0
  -24.6382  -11.6850   20.8770 C   0  0  0  0  0  0
  -23.9054  -10.4256   21.0411 C   0  0  0  0  0  0
  -24.3605   -9.4179   21.9190 C   0  0  0  0  0  0
  -23.6280   -8.2217   22.0749 C   0  0  0  0  0  0
  -22.4262   -8.0263   21.3536 C   0  0  0  0  0  0
  -21.9897   -9.0241   20.4642 C   0  0  0  0  0  0
  -22.7228  -10.2112   20.3058 C   0  0  0  0  0  0
  -21.6845   -6.0725   22.5278 C   0  0  0  0  0  0
  -21.4012   -6.5633   23.8209 C   0  0  0  0  0  0
  -21.3662   -5.6788   24.9171 C   0  0  0  0  0  0
  -21.6036   -4.3047   24.7220 C   0  0  0  0  0  0
  -21.8825   -3.8142   23.4342 C   0  0  0  0  0  0
  -21.9190   -4.6961   22.3400 C   0  0  0  0  0  0
  -22.7827  -13.5183   21.1851 C   0  0  0  0  0  0
  -22.1661   -4.2145   21.0971 F   0  0  0  0  0  0
  -21.5629   -3.4528   25.7731 F   0  0  0  0  0  0
  -30.0267  -13.3159   20.4563 N   0  0  0  0  0  0
  -26.2966  -12.9287   20.3305 N   0  0  0  0  0  0
  -25.9308  -11.6446   20.5775 N   0  0  0  0  0  0
  -22.0464  -12.8208   22.0424 N   0  0  0  0  0  0
  -25.4062  -15.1705   20.3702 N   0  0  0  0  0  0
  -31.8339  -14.6523   20.1336 O   0  0  0  0  0  0
  -21.6622   -6.8865   21.4235 O   0  0  0  0  0  0
  -22.3528  -14.5502   20.6694 O   0  0  0  0  0  0
  -24.6141  -31.8677   23.2087 C   0  0  0  0  0  0
  -25.9031  -32.4819   23.8391 C   0  0  1  0  0  0
  -27.2358  -27.4293   20.1094 C   0  0  0  0  0  0
  -25.5887  -33.8620   24.2328 N   0  0  0  0  0  0
  -23.3996  -30.4933   21.5482 C   0  0  2  0  0  0
  -24.8436  -28.9529   20.1181 C   0  0  0  0  0  0
  -22.7394  -29.4674   22.4968 C   0  0  0  0  0  0
  -18.0256  -28.1390   22.8461 C   0  0  0  0  0  0
  -24.1483  -36.7328   23.2641 C   0  0  0  0  0  0
  -25.9258  -30.8375   21.3513 C   0  0  0  0  0  0
  -26.0021  -29.4669   20.7111 C   0  0  0  0  0  0
  -27.1956  -28.7148   20.6986 C   0  0  0  0  0  0
  -26.0530  -26.9270   19.5147 C   0  0  0  0  0  0
  -24.8645  -27.6834   19.5160 C   0  0  0  0  0  0
  -23.6080  -29.8221   20.1645 C   0  0  0  0  0  0
  -25.4099  -36.3106   24.0335 C   0  0  1  0  0  0
  -20.5849  -28.3679   23.1279 C   0  0  2  0  0  0
  -20.6740  -26.9413   22.5405 C   0  0  0  0  0  0
  -19.5739  -26.6382   21.5184 C   0  0  0  0  0  0
  -18.1915  -26.7930   22.1593 C   0  0  0  0  0  0
  -19.1511  -28.8842   23.2867 C   0  0  0  0  0  0
  -18.9450  -30.1435   23.8910 C   0  0  0  0  0  0
  -17.6462  -30.6586   24.0570 C   0  0  0  0  0  0
  -25.9020  -34.9475   23.5120 C   0  0  0  0  0  0
  -16.5347  -29.9113   23.6311 C   0  0  0  0  0  0
  -16.7252  -28.6523   23.0337 C   0  0  0  0  0  0
  -26.4494  -31.6578   25.0698 C   0  0  0  0  0  0
  -25.3807  -31.3648   26.1479 C   0  0  0  0  0  0
  -27.0301  -30.3032   24.5999 C   0  0  0  0  0  0
  -27.6069  -32.4291   25.7479 C   0  0  0  0  0  0
  -27.5564  -37.1819   24.8461 C   0  0  0  0  0  0
  -21.4125  -29.3063   22.3709 N   0  0  0  0  0  0
  -26.4271  -37.3789   23.9410 N   0  0  0  0  0  0
  -24.6660  -31.0813   22.0954 N   0  0  0  0  0  0
  -23.4187  -28.8194   23.2983 O   0  0  0  0  0  0
  -28.4455  -26.7600   20.1237 O   0  0  0  0  0  0
  -26.5593  -34.8919   22.4694 O   0  0  0  0  0  0
  -23.5332  -32.1421   23.7486 O   0  0  0  0  0  0
  -28.3117  -20.0834   21.6394 C   0  0  0  0  0  0
  -30.8077  -18.8897   21.3307 C   0  0  0  0  0  0
  -28.3811  -18.7455   21.1831 C   0  0  0  0  0  0
  -29.4590  -20.8473   21.9256 C   0  0  0  0  0  0
  -29.6586  -18.1677   20.9268 C   0  0  0  0  0  0
  -30.7220  -20.2094   21.8406 C   0  0  0  0  0  0
  -25.9426  -18.5920   20.1839 C   0  0  0  0  0  0
  -25.8043  -18.3472   21.6709 C   0  0  0  0  0  0
  -27.0938  -17.9910   20.9590 C   0  0  0  0  0  0
  -31.9970  -20.9170   22.2690 C   0  0  0  0  0  0
  -30.8644  -17.0918   18.9483 C   0  0  0  0  0  0
  -29.2675  -22.3292   22.2940 C   0  0  0  0  0  0
  -28.6573  -24.5681   21.2721 C   0  0  0  0  0  0
  -28.5392  -25.3388   19.9313 C   0  0  0  0  0  0
  -29.8223  -16.8846   20.0716 C   0  0  2  0  0  0
  -29.8728  -15.5763   20.7813 N   0  0  0  0  0  0
  -29.1188  -23.1609   21.0735 N   0  3  0  0  0  0
  -31.4697  -12.3880   19.1720 H   0  0  0  0  0  0
  -30.3010  -11.3061   19.8724 H   0  0  0  0  0  0
  -29.7535  -11.7560   17.4600 H   0  0  0  0  0  0
  -29.6856  -13.4724   17.7764 H   0  0  0  0  0  0
  -27.8297  -11.3056   18.8269 H   0  0  0  0  0  0
  -27.3832  -12.6276   17.7821 H   0  0  0  0  0  0
  -27.6865  -14.2515   19.5530 H   0  0  0  0  0  0
  -28.6664  -11.9998   21.3784 H   0  0  0  0  0  0
  -28.4557  -13.6575   21.8583 H   0  0  0  0  0  0
  -25.2745   -9.5647   22.4764 H   0  0  0  0  0  0
  -23.9983   -7.4602   22.7465 H   0  0  0  0  0  0
  -21.0823   -8.8756   19.8955 H   0  0  0  0  0  0
  -22.3688  -10.9649   19.6171 H   0  0  0  0  0  0
  -21.2013   -7.6134   23.9712 H   0  0  0  0  0  0
  -21.1476   -6.0506   25.9067 H   0  0  0  0  0  0
  -22.0607   -2.7598   23.2834 H   0  0  0  0  0  0
  -22.4053  -11.9860   22.4830 H   0  0  0  0  0  0
  -21.1089  -13.1259   22.2623 H   0  0  0  0  0  0
  -24.6166  -15.8025   20.4353 H   0  0  0  0  0  0
  -26.2081  -15.5816   19.9148 H   0  0  0  0  0  0
  -26.7103  -32.5557   23.1161 H   0  0  0  0  0  0
  -25.0044  -33.9802   25.0479 H   0  0  0  0  0  0
  -22.6856  -31.3084   21.4068 H   0  0  0  0  0  0
  -23.3711  -35.9690   23.3313 H   0  0  0  0  0  0
  -24.3571  -36.8942   22.2045 H   0  0  0  0  0  0
  -23.7261  -37.6551   23.6655 H   0  0  0  0  0  0
  -26.0159  -31.5893   20.5657 H   0  0  0  0  0  0
  -26.8236  -30.9141   21.9513 H   0  0  0  0  0  0
  -28.0916  -29.1209   21.1450 H   0  0  0  0  0  0
  -26.0110  -25.9662   19.0273 H   0  0  0  0  0  0
  -23.9730  -27.2843   19.0504 H   0  0  0  0  0  0
  -23.7207  -30.5932   19.4013 H   0  0  0  0  0  0
  -22.7328  -29.2414   19.8674 H   0  0  0  0  0  0
  -25.1274  -36.1964   25.0820 H   0  0  0  0  0  0
  -20.9932  -28.3265   24.1401 H   0  0  0  0  0  0
  -20.5564  -26.2337   23.3623 H   0  0  0  0  0  0
  -21.6628  -26.7417   22.1262 H   0  0  0  0  0  0
  -19.6913  -25.6288   21.1229 H   0  0  0  0  0  0
  -19.6668  -27.3181   20.6701 H   0  0  0  0  0  0
  -17.4184  -26.6633   21.4002 H   0  0  0  0  0  0
  -18.0330  -26.0086   22.8999 H   0  0  0  0  0  0
  -19.7940  -30.7208   24.2318 H   0  0  0  0  0  0
  -17.5042  -31.6268   24.5186 H   0  0  0  0  0  0
  -15.5365  -30.3044   23.7606 H   0  0  0  0  0  0
  -15.8642  -28.0847   22.7064 H   0  0  0  0  0  0
  -24.5987  -30.6976   25.7836 H   0  0  0  0  0  0
  -24.9013  -32.2790   26.4982 H   0  0  0  0  0  0
  -25.8231  -30.8803   27.0194 H   0  0  0  0  0  0
  -26.2787  -29.6798   24.1135 H   0  0  0  0  0  0
  -27.4190  -29.7247   25.4386 H   0  0  0  0  0  0
  -27.8572  -30.4365   23.9022 H   0  0  0  0  0  0
  -27.2681  -33.3564   26.2109 H   0  0  0  0  0  0
  -28.3881  -32.6898   25.0326 H   0  0  0  0  0  0
  -28.0747  -31.8393   26.5371 H   0  0  0  0  0  0
  -28.2600  -38.0101   24.7494 H   0  0  0  0  0  0
  -28.1050  -36.2637   24.6304 H   0  0  0  0  0  0
  -27.2300  -37.1494   25.8873 H   0  0  0  0  0  0
  -20.9283  -29.8878   21.7014 H   0  0  0  0  0  0
  -26.0155  -38.2860   24.1429 H   0  0  0  0  0  0
  -27.3504  -20.5617   21.7525 H   0  0  0  0  0  0
  -31.7825  -18.4423   21.1931 H   0  0  0  0  0  0
  -26.0381  -19.6234   19.8475 H   0  0  0  0  0  0
  -25.3751  -17.9395   19.5233 H   0  0  0  0  0  0
  -25.1570  -17.5278   21.9755 H   0  0  0  0  0  0
  -25.7690  -19.2143   22.3252 H   0  0  0  0  0  0
  -27.2731  -16.9234   20.9075 H   0  0  0  0  0  0
  -32.8569  -20.2456   22.2367 H   0  0  0  0  0  0
  -31.9070  -21.2671   23.2973 H   0  0  0  0  0  0
  -32.2069  -21.7724   21.6279 H   0  0  0  0  0  0
  -31.8813  -17.1754   19.3285 H   0  0  0  0  0  0
  -30.6532  -18.0033   18.3886 H   0  0  0  0  0  0
  -30.8484  -16.2747   18.2283 H   0  0  0  0  0  0
  -30.0814  -22.7071   22.9137 H   0  0  0  0  0  0
  -28.3660  -22.4199   22.9007 H   0  0  0  0  0  0
  -27.6920  -24.5753   21.7777 H   0  0  0  0  0  0
  -29.3592  -25.0855   21.9270 H   0  0  0  0  0  0
  -29.4556  -25.1857   19.3620 H   0  0  0  0  0  0
  -27.7575  -24.9072   19.3097 H   0  0  0  0  0  0
  -28.9043  -16.8045   19.4902 H   0  0  0  0  0  0
  -28.9975  -15.3194   21.2107 H   0  0  0  0  0  0
  -28.4686  -22.6882   20.4670 H   0  0  0  0  0  0
  -30.0107  -23.1614   20.6053 H   0  0  0  0  0  0
  1 25  1  0  0  0
  1 30  2  0  0  0
  1 86  1  0  0  0
  2  3  1  0  0  0
  2 25  1  0  0  0
  2 88  1  0  0  0
  2 89  1  0  0  0
  3  4  1  0  0  0
  3 90  1  0  0  0
  3 91  1  0  0  0
  4  5  1  0  0  0
  4 92  1  0  0  0
  4 93  1  0  0  0
  5  6  1  0  0  0
  5 26  1  0  0  0
  5 94  1  0  0  0
  6 25  1  0  0  0
  6 95  1  0  0  0
  6 96  1  0  0  0
  7  8  2  0  0  0
  7 26  1  0  0  0
  7 29  1  0  0  0
  8  9  1  0  0  0
  8 22  1  0  0  0
  9 10  1  0  0  0
  9 27  2  0  0  0
 10 11  2  0  0  0
 10 15  1  0  0  0
 11 12  1  0  0  0
 11 97  1  0  0  0
 12 13  2  0  0  0
 12 98  1  0  0  0
 13 14  1  0  0  0
 13 31  1  0  0  0
 14 15  2  0  0  0
 14 99  1  0  0  0
 15100  1  0  0  0
 16 17  2  0  0  0
 16 21  1  0  0  0
 16 31  1  0  0  0
 17 18  1  0  0  0
 17101  1  0  0  0
 18 19  2  0  0  0
 18102  1  0  0  0
 19 20  1  0  0  0
 19 24  1  0  0  0
 20 21  2  0  0  0
 20103  1  0  0  0
 21 23  1  0  0  0
 22 28  1  0  0  0
 22 32  2  0  0  0
 26 27  1  0  0  0
 28104  1  0  0  0
 28105  1  0  0  0
 29106  1  0  0  0
 29107  1  0  0  0
 33 34  1  0  0  0
 33 66  1  0  0  0
 33 70  2  0  0  0
 34 36  1  0  0  0
 34 59  1  0  0  0
 34108  1  0  0  0
 35 44  2  0  0  0
 35 45  1  0  0  0
 35 68  1  0  0  0
 36 56  1  0  0  0
 36109  1  0  0  0
 37 39  1  0  0  0
 37 47  1  0  0  0
 37 66  1  0  0  0
 37110  1  0  0  0
 38 43  2  0  0  0
 38 46  1  0  0  0
 38 47  1  0  0  0
 39 64  1  0  0  0
 39 67  2  0  0  0
 40 52  1  0  0  0
 40 53  2  0  0  0
 40 58  1  0  0  0
 41111  1  0  0  0
 41112  1  0  0  0
 41113  1  0  0  0
 41 48  1  0  0  0
 42 43  1  0  0  0
 42 66  1  0  0  0
 42114  1  0  0  0
 42115  1  0  0  0
 43 44  1  0  0  0
 44116  1  0  0  0
 45 46  2  0  0  0
 45117  1  0  0  0
 46118  1  0  0  0
 47119  1  0  0  0
 47120  1  0  0  0
 48 56  1  0  0  0
 48 65  1  0  0  0
 48121  1  0  0  0
 49 50  1  0  0  0
 49 53  1  0  0  0
 49 64  1  0  0  0
 49122  1  0  0  0
 50 51  1  0  0  0
 50123  1  0  0  0
 50124  1  0  0  0
 51 52  1  0  0  0
 51125  1  0  0  0
 51126  1  0  0  0
 52127  1  0  0  0
 52128  1  0  0  0
 53 54  1  0  0  0
 54 55  2  0  0  0
 54129  1  0  0  0
 55 57  1  0  0  0
 55130  1  0  0  0
 56 69  2  0  0  0
 57 58  2  0  0  0
 57131  1  0  0  0
 58132  1  0  0  0
 59 60  1  0  0  0
 59 61  1  0  0  0
 59 62  1  0  0  0
 60133  1  0  0  0
 60134  1  0  0  0
 60135  1  0  0  0
 61136  1  0  0  0
 61137  1  0  0  0
 61138  1  0  0  0
 62139  1  0  0  0
 62140  1  0  0  0
 62141  1  0  0  0
 63 65  1  0  0  0
 63142  1  0  0  0
 63143  1  0  0  0
 63144  1  0  0  0
 64145  1  0  0  0
 65146  1  0  0  0
 68 84  1  0  0  0
 71 73  2  0  0  0
 71 74  1  0  0  0
 71147  1  0  0  0
 72 75  2  0  0  0
 72 76  1  0  0  0
 72148  1  0  0  0
 73 75  1  0  0  0
 73 79  1  0  0  0
 74 76  2  0  0  0
 74 82  1  0  0  0
 75 85  1  0  0  0
 76 80  1  0  0  0
 77 78  1  0  0  0
 77 79  1  0  0  0
 77149  1  0  0  0
 77150  1  0  0  0
 78 79  1  0  0  0
 78151  1  0  0  0
 78152  1  0  0  0
 79153  1  0  0  0
 80154  1  0  0  0
 80155  1  0  0  0
 80156  1  0  0  0
 81157  1  0  0  0
 81158  1  0  0  0
 81159  1  0  0  0
 81 85  1  0  0  0
 82 87  1  0  0  0
 82160  1  0  0  0
 82161  1  0  0  0
 83 84  1  0  0  0
 83 87  1  0  0  0
 83162  1  0  0  0
 83163  1  0  0  0
 84164  1  0  0  0
 84165  1  0  0  0
 85 86  1  0  0  0
 85166  1  0  0  0
 86167  1  0  0  0
 87168  1  0  0  0
 87169  1  0  0  0
M  CHG  1  87   1
M  ISO  4   1 100  68 101  84 101  86 100
M  END
> <chiral flag>
0

> <version>
0

> <s_m_source_file>
/data/baiqing/PycharmProjects/Reinvent-master-3.2/result/LINK_invent/BTK/process_docking_weight1_custom_sum_contain_oxygen_bond_distance_aromatic_linkinvent_7_9_3/rearranged_h_0135.sdf

> <i_m_source_file_index>
91

> <r_mmod_Potential_Energy-OPLS-2005>
-174.728439331055

> <r_mmod_Stretch_Energy-OPLS-2005>
43.5049819946289

> <r_mmod_Bend_Energy-OPLS-2005>
124.133895874023

> <r_mmod_Torsional_Energy-OPLS-2005>
252.931762695312

> <r_mmod_Improper_Torsional_Energy-OPLS-2005>
9.97705554962158

> <r_mmod_Van_der_Waal_Energy-OPLS-2005>
153.173156738281

> <r_mmod_Electrostatic_Energy-OPLS-2005>
-336.055511474609

> <r_mmod_Solvation_Energy-OPLS-2005>
-440.227233886719

> <b_mmod_Minimization_Converged-OPLS-2005>
0

> <r_mmod_RMS_Derivative-OPLS-2005>
2.9541916847229

$$$$
91
                    3D
 Structure written by MMmdl.
156164  0  0  1  0            999 V2000
  -30.4849  -15.0778   20.3901 C   0  0  0  0  0  0
  -30.4386  -12.6665   19.5367 C   0  0  0  0  0  0
  -29.5348  -12.5597   18.2837 C   0  0  0  0  0  0
  -28.0705  -12.3212   18.6936 C   0  0  0  0  0  0
  -27.6261  -13.2627   19.8423 C   0  0  2  0  0  0
  -28.6586  -13.3362   20.9890 C   0  0  0  0  0  0
  -25.2432  -13.8240   20.5731 C   0  0  0  0  0  0
  -24.1760  -13.0446   20.9235 C   0  0  0  0  0  0
  -24.6394  -11.6936   20.8751 C   0  0  0  0  0  0
  -23.9087  -10.4300   21.0403 C   0  0  0  0  0  0
  -24.3634   -9.4214   21.9182 C   0  0  0  0  0  0
  -23.6306   -8.2251   22.0757 C   0  0  0  0  0  0
  -22.4285   -8.0289   21.3551 C   0  0  0  0  0  0
  -21.9923   -9.0262   20.4650 C   0  0  0  0  0  0
  -22.7256  -10.2137   20.3054 C   0  0  0  0  0  0
  -21.6854   -6.0740   22.5282 C   0  0  0  0  0  0
  -21.4015   -6.5642   23.8215 C   0  0  0  0  0  0
  -21.3661   -5.6792   24.9175 C   0  0  0  0  0  0
  -21.6043   -4.3055   24.7223 C   0  0  0  0  0  0
  -21.8818   -3.8151   23.4343 C   0  0  0  0  0  0
  -21.9192   -4.6969   22.3400 C   0  0  0  0  0  0
  -22.7779  -13.5211   21.1887 C   0  0  0  0  0  0
  -22.1660   -4.2154   21.0978 F   0  0  0  0  0  0
  -21.5629   -3.4538   25.7736 F   0  0  0  0  0  0
  -29.9284  -13.7837   20.4005 N   0  0  0  0  0  0
  -26.2863  -12.9495   20.3249 N   0  0  0  0  0  0
  -25.9331  -11.6610   20.5729 N   0  0  0  0  0  0
  -22.0431  -12.8196   22.0441 N   0  0  0  0  0  0
  -25.4099  -15.1972   20.4176 N   0  0  0  0  0  0
  -31.6713  -15.1257   20.0354 O   0  0  0  0  0  0
  -21.6647   -6.8888   21.4246 O   0  0  0  0  0  0
  -22.3460  -14.5518   20.6737 O   0  0  0  0  0  0
  -24.6508  -31.8339   23.1783 C   0  0  0  0  0  0
  -25.9242  -32.4638   23.8211 C   0  0  1  0  0  0
  -27.2215  -27.0434   20.1665 C   0  0  0  0  0  0
  -25.5955  -33.8448   24.2123 N   0  0  0  0  0  0
  -23.4595  -30.4476   21.5245 C   0  0  2  0  0  0
  -24.9118  -28.8534   20.1047 C   0  0  0  0  0  0
  -22.7606  -29.4488   22.4818 C   0  0  0  0  0  0
  -18.0312  -28.1402   22.8473 C   0  0  0  0  0  0
  -24.1493  -36.7231   23.2646 C   0  0  0  0  0  0
  -26.0193  -30.6766   21.3908 C   0  0  0  0  0  0
  -26.0878  -29.2781   20.7338 C   0  0  0  0  0  0
  -27.2356  -28.3882   20.7478 C   0  0  0  0  0  0
  -26.0221  -26.7385   19.4883 C   0  0  0  0  0  0
  -24.8975  -27.6015   19.4646 C   0  0  0  0  0  0
  -23.6911  -29.7665   20.1468 C   0  0  0  0  0  0
  -25.4129  -36.2997   24.0307 C   0  0  1  0  0  0
  -20.5928  -28.3733   23.1217 C   0  0  2  0  0  0
  -20.6791  -26.9425   22.5409 C   0  0  0  0  0  0
  -19.5764  -26.6378   21.5217 C   0  0  0  0  0  0
  -18.1946  -26.7938   22.1624 C   0  0  0  0  0  0
  -19.1570  -28.8888   23.2835 C   0  0  0  0  0  0
  -18.9485  -30.1482   23.8863 C   0  0  0  0  0  0
  -17.6479  -30.6595   24.0557 C   0  0  0  0  0  0
  -25.9085  -34.9377   23.5034 C   0  0  0  0  0  0
  -16.5369  -29.9084   23.6340 C   0  0  0  0  0  0
  -16.7296  -28.6504   23.0358 C   0  0  0  0  0  0
  -26.4535  -31.6547   25.0697 C   0  0  0  0  0  0
  -25.3693  -31.3767   26.1376 C   0  0  0  0  0  0
  -27.0420  -30.2930   24.6353 C   0  0  0  0  0  0
  -27.6047  -32.4336   25.7491 C   0  0  0  0  0  0
  -27.5571  -37.1771   24.8465 C   0  0  0  0  0  0
  -21.4289  -29.3037   22.3574 N   0  0  0  0  0  0
  -26.4282  -37.3721   23.9406 N   0  0  0  0  0  0
  -24.7301  -31.0105   22.0859 N   0  0  0  0  0  0
  -23.4211  -28.8060   23.3018 O   0  0  0  0  0  0
  -28.2677  -26.0313   20.3062 O   0  0  0  0  0  0
  -26.5689  -34.8894   22.4624 O   0  0  0  0  0  0
  -23.5608  -32.1261   23.6948 O   0  0  0  0  0  0
  -29.2776  -17.6517   18.7008 C   0  0  0  0  0  0
  -28.8961  -18.7849   17.9460 C   0  0  0  0  0  0
  -28.7958  -20.0838   18.5310 C   0  0  0  0  0  0
  -29.5564  -17.7053   20.0749 C   0  0  0  0  0  0
  -29.0569  -20.2495   19.9186 C   0  0  0  0  0  0
  -28.5968  -18.5530   16.4702 C   0  0  0  0  0  0
  -28.4594  -21.2855   17.6356 C   0  0  0  0  0  0
  -28.3646  -24.5226   19.7780 C   0  0  0  0  0  0
  -28.2427  -22.9324   20.4854 C   0  0  0  0  0  0
  -29.4308  -19.0415   20.6351 N   0  0  0  0  0  0
  -29.7384  -16.2813   20.7034 N   0  0  0  0  0  0
  -29.6591  -21.9309   17.0714 N   0  3  0  0  0  0
  -29.1664  -21.6242   20.4971 O   0  0  0  0  0  0
  -31.4743  -12.8244   19.2325 H   0  0  0  0  0  0
  -30.4415  -11.7250   20.0884 H   0  0  0  0  0  0
  -29.8788  -11.7549   17.6326 H   0  0  0  0  0  0
  -29.6081  -13.4793   17.7010 H   0  0  0  0  0  0
  -27.9849  -11.2829   19.0164 H   0  0  0  0  0  0
  -27.4104  -12.4299   17.8323 H   0  0  0  0  0  0
  -27.5763  -14.2563   19.3954 H   0  0  0  0  0  0
  -28.7675  -12.3699   21.4838 H   0  0  0  0  0  0
  -28.3294  -14.0380   21.7563 H   0  0  0  0  0  0
  -25.2778   -9.5691   22.4760 H   0  0  0  0  0  0
  -24.0013   -7.4640   22.7474 H   0  0  0  0  0  0
  -21.0857   -8.8786   19.8953 H   0  0  0  0  0  0
  -22.3720  -10.9677   19.6164 H   0  0  0  0  0  0
  -21.2010   -7.6150   23.9720 H   0  0  0  0  0  0
  -21.1484   -6.0522   25.9077 H   0  0  0  0  0  0
  -22.0596   -2.7615   23.2841 H   0  0  0  0  0  0
  -22.4051  -11.9865   22.4832 H   0  0  0  0  0  0
  -21.1044  -13.1210   22.2642 H   0  0  0  0  0  0
  -24.6405  -15.8482   20.5323 H   0  0  0  0  0  0
  -26.2518  -15.6386   20.0713 H   0  0  0  0  0  0
  -26.7305  -32.5211   23.0927 H   0  0  0  0  0  0
  -25.0054  -33.9541   25.0240 H   0  0  0  0  0  0
  -22.7665  -31.2756   21.3614 H   0  0  0  0  0  0
  -23.3760  -35.9556   23.3289 H   0  0  0  0  0  0
  -24.3572  -36.8892   22.2064 H   0  0  0  0  0  0
  -23.7246  -37.6416   23.6707 H   0  0  0  0  0  0
  -26.1860  -31.4252   20.6150 H   0  0  0  0  0  0
  -26.8850  -30.7294   22.0394 H   0  0  0  0  0  0
  -28.1258  -28.7048   21.2732 H   0  0  0  0  0  0
  -25.9165  -25.7754   19.0117 H   0  0  0  0  0  0
  -23.9996  -27.2709   18.9608 H   0  0  0  0  0  0
  -23.8314  -30.5366   19.3874 H   0  0  0  0  0  0
  -22.8041  -29.2114   19.8371 H   0  0  0  0  0  0
  -25.1323  -36.1807   25.0799 H   0  0  0  0  0  0
  -21.0019  -28.3335   24.1338 H   0  0  0  0  0  0
  -20.5678  -26.2350   23.3640 H   0  0  0  0  0  0
  -21.6658  -26.7419   22.1210 H   0  0  0  0  0  0
  -19.6923  -25.6281   21.1267 H   0  0  0  0  0  0
  -19.6699  -27.3173   20.6734 H   0  0  0  0  0  0
  -17.4216  -26.6686   21.4026 H   0  0  0  0  0  0
  -18.0336  -26.0092   22.9031 H   0  0  0  0  0  0
  -19.7960  -30.7311   24.2216 H   0  0  0  0  0  0
  -17.5030  -31.6271   24.5166 H   0  0  0  0  0  0
  -15.5367  -30.2972   23.7687 H   0  0  0  0  0  0
  -15.8697  -28.0813   22.7087 H   0  0  0  0  0  0
  -24.5877  -30.7112   25.7689 H   0  0  0  0  0  0
  -24.8876  -32.2961   26.4717 H   0  0  0  0  0  0
  -25.7949  -30.8990   27.0209 H   0  0  0  0  0  0
  -26.3061  -29.6622   24.1353 H   0  0  0  0  0  0
  -27.3987  -29.7267   25.4967 H   0  0  0  0  0  0
  -27.8986  -30.4140   23.9720 H   0  0  0  0  0  0
  -27.2626  -33.3666   26.1981 H   0  0  0  0  0  0
  -28.3903  -32.6850   25.0353 H   0  0  0  0  0  0
  -28.0666  -31.8522   26.5480 H   0  0  0  0  0  0
  -28.2576  -38.0078   24.7510 H   0  0  0  0  0  0
  -28.1079  -36.2606   24.6295 H   0  0  0  0  0  0
  -27.2288  -37.1422   25.8866 H   0  0  0  0  0  0
  -20.9522  -29.8724   21.6715 H   0  0  0  0  0  0
  -26.0140  -38.2785   24.1406 H   0  0  0  0  0  0
  -29.3159  -16.6915   18.2047 H   0  0  0  0  0  0
  -28.8236  -17.5302   16.1679 H   0  0  0  0  0  0
  -29.1884  -19.2097   15.8338 H   0  0  0  0  0  0
  -27.5400  -18.7214   16.2626 H   0  0  0  0  0  0
  -27.8635  -22.0179   18.1690 H   0  0  0  0  0  0
  -27.8091  -20.9851   16.8146 H   0  0  0  0  0  0
  -27.7642  -24.4896   18.8703 H   0  0  0  0  0  0
  -29.3809  -24.5215   19.3852 H   0  0  0  0  0  0
  -27.2307  -22.5787   20.2858 H   0  0  0  0  0  0
  -28.2018  -23.1556   21.5512 H   0  0  0  0  0  0
  -28.9640  -16.0560   21.3081 H   0  0  0  0  0  0
  -30.2630  -22.2884   17.7889 H   0  0  0  0  0  0
  -29.3859  -22.6977   16.4809 H   0  0  0  0  0  0
  -30.1855  -21.2889   16.5073 H   0  0  0  0  0  0
  1 25  1  0  0  0
  1 30  2  0  0  0
  1 81  1  0  0  0
  2  3  1  0  0  0
  2 25  1  0  0  0
  2 84  1  0  0  0
  2 85  1  0  0  0
  3  4  1  0  0  0
  3 86  1  0  0  0
  3 87  1  0  0  0
  4  5  1  0  0  0
  4 88  1  0  0  0
  4 89  1  0  0  0
  5  6  1  0  0  0
  5 26  1  0  0  0
  5 90  1  0  0  0
  6 25  1  0  0  0
  6 91  1  0  0  0
  6 92  1  0  0  0
  7  8  2  0  0  0
  7 26  1  0  0  0
  7 29  1  0  0  0
  8  9  1  0  0  0
  8 22  1  0  0  0
  9 10  1  0  0  0
  9 27  2  0  0  0
 10 11  2  0  0  0
 10 15  1  0  0  0
 11 12  1  0  0  0
 11 93  1  0  0  0
 12 13  2  0  0  0
 12 94  1  0  0  0
 13 14  1  0  0  0
 13 31  1  0  0  0
 14 15  2  0  0  0
 14 95  1  0  0  0
 15 96  1  0  0  0
 16 17  2  0  0  0
 16 21  1  0  0  0
 16 31  1  0  0  0
 17 18  1  0  0  0
 17 97  1  0  0  0
 18 19  2  0  0  0
 18 98  1  0  0  0
 19 20  1  0  0  0
 19 24  1  0  0  0
 20 21  2  0  0  0
 20 99  1  0  0  0
 21 23  1  0  0  0
 22 28  1  0  0  0
 22 32  2  0  0  0
 26 27  1  0  0  0
 28100  1  0  0  0
 28101  1  0  0  0
 29102  1  0  0  0
 29103  1  0  0  0
 33 34  1  0  0  0
 33 66  1  0  0  0
 33 70  2  0  0  0
 34 36  1  0  0  0
 34 59  1  0  0  0
 34104  1  0  0  0
 35 44  2  0  0  0
 35 45  1  0  0  0
 35 68  1  0  0  0
 36 56  1  0  0  0
 36105  1  0  0  0
 37 39  1  0  0  0
 37 47  1  0  0  0
 37 66  1  0  0  0
 37106  1  0  0  0
 38 43  2  0  0  0
 38 46  1  0  0  0
 38 47  1  0  0  0
 39 64  1  0  0  0
 39 67  2  0  0  0
 40 52  1  0  0  0
 40 53  2  0  0  0
 40 58  1  0  0  0
 41107  1  0  0  0
 41108  1  0  0  0
 41109  1  0  0  0
 41 48  1  0  0  0
 42 43  1  0  0  0
 42 66  1  0  0  0
 42110  1  0  0  0
 42111  1  0  0  0
 43 44  1  0  0  0
 44112  1  0  0  0
 45 46  2  0  0  0
 45113  1  0  0  0
 46114  1  0  0  0
 47115  1  0  0  0
 47116  1  0  0  0
 48 56  1  0  0  0
 48 65  1  0  0  0
 48117  1  0  0  0
 49 50  1  0  0  0
 49 53  1  0  0  0
 49 64  1  0  0  0
 49118  1  0  0  0
 50 51  1  0  0  0
 50119  1  0  0  0
 50120  1  0  0  0
 51 52  1  0  0  0
 51121  1  0  0  0
 51122  1  0  0  0
 52123  1  0  0  0
 52124  1  0  0  0
 53 54  1  0  0  0
 54 55  2  0  0  0
 54125  1  0  0  0
 55 57  1  0  0  0
 55126  1  0  0  0
 56 69  2  0  0  0
 57 58  2  0  0  0
 57127  1  0  0  0
 58128  1  0  0  0
 59 60  1  0  0  0
 59 61  1  0  0  0
 59 62  1  0  0  0
 60129  1  0  0  0
 60130  1  0  0  0
 60131  1  0  0  0
 61132  1  0  0  0
 61133  1  0  0  0
 61134  1  0  0  0
 62135  1  0  0  0
 62136  1  0  0  0
 62137  1  0  0  0
 63 65  1  0  0  0
 63138  1  0  0  0
 63139  1  0  0  0
 63140  1  0  0  0
 64141  1  0  0  0
 65142  1  0  0  0
 68 78  1  0  0  0
 71 72  2  0  0  0
 71 74  1  0  0  0
 71143  1  0  0  0
 72 73  1  0  0  0
 72 76  1  0  0  0
 73 75  2  0  0  0
 73 77  1  0  0  0
 74 80  2  0  0  0
 74 81  1  0  0  0
 75 80  1  0  0  0
 75 83  1  0  0  0
 76144  1  0  0  0
 76145  1  0  0  0
 76146  1  0  0  0
 77 82  1  0  0  0
 77147  1  0  0  0
 77148  1  0  0  0
 78 79  1  0  0  0
 78149  1  0  0  0
 78150  1  0  0  0
 79 83  1  0  0  0
 79151  1  0  0  0
 79152  1  0  0  0
 81153  1  0  0  0
 82154  1  0  0  0
 82155  1  0  0  0
 82156  1  0  0  0
M  CHG  1  82   1
M  ISO  4   1 100  68 101  78 101  81 100
M  END
> <chiral flag>
0

> <version>
0

> <s_m_source_file>
/data/baiqing/PycharmProjects/Reinvent-master-3.2/result/LINK_invent/BTK/process_docking_weight1_custom_sum_contain_oxygen_bond_distance_aromatic_linkinvent_7_9_3/rearranged_h_0135.sdf

> <i_m_source_file_index>
92

> <r_mmod_Potential_Energy-OPLS-2005>
509.12353515625

> <r_mmod_Stretch_Energy-OPLS-2005>
387.986511230469

> <r_mmod_Bend_Energy-OPLS-2005>
399.577087402344

> <r_mmod_Torsional_Energy-OPLS-2005>
252.65966796875

> <r_mmod_Improper_Torsional_Energy-OPLS-2005>
5.70335054397583

> <r_mmod_Van_der_Waal_Energy-OPLS-2005>
128.193588256836

> <r_mmod_Electrostatic_Energy-OPLS-2005>
-417.012481689453

> <r_mmod_Solvation_Energy-OPLS-2005>
-536.934448242188

> <b_mmod_Minimization_Converged-OPLS-2005>
0

> <r_mmod_RMS_Derivative-OPLS-2005>
0.613028228282928

$$$$
92
                    3D
 Structure written by MMmdl.
162170  0  0  1  0            999 V2000
  -30.6326  -14.5196   20.5325 C   0  0  0  0  0  0
  -30.4449  -12.3117   19.4453 C   0  0  0  0  0  0
  -29.5137  -12.4945   18.2254 C   0  0  0  0  0  0
  -28.0319  -12.3555   18.6289 C   0  0  0  0  0  0
  -27.6689  -13.1952   19.8823 C   0  0  2  0  0  0
  -28.7085  -12.9721   21.0102 C   0  0  0  0  0  0
  -25.2640  -13.8128   20.5645 C   0  0  0  0  0  0
  -24.1881  -13.0431   20.9158 C   0  0  0  0  0  0
  -24.6436  -11.6890   20.8749 C   0  0  0  0  0  0
  -23.9123  -10.4286   21.0413 C   0  0  0  0  0  0
  -24.3668   -9.4189   21.9182 C   0  0  0  0  0  0
  -23.6335   -8.2220   22.0744 C   0  0  0  0  0  0
  -22.4321   -8.0268   21.3531 C   0  0  0  0  0  0
  -21.9967   -9.0258   20.4633 C   0  0  0  0  0  0
  -22.7301  -10.2135   20.3056 C   0  0  0  0  0  0
  -21.6873   -6.0737   22.5271 C   0  0  0  0  0  0
  -21.4036   -6.5624   23.8213 C   0  0  0  0  0  0
  -21.3645   -5.6752   24.9160 C   0  0  0  0  0  0
  -21.6037   -4.3021   24.7191 C   0  0  0  0  0  0
  -21.8852   -3.8133   23.4313 C   0  0  0  0  0  0
  -21.9217   -4.6966   22.3381 C   0  0  0  0  0  0
  -22.7902  -13.5233   21.1816 C   0  0  0  0  0  0
  -22.1692   -4.2166   21.0950 F   0  0  0  0  0  0
  -21.5614   -3.4493   25.7695 F   0  0  0  0  0  0
  -30.0416  -13.2941   20.4656 N   0  0  0  0  0  0
  -26.3077  -12.9262   20.3374 N   0  0  0  0  0  0
  -25.9368  -11.6453   20.5810 N   0  0  0  0  0  0
  -22.0567  -12.8207   22.0369 N   0  0  0  0  0  0
  -25.4399  -15.1846   20.4044 N   0  0  0  0  0  0
  -31.7621  -14.7481   20.0876 O   0  0  0  0  0  0
  -21.6654   -6.8884   21.4244 O   0  0  0  0  0  0
  -22.3592  -14.5555   20.6675 O   0  0  0  0  0  0
  -24.6143  -31.8658   23.2115 C   0  0  0  0  0  0
  -25.9039  -32.4812   23.8419 C   0  0  1  0  0  0
  -27.2514  -27.4317   20.1294 C   0  0  0  0  0  0
  -25.5917  -33.8616   24.2355 N   0  0  0  0  0  0
  -23.4060  -30.4862   21.5481 C   0  0  2  0  0  0
  -24.8620  -28.9449   20.1240 C   0  0  0  0  0  0
  -22.7402  -29.4660   22.4992 C   0  0  0  0  0  0
  -18.0270  -28.1380   22.8486 C   0  0  0  0  0  0
  -24.1478  -36.7268   23.2640 C   0  0  0  0  0  0
  -25.9324  -30.8339   21.3662 C   0  0  0  0  0  0
  -26.0172  -29.4639   20.7233 C   0  0  0  0  0  0
  -27.2148  -28.7142   20.7198 C   0  0  0  0  0  0
  -26.0836  -26.9262   19.5227 C   0  0  0  0  0  0
  -24.8896  -27.6753   19.5215 C   0  0  0  0  0  0
  -23.6213  -29.8110   20.1666 C   0  0  0  0  0  0
  -25.4098  -36.3094   24.0349 C   0  0  1  0  0  0
  -20.5864  -28.3668   23.1304 C   0  0  2  0  0  0
  -20.6751  -26.9396   22.5431 C   0  0  0  0  0  0
  -19.5747  -26.6381   21.5205 C   0  0  0  0  0  0
  -18.1915  -26.7927   22.1610 C   0  0  0  0  0  0
  -19.1523  -28.8840   23.2895 C   0  0  0  0  0  0
  -18.9453  -30.1439   23.8917 C   0  0  0  0  0  0
  -17.6458  -30.6600   24.0559 C   0  0  0  0  0  0
  -25.9029  -34.9468   23.5144 C   0  0  0  0  0  0
  -16.5347  -29.9100   23.6339 C   0  0  0  0  0  0
  -16.7249  -28.6520   23.0349 C   0  0  0  0  0  0
  -26.4494  -31.6602   25.0741 C   0  0  0  0  0  0
  -25.3778  -31.3733   26.1511 C   0  0  0  0  0  0
  -27.0331  -30.3050   24.6123 C   0  0  0  0  0  0
  -27.6104  -32.4301   25.7478 C   0  0  0  0  0  0
  -27.5575  -37.1799   24.8474 C   0  0  0  0  0  0
  -21.4143  -29.3018   22.3701 N   0  0  0  0  0  0
  -26.4281  -37.3777   23.9426 N   0  0  0  0  0  0
  -24.6685  -31.0764   22.1007 N   0  0  0  0  0  0
  -23.4173  -28.8198   23.3042 O   0  0  0  0  0  0
  -28.4259  -26.7137   20.0735 O   0  0  0  0  0  0
  -26.5585  -34.8905   22.4691 O   0  0  0  0  0  0
  -23.5346  -32.1414   23.7512 O   0  0  0  0  0  0
  -27.9720  -24.2985   20.6187 C   0  0  0  0  0  0
  -30.0906  -25.2967   21.1257 C   0  0  0  0  0  0
  -28.5972  -25.6433   21.0240 C   0  0  1  0  0  0
  -28.8646  -23.2192   21.2894 C   0  0  1  0  0  0
  -29.8481  -16.8506   18.7697 C   0  0  0  0  0  0
  -28.8111  -21.8101   20.6021 C   0  0  0  0  0  0
  -29.5785  -20.6145   21.2695 C   0  0  0  0  0  0
  -30.0442  -18.0869   21.0451 C   0  0  0  0  0  0
  -29.5128  -16.8296   20.2768 C   0  0  2  0  0  0
  -29.7769  -15.5037   20.8919 N   0  0  0  0  0  0
  -30.2112  -23.8306   21.3178 N   0  3  0  0  0  0
  -29.3701  -19.3252   20.5406 N   0  3  0  0  0  0
  -31.4874  -12.4341   19.1461 H   0  0  0  0  0  0
  -30.3651  -11.2986   19.8441 H   0  0  0  0  0  0
  -29.7617  -11.7649   17.4532 H   0  0  0  0  0  0
  -29.6829  -13.4752   17.7773 H   0  0  0  0  0  0
  -27.8389  -11.3010   18.8289 H   0  0  0  0  0  0
  -27.3889  -12.6308   17.7915 H   0  0  0  0  0  0
  -27.7092  -14.2423   19.5768 H   0  0  0  0  0  0
  -28.6937  -11.9333   21.3459 H   0  0  0  0  0  0
  -28.4660  -13.5585   21.8987 H   0  0  0  0  0  0
  -25.2841   -9.5624   22.4743 H   0  0  0  0  0  0
  -24.0053   -7.4600   22.7452 H   0  0  0  0  0  0
  -21.0910   -8.8782   19.8927 H   0  0  0  0  0  0
  -22.3801  -10.9687   19.6152 H   0  0  0  0  0  0
  -21.2055   -7.6129   23.9723 H   0  0  0  0  0  0
  -21.1419   -6.0462   25.9057 H   0  0  0  0  0  0
  -22.0657   -2.7601   23.2791 H   0  0  0  0  0  0
  -22.4176  -11.9820   22.4725 H   0  0  0  0  0  0
  -21.1192  -13.1215   22.2633 H   0  0  0  0  0  0
  -24.6724  -15.8393   20.5037 H   0  0  0  0  0  0
  -26.2854  -15.6130   20.0531 H   0  0  0  0  0  0
  -26.7124  -32.5558   23.1206 H   0  0  0  0  0  0
  -25.0149  -33.9769   25.0566 H   0  0  0  0  0  0
  -22.6956  -31.3032   21.4027 H   0  0  0  0  0  0
  -23.3762  -35.9580   23.3305 H   0  0  0  0  0  0
  -24.3604  -36.8857   22.2059 H   0  0  0  0  0  0
  -23.7172  -37.6456   23.6628 H   0  0  0  0  0  0
  -26.0423  -31.5957   20.5939 H   0  0  0  0  0  0
  -26.8226  -30.8969   21.9829 H   0  0  0  0  0  0
  -28.1109  -29.1204   21.1697 H   0  0  0  0  0  0
  -26.1022  -25.9601   19.0380 H   0  0  0  0  0  0
  -24.0028  -27.2686   19.0556 H   0  0  0  0  0  0
  -23.7341  -30.5812   19.4028 H   0  0  0  0  0  0
  -22.7476  -29.2280   19.8709 H   0  0  0  0  0  0
  -25.1257  -36.1971   25.0840 H   0  0  0  0  0  0
  -20.9950  -28.3232   24.1420 H   0  0  0  0  0  0
  -20.5606  -26.2271   23.3609 H   0  0  0  0  0  0
  -21.6614  -26.7416   22.1240 H   0  0  0  0  0  0
  -19.6886  -25.6290   21.1224 H   0  0  0  0  0  0
  -19.6679  -27.3198   20.6736 H   0  0  0  0  0  0
  -17.4171  -26.6674   21.4013 H   0  0  0  0  0  0
  -18.0320  -26.0063   22.9008 H   0  0  0  0  0  0
  -19.7924  -30.7236   24.2301 H   0  0  0  0  0  0
  -17.5020  -31.6276   24.5143 H   0  0  0  0  0  0
  -15.5352  -30.3015   23.7631 H   0  0  0  0  0  0
  -15.8647  -28.0837   22.7079 H   0  0  0  0  0  0
  -24.5974  -30.7012   25.7910 H   0  0  0  0  0  0
  -24.8942  -32.2908   26.4894 H   0  0  0  0  0  0
  -25.8177  -30.8994   27.0302 H   0  0  0  0  0  0
  -26.2897  -29.6804   24.1155 H   0  0  0  0  0  0
  -27.4087  -29.7271   25.4578 H   0  0  0  0  0  0
  -27.8724  -30.4374   23.9285 H   0  0  0  0  0  0
  -27.2784  -33.3625   26.2065 H   0  0  0  0  0  0
  -28.3922  -32.6832   25.0298 H   0  0  0  0  0  0
  -28.0769  -31.8401   26.5378 H   0  0  0  0  0  0
  -28.2608  -38.0086   24.7519 H   0  0  0  0  0  0
  -28.1051  -36.2624   24.6290 H   0  0  0  0  0  0
  -27.2317  -37.1433   25.8884 H   0  0  0  0  0  0
  -20.9298  -29.8729   21.6911 H   0  0  0  0  0  0
  -26.0168  -38.2842   24.1474 H   0  0  0  0  0  0
  -28.0100  -24.1988   19.5353 H   0  0  0  0  0  0
  -26.9284  -24.2296   20.9245 H   0  0  0  0  0  0
  -30.5818  -25.8496   21.9280 H   0  0  0  0  0  0
  -30.6025  -25.5509   20.1976 H   0  0  0  0  0  0
  -28.2317  -25.9404   22.0093 H   0  0  0  0  0  0
  -28.5354  -23.1232   22.3254 H   0  0  0  0  0  0
  -30.9220  -16.7864   18.5921 H   0  0  0  0  0  0
  -29.4922  -17.7599   18.2856 H   0  0  0  0  0  0
  -29.3717  -16.0180   18.2528 H   0  0  0  0  0  0
  -29.1318  -21.9114   19.5657 H   0  0  0  0  0  0
  -27.7561  -21.5328   20.5511 H   0  0  0  0  0  0
  -29.2482  -20.4930   22.3028 H   0  0  0  0  0  0
  -30.6472  -20.8327   21.3021 H   0  0  0  0  0  0
  -31.1260  -18.1747   20.9254 H   0  0  0  0  0  0
  -29.8568  -17.9821   22.1144 H   0  0  0  0  0  0
  -28.4238  -16.8967   20.3414 H   0  0  0  0  0  0
  -28.9591  -15.1203   21.3449 H   0  0  0  0  0  0
  -30.6715  -23.6286   22.1938 H   0  0  0  0  0  0
  -30.7809  -23.4639   20.5716 H   0  0  0  0  0  0
  -29.6412  -19.4581   19.5781 H   0  0  0  0  0  0
  -28.3813  -19.1313   20.5526 H   0  0  0  0  0  0
  1 25  1  0  0  0
  1 30  2  0  0  0
  1 80  1  0  0  0
  2  3  1  0  0  0
  2 25  1  0  0  0
  2 83  1  0  0  0
  2 84  1  0  0  0
  3  4  1  0  0  0
  3 85  1  0  0  0
  3 86  1  0  0  0
  4  5  1  0  0  0
  4 87  1  0  0  0
  4 88  1  0  0  0
  5  6  1  0  0  0
  5 26  1  0  0  0
  5 89  1  0  0  0
  6 25  1  0  0  0
  6 90  1  0  0  0
  6 91  1  0  0  0
  7  8  2  0  0  0
  7 26  1  0  0  0
  7 29  1  0  0  0
  8  9  1  0  0  0
  8 22  1  0  0  0
  9 10  1  0  0  0
  9 27  2  0  0  0
 10 11  2  0  0  0
 10 15  1  0  0  0
 11 12  1  0  0  0
 11 92  1  0  0  0
 12 13  2  0  0  0
 12 93  1  0  0  0
 13 14  1  0  0  0
 13 31  1  0  0  0
 14 15  2  0  0  0
 14 94  1  0  0  0
 15 95  1  0  0  0
 16 17  2  0  0  0
 16 21  1  0  0  0
 16 31  1  0  0  0
 17 18  1  0  0  0
 17 96  1  0  0  0
 18 19  2  0  0  0
 18 97  1  0  0  0
 19 20  1  0  0  0
 19 24  1  0  0  0
 20 21  2  0  0  0
 20 98  1  0  0  0
 21 23  1  0  0  0
 22 28  1  0  0  0
 22 32  2  0  0  0
 26 27  1  0  0  0
 28 99  1  0  0  0
 28100  1  0  0  0
 29101  1  0  0  0
 29102  1  0  0  0
 33 34  1  0  0  0
 33 66  1  0  0  0
 33 70  2  0  0  0
 34 36  1  0  0  0
 34 59  1  0  0  0
 34103  1  0  0  0
 35 44  2  0  0  0
 35 45  1  0  0  0
 35 68  1  0  0  0
 36 56  1  0  0  0
 36104  1  0  0  0
 37 39  1  0  0  0
 37 47  1  0  0  0
 37 66  1  0  0  0
 37105  1  0  0  0
 38 43  2  0  0  0
 38 46  1  0  0  0
 38 47  1  0  0  0
 39 64  1  0  0  0
 39 67  2  0  0  0
 40 52  1  0  0  0
 40 53  2  0  0  0
 40 58  1  0  0  0
 41106  1  0  0  0
 41107  1  0  0  0
 41108  1  0  0  0
 41 48  1  0  0  0
 42 43  1  0  0  0
 42 66  1  0  0  0
 42109  1  0  0  0
 42110  1  0  0  0
 43 44  1  0  0  0
 44111  1  0  0  0
 45 46  2  0  0  0
 45112  1  0  0  0
 46113  1  0  0  0
 47114  1  0  0  0
 47115  1  0  0  0
 48 56  1  0  0  0
 48 65  1  0  0  0
 48116  1  0  0  0
 49 50  1  0  0  0
 49 53  1  0  0  0
 49 64  1  0  0  0
 49117  1  0  0  0
 50 51  1  0  0  0
 50118  1  0  0  0
 50119  1  0  0  0
 51 52  1  0  0  0
 51120  1  0  0  0
 51121  1  0  0  0
 52122  1  0  0  0
 52123  1  0  0  0
 53 54  1  0  0  0
 54 55  2  0  0  0
 54124  1  0  0  0
 55 57  1  0  0  0
 55125  1  0  0  0
 56 69  2  0  0  0
 57 58  2  0  0  0
 57126  1  0  0  0
 58127  1  0  0  0
 59 60  1  0  0  0
 59 61  1  0  0  0
 59 62  1  0  0  0
 60128  1  0  0  0
 60129  1  0  0  0
 60130  1  0  0  0
 61131  1  0  0  0
 61132  1  0  0  0
 61133  1  0  0  0
 62134  1  0  0  0
 62135  1  0  0  0
 62136  1  0  0  0
 63 65  1  0  0  0
 63137  1  0  0  0
 63138  1  0  0  0
 63139  1  0  0  0
 64140  1  0  0  0
 65141  1  0  0  0
 68 73  1  0  0  0
 71 73  1  0  0  0
 71 74  1  0  0  0
 71142  1  0  0  0
 71143  1  0  0  0
 72 73  1  0  0  0
 72 81  1  0  0  0
 72144  1  0  0  0
 72145  1  0  0  0
 73146  1  0  0  0
 74 76  1  0  0  0
 74 81  1  0  0  0
 74147  1  0  0  0
 75148  1  0  0  0
 75149  1  0  0  0
 75150  1  0  0  0
 75 79  1  0  0  0
 76 77  1  0  0  0
 76151  1  0  0  0
 76152  1  0  0  0
 77 82  1  0  0  0
 77153  1  0  0  0
 77154  1  0  0  0
 78 79  1  0  0  0
 78 82  1  0  0  0
 78155  1  0  0  0
 78156  1  0  0  0
 79 80  1  0  0  0
 79157  1  0  0  0
 80158  1  0  0  0
 81159  1  0  0  0
 81160  1  0  0  0
 82161  1  0  0  0
 82162  1  0  0  0
M  CHG  2  81   1  82   1
M  ISO  4   1 100  68 101  73 101  80 100
M  END
> <chiral flag>
0

> <version>
0

> <s_m_source_file>
/data/baiqing/PycharmProjects/Reinvent-master-3.2/result/LINK_invent/BTK/process_docking_weight1_custom_sum_contain_oxygen_bond_distance_aromatic_linkinvent_7_9_3/rearranged_h_0135.sdf

> <i_m_source_file_index>
93

> <r_mmod_Potential_Energy-OPLS-2005>
-292.410583496094

> <r_mmod_Stretch_Energy-OPLS-2005>
42.5469627380371

> <r_mmod_Bend_Energy-OPLS-2005>
132.739471435547

> <r_mmod_Torsional_Energy-OPLS-2005>
318.914459228516

> <r_mmod_Improper_Torsional_Energy-OPLS-2005>
8.53835582733154

> <r_mmod_Van_der_Waal_Energy-OPLS-2005>
117.635665893555

> <r_mmod_Electrostatic_Energy-OPLS-2005>
76.8114166259766

> <r_mmod_Solvation_Energy-OPLS-2005>
-1005.99285888672

> <b_mmod_Minimization_Converged-OPLS-2005>
0

> <r_mmod_RMS_Derivative-OPLS-2005>
4.65838861465454

$$$$
93
                    3D
 Structure written by MMmdl.
161170  0  0  1  0            999 V2000
  -30.7091  -14.6178   20.5022 C   0  0  0  0  0  0
  -30.4176  -12.3828   19.4650 C   0  0  0  0  0  0
  -29.5005  -12.5070   18.2307 C   0  0  0  0  0  0
  -28.0273  -12.3441   18.6453 C   0  0  0  0  0  0
  -27.6506  -13.2305   19.8630 C   0  0  2  0  0  0
  -28.6987  -13.1365   20.9968 C   0  0  0  0  0  0
  -25.2531  -13.8202   20.5699 C   0  0  0  0  0  0
  -24.1809  -13.0443   20.9184 C   0  0  0  0  0  0
  -24.6407  -11.6929   20.8752 C   0  0  0  0  0  0
  -23.9077  -10.4297   21.0407 C   0  0  0  0  0  0
  -24.3625   -9.4212   21.9186 C   0  0  0  0  0  0
  -23.6302   -8.2248   22.0758 C   0  0  0  0  0  0
  -22.4286   -8.0280   21.3543 C   0  0  0  0  0  0
  -21.9917   -9.0256   20.4649 C   0  0  0  0  0  0
  -22.7248  -10.2139   20.3057 C   0  0  0  0  0  0
  -21.6852   -6.0735   22.5279 C   0  0  0  0  0  0
  -21.4021   -6.5637   23.8213 C   0  0  0  0  0  0
  -21.3662   -5.6794   24.9176 C   0  0  0  0  0  0
  -21.6044   -4.3059   24.7228 C   0  0  0  0  0  0
  -21.8814   -3.8148   23.4349 C   0  0  0  0  0  0
  -21.9195   -4.6962   22.3404 C   0  0  0  0  0  0
  -22.7834  -13.5220   21.1849 C   0  0  0  0  0  0
  -22.1660   -4.2148   21.0982 F   0  0  0  0  0  0
  -21.5625   -3.4545   25.7740 F   0  0  0  0  0  0
  -30.0167  -13.4376   20.4201 N   0  0  0  0  0  0
  -26.2989  -12.9419   20.3362 N   0  0  0  0  0  0
  -25.9346  -11.6561   20.5801 N   0  0  0  0  0  0
  -22.0495  -12.8208   22.0419 N   0  0  0  0  0  0
  -25.4190  -15.1920   20.4078 N   0  0  0  0  0  0
  -31.8772  -14.6931   20.1190 O   0  0  0  0  0  0
  -21.6646   -6.8880   21.4241 O   0  0  0  0  0  0
  -22.3517  -14.5528   20.6700 O   0  0  0  0  0  0
  -24.6287  -31.8632   23.2095 C   0  0  0  0  0  0
  -25.9134  -32.4802   23.8410 C   0  0  1  0  0  0
  -27.2088  -27.3160   20.0990 C   0  0  0  0  0  0
  -25.5954  -33.8604   24.2317 N   0  0  0  0  0  0
  -23.4203  -30.4965   21.5541 C   0  0  2  0  0  0
  -24.8649  -28.9740   20.1083 C   0  0  0  0  0  0
  -22.7487  -29.4650   22.4935 C   0  0  0  0  0  0
  -18.0289  -28.1380   22.8488 C   0  0  0  0  0  0
  -24.1488  -36.7305   23.2632 C   0  0  0  0  0  0
  -25.9688  -30.7925   21.3876 C   0  0  0  0  0  0
  -26.0410  -29.4258   20.7204 C   0  0  0  0  0  0
  -27.2170  -28.6081   20.7159 C   0  0  0  0  0  0
  -26.0080  -26.9619   19.4219 C   0  0  0  0  0  0
  -24.8511  -27.7454   19.4507 C   0  0  0  0  0  0
  -23.6340  -29.8513   20.1647 C   0  0  0  0  0  0
  -25.4113  -36.3090   24.0321 C   0  0  1  0  0  0
  -20.5893  -28.3694   23.1270 C   0  0  2  0  0  0
  -20.6777  -26.9413   22.5402 C   0  0  0  0  0  0
  -19.5746  -26.6374   21.5212 C   0  0  0  0  0  0
  -18.1927  -26.7924   22.1621 C   0  0  0  0  0  0
  -19.1543  -28.8857   23.2870 C   0  0  0  0  0  0
  -18.9472  -30.1463   23.8884 C   0  0  0  0  0  0
  -17.6472  -30.6586   24.0566 C   0  0  0  0  0  0
  -25.9056  -34.9459   23.5105 C   0  0  0  0  0  0
  -16.5363  -29.9084   23.6338 C   0  0  0  0  0  0
  -16.7276  -28.6500   23.0358 C   0  0  0  0  0  0
  -26.4508  -31.6606   25.0779 C   0  0  0  0  0  0
  -25.3732  -31.3751   26.1500 C   0  0  0  0  0  0
  -27.0355  -30.3025   24.6238 C   0  0  0  0  0  0
  -27.6062  -32.4353   25.7551 C   0  0  0  0  0  0
  -27.5574  -37.1803   24.8457 C   0  0  0  0  0  0
  -21.4198  -29.3059   22.3675 N   0  0  0  0  0  0
  -26.4284  -37.3786   23.9406 N   0  0  0  0  0  0
  -24.6912  -31.0654   22.1063 N   0  0  0  0  0  0
  -23.4217  -28.8141   23.2969 O   0  0  0  0  0  0
  -28.2623  -26.3711   20.1929 O   0  0  0  0  0  0
  -26.5597  -34.8918   22.4658 O   0  0  0  0  0  0
  -23.5445  -32.1442   23.7410 O   0  0  0  0  0  0
  -28.2803  -21.1358   20.5679 C   0  0  0  0  0  0
  -30.3799  -22.2546   20.6638 C   0  0  0  0  0  0
  -27.6539  -22.4039   20.4354 C   0  0  0  0  0  0
  -29.6772  -21.0099   20.6704 C   0  0  0  0  0  0
  -28.4577  -23.5971   20.4146 C   0  0  0  0  0  0
  -25.2030  -21.3746   20.9605 C   0  0  0  0  0  0
  -24.3824  -21.4605   19.6774 C   0  0  0  0  0  0
  -26.1121  -22.4227   20.3061 C   0  0  2  0  0  0
  -27.7509  -24.9761   20.1199 C   0  0  0  0  0  0
  -29.6551  -18.3993   20.7563 C   0  0  0  0  0  0
  -30.6315  -17.1490   20.7578 C   0  0  0  0  0  0
  -29.8080  -23.4952   20.5340 N   0  0  0  0  0  0
  -30.3324  -19.7344   20.7629 N   0  0  0  0  0  0
  -30.0400  -15.7656   20.8278 N   0  0  0  0  0  0
  -25.5810  -21.9705   19.0131 N   0  3  0  0  0  0
  -31.4641  -12.4601   19.1658 H   0  0  0  0  0  0
  -30.3131  -11.3988   19.9251 H   0  0  0  0  0  0
  -29.7650  -11.7589   17.4825 H   0  0  0  0  0  0
  -29.6448  -13.4794   17.7584 H   0  0  0  0  0  0
  -27.8685  -11.2931   18.8897 H   0  0  0  0  0  0
  -27.3695  -12.5624   17.8030 H   0  0  0  0  0  0
  -27.6567  -14.2588   19.5021 H   0  0  0  0  0  0
  -28.7016  -12.1415   21.4429 H   0  0  0  0  0  0
  -28.4542  -13.8292   21.8039 H   0  0  0  0  0  0
  -25.2770   -9.5689   22.4761 H   0  0  0  0  0  0
  -24.0009   -7.4643   22.7483 H   0  0  0  0  0  0
  -21.0841   -8.8772   19.8960 H   0  0  0  0  0  0
  -22.3697  -10.9674   19.6166 H   0  0  0  0  0  0
  -21.2017   -7.6147   23.9712 H   0  0  0  0  0  0
  -21.1485   -6.0530   25.9078 H   0  0  0  0  0  0
  -22.0590   -2.7611   23.2853 H   0  0  0  0  0  0
  -22.4128  -11.9867   22.4785 H   0  0  0  0  0  0
  -21.1119  -13.1226   22.2658 H   0  0  0  0  0  0
  -24.6415  -15.8380   20.4897 H   0  0  0  0  0  0
  -26.2678  -15.6342   20.0794 H   0  0  0  0  0  0
  -26.7200  -32.5472   23.1156 H   0  0  0  0  0  0
  -25.0151  -33.9767   25.0494 H   0  0  0  0  0  0
  -22.7136  -31.3184   21.4200 H   0  0  0  0  0  0
  -23.3743  -35.9639   23.3296 H   0  0  0  0  0  0
  -24.3579  -36.8938   22.2048 H   0  0  0  0  0  0
  -23.7259  -37.6512   23.6665 H   0  0  0  0  0  0
  -26.1043  -31.5589   20.6237 H   0  0  0  0  0  0
  -26.8479  -30.8358   22.0190 H   0  0  0  0  0  0
  -28.1087  -28.9426   21.2286 H   0  0  0  0  0  0
  -25.8852  -26.0517   18.8617 H   0  0  0  0  0  0
  -23.9562  -27.4002   18.9521 H   0  0  0  0  0  0
  -23.7536  -30.6374   19.4185 H   0  0  0  0  0  0
  -22.7527  -29.2856   19.8565 H   0  0  0  0  0  0
  -25.1286  -36.1938   25.0811 H   0  0  0  0  0  0
  -20.9991  -28.3266   24.1387 H   0  0  0  0  0  0
  -20.5688  -26.2300   23.3605 H   0  0  0  0  0  0
  -21.6644  -26.7435   22.1189 H   0  0  0  0  0  0
  -19.6905  -25.6280   21.1255 H   0  0  0  0  0  0
  -19.6682  -27.3173   20.6735 H   0  0  0  0  0  0
  -17.4196  -26.6690   21.4023 H   0  0  0  0  0  0
  -18.0318  -26.0060   22.9012 H   0  0  0  0  0  0
  -19.7947  -30.7285   24.2239 H   0  0  0  0  0  0
  -17.5027  -31.6268   24.5156 H   0  0  0  0  0  0
  -15.5366  -30.2984   23.7665 H   0  0  0  0  0  0
  -15.8673  -28.0824   22.7072 H   0  0  0  0  0  0
  -24.5910  -30.7085   25.7843 H   0  0  0  0  0  0
  -24.8914  -32.2924   26.4898 H   0  0  0  0  0  0
  -25.8056  -30.8964   27.0295 H   0  0  0  0  0  0
  -26.2946  -29.6785   24.1220 H   0  0  0  0  0  0
  -27.4011  -29.7266   25.4749 H   0  0  0  0  0  0
  -27.8832  -30.4310   23.9502 H   0  0  0  0  0  0
  -27.2662  -33.3664   26.2097 H   0  0  0  0  0  0
  -28.3889  -32.6902   25.0396 H   0  0  0  0  0  0
  -28.0699  -31.8501   26.5502 H   0  0  0  0  0  0
  -28.2572  -38.0112   24.7520 H   0  0  0  0  0  0
  -28.1090  -36.2649   24.6267 H   0  0  0  0  0  0
  -27.2295  -37.1441   25.8857 H   0  0  0  0  0  0
  -20.9359  -29.8850   21.6960 H   0  0  0  0  0  0
  -26.0162  -38.2856   24.1422 H   0  0  0  0  0  0
  -27.6869  -20.2358   20.5638 H   0  0  0  0  0  0
  -31.4571  -22.2567   20.7516 H   0  0  0  0  0  0
  -25.6335  -20.3833   21.1009 H   0  0  0  0  0  0
  -24.6879  -21.7134   21.8605 H   0  0  0  0  0  0
  -23.5833  -22.2026   19.7244 H   0  0  0  0  0  0
  -24.0300  -20.5048   19.2897 H   0  0  0  0  0  0
  -25.6790  -23.3941   20.5342 H   0  0  0  0  0  0
  -26.9044  -24.9843   20.8035 H   0  0  0  0  0  0
  -27.4198  -24.8030   19.0975 H   0  0  0  0  0  0
  -28.9998  -18.3406   21.6264 H   0  0  0  0  0  0
  -29.0114  -18.3402   19.8773 H   0  0  0  0  0  0
  -31.3276  -17.2428   21.5930 H   0  0  0  0  0  0
  -31.2431  -17.2092   19.8555 H   0  0  0  0  0  0
  -31.3508  -19.7306   20.8156 H   0  0  0  0  0  0
  -29.0765  -15.6780   21.1140 H   0  0  0  0  0  0
  -25.3853  -22.7012   18.3480 H   0  0  0  0  0  0
  -26.1101  -21.2229   18.5964 H   0  0  0  0  0  0
  1 25  1  0  0  0
  1 30  2  0  0  0
  1 84  1  0  0  0
  2  3  1  0  0  0
  2 25  1  0  0  0
  2 86  1  0  0  0
  2 87  1  0  0  0
  3  4  1  0  0  0
  3 88  1  0  0  0
  3 89  1  0  0  0
  4  5  1  0  0  0
  4 90  1  0  0  0
  4 91  1  0  0  0
  5  6  1  0  0  0
  5 26  1  0  0  0
  5 92  1  0  0  0
  6 25  1  0  0  0
  6 93  1  0  0  0
  6 94  1  0  0  0
  7  8  2  0  0  0
  7 26  1  0  0  0
  7 29  1  0  0  0
  8  9  1  0  0  0
  8 22  1  0  0  0
  9 10  1  0  0  0
  9 27  2  0  0  0
 10 11  2  0  0  0
 10 15  1  0  0  0
 11 12  1  0  0  0
 11 95  1  0  0  0
 12 13  2  0  0  0
 12 96  1  0  0  0
 13 14  1  0  0  0
 13 31  1  0  0  0
 14 15  2  0  0  0
 14 97  1  0  0  0
 15 98  1  0  0  0
 16 17  2  0  0  0
 16 21  1  0  0  0
 16 31  1  0  0  0
 17 18  1  0  0  0
 17 99  1  0  0  0
 18 19  2  0  0  0
 18100  1  0  0  0
 19 20  1  0  0  0
 19 24  1  0  0  0
 20 21  2  0  0  0
 20101  1  0  0  0
 21 23  1  0  0  0
 22 28  1  0  0  0
 22 32  2  0  0  0
 26 27  1  0  0  0
 28102  1  0  0  0
 28103  1  0  0  0
 29104  1  0  0  0
 29105  1  0  0  0
 33 34  1  0  0  0
 33 66  1  0  0  0
 33 70  2  0  0  0
 34 36  1  0  0  0
 34 59  1  0  0  0
 34106  1  0  0  0
 35 44  2  0  0  0
 35 45  1  0  0  0
 35 68  1  0  0  0
 36 56  1  0  0  0
 36107  1  0  0  0
 37 39  1  0  0  0
 37 47  1  0  0  0
 37 66  1  0  0  0
 37108  1  0  0  0
 38 43  2  0  0  0
 38 46  1  0  0  0
 38 47  1  0  0  0
 39 64  1  0  0  0
 39 67  2  0  0  0
 40 52  1  0  0  0
 40 53  2  0  0  0
 40 58  1  0  0  0
 41109  1  0  0  0
 41110  1  0  0  0
 41111  1  0  0  0
 41 48  1  0  0  0
 42 43  1  0  0  0
 42 66  1  0  0  0
 42112  1  0  0  0
 42113  1  0  0  0
 43 44  1  0  0  0
 44114  1  0  0  0
 45 46  2  0  0  0
 45115  1  0  0  0
 46116  1  0  0  0
 47117  1  0  0  0
 47118  1  0  0  0
 48 56  1  0  0  0
 48 65  1  0  0  0
 48119  1  0  0  0
 49 50  1  0  0  0
 49 53  1  0  0  0
 49 64  1  0  0  0
 49120  1  0  0  0
 50 51  1  0  0  0
 50121  1  0  0  0
 50122  1  0  0  0
 51 52  1  0  0  0
 51123  1  0  0  0
 51124  1  0  0  0
 52125  1  0  0  0
 52126  1  0  0  0
 53 54  1  0  0  0
 54 55  2  0  0  0
 54127  1  0  0  0
 55 57  1  0  0  0
 55128  1  0  0  0
 56 69  2  0  0  0
 57 58  2  0  0  0
 57129  1  0  0  0
 58130  1  0  0  0
 59 60  1  0  0  0
 59 61  1  0  0  0
 59 62  1  0  0  0
 60131  1  0  0  0
 60132  1  0  0  0
 60133  1  0  0  0
 61134  1  0  0  0
 61135  1  0  0  0
 61136  1  0  0  0
 62137  1  0  0  0
 62138  1  0  0  0
 62139  1  0  0  0
 63 65  1  0  0  0
 63140  1  0  0  0
 63141  1  0  0  0
 63142  1  0  0  0
 64143  1  0  0  0
 65144  1  0  0  0
 68 79  1  0  0  0
 71 73  2  0  0  0
 71 74  1  0  0  0
 71145  1  0  0  0
 72 74  2  0  0  0
 72 82  1  0  0  0
 72146  1  0  0  0
 73 75  1  0  0  0
 73 78  1  0  0  0
 74 83  1  0  0  0
 75 79  1  0  0  0
 75 82  2  0  0  0
 76 77  1  0  0  0
 76 78  1  0  0  0
 76147  1  0  0  0
 76148  1  0  0  0
 77 85  1  0  0  0
 77149  1  0  0  0
 77150  1  0  0  0
 78 85  1  0  0  0
 78151  1  0  0  0
 79152  1  0  0  0
 79153  1  0  0  0
 80 81  1  0  0  0
 80 83  1  0  0  0
 80154  1  0  0  0
 80155  1  0  0  0
 81 84  1  0  0  0
 81156  1  0  0  0
 81157  1  0  0  0
 83158  1  0  0  0
 84159  1  0  0  0
 85160  1  0  0  0
 85161  1  0  0  0
M  CHG  1  85   1
M  ISO  4   1 100  68 101  79 101  84 100
M  END
> <chiral flag>
0

> <version>
0

> <s_m_source_file>
/data/baiqing/PycharmProjects/Reinvent-master-3.2/result/LINK_invent/BTK/process_docking_weight1_custom_sum_contain_oxygen_bond_distance_aromatic_linkinvent_7_9_3/rearranged_h_0135.sdf

> <i_m_source_file_index>
94

> <r_mmod_Potential_Energy-OPLS-2005>
-153.3125

> <r_mmod_Stretch_Energy-OPLS-2005>
85.0107269287109

> <r_mmod_Bend_Energy-OPLS-2005>
197.794403076172

> <r_mmod_Torsional_Energy-OPLS-2005>
210.138061523438

> <r_mmod_Improper_Torsional_Energy-OPLS-2005>
4.64791297912598

> <r_mmod_Van_der_Waal_Energy-OPLS-2005>
170.660049438477

> <r_mmod_Electrostatic_Energy-OPLS-2005>
-323.435363769531

> <r_mmod_Solvation_Energy-OPLS-2005>
-556.931640625

> <b_mmod_Minimization_Converged-OPLS-2005>
0

> <r_mmod_RMS_Derivative-OPLS-2005>
1.50935041904449

$$$$
94
                    3D
 Structure written by MMmdl.
158166  0  0  1  0            999 V2000
  -30.6838  -14.4829   20.5679 C   0  0  0  0  0  0
  -30.4316  -12.3081   19.4291 C   0  0  0  0  0  0
  -29.5035  -12.5071   18.2123 C   0  0  0  0  0  0
  -28.0263  -12.3571   18.6228 C   0  0  0  0  0  0
  -27.6680  -13.2009   19.8755 C   0  0  2  0  0  0
  -28.7064  -12.9803   21.0002 C   0  0  0  0  0  0
  -25.2654  -13.8143   20.5668 C   0  0  0  0  0  0
  -24.1902  -13.0453   20.9173 C   0  0  0  0  0  0
  -24.6424  -11.6907   20.8717 C   0  0  0  0  0  0
  -23.9076  -10.4311   21.0385 C   0  0  0  0  0  0
  -24.3629   -9.4233   21.9165 C   0  0  0  0  0  0
  -23.6299   -8.2275   22.0753 C   0  0  0  0  0  0
  -22.4280   -8.0313   21.3545 C   0  0  0  0  0  0
  -21.9915   -9.0289   20.4648 C   0  0  0  0  0  0
  -22.7246  -10.2160   20.3041 C   0  0  0  0  0  0
  -21.6856   -6.0760   22.5289 C   0  0  0  0  0  0
  -21.4022   -6.5658   23.8225 C   0  0  0  0  0  0
  -21.3647   -5.6799   24.9181 C   0  0  0  0  0  0
  -21.6023   -4.3060   24.7220 C   0  0  0  0  0  0
  -21.8818   -3.8162   23.4343 C   0  0  0  0  0  0
  -21.9199   -4.6987   22.3402 C   0  0  0  0  0  0
  -22.7934  -13.5283   21.1826 C   0  0  0  0  0  0
  -22.1665   -4.2183   21.0972 F   0  0  0  0  0  0
  -21.5616   -3.4532   25.7725 F   0  0  0  0  0  0
  -30.0402  -13.2889   20.4541 N   0  0  0  0  0  0
  -26.3076  -12.9295   20.3338 N   0  0  0  0  0  0
  -25.9342  -11.6464   20.5708 N   0  0  0  0  0  0
  -22.0549  -12.8289   22.0354 N   0  0  0  0  0  0
  -25.4409  -15.1864   20.4045 N   0  0  0  0  0  0
  -31.7981  -14.7003   20.0846 O   0  0  0  0  0  0
  -21.6648   -6.8908   21.4248 O   0  0  0  0  0  0
  -22.3632  -14.5596   20.6675 O   0  0  0  0  0  0
  -24.6139  -31.8671   23.2102 C   0  0  0  0  0  0
  -25.9037  -32.4824   23.8383 C   0  0  1  0  0  0
  -27.2432  -27.4441   20.0933 C   0  0  0  0  0  0
  -25.5891  -33.8618   24.2320 N   0  0  0  0  0  0
  -23.4008  -30.4888   21.5511 C   0  0  2  0  0  0
  -24.8504  -28.9495   20.1208 C   0  0  0  0  0  0
  -22.7384  -29.4659   22.5002 C   0  0  0  0  0  0
  -18.0261  -28.1373   22.8495 C   0  0  0  0  0  0
  -24.1488  -36.7318   23.2637 C   0  0  0  0  0  0
  -25.9291  -30.8343   21.3603 C   0  0  0  0  0  0
  -26.0103  -29.4675   20.7122 C   0  0  0  0  0  0
  -27.2121  -28.7225   20.6944 C   0  0  0  0  0  0
  -26.0677  -26.9312   19.5077 C   0  0  0  0  0  0
  -24.8721  -27.6777   19.5201 C   0  0  0  0  0  0
  -23.6090  -29.8155   20.1678 C   0  0  0  0  0  0
  -25.4109  -36.3117   24.0338 C   0  0  1  0  0  0
  -20.5832  -28.3660   23.1316 C   0  0  2  0  0  0
  -20.6768  -26.9408   22.5395 C   0  0  0  0  0  0
  -19.5740  -26.6372   21.5208 C   0  0  0  0  0  0
  -18.1926  -26.7899   22.1666 C   0  0  0  0  0  0
  -19.1497  -28.8837   23.2902 C   0  0  0  0  0  0
  -18.9443  -30.1441   23.8920 C   0  0  0  0  0  0
  -17.6451  -30.6589   24.0566 C   0  0  0  0  0  0
  -25.9033  -34.9478   23.5130 C   0  0  0  0  0  0
  -16.5340  -29.9089   23.6344 C   0  0  0  0  0  0
  -16.7255  -28.6499   23.0370 C   0  0  0  0  0  0
  -26.4468  -31.6604   25.0706 C   0  0  0  0  0  0
  -25.3726  -31.3723   26.1453 C   0  0  0  0  0  0
  -27.0304  -30.3047   24.6081 C   0  0  0  0  0  0
  -27.6054  -32.4301   25.7481 C   0  0  0  0  0  0
  -27.5580  -37.1819   24.8465 C   0  0  0  0  0  0
  -21.4110  -29.3045   22.3744 N   0  0  0  0  0  0
  -26.4299  -37.3794   23.9403 N   0  0  0  0  0  0
  -24.6665  -31.0764   22.1006 N   0  0  0  0  0  0
  -23.4159  -28.8181   23.3023 O   0  0  0  0  0  0
  -28.4111  -26.7178   20.0285 O   0  0  0  0  0  0
  -26.5600  -34.8927   22.4690 O   0  0  0  0  0  0
  -23.5330  -32.1429   23.7501 O   0  0  0  0  0  0
  -29.8120  -19.9842   20.5389 C   0  0  0  0  0  0
  -29.6234  -21.3706   20.3224 C   0  0  0  0  0  0
  -28.7556  -19.2087   21.0770 C   0  0  0  0  0  0
  -27.5561  -19.8894   21.3891 C   0  0  0  0  0  0
  -28.3792  -21.9476   20.6541 C   0  0  0  0  0  0
  -25.3138  -19.9441   22.4520 C   0  0  0  0  0  0
  -28.8520  -17.6869   21.3196 C   0  0  0  0  0  0
  -30.1453  -16.9255   20.9274 C   0  0  0  0  0  0
  -28.4982  -25.6010   20.9244 C   0  0  0  0  0  0
  -28.9800  -24.2862   20.2521 C   0  0  0  0  0  0
  -27.3812  -21.2076   21.1691 N   0  0  0  0  0  0
  -26.4689  -19.2068   21.9485 N   0  0  0  0  0  0
  -29.9427  -15.4743   21.0931 N   0  0  0  0  0  0
  -28.0079  -23.2700   20.5025 O   0  0  0  0  0  0
  -31.4777  -12.4091   19.1319 H   0  0  0  0  0  0
  -30.3342  -11.2956   19.8223 H   0  0  0  0  0  0
  -29.7469  -11.7850   17.4325 H   0  0  0  0  0  0
  -29.6736  -13.4938   17.7776 H   0  0  0  0  0  0
  -27.8491  -11.3009   18.8278 H   0  0  0  0  0  0
  -27.3736  -12.6195   17.7906 H   0  0  0  0  0  0
  -27.7111  -14.2482   19.5728 H   0  0  0  0  0  0
  -28.6867  -11.9429   21.3371 H   0  0  0  0  0  0
  -28.4607  -13.5754   21.8805 H   0  0  0  0  0  0
  -25.2768   -9.5723   22.4755 H   0  0  0  0  0  0
  -24.0002   -7.4666   22.7488 H   0  0  0  0  0  0
  -21.0839   -8.8814   19.8968 H   0  0  0  0  0  0
  -22.3689  -10.9713   19.6171 H   0  0  0  0  0  0
  -21.2034   -7.6165   23.9741 H   0  0  0  0  0  0
  -21.1445   -6.0520   25.9079 H   0  0  0  0  0  0
  -22.0605   -2.7635   23.2821 H   0  0  0  0  0  0
  -22.4124  -11.9928   22.4733 H   0  0  0  0  0  0
  -21.1187  -13.1384   22.2555 H   0  0  0  0  0  0
  -24.6641  -15.8330   20.4788 H   0  0  0  0  0  0
  -26.2722  -15.6065   20.0112 H   0  0  0  0  0  0
  -26.7104  -32.5547   23.1147 H   0  0  0  0  0  0
  -25.0052  -33.9787   25.0472 H   0  0  0  0  0  0
  -22.6904  -31.3063   21.4100 H   0  0  0  0  0  0
  -23.3742  -35.9659   23.3320 H   0  0  0  0  0  0
  -24.3578  -36.8910   22.2044 H   0  0  0  0  0  0
  -23.7247  -37.6532   23.6635 H   0  0  0  0  0  0
  -26.0374  -31.5996   20.5903 H   0  0  0  0  0  0
  -26.8195  -30.8921   21.9750 H   0  0  0  0  0  0
  -28.1130  -29.1244   21.1365 H   0  0  0  0  0  0
  -26.0818  -25.9611   19.0325 H   0  0  0  0  0  0
  -23.9804  -27.2691   19.0649 H   0  0  0  0  0  0
  -23.7161  -30.5896   19.4065 H   0  0  0  0  0  0
  -22.7336  -29.2312   19.8763 H   0  0  0  0  0  0
  -25.1290  -36.1986   25.0831 H   0  0  0  0  0  0
  -20.9911  -28.3202   24.1437 H   0  0  0  0  0  0
  -21.6639  -26.7481   22.1187 H   0  0  0  0  0  0
  -20.5688  -26.2268   23.3575 H   0  0  0  0  0  0
  -19.6927  -25.6286   21.1260 H   0  0  0  0  0  0
  -19.6640  -27.3175   20.6720 H   0  0  0  0  0  0
  -17.4181  -26.6580   21.4105 H   0  0  0  0  0  0
  -18.0399  -26.0071   22.9112 H   0  0  0  0  0  0
  -19.7917  -30.7255   24.2296 H   0  0  0  0  0  0
  -17.5004  -31.6277   24.5139 H   0  0  0  0  0  0
  -15.5339  -30.3016   23.7648 H   0  0  0  0  0  0
  -15.8642  -28.0836   22.7093 H   0  0  0  0  0  0
  -24.5892  -30.7084   25.7787 H   0  0  0  0  0  0
  -24.8929  -32.2887   26.4892 H   0  0  0  0  0  0
  -25.8057  -30.8884   27.0213 H   0  0  0  0  0  0
  -26.2864  -29.6811   24.1119 H   0  0  0  0  0  0
  -27.4069  -29.7277   25.4539 H   0  0  0  0  0  0
  -27.8685  -30.4375   23.9237 H   0  0  0  0  0  0
  -27.2690  -33.3581   26.2106 H   0  0  0  0  0  0
  -28.3853  -32.6883   25.0311 H   0  0  0  0  0  0
  -28.0733  -31.8385   26.5357 H   0  0  0  0  0  0
  -28.2624  -38.0096   24.7505 H   0  0  0  0  0  0
  -28.1051  -36.2631   24.6306 H   0  0  0  0  0  0
  -27.2297  -37.1494   25.8869 H   0  0  0  0  0  0
  -20.9262  -29.8801   21.7003 H   0  0  0  0  0  0
  -26.0193  -38.2875   24.1388 H   0  0  0  0  0  0
  -30.7591  -19.5323   20.2851 H   0  0  0  0  0  0
  -30.4239  -21.9581   19.8964 H   0  0  0  0  0  0
  -25.6255  -20.7710   23.0928 H   0  0  0  0  0  0
  -24.6679  -19.2905   23.0363 H   0  0  0  0  0  0
  -24.7281  -20.3564   21.6294 H   0  0  0  0  0  0
  -28.0184  -17.2341   20.7790 H   0  0  0  0  0  0
  -28.6578  -17.5123   22.3795 H   0  0  0  0  0  0
  -30.9912  -17.2561   21.5338 H   0  0  0  0  0  0
  -30.3980  -17.1281   19.8847 H   0  0  0  0  0  0
  -29.2022  -25.8737   21.7115 H   0  0  0  0  0  0
  -27.5499  -25.4303   21.4396 H   0  0  0  0  0  0
  -29.9623  -24.0213   20.6469 H   0  0  0  0  0  0
  -29.0868  -24.4139   19.1731 H   0  0  0  0  0  0
  -26.5566  -18.2245   22.1831 H   0  0  0  0  0  0
  -29.0592  -15.1876   21.4852 H   0  0  0  0  0  0
  1 25  1  0  0  0
  1 30  2  0  0  0
  1 83  1  0  0  0
  2  3  1  0  0  0
  2 25  1  0  0  0
  2 85  1  0  0  0
  2 86  1  0  0  0
  3  4  1  0  0  0
  3 87  1  0  0  0
  3 88  1  0  0  0
  4  5  1  0  0  0
  4 89  1  0  0  0
  4 90  1  0  0  0
  5  6  1  0  0  0
  5 26  1  0  0  0
  5 91  1  0  0  0
  6 25  1  0  0  0
  6 92  1  0  0  0
  6 93  1  0  0  0
  7  8  2  0  0  0
  7 26  1  0  0  0
  7 29  1  0  0  0
  8  9  1  0  0  0
  8 22  1  0  0  0
  9 10  1  0  0  0
  9 27  2  0  0  0
 10 11  2  0  0  0
 10 15  1  0  0  0
 11 12  1  0  0  0
 11 94  1  0  0  0
 12 13  2  0  0  0
 12 95  1  0  0  0
 13 14  1  0  0  0
 13 31  1  0  0  0
 14 15  2  0  0  0
 14 96  1  0  0  0
 15 97  1  0  0  0
 16 17  2  0  0  0
 16 21  1  0  0  0
 16 31  1  0  0  0
 17 18  1  0  0  0
 17 98  1  0  0  0
 18 19  2  0  0  0
 18 99  1  0  0  0
 19 20  1  0  0  0
 19 24  1  0  0  0
 20 21  2  0  0  0
 20100  1  0  0  0
 21 23  1  0  0  0
 22 28  1  0  0  0
 22 32  2  0  0  0
 26 27  1  0  0  0
 28101  1  0  0  0
 28102  1  0  0  0
 29103  1  0  0  0
 29104  1  0  0  0
 33 34  1  0  0  0
 33 66  1  0  0  0
 33 70  2  0  0  0
 34 36  1  0  0  0
 34 59  1  0  0  0
 34105  1  0  0  0
 35 44  2  0  0  0
 35 45  1  0  0  0
 35 68  1  0  0  0
 36 56  1  0  0  0
 36106  1  0  0  0
 37 39  1  0  0  0
 37 47  1  0  0  0
 37 66  1  0  0  0
 37107  1  0  0  0
 38 43  2  0  0  0
 38 46  1  0  0  0
 38 47  1  0  0  0
 39 64  1  0  0  0
 39 67  2  0  0  0
 40 52  1  0  0  0
 40 53  2  0  0  0
 40 58  1  0  0  0
 41108  1  0  0  0
 41109  1  0  0  0
 41110  1  0  0  0
 41 48  1  0  0  0
 42 43  1  0  0  0
 42 66  1  0  0  0
 42111  1  0  0  0
 42112  1  0  0  0
 43 44  1  0  0  0
 44113  1  0  0  0
 45 46  2  0  0  0
 45114  1  0  0  0
 46115  1  0  0  0
 47116  1  0  0  0
 47117  1  0  0  0
 48 56  1  0  0  0
 48 65  1  0  0  0
 48118  1  0  0  0
 49 50  1  0  0  0
 49 53  1  0  0  0
 49 64  1  0  0  0
 49119  1  0  0  0
 50 51  1  0  0  0
 50120  1  0  0  0
 50121  1  0  0  0
 51 52  1  0  0  0
 51122  1  0  0  0
 51123  1  0  0  0
 52124  1  0  0  0
 52125  1  0  0  0
 53 54  1  0  0  0
 54 55  2  0  0  0
 54126  1  0  0  0
 55 57  1  0  0  0
 55127  1  0  0  0
 56 69  2  0  0  0
 57 58  2  0  0  0
 57128  1  0  0  0
 58129  1  0  0  0
 59 60  1  0  0  0
 59 61  1  0  0  0
 59 62  1  0  0  0
 60130  1  0  0  0
 60131  1  0  0  0
 60132  1  0  0  0
 61133  1  0  0  0
 61134  1  0  0  0
 61135  1  0  0  0
 62136  1  0  0  0
 62137  1  0  0  0
 62138  1  0  0  0
 63 65  1  0  0  0
 63139  1  0  0  0
 63140  1  0  0  0
 63141  1  0  0  0
 64142  1  0  0  0
 65143  1  0  0  0
 68 79  1  0  0  0
 71 72  2  0  0  0
 71 73  1  0  0  0
 71144  1  0  0  0
 72 75  1  0  0  0
 72145  1  0  0  0
 73 74  2  0  0  0
 73 77  1  0  0  0
 74 81  1  0  0  0
 74 82  1  0  0  0
 75 81  2  0  0  0
 75 84  1  0  0  0
 76 82  1  0  0  0
 76146  1  0  0  0
 76147  1  0  0  0
 76148  1  0  0  0
 77 78  1  0  0  0
 77149  1  0  0  0
 77150  1  0  0  0
 78 83  1  0  0  0
 78151  1  0  0  0
 78152  1  0  0  0
 79 80  1  0  0  0
 79153  1  0  0  0
 79154  1  0  0  0
 80 84  1  0  0  0
 80155  1  0  0  0
 80156  1  0  0  0
 82157  1  0  0  0
 83158  1  0  0  0
M  ISO  4   1 100  68 101  79 101  83 100
M  END
> <chiral flag>
0

> <version>
0

> <s_m_source_file>
/data/baiqing/PycharmProjects/Reinvent-master-3.2/result/LINK_invent/BTK/process_docking_weight1_custom_sum_contain_oxygen_bond_distance_aromatic_linkinvent_7_9_3/rearranged_h_0135.sdf

> <i_m_source_file_index>
95

> <r_mmod_Potential_Energy-OPLS-2005>
-355.568206787109

> <r_mmod_Stretch_Energy-OPLS-2005>
37.6305465698242

> <r_mmod_Bend_Energy-OPLS-2005>
119.758010864258

> <r_mmod_Torsional_Energy-OPLS-2005>
221.787734985352

> <r_mmod_Improper_Torsional_Energy-OPLS-2005>
5.22073650360107

> <r_mmod_Van_der_Waal_Energy-OPLS-2005>
157.889144897461

> <r_mmod_Electrostatic_Energy-OPLS-2005>
-665.305969238281

> <r_mmod_Solvation_Energy-OPLS-2005>
-244.142059326172

> <b_mmod_Minimization_Converged-OPLS-2005>
0

> <r_mmod_RMS_Derivative-OPLS-2005>
2.62960648536682

$$$$
95
                    3D
 Structure written by MMmdl.
171180  0  0  1  0            999 V2000
  -30.6538  -14.6514   20.4905 C   0  0  0  0  0  0
  -30.4197  -12.3983   19.4682 C   0  0  0  0  0  0
  -29.5025  -12.5054   18.2308 C   0  0  0  0  0  0
  -28.0266  -12.3440   18.6408 C   0  0  0  0  0  0
  -27.6459  -13.2288   19.8583 C   0  0  2  0  0  0
  -28.6876  -13.1249   20.9950 C   0  0  0  0  0  0
  -25.2515  -13.8200   20.5686 C   0  0  0  0  0  0
  -24.1803  -13.0442   20.9190 C   0  0  0  0  0  0
  -24.6396  -11.6920   20.8745 C   0  0  0  0  0  0
  -23.9079  -10.4296   21.0407 C   0  0  0  0  0  0
  -24.3627   -9.4211   21.9187 C   0  0  0  0  0  0
  -23.6299   -8.2248   22.0759 C   0  0  0  0  0  0
  -22.4281   -8.0285   21.3549 C   0  0  0  0  0  0
  -21.9920   -9.0257   20.4651 C   0  0  0  0  0  0
  -22.7253  -10.2135   20.3058 C   0  0  0  0  0  0
  -21.6856   -6.0738   22.5284 C   0  0  0  0  0  0
  -21.4015   -6.5644   23.8215 C   0  0  0  0  0  0
  -21.3657   -5.6795   24.9177 C   0  0  0  0  0  0
  -21.6040   -4.3057   24.7228 C   0  0  0  0  0  0
  -21.8818   -3.8151   23.4350 C   0  0  0  0  0  0
  -21.9190   -4.6966   22.3408 C   0  0  0  0  0  0
  -22.7823  -13.5218   21.1856 C   0  0  0  0  0  0
  -22.1660   -4.2151   21.0984 F   0  0  0  0  0  0
  -21.5625   -3.4544   25.7743 F   0  0  0  0  0  0
  -30.0011  -13.4468   20.4241 N   0  0  0  0  0  0
  -26.2949  -12.9406   20.3305 N   0  0  0  0  0  0
  -25.9326  -11.6547   20.5762 N   0  0  0  0  0  0
  -22.0477  -12.8203   22.0414 N   0  0  0  0  0  0
  -25.4198  -15.1925   20.4102 N   0  0  0  0  0  0
  -31.8185  -14.7481   20.0979 O   0  0  0  0  0  0
  -21.6641   -6.8883   21.4246 O   0  0  0  0  0  0
  -22.3505  -14.5524   20.6709 O   0  0  0  0  0  0
  -24.6260  -31.8597   23.2016 C   0  0  0  0  0  0
  -25.9102  -32.4775   23.8356 C   0  0  1  0  0  0
  -27.2190  -27.3236   20.1246 C   0  0  0  0  0  0
  -25.5908  -33.8575   24.2276 N   0  0  0  0  0  0
  -23.4199  -30.4843   21.5431 C   0  0  2  0  0  0
  -24.8686  -28.9393   20.1094 C   0  0  0  0  0  0
  -22.7477  -29.4633   22.4918 C   0  0  0  0  0  0
  -18.0287  -28.1394   22.8492 C   0  0  0  0  0  0
  -24.1482  -36.7299   23.2640 C   0  0  0  0  0  0
  -25.9604  -30.7935   21.3710 C   0  0  0  0  0  0
  -26.0379  -29.4202   20.7154 C   0  0  0  0  0  0
  -27.2214  -28.6238   20.7136 C   0  0  0  0  0  0
  -26.0350  -26.8925   19.4921 C   0  0  0  0  0  0
  -24.8684  -27.6801   19.4874 C   0  0  0  0  0  0
  -23.6356  -29.8192   20.1585 C   0  0  0  0  0  0
  -25.4104  -36.3084   24.0333 C   0  0  1  0  0  0
  -20.5892  -28.3707   23.1277 C   0  0  2  0  0  0
  -20.6775  -26.9430   22.5409 C   0  0  0  0  0  0
  -19.5749  -26.6394   21.5216 C   0  0  0  0  0  0
  -18.1928  -26.7940   22.1627 C   0  0  0  0  0  0
  -19.1539  -28.8865   23.2880 C   0  0  0  0  0  0
  -18.9463  -30.1463   23.8902 C   0  0  0  0  0  0
  -17.6463  -30.6593   24.0581 C   0  0  0  0  0  0
  -25.9044  -34.9452   23.5108 C   0  0  0  0  0  0
  -16.5353  -29.9099   23.6337 C   0  0  0  0  0  0
  -16.7275  -28.6519   23.0356 C   0  0  0  0  0  0
  -26.4488  -31.6584   25.0721 C   0  0  0  0  0  0
  -25.3724  -31.3700   26.1443 C   0  0  0  0  0  0
  -27.0344  -30.3011   24.6166 C   0  0  0  0  0  0
  -27.6051  -32.4321   25.7489 C   0  0  0  0  0  0
  -27.5573  -37.1797   24.8464 C   0  0  0  0  0  0
  -21.4189  -29.3055   22.3658 N   0  0  0  0  0  0
  -26.4282  -37.3777   23.9412 N   0  0  0  0  0  0
  -24.6878  -31.0620   22.0959 N   0  0  0  0  0  0
  -23.4196  -28.8178   23.3005 O   0  0  0  0  0  0
  -28.2923  -26.4276   20.1596 O   0  0  0  0  0  0
  -26.5627  -34.8923   22.4682 O   0  0  0  0  0  0
  -23.5426  -32.1391   23.7344 O   0  0  0  0  0  0
  -31.7342  -18.9657   15.9962 C   0  0  0  0  0  0
  -31.9291  -20.3132   16.3483 C   0  0  0  0  0  0
  -30.4777  -18.3642   16.1934 C   0  0  0  0  0  0
  -30.8682  -21.0559   16.9003 C   0  0  0  0  0  0
  -28.9416  -22.9135   21.7094 C   0  0  0  0  0  0
  -29.2237  -21.5332   21.4886 C   0  0  0  0  0  0
  -28.4419  -23.2131   19.3842 C   0  0  0  0  0  0
  -28.5458  -23.7992   20.6700 C   0  0  0  0  0  0
  -29.4065  -19.1024   16.7410 C   0  0  0  0  0  0
  -29.6040  -20.4627   17.1048 C   0  0  0  0  0  0
  -28.7291  -21.8264   19.1417 C   0  0  0  0  0  0
  -29.1319  -20.9460   20.2033 C   0  0  0  0  0  0
  -28.0669  -18.4067   16.9283 C   0  0  0  0  0  0
  -31.5419  -17.5722   21.5374 C   0  0  0  0  0  0
  -28.4889  -21.3133   17.7158 C   0  0  0  0  0  0
  -28.0671  -25.2586   21.0333 C   0  0  0  0  0  0
  -29.2493  -18.3614   20.7889 C   0  0  0  0  0  0
  -30.3547  -17.2201   20.6213 C   0  0  2  0  0  0
  -29.4831  -19.5767   19.9533 N   0  0  0  0  0  0
  -29.9303  -15.7782   20.8092 N   0  0  0  0  0  0
  -31.4656  -12.4945   19.1714 H   0  0  0  0  0  0
  -30.3325  -11.4127   19.9279 H   0  0  0  0  0  0
  -29.7707  -11.7474   17.4935 H   0  0  0  0  0  0
  -29.6467  -13.4715   17.7437 H   0  0  0  0  0  0
  -27.8661  -11.2926   18.8825 H   0  0  0  0  0  0
  -27.3740  -12.5642   17.7951 H   0  0  0  0  0  0
  -27.6537  -14.2582   19.4983 H   0  0  0  0  0  0
  -28.6971  -12.1210   21.4216 H   0  0  0  0  0  0
  -28.4343  -13.8003   21.8136 H   0  0  0  0  0  0
  -25.2771   -9.5679   22.4762 H   0  0  0  0  0  0
  -24.0003   -7.4639   22.7484 H   0  0  0  0  0  0
  -21.0852   -8.8782   19.8956 H   0  0  0  0  0  0
  -22.3720  -10.9673   19.6165 H   0  0  0  0  0  0
  -21.2015   -7.6151   23.9721 H   0  0  0  0  0  0
  -21.1476   -6.0526   25.9078 H   0  0  0  0  0  0
  -22.0598   -2.7613   23.2854 H   0  0  0  0  0  0
  -22.4105  -11.9862   22.4784 H   0  0  0  0  0  0
  -21.1097  -13.1223   22.2636 H   0  0  0  0  0  0
  -24.6483  -15.8423   20.5158 H   0  0  0  0  0  0
  -26.2647  -15.6350   20.0729 H   0  0  0  0  0  0
  -26.7173  -32.5452   23.1116 H   0  0  0  0  0  0
  -25.0035  -33.9727   25.0409 H   0  0  0  0  0  0
  -22.7133  -31.3048   21.3995 H   0  0  0  0  0  0
  -23.3746  -35.9629   23.3296 H   0  0  0  0  0  0
  -24.3572  -36.8934   22.2055 H   0  0  0  0  0  0
  -23.7241  -37.6498   23.6674 H   0  0  0  0  0  0
  -26.0877  -31.5561   20.6016 H   0  0  0  0  0  0
  -26.8421  -30.8449   21.9981 H   0  0  0  0  0  0
  -28.1177  -28.9849   21.1988 H   0  0  0  0  0  0
  -26.0082  -25.9190   19.0223 H   0  0  0  0  0  0
  -23.9726  -27.3060   19.0102 H   0  0  0  0  0  0
  -23.7528  -30.5964   19.4023 H   0  0  0  0  0  0
  -22.7558  -29.2484   19.8570 H   0  0  0  0  0  0
  -25.1281  -36.1931   25.0825 H   0  0  0  0  0  0
  -20.9986  -28.3299   24.1400 H   0  0  0  0  0  0
  -20.5683  -26.2326   23.3615 H   0  0  0  0  0  0
  -21.6641  -26.7462   22.1193 H   0  0  0  0  0  0
  -19.6915  -25.6306   21.1246 H   0  0  0  0  0  0
  -19.6686  -27.3208   20.6750 H   0  0  0  0  0  0
  -17.4197  -26.6701   21.4025 H   0  0  0  0  0  0
  -18.0321  -26.0074   22.9016 H   0  0  0  0  0  0
  -19.7939  -30.7278   24.2271 H   0  0  0  0  0  0
  -17.5022  -31.6274   24.5185 H   0  0  0  0  0  0
  -15.5355  -30.3007   23.7653 H   0  0  0  0  0  0
  -15.8676  -28.0843   22.7063 H   0  0  0  0  0  0
  -24.5930  -30.7014   25.7768 H   0  0  0  0  0  0
  -24.8878  -32.2851   26.4855 H   0  0  0  0  0  0
  -25.8055  -30.8899   27.0227 H   0  0  0  0  0  0
  -26.2921  -29.6736   24.1217 H   0  0  0  0  0  0
  -27.4086  -29.7282   25.4662 H   0  0  0  0  0  0
  -27.8765  -30.4311   23.9366 H   0  0  0  0  0  0
  -27.2681  -33.3651   26.2023 H   0  0  0  0  0  0
  -28.3878  -32.6830   25.0316 H   0  0  0  0  0  0
  -28.0692  -31.8466   26.5436 H   0  0  0  0  0  0
  -28.2581  -38.0101   24.7519 H   0  0  0  0  0  0
  -28.1085  -36.2637   24.6281 H   0  0  0  0  0  0
  -27.2298  -37.1427   25.8868 H   0  0  0  0  0  0
  -20.9358  -29.8793   21.6887 H   0  0  0  0  0  0
  -26.0166  -38.2852   24.1420 H   0  0  0  0  0  0
  -32.5468  -18.3926   15.5714 H   0  0  0  0  0  0
  -32.8937  -20.7772   16.1969 H   0  0  0  0  0  0
  -30.3422  -17.3266   15.9178 H   0  0  0  0  0  0
  -31.0286  -22.0900   17.1736 H   0  0  0  0  0  0
  -29.0100  -23.2906   22.7199 H   0  0  0  0  0  0
  -29.5298  -20.9282   22.3296 H   0  0  0  0  0  0
  -28.0919  -23.8358   18.5726 H   0  0  0  0  0  0
  -28.1131  -17.3565   16.6385 H   0  0  0  0  0  0
  -27.3007  -18.8827   16.3166 H   0  0  0  0  0  0
  -27.7477  -18.4432   17.9697 H   0  0  0  0  0  0
  -31.8682  -18.5988   21.3651 H   0  0  0  0  0  0
  -32.4058  -16.9317   21.3643 H   0  0  0  0  0  0
  -31.2685  -17.4894   22.5895 H   0  0  0  0  0  0
  -27.5351  -20.7901   17.7180 H   0  0  0  0  0  0
  -28.3412  -22.1608   17.0455 H   0  0  0  0  0  0
  -28.5335  -25.5168   21.9849 H   0  0  0  0  0  0
  -27.0067  -25.1620   21.2725 H   0  0  0  0  0  0
  -29.1412  -18.6380   21.8386 H   0  0  0  0  0  0
  -28.2803  -17.9612   20.4875 H   0  0  0  0  0  0
  -30.7047  -17.2717   19.5880 H   0  0  0  0  0  0
  -29.6073  -19.3695   18.9625 H   0  0  0  0  0  0
  -28.9758  -15.6240   21.0980 H   0  0  0  0  0  0
  1 25  1  0  0  0
  1 30  2  0  0  0
  1 90  1  0  0  0
  2  3  1  0  0  0
  2 25  1  0  0  0
  2 91  1  0  0  0
  2 92  1  0  0  0
  3  4  1  0  0  0
  3 93  1  0  0  0
  3 94  1  0  0  0
  4  5  1  0  0  0
  4 95  1  0  0  0
  4 96  1  0  0  0
  5  6  1  0  0  0
  5 26  1  0  0  0
  5 97  1  0  0  0
  6 25  1  0  0  0
  6 98  1  0  0  0
  6 99  1  0  0  0
  7  8  2  0  0  0
  7 26  1  0  0  0
  7 29  1  0  0  0
  8  9  1  0  0  0
  8 22  1  0  0  0
  9 10  1  0  0  0
  9 27  2  0  0  0
 10 11  2  0  0  0
 10 15  1  0  0  0
 11 12  1  0  0  0
 11100  1  0  0  0
 12 13  2  0  0  0
 12101  1  0  0  0
 13 14  1  0  0  0
 13 31  1  0  0  0
 14 15  2  0  0  0
 14102  1  0  0  0
 15103  1  0  0  0
 16 17  2  0  0  0
 16 21  1  0  0  0
 16 31  1  0  0  0
 17 18  1  0  0  0
 17104  1  0  0  0
 18 19  2  0  0  0
 18105  1  0  0  0
 19 20  1  0  0  0
 19 24  1  0  0  0
 20 21  2  0  0  0
 20106  1  0  0  0
 21 23  1  0  0  0
 22 28  1  0  0  0
 22 32  2  0  0  0
 26 27  1  0  0  0
 28107  1  0  0  0
 28108  1  0  0  0
 29109  1  0  0  0
 29110  1  0  0  0
 33 34  1  0  0  0
 33 66  1  0  0  0
 33 70  2  0  0  0
 34 36  1  0  0  0
 34 59  1  0  0  0
 34111  1  0  0  0
 35 44  2  0  0  0
 35 45  1  0  0  0
 35 68  1  0  0  0
 36 56  1  0  0  0
 36112  1  0  0  0
 37 39  1  0  0  0
 37 47  1  0  0  0
 37 66  1  0  0  0
 37113  1  0  0  0
 38 43  2  0  0  0
 38 46  1  0  0  0
 38 47  1  0  0  0
 39 64  1  0  0  0
 39 67  2  0  0  0
 40 52  1  0  0  0
 40 53  2  0  0  0
 40 58  1  0  0  0
 41114  1  0  0  0
 41115  1  0  0  0
 41116  1  0  0  0
 41 48  1  0  0  0
 42 43  1  0  0  0
 42 66  1  0  0  0
 42117  1  0  0  0
 42118  1  0  0  0
 43 44  1  0  0  0
 44119  1  0  0  0
 45 46  2  0  0  0
 45120  1  0  0  0
 46121  1  0  0  0
 47122  1  0  0  0
 47123  1  0  0  0
 48 56  1  0  0  0
 48 65  1  0  0  0
 48124  1  0  0  0
 49 50  1  0  0  0
 49 53  1  0  0  0
 49 64  1  0  0  0
 49125  1  0  0  0
 50 51  1  0  0  0
 50126  1  0  0  0
 50127  1  0  0  0
 51 52  1  0  0  0
 51128  1  0  0  0
 51129  1  0  0  0
 52130  1  0  0  0
 52131  1  0  0  0
 53 54  1  0  0  0
 54 55  2  0  0  0
 54132  1  0  0  0
 55 57  1  0  0  0
 55133  1  0  0  0
 56 69  2  0  0  0
 57 58  2  0  0  0
 57134  1  0  0  0
 58135  1  0  0  0
 59 60  1  0  0  0
 59 61  1  0  0  0
 59 62  1  0  0  0
 60136  1  0  0  0
 60137  1  0  0  0
 60138  1  0  0  0
 61139  1  0  0  0
 61140  1  0  0  0
 61141  1  0  0  0
 62142  1  0  0  0
 62143  1  0  0  0
 62144  1  0  0  0
 63 65  1  0  0  0
 63145  1  0  0  0
 63146  1  0  0  0
 63147  1  0  0  0
 64148  1  0  0  0
 65149  1  0  0  0
 68 86  1  0  0  0
 71 72  2  0  0  0
 71 73  1  0  0  0
 71150  1  0  0  0
 72 74  1  0  0  0
 72151  1  0  0  0
 73 79  2  0  0  0
 73152  1  0  0  0
 74 80  2  0  0  0
 74153  1  0  0  0
 75 76  2  0  0  0
 75 78  1  0  0  0
 75154  1  0  0  0
 76 82  1  0  0  0
 76155  1  0  0  0
 77 78  2  0  0  0
 77 81  1  0  0  0
 77156  1  0  0  0
 78 86  1  0  0  0
 79 80  1  0  0  0
 79 83  1  0  0  0
 80 85  1  0  0  0
 81 82  2  0  0  0
 81 85  1  0  0  0
 82 89  1  0  0  0
 83157  1  0  0  0
 83158  1  0  0  0
 83159  1  0  0  0
 84160  1  0  0  0
 84161  1  0  0  0
 84162  1  0  0  0
 84 88  1  0  0  0
 85163  1  0  0  0
 85164  1  0  0  0
 86165  1  0  0  0
 86166  1  0  0  0
 87 88  1  0  0  0
 87 89  1  0  0  0
 87167  1  0  0  0
 87168  1  0  0  0
 88 90  1  0  0  0
 88169  1  0  0  0
 89170  1  0  0  0
 90171  1  0  0  0
M  ISO  4   1 100  68 101  86 101  90 100
M  END
> <chiral flag>
0

> <version>
0

> <s_m_source_file>
/data/baiqing/PycharmProjects/Reinvent-master-3.2/result/LINK_invent/BTK/process_docking_weight1_custom_sum_contain_oxygen_bond_distance_aromatic_linkinvent_7_9_3/rearranged_h_0135.sdf

> <i_m_source_file_index>
96

> <r_mmod_Potential_Energy-OPLS-2005>
57.5424880981445

> <r_mmod_Stretch_Energy-OPLS-2005>
82.3752822875977

> <r_mmod_Bend_Energy-OPLS-2005>
155.830047607422

> <r_mmod_Torsional_Energy-OPLS-2005>
241.524612426758

> <r_mmod_Improper_Torsional_Energy-OPLS-2005>
6.99926280975342

> <r_mmod_Van_der_Waal_Energy-OPLS-2005>
154.580474853516

> <r_mmod_Electrostatic_Energy-OPLS-2005>
-431.372497558594

> <r_mmod_Solvation_Energy-OPLS-2005>
-206.334594726562

> <b_mmod_Minimization_Converged-OPLS-2005>
0

> <r_mmod_RMS_Derivative-OPLS-2005>
1.05533409118652

$$$$
96
                    3D
 Structure written by MMmdl.
166174  0  0  1  0            999 V2000
  -30.6071  -14.7510   20.4582 C   0  0  0  0  0  0
  -30.4391  -12.4530   19.4979 C   0  0  0  0  0  0
  -29.5285  -12.5084   18.2506 C   0  0  0  0  0  0
  -28.0493  -12.3340   18.6499 C   0  0  0  0  0  0
  -27.6447  -13.2349   19.8507 C   0  0  2  0  0  0
  -28.6832  -13.1730   20.9931 C   0  0  0  0  0  0
  -25.2507  -13.8175   20.5686 C   0  0  0  0  0  0
  -24.1825  -13.0418   20.9205 C   0  0  0  0  0  0
  -24.6419  -11.6897   20.8731 C   0  0  0  0  0  0
  -23.9089  -10.4288   21.0385 C   0  0  0  0  0  0
  -24.3621   -9.4205   21.9176 C   0  0  0  0  0  0
  -23.6291   -8.2249   22.0751 C   0  0  0  0  0  0
  -22.4279   -8.0283   21.3543 C   0  0  0  0  0  0
  -21.9913   -9.0248   20.4644 C   0  0  0  0  0  0
  -22.7247  -10.2127   20.3042 C   0  0  0  0  0  0
  -21.6861   -6.0737   22.5280 C   0  0  0  0  0  0
  -21.4018   -6.5629   23.8216 C   0  0  0  0  0  0
  -21.3667   -5.6773   24.9178 C   0  0  0  0  0  0
  -21.6049   -4.3041   24.7208 C   0  0  0  0  0  0
  -21.8819   -3.8145   23.4334 C   0  0  0  0  0  0
  -21.9183   -4.6968   22.3396 C   0  0  0  0  0  0
  -22.7824  -13.5203   21.1810 C   0  0  0  0  0  0
  -22.1642   -4.2168   21.0976 F   0  0  0  0  0  0
  -21.5630   -3.4504   25.7717 F   0  0  0  0  0  0
  -29.9880  -13.5226   20.4195 N   0  0  0  0  0  0
  -26.2946  -12.9404   20.3235 N   0  0  0  0  0  0
  -25.9354  -11.6545   20.5725 N   0  0  0  0  0  0
  -22.0427  -12.8260   22.0382 N   0  0  0  0  0  0
  -25.4085  -15.1920   20.4126 N   0  0  0  0  0  0
  -31.7906  -14.8332   20.1182 O   0  0  0  0  0  0
  -21.6645   -6.8880   21.4244 O   0  0  0  0  0  0
  -22.3533  -14.5498   20.6611 O   0  0  0  0  0  0
  -24.6307  -31.8564   23.1959 C   0  0  0  0  0  0
  -25.9138  -32.4750   23.8306 C   0  0  1  0  0  0
  -27.2100  -27.2492   20.1294 C   0  0  0  0  0  0
  -25.5948  -33.8546   24.2239 N   0  0  0  0  0  0
  -23.4267  -30.4780   21.5401 C   0  0  2  0  0  0
  -24.8714  -28.9197   20.1115 C   0  0  0  0  0  0
  -22.7482  -29.4633   22.4925 C   0  0  0  0  0  0
  -18.0287  -28.1393   22.8486 C   0  0  0  0  0  0
  -24.1475  -36.7281   23.2644 C   0  0  0  0  0  0
  -25.9727  -30.7639   21.3784 C   0  0  0  0  0  0
  -26.0428  -29.3836   20.7231 C   0  0  0  0  0  0
  -27.2126  -28.5592   20.7231 C   0  0  0  0  0  0
  -26.0150  -26.8522   19.4926 C   0  0  0  0  0  0
  -24.8634  -27.6641   19.4850 C   0  0  0  0  0  0
  -23.6447  -29.8090   20.1573 C   0  0  0  0  0  0
  -25.4101  -36.3064   24.0329 C   0  0  1  0  0  0
  -20.5891  -28.3698   23.1289 C   0  0  2  0  0  0
  -20.6779  -26.9420   22.5406 C   0  0  0  0  0  0
  -19.5764  -26.6390   21.5205 C   0  0  0  0  0  0
  -18.1940  -26.7935   22.1616 C   0  0  0  0  0  0
  -19.1537  -28.8856   23.2876 C   0  0  0  0  0  0
  -18.9459  -30.1461   23.8899 C   0  0  0  0  0  0
  -17.6455  -30.6591   24.0560 C   0  0  0  0  0  0
  -25.9054  -34.9435   23.5070 C   0  0  0  0  0  0
  -16.5347  -29.9095   23.6337 C   0  0  0  0  0  0
  -16.7268  -28.6513   23.0357 C   0  0  0  0  0  0
  -26.4514  -31.6584   25.0701 C   0  0  0  0  0  0
  -25.3742  -31.3714   26.1418 C   0  0  0  0  0  0
  -27.0363  -30.3004   24.6198 C   0  0  0  0  0  0
  -27.6072  -32.4317   25.7475 C   0  0  0  0  0  0
  -27.5560  -37.1787   24.8469 C   0  0  0  0  0  0
  -21.4192  -29.3059   22.3676 N   0  0  0  0  0  0
  -26.4272  -37.3759   23.9422 N   0  0  0  0  0  0
  -24.6951  -31.0518   22.0936 N   0  0  0  0  0  0
  -23.4189  -28.8202   23.3045 O   0  0  0  0  0  0
  -28.3198  -26.3743   20.1822 O   0  0  0  0  0  0
  -26.5601  -34.8922   22.4632 O   0  0  0  0  0  0
  -23.5456  -32.1386   23.7259 O   0  0  0  0  0  0
  -28.4067  -23.8232   20.8138 C   0  0  0  0  0  0
  -28.2718  -24.9651   19.9191 C   0  0  0  0  0  0
  -28.3727  -22.5914   20.1428 C   0  0  0  0  0  0
  -28.2026  -24.3764   18.6820 C   0  0  0  0  0  0
  -28.1071  -25.0729   17.3580 C   0  0  0  0  0  0
  -26.5474  -21.5582   17.5688 C   0  0  0  0  0  0
  -29.0254  -20.9703   17.4257 C   0  0  0  0  0  0
  -31.5072  -17.7963   20.9604 C   0  0  0  0  0  0
  -28.3148  -21.0962   20.7006 C   0  0  0  0  0  0
  -29.0346  -18.5296   20.7204 C   0  0  0  0  0  0
  -27.9899  -22.0841   17.6226 C   0  0  0  0  0  0
  -30.1432  -17.3810   20.3628 C   0  0  2  0  0  0
  -28.2132  -22.9656   18.7899 N   0  0  0  0  0  0
  -29.8395  -15.8957   20.6650 N   0  0  0  0  0  0
  -29.3453  -20.0045   20.3733 N   0  3  0  0  0  0
  -31.4837  -12.5705   19.2034 H   0  0  0  0  0  0
  -30.3841  -11.4792   19.9852 H   0  0  0  0  0  0
  -29.8206  -11.7337   17.5424 H   0  0  0  0  0  0
  -29.6710  -13.4623   17.7381 H   0  0  0  0  0  0
  -27.9027  -11.2839   18.9085 H   0  0  0  0  0  0
  -27.4040  -12.5277   17.7920 H   0  0  0  0  0  0
  -27.6381  -14.2571   19.4729 H   0  0  0  0  0  0
  -28.7186  -12.1746   21.4306 H   0  0  0  0  0  0
  -28.4145  -13.8512   21.8059 H   0  0  0  0  0  0
  -25.2753   -9.5680   22.4752 H   0  0  0  0  0  0
  -23.9987   -7.4656   22.7485 H   0  0  0  0  0  0
  -21.0836   -8.8757   19.8967 H   0  0  0  0  0  0
  -22.3685  -10.9653   19.6141 H   0  0  0  0  0  0
  -21.2009   -7.6145   23.9728 H   0  0  0  0  0  0
  -21.1496   -6.0502   25.9090 H   0  0  0  0  0  0
  -22.0602   -2.7602   23.2817 H   0  0  0  0  0  0
  -22.3994  -11.9973   22.4909 H   0  0  0  0  0  0
  -21.1026  -13.1314   22.2467 H   0  0  0  0  0  0
  -24.6104  -15.8112   20.5096 H   0  0  0  0  0  0
  -26.2219  -15.6519   20.0270 H   0  0  0  0  0  0
  -26.7194  -32.5404   23.1036 H   0  0  0  0  0  0
  -25.0121  -33.9688   25.0406 H   0  0  0  0  0  0
  -22.7225  -31.2997   21.3915 H   0  0  0  0  0  0
  -23.3735  -35.9618   23.3300 H   0  0  0  0  0  0
  -24.3577  -36.8900   22.2062 H   0  0  0  0  0  0
  -23.7226  -37.6481   23.6665 H   0  0  0  0  0  0
  -26.1143  -31.5242   20.6077 H   0  0  0  0  0  0
  -26.8489  -30.8140   22.0138 H   0  0  0  0  0  0
  -28.1124  -28.9058   21.2116 H   0  0  0  0  0  0
  -25.9457  -25.8851   19.0152 H   0  0  0  0  0  0
  -23.9642  -27.3123   19.0008 H   0  0  0  0  0  0
  -23.7738  -30.5837   19.4000 H   0  0  0  0  0  0
  -22.7604  -29.2465   19.8506 H   0  0  0  0  0  0
  -25.1272  -36.1887   25.0815 H   0  0  0  0  0  0
  -20.9957  -28.3252   24.1423 H   0  0  0  0  0  0
  -20.5693  -26.2282   23.3596 H   0  0  0  0  0  0
  -21.6646  -26.7452   22.1194 H   0  0  0  0  0  0
  -19.6931  -25.6298   21.1251 H   0  0  0  0  0  0
  -19.6719  -27.3193   20.6735 H   0  0  0  0  0  0
  -17.4198  -26.6678   21.4029 H   0  0  0  0  0  0
  -18.0348  -26.0071   22.9010 H   0  0  0  0  0  0
  -19.7935  -30.7272   24.2270 H   0  0  0  0  0  0
  -17.5017  -31.6281   24.5153 H   0  0  0  0  0  0
  -15.5359  -30.2998   23.7663 H   0  0  0  0  0  0
  -15.8667  -28.0830   22.7086 H   0  0  0  0  0  0
  -24.5928  -30.7061   25.7717 H   0  0  0  0  0  0
  -24.8945  -32.2877   26.4857 H   0  0  0  0  0  0
  -25.8081  -30.8864   27.0170 H   0  0  0  0  0  0
  -26.2945  -29.6736   24.1232 H   0  0  0  0  0  0
  -27.4047  -29.7278   25.4718 H   0  0  0  0  0  0
  -27.8814  -30.4274   23.9434 H   0  0  0  0  0  0
  -27.2694  -33.3617   26.2046 H   0  0  0  0  0  0
  -28.3886  -32.6864   25.0306 H   0  0  0  0  0  0
  -28.0731  -31.8442   26.5391 H   0  0  0  0  0  0
  -28.2561  -38.0090   24.7485 H   0  0  0  0  0  0
  -28.1053  -36.2614   24.6296 H   0  0  0  0  0  0
  -27.2288  -37.1428   25.8873 H   0  0  0  0  0  0
  -20.9360  -29.8744   21.6860 H   0  0  0  0  0  0
  -26.0138  -38.2823   24.1438 H   0  0  0  0  0  0
  -28.4893  -23.8990   21.8906 H   0  0  0  0  0  0
  -28.0964  -26.1566   17.4740 H   0  0  0  0  0  0
  -27.1925  -24.7961   16.8319 H   0  0  0  0  0  0
  -28.9612  -24.8218   16.7290 H   0  0  0  0  0  0
  -26.3553  -21.0464   16.6243 H   0  0  0  0  0  0
  -25.8256  -22.3718   17.6474 H   0  0  0  0  0  0
  -26.3445  -20.8474   18.3666 H   0  0  0  0  0  0
  -29.0399  -20.6935   16.3707 H   0  0  0  0  0  0
  -28.7649  -20.0578   17.9529 H   0  0  0  0  0  0
  -30.0368  -21.2857   17.6886 H   0  0  0  0  0  0
  -31.5215  -17.6908   22.0467 H   0  0  0  0  0  0
  -31.7597  -18.8302   20.7288 H   0  0  0  0  0  0
  -32.3284  -17.2063   20.5558 H   0  0  0  0  0  0
  -27.3339  -20.6951   20.4546 H   0  0  0  0  0  0
  -28.3024  -21.1514   21.7912 H   0  0  0  0  0  0
  -28.8112  -18.4939   21.7885 H   0  0  0  0  0  0
  -28.0982  -18.2714   20.2227 H   0  0  0  0  0  0
  -28.1105  -22.6858   16.7238 H   0  0  0  0  0  0
  -30.2458  -17.4064   19.2751 H   0  0  0  0  0  0
  -28.8837  -15.7009   20.9252 H   0  0  0  0  0  0
  -30.1868  -20.2533   20.8629 H   0  0  0  0  0  0
  -29.5374  -20.0673   19.3870 H   0  0  0  0  0  0
  1 25  1  0  0  0
  1 30  2  0  0  0
  1 84  1  0  0  0
  2  3  1  0  0  0
  2 25  1  0  0  0
  2 86  1  0  0  0
  2 87  1  0  0  0
  3  4  1  0  0  0
  3 88  1  0  0  0
  3 89  1  0  0  0
  4  5  1  0  0  0
  4 90  1  0  0  0
  4 91  1  0  0  0
  5  6  1  0  0  0
  5 26  1  0  0  0
  5 92  1  0  0  0
  6 25  1  0  0  0
  6 93  1  0  0  0
  6 94  1  0  0  0
  7  8  2  0  0  0
  7 26  1  0  0  0
  7 29  1  0  0  0
  8  9  1  0  0  0
  8 22  1  0  0  0
  9 10  1  0  0  0
  9 27  2  0  0  0
 10 11  2  0  0  0
 10 15  1  0  0  0
 11 12  1  0  0  0
 11 95  1  0  0  0
 12 13  2  0  0  0
 12 96  1  0  0  0
 13 14  1  0  0  0
 13 31  1  0  0  0
 14 15  2  0  0  0
 14 97  1  0  0  0
 15 98  1  0  0  0
 16 17  2  0  0  0
 16 21  1  0  0  0
 16 31  1  0  0  0
 17 18  1  0  0  0
 17 99  1  0  0  0
 18 19  2  0  0  0
 18100  1  0  0  0
 19 20  1  0  0  0
 19 24  1  0  0  0
 20 21  2  0  0  0
 20101  1  0  0  0
 21 23  1  0  0  0
 22 28  1  0  0  0
 22 32  2  0  0  0
 26 27  1  0  0  0
 28102  1  0  0  0
 28103  1  0  0  0
 29104  1  0  0  0
 29105  1  0  0  0
 33 34  1  0  0  0
 33 66  1  0  0  0
 33 70  2  0  0  0
 34 36  1  0  0  0
 34 59  1  0  0  0
 34106  1  0  0  0
 35 44  2  0  0  0
 35 45  1  0  0  0
 35 68  1  0  0  0
 36 56  1  0  0  0
 36107  1  0  0  0
 37 39  1  0  0  0
 37 47  1  0  0  0
 37 66  1  0  0  0
 37108  1  0  0  0
 38 43  2  0  0  0
 38 46  1  0  0  0
 38 47  1  0  0  0
 39 64  1  0  0  0
 39 67  2  0  0  0
 40 52  1  0  0  0
 40 53  2  0  0  0
 40 58  1  0  0  0
 41109  1  0  0  0
 41110  1  0  0  0
 41111  1  0  0  0
 41 48  1  0  0  0
 42 43  1  0  0  0
 42 66  1  0  0  0
 42112  1  0  0  0
 42113  1  0  0  0
 43 44  1  0  0  0
 44114  1  0  0  0
 45 46  2  0  0  0
 45115  1  0  0  0
 46116  1  0  0  0
 47117  1  0  0  0
 47118  1  0  0  0
 48 56  1  0  0  0
 48 65  1  0  0  0
 48119  1  0  0  0
 49 50  1  0  0  0
 49 53  1  0  0  0
 49 64  1  0  0  0
 49120  1  0  0  0
 50 51  1  0  0  0
 50121  1  0  0  0
 50122  1  0  0  0
 51 52  1  0  0  0
 51123  1  0  0  0
 51124  1  0  0  0
 52125  1  0  0  0
 52126  1  0  0  0
 53 54  1  0  0  0
 54 55  2  0  0  0
 54127  1  0  0  0
 55 57  1  0  0  0
 55128  1  0  0  0
 56 69  2  0  0  0
 57 58  2  0  0  0
 57129  1  0  0  0
 58130  1  0  0  0
 59 60  1  0  0  0
 59 61  1  0  0  0
 59 62  1  0  0  0
 60131  1  0  0  0
 60132  1  0  0  0
 60133  1  0  0  0
 61134  1  0  0  0
 61135  1  0  0  0
 61136  1  0  0  0
 62137  1  0  0  0
 62138  1  0  0  0
 62139  1  0  0  0
 63 65  1  0  0  0
 63140  1  0  0  0
 63141  1  0  0  0
 63142  1  0  0  0
 64143  1  0  0  0
 65144  1  0  0  0
 68 72  1  0  0  0
 71 72  1  0  0  0
 71 73  2  0  0  0
 71145  1  0  0  0
 72 74  2  0  0  0
 73 79  1  0  0  0
 73 83  1  0  0  0
 74 75  1  0  0  0
 74 83  1  0  0  0
 75146  1  0  0  0
 75147  1  0  0  0
 75148  1  0  0  0
 76149  1  0  0  0
 76150  1  0  0  0
 76151  1  0  0  0
 76 81  1  0  0  0
 77 81  1  0  0  0
 77152  1  0  0  0
 77153  1  0  0  0
 77154  1  0  0  0
 78155  1  0  0  0
 78156  1  0  0  0
 78157  1  0  0  0
 78 82  1  0  0  0
 79 85  1  0  0  0
 79158  1  0  0  0
 79159  1  0  0  0
 80 82  1  0  0  0
 80 85  1  0  0  0
 80160  1  0  0  0
 80161  1  0  0  0
 81 83  1  0  0  0
 81162  1  0  0  0
 82 84  1  0  0  0
 82163  1  0  0  0
 84164  1  0  0  0
 85165  1  0  0  0
 85166  1  0  0  0
M  CHG  1  85   1
M  ISO  4   1 100  68 101  72 101  84 100
M  END
> <chiral flag>
0

> <version>
0

> <s_m_source_file>
/data/baiqing/PycharmProjects/Reinvent-master-3.2/result/LINK_invent/BTK/process_docking_weight1_custom_sum_contain_oxygen_bond_distance_aromatic_linkinvent_7_9_3/rearranged_h_0135.sdf

> <i_m_source_file_index>
97

> <r_mmod_Potential_Energy-OPLS-2005>
-84.7703018188477

> <r_mmod_Stretch_Energy-OPLS-2005>
126.487083435059

> <r_mmod_Bend_Energy-OPLS-2005>
175.556457519531

> <r_mmod_Torsional_Energy-OPLS-2005>
237.910781860352

> <r_mmod_Improper_Torsional_Energy-OPLS-2005>
6.43977165222168

> <r_mmod_Van_der_Waal_Energy-OPLS-2005>
118.931350708008

> <r_mmod_Electrostatic_Energy-OPLS-2005>
-355.616912841797

> <r_mmod_Solvation_Energy-OPLS-2005>
-482.27978515625

> <b_mmod_Minimization_Converged-OPLS-2005>
0

> <r_mmod_RMS_Derivative-OPLS-2005>
3.81981492042542

$$$$
97
                    3D
 Structure written by MMmdl.
160169  0  0  1  0            999 V2000
  -30.6659  -14.6533   20.5093 C   0  0  0  0  0  0
  -30.4224  -12.3957   19.4823 C   0  0  0  0  0  0
  -29.5035  -12.4731   18.2427 C   0  0  0  0  0  0
  -28.0279  -12.3193   18.6601 C   0  0  0  0  0  0
  -27.6434  -13.2257   19.8591 C   0  0  2  0  0  0
  -28.6859  -13.1408   20.9963 C   0  0  0  0  0  0
  -25.2542  -13.8186   20.5796 C   0  0  0  0  0  0
  -24.1792  -13.0448   20.9199 C   0  0  0  0  0  0
  -24.6369  -11.6908   20.8750 C   0  0  0  0  0  0
  -23.9053  -10.4292   21.0403 C   0  0  0  0  0  0
  -24.3596   -9.4200   21.9181 C   0  0  0  0  0  0
  -23.6277   -8.2230   22.0752 C   0  0  0  0  0  0
  -22.4274   -8.0258   21.3526 C   0  0  0  0  0  0
  -21.9898   -9.0232   20.4623 C   0  0  0  0  0  0
  -22.7226  -10.2118   20.3042 C   0  0  0  0  0  0
  -21.6846   -6.0717   22.5280 C   0  0  0  0  0  0
  -21.4002   -6.5620   23.8204 C   0  0  0  0  0  0
  -21.3672   -5.6777   24.9160 C   0  0  0  0  0  0
  -21.6056   -4.3050   24.7226 C   0  0  0  0  0  0
  -21.8823   -3.8132   23.4342 C   0  0  0  0  0  0
  -21.9189   -4.6935   22.3398 C   0  0  0  0  0  0
  -22.7802  -13.5192   21.1885 C   0  0  0  0  0  0
  -22.1665   -4.2121   21.0976 F   0  0  0  0  0  0
  -21.5637   -3.4540   25.7737 F   0  0  0  0  0  0
  -30.0011  -13.4576   20.4236 N   0  0  0  0  0  0
  -26.2942  -12.9379   20.3339 N   0  0  0  0  0  0
  -25.9296  -11.6528   20.5778 N   0  0  0  0  0  0
  -22.0463  -12.8135   22.0406 N   0  0  0  0  0  0
  -25.4366  -15.1900   20.4361 N   0  0  0  0  0  0
  -31.8360  -14.7481   20.1322 O   0  0  0  0  0  0
  -21.6635   -6.8849   21.4246 O   0  0  0  0  0  0
  -22.3473  -14.5513   20.6758 O   0  0  0  0  0  0
  -24.6254  -31.8613   23.2023 C   0  0  0  0  0  0
  -25.9083  -32.4785   23.8373 C   0  0  1  0  0  0
  -27.2186  -27.3142   20.1410 C   0  0  0  0  0  0
  -25.5929  -33.8585   24.2310 N   0  0  0  0  0  0
  -23.4228  -30.4837   21.5406 C   0  0  2  0  0  0
  -24.8754  -28.9423   20.1026 C   0  0  0  0  0  0
  -22.7495  -29.4635   22.4910 C   0  0  0  0  0  0
  -18.0301  -28.1392   22.8531 C   0  0  0  0  0  0
  -24.1455  -36.7227   23.2658 C   0  0  0  0  0  0
  -25.9646  -30.7954   21.3696 C   0  0  0  0  0  0
  -26.0419  -29.4192   20.7173 C   0  0  0  0  0  0
  -27.2252  -28.6172   20.7292 C   0  0  0  0  0  0
  -26.0385  -26.8985   19.4903 C   0  0  0  0  0  0
  -24.8721  -27.6870   19.4770 C   0  0  0  0  0  0
  -23.6433  -29.8219   20.1539 C   0  0  0  0  0  0
  -25.4094  -36.3072   24.0371 C   0  0  1  0  0  0
  -20.5919  -28.3686   23.1281 C   0  0  2  0  0  0
  -20.6783  -26.9409   22.5406 C   0  0  0  0  0  0
  -19.5748  -26.6406   21.5222 C   0  0  0  0  0  0
  -18.1923  -26.7956   22.1622 C   0  0  0  0  0  0
  -19.1560  -28.8861   23.2904 C   0  0  0  0  0  0
  -18.9479  -30.1476   23.8909 C   0  0  0  0  0  0
  -17.6477  -30.6612   24.0579 C   0  0  0  0  0  0
  -25.9055  -34.9460   23.5139 C   0  0  0  0  0  0
  -16.5373  -29.9119   23.6345 C   0  0  0  0  0  0
  -16.7300  -28.6534   23.0389 C   0  0  0  0  0  0
  -26.4511  -31.6589   25.0709 C   0  0  0  0  0  0
  -25.3772  -31.3695   26.1440 C   0  0  0  0  0  0
  -27.0347  -30.3047   24.6054 C   0  0  0  0  0  0
  -27.6072  -32.4320   25.7466 C   0  0  0  0  0  0
  -27.5552  -37.1773   24.8498 C   0  0  0  0  0  0
  -21.4193  -29.3046   22.3653 N   0  0  0  0  0  0
  -26.4256  -37.3780   23.9461 N   0  0  0  0  0  0
  -24.6901  -31.0637   22.0956 N   0  0  0  0  0  0
  -23.4196  -28.8149   23.2978 O   0  0  0  0  0  0
  -28.2596  -26.3790   20.2432 O   0  0  0  0  0  0
  -26.5575  -34.8934   22.4665 O   0  0  0  0  0  0
  -23.5409  -32.1367   23.7382 O   0  0  0  0  0  0
  -27.1153  -22.5561   24.3887 C   0  0  0  0  0  0
  -27.3750  -23.3373   23.2586 C   0  0  0  0  0  0
  -27.8178  -21.3628   24.5705 C   0  0  0  0  0  0
  -29.2268  -23.2524   20.0490 C   0  0  0  0  0  0
  -29.6930  -21.9021   20.0714 C   0  0  0  0  0  0
  -28.2591  -22.9043   22.2354 C   0  0  0  0  0  0
  -28.8648  -21.5877   22.3401 C   0  0  0  0  0  0
  -28.7379  -20.8954   23.6031 C   0  0  0  0  0  0
  -28.5041  -23.8014   21.1337 C   0  0  0  0  0  0
  -29.5493  -21.0400   21.1911 C   0  0  0  0  0  0
  -29.5913  -19.7296   24.0470 C   0  0  0  0  0  0
  -27.9119  -25.2765   21.1673 C   0  0  0  0  0  0
  -29.5133  -18.4476   20.8813 C   0  0  0  0  0  0
  -30.5098  -17.1958   20.8429 C   0  0  0  0  0  0
  -30.1945  -19.7569   21.1336 N   0  0  0  0  0  0
  -29.9645  -15.7860   20.8483 N   0  0  0  0  0  0
  -29.0978  -18.8350   24.7659 O   0  5  0  0  0  0
  -30.8101  -19.6927   23.7713 O   0  0  0  0  0  0
  -31.4680  -12.4852   19.1845 H   0  0  0  0  0  0
  -30.3374  -11.4160   19.9585 H   0  0  0  0  0  0
  -29.7624  -11.6864   17.5312 H   0  0  0  0  0  0
  -29.6512  -13.4230   17.7272 H   0  0  0  0  0  0
  -27.8792  -11.2746   18.9353 H   0  0  0  0  0  0
  -27.3664  -12.4995   17.8127 H   0  0  0  0  0  0
  -27.6469  -14.2465   19.4777 H   0  0  0  0  0  0
  -28.6994  -12.1416   21.4332 H   0  0  0  0  0  0
  -28.4301  -13.8247   21.8066 H   0  0  0  0  0  0
  -25.2729   -9.5660   22.4769 H   0  0  0  0  0  0
  -23.9978   -7.4598   22.7458 H   0  0  0  0  0  0
  -21.0838   -8.8719   19.8909 H   0  0  0  0  0  0
  -22.3675  -10.9636   19.6138 H   0  0  0  0  0  0
  -21.1994   -7.6130   23.9695 H   0  0  0  0  0  0
  -21.1504   -6.0508   25.9054 H   0  0  0  0  0  0
  -22.0598   -2.7604   23.2850 H   0  0  0  0  0  0
  -22.4101  -11.9731   22.4662 H   0  0  0  0  0  0
  -21.1088  -13.1143   22.2696 H   0  0  0  0  0  0
  -24.7021  -15.8650   20.6120 H   0  0  0  0  0  0
  -26.3155  -15.6229   20.1918 H   0  0  0  0  0  0
  -26.7136  -32.5435   23.1124 H   0  0  0  0  0  0
  -25.0190  -33.9749   25.0529 H   0  0  0  0  0  0
  -22.7163  -31.3040   21.3955 H   0  0  0  0  0  0
  -23.3744  -35.9516   23.3333 H   0  0  0  0  0  0
  -24.3576  -36.8804   22.2068 H   0  0  0  0  0  0
  -23.7142  -37.6429   23.6626 H   0  0  0  0  0  0
  -26.0883  -31.5568   20.5969 H   0  0  0  0  0  0
  -26.8524  -30.8542   21.9889 H   0  0  0  0  0  0
  -28.1159  -28.9717   21.2298 H   0  0  0  0  0  0
  -26.0011  -25.9208   19.0277 H   0  0  0  0  0  0
  -23.9784  -27.3122   18.9975 H   0  0  0  0  0  0
  -23.7649  -30.5971   19.3974 H   0  0  0  0  0  0
  -22.7642  -29.2552   19.8446 H   0  0  0  0  0  0
  -25.1273  -36.1935   25.0864 H   0  0  0  0  0  0
  -21.0047  -28.3229   24.1402 H   0  0  0  0  0  0
  -20.5668  -26.2295   23.3602 H   0  0  0  0  0  0
  -21.6646  -26.7431   22.1182 H   0  0  0  0  0  0
  -19.6863  -25.6321   21.1226 H   0  0  0  0  0  0
  -19.6662  -27.3244   20.6768 H   0  0  0  0  0  0
  -17.4196  -26.6771   21.4016 H   0  0  0  0  0  0
  -18.0279  -26.0116   22.9027 H   0  0  0  0  0  0
  -19.7964  -30.7315   24.2224 H   0  0  0  0  0  0
  -17.5054  -31.6293   24.5206 H   0  0  0  0  0  0
  -15.5376  -30.3035   23.7684 H   0  0  0  0  0  0
  -15.8698  -28.0871   22.7080 H   0  0  0  0  0  0
  -24.6003  -30.6975   25.7793 H   0  0  0  0  0  0
  -24.8897  -32.2851   26.4808 H   0  0  0  0  0  0
  -25.8166  -30.8958   27.0225 H   0  0  0  0  0  0
  -26.2888  -29.6803   24.1105 H   0  0  0  0  0  0
  -27.4188  -29.7288   25.4476 H   0  0  0  0  0  0
  -27.8717  -30.4441   23.9194 H   0  0  0  0  0  0
  -27.2711  -33.3671   26.1953 H   0  0  0  0  0  0
  -28.3922  -32.6771   25.0305 H   0  0  0  0  0  0
  -28.0655  -31.8470   26.5447 H   0  0  0  0  0  0
  -28.2587  -38.0052   24.7563 H   0  0  0  0  0  0
  -28.1027  -36.2594   24.6307 H   0  0  0  0  0  0
  -27.2295  -37.1417   25.8907 H   0  0  0  0  0  0
  -20.9338  -29.8812   21.6913 H   0  0  0  0  0  0
  -26.0126  -38.2838   24.1513 H   0  0  0  0  0  0
  -26.4216  -22.9039   25.1443 H   0  0  0  0  0  0
  -26.8343  -24.2700   23.2004 H   0  0  0  0  0  0
  -27.6750  -20.8118   25.4918 H   0  0  0  0  0  0
  -29.4161  -23.8593   19.1743 H   0  0  0  0  0  0
  -30.2308  -21.5373   19.2088 H   0  0  0  0  0  0
  -28.1655  -25.6817   22.1500 H   0  0  0  0  0  0
  -26.8283  -25.1382   21.1828 H   0  0  0  0  0  0
  -28.7780  -18.2951   21.6748 H   0  0  0  0  0  0
  -28.9491  -18.5123   19.9512 H   0  0  0  0  0  0
  -31.1915  -17.2614   21.6905 H   0  0  0  0  0  0
  -31.1461  -17.3012   19.9630 H   0  0  0  0  0  0
  -30.6791  -19.6512   22.0436 H   0  0  0  0  0  0
  -29.0041  -15.6664   21.1275 H   0  0  0  0  0  0
  1 25  1  0  0  0
  1 30  2  0  0  0
  1 86  1  0  0  0
  2  3  1  0  0  0
  2 25  1  0  0  0
  2 89  1  0  0  0
  2 90  1  0  0  0
  3  4  1  0  0  0
  3 91  1  0  0  0
  3 92  1  0  0  0
  4  5  1  0  0  0
  4 93  1  0  0  0
  4 94  1  0  0  0
  5  6  1  0  0  0
  5 26  1  0  0  0
  5 95  1  0  0  0
  6 25  1  0  0  0
  6 96  1  0  0  0
  6 97  1  0  0  0
  7  8  2  0  0  0
  7 26  1  0  0  0
  7 29  1  0  0  0
  8  9  1  0  0  0
  8 22  1  0  0  0
  9 10  1  0  0  0
  9 27  2  0  0  0
 10 11  2  0  0  0
 10 15  1  0  0  0
 11 12  1  0  0  0
 11 98  1  0  0  0
 12 13  2  0  0  0
 12 99  1  0  0  0
 13 14  1  0  0  0
 13 31  1  0  0  0
 14 15  2  0  0  0
 14100  1  0  0  0
 15101  1  0  0  0
 16 17  2  0  0  0
 16 21  1  0  0  0
 16 31  1  0  0  0
 17 18  1  0  0  0
 17102  1  0  0  0
 18 19  2  0  0  0
 18103  1  0  0  0
 19 20  1  0  0  0
 19 24  1  0  0  0
 20 21  2  0  0  0
 20104  1  0  0  0
 21 23  1  0  0  0
 22 28  1  0  0  0
 22 32  2  0  0  0
 26 27  1  0  0  0
 28105  1  0  0  0
 28106  1  0  0  0
 29107  1  0  0  0
 29108  1  0  0  0
 33 34  1  0  0  0
 33 66  1  0  0  0
 33 70  2  0  0  0
 34 36  1  0  0  0
 34 59  1  0  0  0
 34109  1  0  0  0
 35 44  2  0  0  0
 35 45  1  0  0  0
 35 68  1  0  0  0
 36 56  1  0  0  0
 36110  1  0  0  0
 37 39  1  0  0  0
 37 47  1  0  0  0
 37 66  1  0  0  0
 37111  1  0  0  0
 38 43  2  0  0  0
 38 46  1  0  0  0
 38 47  1  0  0  0
 39 64  1  0  0  0
 39 67  2  0  0  0
 40 52  1  0  0  0
 40 53  2  0  0  0
 40 58  1  0  0  0
 41112  1  0  0  0
 41113  1  0  0  0
 41114  1  0  0  0
 41 48  1  0  0  0
 42 43  1  0  0  0
 42 66  1  0  0  0
 42115  1  0  0  0
 42116  1  0  0  0
 43 44  1  0  0  0
 44117  1  0  0  0
 45 46  2  0  0  0
 45118  1  0  0  0
 46119  1  0  0  0
 47120  1  0  0  0
 47121  1  0  0  0
 48 56  1  0  0  0
 48 65  1  0  0  0
 48122  1  0  0  0
 49 50  1  0  0  0
 49 53  1  0  0  0
 49 64  1  0  0  0
 49123  1  0  0  0
 50 51  1  0  0  0
 50124  1  0  0  0
 50125  1  0  0  0
 51 52  1  0  0  0
 51126  1  0  0  0
 51127  1  0  0  0
 52128  1  0  0  0
 52129  1  0  0  0
 53 54  1  0  0  0
 54 55  2  0  0  0
 54130  1  0  0  0
 55 57  1  0  0  0
 55131  1  0  0  0
 56 69  2  0  0  0
 57 58  2  0  0  0
 57132  1  0  0  0
 58133  1  0  0  0
 59 60  1  0  0  0
 59 61  1  0  0  0
 59 62  1  0  0  0
 60134  1  0  0  0
 60135  1  0  0  0
 60136  1  0  0  0
 61137  1  0  0  0
 61138  1  0  0  0
 61139  1  0  0  0
 62140  1  0  0  0
 62141  1  0  0  0
 62142  1  0  0  0
 63 65  1  0  0  0
 63143  1  0  0  0
 63144  1  0  0  0
 63145  1  0  0  0
 64146  1  0  0  0
 65147  1  0  0  0
 68 82  1  0  0  0
 71 72  2  0  0  0
 71 73  1  0  0  0
 71148  1  0  0  0
 72 76  1  0  0  0
 72149  1  0  0  0
 73 78  2  0  0  0
 73150  1  0  0  0
 74 75  1  0  0  0
 74 79  2  0  0  0
 74151  1  0  0  0
 75 80  2  0  0  0
 75152  1  0  0  0
 76 77  2  0  0  0
 76 79  1  0  0  0
 77 78  1  0  0  0
 77 80  1  0  0  0
 78 81  1  0  0  0
 79 82  1  0  0  0
 80 85  1  0  0  0
 81 87  1  0  0  0
 81 88  2  0  0  0
 82153  1  0  0  0
 82154  1  0  0  0
 83 84  1  0  0  0
 83 85  1  0  0  0
 83155  1  0  0  0
 83156  1  0  0  0
 84 86  1  0  0  0
 84157  1  0  0  0
 84158  1  0  0  0
 85159  1  0  0  0
 86160  1  0  0  0
M  CHG  1  87  -1
M  ISO  4   1 100  68 101  82 101  86 100
M  END
> <chiral flag>
0

> <version>
0

> <s_m_source_file>
/data/baiqing/PycharmProjects/Reinvent-master-3.2/result/LINK_invent/BTK/process_docking_weight1_custom_sum_contain_oxygen_bond_distance_aromatic_linkinvent_7_9_3/rearranged_h_0135.sdf

> <i_m_source_file_index>
98

> <r_mmod_Potential_Energy-OPLS-2005>
-185.774063110352

> <r_mmod_Stretch_Energy-OPLS-2005>
98.5874481201172

> <r_mmod_Bend_Energy-OPLS-2005>
169.282653808594

> <r_mmod_Torsional_Energy-OPLS-2005>
283.5498046875

> <r_mmod_Improper_Torsional_Energy-OPLS-2005>
10.9161796569824

> <r_mmod_Van_der_Waal_Energy-OPLS-2005>
182.653594970703

> <r_mmod_Electrostatic_Energy-OPLS-2005>
-494.56689453125

> <r_mmod_Solvation_Energy-OPLS-2005>
-500.237396240234

> <b_mmod_Minimization_Converged-OPLS-2005>
0

> <r_mmod_RMS_Derivative-OPLS-2005>
5.11020183563232

$$$$
98
                    3D
 Structure written by MMmdl.
178187  0  0  1  0            999 V2000
  -30.7628  -14.3628   20.7124 C   0  0  0  0  0  0
  -30.4099  -12.3013   19.3940 C   0  0  0  0  0  0
  -29.4758  -12.5309   18.1925 C   0  0  0  0  0  0
  -28.0017  -12.3828   18.6108 C   0  0  0  0  0  0
  -27.6609  -13.2031   19.8811 C   0  0  2  0  0  0
  -28.6954  -12.9453   20.9964 C   0  0  0  0  0  0
  -25.2574  -13.8169   20.5687 C   0  0  0  0  0  0
  -24.1824  -13.0456   20.9178 C   0  0  0  0  0  0
  -24.6364  -11.6917   20.8761 C   0  0  0  0  0  0
  -23.9044  -10.4302   21.0431 C   0  0  0  0  0  0
  -24.3605   -9.4215   21.9207 C   0  0  0  0  0  0
  -23.6288   -8.2243   22.0759 C   0  0  0  0  0  0
  -22.4273   -8.0280   21.3548 C   0  0  0  0  0  0
  -21.9914   -9.0254   20.4644 C   0  0  0  0  0  0
  -22.7230  -10.2142   20.3060 C   0  0  0  0  0  0
  -21.6842   -6.0745   22.5291 C   0  0  0  0  0  0
  -21.4003   -6.5644   23.8231 C   0  0  0  0  0  0
  -21.3655   -5.6795   24.9190 C   0  0  0  0  0  0
  -21.6040   -4.3059   24.7229 C   0  0  0  0  0  0
  -21.8820   -3.8156   23.4354 C   0  0  0  0  0  0
  -21.9186   -4.6971   22.3409 C   0  0  0  0  0  0
  -22.7852  -13.5247   21.1865 C   0  0  0  0  0  0
  -22.1653   -4.2160   21.0985 F   0  0  0  0  0  0
  -21.5632   -3.4535   25.7743 F   0  0  0  0  0  0
  -30.0366  -13.2435   20.4598 N   0  0  0  0  0  0
  -26.3004  -12.9325   20.3398 N   0  0  0  0  0  0
  -25.9283  -11.6488   20.5777 N   0  0  0  0  0  0
  -22.0513  -12.8230   22.0431 N   0  0  0  0  0  0
  -25.4325  -15.1892   20.4091 N   0  0  0  0  0  0
  -31.7833  -14.6591   20.0825 O   0  0  0  0  0  0
  -21.6628   -6.8878   21.4252 O   0  0  0  0  0  0
  -22.3548  -14.5566   20.6745 O   0  0  0  0  0  0
  -24.6065  -31.8703   23.2151 C   0  0  0  0  0  0
  -25.8968  -32.4838   23.8454 C   0  0  1  0  0  0
  -27.2555  -27.4615   20.1106 C   0  0  0  0  0  0
  -25.5824  -33.8636   24.2385 N   0  0  0  0  0  0
  -23.3979  -30.4924   21.5518 C   0  0  2  0  0  0
  -24.8527  -28.9588   20.1210 C   0  0  0  0  0  0
  -22.7380  -29.4662   22.4988 C   0  0  0  0  0  0
  -18.0259  -28.1379   22.8500 C   0  0  0  0  0  0
  -24.1461  -36.7359   23.2651 C   0  0  0  0  0  0
  -25.9222  -30.8417   21.3682 C   0  0  0  0  0  0
  -26.0032  -29.4718   20.7308 C   0  0  0  0  0  0
  -27.2026  -28.7297   20.7386 C   0  0  0  0  0  0
  -26.0923  -26.9677   19.4833 C   0  0  0  0  0  0
  -24.8901  -27.7021   19.4916 C   0  0  0  0  0  0
  -23.6126  -29.8235   20.1660 C   0  0  0  0  0  0
  -25.4075  -36.3121   24.0347 C   0  0  1  0  0  0
  -20.5838  -28.3664   23.1327 C   0  0  2  0  0  0
  -20.6721  -26.9404   22.5424 C   0  0  0  0  0  0
  -19.5702  -26.6386   21.5217 C   0  0  0  0  0  0
  -18.1895  -26.7921   22.1642 C   0  0  0  0  0  0
  -19.1504  -28.8841   23.2906 C   0  0  0  0  0  0
  -18.9431  -30.1449   23.8913 C   0  0  0  0  0  0
  -17.6436  -30.6585   24.0574 C   0  0  0  0  0  0
  -25.9007  -34.9472   23.5177 C   0  0  0  0  0  0
  -16.5336  -29.9089   23.6332 C   0  0  0  0  0  0
  -16.7252  -28.6502   23.0365 C   0  0  0  0  0  0
  -26.4446  -31.6567   25.0736 C   0  0  0  0  0  0
  -25.3742  -31.3512   26.1468 C   0  0  0  0  0  0
  -27.0330  -30.3049   24.6047 C   0  0  0  0  0  0
  -27.6037  -32.4259   25.7505 C   0  0  0  0  0  0
  -27.5565  -37.1817   24.8479 C   0  0  0  0  0  0
  -21.4103  -29.3021   22.3722 N   0  0  0  0  0  0
  -26.4284  -37.3779   23.9405 N   0  0  0  0  0  0
  -24.6607  -31.0827   22.1044 N   0  0  0  0  0  0
  -23.4169  -28.8213   23.3029 O   0  0  0  0  0  0
  -28.3824  -26.6687   20.0293 O   0  0  0  0  0  0
  -26.5601  -34.8907   22.4764 O   0  0  0  0  0  0
  -23.5257  -32.1462   23.7545 O   0  0  0  0  0  0
  -31.0818  -18.4957   21.6710 C   0  0  0  0  0  0
  -29.3623  -17.7973   23.2165 C   0  0  0  0  0  0
  -29.4999  -20.1745   22.5430 C   0  0  0  0  0  0
  -30.4961  -17.4801   22.4467 C   0  0  0  0  0  0
  -30.6101  -19.8256   21.7094 C   0  0  0  0  0  0
  -28.8704  -19.1218   23.2786 C   0  0  0  0  0  0
  -30.0268  -22.5141   23.4862 C   0  0  0  0  0  0
  -28.5166  -22.3238   21.4151 C   0  0  0  0  0  0
  -29.5759  -23.9838   23.6034 C   0  0  0  0  0  0
  -28.1304  -23.8031   21.6431 C   0  0  0  0  0  0
  -29.0150  -21.6395   22.7107 C   0  0  1  0  0  0
  -31.3831  -20.7998   20.8257 C   0  0  0  0  0  0
  -27.6726  -19.3651   24.1892 C   0  0  0  0  0  0
  -29.0193  -26.0381   22.3311 C   0  0  0  0  0  0
  -31.4116  -15.5927   23.9254 C   0  0  0  0  0  0
  -29.4034  -26.7713   21.0248 C   0  0  0  0  0  0
  -31.1316  -16.0858   22.4841 C   0  0  1  0  0  0
  -30.3464  -15.0782   21.7688 N   0  0  0  0  0  0
  -29.2448  -24.5631   22.2732 N   0  3  1  0  0  0
  -32.2606  -16.5296   24.6786 N   0  3  0  0  0  0
  -31.4507  -12.4087   19.0867 H   0  0  0  0  0  0
  -30.3163  -11.2772   19.7587 H   0  0  0  0  0  0
  -29.7066  -11.8295   17.3896 H   0  0  0  0  0  0
  -29.6411  -13.5294   17.7855 H   0  0  0  0  0  0
  -27.8071  -11.3243   18.7884 H   0  0  0  0  0  0
  -27.3479  -12.6786   17.7894 H   0  0  0  0  0  0
  -27.7207  -14.2581   19.6112 H   0  0  0  0  0  0
  -28.6599  -11.9009   21.3139 H   0  0  0  0  0  0
  -28.4345  -13.5223   21.8836 H   0  0  0  0  0  0
  -25.2735   -9.5698   22.4803 H   0  0  0  0  0  0
  -24.0001   -7.4635   22.7472 H   0  0  0  0  0  0
  -21.0860   -8.8770   19.8938 H   0  0  0  0  0  0
  -22.3691  -10.9690   19.6176 H   0  0  0  0  0  0
  -21.1996   -7.6147   23.9743 H   0  0  0  0  0  0
  -21.1470   -6.0513   25.9094 H   0  0  0  0  0  0
  -22.0600   -2.7617   23.2852 H   0  0  0  0  0  0
  -22.4131  -11.9857   22.4751 H   0  0  0  0  0  0
  -21.1144  -13.1261   22.2709 H   0  0  0  0  0  0
  -24.6742  -15.8534   20.5190 H   0  0  0  0  0  0
  -26.2992  -15.6233   20.1161 H   0  0  0  0  0  0
  -26.7069  -32.5607   23.1259 H   0  0  0  0  0  0
  -24.9805  -33.9800   25.0412 H   0  0  0  0  0  0
  -22.6848  -31.3071   21.4099 H   0  0  0  0  0  0
  -23.3686  -35.9728   23.3321 H   0  0  0  0  0  0
  -24.3543  -36.9008   22.2064 H   0  0  0  0  0  0
  -23.7256  -37.6573   23.6704 H   0  0  0  0  0  0
  -26.0242  -31.5963   20.5876 H   0  0  0  0  0  0
  -26.8129  -30.9138   21.9783 H   0  0  0  0  0  0
  -28.0697  -29.1612   21.2158 H   0  0  0  0  0  0
  -26.1262  -26.0120   18.9801 H   0  0  0  0  0  0
  -24.0145  -27.3091   18.9953 H   0  0  0  0  0  0
  -23.7290  -30.5994   19.4092 H   0  0  0  0  0  0
  -22.7389  -29.2443   19.8624 H   0  0  0  0  0  0
  -25.1242  -36.1995   25.0837 H   0  0  0  0  0  0
  -20.9943  -28.3225   24.1437 H   0  0  0  0  0  0
  -20.5624  -26.2262   23.3596 H   0  0  0  0  0  0
  -21.6595  -26.7433   22.1245 H   0  0  0  0  0  0
  -19.6860  -25.6313   21.1217 H   0  0  0  0  0  0
  -19.6614  -27.3189   20.6745 H   0  0  0  0  0  0
  -17.4152  -26.6676   21.4062 H   0  0  0  0  0  0
  -18.0314  -26.0051   22.9028 H   0  0  0  0  0  0
  -19.7900  -30.7263   24.2288 H   0  0  0  0  0  0
  -17.4988  -31.6253   24.5194 H   0  0  0  0  0  0
  -15.5343  -30.3014   23.7606 H   0  0  0  0  0  0
  -15.8648  -28.0824   22.7094 H   0  0  0  0  0  0
  -24.5970  -30.6837   25.7722 H   0  0  0  0  0  0
  -24.8850  -32.2576   26.5028 H   0  0  0  0  0  0
  -25.8132  -30.8577   27.0152 H   0  0  0  0  0  0
  -26.2857  -29.6720   24.1237 H   0  0  0  0  0  0
  -27.4314  -29.7332   25.4441 H   0  0  0  0  0  0
  -27.8587  -30.4443   23.9065 H   0  0  0  0  0  0
  -27.2708  -33.3539   26.2153 H   0  0  0  0  0  0
  -28.3808  -32.6836   25.0305 H   0  0  0  0  0  0
  -28.0757  -31.8328   26.5347 H   0  0  0  0  0  0
  -28.2584  -38.0106   24.7527 H   0  0  0  0  0  0
  -28.1088  -36.2649   24.6359 H   0  0  0  0  0  0
  -27.2302  -37.1527   25.8888 H   0  0  0  0  0  0
  -20.9255  -29.8759   21.6960 H   0  0  0  0  0  0
  -26.0192  -38.2875   24.1374 H   0  0  0  0  0  0
  -31.9362  -18.2597   21.0510 H   0  0  0  0  0  0
  -28.8849  -17.0224   23.8007 H   0  0  0  0  0  0
  -30.1534  -22.1062   24.4903 H   0  0  0  0  0  0
  -31.0194  -22.4873   23.0440 H   0  0  0  0  0  0
  -29.2468  -22.2865   20.6131 H   0  0  0  0  0  0
  -27.6484  -21.7823   21.0356 H   0  0  0  0  0  0
  -30.3695  -24.5584   24.0844 H   0  0  0  0  0  0
  -28.7036  -24.0581   24.2539 H   0  0  0  0  0  0
  -27.2471  -23.8629   22.2818 H   0  0  0  0  0  0
  -27.8512  -24.2509   20.6899 H   0  0  0  0  0  0
  -28.1319  -21.6461   23.3458 H   0  0  0  0  0  0
  -32.4522  -20.5969   20.9066 H   0  0  0  0  0  0
  -31.2606  -21.8491   21.0668 H   0  0  0  0  0  0
  -31.1035  -20.6576   19.7800 H   0  0  0  0  0  0
  -27.3024  -18.4354   24.6242 H   0  0  0  0  0  0
  -26.8425  -19.8129   23.6425 H   0  0  0  0  0  0
  -27.9461  -20.0203   25.0163 H   0  0  0  0  0  0
  -28.0030  -26.2757   22.6458 H   0  0  0  0  0  0
  -29.6689  -26.4519   23.1056 H   0  0  0  0  0  0
  -31.8993  -14.6188   23.9037 H   0  0  0  0  0  0
  -30.4798  -15.4520   24.4744 H   0  0  0  0  0  0
  -30.3172  -26.3345   20.6192 H   0  0  0  0  0  0
  -29.6654  -27.8077   21.2260 H   0  0  0  0  0  0
  -32.1081  -16.1755   22.0045 H   0  0  0  0  0  0
  -29.4829  -14.7804   22.1971 H   0  0  0  0  0  0
  -30.0629  -24.4291   21.6974 H   0  0  0  0  0  0
  -33.1469  -16.6481   24.2224 H   0  0  0  0  0  0
  -32.4264  -16.1812   25.6051 H   0  0  0  0  0  0
  -31.8130  -17.4264   24.7495 H   0  0  0  0  0  0
  1 25  1  0  0  0
  1 30  2  0  0  0
  1 88  1  0  0  0
  2  3  1  0  0  0
  2 25  1  0  0  0
  2 91  1  0  0  0
  2 92  1  0  0  0
  3  4  1  0  0  0
  3 93  1  0  0  0
  3 94  1  0  0  0
  4  5  1  0  0  0
  4 95  1  0  0  0
  4 96  1  0  0  0
  5  6  1  0  0  0
  5 26  1  0  0  0
  5 97  1  0  0  0
  6 25  1  0  0  0
  6 98  1  0  0  0
  6 99  1  0  0  0
  7  8  2  0  0  0
  7 26  1  0  0  0
  7 29  1  0  0  0
  8  9  1  0  0  0
  8 22  1  0  0  0
  9 10  1  0  0  0
  9 27  2  0  0  0
 10 11  2  0  0  0
 10 15  1  0  0  0
 11 12  1  0  0  0
 11100  1  0  0  0
 12 13  2  0  0  0
 12101  1  0  0  0
 13 14  1  0  0  0
 13 31  1  0  0  0
 14 15  2  0  0  0
 14102  1  0  0  0
 15103  1  0  0  0
 16 17  2  0  0  0
 16 21  1  0  0  0
 16 31  1  0  0  0
 17 18  1  0  0  0
 17104  1  0  0  0
 18 19  2  0  0  0
 18105  1  0  0  0
 19 20  1  0  0  0
 19 24  1  0  0  0
 20 21  2  0  0  0
 20106  1  0  0  0
 21 23  1  0  0  0
 22 28  1  0  0  0
 22 32  2  0  0  0
 26 27  1  0  0  0
 28107  1  0  0  0
 28108  1  0  0  0
 29109  1  0  0  0
 29110  1  0  0  0
 33 34  1  0  0  0
 33 66  1  0  0  0
 33 70  2  0  0  0
 34 36  1  0  0  0
 34 59  1  0  0  0
 34111  1  0  0  0
 35 44  2  0  0  0
 35 45  1  0  0  0
 35 68  1  0  0  0
 36 56  1  0  0  0
 36112  1  0  0  0
 37 39  1  0  0  0
 37 47  1  0  0  0
 37 66  1  0  0  0
 37113  1  0  0  0
 38 43  2  0  0  0
 38 46  1  0  0  0
 38 47  1  0  0  0
 39 64  1  0  0  0
 39 67  2  0  0  0
 40 52  1  0  0  0
 40 53  2  0  0  0
 40 58  1  0  0  0
 41114  1  0  0  0
 41115  1  0  0  0
 41116  1  0  0  0
 41 48  1  0  0  0
 42 43  1  0  0  0
 42 66  1  0  0  0
 42117  1  0  0  0
 42118  1  0  0  0
 43 44  1  0  0  0
 44119  1  0  0  0
 45 46  2  0  0  0
 45120  1  0  0  0
 46121  1  0  0  0
 47122  1  0  0  0
 47123  1  0  0  0
 48 56  1  0  0  0
 48 65  1  0  0  0
 48124  1  0  0  0
 49 50  1  0  0  0
 49 53  1  0  0  0
 49 64  1  0  0  0
 49125  1  0  0  0
 50 51  1  0  0  0
 50126  1  0  0  0
 50127  1  0  0  0
 51 52  1  0  0  0
 51128  1  0  0  0
 51129  1  0  0  0
 52130  1  0  0  0
 52131  1  0  0  0
 53 54  1  0  0  0
 54 55  2  0  0  0
 54132  1  0  0  0
 55 57  1  0  0  0
 55133  1  0  0  0
 56 69  2  0  0  0
 57 58  2  0  0  0
 57134  1  0  0  0
 58135  1  0  0  0
 59 60  1  0  0  0
 59 61  1  0  0  0
 59 62  1  0  0  0
 60136  1  0  0  0
 60137  1  0  0  0
 60138  1  0  0  0
 61139  1  0  0  0
 61140  1  0  0  0
 61141  1  0  0  0
 62142  1  0  0  0
 62143  1  0  0  0
 62144  1  0  0  0
 63 65  1  0  0  0
 63145  1  0  0  0
 63146  1  0  0  0
 63147  1  0  0  0
 64148  1  0  0  0
 65149  1  0  0  0
 68 86  1  0  0  0
 71 74  2  0  0  0
 71 75  1  0  0  0
 71150  1  0  0  0
 72 74  1  0  0  0
 72 76  2  0  0  0
 72151  1  0  0  0
 73 75  2  0  0  0
 73 76  1  0  0  0
 73 81  1  0  0  0
 74 87  1  0  0  0
 75 82  1  0  0  0
 76 83  1  0  0  0
 77 79  1  0  0  0
 77 81  1  0  0  0
 77152  1  0  0  0
 77153  1  0  0  0
 78 80  1  0  0  0
 78 81  1  0  0  0
 78154  1  0  0  0
 78155  1  0  0  0
 79 89  1  0  0  0
 79156  1  0  0  0
 79157  1  0  0  0
 80 89  1  0  0  0
 80158  1  0  0  0
 80159  1  0  0  0
 81160  1  0  0  0
 82161  1  0  0  0
 82162  1  0  0  0
 82163  1  0  0  0
 83164  1  0  0  0
 83165  1  0  0  0
 83166  1  0  0  0
 84 86  1  0  0  0
 84167  1  0  0  0
 84168  1  0  0  0
 84 89  1  0  0  0
 85 90  1  0  0  0
 85169  1  0  0  0
 85170  1  0  0  0
 85 87  1  0  0  0
 86171  1  0  0  0
 86172  1  0  0  0
 87 88  1  0  0  0
 87173  1  0  0  0
 88174  1  0  0  0
 89175  1  0  0  0
 90176  1  0  0  0
 90177  1  0  0  0
 90178  1  0  0  0
M  CHG  2  89   1  90   1
M  ISO  4   1 100  68 101  86 101  88 100
M  END
> <chiral flag>
0

> <version>
0

> <s_m_source_file>
/data/baiqing/PycharmProjects/Reinvent-master-3.2/result/LINK_invent/BTK/process_docking_weight1_custom_sum_contain_oxygen_bond_distance_aromatic_linkinvent_7_9_3/rearranged_h_0135.sdf

> <i_m_source_file_index>
99

> <r_mmod_Potential_Energy-OPLS-2005>
-471.743835449219

> <r_mmod_Stretch_Energy-OPLS-2005>
42.0786743164062

> <r_mmod_Bend_Energy-OPLS-2005>
115.931793212891

> <r_mmod_Torsional_Energy-OPLS-2005>
249.537384033203

> <r_mmod_Improper_Torsional_Energy-OPLS-2005>
2.70992398262024

> <r_mmod_Van_der_Waal_Energy-OPLS-2005>
165.54133605957

> <r_mmod_Electrostatic_Energy-OPLS-2005>
-202.842315673828

> <r_mmod_Solvation_Energy-OPLS-2005>
-851.379516601562

> <b_mmod_Minimization_Converged-OPLS-2005>
0

> <r_mmod_RMS_Derivative-OPLS-2005>
3.15037631988525

$$$$
