0
                    3D
 Structure written by MMmdl.
170178  0  0  1  0            999 V2000
  -30.7394  -14.5984   20.4283 C   0  0  0  0  0  0
  -30.3939  -12.3638   19.4560 C   0  0  0  0  0  0
  -29.4895  -12.4684   18.2154 C   0  0  0  0  0  0
  -28.0148  -12.3270   18.6313 C   0  0  0  0  0  0
  -27.6333  -13.2384   19.8299 C   0  0  2  0  0  0
  -28.6816  -13.1917   20.9642 C   0  0  0  0  0  0
  -25.2465  -13.8246   20.5668 C   0  0  0  0  0  0
  -24.1779  -13.0453   20.9245 C   0  0  0  0  0  0
  -24.6399  -11.6956   20.8780 C   0  0  0  0  0  0
  -23.9077  -10.4314   21.0408 C   0  0  0  0  0  0
  -24.3634   -9.4213   21.9166 C   0  0  0  0  0  0
  -23.6310   -8.2250   22.0750 C   0  0  0  0  0  0
  -22.4290   -8.0285   21.3553 C   0  0  0  0  0  0
  -21.9921   -9.0247   20.4644 C   0  0  0  0  0  0
  -22.7252  -10.2131   20.3044 C   0  0  0  0  0  0
  -21.6851   -6.0735   22.5277 C   0  0  0  0  0  0
  -21.4008   -6.5625   23.8209 C   0  0  0  0  0  0
  -21.3675   -5.6776   24.9173 C   0  0  0  0  0  0
  -21.6054   -4.3040   24.7219 C   0  0  0  0  0  0
  -21.8817   -3.8146   23.4335 C   0  0  0  0  0  0
  -21.9195   -4.6967   22.3403 C   0  0  0  0  0  0
  -22.7787  -13.5211   21.1873 C   0  0  0  0  0  0
  -22.1648   -4.2144   21.0979 F   0  0  0  0  0  0
  -21.5648   -3.4530   25.7737 F   0  0  0  0  0  0
  -29.9907  -13.4570   20.3648 N   0  0  0  0  0  0
  -26.2898  -12.9459   20.3211 N   0  0  0  0  0  0
  -25.9322  -11.6603   20.5756 N   0  0  0  0  0  0
  -22.0433  -12.8223   22.0454 N   0  0  0  0  0  0
  -25.4143  -15.1982   20.4112 N   0  0  0  0  0  0
  -31.9563  -14.4832   20.2875 O   0  0  0  0  0  0
  -21.6653   -6.8890   21.4243 O   0  0  0  0  0  0
  -22.3468  -14.5489   20.6689 O   0  0  0  0  0  0
  -24.6238  -31.8605   23.2027 C   0  0  0  0  0  0
  -25.9102  -32.4792   23.8324 C   0  0  1  0  0  0
  -27.1967  -27.3503   20.0934 C   0  0  0  0  0  0
  -25.5911  -33.8583   24.2271 N   0  0  0  0  0  0
  -23.4098  -30.4902   21.5429 C   0  0  2  0  0  0
  -24.8472  -28.9480   20.1027 C   0  0  0  0  0  0
  -22.7423  -29.4658   22.4903 C   0  0  0  0  0  0
  -18.0272  -28.1391   22.8500 C   0  0  0  0  0  0
  -24.1482  -36.7317   23.2633 C   0  0  0  0  0  0
  -25.9490  -30.7993   21.3667 C   0  0  0  0  0  0
  -26.0131  -29.4292   20.7131 C   0  0  0  0  0  0
  -27.1899  -28.6348   20.7070 C   0  0  0  0  0  0
  -26.0111  -26.9090   19.4636 C   0  0  0  0  0  0
  -24.8461  -27.6955   19.4702 C   0  0  0  0  0  0
  -23.6199  -29.8274   20.1563 C   0  0  0  0  0  0
  -25.4101  -36.3105   24.0335 C   0  0  1  0  0  0
  -20.5857  -28.3688   23.1282 C   0  0  2  0  0  0
  -20.6765  -26.9405   22.5405 C   0  0  0  0  0  0
  -19.5742  -26.6382   21.5206 C   0  0  0  0  0  0
  -18.1926  -26.7937   22.1631 C   0  0  0  0  0  0
  -19.1519  -28.8845   23.2900 C   0  0  0  0  0  0
  -18.9460  -30.1452   23.8913 C   0  0  0  0  0  0
  -17.6460  -30.6581   24.0574 C   0  0  0  0  0  0
  -25.9031  -34.9471   23.5097 C   0  0  0  0  0  0
  -16.5343  -29.9098   23.6335 C   0  0  0  0  0  0
  -16.7263  -28.6517   23.0356 C   0  0  0  0  0  0
  -26.4473  -31.6583   25.0685 C   0  0  0  0  0  0
  -25.3721  -31.3751   26.1437 C   0  0  0  0  0  0
  -27.0299  -30.2999   24.6120 C   0  0  0  0  0  0
  -27.6032  -32.4310   25.7457 C   0  0  0  0  0  0
  -27.5579  -37.1807   24.8461 C   0  0  0  0  0  0
  -21.4132  -29.3066   22.3685 N   0  0  0  0  0  0
  -26.4291  -37.3784   23.9409 N   0  0  0  0  0  0
  -24.6791  -31.0672   22.0948 N   0  0  0  0  0  0
  -23.4221  -28.8193   23.2924 O   0  0  0  0  0  0
  -28.3369  -26.5583   20.1531 O   0  0  0  0  0  0
  -26.5609  -34.8933   22.4675 O   0  0  0  0  0  0
  -23.5407  -32.1358   23.7379 O   0  0  0  0  0  0
  -32.7339  -18.0301   19.0188 C   0  0  0  0  0  0
  -32.0654  -19.0265   18.2972 C   0  0  0  0  0  0
  -30.6650  -19.1119   18.4789 C   0  0  0  0  0  0
  -30.0220  -18.2495   19.4244 C   0  0  0  0  0  0
  -30.7427  -17.0726   19.8711 C   0  0  0  0  0  0
  -29.8661  -20.1522   17.6894 C   0  0  0  0  0  0
  -34.2103  -19.4799   16.9309 C   0  0  0  0  0  0
  -33.0472  -21.3657   18.1349 C   0  0  0  0  0  0
  -28.6699  -18.7571   19.9985 C   0  0  0  0  0  0
  -28.7926  -20.2098   20.6488 C   0  0  0  0  0  0
  -27.8917  -21.4201   20.1545 C   0  0  0  0  0  0
  -27.6429  -24.0158   20.2501 C   0  0  0  0  0  0
  -28.3820  -25.2257   19.5520 C   0  0  0  0  0  0
  -32.8547  -20.0168   17.4189 C   0  0  0  0  0  0
  -32.0898  -17.0983   19.7292 N   0  0  0  0  0  0
  -30.1251  -15.8368   20.3792 N   0  0  0  0  0  0
  -28.4926  -22.7780   20.4365 N   0  3  0  0  0  0
  -31.4419  -12.4127   19.1535 H   0  0  0  0  0  0
  -30.2704  -11.3959   19.9446 H   0  0  0  0  0  0
  -29.7469  -11.6949   17.4885 H   0  0  0  0  0  0
  -29.6481  -13.4268   17.7186 H   0  0  0  0  0  0
  -27.8553  -11.2818   18.8991 H   0  0  0  0  0  0
  -27.3584  -12.5217   17.7816 H   0  0  0  0  0  0
  -27.6181  -14.2554   19.4354 H   0  0  0  0  0  0
  -28.6833  -12.2171   21.4523 H   0  0  0  0  0  0
  -28.4530  -13.9296   21.7357 H   0  0  0  0  0  0
  -25.2773   -9.5692   22.4738 H   0  0  0  0  0  0
  -24.0018   -7.4650   22.7471 H   0  0  0  0  0  0
  -21.0843   -8.8766   19.8964 H   0  0  0  0  0  0
  -22.3699  -10.9658   19.6163 H   0  0  0  0  0  0
  -21.1978   -7.6125   23.9712 H   0  0  0  0  0  0
  -21.1504   -6.0503   25.9070 H   0  0  0  0  0  0
  -22.0595   -2.7605   23.2839 H   0  0  0  0  0  0
  -22.4023  -11.9892   22.4865 H   0  0  0  0  0  0
  -21.1034  -13.1268   22.2598 H   0  0  0  0  0  0
  -24.6468  -15.8512   20.5245 H   0  0  0  0  0  0
  -26.2629  -15.6427   20.0856 H   0  0  0  0  0  0
  -26.7157  -32.5440   23.1058 H   0  0  0  0  0  0
  -25.0059  -33.9683   25.0424 H   0  0  0  0  0  0
  -22.7029  -31.3119   21.4014 H   0  0  0  0  0  0
  -23.3735  -35.9657   23.3291 H   0  0  0  0  0  0
  -24.3581  -36.8937   22.2043 H   0  0  0  0  0  0
  -23.7231  -37.6521   23.6645 H   0  0  0  0  0  0
  -26.0755  -31.5575   20.5919 H   0  0  0  0  0  0
  -26.8371  -30.8479   21.9881 H   0  0  0  0  0  0
  -28.0878  -28.9881   21.1942 H   0  0  0  0  0  0
  -25.9467  -25.9502   18.9732 H   0  0  0  0  0  0
  -23.9498  -27.3289   18.9847 H   0  0  0  0  0  0
  -23.7383  -30.5996   19.3944 H   0  0  0  0  0  0
  -22.7410  -29.2536   19.8562 H   0  0  0  0  0  0
  -25.1276  -36.1959   25.0824 H   0  0  0  0  0  0
  -20.9978  -28.3269   24.1390 H   0  0  0  0  0  0
  -20.5639  -26.2290   23.3606 H   0  0  0  0  0  0
  -21.6641  -26.7433   22.1200 H   0  0  0  0  0  0
  -19.6884  -25.6296   21.1231 H   0  0  0  0  0  0
  -19.6684  -27.3209   20.6741 H   0  0  0  0  0  0
  -17.4188  -26.6682   21.4043 H   0  0  0  0  0  0
  -18.0343  -26.0072   22.9014 H   0  0  0  0  0  0
  -19.7921  -30.7263   24.2297 H   0  0  0  0  0  0
  -17.5008  -31.6259   24.5195 H   0  0  0  0  0  0
  -15.5351  -30.3026   23.7598 H   0  0  0  0  0  0
  -15.8668  -28.0828   22.7082 H   0  0  0  0  0  0
  -24.5873  -30.7119   25.7780 H   0  0  0  0  0  0
  -24.8961  -32.2950   26.4817 H   0  0  0  0  0  0
  -25.8051  -30.8942   27.0219 H   0  0  0  0  0  0
  -26.2857  -29.6767   24.1142 H   0  0  0  0  0  0
  -27.4000  -29.7222   25.4597 H   0  0  0  0  0  0
  -27.8724  -30.4273   23.9328 H   0  0  0  0  0  0
  -27.2613  -33.3587   26.2041 H   0  0  0  0  0  0
  -28.3829  -32.6895   25.0289 H   0  0  0  0  0  0
  -28.0708  -31.8438   26.5364 H   0  0  0  0  0  0
  -28.2597  -38.0098   24.7515 H   0  0  0  0  0  0
  -28.1073  -36.2642   24.6276 H   0  0  0  0  0  0
  -27.2311  -37.1443   25.8864 H   0  0  0  0  0  0
  -20.9291  -29.8844   21.6965 H   0  0  0  0  0  0
  -26.0188  -38.2866   24.1402 H   0  0  0  0  0  0
  -33.8068  -17.9142   18.9909 H   0  0  0  0  0  0
  -30.2145  -20.2374   16.6640 H   0  0  0  0  0  0
  -29.9373  -21.1395   18.1407 H   0  0  0  0  0  0
  -28.8137  -19.8882   17.5942 H   0  0  0  0  0  0
  -34.1038  -18.5138   16.4357 H   0  0  0  0  0  0
  -34.9190  -19.3602   17.7496 H   0  0  0  0  0  0
  -34.6660  -20.1663   16.2158 H   0  0  0  0  0  0
  -32.1017  -21.8233   18.4204 H   0  0  0  0  0  0
  -33.5652  -22.0805   17.4953 H   0  0  0  0  0  0
  -33.6385  -21.2463   19.0426 H   0  0  0  0  0  0
  -28.3199  -18.0527   20.7535 H   0  0  0  0  0  0
  -27.9030  -18.7321   19.2240 H   0  0  0  0  0  0
  -29.8333  -20.5287   20.5787 H   0  0  0  0  0  0
  -28.6447  -20.1075   21.7248 H   0  0  0  0  0  0
  -26.9090  -21.3504   20.6248 H   0  0  0  0  0  0
  -27.7045  -21.3538   19.0825 H   0  0  0  0  0  0
  -26.7555  -23.7606   19.6695 H   0  0  0  0  0  0
  -27.2712  -24.3293   21.2263 H   0  0  0  0  0  0
  -28.0763  -25.2889   18.5058 H   0  0  0  0  0  0
  -29.4415  -24.9764   19.4989 H   0  0  0  0  0  0
  -32.2921  -20.1958   16.5046 H   0  0  0  0  0  0
  -29.1219  -15.8416   20.4735 H   0  0  0  0  0  0
  -29.3113  -22.8732   19.8561 H   0  0  0  0  0  0
  -28.8129  -22.7835   21.3947 H   0  0  0  0  0  0
  1 25  1  0  0  0
  1 30  2  0  0  0
  1 86  1  0  0  0
  2  3  1  0  0  0
  2 25  1  0  0  0
  2 88  1  0  0  0
  2 89  1  0  0  0
  3  4  1  0  0  0
  3 90  1  0  0  0
  3 91  1  0  0  0
  4  5  1  0  0  0
  4 92  1  0  0  0
  4 93  1  0  0  0
  5  6  1  0  0  0
  5 26  1  0  0  0
  5 94  1  0  0  0
  6 25  1  0  0  0
  6 95  1  0  0  0
  6 96  1  0  0  0
  7  8  2  0  0  0
  7 26  1  0  0  0
  7 29  1  0  0  0
  8  9  1  0  0  0
  8 22  1  0  0  0
  9 10  1  0  0  0
  9 27  2  0  0  0
 10 11  2  0  0  0
 10 15  1  0  0  0
 11 12  1  0  0  0
 11 97  1  0  0  0
 12 13  2  0  0  0
 12 98  1  0  0  0
 13 14  1  0  0  0
 13 31  1  0  0  0
 14 15  2  0  0  0
 14 99  1  0  0  0
 15100  1  0  0  0
 16 17  2  0  0  0
 16 21  1  0  0  0
 16 31  1  0  0  0
 17 18  1  0  0  0
 17101  1  0  0  0
 18 19  2  0  0  0
 18102  1  0  0  0
 19 20  1  0  0  0
 19 24  1  0  0  0
 20 21  2  0  0  0
 20103  1  0  0  0
 21 23  1  0  0  0
 22 28  1  0  0  0
 22 32  2  0  0  0
 26 27  1  0  0  0
 28104  1  0  0  0
 28105  1  0  0  0
 29106  1  0  0  0
 29107  1  0  0  0
 33 34  1  0  0  0
 33 66  1  0  0  0
 33 70  2  0  0  0
 34 36  1  0  0  0
 34 59  1  0  0  0
 34108  1  0  0  0
 35 44  2  0  0  0
 35 45  1  0  0  0
 35 68  1  0  0  0
 36 56  1  0  0  0
 36109  1  0  0  0
 37 39  1  0  0  0
 37 47  1  0  0  0
 37 66  1  0  0  0
 37110  1  0  0  0
 38 43  2  0  0  0
 38 46  1  0  0  0
 38 47  1  0  0  0
 39 64  1  0  0  0
 39 67  2  0  0  0
 40 52  1  0  0  0
 40 53  2  0  0  0
 40 58  1  0  0  0
 41111  1  0  0  0
 41112  1  0  0  0
 41113  1  0  0  0
 41 48  1  0  0  0
 42 43  1  0  0  0
 42 66  1  0  0  0
 42114  1  0  0  0
 42115  1  0  0  0
 43 44  1  0  0  0
 44116  1  0  0  0
 45 46  2  0  0  0
 45117  1  0  0  0
 46118  1  0  0  0
 47119  1  0  0  0
 47120  1  0  0  0
 48 56  1  0  0  0
 48 65  1  0  0  0
 48121  1  0  0  0
 49 50  1  0  0  0
 49 53  1  0  0  0
 49 64  1  0  0  0
 49122  1  0  0  0
 50 51  1  0  0  0
 50123  1  0  0  0
 50124  1  0  0  0
 51 52  1  0  0  0
 51125  1  0  0  0
 51126  1  0  0  0
 52127  1  0  0  0
 52128  1  0  0  0
 53 54  1  0  0  0
 54 55  2  0  0  0
 54129  1  0  0  0
 55 57  1  0  0  0
 55130  1  0  0  0
 56 69  2  0  0  0
 57 58  2  0  0  0
 57131  1  0  0  0
 58132  1  0  0  0
 59 60  1  0  0  0
 59 61  1  0  0  0
 59 62  1  0  0  0
 60133  1  0  0  0
 60134  1  0  0  0
 60135  1  0  0  0
 61136  1  0  0  0
 61137  1  0  0  0
 61138  1  0  0  0
 62139  1  0  0  0
 62140  1  0  0  0
 62141  1  0  0  0
 63 65  1  0  0  0
 63142  1  0  0  0
 63143  1  0  0  0
 63144  1  0  0  0
 64145  1  0  0  0
 65146  1  0  0  0
 68 83  1  0  0  0
 71 72  2  0  0  0
 71 85  1  0  0  0
 71147  1  0  0  0
 72 73  1  0  0  0
 72 84  1  0  0  0
 73 74  2  0  0  0
 73 76  1  0  0  0
 74 75  1  0  0  0
 74 79  1  0  0  0
 75 85  2  0  0  0
 75 86  1  0  0  0
 76148  1  0  0  0
 76149  1  0  0  0
 76150  1  0  0  0
 77151  1  0  0  0
 77152  1  0  0  0
 77153  1  0  0  0
 77 84  1  0  0  0
 78 84  1  0  0  0
 78154  1  0  0  0
 78155  1  0  0  0
 78156  1  0  0  0
 79 80  1  0  0  0
 79157  1  0  0  0
 79158  1  0  0  0
 80 81  1  0  0  0
 80159  1  0  0  0
 80160  1  0  0  0
 81 87  1  0  0  0
 81161  1  0  0  0
 81162  1  0  0  0
 82 83  1  0  0  0
 82 87  1  0  0  0
 82163  1  0  0  0
 82164  1  0  0  0
 83165  1  0  0  0
 83166  1  0  0  0
 84167  1  0  0  0
 86168  1  0  0  0
 87169  1  0  0  0
 87170  1  0  0  0
M  CHG  1  87   1
M  ISO  4   1 100  68 101  83 101  86 100
M  END
> <chiral flag>
0

> <version>
0

> <s_m_source_file>
/data/baiqing/PycharmProjects/Reinvent-master-3.2/result/LINK_invent/BTK/process_docking_weight1_custom_sum_contain_oxygen_bond_distance_aromatic_linkinvent_7_9_3/rearranged_h_0096.sdf

> <i_m_source_file_index>
1

> <r_mmod_Potential_Energy-OPLS-2005>
-65.931022644043

> <r_mmod_Stretch_Energy-OPLS-2005>
77.8694381713867

> <r_mmod_Bend_Energy-OPLS-2005>
155.53791809082

> <r_mmod_Torsional_Energy-OPLS-2005>
284.688201904297

> <r_mmod_Improper_Torsional_Energy-OPLS-2005>
7.72554588317871

> <r_mmod_Van_der_Waal_Energy-OPLS-2005>
171.249526977539

> <r_mmod_Electrostatic_Energy-OPLS-2005>
-316.924011230469

> <r_mmod_Solvation_Energy-OPLS-2005>
-505.3271484375

> <b_mmod_Minimization_Converged-OPLS-2005>
0

> <r_mmod_RMS_Derivative-OPLS-2005>
3.87841415405273

$$$$
1
                    3D
 Structure written by MMmdl.
178186  0  0  1  0            999 V2000
  -30.6870  -14.4824   20.5224 C   0  0  0  0  0  0
  -30.4144  -12.3042   19.4114 C   0  0  0  0  0  0
  -29.4859  -12.5091   18.1977 C   0  0  0  0  0  0
  -28.0072  -12.3655   18.6090 C   0  0  0  0  0  0
  -27.6530  -13.2047   19.8668 C   0  0  2  0  0  0
  -28.6995  -13.0056   20.9882 C   0  0  0  0  0  0
  -25.2566  -13.8067   20.5810 C   0  0  0  0  0  0
  -24.1815  -13.0389   20.9270 C   0  0  0  0  0  0
  -24.6351  -11.6850   20.8749 C   0  0  0  0  0  0
  -23.9020  -10.4258   21.0419 C   0  0  0  0  0  0
  -24.3610   -9.4168   21.9174 C   0  0  0  0  0  0
  -23.6287   -8.2204   22.0743 C   0  0  0  0  0  0
  -22.4266   -8.0234   21.3539 C   0  0  0  0  0  0
  -21.9897   -9.0200   20.4642 C   0  0  0  0  0  0
  -22.7213  -10.2078   20.3051 C   0  0  0  0  0  0
  -21.6839   -6.0740   22.5279 C   0  0  0  0  0  0
  -21.3994   -6.5653   23.8211 C   0  0  0  0  0  0
  -21.3640   -5.6795   24.9172 C   0  0  0  0  0  0
  -21.6079   -4.3063   24.7221 C   0  0  0  0  0  0
  -21.8813   -3.8161   23.4345 C   0  0  0  0  0  0
  -21.9178   -4.6975   22.3404 C   0  0  0  0  0  0
  -22.7841  -13.5186   21.1891 C   0  0  0  0  0  0
  -22.1640   -4.2167   21.0975 F   0  0  0  0  0  0
  -21.5629   -3.4542   25.7735 F   0  0  0  0  0  0
  -30.0297  -13.2968   20.4277 N   0  0  0  0  0  0
  -26.2974  -12.9257   20.3325 N   0  0  0  0  0  0
  -25.9264  -11.6430   20.5732 N   0  0  0  0  0  0
  -22.0489  -12.8175   22.0443 N   0  0  0  0  0  0
  -25.4301  -15.1762   20.4350 N   0  0  0  0  0  0
  -31.8381  -14.6480   20.1095 O   0  0  0  0  0  0
  -21.6619   -6.8843   21.4228 O   0  0  0  0  0  0
  -22.3524  -14.5482   20.6676 O   0  0  0  0  0  0
  -24.6107  -31.8683   23.2122 C   0  0  0  0  0  0
  -25.9008  -32.4849   23.8389 C   0  0  1  0  0  0
  -27.2398  -27.4796   20.0878 C   0  0  0  0  0  0
  -25.5887  -33.8648   24.2349 N   0  0  0  0  0  0
  -23.3960  -30.4876   21.5521 C   0  0  2  0  0  0
  -24.8453  -28.9615   20.1102 C   0  0  0  0  0  0
  -22.7394  -29.4596   22.5000 C   0  0  0  0  0  0
  -18.0275  -28.1353   22.8469 C   0  0  0  0  0  0
  -24.1476  -36.7332   23.2625 C   0  0  0  0  0  0
  -25.9147  -30.8541   21.3461 C   0  0  0  0  0  0
  -25.9993  -29.4874   20.7042 C   0  0  0  0  0  0
  -27.2018  -28.7515   20.6939 C   0  0  0  0  0  0
  -26.0750  -26.9567   19.4900 C   0  0  0  0  0  0
  -24.8750  -27.6932   19.5010 C   0  0  0  0  0  0
  -23.6011  -29.8172   20.1659 C   0  0  0  0  0  0
  -25.4097  -36.3136   24.0334 C   0  0  1  0  0  0
  -20.5867  -28.3573   23.1318 C   0  0  2  0  0  0
  -20.6752  -26.9336   22.5266 C   0  0  0  0  0  0
  -19.5703  -26.6449   21.5061 C   0  0  0  0  0  0
  -18.1899  -26.7940   22.1515 C   0  0  0  0  0  0
  -19.1539  -28.8776   23.2923 C   0  0  0  0  0  0
  -18.9487  -30.1367   23.8997 C   0  0  0  0  0  0
  -17.6499  -30.6526   24.0695 C   0  0  0  0  0  0
  -25.9024  -34.9493   23.5144 C   0  0  0  0  0  0
  -16.5388  -29.9079   23.6372 C   0  0  0  0  0  0
  -16.7274  -28.6520   23.0319 C   0  0  0  0  0  0
  -26.4473  -31.6586   25.0669 C   0  0  0  0  0  0
  -25.3761  -31.3612   26.1417 C   0  0  0  0  0  0
  -27.0280  -30.3054   24.5937 C   0  0  0  0  0  0
  -27.6079  -32.4243   25.7440 C   0  0  0  0  0  0
  -27.5583  -37.1820   24.8470 C   0  0  0  0  0  0
  -21.4121  -29.2995   22.3802 N   0  0  0  0  0  0
  -26.4286  -37.3823   23.9415 N   0  0  0  0  0  0
  -24.6597  -31.0811   22.0997 N   0  0  0  0  0  0
  -23.4179  -28.8097   23.2986 O   0  0  0  0  0  0
  -28.3986  -26.7457   20.0931 O   0  0  0  0  0  0
  -26.5568  -34.8920   22.4703 O   0  0  0  0  0  0
  -23.5319  -32.1381   23.7558 O   0  0  0  0  0  0
  -29.0577  -18.8946   21.9021 C   0  0  0  0  0  0
  -29.1934  -17.8948   20.9735 C   0  0  0  0  0  0
  -27.1319  -18.7625   20.7950 C   0  0  0  0  0  0
  -25.3074  -18.9831   16.7201 C   0  0  0  0  0  0
  -26.8500  -20.8652   17.3988 C   0  0  0  0  0  0
  -25.4399  -23.2163   20.7935 C   0  0  0  0  0  0
  -30.3167  -16.9325   20.7049 C   0  0  0  0  0  0
  -25.6954  -18.8319   20.3399 C   0  0  0  0  0  0
  -25.3594  -19.7702   19.1550 C   0  0  0  0  0  0
  -28.3113  -24.3627   20.6349 C   0  0  0  0  0  0
  -27.8139  -23.3692   21.7126 C   0  0  0  0  0  0
  -26.2429  -21.4417   22.3510 C   0  0  0  0  0  0
  -27.2247  -20.3395   22.7974 C   0  0  0  0  0  0
  -28.4524  -25.8008   21.1624 C   0  0  0  0  0  0
  -26.1724  -19.5626   17.8509 C   0  0  0  0  0  0
  -26.6878  -22.4224   21.2442 C   0  0  1  0  0  0
  -27.7815  -19.3997   21.7992 N   0  0  0  0  0  0
  -28.0130  -17.8919   20.2800 N   0  3  0  0  0  0
  -29.9294  -15.5300   20.8878 N   0  0  0  0  0  0
  -31.4599  -12.3913   19.1113 H   0  0  0  0  0  0
  -30.2958  -11.2948   19.8084 H   0  0  0  0  0  0
  -29.7236  -11.7876   17.4130 H   0  0  0  0  0  0
  -29.6541  -13.4956   17.7647 H   0  0  0  0  0  0
  -27.8156  -11.3086   18.7947 H   0  0  0  0  0  0
  -27.3532  -12.6427   17.7798 H   0  0  0  0  0  0
  -27.6812  -14.2524   19.5645 H   0  0  0  0  0  0
  -28.6766  -11.9805   21.3556 H   0  0  0  0  0  0
  -28.4717  -13.6341   21.8512 H   0  0  0  0  0  0
  -25.2745   -9.5683   22.4753 H   0  0  0  0  0  0
  -24.0007   -7.4615   22.7467 H   0  0  0  0  0  0
  -21.0820   -8.8708   19.8968 H   0  0  0  0  0  0
  -22.3638  -10.9618   19.6178 H   0  0  0  0  0  0
  -21.1960   -7.6158   23.9699 H   0  0  0  0  0  0
  -21.1475   -6.0547   25.9075 H   0  0  0  0  0  0
  -22.0610   -2.7625   23.2835 H   0  0  0  0  0  0
  -22.4092  -11.9812   22.4798 H   0  0  0  0  0  0
  -21.1071  -13.1120   22.2569 H   0  0  0  0  0  0
  -24.6768  -15.8241   20.6284 H   0  0  0  0  0  0
  -26.2115  -15.5840   19.9505 H   0  0  0  0  0  0
  -26.7069  -32.5588   23.1146 H   0  0  0  0  0  0
  -25.0084  -33.9822   25.0532 H   0  0  0  0  0  0
  -22.6802  -31.3013   21.4163 H   0  0  0  0  0  0
  -23.3745  -35.9671   23.3295 H   0  0  0  0  0  0
  -24.3570  -36.8940   22.2042 H   0  0  0  0  0  0
  -23.7208  -37.6531   23.6628 H   0  0  0  0  0  0
  -25.9904  -31.6102   20.5629 H   0  0  0  0  0  0
  -26.8187  -30.9329   21.9404 H   0  0  0  0  0  0
  -28.0946  -29.1538   21.1527 H   0  0  0  0  0  0
  -26.0992  -25.9867   19.0138 H   0  0  0  0  0  0
  -23.9884  -27.2847   19.0347 H   0  0  0  0  0  0
  -23.6971  -30.5895   19.4041 H   0  0  0  0  0  0
  -22.7280  -29.2270   19.8771 H   0  0  0  0  0  0
  -25.1262  -36.2015   25.0827 H   0  0  0  0  0  0
  -20.9968  -28.3043   24.1438 H   0  0  0  0  0  0
  -20.5682  -26.2091   23.3355 H   0  0  0  0  0  0
  -21.6601  -26.7426   22.0976 H   0  0  0  0  0  0
  -19.6822  -25.6417   21.0911 H   0  0  0  0  0  0
  -19.6622  -27.3373   20.6689 H   0  0  0  0  0  0
  -17.4158  -26.6785   21.3924 H   0  0  0  0  0  0
  -18.0319  -26.0017   22.8828 H   0  0  0  0  0  0
  -19.7971  -30.7145   24.2417 H   0  0  0  0  0  0
  -17.5068  -31.6134   24.5456 H   0  0  0  0  0  0
  -15.5403  -30.3003   23.7750 H   0  0  0  0  0  0
  -15.8644  -28.0917   22.6965 H   0  0  0  0  0  0
  -24.5987  -30.6906   25.7714 H   0  0  0  0  0  0
  -24.8893  -32.2735   26.4861 H   0  0  0  0  0  0
  -25.8145  -30.8772   27.0161 H   0  0  0  0  0  0
  -26.2779  -29.6808   24.1059 H   0  0  0  0  0  0
  -27.4173  -29.7246   25.4312 H   0  0  0  0  0  0
  -27.8550  -30.4394   23.8958 H   0  0  0  0  0  0
  -27.2758  -33.3543   26.2044 H   0  0  0  0  0  0
  -28.3906  -32.6772   25.0281 H   0  0  0  0  0  0
  -28.0715  -31.8318   26.5331 H   0  0  0  0  0  0
  -28.2603  -38.0111   24.7536 H   0  0  0  0  0  0
  -28.1068  -36.2649   24.6282 H   0  0  0  0  0  0
  -27.2291  -37.1449   25.8865 H   0  0  0  0  0  0
  -20.9232  -29.8813   21.7153 H   0  0  0  0  0  0
  -26.0182  -38.2908   24.1447 H   0  0  0  0  0  0
  -29.7483  -19.2352   22.6623 H   0  0  0  0  0  0
  -25.9121  -18.7698   15.8358 H   0  0  0  0  0  0
  -24.5176  -19.6740   16.4176 H   0  0  0  0  0  0
  -24.8360  -18.0448   17.0166 H   0  0  0  0  0  0
  -27.4266  -20.7133   16.4857 H   0  0  0  0  0  0
  -27.5380  -21.2381   18.1566 H   0  0  0  0  0  0
  -26.1203  -21.6509   17.1980 H   0  0  0  0  0  0
  -25.5750  -23.7057   19.8311 H   0  0  0  0  0  0
  -25.1709  -23.9809   21.5277 H   0  0  0  0  0  0
  -24.5698  -22.5689   20.6799 H   0  0  0  0  0  0
  -30.6811  -17.1021   19.6880 H   0  0  0  0  0  0
  -31.1488  -17.1679   21.3694 H   0  0  0  0  0  0
  -25.0801  -19.0441   21.2114 H   0  0  0  0  0  0
  -25.4302  -17.8190   20.0501 H   0  0  0  0  0  0
  -25.4503  -20.7992   19.4831 H   0  0  0  0  0  0
  -24.2936  -19.6648   18.9372 H   0  0  0  0  0  0
  -27.6407  -24.3738   19.7793 H   0  0  0  0  0  0
  -29.2671  -24.0255   20.2331 H   0  0  0  0  0  0
  -27.4564  -23.9110   22.5882 H   0  0  0  0  0  0
  -28.6681  -22.7917   22.0681 H   0  0  0  0  0  0
  -25.9908  -22.0307   23.2349 H   0  0  0  0  0  0
  -25.3003  -20.9784   22.0820 H   0  0  0  0  0  0
  -26.7449  -19.7284   23.5633 H   0  0  0  0  0  0
  -28.0735  -20.8164   23.2913 H   0  0  0  0  0  0
  -29.3996  -25.9162   21.6877 H   0  0  0  0  0  0
  -27.6717  -26.0120   21.8997 H   0  0  0  0  0  0
  -26.9663  -18.8394   18.0270 H   0  0  0  0  0  0
  -27.0748  -21.8555   20.3998 H   0  0  0  0  0  0
  -27.8193  -17.2905   19.4879 H   0  0  0  0  0  0
  -28.9908  -15.3402   21.1995 H   0  0  0  0  0  0
  1 25  1  0  0  0
  1 30  2  0  0  0
  1 89  1  0  0  0
  2  3  1  0  0  0
  2 25  1  0  0  0
  2 90  1  0  0  0
  2 91  1  0  0  0
  3  4  1  0  0  0
  3 92  1  0  0  0
  3 93  1  0  0  0
  4  5  1  0  0  0
  4 94  1  0  0  0
  4 95  1  0  0  0
  5  6  1  0  0  0
  5 26  1  0  0  0
  5 96  1  0  0  0
  6 25  1  0  0  0
  6 97  1  0  0  0
  6 98  1  0  0  0
  7  8  2  0  0  0
  7 26  1  0  0  0
  7 29  1  0  0  0
  8  9  1  0  0  0
  8 22  1  0  0  0
  9 10  1  0  0  0
  9 27  2  0  0  0
 10 11  2  0  0  0
 10 15  1  0  0  0
 11 12  1  0  0  0
 11 99  1  0  0  0
 12 13  2  0  0  0
 12100  1  0  0  0
 13 14  1  0  0  0
 13 31  1  0  0  0
 14 15  2  0  0  0
 14101  1  0  0  0
 15102  1  0  0  0
 16 17  2  0  0  0
 16 21  1  0  0  0
 16 31  1  0  0  0
 17 18  1  0  0  0
 17103  1  0  0  0
 18 19  2  0  0  0
 18104  1  0  0  0
 19 20  1  0  0  0
 19 24  1  0  0  0
 20 21  2  0  0  0
 20105  1  0  0  0
 21 23  1  0  0  0
 22 28  1  0  0  0
 22 32  2  0  0  0
 26 27  1  0  0  0
 28106  1  0  0  0
 28107  1  0  0  0
 29108  1  0  0  0
 29109  1  0  0  0
 33 34  1  0  0  0
 33 66  1  0  0  0
 33 70  2  0  0  0
 34 36  1  0  0  0
 34 59  1  0  0  0
 34110  1  0  0  0
 35 44  2  0  0  0
 35 45  1  0  0  0
 35 68  1  0  0  0
 36 56  1  0  0  0
 36111  1  0  0  0
 37 39  1  0  0  0
 37 47  1  0  0  0
 37 66  1  0  0  0
 37112  1  0  0  0
 38 43  2  0  0  0
 38 46  1  0  0  0
 38 47  1  0  0  0
 39 64  1  0  0  0
 39 67  2  0  0  0
 40 52  1  0  0  0
 40 53  2  0  0  0
 40 58  1  0  0  0
 41113  1  0  0  0
 41114  1  0  0  0
 41115  1  0  0  0
 41 48  1  0  0  0
 42 43  1  0  0  0
 42 66  1  0  0  0
 42116  1  0  0  0
 42117  1  0  0  0
 43 44  1  0  0  0
 44118  1  0  0  0
 45 46  2  0  0  0
 45119  1  0  0  0
 46120  1  0  0  0
 47121  1  0  0  0
 47122  1  0  0  0
 48 56  1  0  0  0
 48 65  1  0  0  0
 48123  1  0  0  0
 49 50  1  0  0  0
 49 53  1  0  0  0
 49 64  1  0  0  0
 49124  1  0  0  0
 50 51  1  0  0  0
 50125  1  0  0  0
 50126  1  0  0  0
 51 52  1  0  0  0
 51127  1  0  0  0
 51128  1  0  0  0
 52129  1  0  0  0
 52130  1  0  0  0
 53 54  1  0  0  0
 54 55  2  0  0  0
 54131  1  0  0  0
 55 57  1  0  0  0
 55132  1  0  0  0
 56 69  2  0  0  0
 57 58  2  0  0  0
 57133  1  0  0  0
 58134  1  0  0  0
 59 60  1  0  0  0
 59 61  1  0  0  0
 59 62  1  0  0  0
 60135  1  0  0  0
 60136  1  0  0  0
 60137  1  0  0  0
 61138  1  0  0  0
 61139  1  0  0  0
 61140  1  0  0  0
 62141  1  0  0  0
 62142  1  0  0  0
 62143  1  0  0  0
 63 65  1  0  0  0
 63144  1  0  0  0
 63145  1  0  0  0
 63146  1  0  0  0
 64147  1  0  0  0
 65148  1  0  0  0
 68 84  1  0  0  0
 71 72  2  0  0  0
 71 87  1  0  0  0
 71149  1  0  0  0
 72 77  1  0  0  0
 72 88  1  0  0  0
 73 78  1  0  0  0
 73 87  1  0  0  0
 73 88  2  0  0  0
 74150  1  0  0  0
 74151  1  0  0  0
 74152  1  0  0  0
 74 85  1  0  0  0
 75 85  1  0  0  0
 75153  1  0  0  0
 75154  1  0  0  0
 75155  1  0  0  0
 76156  1  0  0  0
 76157  1  0  0  0
 76158  1  0  0  0
 76 86  1  0  0  0
 77 89  1  0  0  0
 77159  1  0  0  0
 77160  1  0  0  0
 78 79  1  0  0  0
 78161  1  0  0  0
 78162  1  0  0  0
 79 85  1  0  0  0
 79163  1  0  0  0
 79164  1  0  0  0
 80 81  1  0  0  0
 80 84  1  0  0  0
 80165  1  0  0  0
 80166  1  0  0  0
 81 86  1  0  0  0
 81167  1  0  0  0
 81168  1  0  0  0
 82 83  1  0  0  0
 82 86  1  0  0  0
 82169  1  0  0  0
 82170  1  0  0  0
 83 87  1  0  0  0
 83171  1  0  0  0
 83172  1  0  0  0
 84173  1  0  0  0
 84174  1  0  0  0
 85175  1  0  0  0
 86176  1  0  0  0
 88177  1  0  0  0
 89178  1  0  0  0
M  CHG  1  88   1
M  ISO  4   1 100  68 101  84 101  89 100
M  END
> <chiral flag>
0

> <version>
0

> <s_m_source_file>
/data/baiqing/PycharmProjects/Reinvent-master-3.2/result/LINK_invent/BTK/process_docking_weight1_custom_sum_contain_oxygen_bond_distance_aromatic_linkinvent_7_9_3/rearranged_h_0096.sdf

> <i_m_source_file_index>
2

> <r_mmod_Potential_Energy-OPLS-2005>
-119.229339599609

> <r_mmod_Stretch_Energy-OPLS-2005>
34.731761932373

> <r_mmod_Bend_Energy-OPLS-2005>
113.063377380371

> <r_mmod_Torsional_Energy-OPLS-2005>
289.355072021484

> <r_mmod_Improper_Torsional_Energy-OPLS-2005>
6.90741109848022

> <r_mmod_Van_der_Waal_Energy-OPLS-2005>
115.029792785645

> <r_mmod_Electrostatic_Energy-OPLS-2005>
-273.320037841797

> <r_mmod_Solvation_Energy-OPLS-2005>
-417.969665527344

> <b_mmod_Minimization_Converged-OPLS-2005>
0

> <r_mmod_RMS_Derivative-OPLS-2005>
4.40791654586792

$$$$
2
                    3D
 Structure written by MMmdl.
172180  0  0  1  0            999 V2000
  -30.6027  -14.7261   20.4665 C   0  0  0  0  0  0
  -30.4327  -12.4449   19.4731 C   0  0  0  0  0  0
  -29.5097  -12.5147   18.2364 C   0  0  0  0  0  0
  -28.0353  -12.3417   18.6464 C   0  0  0  0  0  0
  -27.6431  -13.2295   19.8574 C   0  0  2  0  0  0
  -28.6857  -13.1432   20.9929 C   0  0  0  0  0  0
  -25.2511  -13.8219   20.5694 C   0  0  0  0  0  0
  -24.1789  -13.0463   20.9205 C   0  0  0  0  0  0
  -24.6368  -11.6938   20.8753 C   0  0  0  0  0  0
  -23.9045  -10.4322   21.0427 C   0  0  0  0  0  0
  -24.3612   -9.4250   21.9205 C   0  0  0  0  0  0
  -23.6304   -8.2274   22.0771 C   0  0  0  0  0  0
  -22.4295   -8.0292   21.3545 C   0  0  0  0  0  0
  -21.9916   -9.0261   20.4654 C   0  0  0  0  0  0
  -22.7221  -10.2155   20.3079 C   0  0  0  0  0  0
  -21.6859   -6.0742   22.5273 C   0  0  0  0  0  0
  -21.4000   -6.5639   23.8206 C   0  0  0  0  0  0
  -21.3672   -5.6797   24.9168 C   0  0  0  0  0  0
  -21.6061   -4.3059   24.7216 C   0  0  0  0  0  0
  -21.8818   -3.8147   23.4332 C   0  0  0  0  0  0
  -21.9200   -4.6970   22.3396 C   0  0  0  0  0  0
  -22.7815  -13.5251   21.1873 C   0  0  0  0  0  0
  -22.1669   -4.2158   21.0972 F   0  0  0  0  0  0
  -21.5666   -3.4539   25.7726 F   0  0  0  0  0  0
  -29.9862  -13.4966   20.4146 N   0  0  0  0  0  0
  -26.2928  -12.9405   20.3310 N   0  0  0  0  0  0
  -25.9296  -11.6544   20.5752 N   0  0  0  0  0  0
  -22.0463  -12.8225   22.0421 N   0  0  0  0  0  0
  -25.4222  -15.1943   20.4116 N   0  0  0  0  0  0
  -31.7852  -14.8369   20.1332 O   0  0  0  0  0  0
  -21.6660   -6.8888   21.4232 O   0  0  0  0  0  0
  -22.3494  -14.5550   20.6720 O   0  0  0  0  0  0
  -24.6292  -31.8588   23.2003 C   0  0  0  0  0  0
  -25.9120  -32.4775   23.8345 C   0  0  1  0  0  0
  -27.2187  -27.2699   20.1313 C   0  0  0  0  0  0
  -25.5924  -33.8575   24.2275 N   0  0  0  0  0  0
  -23.4246  -30.4793   21.5472 C   0  0  2  0  0  0
  -24.8704  -28.9288   20.1122 C   0  0  0  0  0  0
  -22.7490  -29.4593   22.4962 C   0  0  0  0  0  0
  -18.0282  -28.1363   22.8500 C   0  0  0  0  0  0
  -24.1488  -36.7271   23.2647 C   0  0  0  0  0  0
  -25.9686  -30.7741   21.3785 C   0  0  0  0  0  0
  -26.0398  -29.3967   20.7215 C   0  0  0  0  0  0
  -27.2127  -28.5798   20.7208 C   0  0  0  0  0  0
  -26.0228  -26.8665   19.4942 C   0  0  0  0  0  0
  -24.8666  -27.6716   19.4894 C   0  0  0  0  0  0
  -23.6419  -29.8167   20.1615 C   0  0  0  0  0  0
  -25.4119  -36.3083   24.0345 C   0  0  1  0  0  0
  -20.5895  -28.3667   23.1299 C   0  0  2  0  0  0
  -20.6779  -26.9391   22.5416 C   0  0  0  0  0  0
  -19.5748  -26.6371   21.5222 C   0  0  0  0  0  0
  -18.1927  -26.7909   22.1631 C   0  0  0  0  0  0
  -19.1539  -28.8832   23.2888 C   0  0  0  0  0  0
  -18.9457  -30.1449   23.8890 C   0  0  0  0  0  0
  -17.6453  -30.6578   24.0556 C   0  0  0  0  0  0
  -25.9061  -34.9454   23.5117 C   0  0  0  0  0  0
  -16.5346  -29.9073   23.6328 C   0  0  0  0  0  0
  -16.7270  -28.6487   23.0354 C   0  0  0  0  0  0
  -26.4480  -31.6580   25.0716 C   0  0  0  0  0  0
  -25.3686  -31.3723   26.1420 C   0  0  0  0  0  0
  -27.0332  -30.3013   24.6174 C   0  0  0  0  0  0
  -27.6064  -32.4285   25.7472 C   0  0  0  0  0  0
  -27.5586  -37.1797   24.8475 C   0  0  0  0  0  0
  -21.4204  -29.3016   22.3701 N   0  0  0  0  0  0
  -26.4302  -37.3778   23.9414 N   0  0  0  0  0  0
  -24.6933  -31.0548   22.0991 N   0  0  0  0  0  0
  -23.4197  -28.8154   23.3075 O   0  0  0  0  0  0
  -28.3464  -26.4232   20.2243 O   0  0  0  0  0  0
  -26.5636  -34.8934   22.4685 O   0  0  0  0  0  0
  -23.5446  -32.1411   23.7301 O   0  0  0  0  0  0
  -28.5509  -21.1444   20.5825 C   0  0  0  0  0  0
  -29.4681  -20.0878   20.5450 C   0  0  0  0  0  0
  -30.7323  -20.7763   20.4588 C   0  0  0  0  0  0
  -30.5211  -22.1428   20.5696 C   0  0  0  0  0  0
  -31.5482  -23.2290   20.7007 C   0  0  0  0  0  0
  -34.8377  -20.3756   17.5458 C   0  0  0  0  0  0
  -35.1102  -19.4397   19.8848 C   0  0  0  0  0  0
  -29.5767  -25.0046   18.7642 C   0  0  0  0  0  0
  -29.1323  -18.5132   20.6330 C   0  0  0  0  0  0
  -32.1038  -20.1349   20.3433 C   0  0  0  0  0  0
  -32.9903  -20.7271   19.2299 C   0  0  0  0  0  0
  -28.4947  -23.7965   20.8539 C   0  0  0  0  0  0
  -30.2311  -17.3203   20.5303 C   0  0  0  0  0  0
  -34.1128  -19.7794   18.7619 C   0  0  0  0  0  0
  -28.4136  -24.9941   19.7595 C   0  0  1  0  0  0
  -29.1568  -22.4264   20.6069 N   0  0  0  0  0  0
  -29.8241  -15.8521   20.6829 N   0  0  0  0  0  0
  -31.4723  -12.5789   19.1701 H   0  0  0  0  0  0
  -30.3855  -11.4609   19.9445 H   0  0  0  0  0  0
  -29.7931  -11.7502   17.5112 H   0  0  0  0  0  0
  -29.6327  -13.4752   17.7331 H   0  0  0  0  0  0
  -27.8883  -11.2918   18.8973 H   0  0  0  0  0  0
  -27.3818  -12.5529   17.7988 H   0  0  0  0  0  0
  -27.6458  -14.2552   19.4872 H   0  0  0  0  0  0
  -28.7197  -12.1374   21.4127 H   0  0  0  0  0  0
  -28.4215  -13.8089   21.8171 H   0  0  0  0  0  0
  -25.2771   -9.5746   22.4759 H   0  0  0  0  0  0
  -24.0055   -7.4666   22.7471 H   0  0  0  0  0  0
  -21.0874   -8.8744   19.8926 H   0  0  0  0  0  0
  -22.3681  -10.9690   19.6184 H   0  0  0  0  0  0
  -21.1939   -7.6141   23.9695 H   0  0  0  0  0  0
  -21.1523   -6.0534   25.9078 H   0  0  0  0  0  0
  -22.0580   -2.7609   23.2816 H   0  0  0  0  0  0
  -22.4074  -11.9875   22.4794 H   0  0  0  0  0  0
  -21.1076  -13.1231   22.2621 H   0  0  0  0  0  0
  -24.6518  -15.8465   20.5152 H   0  0  0  0  0  0
  -26.2606  -15.6305   20.0494 H   0  0  0  0  0  0
  -26.7179  -32.5420   23.1085 H   0  0  0  0  0  0
  -25.0049  -33.9717   25.0405 H   0  0  0  0  0  0
  -22.7190  -31.3001   21.4038 H   0  0  0  0  0  0
  -23.3778  -35.9571   23.3303 H   0  0  0  0  0  0
  -24.3587  -36.8890   22.2062 H   0  0  0  0  0  0
  -23.7206  -37.6465   23.6656 H   0  0  0  0  0  0
  -26.1068  -31.5364   20.6096 H   0  0  0  0  0  0
  -26.8460  -30.8215   22.0122 H   0  0  0  0  0  0
  -28.1081  -28.9362   21.2121 H   0  0  0  0  0  0
  -25.9285  -25.9120   19.0058 H   0  0  0  0  0  0
  -23.9687  -27.3054   19.0118 H   0  0  0  0  0  0
  -23.7661  -30.5955   19.4075 H   0  0  0  0  0  0
  -22.7589  -29.2527   19.8580 H   0  0  0  0  0  0
  -25.1301  -36.1952   25.0844 H   0  0  0  0  0  0
  -20.9965  -28.3215   24.1430 H   0  0  0  0  0  0
  -20.5692  -26.2263   23.3610 H   0  0  0  0  0  0
  -21.6643  -26.7422   22.1200 H   0  0  0  0  0  0
  -19.6907  -25.6281   21.1254 H   0  0  0  0  0  0
  -19.6693  -27.3186   20.6760 H   0  0  0  0  0  0
  -17.4207  -26.6674   21.4025 H   0  0  0  0  0  0
  -18.0302  -26.0044   22.9017 H   0  0  0  0  0  0
  -19.7930  -30.7273   24.2248 H   0  0  0  0  0  0
  -17.5004  -31.6266   24.5135 H   0  0  0  0  0  0
  -15.5343  -30.2968   23.7653 H   0  0  0  0  0  0
  -15.8672  -28.0809   22.7058 H   0  0  0  0  0  0
  -24.5868  -30.7081   25.7715 H   0  0  0  0  0  0
  -24.8856  -32.2886   26.4824 H   0  0  0  0  0  0
  -25.7974  -30.8894   27.0208 H   0  0  0  0  0  0
  -26.2922  -29.6760   24.1186 H   0  0  0  0  0  0
  -27.4036  -29.7277   25.4679 H   0  0  0  0  0  0
  -27.8782  -30.4327   23.9413 H   0  0  0  0  0  0
  -27.2723  -33.3602   26.2049 H   0  0  0  0  0  0
  -28.3866  -32.6805   25.0273 H   0  0  0  0  0  0
  -28.0725  -31.8384   26.5374 H   0  0  0  0  0  0
  -28.2614  -38.0087   24.7531 H   0  0  0  0  0  0
  -28.1077  -36.2626   24.6293 H   0  0  0  0  0  0
  -27.2308  -37.1436   25.8881 H   0  0  0  0  0  0
  -20.9385  -29.8718   21.6896 H   0  0  0  0  0  0
  -26.0195  -38.2867   24.1392 H   0  0  0  0  0  0
  -27.4717  -21.0922   20.6568 H   0  0  0  0  0  0
  -32.4082  -22.8763   21.2697 H   0  0  0  0  0  0
  -31.1747  -24.1017   21.2338 H   0  0  0  0  0  0
  -31.9079  -23.5460   19.7213 H   0  0  0  0  0  0
  -35.6101  -19.7005   17.1736 H   0  0  0  0  0  0
  -35.3129  -21.3272   17.7886 H   0  0  0  0  0  0
  -34.1424  -20.5581   16.7245 H   0  0  0  0  0  0
  -35.8765  -18.7490   19.5287 H   0  0  0  0  0  0
  -34.6176  -18.9560   20.7293 H   0  0  0  0  0  0
  -35.6147  -20.3311   20.2609 H   0  0  0  0  0  0
  -29.7244  -24.0241   18.3137 H   0  0  0  0  0  0
  -30.5035  -25.3098   19.2457 H   0  0  0  0  0  0
  -29.3873  -25.7145   17.9582 H   0  0  0  0  0  0
  -28.3621  -18.3196   19.8856 H   0  0  0  0  0  0
  -28.6205  -18.3942   21.5879 H   0  0  0  0  0  0
  -31.9877  -19.0841   20.1191 H   0  0  0  0  0  0
  -32.6046  -20.1884   21.3102 H   0  0  0  0  0  0
  -33.4149  -21.6819   19.5398 H   0  0  0  0  0  0
  -32.3556  -20.9440   18.3697 H   0  0  0  0  0  0
  -27.4755  -23.5991   21.1877 H   0  0  0  0  0  0
  -28.9773  -24.2089   21.7406 H   0  0  0  0  0  0
  -30.7203  -17.3926   19.5591 H   0  0  0  0  0  0
  -31.0020  -17.4972   21.2803 H   0  0  0  0  0  0
  -33.6513  -18.8439   18.4372 H   0  0  0  0  0  0
  -27.5572  -24.7387   19.1447 H   0  0  0  0  0  0
  -28.8586  -15.6769   20.9147 H   0  0  0  0  0  0
  1 25  1  0  0  0
  1 30  2  0  0  0
  1 87  1  0  0  0
  2  3  1  0  0  0
  2 25  1  0  0  0
  2 88  1  0  0  0
  2 89  1  0  0  0
  3  4  1  0  0  0
  3 90  1  0  0  0
  3 91  1  0  0  0
  4  5  1  0  0  0
  4 92  1  0  0  0
  4 93  1  0  0  0
  5  6  1  0  0  0
  5 26  1  0  0  0
  5 94  1  0  0  0
  6 25  1  0  0  0
  6 95  1  0  0  0
  6 96  1  0  0  0
  7  8  2  0  0  0
  7 26  1  0  0  0
  7 29  1  0  0  0
  8  9  1  0  0  0
  8 22  1  0  0  0
  9 10  1  0  0  0
  9 27  2  0  0  0
 10 11  2  0  0  0
 10 15  1  0  0  0
 11 12  1  0  0  0
 11 97  1  0  0  0
 12 13  2  0  0  0
 12 98  1  0  0  0
 13 14  1  0  0  0
 13 31  1  0  0  0
 14 15  2  0  0  0
 14 99  1  0  0  0
 15100  1  0  0  0
 16 17  2  0  0  0
 16 21  1  0  0  0
 16 31  1  0  0  0
 17 18  1  0  0  0
 17101  1  0  0  0
 18 19  2  0  0  0
 18102  1  0  0  0
 19 20  1  0  0  0
 19 24  1  0  0  0
 20 21  2  0  0  0
 20103  1  0  0  0
 21 23  1  0  0  0
 22 28  1  0  0  0
 22 32  2  0  0  0
 26 27  1  0  0  0
 28104  1  0  0  0
 28105  1  0  0  0
 29106  1  0  0  0
 29107  1  0  0  0
 33 34  1  0  0  0
 33 66  1  0  0  0
 33 70  2  0  0  0
 34 36  1  0  0  0
 34 59  1  0  0  0
 34108  1  0  0  0
 35 44  2  0  0  0
 35 45  1  0  0  0
 35 68  1  0  0  0
 36 56  1  0  0  0
 36109  1  0  0  0
 37 39  1  0  0  0
 37 47  1  0  0  0
 37 66  1  0  0  0
 37110  1  0  0  0
 38 43  2  0  0  0
 38 46  1  0  0  0
 38 47  1  0  0  0
 39 64  1  0  0  0
 39 67  2  0  0  0
 40 52  1  0  0  0
 40 53  2  0  0  0
 40 58  1  0  0  0
 41111  1  0  0  0
 41112  1  0  0  0
 41113  1  0  0  0
 41 48  1  0  0  0
 42 43  1  0  0  0
 42 66  1  0  0  0
 42114  1  0  0  0
 42115  1  0  0  0
 43 44  1  0  0  0
 44116  1  0  0  0
 45 46  2  0  0  0
 45117  1  0  0  0
 46118  1  0  0  0
 47119  1  0  0  0
 47120  1  0  0  0
 48 56  1  0  0  0
 48 65  1  0  0  0
 48121  1  0  0  0
 49 50  1  0  0  0
 49 53  1  0  0  0
 49 64  1  0  0  0
 49122  1  0  0  0
 50 51  1  0  0  0
 50123  1  0  0  0
 50124  1  0  0  0
 51 52  1  0  0  0
 51125  1  0  0  0
 51126  1  0  0  0
 52127  1  0  0  0
 52128  1  0  0  0
 53 54  1  0  0  0
 54 55  2  0  0  0
 54129  1  0  0  0
 55 57  1  0  0  0
 55130  1  0  0  0
 56 69  2  0  0  0
 57 58  2  0  0  0
 57131  1  0  0  0
 58132  1  0  0  0
 59 60  1  0  0  0
 59 61  1  0  0  0
 59 62  1  0  0  0
 60133  1  0  0  0
 60134  1  0  0  0
 60135  1  0  0  0
 61136  1  0  0  0
 61137  1  0  0  0
 61138  1  0  0  0
 62139  1  0  0  0
 62140  1  0  0  0
 62141  1  0  0  0
 63 65  1  0  0  0
 63142  1  0  0  0
 63143  1  0  0  0
 63144  1  0  0  0
 64145  1  0  0  0
 65146  1  0  0  0
 68 85  1  0  0  0
 71 72  2  0  0  0
 71 86  1  0  0  0
 71147  1  0  0  0
 72 73  1  0  0  0
 72 79  1  0  0  0
 73 74  2  0  0  0
 73 80  1  0  0  0
 74 75  1  0  0  0
 74 86  1  0  0  0
 75148  1  0  0  0
 75149  1  0  0  0
 75150  1  0  0  0
 76151  1  0  0  0
 76152  1  0  0  0
 76153  1  0  0  0
 76 84  1  0  0  0
 77 84  1  0  0  0
 77154  1  0  0  0
 77155  1  0  0  0
 77156  1  0  0  0
 78157  1  0  0  0
 78158  1  0  0  0
 78159  1  0  0  0
 78 85  1  0  0  0
 79 83  1  0  0  0
 79160  1  0  0  0
 79161  1  0  0  0
 80 81  1  0  0  0
 80162  1  0  0  0
 80163  1  0  0  0
 81 84  1  0  0  0
 81164  1  0  0  0
 81165  1  0  0  0
 82 85  1  0  0  0
 82 86  1  0  0  0
 82166  1  0  0  0
 82167  1  0  0  0
 83 87  1  0  0  0
 83168  1  0  0  0
 83169  1  0  0  0
 84170  1  0  0  0
 85171  1  0  0  0
 87172  1  0  0  0
M  ISO  4   1 100  68 101  85 101  87 100
M  END
> <chiral flag>
0

> <version>
0

> <s_m_source_file>
/data/baiqing/PycharmProjects/Reinvent-master-3.2/result/LINK_invent/BTK/process_docking_weight1_custom_sum_contain_oxygen_bond_distance_aromatic_linkinvent_7_9_3/rearranged_h_0096.sdf

> <i_m_source_file_index>
3

> <r_mmod_Potential_Energy-OPLS-2005>
134.144714355469

> <r_mmod_Stretch_Energy-OPLS-2005>
124.366775512695

> <r_mmod_Bend_Energy-OPLS-2005>
196.508590698242

> <r_mmod_Torsional_Energy-OPLS-2005>
215.164215087891

> <r_mmod_Improper_Torsional_Energy-OPLS-2005>
6.46520280838013

> <r_mmod_Van_der_Waal_Energy-OPLS-2005>
120.491996765137

> <r_mmod_Electrostatic_Energy-OPLS-2005>
-398.353454589844

> <r_mmod_Solvation_Energy-OPLS-2005>
-207.011993408203

> <b_mmod_Minimization_Converged-OPLS-2005>
0

> <r_mmod_RMS_Derivative-OPLS-2005>
2.46339416503906

$$$$
3
                    3D
 Structure written by MMmdl.
164172  0  0  1  0            999 V2000
  -30.6009  -14.7127   20.4417 C   0  0  0  0  0  0
  -30.4449  -12.4331   19.4369 C   0  0  0  0  0  0
  -29.5000  -12.4882   18.2143 C   0  0  0  0  0  0
  -28.0259  -12.3226   18.6387 C   0  0  0  0  0  0
  -27.6454  -13.2181   19.8463 C   0  0  2  0  0  0
  -28.7034  -13.1202   20.9684 C   0  0  0  0  0  0
  -25.2543  -13.8165   20.5709 C   0  0  0  0  0  0
  -24.1824  -13.0436   20.9223 C   0  0  0  0  0  0
  -24.6391  -11.6900   20.8765 C   0  0  0  0  0  0
  -23.9055  -10.4287   21.0412 C   0  0  0  0  0  0
  -24.3613   -9.4204   21.9188 C   0  0  0  0  0  0
  -23.6292   -8.2243   22.0759 C   0  0  0  0  0  0
  -22.4276   -8.0280   21.3545 C   0  0  0  0  0  0
  -21.9907   -9.0258   20.4653 C   0  0  0  0  0  0
  -22.7232  -10.2136   20.3063 C   0  0  0  0  0  0
  -21.6844   -6.0736   22.5275 C   0  0  0  0  0  0
  -21.4006   -6.5641   23.8214 C   0  0  0  0  0  0
  -21.3657   -5.6797   24.9182 C   0  0  0  0  0  0
  -21.6043   -4.3063   24.7228 C   0  0  0  0  0  0
  -21.8820   -3.8152   23.4346 C   0  0  0  0  0  0
  -21.9196   -4.6966   22.3400 C   0  0  0  0  0  0
  -22.7845  -13.5222   21.1872 C   0  0  0  0  0  0
  -22.1663   -4.2153   21.0978 F   0  0  0  0  0  0
  -21.5636   -3.4539   25.7742 F   0  0  0  0  0  0
  -30.0018  -13.4784   20.3784 N   0  0  0  0  0  0
  -26.2970  -12.9353   20.3296 N   0  0  0  0  0  0
  -25.9316  -11.6514   20.5777 N   0  0  0  0  0  0
  -22.0487  -12.8221   22.0423 N   0  0  0  0  0  0
  -25.4227  -15.1895   20.4126 N   0  0  0  0  0  0
  -31.7986  -14.8564   20.1901 O   0  0  0  0  0  0
  -21.6639   -6.8876   21.4237 O   0  0  0  0  0  0
  -22.3535  -14.5532   20.6707 O   0  0  0  0  0  0
  -24.6310  -31.8562   23.2004 C   0  0  0  0  0  0
  -25.9140  -32.4760   23.8357 C   0  0  1  0  0  0
  -27.2248  -27.2729   20.1174 C   0  0  0  0  0  0
  -25.5895  -33.8561   24.2273 N   0  0  0  0  0  0
  -23.4297  -30.4789   21.5436 C   0  0  2  0  0  0
  -24.8776  -28.9331   20.1096 C   0  0  0  0  0  0
  -22.7550  -29.4590   22.4918 C   0  0  0  0  0  0
  -18.0311  -28.1372   22.8499 C   0  0  0  0  0  0
  -24.1479  -36.7286   23.2639 C   0  0  0  0  0  0
  -25.9753  -30.7704   21.3831 C   0  0  0  0  0  0
  -26.0476  -29.3950   20.7237 C   0  0  0  0  0  0
  -27.2226  -28.5741   20.7225 C   0  0  0  0  0  0
  -26.0290  -26.8833   19.4677 C   0  0  0  0  0  0
  -24.8717  -27.6838   19.4737 C   0  0  0  0  0  0
  -23.6480  -29.8171   20.1581 C   0  0  0  0  0  0
  -25.4108  -36.3080   24.0323 C   0  0  1  0  0  0
  -20.5913  -28.3711   23.1256 C   0  0  2  0  0  0
  -20.6816  -26.9424   22.5410 C   0  0  0  0  0  0
  -19.5780  -26.6384   21.5226 C   0  0  0  0  0  0
  -18.1957  -26.7929   22.1639 C   0  0  0  0  0  0
  -19.1556  -28.8862   23.2876 C   0  0  0  0  0  0
  -18.9488  -30.1453   23.8902 C   0  0  0  0  0  0
  -17.6480  -30.6589   24.0553 C   0  0  0  0  0  0
  -25.9052  -34.9450   23.5123 C   0  0  0  0  0  0
  -16.5371  -29.9084   23.6310 C   0  0  0  0  0  0
  -16.7292  -28.6484   23.0365 C   0  0  0  0  0  0
  -26.4516  -31.6571   25.0742 C   0  0  0  0  0  0
  -25.3717  -31.3701   26.1444 C   0  0  0  0  0  0
  -27.0372  -30.2986   24.6228 C   0  0  0  0  0  0
  -27.6086  -32.4309   25.7488 C   0  0  0  0  0  0
  -27.5600  -37.1790   24.8468 C   0  0  0  0  0  0
  -21.4254  -29.3046   22.3652 N   0  0  0  0  0  0
  -26.4306  -37.3760   23.9409 N   0  0  0  0  0  0
  -24.6976  -31.0530   22.0983 N   0  0  0  0  0  0
  -23.4266  -28.8125   23.3002 O   0  0  0  0  0  0
  -28.3254  -26.3820   20.1745 O   0  0  0  0  0  0
  -26.5663  -34.8911   22.4713 O   0  0  0  0  0  0
  -23.5442  -32.1349   23.7303 O   0  0  0  0  0  0
  -29.5893  -21.0576   20.1373 C   0  0  0  0  0  0
  -29.1433  -19.7135   19.8004 C   0  0  0  0  0  0
  -27.7965  -19.6354   19.3430 C   0  0  0  0  0  0
  -28.7232  -22.2164   20.0213 C   0  0  0  0  0  0
  -26.9983  -20.8094   19.3076 C   0  0  0  0  0  0
  -25.5488  -20.7891   18.8474 C   0  0  0  0  0  0
  -27.3913  -18.1641   17.3025 C   0  0  0  0  0  0
  -31.5306  -18.7207   19.5035 C   0  0  0  0  0  0
  -27.2124  -18.3148   18.8232 C   0  0  0  0  0  0
  -29.1030  -23.7335   20.3392 C   0  0  0  0  0  0
  -29.9087  -17.2724   20.8951 C   0  0  0  0  0  0
  -28.0899  -24.9220   19.9052 C   0  0  0  0  0  0
  -30.0514  -18.3905   19.7450 C   0  0  1  0  0  0
  -27.4444  -22.0368   19.6401 N   0  0  0  0  0  0
  -29.7504  -15.7870   20.5846 N   0  0  0  0  0  0
  -31.4781  -12.5793   19.1180 H   0  0  0  0  0  0
  -30.4114  -11.4523   19.9148 H   0  0  0  0  0  0
  -29.7678  -11.7119   17.4944 H   0  0  0  0  0  0
  -29.6243  -13.4415   17.6974 H   0  0  0  0  0  0
  -27.8707  -11.2729   18.8967 H   0  0  0  0  0  0
  -27.3654  -12.5279   17.7958 H   0  0  0  0  0  0
  -27.6433  -14.2416   19.4721 H   0  0  0  0  0  0
  -28.7392  -12.1094   21.3797 H   0  0  0  0  0  0
  -28.4525  -13.7783   21.8027 H   0  0  0  0  0  0
  -25.2755   -9.5697   22.4773 H   0  0  0  0  0  0
  -24.0006   -7.4637   22.7477 H   0  0  0  0  0  0
  -21.0836   -8.8775   19.8950 H   0  0  0  0  0  0
  -22.3679  -10.9687   19.6190 H   0  0  0  0  0  0
  -21.1980   -7.6155   23.9714 H   0  0  0  0  0  0
  -21.1479   -6.0529   25.9082 H   0  0  0  0  0  0
  -22.0597   -2.7608   23.2848 H   0  0  0  0  0  0
  -22.4115  -11.9876   22.4806 H   0  0  0  0  0  0
  -21.1114  -13.1254   22.2647 H   0  0  0  0  0  0
  -24.6491  -15.8345   20.5290 H   0  0  0  0  0  0
  -26.2609  -15.6324   20.0651 H   0  0  0  0  0  0
  -26.7216  -32.5442   23.1114 H   0  0  0  0  0  0
  -24.9942  -33.9666   25.0353 H   0  0  0  0  0  0
  -22.7232  -31.2992   21.4023 H   0  0  0  0  0  0
  -23.3738  -35.9628   23.3287 H   0  0  0  0  0  0
  -24.3536  -36.8933   22.2051 H   0  0  0  0  0  0
  -23.7234  -37.6474   23.6686 H   0  0  0  0  0  0
  -26.1194  -31.5344   20.6170 H   0  0  0  0  0  0
  -26.8513  -30.8171   22.0185 H   0  0  0  0  0  0
  -28.1160  -28.9175   21.2277 H   0  0  0  0  0  0
  -25.9528  -25.9355   18.9577 H   0  0  0  0  0  0
  -23.9741  -27.3247   18.9883 H   0  0  0  0  0  0
  -23.7700  -30.5943   19.4035 H   0  0  0  0  0  0
  -22.7693  -29.2463   19.8553 H   0  0  0  0  0  0
  -25.1280  -36.1938   25.0809 H   0  0  0  0  0  0
  -21.0008  -28.3329   24.1373 H   0  0  0  0  0  0
  -20.5730  -26.2339   23.3635 H   0  0  0  0  0  0
  -21.6685  -26.7457   22.1188 H   0  0  0  0  0  0
  -19.6919  -25.6292   21.1258 H   0  0  0  0  0  0
  -19.6681  -27.3224   20.6767 H   0  0  0  0  0  0
  -17.4231  -26.6684   21.4034 H   0  0  0  0  0  0
  -18.0300  -26.0061   22.9008 H   0  0  0  0  0  0
  -19.7956  -30.7248   24.2296 H   0  0  0  0  0  0
  -17.5040  -31.6261   24.5184 H   0  0  0  0  0  0
  -15.5371  -30.2995   23.7612 H   0  0  0  0  0  0
  -15.8699  -28.0795   22.7090 H   0  0  0  0  0  0
  -24.5919  -30.7030   25.7737 H   0  0  0  0  0  0
  -24.8859  -32.2852   26.4846 H   0  0  0  0  0  0
  -25.8012  -30.8880   27.0237 H   0  0  0  0  0  0
  -26.2964  -29.6689   24.1293 H   0  0  0  0  0  0
  -27.4080  -29.7302   25.4763 H   0  0  0  0  0  0
  -27.8834  -30.4228   23.9476 H   0  0  0  0  0  0
  -27.2740  -33.3646   26.2028 H   0  0  0  0  0  0
  -28.3913  -32.6794   25.0306 H   0  0  0  0  0  0
  -28.0749  -31.8442   26.5416 H   0  0  0  0  0  0
  -28.2608  -38.0099   24.7533 H   0  0  0  0  0  0
  -28.1123  -36.2630   24.6296 H   0  0  0  0  0  0
  -27.2316  -37.1428   25.8872 H   0  0  0  0  0  0
  -20.9476  -29.8732   21.6797 H   0  0  0  0  0  0
  -26.0198  -38.2840   24.1403 H   0  0  0  0  0  0
  -30.6090  -21.2111   20.4622 H   0  0  0  0  0  0
  -25.4791  -20.5319   17.7907 H   0  0  0  0  0  0
  -25.0759  -21.7631   18.9772 H   0  0  0  0  0  0
  -24.9625  -20.0723   19.4214 H   0  0  0  0  0  0
  -26.9716  -17.2223   16.9496 H   0  0  0  0  0  0
  -28.4414  -18.1809   17.0115 H   0  0  0  0  0  0
  -26.8918  -18.9620   16.7546 H   0  0  0  0  0  0
  -31.6560  -19.3346   18.6099 H   0  0  0  0  0  0
  -32.1081  -17.8098   19.3505 H   0  0  0  0  0  0
  -31.9692  -19.2533   20.3468 H   0  0  0  0  0  0
  -26.1559  -18.2370   19.0693 H   0  0  0  0  0  0
  -27.6541  -17.4592   19.3309 H   0  0  0  0  0  0
  -30.0688  -23.9278   19.8750 H   0  0  0  0  0  0
  -29.2678  -23.8037   21.4158 H   0  0  0  0  0  0
  -28.9972  -17.5236   21.4388 H   0  0  0  0  0  0
  -30.6996  -17.3991   21.6353 H   0  0  0  0  0  0
  -27.1404  -24.6686   20.3775 H   0  0  0  0  0  0
  -27.9405  -24.8262   18.8291 H   0  0  0  0  0  0
  -29.7725  -17.8872   18.8214 H   0  0  0  0  0  0
  -28.7915  -15.4798   20.6354 H   0  0  0  0  0  0
  1 25  1  0  0  0
  1 30  2  0  0  0
  1 85  1  0  0  0
  2  3  1  0  0  0
  2 25  1  0  0  0
  2 86  1  0  0  0
  2 87  1  0  0  0
  3  4  1  0  0  0
  3 88  1  0  0  0
  3 89  1  0  0  0
  4  5  1  0  0  0
  4 90  1  0  0  0
  4 91  1  0  0  0
  5  6  1  0  0  0
  5 26  1  0  0  0
  5 92  1  0  0  0
  6 25  1  0  0  0
  6 93  1  0  0  0
  6 94  1  0  0  0
  7  8  2  0  0  0
  7 26  1  0  0  0
  7 29  1  0  0  0
  8  9  1  0  0  0
  8 22  1  0  0  0
  9 10  1  0  0  0
  9 27  2  0  0  0
 10 11  2  0  0  0
 10 15  1  0  0  0
 11 12  1  0  0  0
 11 95  1  0  0  0
 12 13  2  0  0  0
 12 96  1  0  0  0
 13 14  1  0  0  0
 13 31  1  0  0  0
 14 15  2  0  0  0
 14 97  1  0  0  0
 15 98  1  0  0  0
 16 17  2  0  0  0
 16 21  1  0  0  0
 16 31  1  0  0  0
 17 18  1  0  0  0
 17 99  1  0  0  0
 18 19  2  0  0  0
 18100  1  0  0  0
 19 20  1  0  0  0
 19 24  1  0  0  0
 20 21  2  0  0  0
 20101  1  0  0  0
 21 23  1  0  0  0
 22 28  1  0  0  0
 22 32  2  0  0  0
 26 27  1  0  0  0
 28102  1  0  0  0
 28103  1  0  0  0
 29104  1  0  0  0
 29105  1  0  0  0
 33 34  1  0  0  0
 33 66  1  0  0  0
 33 70  2  0  0  0
 34 36  1  0  0  0
 34 59  1  0  0  0
 34106  1  0  0  0
 35 44  2  0  0  0
 35 45  1  0  0  0
 35 68  1  0  0  0
 36 56  1  0  0  0
 36107  1  0  0  0
 37 39  1  0  0  0
 37 47  1  0  0  0
 37 66  1  0  0  0
 37108  1  0  0  0
 38 43  2  0  0  0
 38 46  1  0  0  0
 38 47  1  0  0  0
 39 64  1  0  0  0
 39 67  2  0  0  0
 40 52  1  0  0  0
 40 53  2  0  0  0
 40 58  1  0  0  0
 41109  1  0  0  0
 41110  1  0  0  0
 41111  1  0  0  0
 41 48  1  0  0  0
 42 43  1  0  0  0
 42 66  1  0  0  0
 42112  1  0  0  0
 42113  1  0  0  0
 43 44  1  0  0  0
 44114  1  0  0  0
 45 46  2  0  0  0
 45115  1  0  0  0
 46116  1  0  0  0
 47117  1  0  0  0
 47118  1  0  0  0
 48 56  1  0  0  0
 48 65  1  0  0  0
 48119  1  0  0  0
 49 50  1  0  0  0
 49 53  1  0  0  0
 49 64  1  0  0  0
 49120  1  0  0  0
 50 51  1  0  0  0
 50121  1  0  0  0
 50122  1  0  0  0
 51 52  1  0  0  0
 51123  1  0  0  0
 51124  1  0  0  0
 52125  1  0  0  0
 52126  1  0  0  0
 53 54  1  0  0  0
 54 55  2  0  0  0
 54127  1  0  0  0
 55 57  1  0  0  0
 55128  1  0  0  0
 56 69  2  0  0  0
 57 58  2  0  0  0
 57129  1  0  0  0
 58130  1  0  0  0
 59 60  1  0  0  0
 59 61  1  0  0  0
 59 62  1  0  0  0
 60131  1  0  0  0
 60132  1  0  0  0
 60133  1  0  0  0
 61134  1  0  0  0
 61135  1  0  0  0
 61136  1  0  0  0
 62137  1  0  0  0
 62138  1  0  0  0
 62139  1  0  0  0
 63 65  1  0  0  0
 63140  1  0  0  0
 63141  1  0  0  0
 63142  1  0  0  0
 64143  1  0  0  0
 65144  1  0  0  0
 68 82  1  0  0  0
 71 72  2  0  0  0
 71 74  1  0  0  0
 71145  1  0  0  0
 72 73  1  0  0  0
 72 83  1  0  0  0
 73 75  2  0  0  0
 73 79  1  0  0  0
 74 80  1  0  0  0
 74 84  2  0  0  0
 75 76  1  0  0  0
 75 84  1  0  0  0
 76146  1  0  0  0
 76147  1  0  0  0
 76148  1  0  0  0
 77 79  1  0  0  0
 77149  1  0  0  0
 77150  1  0  0  0
 77151  1  0  0  0
 78152  1  0  0  0
 78153  1  0  0  0
 78154  1  0  0  0
 78 83  1  0  0  0
 79155  1  0  0  0
 79156  1  0  0  0
 80 82  1  0  0  0
 80157  1  0  0  0
 80158  1  0  0  0
 81 83  1  0  0  0
 81 85  1  0  0  0
 81159  1  0  0  0
 81160  1  0  0  0
 82161  1  0  0  0
 82162  1  0  0  0
 83163  1  0  0  0
 85164  1  0  0  0
M  ISO  4   1 100  68 101  82 101  85 100
M  END
> <chiral flag>
0

> <version>
0

> <s_m_source_file>
/data/baiqing/PycharmProjects/Reinvent-master-3.2/result/LINK_invent/BTK/process_docking_weight1_custom_sum_contain_oxygen_bond_distance_aromatic_linkinvent_7_9_3/rearranged_h_0096.sdf

> <i_m_source_file_index>
4

> <r_mmod_Potential_Energy-OPLS-2005>
-1.13659358024597

> <r_mmod_Stretch_Energy-OPLS-2005>
119.248359680176

> <r_mmod_Bend_Energy-OPLS-2005>
173.561538696289

> <r_mmod_Torsional_Energy-OPLS-2005>
232.226699829102

> <r_mmod_Improper_Torsional_Energy-OPLS-2005>
5.6769757270813

> <r_mmod_Van_der_Waal_Energy-OPLS-2005>
143.33642578125

> <r_mmod_Electrostatic_Energy-OPLS-2005>
-533.774169921875

> <r_mmod_Solvation_Energy-OPLS-2005>
-219.255981445312

> <b_mmod_Minimization_Converged-OPLS-2005>
0

> <r_mmod_RMS_Derivative-OPLS-2005>
3.04405188560486

$$$$
4
                    3D
 Structure written by MMmdl.
150158  0  0  1  0            999 V2000
  -30.2637  -15.7341   20.3177 C   0  0  0  0  0  0
  -30.4169  -13.1543   19.5436 C   0  0  0  0  0  0
  -29.5540  -12.6810   18.3357 C   0  0  0  0  0  0
  -28.1353  -12.3023   18.7833 C   0  0  0  0  0  0
  -27.5921  -13.3178   19.8120 C   0  0  2  0  0  0
  -28.6009  -13.6931   20.9258 C   0  0  0  0  0  0
  -25.2303  -13.8298   20.5809 C   0  0  0  0  0  0
  -24.1703  -13.0434   20.9296 C   0  0  0  0  0  0
  -24.6419  -11.6949   20.8765 C   0  0  0  0  0  0
  -23.9125  -10.4293   21.0395 C   0  0  0  0  0  0
  -24.3657   -9.4205   21.9178 C   0  0  0  0  0  0
  -23.6315   -8.2248   22.0753 C   0  0  0  0  0  0
  -22.4295   -8.0289   21.3545 C   0  0  0  0  0  0
  -21.9943   -9.0265   20.4644 C   0  0  0  0  0  0
  -22.7289  -10.2135   20.3048 C   0  0  0  0  0  0
  -21.6860   -6.0742   22.5279 C   0  0  0  0  0  0
  -21.4020   -6.5644   23.8213 C   0  0  0  0  0  0
  -21.3661   -5.6795   24.9174 C   0  0  0  0  0  0
  -21.6043   -4.3057   24.7223 C   0  0  0  0  0  0
  -21.8818   -3.8150   23.4344 C   0  0  0  0  0  0
  -21.9195   -4.6969   22.3401 C   0  0  0  0  0  0
  -22.7713  -13.5157   21.1926 C   0  0  0  0  0  0
  -22.1662   -4.2154   21.0978 F   0  0  0  0  0  0
  -21.5627   -3.4540   25.7735 F   0  0  0  0  0  0
  -29.7595  -14.3470   20.2650 N   0  0  0  0  0  0
  -26.2762  -12.9648   20.3248 N   0  0  0  0  0  0
  -25.9369  -11.6708   20.5698 N   0  0  0  0  0  0
  -22.0382  -12.8130   22.0478 N   0  0  0  0  0  0
  -25.3880  -15.2041   20.4250 N   0  0  0  0  0  0
  -31.4999  -15.6583   20.1593 O   0  0  0  0  0  0
  -21.6650   -6.8891   21.4243 O   0  0  0  0  0  0
  -22.3385  -14.5454   20.6762 O   0  0  0  0  0  0
  -24.6911  -31.7903   23.1440 C   0  0  0  0  0  0
  -25.9454  -32.4418   23.8018 C   0  0  1  0  0  0
  -27.2305  -26.6225   20.2242 C   0  0  0  0  0  0
  -25.5999  -33.8248   24.1897 N   0  0  0  0  0  0
  -23.5208  -30.3879   21.4997 C   0  0  2  0  0  0
  -24.9786  -28.7100   20.1199 C   0  0  0  0  0  0
  -22.7799  -29.4263   22.4688 C   0  0  0  0  0  0
  -18.0343  -28.1425   22.8451 C   0  0  0  0  0  0
  -24.1495  -36.7132   23.2654 C   0  0  0  0  0  0
  -26.1043  -30.4970   21.4198 C   0  0  0  0  0  0
  -26.1686  -29.0527   20.7718 C   0  0  0  0  0  0
  -27.2748  -28.0395   20.7871 C   0  0  0  0  0  0
  -26.0062  -26.5070   19.5128 C   0  0  0  0  0  0
  -24.9412  -27.4644   19.4661 C   0  0  0  0  0  0
  -23.7788  -29.6756   20.1389 C   0  0  0  0  0  0
  -25.4148  -36.2866   24.0275 C   0  0  1  0  0  0
  -20.5982  -28.3788   23.1128 C   0  0  2  0  0  0
  -20.6805  -26.9440   22.5406 C   0  0  0  0  0  0
  -19.5783  -26.6367   21.5218 C   0  0  0  0  0  0
  -18.1965  -26.7951   22.1618 C   0  0  0  0  0  0
  -19.1611  -28.8933   23.2768 C   0  0  0  0  0  0
  -18.9515  -30.1514   23.8817 C   0  0  0  0  0  0
  -17.6504  -30.6606   24.0548 C   0  0  0  0  0  0
  -25.9135  -34.9260   23.4931 C   0  0  0  0  0  0
  -16.5393  -29.9086   23.6352 C   0  0  0  0  0  0
  -16.7322  -28.6509   23.0368 C   0  0  0  0  0  0
  -26.4607  -31.6490   25.0676 C   0  0  0  0  0  0
  -25.3651  -31.3830   26.1277 C   0  0  0  0  0  0
  -27.0553  -30.2820   24.6636 C   0  0  0  0  0  0
  -27.6037  -32.4372   25.7501 C   0  0  0  0  0  0
  -27.5564  -37.1718   24.8463 C   0  0  0  0  0  0
  -21.4439  -29.3019   22.3438 N   0  0  0  0  0  0
  -26.4264  -37.3640   23.9413 N   0  0  0  0  0  0
  -24.7964  -30.9270   22.0735 N   0  0  0  0  0  0
  -23.4205  -28.7881   23.3073 O   0  0  0  0  0  0
  -28.2023  -25.3842   20.3073 O   0  0  0  0  0  0
  -26.5790  -34.8855   22.4558 O   0  0  0  0  0  0
  -23.5914  -32.1014   23.6346 O   0  0  0  0  0  0
  -29.4711  -21.3900   18.6882 C   0  0  0  0  0  0
  -29.2079  -19.7436   18.8820 C   0  0  0  0  0  0
  -28.7190  -20.3144   21.1036 C   0  0  0  0  0  0
  -28.4609  -22.7346   18.8291 C   0  0  0  0  0  0
  -28.8054  -22.1733   21.1423 C   0  0  0  0  0  0
  -29.5685  -18.9452   20.2602 C   0  0  1  0  0  0
  -28.1425  -23.5794   20.2006 C   0  0  1  0  0  0
  -29.4969  -17.1229   20.3653 N   0  0  0  0  0  0
  -31.4027  -13.4300   19.1679 H   0  0  0  0  0  0
  -30.6023  -12.3291   20.2335 H   0  0  0  0  0  0
  -30.0290  -11.8386   17.8310 H   0  0  0  0  0  0
  -29.4977  -13.4866   17.6023 H   0  0  0  0  0  0
  -28.1807  -11.3128   19.2399 H   0  0  0  0  0  0
  -27.4671  -12.2179   17.9254 H   0  0  0  0  0  0
  -27.4413  -14.2255   19.2258 H   0  0  0  0  0  0
  -28.8836  -12.8282   21.5279 H   0  0  0  0  0  0
  -28.1477  -14.4084   21.6137 H   0  0  0  0  0  0
  -25.2796   -9.5679   22.4764 H   0  0  0  0  0  0
  -24.0015   -7.4641   22.7479 H   0  0  0  0  0  0
  -21.0872   -8.8795   19.8951 H   0  0  0  0  0  0
  -22.3748  -10.9677   19.6160 H   0  0  0  0  0  0
  -21.2016   -7.6152   23.9718 H   0  0  0  0  0  0
  -21.1482   -6.0524   25.9077 H   0  0  0  0  0  0
  -22.0596   -2.7613   23.2842 H   0  0  0  0  0  0
  -22.4028  -11.9808   22.4873 H   0  0  0  0  0  0
  -21.0988  -13.1121   22.2678 H   0  0  0  0  0  0
  -24.6143  -15.8506   20.5365 H   0  0  0  0  0  0
  -26.2263  -15.6470   20.0735 H   0  0  0  0  0  0
  -26.7543  -32.4869   23.0733 H   0  0  0  0  0  0
  -25.0039  -33.9271   24.9979 H   0  0  0  0  0  0
  -22.8507  -31.2272   21.3023 H   0  0  0  0  0  0
  -23.3785  -35.9431   23.3240 H   0  0  0  0  0  0
  -24.3565  -36.8878   22.2085 H   0  0  0  0  0  0
  -23.7224  -37.6273   23.6789 H   0  0  0  0  0  0
  -26.3155  -31.2164   20.6275 H   0  0  0  0  0  0
  -26.9521  -30.5678   22.0886 H   0  0  0  0  0  0
  -28.1694  -28.3116   21.3293 H   0  0  0  0  0  0
  -25.8293  -25.5684   19.0068 H   0  0  0  0  0  0
  -24.0451  -27.1921   18.9256 H   0  0  0  0  0  0
  -23.9606  -30.4315   19.3740 H   0  0  0  0  0  0
  -22.8818  -29.1460   19.8136 H   0  0  0  0  0  0
  -25.1360  -36.1613   25.0764 H   0  0  0  0  0  0
  -21.0061  -28.3420   24.1256 H   0  0  0  0  0  0
  -20.5660  -26.2414   23.3675 H   0  0  0  0  0  0
  -21.6666  -26.7369   22.1230 H   0  0  0  0  0  0
  -19.6937  -25.6256   21.1300 H   0  0  0  0  0  0
  -19.6729  -27.3133   20.6712 H   0  0  0  0  0  0
  -17.4235  -26.6693   21.4021 H   0  0  0  0  0  0
  -18.0350  -26.0113   22.9033 H   0  0  0  0  0  0
  -19.7990  -30.7351   24.2152 H   0  0  0  0  0  0
  -17.5054  -31.6277   24.5166 H   0  0  0  0  0  0
  -15.5390  -30.2962   23.7722 H   0  0  0  0  0  0
  -15.8723  -28.0800   22.7130 H   0  0  0  0  0  0
  -24.5864  -30.7153   25.7572 H   0  0  0  0  0  0
  -24.8812  -32.3059   26.4481 H   0  0  0  0  0  0
  -25.7809  -30.9135   27.0201 H   0  0  0  0  0  0
  -26.3286  -29.6407   24.1640 H   0  0  0  0  0  0
  -27.3961  -29.7302   25.5407 H   0  0  0  0  0  0
  -27.9272  -30.3927   24.0187 H   0  0  0  0  0  0
  -27.2564  -33.3752   26.1844 H   0  0  0  0  0  0
  -28.3967  -32.6808   25.0418 H   0  0  0  0  0  0
  -28.0575  -31.8662   26.5611 H   0  0  0  0  0  0
  -28.2528  -38.0062   24.7535 H   0  0  0  0  0  0
  -28.1111  -36.2585   24.6258 H   0  0  0  0  0  0
  -27.2283  -37.1311   25.8864 H   0  0  0  0  0  0
  -20.9763  -29.8659   21.6479 H   0  0  0  0  0  0
  -26.0082  -38.2679   24.1444 H   0  0  0  0  0  0
  -29.7230  -21.4360   17.6279 H   0  0  0  0  0  0
  -30.4316  -21.6268   19.1474 H   0  0  0  0  0  0
  -29.7864  -19.2471   18.1019 H   0  0  0  0  0  0
  -28.1708  -19.5360   18.6146 H   0  0  0  0  0  0
  -27.6558  -20.1065   20.9751 H   0  0  0  0  0  0
  -28.8874  -20.0607   22.1504 H   0  0  0  0  0  0
  -27.5047  -22.4666   18.3783 H   0  0  0  0  0  0
  -28.8669  -23.4779   18.1422 H   0  0  0  0  0  0
  -29.8688  -22.3909   21.2477 H   0  0  0  0  0  0
  -28.4268  -22.3925   22.1408 H   0  0  0  0  0  0
  -30.6284  -19.1228   20.4478 H   0  0  0  0  0  0
  -27.0688  -23.4577   20.3481 H   0  0  0  0  0  0
  -28.5243  -16.8729   20.4784 H   0  0  0  0  0  0
  1 25  1  0  0  0
  1 30  2  0  0  0
  1 78  1  0  0  0
  2  3  1  0  0  0
  2 25  1  0  0  0
  2 79  1  0  0  0
  2 80  1  0  0  0
  3  4  1  0  0  0
  3 81  1  0  0  0
  3 82  1  0  0  0
  4  5  1  0  0  0
  4 83  1  0  0  0
  4 84  1  0  0  0
  5  6  1  0  0  0
  5 26  1  0  0  0
  5 85  1  0  0  0
  6 25  1  0  0  0
  6 86  1  0  0  0
  6 87  1  0  0  0
  7  8  2  0  0  0
  7 26  1  0  0  0
  7 29  1  0  0  0
  8  9  1  0  0  0
  8 22  1  0  0  0
  9 10  1  0  0  0
  9 27  2  0  0  0
 10 11  2  0  0  0
 10 15  1  0  0  0
 11 12  1  0  0  0
 11 88  1  0  0  0
 12 13  2  0  0  0
 12 89  1  0  0  0
 13 14  1  0  0  0
 13 31  1  0  0  0
 14 15  2  0  0  0
 14 90  1  0  0  0
 15 91  1  0  0  0
 16 17  2  0  0  0
 16 21  1  0  0  0
 16 31  1  0  0  0
 17 18  1  0  0  0
 17 92  1  0  0  0
 18 19  2  0  0  0
 18 93  1  0  0  0
 19 20  1  0  0  0
 19 24  1  0  0  0
 20 21  2  0  0  0
 20 94  1  0  0  0
 21 23  1  0  0  0
 22 28  1  0  0  0
 22 32  2  0  0  0
 26 27  1  0  0  0
 28 95  1  0  0  0
 28 96  1  0  0  0
 29 97  1  0  0  0
 29 98  1  0  0  0
 33 34  1  0  0  0
 33 66  1  0  0  0
 33 70  2  0  0  0
 34 36  1  0  0  0
 34 59  1  0  0  0
 34 99  1  0  0  0
 35 44  2  0  0  0
 35 45  1  0  0  0
 35 68  1  0  0  0
 36 56  1  0  0  0
 36100  1  0  0  0
 37 39  1  0  0  0
 37 47  1  0  0  0
 37 66  1  0  0  0
 37101  1  0  0  0
 38 43  2  0  0  0
 38 46  1  0  0  0
 38 47  1  0  0  0
 39 64  1  0  0  0
 39 67  2  0  0  0
 40 52  1  0  0  0
 40 53  2  0  0  0
 40 58  1  0  0  0
 41102  1  0  0  0
 41103  1  0  0  0
 41104  1  0  0  0
 41 48  1  0  0  0
 42 43  1  0  0  0
 42 66  1  0  0  0
 42105  1  0  0  0
 42106  1  0  0  0
 43 44  1  0  0  0
 44107  1  0  0  0
 45 46  2  0  0  0
 45108  1  0  0  0
 46109  1  0  0  0
 47110  1  0  0  0
 47111  1  0  0  0
 48 56  1  0  0  0
 48 65  1  0  0  0
 48112  1  0  0  0
 49 50  1  0  0  0
 49 53  1  0  0  0
 49 64  1  0  0  0
 49113  1  0  0  0
 50 51  1  0  0  0
 50114  1  0  0  0
 50115  1  0  0  0
 51 52  1  0  0  0
 51116  1  0  0  0
 51117  1  0  0  0
 52118  1  0  0  0
 52119  1  0  0  0
 53 54  1  0  0  0
 54 55  2  0  0  0
 54120  1  0  0  0
 55 57  1  0  0  0
 55121  1  0  0  0
 56 69  2  0  0  0
 57 58  2  0  0  0
 57122  1  0  0  0
 58123  1  0  0  0
 59 60  1  0  0  0
 59 61  1  0  0  0
 59 62  1  0  0  0
 60124  1  0  0  0
 60125  1  0  0  0
 60126  1  0  0  0
 61127  1  0  0  0
 61128  1  0  0  0
 61129  1  0  0  0
 62130  1  0  0  0
 62131  1  0  0  0
 62132  1  0  0  0
 63 65  1  0  0  0
 63133  1  0  0  0
 63134  1  0  0  0
 63135  1  0  0  0
 64136  1  0  0  0
 65137  1  0  0  0
 68 77  1  0  0  0
 71 72  1  0  0  0
 71 74  1  0  0  0
 71138  1  0  0  0
 71139  1  0  0  0
 72 76  1  0  0  0
 72140  1  0  0  0
 72141  1  0  0  0
 73 75  1  0  0  0
 73 76  1  0  0  0
 73142  1  0  0  0
 73143  1  0  0  0
 74 77  1  0  0  0
 74144  1  0  0  0
 74145  1  0  0  0
 75 77  1  0  0  0
 75146  1  0  0  0
 75147  1  0  0  0
 76 78  1  0  0  0
 76148  1  0  0  0
 77149  1  0  0  0
 78150  1  0  0  0
M  ISO  4   1 100  68 101  77 101  78 100
M  END
> <chiral flag>
0

> <version>
0

> <s_m_source_file>
/data/baiqing/PycharmProjects/Reinvent-master-3.2/result/LINK_invent/BTK/process_docking_weight1_custom_sum_contain_oxygen_bond_distance_aromatic_linkinvent_7_9_3/rearranged_h_0096.sdf

> <i_m_source_file_index>
5

> <r_mmod_Potential_Energy-OPLS-2005>
2847.20654296875

> <r_mmod_Stretch_Energy-OPLS-2005>
1175.36352539062

> <r_mmod_Bend_Energy-OPLS-2005>
805.561950683594

> <r_mmod_Torsional_Energy-OPLS-2005>
248.657104492188

> <r_mmod_Improper_Torsional_Energy-OPLS-2005>
3.5965747833252

> <r_mmod_Van_der_Waal_Energy-OPLS-2005>
128.591049194336

> <r_mmod_Electrostatic_Energy-OPLS-2005>
-362.495544433594

> <r_mmod_Solvation_Energy-OPLS-2005>
-212.948043823242

> <b_mmod_Minimization_Converged-OPLS-2005>
0

> <r_mmod_RMS_Derivative-OPLS-2005>
0.0808933973312378

$$$$
5
                    3D
 Structure written by MMmdl.
170178  0  0  1  0            999 V2000
  -30.4742  -14.8258   20.0028 C   0  0  0  0  0  0
  -30.5756  -12.4236   19.2985 C   0  0  0  0  0  0
  -29.5084  -11.8576   18.3181 C   0  0  0  0  0  0
  -28.0801  -11.5536   18.9994 C   0  0  0  0  0  0
  -27.6836  -12.4040   20.2706 C   0  0  2  0  0  0
  -29.0013  -12.8478   21.0627 C   0  0  0  0  0  0
  -25.4734  -14.5196   20.3863 C   0  0  0  0  0  0
  -24.3008  -13.5888   20.7490 C   0  0  0  0  0  0
  -24.5075  -12.0881   20.7658 C   0  0  0  0  0  0
  -23.7963  -10.7281   21.0206 C   0  0  0  0  0  0
  -24.3047   -9.6926   21.8827 C   0  0  0  0  0  0
  -23.6531   -8.4288   22.0519 C   0  0  0  0  0  0
  -22.4602   -8.1391   21.3476 C   0  0  0  0  0  0
  -21.9869   -9.1218   20.4538 C   0  0  0  0  0  0
  -22.6371  -10.3722   20.2948 C   0  0  0  0  0  0
  -21.7351   -6.1244   22.5208 C   0  0  0  0  0  0
  -21.4397   -6.5999   23.8196 C   0  0  0  0  0  0
  -21.3770   -5.7027   24.9086 C   0  0  0  0  0  0
  -21.6017   -4.3284   24.7075 C   0  0  0  0  0  0
  -21.8760   -3.8455   23.4170 C   0  0  0  0  0  0
  -21.9331   -4.7374   22.3290 C   0  0  0  0  0  0
  -22.8752  -13.9099   21.1230 C   0  0  0  0  0  0
  -22.1714   -4.2516   21.0877 F   0  0  0  0  0  0
  -21.5526   -3.4682   25.7539 F   0  0  0  0  0  0
  -30.0046  -13.5074   20.1262 N   0  0  0  0  0  0
  -26.2152  -13.0411   20.3241 N   0  0  0  0  0  0
  -25.6749  -11.8514   20.4432 N   0  0  0  0  0  0
  -22.2204  -13.1106   21.9860 N   0  0  0  0  0  0
  -26.8628  -16.7771   21.0600 N   0  0  0  0  0  0
  -31.6928  -14.9111   20.2233 O   0  0  0  0  0  0
  -21.7480   -6.9511   21.4149 O   0  0  0  0  0  0
  -22.3002  -14.8472   20.6021 O   0  0  0  0  0  0
  -24.6731  -31.8157   23.1755 C   0  0  0  0  0  0
  -25.9426  -32.4511   23.8152 C   0  0  1  0  0  0
  -26.7808  -26.6678   20.2854 C   0  0  0  0  0  0
  -25.6075  -33.8346   24.2022 N   0  0  0  0  0  0
  -23.4711  -30.4607   21.5275 C   0  0  2  0  0  0
  -24.8556  -28.8531   20.0726 C   0  0  0  0  0  0
  -22.7646  -29.4462   22.4674 C   0  0  0  0  0  0
  -18.0334  -28.1433   22.8445 C   0  0  0  0  0  0
  -24.1503  -36.7181   23.2641 C   0  0  0  0  0  0
  -26.0505  -30.5313   21.4471 C   0  0  0  0  0  0
  -26.0330  -29.1153   20.7776 C   0  0  0  0  0  0
  -27.0189  -28.0252   20.8770 C   0  0  0  0  0  0
  -25.7173  -26.6696   19.3849 C   0  0  0  0  0  0
  -24.7455  -27.6757   19.3349 C   0  0  0  0  0  0
  -23.6939  -29.8340   20.1296 C   0  0  0  0  0  0
  -25.4156  -36.2935   24.0285 C   0  0  1  0  0  0
  -20.5959  -28.3794   23.1134 C   0  0  2  0  0  0
  -20.6812  -26.9452   22.5387 C   0  0  0  0  0  0
  -19.5776  -26.6374   21.5218 C   0  0  0  0  0  0
  -18.1961  -26.7964   22.1619 C   0  0  0  0  0  0
  -19.1593  -28.8940   23.2777 C   0  0  0  0  0  0
  -18.9490  -30.1525   23.8827 C   0  0  0  0  0  0
  -17.6473  -30.6602   24.0566 C   0  0  0  0  0  0
  -25.9145  -34.9312   23.4967 C   0  0  0  0  0  0
  -16.5370  -29.9081   23.6354 C   0  0  0  0  0  0
  -16.7311  -28.6516   23.0349 C   0  0  0  0  0  0
  -26.4587  -31.6542   25.0759 C   0  0  0  0  0  0
  -25.3631  -31.3887   26.1363 C   0  0  0  0  0  0
  -27.0501  -30.2863   24.6727 C   0  0  0  0  0  0
  -27.6059  -32.4392   25.7531 C   0  0  0  0  0  0
  -27.5581  -37.1751   24.8459 C   0  0  0  0  0  0
  -21.4325  -29.3054   22.3446 N   0  0  0  0  0  0
  -26.4285  -37.3680   23.9394 N   0  0  0  0  0  0
  -24.7579  -30.9721   22.0971 N   0  0  0  0  0  0
  -23.4204  -28.7980   23.2867 O   0  0  0  0  0  0
  -27.2979  -25.2752   20.5361 O   0  0  0  0  0  0
  -26.5731  -34.8861   22.4557 O   0  0  0  0  0  0
  -23.5813  -32.1251   23.6801 O   0  0  0  0  0  0
  -27.0499  -14.7754   21.9538 C   0  0  0  0  0  0
  -27.6803  -14.9832   19.9969 C   0  0  0  0  0  0
  -25.3715  -15.7164   22.3399 C   0  0  0  0  0  0
  -26.8514  -15.9704   18.9544 C   0  0  0  0  0  0
  -24.6440  -16.8354   20.9532 C   0  0  0  0  0  0
  -27.5307  -14.3900   18.3648 C   0  0  0  0  0  0
  -25.1838  -16.9012   24.5791 C   0  0  0  0  0  0
  -25.0701  -14.3666   24.4471 C   0  0  0  0  0  0
  -30.8482  -16.7743   18.5519 C   0  0  0  0  0  0
  -24.7774  -18.6672   21.2579 C   0  0  0  0  0  0
  -28.3971  -16.6488   18.7987 C   0  0  0  0  0  0
  -25.4959  -20.2754   20.4908 C   0  0  0  0  0  0
  -26.2007  -21.9910   20.9981 C   0  0  0  0  0  0
  -26.4491  -23.7632   20.3035 C   0  0  0  0  0  0
  -24.7610  -15.6929   23.7308 C   0  0  0  0  0  0
  -25.3415  -16.7084   19.3672 N   0  0  0  0  0  0
  -29.8391  -15.8925   19.1841 N   0  0  0  0  0  0
  -31.4315  -12.7860   18.7235 H   0  0  0  0  0  0
  -30.9826  -11.6300   19.9246 H   0  0  0  0  0  0
  -29.8824  -10.9028   17.9490 H   0  0  0  0  0  0
  -29.4420  -12.4389   17.4028 H   0  0  0  0  0  0
  -28.1402  -10.5303   19.3741 H   0  0  0  0  0  0
  -27.2939  -11.4965   18.2420 H   0  0  0  0  0  0
  -28.1020  -12.8395   19.5583 H   0  0  0  0  0  0
  -29.4340  -11.9115   21.4158 H   0  0  0  0  0  0
  -28.9980  -13.3694   22.0005 H   0  0  0  0  0  0
  -25.2119   -9.8875   22.4366 H   0  0  0  0  0  0
  -24.0816   -7.7007   22.7257 H   0  0  0  0  0  0
  -21.0974   -8.9211   19.8742 H   0  0  0  0  0  0
  -22.2231  -11.0895   19.6009 H   0  0  0  0  0  0
  -21.2597   -7.6521   23.9836 H   0  0  0  0  0  0
  -21.1562   -6.0729   25.9009 H   0  0  0  0  0  0
  -22.0370   -2.7906   23.2553 H   0  0  0  0  0  0
  -22.6786  -12.3271   22.4302 H   0  0  0  0  0  0
  -21.2552  -13.2964   22.2092 H   0  0  0  0  0  0
  -26.3538  -17.2439   20.2956 H   0  0  0  0  0  0
  -27.7664  -16.4595   20.7211 H   0  0  0  0  0  0
  -26.7448  -32.4849   23.0777 H   0  0  0  0  0  0
  -25.0167  -33.9417   25.0149 H   0  0  0  0  0  0
  -22.7910  -31.3046   21.3892 H   0  0  0  0  0  0
  -23.3788  -35.9478   23.3246 H   0  0  0  0  0  0
  -24.3597  -36.8897   22.2069 H   0  0  0  0  0  0
  -23.7234  -37.6341   23.6743 H   0  0  0  0  0  0
  -26.2932  -31.2544   20.6696 H   0  0  0  0  0  0
  -26.9034  -30.5440   22.1117 H   0  0  0  0  0  0
  -27.8638  -28.1584   21.5370 H   0  0  0  0  0  0
  -25.4982  -25.7762   18.8214 H   0  0  0  0  0  0
  -23.8607  -27.5089   18.7314 H   0  0  0  0  0  0
  -23.8994  -30.6238   19.4059 H   0  0  0  0  0  0
  -22.7807  -29.3451   19.7851 H   0  0  0  0  0  0
  -25.1344  -36.1721   25.0772 H   0  0  0  0  0  0
  -21.0062  -28.3457   24.1253 H   0  0  0  0  0  0
  -20.5753  -26.2393   23.3640 H   0  0  0  0  0  0
  -21.6662  -26.7438   22.1148 H   0  0  0  0  0  0
  -19.6926  -25.6265   21.1293 H   0  0  0  0  0  0
  -19.6746  -27.3150   20.6726 H   0  0  0  0  0  0
  -17.4223  -26.6710   21.4025 H   0  0  0  0  0  0
  -18.0350  -26.0144   22.9051 H   0  0  0  0  0  0
  -19.7969  -30.7369   24.2148 H   0  0  0  0  0  0
  -17.5029  -31.6281   24.5185 H   0  0  0  0  0  0
  -15.5371  -30.2950   23.7751 H   0  0  0  0  0  0
  -15.8713  -28.0835   22.7063 H   0  0  0  0  0  0
  -24.5841  -30.7222   25.7650 H   0  0  0  0  0  0
  -24.8793  -32.3115   26.4568 H   0  0  0  0  0  0
  -25.7778  -30.9181   27.0284 H   0  0  0  0  0  0
  -26.3206  -29.6426   24.1805 H   0  0  0  0  0  0
  -27.3935  -29.7403   25.5526 H   0  0  0  0  0  0
  -27.9203  -30.3967   24.0254 H   0  0  0  0  0  0
  -27.2654  -33.3780   26.1907 H   0  0  0  0  0  0
  -28.3942  -32.6815   25.0387 H   0  0  0  0  0  0
  -28.0634  -31.8652   26.5601 H   0  0  0  0  0  0
  -28.2535  -38.0101   24.7526 H   0  0  0  0  0  0
  -28.1139  -36.2628   24.6253 H   0  0  0  0  0  0
  -27.2297  -37.1334   25.8856 H   0  0  0  0  0  0
  -20.9564  -29.8772   21.6602 H   0  0  0  0  0  0
  -26.0131  -38.2728   24.1398 H   0  0  0  0  0  0
  -27.5120  -14.2600   22.7777 H   0  0  0  0  0  0
  -28.5035  -14.0391   18.0790 H   0  0  0  0  0  0
  -27.5624  -14.8851   17.3564 H   0  0  0  0  0  0
  -26.7467  -13.6636   18.1281 H   0  0  0  0  0  0
  -24.8499  -17.8313   24.1264 H   0  0  0  0  0  0
  -26.2658  -16.9644   24.6852 H   0  0  0  0  0  0
  -24.7436  -16.8586   25.5756 H   0  0  0  0  0  0
  -24.7507  -13.5039   23.8612 H   0  0  0  0  0  0
  -24.5611  -14.3156   25.4081 H   0  0  0  0  0  0
  -26.1334  -14.2498   24.6459 H   0  0  0  0  0  0
  -31.3282  -17.4052   19.2996 H   0  0  0  0  0  0
  -30.4536  -17.4522   17.7951 H   0  0  0  0  0  0
  -31.6186  -16.1955   18.0410 H   0  0  0  0  0  0
  -25.2762  -18.6775   22.2230 H   0  0  0  0  0  0
  -23.7529  -18.9350   21.5175 H   0  0  0  0  0  0
  -28.4080  -17.6288   19.2731 H   0  0  0  0  0  0
  -28.4332  -16.9042   17.7392 H   0  0  0  0  0  0
  -24.7221  -20.5419   19.7681 H   0  0  0  0  0  0
  -26.2846  -19.8849   19.8474 H   0  0  0  0  0  0
  -27.2200  -21.7241   21.2850 H   0  0  0  0  0  0
  -25.7276  -22.1882   21.9628 H   0  0  0  0  0  0
  -25.4103  -24.0913   20.2593 H   0  0  0  0  0  0
  -26.6934  -23.5625   19.2606 H   0  0  0  0  0  0
  -23.6809  -15.7565   23.5945 H   0  0  0  0  0  0
  1 25  1  0  0  0
  1 30  2  0  0  0
  1 87  1  0  0  0
  2  3  1  0  0  0
  2 25  1  0  0  0
  2 88  1  0  0  0
  2 89  1  0  0  0
  3  4  1  0  0  0
  3 90  1  0  0  0
  3 91  1  0  0  0
  4  5  1  0  0  0
  4 92  1  0  0  0
  4 93  1  0  0  0
  5  6  1  0  0  0
  5 26  1  0  0  0
  5 94  1  0  0  0
  6 25  1  0  0  0
  6 95  1  0  0  0
  6 96  1  0  0  0
  7  8  2  0  0  0
  7 26  1  0  0  0
  7 29  1  0  0  0
  8  9  1  0  0  0
  8 22  1  0  0  0
  9 10  1  0  0  0
  9 27  2  0  0  0
 10 11  2  0  0  0
 10 15  1  0  0  0
 11 12  1  0  0  0
 11 97  1  0  0  0
 12 13  2  0  0  0
 12 98  1  0  0  0
 13 14  1  0  0  0
 13 31  1  0  0  0
 14 15  2  0  0  0
 14 99  1  0  0  0
 15100  1  0  0  0
 16 17  2  0  0  0
 16 21  1  0  0  0
 16 31  1  0  0  0
 17 18  1  0  0  0
 17101  1  0  0  0
 18 19  2  0  0  0
 18102  1  0  0  0
 19 20  1  0  0  0
 19 24  1  0  0  0
 20 21  2  0  0  0
 20103  1  0  0  0
 21 23  1  0  0  0
 22 28  1  0  0  0
 22 32  2  0  0  0
 26 27  1  0  0  0
 28104  1  0  0  0
 28105  1  0  0  0
 29106  1  0  0  0
 29107  1  0  0  0
 33 34  1  0  0  0
 33 66  1  0  0  0
 33 70  2  0  0  0
 34 36  1  0  0  0
 34 59  1  0  0  0
 34108  1  0  0  0
 35 44  2  0  0  0
 35 45  1  0  0  0
 35 68  1  0  0  0
 36 56  1  0  0  0
 36109  1  0  0  0
 37 39  1  0  0  0
 37 47  1  0  0  0
 37 66  1  0  0  0
 37110  1  0  0  0
 38 43  2  0  0  0
 38 46  1  0  0  0
 38 47  1  0  0  0
 39 64  1  0  0  0
 39 67  2  0  0  0
 40 52  1  0  0  0
 40 53  2  0  0  0
 40 58  1  0  0  0
 41111  1  0  0  0
 41112  1  0  0  0
 41113  1  0  0  0
 41 48  1  0  0  0
 42 43  1  0  0  0
 42 66  1  0  0  0
 42114  1  0  0  0
 42115  1  0  0  0
 43 44  1  0  0  0
 44116  1  0  0  0
 45 46  2  0  0  0
 45117  1  0  0  0
 46118  1  0  0  0
 47119  1  0  0  0
 47120  1  0  0  0
 48 56  1  0  0  0
 48 65  1  0  0  0
 48121  1  0  0  0
 49 50  1  0  0  0
 49 53  1  0  0  0
 49 64  1  0  0  0
 49122  1  0  0  0
 50 51  1  0  0  0
 50123  1  0  0  0
 50124  1  0  0  0
 51 52  1  0  0  0
 51125  1  0  0  0
 51126  1  0  0  0
 52127  1  0  0  0
 52128  1  0  0  0
 53 54  1  0  0  0
 54 55  2  0  0  0
 54129  1  0  0  0
 55 57  1  0  0  0
 55130  1  0  0  0
 56 69  2  0  0  0
 57 58  2  0  0  0
 57131  1  0  0  0
 58132  1  0  0  0
 59 60  1  0  0  0
 59 61  1  0  0  0
 59 62  1  0  0  0
 60133  1  0  0  0
 60134  1  0  0  0
 60135  1  0  0  0
 61136  1  0  0  0
 61137  1  0  0  0
 61138  1  0  0  0
 62139  1  0  0  0
 62140  1  0  0  0
 62141  1  0  0  0
 63 65  1  0  0  0
 63142  1  0  0  0
 63143  1  0  0  0
 63144  1  0  0  0
 64145  1  0  0  0
 65146  1  0  0  0
 68 84  1  0  0  0
 71 72  2  0  0  0
 71 73  1  0  0  0
 71147  1  0  0  0
 72 74  1  0  0  0
 72 76  1  0  0  0
 73 75  2  0  0  0
 73 85  1  0  0  0
 74 81  1  0  0  0
 74 86  2  0  0  0
 75 80  1  0  0  0
 75 86  1  0  0  0
 76148  1  0  0  0
 76149  1  0  0  0
 76150  1  0  0  0
 77151  1  0  0  0
 77152  1  0  0  0
 77153  1  0  0  0
 77 85  1  0  0  0
 78 85  1  0  0  0
 78154  1  0  0  0
 78155  1  0  0  0
 78156  1  0  0  0
 79 87  1  0  0  0
 79157  1  0  0  0
 79158  1  0  0  0
 79159  1  0  0  0
 80 82  1  0  0  0
 80160  1  0  0  0
 80161  1  0  0  0
 81 87  1  0  0  0
 81162  1  0  0  0
 81163  1  0  0  0
 82 83  1  0  0  0
 82164  1  0  0  0
 82165  1  0  0  0
 83 84  1  0  0  0
 83166  1  0  0  0
 83167  1  0  0  0
 84168  1  0  0  0
 84169  1  0  0  0
 85170  1  0  0  0
M  ISO  4   1 100  68 101  84 101  87 100
M  END
> <chiral flag>
0

> <version>
0

> <s_m_source_file>
/data/baiqing/PycharmProjects/Reinvent-master-3.2/result/LINK_invent/BTK/process_docking_weight1_custom_sum_contain_oxygen_bond_distance_aromatic_linkinvent_7_9_3/rearranged_h_0096.sdf

> <i_m_source_file_index>
6

> <r_mmod_Potential_Energy-OPLS-2005>
14153.3447265625

> <r_mmod_Stretch_Energy-OPLS-2005>
7494.26953125

> <r_mmod_Bend_Energy-OPLS-2005>
1714.06799316406

> <r_mmod_Torsional_Energy-OPLS-2005>
645.703186035156

> <r_mmod_Improper_Torsional_Energy-OPLS-2005>
136.355087280273

> <r_mmod_Van_der_Waal_Energy-OPLS-2005>
3292.7080078125

> <r_mmod_Electrostatic_Energy-OPLS-2005>
-560.060180664062

> <r_mmod_Solvation_Energy-OPLS-2005>
-199.692733764648

> <b_mmod_Minimization_Converged-OPLS-2005>
0

> <r_mmod_RMS_Derivative-OPLS-2005>
10.6895895004272

$$$$
6
                    3D
 Structure written by MMmdl.
149156  0  0  1  0            999 V2000
  -30.3501  -15.5628   20.3421 C   0  0  0  0  0  0
  -30.4302  -13.0220   19.5460 C   0  0  0  0  0  0
  -29.5520  -12.6413   18.3209 C   0  0  0  0  0  0
  -28.1169  -12.3056   18.7523 C   0  0  0  0  0  0
  -27.6036  -13.3037   19.8175 C   0  0  2  0  0  0
  -28.6221  -13.6140   20.9387 C   0  0  0  0  0  0
  -25.2382  -13.8294   20.5784 C   0  0  0  0  0  0
  -24.1752  -13.0442   20.9282 C   0  0  0  0  0  0
  -24.6453  -11.6952   20.8748 C   0  0  0  0  0  0
  -23.9141  -10.4307   21.0390 C   0  0  0  0  0  0
  -24.3657   -9.4207   21.9177 C   0  0  0  0  0  0
  -23.6310   -8.2249   22.0738 C   0  0  0  0  0  0
  -22.4301   -8.0297   21.3522 C   0  0  0  0  0  0
  -21.9957   -9.0282   20.4629 C   0  0  0  0  0  0
  -22.7308  -10.2151   20.3044 C   0  0  0  0  0  0
  -21.6868   -6.0760   22.5273 C   0  0  0  0  0  0
  -21.4039   -6.5649   23.8216 C   0  0  0  0  0  0
  -21.3646   -5.6780   24.9164 C   0  0  0  0  0  0
  -21.6031   -4.3042   24.7204 C   0  0  0  0  0  0
  -21.8830   -3.8158   23.4320 C   0  0  0  0  0  0
  -21.9199   -4.6984   22.3385 C   0  0  0  0  0  0
  -22.7766  -13.5157   21.1890 C   0  0  0  0  0  0
  -22.1654   -4.2168   21.0956 F   0  0  0  0  0  0
  -21.5606   -3.4516   25.7710 F   0  0  0  0  0  0
  -29.8117  -14.2093   20.2887 N   0  0  0  0  0  0
  -26.2824  -12.9607   20.3259 N   0  0  0  0  0  0
  -25.9398  -11.6686   20.5723 N   0  0  0  0  0  0
  -22.0397  -12.8178   22.0449 N   0  0  0  0  0  0
  -25.3994  -15.2040   20.4211 N   0  0  0  0  0  0
  -31.5826  -15.5012   20.1816 O   0  0  0  0  0  0
  -21.6645   -6.8903   21.4239 O   0  0  0  0  0  0
  -22.3443  -14.5439   20.6693 O   0  0  0  0  0  0
  -24.6846  -31.8025   23.1499 C   0  0  0  0  0  0
  -25.9451  -32.4447   23.8045 C   0  0  1  0  0  0
  -27.2285  -26.7400   20.1959 C   0  0  0  0  0  0
  -25.6046  -33.8273   24.1960 N   0  0  0  0  0  0
  -23.5043  -30.4045   21.5070 C   0  0  2  0  0  0
  -24.9561  -28.7510   20.1118 C   0  0  0  0  0  0
  -22.7775  -29.4328   22.4744 C   0  0  0  0  0  0
  -18.0348  -28.1442   22.8448 C   0  0  0  0  0  0
  -24.1493  -36.7162   23.2644 C   0  0  0  0  0  0
  -26.0834  -30.5460   21.4050 C   0  0  0  0  0  0
  -26.1461  -29.1156   20.7516 C   0  0  0  0  0  0
  -27.2683  -28.1389   20.7586 C   0  0  0  0  0  0
  -26.0030  -26.5701   19.5021 C   0  0  0  0  0  0
  -24.9227  -27.5023   19.4646 C   0  0  0  0  0  0
  -23.7493  -29.7002   20.1422 C   0  0  0  0  0  0
  -25.4143  -36.2891   24.0276 C   0  0  1  0  0  0
  -20.5988  -28.3789   23.1152 C   0  0  2  0  0  0
  -20.6830  -26.9475   22.5371 C   0  0  0  0  0  0
  -19.5795  -26.6395   21.5187 C   0  0  0  0  0  0
  -18.1969  -26.7966   22.1587 C   0  0  0  0  0  0
  -19.1614  -28.8945   23.2775 C   0  0  0  0  0  0
  -18.9531  -30.1542   23.8815 C   0  0  0  0  0  0
  -17.6528  -30.6623   24.0586 C   0  0  0  0  0  0
  -25.9140  -34.9268   23.4942 C   0  0  0  0  0  0
  -16.5417  -29.9111   23.6394 C   0  0  0  0  0  0
  -16.7334  -28.6548   23.0371 C   0  0  0  0  0  0
  -26.4642  -31.6444   25.0637 C   0  0  0  0  0  0
  -25.3732  -31.3763   26.1268 C   0  0  0  0  0  0
  -27.0577  -30.2784   24.6487 C   0  0  0  0  0  0
  -27.6079  -32.4303   25.7477 C   0  0  0  0  0  0
  -27.5568  -37.1735   24.8471 C   0  0  0  0  0  0
  -21.4430  -29.3036   22.3502 N   0  0  0  0  0  0
  -26.4270  -37.3661   23.9407 N   0  0  0  0  0  0
  -24.7803  -30.9503   22.0727 N   0  0  0  0  0  0
  -23.4245  -28.7940   23.3076 O   0  0  0  0  0  0
  -28.2166  -25.5553   20.2713 O   0  0  0  0  0  0
  -26.5773  -34.8847   22.4560 O   0  0  0  0  0  0
  -23.5875  -32.1108   23.6478 O   0  0  0  0  0  0
  -30.2172  -22.4126   19.3161 C   0  0  0  0  0  0
  -29.6818  -22.4111   21.7321 C   0  0  0  0  0  0
  -29.8460  -18.6749   20.3679 C   0  0  0  0  0  0
  -28.0521  -23.8250   20.1356 C   0  0  0  0  0  0
  -28.8202  -20.2997   20.2754 C   0  0  2  0  0  0
  -29.0818  -22.2099   20.3336 C   0  0  0  0  0  0
  -29.6079  -16.9219   20.3833 N   0  0  0  0  0  0
  -27.9258  -20.1112   21.2468 F   0  0  0  0  0  0
  -31.4373  -13.2593   19.1982 H   0  0  0  0  0  0
  -30.5519  -12.1604   20.2070 H   0  0  0  0  0  0
  -29.9874  -11.8038   17.7752 H   0  0  0  0  0  0
  -29.5251  -13.4811   17.6242 H   0  0  0  0  0  0
  -28.1133  -11.2941   19.1615 H   0  0  0  0  0  0
  -27.4493  -12.2846   17.8901 H   0  0  0  0  0  0
  -27.4745  -14.2351   19.2653 H   0  0  0  0  0  0
  -28.8624  -12.7285   21.5282 H   0  0  0  0  0  0
  -28.2022  -14.3401   21.6370 H   0  0  0  0  0  0
  -25.2777   -9.5671   22.4781 H   0  0  0  0  0  0
  -23.9993   -7.4641   22.7472 H   0  0  0  0  0  0
  -21.0878   -8.8833   19.8941 H   0  0  0  0  0  0
  -22.3765  -10.9700   19.6164 H   0  0  0  0  0  0
  -21.2067   -7.6161   23.9733 H   0  0  0  0  0  0
  -21.1440   -6.0497   25.9065 H   0  0  0  0  0  0
  -22.0635   -2.7624   23.2807 H   0  0  0  0  0  0
  -22.4002  -11.9845   22.4866 H   0  0  0  0  0  0
  -21.1013  -13.1217   22.2601 H   0  0  0  0  0  0
  -24.6345  -15.8567   20.5560 H   0  0  0  0  0  0
  -26.2378  -15.6449   20.0648 H   0  0  0  0  0  0
  -26.7522  -32.4923   23.0754 H   0  0  0  0  0  0
  -25.0107  -33.9302   25.0051 H   0  0  0  0  0  0
  -22.8237  -31.2379   21.3181 H   0  0  0  0  0  0
  -23.3749  -35.9499   23.3259 H   0  0  0  0  0  0
  -24.3555  -36.8872   22.2069 H   0  0  0  0  0  0
  -23.7243  -37.6323   23.6752 H   0  0  0  0  0  0
  -26.2784  -31.2718   20.6155 H   0  0  0  0  0  0
  -26.9393  -30.6116   22.0643 H   0  0  0  0  0  0
  -28.1690  -28.4269   21.2818 H   0  0  0  0  0  0
  -25.8380  -25.6234   19.0057 H   0  0  0  0  0  0
  -24.0226  -27.2088   18.9433 H   0  0  0  0  0  0
  -23.9186  -30.4624   19.3819 H   0  0  0  0  0  0
  -22.8526  -29.1664   19.8209 H   0  0  0  0  0  0
  -25.1342  -36.1655   25.0765 H   0  0  0  0  0  0
  -21.0066  -28.3424   24.1275 H   0  0  0  0  0  0
  -20.5700  -26.2416   23.3608 H   0  0  0  0  0  0
  -21.6716  -26.7431   22.1243 H   0  0  0  0  0  0
  -19.6983  -25.6309   21.1211 H   0  0  0  0  0  0
  -19.6654  -27.3208   20.6707 H   0  0  0  0  0  0
  -17.4230  -26.6751   21.3987 H   0  0  0  0  0  0
  -18.0332  -26.0104   22.8993 H   0  0  0  0  0  0
  -19.8002  -30.7408   24.2111 H   0  0  0  0  0  0
  -17.5076  -31.6282   24.5222 H   0  0  0  0  0  0
  -15.5421  -30.3011   23.7738 H   0  0  0  0  0  0
  -15.8737  -28.0859   22.7100 H   0  0  0  0  0  0
  -24.5933  -30.7071   25.7620 H   0  0  0  0  0  0
  -24.8901  -32.2980   26.4509 H   0  0  0  0  0  0
  -25.7947  -30.9073   27.0169 H   0  0  0  0  0  0
  -26.3311  -29.6391   24.1464 H   0  0  0  0  0  0
  -27.4031  -29.7194   25.5201 H   0  0  0  0  0  0
  -27.9262  -30.3906   23.9995 H   0  0  0  0  0  0
  -27.2604  -33.3675   26.1840 H   0  0  0  0  0  0
  -28.4029  -32.6753   25.0421 H   0  0  0  0  0  0
  -28.0597  -31.8568   26.5585 H   0  0  0  0  0  0
  -28.2559  -38.0062   24.7522 H   0  0  0  0  0  0
  -28.1092  -36.2575   24.6291 H   0  0  0  0  0  0
  -27.2286  -37.1370   25.8879 H   0  0  0  0  0  0
  -20.9747  -29.8723   21.6602 H   0  0  0  0  0  0
  -26.0089  -38.2707   24.1410 H   0  0  0  0  0  0
  -30.6870  -23.3905   19.4319 H   0  0  0  0  0  0
  -29.8447  -22.3430   18.2952 H   0  0  0  0  0  0
  -30.9982  -21.6581   19.4312 H   0  0  0  0  0  0
  -30.1202  -23.4036   21.8472 H   0  0  0  0  0  0
  -30.4629  -21.6769   21.9375 H   0  0  0  0  0  0
  -28.9121  -22.3018   22.4939 H   0  0  0  0  0  0
  -30.4303  -18.8191   21.2773 H   0  0  0  0  0  0
  -30.5880  -18.7984   19.5765 H   0  0  0  0  0  0
  -27.1770  -23.6369   20.7576 H   0  0  0  0  0  0
  -27.6621  -23.7349   19.1213 H   0  0  0  0  0  0
  -28.2449  -20.1654   19.3582 H   0  0  0  0  0  0
  -28.6199  -16.7276   20.4579 H   0  0  0  0  0  0
  1 25  1  0  0  0
  1 30  2  0  0  0
  1 77  1  0  0  0
  2  3  1  0  0  0
  2 25  1  0  0  0
  2 79  1  0  0  0
  2 80  1  0  0  0
  3  4  1  0  0  0
  3 81  1  0  0  0
  3 82  1  0  0  0
  4  5  1  0  0  0
  4 83  1  0  0  0
  4 84  1  0  0  0
  5  6  1  0  0  0
  5 26  1  0  0  0
  5 85  1  0  0  0
  6 25  1  0  0  0
  6 86  1  0  0  0
  6 87  1  0  0  0
  7  8  2  0  0  0
  7 26  1  0  0  0
  7 29  1  0  0  0
  8  9  1  0  0  0
  8 22  1  0  0  0
  9 10  1  0  0  0
  9 27  2  0  0  0
 10 11  2  0  0  0
 10 15  1  0  0  0
 11 12  1  0  0  0
 11 88  1  0  0  0
 12 13  2  0  0  0
 12 89  1  0  0  0
 13 14  1  0  0  0
 13 31  1  0  0  0
 14 15  2  0  0  0
 14 90  1  0  0  0
 15 91  1  0  0  0
 16 17  2  0  0  0
 16 21  1  0  0  0
 16 31  1  0  0  0
 17 18  1  0  0  0
 17 92  1  0  0  0
 18 19  2  0  0  0
 18 93  1  0  0  0
 19 20  1  0  0  0
 19 24  1  0  0  0
 20 21  2  0  0  0
 20 94  1  0  0  0
 21 23  1  0  0  0
 22 28  1  0  0  0
 22 32  2  0  0  0
 26 27  1  0  0  0
 28 95  1  0  0  0
 28 96  1  0  0  0
 29 97  1  0  0  0
 29 98  1  0  0  0
 33 34  1  0  0  0
 33 66  1  0  0  0
 33 70  2  0  0  0
 34 36  1  0  0  0
 34 59  1  0  0  0
 34 99  1  0  0  0
 35 44  2  0  0  0
 35 45  1  0  0  0
 35 68  1  0  0  0
 36 56  1  0  0  0
 36100  1  0  0  0
 37 39  1  0  0  0
 37 47  1  0  0  0
 37 66  1  0  0  0
 37101  1  0  0  0
 38 43  2  0  0  0
 38 46  1  0  0  0
 38 47  1  0  0  0
 39 64  1  0  0  0
 39 67  2  0  0  0
 40 52  1  0  0  0
 40 53  2  0  0  0
 40 58  1  0  0  0
 41102  1  0  0  0
 41103  1  0  0  0
 41104  1  0  0  0
 41 48  1  0  0  0
 42 43  1  0  0  0
 42 66  1  0  0  0
 42105  1  0  0  0
 42106  1  0  0  0
 43 44  1  0  0  0
 44107  1  0  0  0
 45 46  2  0  0  0
 45108  1  0  0  0
 46109  1  0  0  0
 47110  1  0  0  0
 47111  1  0  0  0
 48 56  1  0  0  0
 48 65  1  0  0  0
 48112  1  0  0  0
 49 50  1  0  0  0
 49 53  1  0  0  0
 49 64  1  0  0  0
 49113  1  0  0  0
 50 51  1  0  0  0
 50114  1  0  0  0
 50115  1  0  0  0
 51 52  1  0  0  0
 51116  1  0  0  0
 51117  1  0  0  0
 52118  1  0  0  0
 52119  1  0  0  0
 53 54  1  0  0  0
 54 55  2  0  0  0
 54120  1  0  0  0
 55 57  1  0  0  0
 55121  1  0  0  0
 56 69  2  0  0  0
 57 58  2  0  0  0
 57122  1  0  0  0
 58123  1  0  0  0
 59 60  1  0  0  0
 59 61  1  0  0  0
 59 62  1  0  0  0
 60124  1  0  0  0
 60125  1  0  0  0
 60126  1  0  0  0
 61127  1  0  0  0
 61128  1  0  0  0
 61129  1  0  0  0
 62130  1  0  0  0
 62131  1  0  0  0
 62132  1  0  0  0
 63 65  1  0  0  0
 63133  1  0  0  0
 63134  1  0  0  0
 63135  1  0  0  0
 64136  1  0  0  0
 65137  1  0  0  0
 68 74  1  0  0  0
 71138  1  0  0  0
 71139  1  0  0  0
 71140  1  0  0  0
 71 76  1  0  0  0
 72 76  1  0  0  0
 72141  1  0  0  0
 72142  1  0  0  0
 72143  1  0  0  0
 73 75  1  0  0  0
 73 77  1  0  0  0
 73144  1  0  0  0
 73145  1  0  0  0
 74 76  1  0  0  0
 74146  1  0  0  0
 74147  1  0  0  0
 75 76  1  0  0  0
 75 78  1  0  0  0
 75148  1  0  0  0
 77149  1  0  0  0
M  ISO  4   1 100  68 101  74 101  77 100
M  END
> <chiral flag>
0

> <version>
0

> <s_m_source_file>
/data/baiqing/PycharmProjects/Reinvent-master-3.2/result/LINK_invent/BTK/process_docking_weight1_custom_sum_contain_oxygen_bond_distance_aromatic_linkinvent_7_9_3/rearranged_h_0096.sdf

> <i_m_source_file_index>
7

> <r_mmod_Potential_Energy-OPLS-2005>
2264.48486328125

> <r_mmod_Stretch_Energy-OPLS-2005>
1103.04370117188

> <r_mmod_Bend_Energy-OPLS-2005>
610.950134277344

> <r_mmod_Torsional_Energy-OPLS-2005>
224.802429199219

> <r_mmod_Improper_Torsional_Energy-OPLS-2005>
3.70250153541565

> <r_mmod_Van_der_Waal_Energy-OPLS-2005>
106.818580627441

> <r_mmod_Electrostatic_Energy-OPLS-2005>
-372.874298095703

> <r_mmod_Solvation_Energy-OPLS-2005>
-212.012222290039

> <b_mmod_Minimization_Converged-OPLS-2005>
0

> <r_mmod_RMS_Derivative-OPLS-2005>
3.82858633995056

$$$$
7
                    3D
 Structure written by MMmdl.
175183  0  0  1  0            999 V2000
  -30.7801  -13.1306   20.4765 C   0  0  0  0  0  0
  -30.3611  -13.0575   18.1780 C   0  0  0  0  0  0
  -29.7819  -14.9467   18.2490 C   0  0  0  0  0  0
  -28.4064  -15.4174   19.9315 C   0  0  0  0  0  0
  -27.5783  -13.7434   20.9602 C   0  0  2  0  0  0
  -28.4708  -12.1262   20.7937 C   0  0  0  0  0  0
  -25.1139  -13.9123   20.7725 C   0  0  0  0  0  0
  -24.0501  -13.0938   20.9173 C   0  0  0  0  0  0
  -24.5587  -11.7673   20.8297 C   0  0  0  0  0  0
  -23.8740  -10.4746   20.9520 C   0  0  0  0  0  0
  -24.3326   -9.5157   21.8805 C   0  0  0  0  0  0
  -23.6353   -8.3010   22.0563 C   0  0  0  0  0  0
  -22.4573   -8.0493   21.3099 C   0  0  0  0  0  0
  -22.0015   -9.0222   20.4091 C   0  0  0  0  0  0
  -22.6834  -10.2262   20.2228 C   0  0  0  0  0  0
  -21.7198   -6.0764   22.4837 C   0  0  0  0  0  0
  -21.4322   -6.5756   23.7674 C   0  0  0  0  0  0
  -21.3663   -5.6960   24.8652 C   0  0  0  0  0  0
  -21.6052   -4.3177   24.6832 C   0  0  0  0  0  0
  -21.9170   -3.8239   23.4027 C   0  0  0  0  0  0
  -21.9535   -4.6978   22.3054 C   0  0  0  0  0  0
  -22.6623  -13.5193   21.2350 C   0  0  0  0  0  0
  -22.2004   -4.1980   21.0681 F   0  0  0  0  0  0
  -21.5542   -3.4857   25.7465 F   0  0  0  0  0  0
  -29.9324  -12.4147   19.7655 N   0  0  0  0  0  0
  -26.2160  -13.1807   20.7191 N   0  0  0  0  0  0
  -25.8766  -11.8487   20.7138 N   0  0  0  0  0  0
  -21.9744  -12.7613   22.0819 N   0  0  0  0  0  0
  -25.3783  -15.2304   20.8196 N   0  0  0  0  0  0
  -31.7288  -13.9241   20.2904 O   0  0  0  0  0  0
  -21.7312   -6.8836   21.3695 O   0  0  0  0  0  0
  -22.2239  -14.5683   20.7566 O   0  0  0  0  0  0
  -24.6547  -31.8404   23.2087 C   0  0  0  0  0  0
  -25.9223  -32.4783   23.8468 C   0  0  1  0  0  0
  -27.0374  -26.9929   19.9934 C   0  0  0  0  0  0
  -25.5948  -33.8650   24.2346 N   0  0  0  0  0  0
  -23.4449  -30.4805   21.5728 C   0  0  2  0  0  0
  -24.8445  -28.9434   20.0786 C   0  0  0  0  0  0
  -22.7605  -29.4413   22.4963 C   0  0  0  0  0  0
  -18.0271  -28.1417   22.8444 C   0  0  0  0  0  0
  -24.1432  -36.7288   23.2641 C   0  0  0  0  0  0
  -26.0182  -30.6444   21.4212 C   0  0  0  0  0  0
  -26.0428  -29.2584   20.7307 C   0  0  0  0  0  0
  -27.1561  -28.3020   20.6753 C   0  0  0  0  0  0
  -25.8456  -26.8663   19.2648 C   0  0  0  0  0  0
  -24.7856  -27.7873   19.3067 C   0  0  0  0  0  0
  -23.6518  -29.8727   20.1732 C   0  0  0  0  0  0
  -25.4079  -36.3205   24.0377 C   0  0  1  0  0  0
  -20.5892  -28.3667   23.1278 C   0  0  2  0  0  0
  -20.6770  -26.9387   22.5365 C   0  0  0  0  0  0
  -19.5711  -26.6375   21.5200 C   0  0  0  0  0  0
  -18.1924  -26.7941   22.1616 C   0  0  0  0  0  0
  -19.1549  -28.8851   23.2848 C   0  0  0  0  0  0
  -18.9452  -30.1484   23.8829 C   0  0  0  0  0  0
  -17.6444  -30.6617   24.0549 C   0  0  0  0  0  0
  -25.9075  -34.9552   23.5211 C   0  0  0  0  0  0
  -16.5331  -29.9095   23.6369 C   0  0  0  0  0  0
  -16.7244  -28.6521   23.0365 C   0  0  0  0  0  0
  -26.4507  -31.6705   25.0958 C   0  0  0  0  0  0
  -25.3647  -31.3825   26.1632 C   0  0  0  0  0  0
  -27.0361  -30.3109   24.6550 C   0  0  0  0  0  0
  -27.6101  -32.4464   25.7689 C   0  0  0  0  0  0
  -27.5597  -37.1825   24.8477 C   0  0  0  0  0  0
  -21.4255  -29.3077   22.3749 N   0  0  0  0  0  0
  -26.4273  -37.3872   23.9500 N   0  0  0  0  0  0
  -24.7327  -31.0107   22.1208 N   0  0  0  0  0  0
  -23.4258  -28.7980   23.3167 O   0  0  0  0  0  0
  -27.9240  -25.8240   19.9222 O   0  0  0  0  0  0
  -26.5621  -34.8943   22.4784 O   0  0  0  0  0  0
  -23.5664  -32.1403   23.7214 O   0  0  0  0  0  0
  -27.3027  -18.2134   18.3360 C   0  0  0  0  0  0
  -26.9117  -19.6376   18.7720 C   0  0  0  0  0  0
  -26.4735  -17.0457   18.6241 C   0  0  0  0  0  0
  -25.7644  -19.2923   19.4529 C   0  0  0  0  0  0
  -23.9488  -21.1584   19.3500 C   0  0  0  0  0  0
  -25.6934  -21.2332   21.1990 C   0  0  0  0  0  0
  -22.6905  -18.2311   19.6338 C   0  0  0  0  0  0
  -24.1281  -17.5398   21.5996 C   0  0  0  0  0  0
  -27.3635  -21.3144   18.4823 C   0  0  0  0  0  0
  -28.0068  -22.7019   19.4149 C   0  0  0  0  0  0
  -27.9756  -13.5619   18.6447 C   0  0  0  0  0  0
  -27.3602  -24.3172   19.6731 C   0  0  0  0  0  0
  -24.9447  -20.3485   20.1974 C   0  0  0  0  0  0
  -26.7228  -15.1880   18.1904 C   0  0  2  0  0  0
  -24.0597  -17.5204   19.9966 C   0  0  0  0  0  0
  -25.3926  -17.8811   19.3206 N   0  0  0  0  0  0
  -29.7424  -13.7013   20.1184 N   0  0  0  0  0  0
  -26.6976  -15.3348   16.7475 N   0  3  0  0  0  0
  -31.4345  -12.9491   17.9699 H   0  0  0  0  0  0
  -29.9020  -12.4075   17.4065 H   0  0  0  0  0  0
  -29.4708  -15.2958   17.2530 H   0  0  0  0  0  0
  -30.6829  -15.5327   18.4332 H   0  0  0  0  0  0
  -27.9972  -16.4050   20.1013 H   0  0  0  0  0  0
  -29.1364  -15.8073   20.6525 H   0  0  0  0  0  0
  -27.5647  -14.0049   22.0117 H   0  0  0  0  0  0
  -28.0409  -11.2608   20.3037 H   0  0  0  0  0  0
  -28.7455  -11.8506   21.8169 H   0  0  0  0  0  0
  -25.2026   -9.7468   22.4651 H   0  0  0  0  0  0
  -24.0391   -7.5782   22.7522 H   0  0  0  0  0  0
  -21.1048   -8.8395   19.8116 H   0  0  0  0  0  0
  -22.2792  -10.9700   19.5459 H   0  0  0  0  0  0
  -21.2526   -7.6354   23.8758 H   0  0  0  0  0  0
  -21.0968   -6.0930   25.8330 H   0  0  0  0  0  0
  -22.0978   -2.7666   23.2665 H   0  0  0  0  0  0
  -22.3247  -11.8934   22.4546 H   0  0  0  0  0  0
  -21.0404  -13.0392   22.3616 H   0  0  0  0  0  0
  -24.7011  -15.9661   20.9697 H   0  0  0  0  0  0
  -26.3025  -15.6109   20.9347 H   0  0  0  0  0  0
  -26.7263  -32.5263   23.1153 H   0  0  0  0  0  0
  -25.0180  -33.9779   25.0566 H   0  0  0  0  0  0
  -22.7437  -31.3168   21.4670 H   0  0  0  0  0  0
  -23.3814  -35.9501   23.3302 H   0  0  0  0  0  0
  -24.3512  -36.8907   22.2058 H   0  0  0  0  0  0
  -23.6992  -37.6417   23.6623 H   0  0  0  0  0  0
  -26.1798  -31.4004   20.6493 H   0  0  0  0  0  0
  -26.8932  -30.6949   22.0627 H   0  0  0  0  0  0
  -28.0644  -28.5392   21.2206 H   0  0  0  0  0  0
  -25.6778  -26.0624   18.5804 H   0  0  0  0  0  0
  -23.9175  -27.6253   18.6842 H   0  0  0  0  0  0
  -23.7787  -30.6820   19.4565 H   0  0  0  0  0  0
  -22.7489  -29.3562   19.8526 H   0  0  0  0  0  0
  -25.1227  -36.2162   25.0859 H   0  0  0  0  0  0
  -20.9877  -28.3273   24.1455 H   0  0  0  0  0  0
  -20.5773  -26.2288   23.3617 H   0  0  0  0  0  0
  -21.6662  -26.7547   22.1152 H   0  0  0  0  0  0
  -19.6961  -25.6301   21.1297 H   0  0  0  0  0  0
  -19.6734  -27.3160   20.6739 H   0  0  0  0  0  0
  -17.4237  -26.6648   21.4032 H   0  0  0  0  0  0
  -18.0343  -26.0112   22.9025 H   0  0  0  0  0  0
  -19.7926  -30.7311   24.2226 H   0  0  0  0  0  0
  -17.5003  -31.6302   24.5145 H   0  0  0  0  0  0
  -15.5341  -30.2990   23.7726 H   0  0  0  0  0  0
  -15.8628  -28.0828   22.7137 H   0  0  0  0  0  0
  -24.5829  -30.7173   25.7897 H   0  0  0  0  0  0
  -24.8767  -32.2947   26.5107 H   0  0  0  0  0  0
  -25.7891  -30.8949   27.0424 H   0  0  0  0  0  0
  -26.2943  -29.6868   24.1509 H   0  0  0  0  0  0
  -27.3890  -29.7418   25.5172 H   0  0  0  0  0  0
  -27.8942  -30.4404   23.9934 H   0  0  0  0  0  0
  -27.2766  -33.3781   26.2263 H   0  0  0  0  0  0
  -28.3852  -32.6992   25.0452 H   0  0  0  0  0  0
  -28.0810  -31.8588   26.5572 H   0  0  0  0  0  0
  -28.2631  -38.0103   24.7693 H   0  0  0  0  0  0
  -28.1072  -36.2720   24.6140 H   0  0  0  0  0  0
  -27.2351  -37.1288   25.8851 H   0  0  0  0  0  0
  -20.9520  -29.8803   21.6900 H   0  0  0  0  0  0
  -26.0238  -38.2980   24.1510 H   0  0  0  0  0  0
  -28.2177  -18.0293   17.7874 H   0  0  0  0  0  0
  -23.4020  -20.5110   18.6757 H   0  0  0  0  0  0
  -24.4107  -21.9445   18.7734 H   0  0  0  0  0  0
  -23.2058  -21.6390   19.9834 H   0  0  0  0  0  0
  -26.3028  -20.7065   21.9281 H   0  0  0  0  0  0
  -25.0266  -21.8689   21.7517 H   0  0  0  0  0  0
  -26.2904  -21.9466   20.7139 H   0  0  0  0  0  0
  -22.4832  -19.1035   20.2566 H   0  0  0  0  0  0
  -21.8373  -17.6073   19.9265 H   0  0  0  0  0  0
  -22.5244  -18.4760   18.5765 H   0  0  0  0  0  0
  -23.3709  -16.9181   22.0736 H   0  0  0  0  0  0
  -23.9607  -18.4881   22.0872 H   0  0  0  0  0  0
  -25.1114  -17.2730   21.9878 H   0  0  0  0  0  0
  -26.3979  -21.6772   18.1522 H   0  0  0  0  0  0
  -27.8693  -21.3695   17.5050 H   0  0  0  0  0  0
  -29.0504  -22.8422   19.1414 H   0  0  0  0  0  0
  -28.1823  -22.3319   20.4291 H   0  0  0  0  0  0
  -28.1715  -13.3104   17.6081 H   0  0  0  0  0  0
  -27.3839  -12.6521   18.6816 H   0  0  0  0  0  0
  -26.8703  -24.1971   20.6486 H   0  0  0  0  0  0
  -26.5224  -24.3403   18.9945 H   0  0  0  0  0  0
  -24.3005  -19.8842   20.8834 H   0  0  0  0  0  0
  -25.7223  -14.7849   18.3468 H   0  0  0  0  0  0
  -23.7941  -16.5434   19.6260 H   0  0  0  0  0  0
  -29.9594  -14.6647   20.2141 H   0  0  0  0  0  0
  -27.6025  -15.6495   16.4373 H   0  0  0  0  0  0
  -26.0315  -16.0316   16.5028 H   0  0  0  0  0  0
  -26.4629  -14.4808   16.2787 H   0  0  0  0  0  0
  1 25  1  0  0  0
  1 30  2  0  0  0
  1 87  1  0  0  0
  2  3  1  0  0  0
  2 25  1  0  0  0
  2 89  1  0  0  0
  2 90  1  0  0  0
  3  4  1  0  0  0
  3 91  1  0  0  0
  3 92  1  0  0  0
  4  5  1  0  0  0
  4 93  1  0  0  0
  4 94  1  0  0  0
  5  6  1  0  0  0
  5 26  1  0  0  0
  5 95  1  0  0  0
  6 25  1  0  0  0
  6 96  1  0  0  0
  6 97  1  0  0  0
  7  8  2  0  0  0
  7 26  1  0  0  0
  7 29  1  0  0  0
  8  9  1  0  0  0
  8 22  1  0  0  0
  9 10  1  0  0  0
  9 27  2  0  0  0
 10 11  2  0  0  0
 10 15  1  0  0  0
 11 12  1  0  0  0
 11 98  1  0  0  0
 12 13  2  0  0  0
 12 99  1  0  0  0
 13 14  1  0  0  0
 13 31  1  0  0  0
 14 15  2  0  0  0
 14100  1  0  0  0
 15101  1  0  0  0
 16 17  2  0  0  0
 16 21  1  0  0  0
 16 31  1  0  0  0
 17 18  1  0  0  0
 17102  1  0  0  0
 18 19  2  0  0  0
 18103  1  0  0  0
 19 20  1  0  0  0
 19 24  1  0  0  0
 20 21  2  0  0  0
 20104  1  0  0  0
 21 23  1  0  0  0
 22 28  1  0  0  0
 22 32  2  0  0  0
 26 27  1  0  0  0
 28105  1  0  0  0
 28106  1  0  0  0
 29107  1  0  0  0
 29108  1  0  0  0
 33 34  1  0  0  0
 33 66  1  0  0  0
 33 70  2  0  0  0
 34 36  1  0  0  0
 34 59  1  0  0  0
 34109  1  0  0  0
 35 44  2  0  0  0
 35 45  1  0  0  0
 35 68  1  0  0  0
 36 56  1  0  0  0
 36110  1  0  0  0
 37 39  1  0  0  0
 37 47  1  0  0  0
 37 66  1  0  0  0
 37111  1  0  0  0
 38 43  2  0  0  0
 38 46  1  0  0  0
 38 47  1  0  0  0
 39 64  1  0  0  0
 39 67  2  0  0  0
 40 52  1  0  0  0
 40 53  2  0  0  0
 40 58  1  0  0  0
 41112  1  0  0  0
 41113  1  0  0  0
 41114  1  0  0  0
 41 48  1  0  0  0
 42 43  1  0  0  0
 42 66  1  0  0  0
 42115  1  0  0  0
 42116  1  0  0  0
 43 44  1  0  0  0
 44117  1  0  0  0
 45 46  2  0  0  0
 45118  1  0  0  0
 46119  1  0  0  0
 47120  1  0  0  0
 47121  1  0  0  0
 48 56  1  0  0  0
 48 65  1  0  0  0
 48122  1  0  0  0
 49 50  1  0  0  0
 49 53  1  0  0  0
 49 64  1  0  0  0
 49123  1  0  0  0
 50 51  1  0  0  0
 50124  1  0  0  0
 50125  1  0  0  0
 51 52  1  0  0  0
 51126  1  0  0  0
 51127  1  0  0  0
 52128  1  0  0  0
 52129  1  0  0  0
 53 54  1  0  0  0
 54 55  2  0  0  0
 54130  1  0  0  0
 55 57  1  0  0  0
 55131  1  0  0  0
 56 69  2  0  0  0
 57 58  2  0  0  0
 57132  1  0  0  0
 58133  1  0  0  0
 59 60  1  0  0  0
 59 61  1  0  0  0
 59 62  1  0  0  0
 60134  1  0  0  0
 60135  1  0  0  0
 60136  1  0  0  0
 61137  1  0  0  0
 61138  1  0  0  0
 61139  1  0  0  0
 62140  1  0  0  0
 62141  1  0  0  0
 62142  1  0  0  0
 63 65  1  0  0  0
 63143  1  0  0  0
 63144  1  0  0  0
 63145  1  0  0  0
 64146  1  0  0  0
 65147  1  0  0  0
 68 82  1  0  0  0
 71 72  1  0  0  0
 71 73  2  0  0  0
 71148  1  0  0  0
 72 74  2  0  0  0
 72 79  1  0  0  0
 73 84  1  0  0  0
 73 86  1  0  0  0
 74 83  1  0  0  0
 74 86  1  0  0  0
 75149  1  0  0  0
 75150  1  0  0  0
 75151  1  0  0  0
 75 83  1  0  0  0
 76 83  1  0  0  0
 76152  1  0  0  0
 76153  1  0  0  0
 76154  1  0  0  0
 77155  1  0  0  0
 77156  1  0  0  0
 77157  1  0  0  0
 77 85  1  0  0  0
 78 85  1  0  0  0
 78158  1  0  0  0
 78159  1  0  0  0
 78160  1  0  0  0
 79 80  1  0  0  0
 79161  1  0  0  0
 79162  1  0  0  0
 80 82  1  0  0  0
 80163  1  0  0  0
 80164  1  0  0  0
 81 84  1  0  0  0
 81 87  1  0  0  0
 81165  1  0  0  0
 81166  1  0  0  0
 82167  1  0  0  0
 82168  1  0  0  0
 83169  1  0  0  0
 84 88  1  0  0  0
 84170  1  0  0  0
 85 86  1  0  0  0
 85171  1  0  0  0
 87172  1  0  0  0
 88173  1  0  0  0
 88174  1  0  0  0
 88175  1  0  0  0
M  CHG  1  88   1
M  ISO  4   1 100  68 101  82 101  87 100
M  END
> <chiral flag>
0

> <version>
0

> <s_m_source_file>
/data/baiqing/PycharmProjects/Reinvent-master-3.2/result/LINK_invent/BTK/process_docking_weight1_custom_sum_contain_oxygen_bond_distance_aromatic_linkinvent_7_9_3/rearranged_h_0096.sdf

> <i_m_source_file_index>
8

> <r_mmod_Potential_Energy-OPLS-2005>
9211.2236328125

> <r_mmod_Stretch_Energy-OPLS-2005>
3776.59448242188

> <r_mmod_Bend_Energy-OPLS-2005>
1211.71105957031

> <r_mmod_Torsional_Energy-OPLS-2005>
427.007965087891

> <r_mmod_Improper_Torsional_Energy-OPLS-2005>
53.9176216125488

> <r_mmod_Van_der_Waal_Energy-OPLS-2005>
2021.59692382812

> <r_mmod_Electrostatic_Energy-OPLS-2005>
-545.639038085938

> <r_mmod_Solvation_Energy-OPLS-2005>
-460.812896728516

> <b_mmod_Minimization_Converged-OPLS-2005>
0

> <r_mmod_RMS_Derivative-OPLS-2005>
43.1339340209961

$$$$
8
                    3D
 Structure written by MMmdl.
168176  0  0  1  0            999 V2000
  -30.6125  -14.6363   20.5267 C   0  0  0  0  0  0
  -30.4434  -12.4030   19.4305 C   0  0  0  0  0  0
  -29.5034  -12.5089   18.2085 C   0  0  0  0  0  0
  -28.0274  -12.3425   18.6255 C   0  0  0  0  0  0
  -27.6521  -13.2111   19.8561 C   0  0  2  0  0  0
  -28.6994  -13.0524   20.9812 C   0  0  0  0  0  0
  -25.2572  -13.8145   20.5680 C   0  0  0  0  0  0
  -24.1844  -13.0417   20.9190 C   0  0  0  0  0  0
  -24.6405  -11.6886   20.8732 C   0  0  0  0  0  0
  -23.9072  -10.4278   21.0397 C   0  0  0  0  0  0
  -24.3619   -9.4204   21.9183 C   0  0  0  0  0  0
  -23.6292   -8.2240   22.0755 C   0  0  0  0  0  0
  -22.4279   -8.0277   21.3541 C   0  0  0  0  0  0
  -21.9911   -9.0249   20.4643 C   0  0  0  0  0  0
  -22.7241  -10.2129   20.3051 C   0  0  0  0  0  0
  -21.6858   -6.0737   22.5283 C   0  0  0  0  0  0
  -21.4010   -6.5640   23.8217 C   0  0  0  0  0  0
  -21.3653   -5.6793   24.9176 C   0  0  0  0  0  0
  -21.6042   -4.3057   24.7226 C   0  0  0  0  0  0
  -21.8819   -3.8148   23.4351 C   0  0  0  0  0  0
  -21.9193   -4.6965   22.3406 C   0  0  0  0  0  0
  -22.7874  -13.5230   21.1855 C   0  0  0  0  0  0
  -22.1665   -4.2149   21.0984 F   0  0  0  0  0  0
  -21.5623   -3.4540   25.7740 F   0  0  0  0  0  0
  -30.0083  -13.4120   20.4142 N   0  0  0  0  0  0
  -26.2988  -12.9321   20.3280 N   0  0  0  0  0  0
  -25.9326  -11.6479   20.5725 N   0  0  0  0  0  0
  -22.0508  -12.8220   22.0404 N   0  0  0  0  0  0
  -25.4253  -15.1871   20.4115 N   0  0  0  0  0  0
  -31.7789  -14.8180   20.1637 O   0  0  0  0  0  0
  -21.6638   -6.8878   21.4246 O   0  0  0  0  0  0
  -22.3568  -14.5537   20.6702 O   0  0  0  0  0  0
  -24.6231  -31.8588   23.2009 C   0  0  0  0  0  0
  -25.9081  -32.4770   23.8341 C   0  0  1  0  0  0
  -27.2308  -27.3308   20.1198 C   0  0  0  0  0  0
  -25.5907  -33.8575   24.2256 N   0  0  0  0  0  0
  -23.4175  -30.4814   21.5415 C   0  0  2  0  0  0
  -24.8658  -28.9307   20.1134 C   0  0  0  0  0  0
  -22.7456  -29.4617   22.4911 C   0  0  0  0  0  0
  -18.0285  -28.1400   22.8460 C   0  0  0  0  0  0
  -24.1488  -36.7293   23.2639 C   0  0  0  0  0  0
  -25.9561  -30.7934   21.3684 C   0  0  0  0  0  0
  -26.0315  -29.4197   20.7145 C   0  0  0  0  0  0
  -27.2180  -28.6319   20.7053 C   0  0  0  0  0  0
  -26.0441  -26.8833   19.5021 C   0  0  0  0  0  0
  -24.8721  -27.6659   19.4998 C   0  0  0  0  0  0
  -23.6331  -29.8101   20.1588 C   0  0  0  0  0  0
  -25.4107  -36.3074   24.0329 C   0  0  1  0  0  0
  -20.5884  -28.3695   23.1273 C   0  0  2  0  0  0
  -20.6770  -26.9407   22.5415 C   0  0  0  0  0  0
  -19.5753  -26.6382   21.5212 C   0  0  0  0  0  0
  -18.1921  -26.7930   22.1609 C   0  0  0  0  0  0
  -19.1537  -28.8850   23.2862 C   0  0  0  0  0  0
  -18.9466  -30.1442   23.8896 C   0  0  0  0  0  0
  -17.6473  -30.6587   24.0559 C   0  0  0  0  0  0
  -25.9047  -34.9448   23.5097 C   0  0  0  0  0  0
  -16.5358  -29.9092   23.6340 C   0  0  0  0  0  0
  -16.7269  -28.6521   23.0335 C   0  0  0  0  0  0
  -26.4483  -31.6585   25.0715 C   0  0  0  0  0  0
  -25.3719  -31.3740   26.1453 C   0  0  0  0  0  0
  -27.0332  -30.3014   24.6158 C   0  0  0  0  0  0
  -27.6035  -32.4330   25.7490 C   0  0  0  0  0  0
  -27.5565  -37.1793   24.8462 C   0  0  0  0  0  0
  -21.4169  -29.3048   22.3653 N   0  0  0  0  0  0
  -26.4281  -37.3773   23.9401 N   0  0  0  0  0  0
  -24.6848  -31.0607   22.0948 N   0  0  0  0  0  0
  -23.4180  -28.8142   23.2980 O   0  0  0  0  0  0
  -28.3720  -26.5228   20.1166 O   0  0  0  0  0  0
  -26.5619  -34.8924   22.4664 O   0  0  0  0  0  0
  -23.5400  -32.1381   23.7342 O   0  0  0  0  0  0
  -30.2188  -22.0850   20.6305 C   0  0  0  0  0  0
  -28.3125  -21.5233   19.3015 C   0  0  0  0  0  0
  -29.1163  -22.5394   19.8720 C   0  0  0  0  0  0
  -30.5491  -20.7010   20.7625 C   0  0  0  0  0  0
  -28.6217  -20.1260   19.4091 C   0  0  0  0  0  0
  -29.7681  -19.6672   20.1450 C   0  0  0  0  0  0
  -31.8207  -20.4026   21.5391 C   0  0  0  0  0  0
  -26.4095  -19.5915   18.1130 C   0  0  0  0  0  0
  -28.6494  -17.5079   22.0155 C   0  0  0  0  0  0
  -31.0903  -17.1641   22.3514 C   0  0  0  0  0  0
  -28.9379  -24.0588   19.4905 C   0  0  0  0  0  0
  -27.7784  -19.1143   18.6248 C   0  0  0  0  0  0
  -30.2349  -18.1379   20.1066 C   0  0  0  0  0  0
  -28.2551  -25.0917   20.4735 C   0  0  0  0  0  0
  -29.9589  -17.1096   21.3028 C   0  0  0  0  0  0
  -29.7871  -15.6574   20.9165 N   0  0  0  0  0  0
  -31.4799  -12.5503   19.1226 H   0  0  0  0  0  0
  -30.3963  -11.4048   19.8674 H   0  0  0  0  0  0
  -29.7655  -11.7553   17.4653 H   0  0  0  0  0  0
  -29.6395  -13.4755   17.7204 H   0  0  0  0  0  0
  -27.8688  -11.2890   18.8587 H   0  0  0  0  0  0
  -27.3700  -12.5677   17.7846 H   0  0  0  0  0  0
  -27.6702  -14.2477   19.5181 H   0  0  0  0  0  0
  -28.7216  -12.0222   21.3409 H   0  0  0  0  0  0
  -28.4450  -13.6627   21.8496 H   0  0  0  0  0  0
  -25.2759   -9.5687   22.4761 H   0  0  0  0  0  0
  -23.9998   -7.4636   22.7482 H   0  0  0  0  0  0
  -21.0837   -8.8767   19.8955 H   0  0  0  0  0  0
  -22.3694  -10.9666   19.6160 H   0  0  0  0  0  0
  -21.2003   -7.6147   23.9719 H   0  0  0  0  0  0
  -21.1471   -6.0523   25.9079 H   0  0  0  0  0  0
  -22.0602   -2.7609   23.2852 H   0  0  0  0  0  0
  -22.4110  -11.9884   22.4804 H   0  0  0  0  0  0
  -21.1113  -13.1235   22.2568 H   0  0  0  0  0  0
  -24.6511  -15.8306   20.5325 H   0  0  0  0  0  0
  -26.2569  -15.6339   20.0499 H   0  0  0  0  0  0
  -26.7145  -32.5456   23.1075 H   0  0  0  0  0  0
  -25.0074  -33.9729   25.0418 H   0  0  0  0  0  0
  -22.7116  -31.3018   21.3920 H   0  0  0  0  0  0
  -23.3748  -35.9628   23.3314 H   0  0  0  0  0  0
  -24.3578  -36.8912   22.2055 H   0  0  0  0  0  0
  -23.7261  -37.6503   23.6663 H   0  0  0  0  0  0
  -26.0812  -31.5531   20.5956 H   0  0  0  0  0  0
  -26.8379  -30.8484   21.9939 H   0  0  0  0  0  0
  -28.1177  -29.0064   21.1721 H   0  0  0  0  0  0
  -26.0216  -25.9204   19.0128 H   0  0  0  0  0  0
  -23.9791  -27.2841   19.0263 H   0  0  0  0  0  0
  -23.7535  -30.5833   19.3996 H   0  0  0  0  0  0
  -22.7541  -29.2382   19.8559 H   0  0  0  0  0  0
  -25.1289  -36.1918   25.0822 H   0  0  0  0  0  0
  -20.9974  -28.3272   24.1395 H   0  0  0  0  0  0
  -20.5678  -26.2290   23.3611 H   0  0  0  0  0  0
  -21.6632  -26.7431   22.1194 H   0  0  0  0  0  0
  -19.6924  -25.6299   21.1225 H   0  0  0  0  0  0
  -19.6709  -27.3200   20.6747 H   0  0  0  0  0  0
  -17.4191  -26.6673   21.4011 H   0  0  0  0  0  0
  -18.0306  -26.0092   22.9026 H   0  0  0  0  0  0
  -19.7954  -30.7234   24.2270 H   0  0  0  0  0  0
  -17.5044  -31.6275   24.5150 H   0  0  0  0  0  0
  -15.5358  -30.2992   23.7678 H   0  0  0  0  0  0
  -15.8666  -28.0844   22.7046 H   0  0  0  0  0  0
  -24.5903  -30.7067   25.7796 H   0  0  0  0  0  0
  -24.8905  -32.2924   26.4832 H   0  0  0  0  0  0
  -25.8054  -30.8965   27.0247 H   0  0  0  0  0  0
  -26.2909  -29.6768   24.1175 H   0  0  0  0  0  0
  -27.4045  -29.7262   25.4648 H   0  0  0  0  0  0
  -27.8760  -30.4315   23.9363 H   0  0  0  0  0  0
  -27.2630  -33.3629   26.2042 H   0  0  0  0  0  0
  -28.3851  -32.6891   25.0330 H   0  0  0  0  0  0
  -28.0682  -31.8483   26.5427 H   0  0  0  0  0  0
  -28.2576  -38.0092   24.7492 H   0  0  0  0  0  0
  -28.1072  -36.2626   24.6301 H   0  0  0  0  0  0
  -27.2291  -37.1454   25.8870 H   0  0  0  0  0  0
  -20.9320  -29.8802   21.6908 H   0  0  0  0  0  0
  -26.0167  -38.2846   24.1419 H   0  0  0  0  0  0
  -30.8761  -22.8254   21.0659 H   0  0  0  0  0  0
  -27.4779  -21.8474   18.6989 H   0  0  0  0  0  0
  -32.5423  -21.2114   21.4159 H   0  0  0  0  0  0
  -32.3219  -19.4941   21.2150 H   0  0  0  0  0  0
  -31.6030  -20.3326   22.6053 H   0  0  0  0  0  0
  -25.8947  -18.7782   17.5999 H   0  0  0  0  0  0
  -26.5022  -20.4028   17.3913 H   0  0  0  0  0  0
  -25.7668  -19.9196   18.9304 H   0  0  0  0  0  0
  -28.6765  -18.5412   22.3627 H   0  0  0  0  0  0
  -28.4568  -16.8864   22.8912 H   0  0  0  0  0  0
  -27.7856  -17.4127   21.3587 H   0  0  0  0  0  0
  -31.1453  -18.1361   22.8346 H   0  0  0  0  0  0
  -32.0664  -16.9581   21.9123 H   0  0  0  0  0  0
  -30.9327  -16.4360   23.1490 H   0  0  0  0  0  0
  -28.3996  -24.0979   18.5426 H   0  0  0  0  0  0
  -29.9320  -24.4400   19.2548 H   0  0  0  0  0  0
  -27.6050  -18.2353   19.2423 H   0  0  0  0  0  0
  -28.3682  -18.7793   17.7696 H   0  0  0  0  0  0
  -31.2980  -18.1150   19.8688 H   0  0  0  0  0  0
  -29.8099  -17.6862   19.2145 H   0  0  0  0  0  0
  -28.7428  -24.9913   21.4433 H   0  0  0  0  0  0
  -27.2189  -24.7969   20.6458 H   0  0  0  0  0  0
  -28.8546  -15.3170   21.0957 H   0  0  0  0  0  0
  1 25  1  0  0  0
  1 30  2  0  0  0
  1 86  1  0  0  0
  2  3  1  0  0  0
  2 25  1  0  0  0
  2 87  1  0  0  0
  2 88  1  0  0  0
  3  4  1  0  0  0
  3 89  1  0  0  0
  3 90  1  0  0  0
  4  5  1  0  0  0
  4 91  1  0  0  0
  4 92  1  0  0  0
  5  6  1  0  0  0
  5 26  1  0  0  0
  5 93  1  0  0  0
  6 25  1  0  0  0
  6 94  1  0  0  0
  6 95  1  0  0  0
  7  8  2  0  0  0
  7 26  1  0  0  0
  7 29  1  0  0  0
  8  9  1  0  0  0
  8 22  1  0  0  0
  9 10  1  0  0  0
  9 27  2  0  0  0
 10 11  2  0  0  0
 10 15  1  0  0  0
 11 12  1  0  0  0
 11 96  1  0  0  0
 12 13  2  0  0  0
 12 97  1  0  0  0
 13 14  1  0  0  0
 13 31  1  0  0  0
 14 15  2  0  0  0
 14 98  1  0  0  0
 15 99  1  0  0  0
 16 17  2  0  0  0
 16 21  1  0  0  0
 16 31  1  0  0  0
 17 18  1  0  0  0
 17100  1  0  0  0
 18 19  2  0  0  0
 18101  1  0  0  0
 19 20  1  0  0  0
 19 24  1  0  0  0
 20 21  2  0  0  0
 20102  1  0  0  0
 21 23  1  0  0  0
 22 28  1  0  0  0
 22 32  2  0  0  0
 26 27  1  0  0  0
 28103  1  0  0  0
 28104  1  0  0  0
 29105  1  0  0  0
 29106  1  0  0  0
 33 34  1  0  0  0
 33 66  1  0  0  0
 33 70  2  0  0  0
 34 36  1  0  0  0
 34 59  1  0  0  0
 34107  1  0  0  0
 35 44  2  0  0  0
 35 45  1  0  0  0
 35 68  1  0  0  0
 36 56  1  0  0  0
 36108  1  0  0  0
 37 39  1  0  0  0
 37 47  1  0  0  0
 37 66  1  0  0  0
 37109  1  0  0  0
 38 43  2  0  0  0
 38 46  1  0  0  0
 38 47  1  0  0  0
 39 64  1  0  0  0
 39 67  2  0  0  0
 40 52  1  0  0  0
 40 53  2  0  0  0
 40 58  1  0  0  0
 41110  1  0  0  0
 41111  1  0  0  0
 41112  1  0  0  0
 41 48  1  0  0  0
 42 43  1  0  0  0
 42 66  1  0  0  0
 42113  1  0  0  0
 42114  1  0  0  0
 43 44  1  0  0  0
 44115  1  0  0  0
 45 46  2  0  0  0
 45116  1  0  0  0
 46117  1  0  0  0
 47118  1  0  0  0
 47119  1  0  0  0
 48 56  1  0  0  0
 48 65  1  0  0  0
 48120  1  0  0  0
 49 50  1  0  0  0
 49 53  1  0  0  0
 49 64  1  0  0  0
 49121  1  0  0  0
 50 51  1  0  0  0
 50122  1  0  0  0
 50123  1  0  0  0
 51 52  1  0  0  0
 51124  1  0  0  0
 51125  1  0  0  0
 52126  1  0  0  0
 52127  1  0  0  0
 53 54  1  0  0  0
 54 55  2  0  0  0
 54128  1  0  0  0
 55 57  1  0  0  0
 55129  1  0  0  0
 56 69  2  0  0  0
 57 58  2  0  0  0
 57130  1  0  0  0
 58131  1  0  0  0
 59 60  1  0  0  0
 59 61  1  0  0  0
 59 62  1  0  0  0
 60132  1  0  0  0
 60133  1  0  0  0
 60134  1  0  0  0
 61135  1  0  0  0
 61136  1  0  0  0
 61137  1  0  0  0
 62138  1  0  0  0
 62139  1  0  0  0
 62140  1  0  0  0
 63 65  1  0  0  0
 63141  1  0  0  0
 63142  1  0  0  0
 63143  1  0  0  0
 64144  1  0  0  0
 65145  1  0  0  0
 68 84  1  0  0  0
 71 73  2  0  0  0
 71 74  1  0  0  0
 71146  1  0  0  0
 72 73  1  0  0  0
 72 75  2  0  0  0
 72147  1  0  0  0
 73 81  1  0  0  0
 74 76  2  0  0  0
 74 77  1  0  0  0
 75 76  1  0  0  0
 75 82  1  0  0  0
 76 83  1  0  0  0
 77148  1  0  0  0
 77149  1  0  0  0
 77150  1  0  0  0
 78 82  1  0  0  0
 78151  1  0  0  0
 78152  1  0  0  0
 78153  1  0  0  0
 79154  1  0  0  0
 79155  1  0  0  0
 79156  1  0  0  0
 79 85  1  0  0  0
 80 85  1  0  0  0
 80157  1  0  0  0
 80158  1  0  0  0
 80159  1  0  0  0
 81 84  1  0  0  0
 81160  1  0  0  0
 81161  1  0  0  0
 82162  1  0  0  0
 82163  1  0  0  0
 83 85  1  0  0  0
 83164  1  0  0  0
 83165  1  0  0  0
 84166  1  0  0  0
 84167  1  0  0  0
 85 86  1  0  0  0
 86168  1  0  0  0
M  ISO  4   1 100  68 101  84 101  86 100
M  END
> <chiral flag>
0

> <version>
0

> <s_m_source_file>
/data/baiqing/PycharmProjects/Reinvent-master-3.2/result/LINK_invent/BTK/process_docking_weight1_custom_sum_contain_oxygen_bond_distance_aromatic_linkinvent_7_9_3/rearranged_h_0096.sdf

> <i_m_source_file_index>
9

> <r_mmod_Potential_Energy-OPLS-2005>
85.5310821533203

> <r_mmod_Stretch_Energy-OPLS-2005>
87.2573165893555

> <r_mmod_Bend_Energy-OPLS-2005>
156.544097900391

> <r_mmod_Torsional_Energy-OPLS-2005>
217.322448730469

> <r_mmod_Improper_Torsional_Energy-OPLS-2005>
5.86655330657959

> <r_mmod_Van_der_Waal_Energy-OPLS-2005>
142.126541137695

> <r_mmod_Electrostatic_Energy-OPLS-2005>
-372.77392578125

> <r_mmod_Solvation_Energy-OPLS-2005>
-194.521438598633

> <b_mmod_Minimization_Converged-OPLS-2005>
0

> <r_mmod_RMS_Derivative-OPLS-2005>
2.50172805786133

$$$$
9
                    3D
 Structure written by MMmdl.
166174  0  0  1  0            999 V2000
  -30.6224  -14.7517   20.4594 C   0  0  0  0  0  0
  -30.4277  -12.4608   19.4821 C   0  0  0  0  0  0
  -29.5095  -12.5049   18.2412 C   0  0  0  0  0  0
  -28.0325  -12.3364   18.6510 C   0  0  0  0  0  0
  -27.6388  -13.2354   19.8543 C   0  0  2  0  0  0
  -28.6851  -13.1812   20.9903 C   0  0  0  0  0  0
  -25.2486  -13.8187   20.5709 C   0  0  0  0  0  0
  -24.1805  -13.0431   20.9264 C   0  0  0  0  0  0
  -24.6394  -11.6912   20.8777 C   0  0  0  0  0  0
  -23.9057  -10.4305   21.0420 C   0  0  0  0  0  0
  -24.3618   -9.4218   21.9188 C   0  0  0  0  0  0
  -23.6294   -8.2248   22.0748 C   0  0  0  0  0  0
  -22.4273   -8.0283   21.3542 C   0  0  0  0  0  0
  -21.9915   -9.0257   20.4640 C   0  0  0  0  0  0
  -22.7236  -10.2138   20.3058 C   0  0  0  0  0  0
  -21.6853   -6.0737   22.5263 C   0  0  0  0  0  0
  -21.4003   -6.5629   23.8201 C   0  0  0  0  0  0
  -21.3677   -5.6784   24.9161 C   0  0  0  0  0  0
  -21.6048   -4.3053   24.7206 C   0  0  0  0  0  0
  -21.8825   -3.8146   23.4328 C   0  0  0  0  0  0
  -21.9189   -4.6964   22.3382 C   0  0  0  0  0  0
  -22.7823  -13.5208   21.1904 C   0  0  0  0  0  0
  -22.1652   -4.2147   21.0966 F   0  0  0  0  0  0
  -21.5645   -3.4538   25.7727 F   0  0  0  0  0  0
  -29.9829  -13.5315   20.4037 N   0  0  0  0  0  0
  -26.2921  -12.9409   20.3299 N   0  0  0  0  0  0
  -25.9319  -11.6547   20.5771 N   0  0  0  0  0  0
  -22.0468  -12.8210   22.0464 N   0  0  0  0  0  0
  -25.4117  -15.1918   20.4068 N   0  0  0  0  0  0
  -31.8127  -14.8257   20.1465 O   0  0  0  0  0  0
  -21.6638   -6.8878   21.4231 O   0  0  0  0  0  0
  -22.3523  -14.5508   20.6724 O   0  0  0  0  0  0
  -24.6344  -31.8540   23.1955 C   0  0  0  0  0  0
  -25.9173  -32.4744   23.8309 C   0  0  1  0  0  0
  -27.2197  -27.2479   20.1319 C   0  0  0  0  0  0
  -25.5969  -33.8541   24.2242 N   0  0  0  0  0  0
  -23.4309  -30.4771   21.5385 C   0  0  2  0  0  0
  -24.8786  -28.9230   20.1052 C   0  0  0  0  0  0
  -22.7524  -29.4617   22.4909 C   0  0  0  0  0  0
  -18.0343  -28.1381   22.8530 C   0  0  0  0  0  0
  -24.1493  -36.7261   23.2637 C   0  0  0  0  0  0
  -25.9771  -30.7614   21.3800 C   0  0  0  0  0  0
  -26.0478  -29.3846   20.7211 C   0  0  0  0  0  0
  -27.2172  -28.5559   20.7285 C   0  0  0  0  0  0
  -26.0377  -26.8743   19.4632 C   0  0  0  0  0  0
  -24.8792  -27.6751   19.4652 C   0  0  0  0  0  0
  -23.6471  -29.8079   20.1560 C   0  0  0  0  0  0
  -25.4132  -36.3063   24.0322 C   0  0  1  0  0  0
  -20.5950  -28.3684   23.1278 C   0  0  2  0  0  0
  -20.6842  -26.9397   22.5439 C   0  0  0  0  0  0
  -19.5793  -26.6368   21.5258 C   0  0  0  0  0  0
  -18.2000  -26.7890   22.1734 C   0  0  0  0  0  0
  -19.1603  -28.8846   23.2902 C   0  0  0  0  0  0
  -18.9536  -30.1453   23.8907 C   0  0  0  0  0  0
  -17.6545  -30.6598   24.0577 C   0  0  0  0  0  0
  -25.9067  -34.9425   23.5077 C   0  0  0  0  0  0
  -16.5429  -29.9111   23.6340 C   0  0  0  0  0  0
  -16.7335  -28.6512   23.0386 C   0  0  0  0  0  0
  -26.4531  -31.6588   25.0712 C   0  0  0  0  0  0
  -25.3733  -31.3752   26.1413 C   0  0  0  0  0  0
  -27.0397  -30.2996   24.6230 C   0  0  0  0  0  0
  -27.6080  -32.4333   25.7499 C   0  0  0  0  0  0
  -27.5591  -37.1786   24.8465 C   0  0  0  0  0  0
  -21.4238  -29.3029   22.3636 N   0  0  0  0  0  0
  -26.4300  -37.3765   23.9413 N   0  0  0  0  0  0
  -24.6993  -31.0510   22.0927 N   0  0  0  0  0  0
  -23.4213  -28.8182   23.3033 O   0  0  0  0  0  0
  -28.3099  -26.3475   20.2470 O   0  0  0  0  0  0
  -26.5622  -34.8905   22.4631 O   0  0  0  0  0  0
  -23.5486  -32.1371   23.7240 O   0  0  0  0  0  0
  -29.8190  -20.0284   20.3740 C   0  0  0  0  0  0
  -29.5718  -18.6676   20.6414 C   0  0  0  0  0  0
  -28.0087  -19.9983   21.6007 C   0  0  0  0  0  0
  -26.8544  -20.2480   22.5074 C   0  0  0  0  0  0
  -25.6847  -23.3813   18.8948 C   0  0  0  0  0  0
  -26.1343  -23.3984   22.6714 C   0  0  0  0  0  0
  -30.3707  -17.3333   20.3327 C   0  0  0  0  0  0
  -26.8686  -22.7169   19.6062 C   0  0  0  0  0  0
  -26.9831  -24.2286   21.7142 C   0  0  0  0  0  0
  -28.8945  -22.4509   21.1002 C   0  0  0  0  0  0
  -28.3454  -24.9035   19.7659 C   0  0  0  0  0  0
  -27.7828  -23.5567   20.5504 C   0  0  0  0  0  0
  -28.8517  -20.8662   20.9718 N   0  0  0  0  0  0
  -28.4147  -18.7298   21.3647 N   0  3  0  0  0  0
  -29.8812  -15.9125   20.6330 N   0  0  0  0  0  0
  -31.4689  -12.5799   19.1775 H   0  0  0  0  0  0
  -30.3691  -11.4866   19.9697 H   0  0  0  0  0  0
  -29.7905  -11.7217   17.5365 H   0  0  0  0  0  0
  -29.6415  -13.4537   17.7191 H   0  0  0  0  0  0
  -27.8814  -11.2883   18.9121 H   0  0  0  0  0  0
  -27.3765  -12.5350   17.8026 H   0  0  0  0  0  0
  -27.6318  -14.2569   19.4748 H   0  0  0  0  0  0
  -28.7246  -12.1875   21.4391 H   0  0  0  0  0  0
  -28.4229  -13.8725   21.7938 H   0  0  0  0  0  0
  -25.2764   -9.5704   22.4761 H   0  0  0  0  0  0
  -24.0013   -7.4637   22.7460 H   0  0  0  0  0  0
  -21.0850   -8.8767   19.8939 H   0  0  0  0  0  0
  -22.3687  -10.9676   19.6165 H   0  0  0  0  0  0
  -21.1976   -7.6134   23.9699 H   0  0  0  0  0  0
  -21.1502   -6.0511   25.9066 H   0  0  0  0  0  0
  -22.0594   -2.7607   23.2813 H   0  0  0  0  0  0
  -22.4079  -11.9873   22.4867 H   0  0  0  0  0  0
  -21.1056  -13.1197   22.2630 H   0  0  0  0  0  0
  -24.6243  -15.8243   20.5057 H   0  0  0  0  0  0
  -26.1989  -15.6145   19.9324 H   0  0  0  0  0  0
  -26.7257  -32.5389   23.1062 H   0  0  0  0  0  0
  -25.0169  -33.9691   25.0420 H   0  0  0  0  0  0
  -22.7285  -31.3002   21.3912 H   0  0  0  0  0  0
  -23.3775  -35.9573   23.3282 H   0  0  0  0  0  0
  -24.3576  -36.8887   22.2052 H   0  0  0  0  0  0
  -23.7216  -37.6444   23.6659 H   0  0  0  0  0  0
  -26.1248  -31.5239   20.6147 H   0  0  0  0  0  0
  -26.8486  -30.8023   22.0213 H   0  0  0  0  0  0
  -28.1064  -28.9003   21.2378 H   0  0  0  0  0  0
  -25.9805  -25.9307   18.9603 H   0  0  0  0  0  0
  -23.9863  -27.3176   18.9717 H   0  0  0  0  0  0
  -23.7626  -30.5782   19.3924 H   0  0  0  0  0  0
  -22.7658  -29.2354   19.8622 H   0  0  0  0  0  0
  -25.1316  -36.1904   25.0820 H   0  0  0  0  0  0
  -21.0072  -28.3293   24.1380 H   0  0  0  0  0  0
  -20.5753  -26.2303   23.3654 H   0  0  0  0  0  0
  -21.6712  -26.7411   22.1231 H   0  0  0  0  0  0
  -19.6937  -25.6273   21.1279 H   0  0  0  0  0  0
  -19.6695  -27.3191   20.6798 H   0  0  0  0  0  0
  -17.4219  -26.6516   21.4222 H   0  0  0  0  0  0
  -18.0501  -26.0092   22.9214 H   0  0  0  0  0  0
  -19.8020  -30.7264   24.2282 H   0  0  0  0  0  0
  -17.5128  -31.6275   24.5204 H   0  0  0  0  0  0
  -15.5439  -30.3037   23.7673 H   0  0  0  0  0  0
  -15.8729  -28.0832   22.7124 H   0  0  0  0  0  0
  -24.5922  -30.7096   25.7728 H   0  0  0  0  0  0
  -24.8921  -32.2928   26.4793 H   0  0  0  0  0  0
  -25.8026  -30.8947   27.0210 H   0  0  0  0  0  0
  -26.2998  -29.6722   24.1238 H   0  0  0  0  0  0
  -27.4059  -29.7291   25.4783 H   0  0  0  0  0  0
  -27.8883  -30.4280   23.9502 H   0  0  0  0  0  0
  -27.2690  -33.3645   26.2049 H   0  0  0  0  0  0
  -28.3908  -32.6864   25.0338 H   0  0  0  0  0  0
  -28.0727  -31.8464   26.5432 H   0  0  0  0  0  0
  -28.2601  -38.0093   24.7539 H   0  0  0  0  0  0
  -28.1095  -36.2619   24.6269 H   0  0  0  0  0  0
  -27.2290  -37.1402   25.8860 H   0  0  0  0  0  0
  -20.9402  -29.8722   21.6835 H   0  0  0  0  0  0
  -26.0170  -38.2835   24.1415 H   0  0  0  0  0  0
  -30.6589  -20.4586   19.8441 H   0  0  0  0  0  0
  -27.2090  -20.7969   23.3751 H   0  0  0  0  0  0
  -26.4686  -19.2886   22.8540 H   0  0  0  0  0  0
  -26.0599  -20.7478   21.9659 H   0  0  0  0  0  0
  -25.0519  -22.6164   18.4450 H   0  0  0  0  0  0
  -26.0075  -24.0165   18.0726 H   0  0  0  0  0  0
  -25.0545  -23.9522   19.5771 H   0  0  0  0  0  0
  -25.5443  -24.0544   23.3114 H   0  0  0  0  0  0
  -26.7622  -22.8208   23.3407 H   0  0  0  0  0  0
  -25.4218  -22.7664   22.1463 H   0  0  0  0  0  0
  -31.3371  -17.4405   20.8275 H   0  0  0  0  0  0
  -30.6095  -17.3559   19.2687 H   0  0  0  0  0  0
  -27.4927  -22.2446   18.8454 H   0  0  0  0  0  0
  -26.4403  -21.8951   20.1700 H   0  0  0  0  0  0
  -27.6729  -24.8211   22.3187 H   0  0  0  0  0  0
  -26.2917  -24.9531   21.2908 H   0  0  0  0  0  0
  -29.0555  -22.6472   22.1611 H   0  0  0  0  0  0
  -29.8493  -22.7289   20.6545 H   0  0  0  0  0  0
  -27.9739  -24.9080   18.7432 H   0  0  0  0  0  0
  -29.4080  -24.7255   19.6089 H   0  0  0  0  0  0
  -27.9417  -17.9180   21.7447 H   0  0  0  0  0  0
  -28.9009  -15.7934   20.8255 H   0  0  0  0  0  0
  1 25  1  0  0  0
  1 30  2  0  0  0
  1 85  1  0  0  0
  2  3  1  0  0  0
  2 25  1  0  0  0
  2 86  1  0  0  0
  2 87  1  0  0  0
  3  4  1  0  0  0
  3 88  1  0  0  0
  3 89  1  0  0  0
  4  5  1  0  0  0
  4 90  1  0  0  0
  4 91  1  0  0  0
  5  6  1  0  0  0
  5 26  1  0  0  0
  5 92  1  0  0  0
  6 25  1  0  0  0
  6 93  1  0  0  0
  6 94  1  0  0  0
  7  8  2  0  0  0
  7 26  1  0  0  0
  7 29  1  0  0  0
  8  9  1  0  0  0
  8 22  1  0  0  0
  9 10  1  0  0  0
  9 27  2  0  0  0
 10 11  2  0  0  0
 10 15  1  0  0  0
 11 12  1  0  0  0
 11 95  1  0  0  0
 12 13  2  0  0  0
 12 96  1  0  0  0
 13 14  1  0  0  0
 13 31  1  0  0  0
 14 15  2  0  0  0
 14 97  1  0  0  0
 15 98  1  0  0  0
 16 17  2  0  0  0
 16 21  1  0  0  0
 16 31  1  0  0  0
 17 18  1  0  0  0
 17 99  1  0  0  0
 18 19  2  0  0  0
 18100  1  0  0  0
 19 20  1  0  0  0
 19 24  1  0  0  0
 20 21  2  0  0  0
 20101  1  0  0  0
 21 23  1  0  0  0
 22 28  1  0  0  0
 22 32  2  0  0  0
 26 27  1  0  0  0
 28102  1  0  0  0
 28103  1  0  0  0
 29104  1  0  0  0
 29105  1  0  0  0
 33 34  1  0  0  0
 33 66  1  0  0  0
 33 70  2  0  0  0
 34 36  1  0  0  0
 34 59  1  0  0  0
 34106  1  0  0  0
 35 44  2  0  0  0
 35 45  1  0  0  0
 35 68  1  0  0  0
 36 56  1  0  0  0
 36107  1  0  0  0
 37 39  1  0  0  0
 37 47  1  0  0  0
 37 66  1  0  0  0
 37108  1  0  0  0
 38 43  2  0  0  0
 38 46  1  0  0  0
 38 47  1  0  0  0
 39 64  1  0  0  0
 39 67  2  0  0  0
 40 52  1  0  0  0
 40 53  2  0  0  0
 40 58  1  0  0  0
 41109  1  0  0  0
 41110  1  0  0  0
 41111  1  0  0  0
 41 48  1  0  0  0
 42 43  1  0  0  0
 42 66  1  0  0  0
 42112  1  0  0  0
 42113  1  0  0  0
 43 44  1  0  0  0
 44114  1  0  0  0
 45 46  2  0  0  0
 45115  1  0  0  0
 46116  1  0  0  0
 47117  1  0  0  0
 47118  1  0  0  0
 48 56  1  0  0  0
 48 65  1  0  0  0
 48119  1  0  0  0
 49 50  1  0  0  0
 49 53  1  0  0  0
 49 64  1  0  0  0
 49120  1  0  0  0
 50 51  1  0  0  0
 50121  1  0  0  0
 50122  1  0  0  0
 51 52  1  0  0  0
 51123  1  0  0  0
 51124  1  0  0  0
 52125  1  0  0  0
 52126  1  0  0  0
 53 54  1  0  0  0
 54 55  2  0  0  0
 54127  1  0  0  0
 55 57  1  0  0  0
 55128  1  0  0  0
 56 69  2  0  0  0
 57 58  2  0  0  0
 57129  1  0  0  0
 58130  1  0  0  0
 59 60  1  0  0  0
 59 61  1  0  0  0
 59 62  1  0  0  0
 60131  1  0  0  0
 60132  1  0  0  0
 60133  1  0  0  0
 61134  1  0  0  0
 61135  1  0  0  0
 61136  1  0  0  0
 62137  1  0  0  0
 62138  1  0  0  0
 62139  1  0  0  0
 63 65  1  0  0  0
 63140  1  0  0  0
 63141  1  0  0  0
 63142  1  0  0  0
 64143  1  0  0  0
 65144  1  0  0  0
 68 81  1  0  0  0
 71 72  2  0  0  0
 71 83  1  0  0  0
 71145  1  0  0  0
 72 77  1  0  0  0
 72 84  1  0  0  0
 73 74  1  0  0  0
 73 83  1  0  0  0
 73 84  2  0  0  0
 74146  1  0  0  0
 74147  1  0  0  0
 74148  1  0  0  0
 75 78  1  0  0  0
 75149  1  0  0  0
 75150  1  0  0  0
 75151  1  0  0  0
 76 79  1  0  0  0
 76152  1  0  0  0
 76153  1  0  0  0
 76154  1  0  0  0
 77 85  1  0  0  0
 77155  1  0  0  0
 77156  1  0  0  0
 78157  1  0  0  0
 78158  1  0  0  0
 78 82  1  0  0  0
 79 82  1  0  0  0
 79159  1  0  0  0
 79160  1  0  0  0
 80 82  1  0  0  0
 80 83  1  0  0  0
 80161  1  0  0  0
 80162  1  0  0  0
 81 82  1  0  0  0
 81163  1  0  0  0
 81164  1  0  0  0
 84165  1  0  0  0
 85166  1  0  0  0
M  CHG  1  84   1
M  ISO  4   1 100  68 101  81 101  85 100
M  END
> <chiral flag>
0

> <version>
0

> <s_m_source_file>
/data/baiqing/PycharmProjects/Reinvent-master-3.2/result/LINK_invent/BTK/process_docking_weight1_custom_sum_contain_oxygen_bond_distance_aromatic_linkinvent_7_9_3/rearranged_h_0096.sdf

> <i_m_source_file_index>
10

> <r_mmod_Potential_Energy-OPLS-2005>
173.951065063477

> <r_mmod_Stretch_Energy-OPLS-2005>
160.317825317383

> <r_mmod_Bend_Energy-OPLS-2005>
250.669769287109

> <r_mmod_Torsional_Energy-OPLS-2005>
246.885955810547

> <r_mmod_Improper_Torsional_Energy-OPLS-2005>
8.12012195587158

> <r_mmod_Van_der_Waal_Energy-OPLS-2005>
121.251113891602

> <r_mmod_Electrostatic_Energy-OPLS-2005>
-280.954467773438

> <r_mmod_Solvation_Energy-OPLS-2005>
-425.735870361328

> <b_mmod_Minimization_Converged-OPLS-2005>
0

> <r_mmod_RMS_Derivative-OPLS-2005>
2.65661311149597

$$$$
10
                    3D
 Structure written by MMmdl.
170177  0  0  1  0            999 V2000
  -30.7574  -14.3737   20.6693 C   0  0  0  0  0  0
  -30.4160  -12.2892   19.3942 C   0  0  0  0  0  0
  -29.4820  -12.5141   18.1904 C   0  0  0  0  0  0
  -28.0071  -12.3696   18.6099 C   0  0  0  0  0  0
  -27.6631  -13.1982   19.8750 C   0  0  2  0  0  0
  -28.7021  -12.9462   20.9901 C   0  0  0  0  0  0
  -25.2599  -13.8133   20.5688 C   0  0  0  0  0  0
  -24.1853  -13.0439   20.9182 C   0  0  0  0  0  0
  -24.6384  -11.6892   20.8735 C   0  0  0  0  0  0
  -23.9051  -10.4290   21.0411 C   0  0  0  0  0  0
  -24.3600   -9.4207   21.9193 C   0  0  0  0  0  0
  -23.6281   -8.2241   22.0759 C   0  0  0  0  0  0
  -22.4268   -8.0275   21.3545 C   0  0  0  0  0  0
  -21.9902   -9.0251   20.4646 C   0  0  0  0  0  0
  -22.7222  -10.2128   20.3060 C   0  0  0  0  0  0
  -21.6850   -6.0735   22.5278 C   0  0  0  0  0  0
  -21.4011   -6.5634   23.8212 C   0  0  0  0  0  0
  -21.3656   -5.6789   24.9170 C   0  0  0  0  0  0
  -21.6043   -4.3057   24.7227 C   0  0  0  0  0  0
  -21.8821   -3.8140   23.4348 C   0  0  0  0  0  0
  -21.9194   -4.6959   22.3399 C   0  0  0  0  0  0
  -22.7874  -13.5241   21.1849 C   0  0  0  0  0  0
  -22.1663   -4.2147   21.0984 F   0  0  0  0  0  0
  -21.5628   -3.4538   25.7738 F   0  0  0  0  0  0
  -30.0422  -13.2412   20.4485 N   0  0  0  0  0  0
  -26.3030  -12.9292   20.3350 N   0  0  0  0  0  0
  -25.9304  -11.6465   20.5750 N   0  0  0  0  0  0
  -22.0495  -12.8245   22.0378 N   0  0  0  0  0  0
  -25.4350  -15.1851   20.4064 N   0  0  0  0  0  0
  -31.8051  -14.6467   20.0771 O   0  0  0  0  0  0
  -21.6633   -6.8872   21.4241 O   0  0  0  0  0  0
  -22.3577  -14.5573   20.6701 O   0  0  0  0  0  0
  -24.6140  -31.8711   23.2140 C   0  0  0  0  0  0
  -25.9046  -32.4813   23.8432 C   0  0  1  0  0  0
  -27.2370  -27.4427   20.0855 C   0  0  0  0  0  0
  -25.5945  -33.8625   24.2349 N   0  0  0  0  0  0
  -23.4034  -30.4990   21.5498 C   0  0  2  0  0  0
  -24.8500  -28.9702   20.1185 C   0  0  0  0  0  0
  -22.7397  -29.4692   22.4930 C   0  0  0  0  0  0
  -18.0282  -28.1364   22.8492 C   0  0  0  0  0  0
  -24.1509  -36.7281   23.2634 C   0  0  0  0  0  0
  -25.9357  -30.8369   21.3754 C   0  0  0  0  0  0
  -26.0108  -29.4770   20.7100 C   0  0  0  0  0  0
  -27.2046  -28.7205   20.6918 C   0  0  0  0  0  0
  -26.0351  -26.9277   19.5414 C   0  0  0  0  0  0
  -24.8544  -27.6912   19.5422 C   0  0  0  0  0  0
  -23.6191  -29.8437   20.1594 C   0  0  0  0  0  0
  -25.4129  -36.3094   24.0340 C   0  0  1  0  0  0
  -20.5874  -28.3667   23.1307 C   0  0  2  0  0  0
  -20.6776  -26.9402   22.5402 C   0  0  0  0  0  0
  -19.5750  -26.6378   21.5210 C   0  0  0  0  0  0
  -18.1930  -26.7919   22.1628 C   0  0  0  0  0  0
  -19.1524  -28.8827   23.2914 C   0  0  0  0  0  0
  -18.9464  -30.1432   23.8918 C   0  0  0  0  0  0
  -17.6462  -30.6575   24.0567 C   0  0  0  0  0  0
  -25.9058  -34.9462   23.5126 C   0  0  0  0  0  0
  -16.5352  -29.9084   23.6315 C   0  0  0  0  0  0
  -16.7276  -28.6506   23.0347 C   0  0  0  0  0  0
  -26.4495  -31.6604   25.0756 C   0  0  0  0  0  0
  -25.3750  -31.3744   26.1475 C   0  0  0  0  0  0
  -27.0349  -30.3045   24.6170 C   0  0  0  0  0  0
  -27.6056  -32.4324   25.7522 C   0  0  0  0  0  0
  -27.5588  -37.1807   24.8465 C   0  0  0  0  0  0
  -21.4119  -29.3068   22.3704 N   0  0  0  0  0  0
  -26.4310  -37.3782   23.9396 N   0  0  0  0  0  0
  -24.6675  -31.0825   22.1035 N   0  0  0  0  0  0
  -23.4158  -28.8192   23.2938 O   0  0  0  0  0  0
  -28.4379  -26.7576   20.0853 O   0  0  0  0  0  0
  -26.5586  -34.8911   22.4659 O   0  0  0  0  0  0
  -23.5339  -32.1486   23.7510 O   0  0  0  0  0  0
  -27.7696  -19.9679   23.2995 C   0  0  0  0  0  0
  -27.1423  -21.3909   19.7059 C   0  0  0  0  0  0
  -28.7578  -17.6376   19.8450 C   0  0  0  0  0  0
  -29.0345  -24.3737   20.0333 C   0  0  0  0  0  0
  -30.9214  -16.3913   22.1171 C   0  0  0  0  0  0
  -28.0246  -23.9138   21.1071 C   0  0  0  0  0  0
  -30.8120  -17.6404   21.2136 C   0  0  0  0  0  0
  -29.2810  -19.6047   21.2514 C   0  0  0  0  0  0
  -28.6280  -25.6225   19.2333 C   0  0  0  0  0  0
  -27.8797  -20.0557   21.7621 C   0  0  2  0  0  0
  -27.4229  -21.4499   21.2240 C   0  0  1  0  0  0
  -30.2472  -15.2014   21.5894 N   0  0  0  0  0  0
  -28.3472  -22.5548   21.6183 N   0  3  0  0  0  0
  -29.4097  -18.1265   21.0891 N   0  3  1  0  0  0
  -31.4596  -12.3890   19.0892 H   0  0  0  0  0  0
  -30.3145  -11.2692   19.7677 H   0  0  0  0  0  0
  -29.7147  -11.8020   17.3972 H   0  0  0  0  0  0
  -29.6507  -13.5067   17.7700 H   0  0  0  0  0  0
  -27.8192  -11.3119   18.7983 H   0  0  0  0  0  0
  -27.3515  -12.6502   17.7855 H   0  0  0  0  0  0
  -27.7193  -14.2500   19.5959 H   0  0  0  0  0  0
  -28.6672  -11.9023   21.3056 H   0  0  0  0  0  0
  -28.4503  -13.5201   21.8826 H   0  0  0  0  0  0
  -25.2745   -9.5684   22.4769 H   0  0  0  0  0  0
  -23.9989   -7.4633   22.7483 H   0  0  0  0  0  0
  -21.0833   -8.8765   19.8949 H   0  0  0  0  0  0
  -22.3686  -10.9670   19.6166 H   0  0  0  0  0  0
  -21.1999   -7.6145   23.9714 H   0  0  0  0  0  0
  -21.1475   -6.0521   25.9078 H   0  0  0  0  0  0
  -22.0603   -2.7608   23.2850 H   0  0  0  0  0  0
  -22.4077  -11.9876   22.4743 H   0  0  0  0  0  0
  -21.1115  -13.1283   22.2580 H   0  0  0  0  0  0
  -24.6640  -15.8377   20.5040 H   0  0  0  0  0  0
  -26.2686  -15.6069   20.0231 H   0  0  0  0  0  0
  -26.7105  -32.5528   23.1186 H   0  0  0  0  0  0
  -25.0168  -33.9820   25.0541 H   0  0  0  0  0  0
  -22.6931  -31.3170   21.4095 H   0  0  0  0  0  0
  -23.3791  -35.9599   23.3308 H   0  0  0  0  0  0
  -24.3609  -36.8877   22.2049 H   0  0  0  0  0  0
  -23.7261  -37.6490   23.6637 H   0  0  0  0  0  0
  -26.0658  -31.6184   20.6253 H   0  0  0  0  0  0
  -26.8108  -30.8646   22.0133 H   0  0  0  0  0  0
  -28.1052  -29.1162   21.1416 H   0  0  0  0  0  0
  -25.9550  -25.9335   19.1316 H   0  0  0  0  0  0
  -23.9487  -27.2837   19.1178 H   0  0  0  0  0  0
  -23.7397  -30.6260   19.4058 H   0  0  0  0  0  0
  -22.7443  -29.2725   19.8485 H   0  0  0  0  0  0
  -25.1311  -36.1958   25.0848 H   0  0  0  0  0  0
  -20.9976  -28.3213   24.1419 H   0  0  0  0  0  0
  -20.5705  -26.2256   23.3582 H   0  0  0  0  0  0
  -21.6647  -26.7454   22.1166 H   0  0  0  0  0  0
  -19.6906  -25.6294   21.1237 H   0  0  0  0  0  0
  -19.6687  -27.3197   20.6747 H   0  0  0  0  0  0
  -17.4194  -26.6677   21.4035 H   0  0  0  0  0  0
  -18.0312  -26.0066   22.9029 H   0  0  0  0  0  0
  -19.7953  -30.7233   24.2298 H   0  0  0  0  0  0
  -17.5039  -31.6266   24.5149 H   0  0  0  0  0  0
  -15.5366  -30.2986   23.7648 H   0  0  0  0  0  0
  -15.8681  -28.0838   22.7027 H   0  0  0  0  0  0
  -24.5893  -30.7129   25.7790 H   0  0  0  0  0  0
  -24.8992  -32.2941   26.4904 H   0  0  0  0  0  0
  -25.8082  -30.8900   27.0233 H   0  0  0  0  0  0
  -26.2937  -29.6785   24.1181 H   0  0  0  0  0  0
  -27.4065  -29.7292   25.4658 H   0  0  0  0  0  0
  -27.8796  -30.4345   23.9391 H   0  0  0  0  0  0
  -27.2659  -33.3601   26.2137 H   0  0  0  0  0  0
  -28.3872  -32.6916   25.0361 H   0  0  0  0  0  0
  -28.0724  -31.8425   26.5421 H   0  0  0  0  0  0
  -28.2585  -38.0121   24.7508 H   0  0  0  0  0  0
  -28.1107  -36.2639   24.6303 H   0  0  0  0  0  0
  -27.2285  -37.1455   25.8865 H   0  0  0  0  0  0
  -20.9206  -29.8900   21.7071 H   0  0  0  0  0  0
  -26.0191  -38.2853   24.1419 H   0  0  0  0  0  0
  -27.9982  -18.9648   23.6628 H   0  0  0  0  0  0
  -26.7561  -20.1988   23.6343 H   0  0  0  0  0  0
  -28.4467  -20.6576   23.8045 H   0  0  0  0  0  0
  -26.5118  -20.5324   19.4715 H   0  0  0  0  0  0
  -28.0508  -21.3014   19.1113 H   0  0  0  0  0  0
  -26.5978  -22.2653   19.3507 H   0  0  0  0  0  0
  -28.8337  -16.5549   19.7527 H   0  0  0  0  0  0
  -29.2238  -18.0725   18.9594 H   0  0  0  0  0  0
  -27.6967  -17.8826   19.8128 H   0  0  0  0  0  0
  -29.2023  -23.5707   19.3148 H   0  0  0  0  0  0
  -29.9984  -24.5621   20.5072 H   0  0  0  0  0  0
  -30.5128  -16.6141   23.1044 H   0  0  0  0  0  0
  -31.9746  -16.1579   22.2843 H   0  0  0  0  0  0
  -27.0004  -23.9647   20.7385 H   0  0  0  0  0  0
  -28.0643  -24.6103   21.9461 H   0  0  0  0  0  0
  -31.2466  -17.4508   20.2304 H   0  0  0  0  0  0
  -31.4486  -18.4093   21.6539 H   0  0  0  0  0  0
  -30.0213  -19.9844   21.9564 H   0  0  0  0  0  0
  -29.5354  -20.0722   20.3009 H   0  0  0  0  0  0
  -27.8088  -25.3776   18.5632 H   0  0  0  0  0  0
  -29.4524  -25.8754   18.5663 H   0  0  0  0  0  0
  -27.1392  -19.3523   21.3865 H   0  0  0  0  0  0
  -26.4633  -21.6765   21.6956 H   0  0  0  0  0  0
  -29.3863  -14.9073   22.0285 H   0  0  0  0  0  0
  -28.3311  -22.6120   22.6261 H   0  0  0  0  0  0
  -29.2985  -22.3429   21.3656 H   0  0  0  0  0  0
  -28.9245  -17.7118   21.8697 H   0  0  0  0  0  0
  1 25  1  0  0  0
  1 30  2  0  0  0
  1 82  1  0  0  0
  2  3  1  0  0  0
  2 25  1  0  0  0
  2 85  1  0  0  0
  2 86  1  0  0  0
  3  4  1  0  0  0
  3 87  1  0  0  0
  3 88  1  0  0  0
  4  5  1  0  0  0
  4 89  1  0  0  0
  4 90  1  0  0  0
  5  6  1  0  0  0
  5 26  1  0  0  0
  5 91  1  0  0  0
  6 25  1  0  0  0
  6 92  1  0  0  0
  6 93  1  0  0  0
  7  8  2  0  0  0
  7 26  1  0  0  0
  7 29  1  0  0  0
  8  9  1  0  0  0
  8 22  1  0  0  0
  9 10  1  0  0  0
  9 27  2  0  0  0
 10 11  2  0  0  0
 10 15  1  0  0  0
 11 12  1  0  0  0
 11 94  1  0  0  0
 12 13  2  0  0  0
 12 95  1  0  0  0
 13 14  1  0  0  0
 13 31  1  0  0  0
 14 15  2  0  0  0
 14 96  1  0  0  0
 15 97  1  0  0  0
 16 17  2  0  0  0
 16 21  1  0  0  0
 16 31  1  0  0  0
 17 18  1  0  0  0
 17 98  1  0  0  0
 18 19  2  0  0  0
 18 99  1  0  0  0
 19 20  1  0  0  0
 19 24  1  0  0  0
 20 21  2  0  0  0
 20100  1  0  0  0
 21 23  1  0  0  0
 22 28  1  0  0  0
 22 32  2  0  0  0
 26 27  1  0  0  0
 28101  1  0  0  0
 28102  1  0  0  0
 29103  1  0  0  0
 29104  1  0  0  0
 33 34  1  0  0  0
 33 66  1  0  0  0
 33 70  2  0  0  0
 34 36  1  0  0  0
 34 59  1  0  0  0
 34105  1  0  0  0
 35 44  2  0  0  0
 35 45  1  0  0  0
 35 68  1  0  0  0
 36 56  1  0  0  0
 36106  1  0  0  0
 37 39  1  0  0  0
 37 47  1  0  0  0
 37 66  1  0  0  0
 37107  1  0  0  0
 38 43  2  0  0  0
 38 46  1  0  0  0
 38 47  1  0  0  0
 39 64  1  0  0  0
 39 67  2  0  0  0
 40 52  1  0  0  0
 40 53  2  0  0  0
 40 58  1  0  0  0
 41108  1  0  0  0
 41109  1  0  0  0
 41110  1  0  0  0
 41 48  1  0  0  0
 42 43  1  0  0  0
 42 66  1  0  0  0
 42111  1  0  0  0
 42112  1  0  0  0
 43 44  1  0  0  0
 44113  1  0  0  0
 45 46  2  0  0  0
 45114  1  0  0  0
 46115  1  0  0  0
 47116  1  0  0  0
 47117  1  0  0  0
 48 56  1  0  0  0
 48 65  1  0  0  0
 48118  1  0  0  0
 49 50  1  0  0  0
 49 53  1  0  0  0
 49 64  1  0  0  0
 49119  1  0  0  0
 50 51  1  0  0  0
 50120  1  0  0  0
 50121  1  0  0  0
 51 52  1  0  0  0
 51122  1  0  0  0
 51123  1  0  0  0
 52124  1  0  0  0
 52125  1  0  0  0
 53 54  1  0  0  0
 54 55  2  0  0  0
 54126  1  0  0  0
 55 57  1  0  0  0
 55127  1  0  0  0
 56 69  2  0  0  0
 57 58  2  0  0  0
 57128  1  0  0  0
 58129  1  0  0  0
 59 60  1  0  0  0
 59 61  1  0  0  0
 59 62  1  0  0  0
 60130  1  0  0  0
 60131  1  0  0  0
 60132  1  0  0  0
 61133  1  0  0  0
 61134  1  0  0  0
 61135  1  0  0  0
 62136  1  0  0  0
 62137  1  0  0  0
 62138  1  0  0  0
 63 65  1  0  0  0
 63139  1  0  0  0
 63140  1  0  0  0
 63141  1  0  0  0
 64142  1  0  0  0
 65143  1  0  0  0
 68 79  1  0  0  0
 71144  1  0  0  0
 71145  1  0  0  0
 71146  1  0  0  0
 71 80  1  0  0  0
 72147  1  0  0  0
 72148  1  0  0  0
 72149  1  0  0  0
 72 81  1  0  0  0
 73150  1  0  0  0
 73151  1  0  0  0
 73152  1  0  0  0
 73 84  1  0  0  0
 74 76  1  0  0  0
 74 79  1  0  0  0
 74153  1  0  0  0
 74154  1  0  0  0
 75 77  1  0  0  0
 75 82  1  0  0  0
 75155  1  0  0  0
 75156  1  0  0  0
 76 83  1  0  0  0
 76157  1  0  0  0
 76158  1  0  0  0
 77 84  1  0  0  0
 77159  1  0  0  0
 77160  1  0  0  0
 78 80  1  0  0  0
 78 84  1  0  0  0
 78161  1  0  0  0
 78162  1  0  0  0
 79163  1  0  0  0
 79164  1  0  0  0
 80 81  1  0  0  0
 80165  1  0  0  0
 81 83  1  0  0  0
 81166  1  0  0  0
 82167  1  0  0  0
 83168  1  0  0  0
 83169  1  0  0  0
 84170  1  0  0  0
M  CHG  2  83   1  84   1
M  ISO  4   1 100  68 101  79 101  82 100
M  END
> <chiral flag>
0

> <version>
0

> <s_m_source_file>
/data/baiqing/PycharmProjects/Reinvent-master-3.2/result/LINK_invent/BTK/process_docking_weight1_custom_sum_contain_oxygen_bond_distance_aromatic_linkinvent_7_9_3/rearranged_h_0096.sdf

> <i_m_source_file_index>
11

> <r_mmod_Potential_Energy-OPLS-2005>
-300.832366943359

> <r_mmod_Stretch_Energy-OPLS-2005>
36.5227432250977

> <r_mmod_Bend_Energy-OPLS-2005>
111.534622192383

> <r_mmod_Torsional_Energy-OPLS-2005>
281.101165771484

> <r_mmod_Improper_Torsional_Energy-OPLS-2005>
2.08757066726685

> <r_mmod_Van_der_Waal_Energy-OPLS-2005>
135.850616455078

> <r_mmod_Electrostatic_Energy-OPLS-2005>
90.2211685180664

> <r_mmod_Solvation_Energy-OPLS-2005>
-967.075805664062

> <b_mmod_Minimization_Converged-OPLS-2005>
0

> <r_mmod_RMS_Derivative-OPLS-2005>
3.52949714660645

$$$$
11
                    3D
 Structure written by MMmdl.
164172  0  0  1  0            999 V2000
  -30.6132  -14.7249   20.4608 C   0  0  0  0  0  0
  -30.4393  -12.4398   19.4810 C   0  0  0  0  0  0
  -29.5162  -12.5090   18.2425 C   0  0  0  0  0  0
  -28.0413  -12.3343   18.6506 C   0  0  0  0  0  0
  -27.6499  -13.2275   19.8566 C   0  0  2  0  0  0
  -28.6938  -13.1385   20.9942 C   0  0  0  0  0  0
  -25.2554  -13.8192   20.5673 C   0  0  0  0  0  0
  -24.1837  -13.0446   20.9198 C   0  0  0  0  0  0
  -24.6439  -11.6922   20.8778 C   0  0  0  0  0  0
  -23.9124  -10.4308   21.0448 C   0  0  0  0  0  0
  -24.3661   -9.4199   21.9193 C   0  0  0  0  0  0
  -23.6330   -8.2233   22.0736 C   0  0  0  0  0  0
  -22.4299   -8.0308   21.3538 C   0  0  0  0  0  0
  -21.9969   -9.0286   20.4627 C   0  0  0  0  0  0
  -22.7318  -10.2156   20.3067 C   0  0  0  0  0  0
  -21.6845   -6.0791   22.5293 C   0  0  0  0  0  0
  -21.4009   -6.5675   23.8237 C   0  0  0  0  0  0
  -21.3660   -5.6803   24.9186 C   0  0  0  0  0  0
  -21.6036   -4.3070   24.7215 C   0  0  0  0  0  0
  -21.8817   -3.8193   23.4327 C   0  0  0  0  0  0
  -21.9183   -4.7026   22.3403 C   0  0  0  0  0  0
  -22.7858  -13.5221   21.1859 C   0  0  0  0  0  0
  -22.1648   -4.2227   21.0978 F   0  0  0  0  0  0
  -21.5635   -3.4535   25.7721 F   0  0  0  0  0  0
  -30.0050  -13.4887   20.4316 N   0  0  0  0  0  0
  -26.2993  -12.9389   20.3290 N   0  0  0  0  0  0
  -25.9368  -11.6544   20.5778 N   0  0  0  0  0  0
  -22.0493  -12.8204   22.0400 N   0  0  0  0  0  0
  -25.4254  -15.1912   20.4096 N   0  0  0  0  0  0
  -31.7675  -14.8569   20.0506 O   0  0  0  0  0  0
  -21.6624   -6.8930   21.4260 O   0  0  0  0  0  0
  -22.3549  -14.5529   20.6717 O   0  0  0  0  0  0
  -24.6265  -31.8615   23.1967 C   0  0  0  0  0  0
  -25.9094  -32.4811   23.8348 C   0  0  1  0  0  0
  -27.2205  -27.2918   20.1346 C   0  0  0  0  0  0
  -25.5919  -33.8623   24.2297 N   0  0  0  0  0  0
  -23.4226  -30.4839   21.5391 C   0  0  2  0  0  0
  -24.8696  -28.9245   20.1158 C   0  0  0  0  0  0
  -22.7486  -29.4646   22.4881 C   0  0  0  0  0  0
  -18.0319  -28.1403   22.8504 C   0  0  0  0  0  0
  -24.1466  -36.7297   23.2642 C   0  0  0  0  0  0
  -25.9628  -30.7816   21.3695 C   0  0  0  0  0  0
  -26.0372  -29.3994   20.7270 C   0  0  0  0  0  0
  -27.2181  -28.5963   20.7250 C   0  0  0  0  0  0
  -26.0389  -26.8783   19.4836 C   0  0  0  0  0  0
  -24.8717  -27.6693   19.4867 C   0  0  0  0  0  0
  -23.6437  -29.8168   20.1546 C   0  0  0  0  0  0
  -25.4102  -36.3130   24.0353 C   0  0  1  0  0  0
  -20.5915  -28.3723   23.1281 C   0  0  2  0  0  0
  -20.6804  -26.9442   22.5414 C   0  0  0  0  0  0
  -19.5764  -26.6390   21.5234 C   0  0  0  0  0  0
  -18.1942  -26.7944   22.1629 C   0  0  0  0  0  0
  -19.1570  -28.8875   23.2886 C   0  0  0  0  0  0
  -18.9493  -30.1480   23.8900 C   0  0  0  0  0  0
  -17.6495  -30.6603   24.0593 C   0  0  0  0  0  0
  -25.9036  -34.9503   23.5137 C   0  0  0  0  0  0
  -16.5376  -29.9115   23.6332 C   0  0  0  0  0  0
  -16.7306  -28.6526   23.0337 C   0  0  0  0  0  0
  -26.4485  -31.6613   25.0719 C   0  0  0  0  0  0
  -25.3703  -31.3779   26.1443 C   0  0  0  0  0  0
  -27.0322  -30.3043   24.6150 C   0  0  0  0  0  0
  -27.6045  -32.4341   25.7502 C   0  0  0  0  0  0
  -27.5579  -37.1830   24.8483 C   0  0  0  0  0  0
  -21.4190  -29.3087   22.3661 N   0  0  0  0  0  0
  -26.4282  -37.3828   23.9436 N   0  0  0  0  0  0
  -24.6896  -31.0610   22.0923 N   0  0  0  0  0  0
  -23.4208  -28.8184   23.2958 O   0  0  0  0  0  0
  -28.3235  -26.4157   20.1403 O   0  0  0  0  0  0
  -26.5585  -34.8971   22.4699 O   0  0  0  0  0  0
  -23.5423  -32.1400   23.7291 O   0  0  0  0  0  0
  -31.1840  -18.7520   21.4149 C   0  0  0  0  0  0
  -31.5719  -20.0388   21.8283 C   0  0  0  0  0  0
  -30.7739  -21.1712   21.4840 C   0  0  0  0  0  0
  -30.0225  -18.5734   20.6598 C   0  0  0  0  0  0
  -29.5637  -20.9714   20.7507 C   0  0  0  0  0  0
  -31.2375  -22.5698   21.8921 C   0  0  0  0  0  0
  -34.0502  -20.4765   21.6246 C   0  0  0  0  0  0
  -26.9703  -24.8837   21.6827 C   0  0  0  0  0  0
  -32.8961  -20.1416   22.5784 C   0  0  0  0  0  0
  -28.5266  -22.1418   20.3777 C   0  0  0  0  0  0
  -29.7531  -17.1583   19.9984 C   0  0  0  0  0  0
  -28.8631  -23.7429   20.2463 C   0  0  0  0  0  0
  -28.2943  -25.1267   20.9126 C   0  0  2  0  0  0
  -29.2315  -19.6759   20.3624 N   0  0  0  0  0  0
  -29.8224  -15.8248   20.7321 N   0  0  0  0  0  0
  -31.4834  -12.5585   19.1846 H   0  0  0  0  0  0
  -30.3781  -11.4590   19.9543 H   0  0  0  0  0  0
  -29.8012  -11.7464   17.5163 H   0  0  0  0  0  0
  -29.6408  -13.4697   17.7414 H   0  0  0  0  0  0
  -27.8883  -11.2841   18.9022 H   0  0  0  0  0  0
  -27.3891  -12.5398   17.8009 H   0  0  0  0  0  0
  -27.6533  -14.2505   19.4826 H   0  0  0  0  0  0
  -28.7207  -12.1315   21.4162 H   0  0  0  0  0  0
  -28.4289  -13.8045   21.8143 H   0  0  0  0  0  0
  -25.2819   -9.5648   22.4743 H   0  0  0  0  0  0
  -24.0058   -7.4612   22.7434 H   0  0  0  0  0  0
  -21.0911   -8.8841   19.8904 H   0  0  0  0  0  0
  -22.3836  -10.9708   19.6166 H   0  0  0  0  0  0
  -21.1987   -7.6182   23.9780 H   0  0  0  0  0  0
  -21.1479   -6.0508   25.9089 H   0  0  0  0  0  0
  -22.0592   -2.7665   23.2788 H   0  0  0  0  0  0
  -22.4130  -11.9883   22.4836 H   0  0  0  0  0  0
  -21.1094  -13.1203   22.2562 H   0  0  0  0  0  0
  -24.6591  -15.8458   20.5219 H   0  0  0  0  0  0
  -26.2698  -15.6283   20.0624 H   0  0  0  0  0  0
  -26.7151  -32.5477   23.1076 H   0  0  0  0  0  0
  -25.0141  -33.9789   25.0496 H   0  0  0  0  0  0
  -22.7145  -31.3022   21.3941 H   0  0  0  0  0  0
  -23.3761  -35.9593   23.3306 H   0  0  0  0  0  0
  -24.3540  -36.8896   22.2049 H   0  0  0  0  0  0
  -23.7178  -37.6501   23.6625 H   0  0  0  0  0  0
  -26.0858  -31.5294   20.5845 H   0  0  0  0  0  0
  -26.8486  -30.8426   21.9920 H   0  0  0  0  0  0
  -28.1182  -28.9656   21.1973 H   0  0  0  0  0  0
  -26.0149  -25.9231   18.9784 H   0  0  0  0  0  0
  -23.9782  -27.3082   18.9969 H   0  0  0  0  0  0
  -23.7817  -30.5950   19.4023 H   0  0  0  0  0  0
  -22.7557  -29.2646   19.8422 H   0  0  0  0  0  0
  -25.1281  -36.1984   25.0847 H   0  0  0  0  0  0
  -21.0037  -28.3292   24.1393 H   0  0  0  0  0  0
  -20.5736  -26.2327   23.3618 H   0  0  0  0  0  0
  -21.6662  -26.7479   22.1191 H   0  0  0  0  0  0
  -19.6907  -25.6304   21.1262 H   0  0  0  0  0  0
  -19.6684  -27.3208   20.6773 H   0  0  0  0  0  0
  -17.4224  -26.6744   21.4008 H   0  0  0  0  0  0
  -18.0295  -26.0096   22.9024 H   0  0  0  0  0  0
  -19.7966  -30.7317   24.2211 H   0  0  0  0  0  0
  -17.5053  -31.6272   24.5213 H   0  0  0  0  0  0
  -15.5378  -30.3033   23.7651 H   0  0  0  0  0  0
  -15.8695  -28.0878   22.7010 H   0  0  0  0  0  0
  -24.5884  -30.7107   25.7801 H   0  0  0  0  0  0
  -24.8876  -32.2955   26.4810 H   0  0  0  0  0  0
  -25.8026  -30.9026   27.0243 H   0  0  0  0  0  0
  -26.2894  -29.6815   24.1142 H   0  0  0  0  0  0
  -27.4002  -29.7288   25.4646 H   0  0  0  0  0  0
  -27.8766  -30.4367   23.9380 H   0  0  0  0  0  0
  -27.2660  -33.3654   26.2042 H   0  0  0  0  0  0
  -28.3884  -32.6850   25.0354 H   0  0  0  0  0  0
  -28.0639  -31.8459   26.5441 H   0  0  0  0  0  0
  -28.2650  -38.0084   24.7552 H   0  0  0  0  0  0
  -28.1023  -36.2640   24.6276 H   0  0  0  0  0  0
  -27.2296  -37.1460   25.8884 H   0  0  0  0  0  0
  -20.9307  -29.8836   21.6942 H   0  0  0  0  0  0
  -26.0165  -38.2911   24.1433 H   0  0  0  0  0  0
  -31.8214  -17.9009   21.6159 H   0  0  0  0  0  0
  -31.2616  -23.2390   21.0331 H   0  0  0  0  0  0
  -32.2462  -22.6085   22.2881 H   0  0  0  0  0  0
  -30.5842  -22.9891   22.6586 H   0  0  0  0  0  0
  -35.0060  -20.5465   22.1438 H   0  0  0  0  0  0
  -33.8745  -21.4260   21.1220 H   0  0  0  0  0  0
  -34.1484  -19.7076   20.8571 H   0  0  0  0  0  0
  -26.1686  -24.6056   20.9983 H   0  0  0  0  0  0
  -26.6543  -25.7566   22.2562 H   0  0  0  0  0  0
  -27.0753  -24.0737   22.4058 H   0  0  0  0  0  0
  -33.1109  -19.1857   23.0593 H   0  0  0  0  0  0
  -32.8356  -20.8624   23.3960 H   0  0  0  0  0  0
  -27.6814  -22.0237   21.0619 H   0  0  0  0  0  0
  -28.1229  -21.8178   19.4148 H   0  0  0  0  0  0
  -28.7464  -17.2071   19.5856 H   0  0  0  0  0  0
  -30.4102  -17.1030   19.1294 H   0  0  0  0  0  0
  -28.9994  -23.5319   21.2981 H   0  0  0  0  0  0
  -27.9524  -23.8068   19.6493 H   0  0  0  0  0  0
  -29.0014  -25.4069   21.7017 H   0  0  0  0  0  0
  -28.9587  -15.5950   21.1964 H   0  0  0  0  0  0
  1 25  1  0  0  0
  1 30  2  0  0  0
  1 85  1  0  0  0
  2  3  1  0  0  0
  2 25  1  0  0  0
  2 86  1  0  0  0
  2 87  1  0  0  0
  3  4  1  0  0  0
  3 88  1  0  0  0
  3 89  1  0  0  0
  4  5  1  0  0  0
  4 90  1  0  0  0
  4 91  1  0  0  0
  5  6  1  0  0  0
  5 26  1  0  0  0
  5 92  1  0  0  0
  6 25  1  0  0  0
  6 93  1  0  0  0
  6 94  1  0  0  0
  7  8  2  0  0  0
  7 26  1  0  0  0
  7 29  1  0  0  0
  8  9  1  0  0  0
  8 22  1  0  0  0
  9 10  1  0  0  0
  9 27  2  0  0  0
 10 11  2  0  0  0
 10 15  1  0  0  0
 11 12  1  0  0  0
 11 95  1  0  0  0
 12 13  2  0  0  0
 12 96  1  0  0  0
 13 14  1  0  0  0
 13 31  1  0  0  0
 14 15  2  0  0  0
 14 97  1  0  0  0
 15 98  1  0  0  0
 16 17  2  0  0  0
 16 21  1  0  0  0
 16 31  1  0  0  0
 17 18  1  0  0  0
 17 99  1  0  0  0
 18 19  2  0  0  0
 18100  1  0  0  0
 19 20  1  0  0  0
 19 24  1  0  0  0
 20 21  2  0  0  0
 20101  1  0  0  0
 21 23  1  0  0  0
 22 28  1  0  0  0
 22 32  2  0  0  0
 26 27  1  0  0  0
 28102  1  0  0  0
 28103  1  0  0  0
 29104  1  0  0  0
 29105  1  0  0  0
 33 34  1  0  0  0
 33 66  1  0  0  0
 33 70  2  0  0  0
 34 36  1  0  0  0
 34 59  1  0  0  0
 34106  1  0  0  0
 35 44  2  0  0  0
 35 45  1  0  0  0
 35 68  1  0  0  0
 36 56  1  0  0  0
 36107  1  0  0  0
 37 39  1  0  0  0
 37 47  1  0  0  0
 37 66  1  0  0  0
 37108  1  0  0  0
 38 43  2  0  0  0
 38 46  1  0  0  0
 38 47  1  0  0  0
 39 64  1  0  0  0
 39 67  2  0  0  0
 40 52  1  0  0  0
 40 53  2  0  0  0
 40 58  1  0  0  0
 41109  1  0  0  0
 41110  1  0  0  0
 41111  1  0  0  0
 41 48  1  0  0  0
 42 43  1  0  0  0
 42 66  1  0  0  0
 42112  1  0  0  0
 42113  1  0  0  0
 43 44  1  0  0  0
 44114  1  0  0  0
 45 46  2  0  0  0
 45115  1  0  0  0
 46116  1  0  0  0
 47117  1  0  0  0
 47118  1  0  0  0
 48 56  1  0  0  0
 48 65  1  0  0  0
 48119  1  0  0  0
 49 50  1  0  0  0
 49 53  1  0  0  0
 49 64  1  0  0  0
 49120  1  0  0  0
 50 51  1  0  0  0
 50121  1  0  0  0
 50122  1  0  0  0
 51 52  1  0  0  0
 51123  1  0  0  0
 51124  1  0  0  0
 52125  1  0  0  0
 52126  1  0  0  0
 53 54  1  0  0  0
 54 55  2  0  0  0
 54127  1  0  0  0
 55 57  1  0  0  0
 55128  1  0  0  0
 56 69  2  0  0  0
 57 58  2  0  0  0
 57129  1  0  0  0
 58130  1  0  0  0
 59 60  1  0  0  0
 59 61  1  0  0  0
 59 62  1  0  0  0
 60131  1  0  0  0
 60132  1  0  0  0
 60133  1  0  0  0
 61134  1  0  0  0
 61135  1  0  0  0
 61136  1  0  0  0
 62137  1  0  0  0
 62138  1  0  0  0
 62139  1  0  0  0
 63 65  1  0  0  0
 63140  1  0  0  0
 63141  1  0  0  0
 63142  1  0  0  0
 64143  1  0  0  0
 65144  1  0  0  0
 68 83  1  0  0  0
 71 72  2  0  0  0
 71 74  1  0  0  0
 71145  1  0  0  0
 72 73  1  0  0  0
 72 79  1  0  0  0
 73 75  2  0  0  0
 73 76  1  0  0  0
 74 81  1  0  0  0
 74 84  2  0  0  0
 75 80  1  0  0  0
 75 84  1  0  0  0
 76146  1  0  0  0
 76147  1  0  0  0
 76148  1  0  0  0
 77 79  1  0  0  0
 77149  1  0  0  0
 77150  1  0  0  0
 77151  1  0  0  0
 78152  1  0  0  0
 78153  1  0  0  0
 78154  1  0  0  0
 78 83  1  0  0  0
 79155  1  0  0  0
 79156  1  0  0  0
 80 82  1  0  0  0
 80157  1  0  0  0
 80158  1  0  0  0
 81 85  1  0  0  0
 81159  1  0  0  0
 81160  1  0  0  0
 82 83  1  0  0  0
 82161  1  0  0  0
 82162  1  0  0  0
 83163  1  0  0  0
 85164  1  0  0  0
M  ISO  4   1 100  68 101  83 101  85 100
M  END
> <chiral flag>
0

> <version>
0

> <s_m_source_file>
/data/baiqing/PycharmProjects/Reinvent-master-3.2/result/LINK_invent/BTK/process_docking_weight1_custom_sum_contain_oxygen_bond_distance_aromatic_linkinvent_7_9_3/rearranged_h_0096.sdf

> <i_m_source_file_index>
12

> <r_mmod_Potential_Energy-OPLS-2005>
134.999649047852

> <r_mmod_Stretch_Energy-OPLS-2005>
127.49836730957

> <r_mmod_Bend_Energy-OPLS-2005>
411.849609375

> <r_mmod_Torsional_Energy-OPLS-2005>
252.680603027344

> <r_mmod_Improper_Torsional_Energy-OPLS-2005>
8.15935611724854

> <r_mmod_Van_der_Waal_Energy-OPLS-2005>
162.480407714844

> <r_mmod_Electrostatic_Energy-OPLS-2005>
-675.549560546875

> <r_mmod_Solvation_Energy-OPLS-2005>
-223.514099121094

> <b_mmod_Minimization_Converged-OPLS-2005>
0

> <r_mmod_RMS_Derivative-OPLS-2005>
4.5413236618042

$$$$
12
                    3D
 Structure written by MMmdl.
181189  0  0  1  0            999 V2000
  -30.7345  -14.4738   20.5637 C   0  0  0  0  0  0
  -30.4091  -12.3058   19.4367 C   0  0  0  0  0  0
  -29.4942  -12.4946   18.2110 C   0  0  0  0  0  0
  -28.0162  -12.3622   18.6206 C   0  0  0  0  0  0
  -27.6576  -13.2154   19.8674 C   0  0  2  0  0  0
  -28.6971  -13.0392   20.9963 C   0  0  0  0  0  0
  -25.2541  -13.8161   20.5523 C   0  0  0  0  0  0
  -24.1829  -13.0443   20.9142 C   0  0  0  0  0  0
  -24.6407  -11.6919   20.8754 C   0  0  0  0  0  0
  -23.9082  -10.4296   21.0421 C   0  0  0  0  0  0
  -24.3629   -9.4207   21.9196 C   0  0  0  0  0  0
  -23.6295   -8.2247   22.0760 C   0  0  0  0  0  0
  -22.4278   -8.0291   21.3550 C   0  0  0  0  0  0
  -21.9909   -9.0279   20.4662 C   0  0  0  0  0  0
  -22.7258  -10.2146   20.3068 C   0  0  0  0  0  0
  -21.6864   -6.0732   22.5276 C   0  0  0  0  0  0
  -21.4029   -6.5630   23.8213 C   0  0  0  0  0  0
  -21.3647   -5.6778   24.9165 C   0  0  0  0  0  0
  -21.6041   -4.3048   24.7221 C   0  0  0  0  0  0
  -21.8828   -3.8143   23.4340 C   0  0  0  0  0  0
  -21.9203   -4.6958   22.3388 C   0  0  0  0  0  0
  -22.7870  -13.5266   21.1826 C   0  0  0  0  0  0
  -22.1689   -4.2134   21.0971 F   0  0  0  0  0  0
  -21.5601   -3.4537   25.7737 F   0  0  0  0  0  0
  -30.0268  -13.3187   20.4361 N   0  0  0  0  0  0
  -26.3011  -12.9370   20.3322 N   0  0  0  0  0  0
  -25.9349  -11.6526   20.5822 N   0  0  0  0  0  0
  -22.0499  -12.8299   22.0392 N   0  0  0  0  0  0
  -25.4159  -15.1847   20.3664 N   0  0  0  0  0  0
  -31.8710  -14.5986   20.0968 O   0  0  0  0  0  0
  -21.6653   -6.8886   21.4238 O   0  0  0  0  0  0
  -22.3581  -14.5578   20.6677 O   0  0  0  0  0  0
  -24.6161  -31.8674   23.2111 C   0  0  0  0  0  0
  -25.9053  -32.4822   23.8402 C   0  0  1  0  0  0
  -27.2326  -27.4172   20.0759 C   0  0  0  0  0  0
  -25.5905  -33.8620   24.2334 N   0  0  0  0  0  0
  -23.4046  -30.4929   21.5502 C   0  0  2  0  0  0
  -24.8495  -28.9589   20.1120 C   0  0  0  0  0  0
  -22.7413  -29.4655   22.4959 C   0  0  0  0  0  0
  -18.0276  -28.1397   22.8485 C   0  0  0  0  0  0
  -24.1476  -36.7299   23.2637 C   0  0  0  0  0  0
  -25.9377  -30.8222   21.3714 C   0  0  0  0  0  0
  -26.0112  -29.4558   20.7151 C   0  0  0  0  0  0
  -27.2005  -28.6870   20.7055 C   0  0  0  0  0  0
  -26.0438  -26.9355   19.4832 C   0  0  0  0  0  0
  -24.8599  -27.6955   19.4990 C   0  0  0  0  0  0
  -23.6151  -29.8312   20.1628 C   0  0  0  0  0  0
  -25.4094  -36.3107   24.0344 C   0  0  1  0  0  0
  -20.5866  -28.3679   23.1307 C   0  0  2  0  0  0
  -20.6761  -26.9405   22.5432 C   0  0  0  0  0  0
  -19.5748  -26.6393   21.5214 C   0  0  0  0  0  0
  -18.1921  -26.7948   22.1606 C   0  0  0  0  0  0
  -19.1530  -28.8848   23.2898 C   0  0  0  0  0  0
  -18.9464  -30.1449   23.8924 C   0  0  0  0  0  0
  -17.6464  -30.6590   24.0583 C   0  0  0  0  0  0
  -25.9034  -34.9476   23.5134 C   0  0  0  0  0  0
  -16.5356  -29.9104   23.6323 C   0  0  0  0  0  0
  -16.7270  -28.6526   23.0339 C   0  0  0  0  0  0
  -26.4478  -31.6602   25.0729 C   0  0  0  0  0  0
  -25.3749  -31.3737   26.1487 C   0  0  0  0  0  0
  -27.0283  -30.3026   24.6131 C   0  0  0  0  0  0
  -27.6079  -32.4306   25.7458 C   0  0  0  0  0  0
  -27.5585  -37.1782   24.8448 C   0  0  0  0  0  0
  -21.4143  -29.3034   22.3692 N   0  0  0  0  0  0
  -26.4272  -37.3801   23.9432 N   0  0  0  0  0  0
  -24.6707  -31.0755   22.1023 N   0  0  0  0  0  0
  -23.4173  -28.8193   23.3005 O   0  0  0  0  0  0
  -28.3976  -26.6680   20.0979 O   0  0  0  0  0  0
  -26.5596  -34.8925   22.4698 O   0  0  0  0  0  0
  -23.5355  -32.1445   23.7497 O   0  0  0  0  0  0
  -29.9485  -19.2524   20.7070 C   0  0  0  0  0  0
  -29.8939  -18.0941   21.4407 C   0  0  0  0  0  0
  -28.9998  -18.3463   22.5321 C   0  0  0  0  0  0
  -28.5494  -19.6462   22.4053 C   0  0  0  0  0  0
  -27.6014  -20.4157   23.2825 C   0  0  0  0  0  0
  -24.4698  -23.1933   17.3763 C   0  0  0  0  0  0
  -26.2311  -17.0060   23.0895 C   0  0  0  0  0  0
  -29.6898  -17.6295   24.8324 C   0  0  0  0  0  0
  -30.7588  -16.8622   21.1766 C   0  0  0  0  0  0
  -25.3972  -23.0324   18.5884 C   0  0  0  0  0  0
  -27.2635  -17.3157   24.1776 C   0  0  0  0  0  0
  -29.1348  -21.6471   20.8806 C   0  0  0  0  0  0
  -26.8619  -23.3726   18.2492 C   0  0  0  0  0  0
  -28.0851  -21.9149   19.7766 C   0  0  0  0  0  0
  -28.9443  -24.2734   19.3422 C   0  0  0  0  0  0
  -28.6986  -25.7891   18.9951 C   0  0  0  0  0  0
  -28.7210  -17.3677   23.6715 C   0  0  1  0  0  0
  -29.1852  -20.2342   21.3130 N   0  0  0  0  0  0
  -30.1075  -15.5423   21.0965 N   0  0  0  0  0  0
  -27.7559  -23.3519   19.4474 N   0  3  1  0  0  0
  -31.4564  -12.3747   19.1393 H   0  0  0  0  0  0
  -30.2863  -11.3054   19.8550 H   0  0  0  0  0  0
  -29.7324  -11.7566   17.4439 H   0  0  0  0  0  0
  -29.6723  -13.4736   17.7597 H   0  0  0  0  0  0
  -27.8281  -11.3083   18.8281 H   0  0  0  0  0  0
  -27.3707  -12.6262   17.7825 H   0  0  0  0  0  0
  -27.6942  -14.2583   19.5520 H   0  0  0  0  0  0
  -28.6691  -12.0201   21.3841 H   0  0  0  0  0  0
  -28.4602  -13.6862   21.8425 H   0  0  0  0  0  0
  -25.2767   -9.5670   22.4785 H   0  0  0  0  0  0
  -23.9988   -7.4634   22.7480 H   0  0  0  0  0  0
  -21.0831   -8.8839   19.8977 H   0  0  0  0  0  0
  -22.3737  -10.9703   19.6192 H   0  0  0  0  0  0
  -21.2030   -7.6141   23.9720 H   0  0  0  0  0  0
  -21.1457   -6.0501   25.9071 H   0  0  0  0  0  0
  -22.0602   -2.7604   23.2859 H   0  0  0  0  0  0
  -22.4074  -11.9983   22.4863 H   0  0  0  0  0  0
  -21.1104  -13.1364   22.2516 H   0  0  0  0  0  0
  -24.6472  -15.8369   20.4699 H   0  0  0  0  0  0
  -26.2667  -15.6259   20.0447 H   0  0  0  0  0  0
  -26.7113  -32.5528   23.1156 H   0  0  0  0  0  0
  -25.0043  -33.9779   25.0470 H   0  0  0  0  0  0
  -22.6938  -31.3106   21.4124 H   0  0  0  0  0  0
  -23.3756  -35.9615   23.3277 H   0  0  0  0  0  0
  -24.3591  -36.8933   22.2059 H   0  0  0  0  0  0
  -23.7195  -37.6479   23.6671 H   0  0  0  0  0  0
  -26.0588  -31.5897   20.6055 H   0  0  0  0  0  0
  -26.8228  -30.8711   21.9945 H   0  0  0  0  0  0
  -28.0958  -29.0665   21.1787 H   0  0  0  0  0  0
  -25.9995  -25.9660   19.0186 H   0  0  0  0  0  0
  -23.9635  -27.3017   19.0394 H   0  0  0  0  0  0
  -23.7338  -30.6118   19.4104 H   0  0  0  0  0  0
  -22.7359  -29.2610   19.8572 H   0  0  0  0  0  0
  -25.1260  -36.1971   25.0832 H   0  0  0  0  0  0
  -20.9966  -28.3274   24.1425 H   0  0  0  0  0  0
  -20.5622  -26.2299   23.3630 H   0  0  0  0  0  0
  -21.6641  -26.7424   22.1252 H   0  0  0  0  0  0
  -19.6909  -25.6304   21.1238 H   0  0  0  0  0  0
  -19.6701  -27.3207   20.6749 H   0  0  0  0  0  0
  -17.4196  -26.6715   21.3998 H   0  0  0  0  0  0
  -18.0294  -26.0080   22.8980 H   0  0  0  0  0  0
  -19.7939  -30.7259   24.2299 H   0  0  0  0  0  0
  -17.5025  -31.6262   24.5197 H   0  0  0  0  0  0
  -15.5361  -30.3024   23.7624 H   0  0  0  0  0  0
  -15.8664  -28.0856   22.7036 H   0  0  0  0  0  0
  -24.5958  -30.7019   25.7863 H   0  0  0  0  0  0
  -24.8901  -32.2899   26.4871 H   0  0  0  0  0  0
  -25.8122  -30.8990   27.0280 H   0  0  0  0  0  0
  -26.2818  -29.6789   24.1200 H   0  0  0  0  0  0
  -27.4028  -29.7269   25.4605 H   0  0  0  0  0  0
  -27.8678  -30.4305   23.9294 H   0  0  0  0  0  0
  -27.2731  -33.3594   26.2088 H   0  0  0  0  0  0
  -28.3851  -32.6876   25.0247 H   0  0  0  0  0  0
  -28.0794  -31.8398   26.5322 H   0  0  0  0  0  0
  -28.2584  -38.0100   24.7550 H   0  0  0  0  0  0
  -28.1097  -36.2643   24.6183 H   0  0  0  0  0  0
  -27.2332  -37.1326   25.8855 H   0  0  0  0  0  0
  -20.9298  -29.8772   21.6931 H   0  0  0  0  0  0
  -26.0160  -38.2865   24.1505 H   0  0  0  0  0  0
  -30.5344  -19.4859   19.8273 H   0  0  0  0  0  0
  -26.6109  -19.9640   23.2605 H   0  0  0  0  0  0
  -27.4628  -21.4519   22.9843 H   0  0  0  0  0  0
  -27.9483  -20.4133   24.3160 H   0  0  0  0  0  0
  -23.4388  -22.9537   17.6383 H   0  0  0  0  0  0
  -24.7648  -22.5325   16.5598 H   0  0  0  0  0  0
  -24.4853  -24.2174   16.9997 H   0  0  0  0  0  0
  -25.2192  -17.0405   23.4935 H   0  0  0  0  0  0
  -26.3889  -16.0065   22.6879 H   0  0  0  0  0  0
  -26.2806  -17.7151   22.2634 H   0  0  0  0  0  0
  -30.7258  -17.5442   24.5039 H   0  0  0  0  0  0
  -29.5452  -16.9145   25.6427 H   0  0  0  0  0  0
  -29.5550  -18.6305   25.2431 H   0  0  0  0  0  0
  -31.5118  -16.8148   21.9654 H   0  0  0  0  0  0
  -31.3079  -17.0523   20.2510 H   0  0  0  0  0  0
  -25.3112  -22.0100   18.9569 H   0  0  0  0  0  0
  -25.0434  -23.6804   19.3913 H   0  0  0  0  0  0
  -27.1845  -16.5433   24.9432 H   0  0  0  0  0  0
  -26.9976  -18.2410   24.6854 H   0  0  0  0  0  0
  -28.9701  -22.2892   21.7424 H   0  0  0  0  0  0
  -30.1254  -21.9143   20.5134 H   0  0  0  0  0  0
  -26.8550  -24.3357   17.7530 H   0  0  0  0  0  0
  -27.2384  -22.6888   17.4870 H   0  0  0  0  0  0
  -27.1619  -21.4163   20.0732 H   0  0  0  0  0  0
  -28.4240  -21.3998   18.8758 H   0  0  0  0  0  0
  -29.5204  -24.2429   20.2667 H   0  0  0  0  0  0
  -29.5982  -23.8611   18.5723 H   0  0  0  0  0  0
  -28.0726  -25.9607   18.1231 H   0  0  0  0  0  0
  -29.6631  -26.1646   18.6507 H   0  0  0  0  0  0
  -28.9418  -16.3710   23.2966 H   0  0  0  0  0  0
  -29.1585  -15.4479   21.4235 H   0  0  0  0  0  0
  -27.2122  -23.7076   20.2210 H   0  0  0  0  0  0
  1 25  1  0  0  0
  1 30  2  0  0  0
  1 89  1  0  0  0
  2  3  1  0  0  0
  2 25  1  0  0  0
  2 91  1  0  0  0
  2 92  1  0  0  0
  3  4  1  0  0  0
  3 93  1  0  0  0
  3 94  1  0  0  0
  4  5  1  0  0  0
  4 95  1  0  0  0
  4 96  1  0  0  0
  5  6  1  0  0  0
  5 26  1  0  0  0
  5 97  1  0  0  0
  6 25  1  0  0  0
  6 98  1  0  0  0
  6 99  1  0  0  0
  7  8  2  0  0  0
  7 26  1  0  0  0
  7 29  1  0  0  0
  8  9  1  0  0  0
  8 22  1  0  0  0
  9 10  1  0  0  0
  9 27  2  0  0  0
 10 11  2  0  0  0
 10 15  1  0  0  0
 11 12  1  0  0  0
 11100  1  0  0  0
 12 13  2  0  0  0
 12101  1  0  0  0
 13 14  1  0  0  0
 13 31  1  0  0  0
 14 15  2  0  0  0
 14102  1  0  0  0
 15103  1  0  0  0
 16 17  2  0  0  0
 16 21  1  0  0  0
 16 31  1  0  0  0
 17 18  1  0  0  0
 17104  1  0  0  0
 18 19  2  0  0  0
 18105  1  0  0  0
 19 20  1  0  0  0
 19 24  1  0  0  0
 20 21  2  0  0  0
 20106  1  0  0  0
 21 23  1  0  0  0
 22 28  1  0  0  0
 22 32  2  0  0  0
 26 27  1  0  0  0
 28107  1  0  0  0
 28108  1  0  0  0
 29109  1  0  0  0
 29110  1  0  0  0
 33 34  1  0  0  0
 33 66  1  0  0  0
 33 70  2  0  0  0
 34 36  1  0  0  0
 34 59  1  0  0  0
 34111  1  0  0  0
 35 44  2  0  0  0
 35 45  1  0  0  0
 35 68  1  0  0  0
 36 56  1  0  0  0
 36112  1  0  0  0
 37 39  1  0  0  0
 37 47  1  0  0  0
 37 66  1  0  0  0
 37113  1  0  0  0
 38 43  2  0  0  0
 38 46  1  0  0  0
 38 47  1  0  0  0
 39 64  1  0  0  0
 39 67  2  0  0  0
 40 52  1  0  0  0
 40 53  2  0  0  0
 40 58  1  0  0  0
 41114  1  0  0  0
 41115  1  0  0  0
 41116  1  0  0  0
 41 48  1  0  0  0
 42 43  1  0  0  0
 42 66  1  0  0  0
 42117  1  0  0  0
 42118  1  0  0  0
 43 44  1  0  0  0
 44119  1  0  0  0
 45 46  2  0  0  0
 45120  1  0  0  0
 46121  1  0  0  0
 47122  1  0  0  0
 47123  1  0  0  0
 48 56  1  0  0  0
 48 65  1  0  0  0
 48124  1  0  0  0
 49 50  1  0  0  0
 49 53  1  0  0  0
 49 64  1  0  0  0
 49125  1  0  0  0
 50 51  1  0  0  0
 50126  1  0  0  0
 50127  1  0  0  0
 51 52  1  0  0  0
 51128  1  0  0  0
 51129  1  0  0  0
 52130  1  0  0  0
 52131  1  0  0  0
 53 54  1  0  0  0
 54 55  2  0  0  0
 54132  1  0  0  0
 55 57  1  0  0  0
 55133  1  0  0  0
 56 69  2  0  0  0
 57 58  2  0  0  0
 57134  1  0  0  0
 58135  1  0  0  0
 59 60  1  0  0  0
 59 61  1  0  0  0
 59 62  1  0  0  0
 60136  1  0  0  0
 60137  1  0  0  0
 60138  1  0  0  0
 61139  1  0  0  0
 61140  1  0  0  0
 61141  1  0  0  0
 62142  1  0  0  0
 62143  1  0  0  0
 62144  1  0  0  0
 63 65  1  0  0  0
 63145  1  0  0  0
 63146  1  0  0  0
 63147  1  0  0  0
 64148  1  0  0  0
 65149  1  0  0  0
 68 86  1  0  0  0
 71 72  2  0  0  0
 71 88  1  0  0  0
 71150  1  0  0  0
 72 73  1  0  0  0
 72 79  1  0  0  0
 73 74  2  0  0  0
 73 87  1  0  0  0
 74 75  1  0  0  0
 74 88  1  0  0  0
 75151  1  0  0  0
 75152  1  0  0  0
 75153  1  0  0  0
 76 80  1  0  0  0
 76154  1  0  0  0
 76155  1  0  0  0
 76156  1  0  0  0
 77 81  1  0  0  0
 77157  1  0  0  0
 77158  1  0  0  0
 77159  1  0  0  0
 78160  1  0  0  0
 78161  1  0  0  0
 78162  1  0  0  0
 78 87  1  0  0  0
 79 89  1  0  0  0
 79163  1  0  0  0
 79164  1  0  0  0
 80 83  1  0  0  0
 80165  1  0  0  0
 80166  1  0  0  0
 81 87  1  0  0  0
 81167  1  0  0  0
 81168  1  0  0  0
 82 84  1  0  0  0
 82 88  1  0  0  0
 82169  1  0  0  0
 82170  1  0  0  0
 83171  1  0  0  0
 83172  1  0  0  0
 83 90  1  0  0  0
 84 90  1  0  0  0
 84173  1  0  0  0
 84174  1  0  0  0
 85 86  1  0  0  0
 85 90  1  0  0  0
 85175  1  0  0  0
 85176  1  0  0  0
 86177  1  0  0  0
 86178  1  0  0  0
 87179  1  0  0  0
 89180  1  0  0  0
 90181  1  0  0  0
M  CHG  1  90   1
M  ISO  4   1 100  68 101  86 101  89 100
M  END
> <chiral flag>
0

> <version>
0

> <s_m_source_file>
/data/baiqing/PycharmProjects/Reinvent-master-3.2/result/LINK_invent/BTK/process_docking_weight1_custom_sum_contain_oxygen_bond_distance_aromatic_linkinvent_7_9_3/rearranged_h_0096.sdf

> <i_m_source_file_index>
13

> <r_mmod_Potential_Energy-OPLS-2005>
-173.40104675293

> <r_mmod_Stretch_Energy-OPLS-2005>
46.115406036377

> <r_mmod_Bend_Energy-OPLS-2005>
138.895553588867

> <r_mmod_Torsional_Energy-OPLS-2005>
239.539031982422

> <r_mmod_Improper_Torsional_Energy-OPLS-2005>
4.11609077453613

> <r_mmod_Van_der_Waal_Energy-OPLS-2005>
124.506278991699

> <r_mmod_Electrostatic_Energy-OPLS-2005>
-319.065582275391

> <r_mmod_Solvation_Energy-OPLS-2005>
-424.3193359375

> <b_mmod_Minimization_Converged-OPLS-2005>
0

> <r_mmod_RMS_Derivative-OPLS-2005>
2.57140827178955

$$$$
13
                    3D
 Structure written by MMmdl.
160168  0  0  1  0            999 V2000
  -30.6300  -14.7191   20.4737 C   0  0  0  0  0  0
  -30.4314  -12.4446   19.4652 C   0  0  0  0  0  0
  -29.5067  -12.4958   18.2305 C   0  0  0  0  0  0
  -28.0347  -12.3188   18.6501 C   0  0  0  0  0  0
  -27.6414  -13.2243   19.8478 C   0  0  2  0  0  0
  -28.6869  -13.1605   20.9813 C   0  0  0  0  0  0
  -25.2515  -13.8180   20.5657 C   0  0  0  0  0  0
  -24.1813  -13.0435   20.9213 C   0  0  0  0  0  0
  -24.6394  -11.6909   20.8757 C   0  0  0  0  0  0
  -23.9063  -10.4295   21.0405 C   0  0  0  0  0  0
  -24.3610   -9.4213   21.9184 C   0  0  0  0  0  0
  -23.6296   -8.2239   22.0751 C   0  0  0  0  0  0
  -22.4280   -8.0271   21.3534 C   0  0  0  0  0  0
  -21.9909   -9.0258   20.4650 C   0  0  0  0  0  0
  -22.7232  -10.2142   20.3056 C   0  0  0  0  0  0
  -21.6859   -6.0733   22.5287 C   0  0  0  0  0  0
  -21.4020   -6.5643   23.8221 C   0  0  0  0  0  0
  -21.3656   -5.6794   24.9182 C   0  0  0  0  0  0
  -21.6036   -4.3057   24.7227 C   0  0  0  0  0  0
  -21.8825   -3.8144   23.4352 C   0  0  0  0  0  0
  -21.9197   -4.6959   22.3408 C   0  0  0  0  0  0
  -22.7838  -13.5228   21.1873 C   0  0  0  0  0  0
  -22.1657   -4.2142   21.0984 F   0  0  0  0  0  0
  -21.5625   -3.4548   25.7742 F   0  0  0  0  0  0
  -29.9869  -13.5067   20.3950 N   0  0  0  0  0  0
  -26.2932  -12.9366   20.3262 N   0  0  0  0  0  0
  -25.9322  -11.6517   20.5753 N   0  0  0  0  0  0
  -22.0473  -12.8239   22.0438 N   0  0  0  0  0  0
  -25.4229  -15.1900   20.4020 N   0  0  0  0  0  0
  -31.8239  -14.7985   20.1738 O   0  0  0  0  0  0
  -21.6631   -6.8875   21.4244 O   0  0  0  0  0  0
  -22.3537  -14.5526   20.6698 O   0  0  0  0  0  0
  -24.6315  -31.8551   23.1997 C   0  0  0  0  0  0
  -25.9139  -32.4755   23.8336 C   0  0  1  0  0  0
  -27.2037  -27.2549   20.1323 C   0  0  0  0  0  0
  -25.5928  -33.8559   24.2254 N   0  0  0  0  0  0
  -23.4277  -30.4809   21.5418 C   0  0  2  0  0  0
  -24.8726  -28.9297   20.1066 C   0  0  0  0  0  0
  -22.7499  -29.4611   22.4895 C   0  0  0  0  0  0
  -18.0290  -28.1399   22.8481 C   0  0  0  0  0  0
  -24.1477  -36.7280   23.2641 C   0  0  0  0  0  0
  -25.9750  -30.7658   21.3801 C   0  0  0  0  0  0
  -26.0453  -29.3887   20.7214 C   0  0  0  0  0  0
  -27.2169  -28.5640   20.7230 C   0  0  0  0  0  0
  -26.0172  -26.8752   19.4694 C   0  0  0  0  0  0
  -24.8647  -27.6817   19.4668 C   0  0  0  0  0  0
  -23.6449  -29.8187   20.1558 C   0  0  0  0  0  0
  -25.4106  -36.3072   24.0330 C   0  0  1  0  0  0
  -20.5896  -28.3711   23.1257 C   0  0  2  0  0  0
  -20.6774  -26.9426   22.5403 C   0  0  0  0  0  0
  -19.5752  -26.6389   21.5204 C   0  0  0  0  0  0
  -18.1934  -26.7939   22.1619 C   0  0  0  0  0  0
  -19.1548  -28.8870   23.2867 C   0  0  0  0  0  0
  -18.9471  -30.1461   23.8896 C   0  0  0  0  0  0
  -17.6475  -30.6602   24.0562 C   0  0  0  0  0  0
  -25.9052  -34.9443   23.5097 C   0  0  0  0  0  0
  -16.5361  -29.9105   23.6335 C   0  0  0  0  0  0
  -16.7277  -28.6519   23.0363 C   0  0  0  0  0  0
  -26.4495  -31.6599   25.0739 C   0  0  0  0  0  0
  -25.3721  -31.3771   26.1467 C   0  0  0  0  0  0
  -27.0346  -30.3015   24.6245 C   0  0  0  0  0  0
  -27.6049  -32.4342   25.7501 C   0  0  0  0  0  0
  -27.5572  -37.1793   24.8466 C   0  0  0  0  0  0
  -21.4209  -29.3056   22.3643 N   0  0  0  0  0  0
  -26.4280  -37.3775   23.9420 N   0  0  0  0  0  0
  -24.6972  -31.0514   22.0966 N   0  0  0  0  0  0
  -23.4205  -28.8145   23.2986 O   0  0  0  0  0  0
  -28.2702  -26.3263   20.1820 O   0  0  0  0  0  0
  -26.5628  -34.8921   22.4667 O   0  0  0  0  0  0
  -23.5464  -32.1365   23.7298 O   0  0  0  0  0  0
  -29.5149  -19.8069   21.2721 C   0  0  0  0  0  0
  -29.7195  -18.6145   20.5657 C   0  0  0  0  0  0
  -28.8234  -20.2229   19.2282 C   0  0  0  0  0  0
  -29.3716  -21.3066   17.0176 C   0  0  0  0  0  0
  -27.9071  -25.0414   22.1932 C   0  0  0  0  0  0
  -30.4400  -17.2630   20.9477 C   0  0  0  0  0  0
  -28.2719  -20.8482   17.9847 C   0  0  0  0  0  0
  -28.8337  -23.6190   20.2161 C   0  0  0  0  0  0
  -28.4116  -22.1855   20.8577 C   0  0  0  0  0  0
  -27.9657  -24.9255   20.6596 C   0  0  2  0  0  0
  -28.9645  -20.7960   20.4434 N   0  0  0  0  0  0
  -29.2774  -18.9483   19.3050 N   0  3  0  0  0  0
  -29.8903  -15.8658   20.7056 N   0  0  0  0  0  0
  -31.4705  -12.5714   19.1572 H   0  0  0  0  0  0
  -30.3810  -11.4673   19.9494 H   0  0  0  0  0  0
  -29.7887  -11.7205   17.5165 H   0  0  0  0  0  0
  -29.6321  -13.4480   17.7135 H   0  0  0  0  0  0
  -27.9016  -11.2723   18.9238 H   0  0  0  0  0  0
  -27.3716  -12.4965   17.8018 H   0  0  0  0  0  0
  -27.6386  -14.2437   19.4610 H   0  0  0  0  0  0
  -28.7228  -12.1648   21.4257 H   0  0  0  0  0  0
  -28.4248  -13.8473   21.7872 H   0  0  0  0  0  0
  -25.2749   -9.5691   22.4763 H   0  0  0  0  0  0
  -24.0014   -7.4622   22.7465 H   0  0  0  0  0  0
  -21.0839   -8.8782   19.8962 H   0  0  0  0  0  0
  -22.3684  -10.9684   19.6169 H   0  0  0  0  0  0
  -21.2018   -7.6154   23.9731 H   0  0  0  0  0  0
  -21.1463   -6.0516   25.9088 H   0  0  0  0  0  0
  -22.0604   -2.7603   23.2855 H   0  0  0  0  0  0
  -22.4067  -11.9904   22.4849 H   0  0  0  0  0  0
  -21.1087  -13.1284   22.2603 H   0  0  0  0  0  0
  -24.6556  -15.8442   20.5095 H   0  0  0  0  0  0
  -26.2628  -15.6260   20.0449 H   0  0  0  0  0  0
  -26.7209  -32.5396   23.1078 H   0  0  0  0  0  0
  -25.0061  -33.9687   25.0390 H   0  0  0  0  0  0
  -22.7253  -31.3046   21.3990 H   0  0  0  0  0  0
  -23.3745  -35.9606   23.3295 H   0  0  0  0  0  0
  -24.3567  -36.8911   22.2058 H   0  0  0  0  0  0
  -23.7223  -37.6476   23.6671 H   0  0  0  0  0  0
  -26.1158  -31.5264   20.6103 H   0  0  0  0  0  0
  -26.8522  -30.8130   22.0141 H   0  0  0  0  0  0
  -28.1118  -28.9051   21.2238 H   0  0  0  0  0  0
  -25.9601  -25.9266   18.9560 H   0  0  0  0  0  0
  -23.9715  -27.3316   18.9666 H   0  0  0  0  0  0
  -23.7716  -30.5968   19.4026 H   0  0  0  0  0  0
  -22.7609  -29.2562   19.8489 H   0  0  0  0  0  0
  -25.1287  -36.1911   25.0825 H   0  0  0  0  0  0
  -20.9992  -28.3291   24.1373 H   0  0  0  0  0  0
  -20.5651  -26.2326   23.3618 H   0  0  0  0  0  0
  -21.6646  -26.7437   22.1209 H   0  0  0  0  0  0
  -19.6913  -25.6294   21.1245 H   0  0  0  0  0  0
  -19.6690  -27.3185   20.6726 H   0  0  0  0  0  0
  -17.4199  -26.6672   21.4030 H   0  0  0  0  0  0
  -18.0345  -26.0087   22.9027 H   0  0  0  0  0  0
  -19.7951  -30.7268   24.2270 H   0  0  0  0  0  0
  -17.5041  -31.6281   24.5166 H   0  0  0  0  0  0
  -15.5365  -30.3017   23.7667 H   0  0  0  0  0  0
  -15.8669  -28.0838   22.7095 H   0  0  0  0  0  0
  -24.5869  -30.7144   25.7809 H   0  0  0  0  0  0
  -24.8940  -32.2955   26.4891 H   0  0  0  0  0  0
  -25.8031  -30.8948   27.0249 H   0  0  0  0  0  0
  -26.2945  -29.6758   24.1241 H   0  0  0  0  0  0
  -27.3991  -29.7288   25.4781 H   0  0  0  0  0  0
  -27.8835  -30.4288   23.9525 H   0  0  0  0  0  0
  -27.2664  -33.3657   26.2050 H   0  0  0  0  0  0
  -28.3869  -32.6876   25.0334 H   0  0  0  0  0  0
  -28.0703  -31.8487   26.5438 H   0  0  0  0  0  0
  -28.2592  -38.0087   24.7516 H   0  0  0  0  0  0
  -28.1062  -36.2620   24.6281 H   0  0  0  0  0  0
  -27.2295  -37.1433   25.8870 H   0  0  0  0  0  0
  -20.9394  -29.8798   21.6862 H   0  0  0  0  0  0
  -26.0151  -38.2843   24.1437 H   0  0  0  0  0  0
  -29.7257  -20.0162   22.3122 H   0  0  0  0  0  0
  -28.9391  -21.7679   16.1306 H   0  0  0  0  0  0
  -29.9841  -20.4668   16.6873 H   0  0  0  0  0  0
  -30.0337  -22.0380   17.4819 H   0  0  0  0  0  0
  -27.5531  -24.1247   22.6615 H   0  0  0  0  0  0
  -27.2157  -25.8256   22.5010 H   0  0  0  0  0  0
  -28.8859  -25.2771   22.6103 H   0  0  0  0  0  0
  -30.6362  -17.3116   22.0190 H   0  0  0  0  0  0
  -31.4306  -17.3127   20.4944 H   0  0  0  0  0  0
  -27.6275  -21.6763   18.2748 H   0  0  0  0  0  0
  -27.6330  -20.1031   17.5085 H   0  0  0  0  0  0
  -28.7824  -23.5443   19.1312 H   0  0  0  0  0  0
  -29.8837  -23.7999   20.4422 H   0  0  0  0  0  0
  -27.3286  -22.0958   20.7701 H   0  0  0  0  0  0
  -28.5936  -22.2479   21.9290 H   0  0  0  0  0  0
  -26.9552  -24.6638   20.3521 H   0  0  0  0  0  0
  -29.3026  -18.3158   18.5123 H   0  0  0  0  0  0
  -28.9043  -15.7424   20.8751 H   0  0  0  0  0  0
  1 25  1  0  0  0
  1 30  2  0  0  0
  1 83  1  0  0  0
  2  3  1  0  0  0
  2 25  1  0  0  0
  2 84  1  0  0  0
  2 85  1  0  0  0
  3  4  1  0  0  0
  3 86  1  0  0  0
  3 87  1  0  0  0
  4  5  1  0  0  0
  4 88  1  0  0  0
  4 89  1  0  0  0
  5  6  1  0  0  0
  5 26  1  0  0  0
  5 90  1  0  0  0
  6 25  1  0  0  0
  6 91  1  0  0  0
  6 92  1  0  0  0
  7  8  2  0  0  0
  7 26  1  0  0  0
  7 29  1  0  0  0
  8  9  1  0  0  0
  8 22  1  0  0  0
  9 10  1  0  0  0
  9 27  2  0  0  0
 10 11  2  0  0  0
 10 15  1  0  0  0
 11 12  1  0  0  0
 11 93  1  0  0  0
 12 13  2  0  0  0
 12 94  1  0  0  0
 13 14  1  0  0  0
 13 31  1  0  0  0
 14 15  2  0  0  0
 14 95  1  0  0  0
 15 96  1  0  0  0
 16 17  2  0  0  0
 16 21  1  0  0  0
 16 31  1  0  0  0
 17 18  1  0  0  0
 17 97  1  0  0  0
 18 19  2  0  0  0
 18 98  1  0  0  0
 19 20  1  0  0  0
 19 24  1  0  0  0
 20 21  2  0  0  0
 20 99  1  0  0  0
 21 23  1  0  0  0
 22 28  1  0  0  0
 22 32  2  0  0  0
 26 27  1  0  0  0
 28100  1  0  0  0
 28101  1  0  0  0
 29102  1  0  0  0
 29103  1  0  0  0
 33 34  1  0  0  0
 33 66  1  0  0  0
 33 70  2  0  0  0
 34 36  1  0  0  0
 34 59  1  0  0  0
 34104  1  0  0  0
 35 44  2  0  0  0
 35 45  1  0  0  0
 35 68  1  0  0  0
 36 56  1  0  0  0
 36105  1  0  0  0
 37 39  1  0  0  0
 37 47  1  0  0  0
 37 66  1  0  0  0
 37106  1  0  0  0
 38 43  2  0  0  0
 38 46  1  0  0  0
 38 47  1  0  0  0
 39 64  1  0  0  0
 39 67  2  0  0  0
 40 52  1  0  0  0
 40 53  2  0  0  0
 40 58  1  0  0  0
 41107  1  0  0  0
 41108  1  0  0  0
 41109  1  0  0  0
 41 48  1  0  0  0
 42 43  1  0  0  0
 42 66  1  0  0  0
 42110  1  0  0  0
 42111  1  0  0  0
 43 44  1  0  0  0
 44112  1  0  0  0
 45 46  2  0  0  0
 45113  1  0  0  0
 46114  1  0  0  0
 47115  1  0  0  0
 47116  1  0  0  0
 48 56  1  0  0  0
 48 65  1  0  0  0
 48117  1  0  0  0
 49 50  1  0  0  0
 49 53  1  0  0  0
 49 64  1  0  0  0
 49118  1  0  0  0
 50 51  1  0  0  0
 50119  1  0  0  0
 50120  1  0  0  0
 51 52  1  0  0  0
 51121  1  0  0  0
 51122  1  0  0  0
 52123  1  0  0  0
 52124  1  0  0  0
 53 54  1  0  0  0
 54 55  2  0  0  0
 54125  1  0  0  0
 55 57  1  0  0  0
 55126  1  0  0  0
 56 69  2  0  0  0
 57 58  2  0  0  0
 57127  1  0  0  0
 58128  1  0  0  0
 59 60  1  0  0  0
 59 61  1  0  0  0
 59 62  1  0  0  0
 60129  1  0  0  0
 60130  1  0  0  0
 60131  1  0  0  0
 61132  1  0  0  0
 61133  1  0  0  0
 61134  1  0  0  0
 62135  1  0  0  0
 62136  1  0  0  0
 62137  1  0  0  0
 63 65  1  0  0  0
 63138  1  0  0  0
 63139  1  0  0  0
 63140  1  0  0  0
 64141  1  0  0  0
 65142  1  0  0  0
 68 80  1  0  0  0
 71 72  2  0  0  0
 71 81  1  0  0  0
 71143  1  0  0  0
 72 76  1  0  0  0
 72 82  1  0  0  0
 73 77  1  0  0  0
 73 81  1  0  0  0
 73 82  2  0  0  0
 74 77  1  0  0  0
 74144  1  0  0  0
 74145  1  0  0  0
 74146  1  0  0  0
 75147  1  0  0  0
 75148  1  0  0  0
 75149  1  0  0  0
 75 80  1  0  0  0
 76 83  1  0  0  0
 76150  1  0  0  0
 76151  1  0  0  0
 77152  1  0  0  0
 77153  1  0  0  0
 78 79  1  0  0  0
 78 80  1  0  0  0
 78154  1  0  0  0
 78155  1  0  0  0
 79 81  1  0  0  0
 79156  1  0  0  0
 79157  1  0  0  0
 80158  1  0  0  0
 82159  1  0  0  0
 83160  1  0  0  0
M  CHG  1  82   1
M  ISO  4   1 100  68 101  80 101  83 100
M  END
> <chiral flag>
0

> <version>
0

> <s_m_source_file>
/data/baiqing/PycharmProjects/Reinvent-master-3.2/result/LINK_invent/BTK/process_docking_weight1_custom_sum_contain_oxygen_bond_distance_aromatic_linkinvent_7_9_3/rearranged_h_0096.sdf

> <i_m_source_file_index>
14

> <r_mmod_Potential_Energy-OPLS-2005>
8.80944538116455

> <r_mmod_Stretch_Energy-OPLS-2005>
117.197723388672

> <r_mmod_Bend_Energy-OPLS-2005>
172.593322753906

> <r_mmod_Torsional_Energy-OPLS-2005>
239.983871459961

> <r_mmod_Improper_Torsional_Energy-OPLS-2005>
5.83761310577393

> <r_mmod_Van_der_Waal_Energy-OPLS-2005>
114.900253295898

> <r_mmod_Electrostatic_Energy-OPLS-2005>
-301.926849365234

> <r_mmod_Solvation_Energy-OPLS-2005>
-425.605834960938

> <b_mmod_Minimization_Converged-OPLS-2005>
0

> <r_mmod_RMS_Derivative-OPLS-2005>
1.96406018733978

$$$$
14
                    3D
 Structure written by MMmdl.
168176  0  0  1  0            999 V2000
  -30.7324  -14.7043   20.4335 C   0  0  0  0  0  0
  -30.3996  -12.4303   19.4784 C   0  0  0  0  0  0
  -29.4919  -12.4819   18.2361 C   0  0  0  0  0  0
  -28.0249  -12.3163   18.6610 C   0  0  0  0  0  0
  -27.6352  -13.2446   19.8437 C   0  0  2  0  0  0
  -28.6879  -13.2469   20.9766 C   0  0  0  0  0  0
  -25.2489  -13.8246   20.5755 C   0  0  0  0  0  0
  -24.1792  -13.0475   20.9244 C   0  0  0  0  0  0
  -24.6394  -11.6948   20.8780 C   0  0  0  0  0  0
  -23.9072  -10.4307   21.0423 C   0  0  0  0  0  0
  -24.3623   -9.4224   21.9198 C   0  0  0  0  0  0
  -23.6304   -8.2252   22.0758 C   0  0  0  0  0  0
  -22.4288   -8.0283   21.3543 C   0  0  0  0  0  0
  -21.9926   -9.0257   20.4651 C   0  0  0  0  0  0
  -22.7244  -10.2146   20.3062 C   0  0  0  0  0  0
  -21.6857   -6.0742   22.5277 C   0  0  0  0  0  0
  -21.4013   -6.5646   23.8210 C   0  0  0  0  0  0
  -21.3661   -5.6799   24.9177 C   0  0  0  0  0  0
  -21.6039   -4.3056   24.7225 C   0  0  0  0  0  0
  -21.8822   -3.8153   23.4346 C   0  0  0  0  0  0
  -21.9190   -4.6971   22.3402 C   0  0  0  0  0  0
  -22.7804  -13.5233   21.1879 C   0  0  0  0  0  0
  -22.1658   -4.2155   21.0982 F   0  0  0  0  0  0
  -21.5632   -3.4542   25.7741 F   0  0  0  0  0  0
  -29.9871  -13.5464   20.3673 N   0  0  0  0  0  0
  -26.2922  -12.9475   20.3339 N   0  0  0  0  0  0
  -25.9329  -11.6609   20.5815 N   0  0  0  0  0  0
  -22.0437  -12.8212   22.0418 N   0  0  0  0  0  0
  -25.4169  -15.1979   20.4200 N   0  0  0  0  0  0
  -31.9283  -14.6019   20.1582 O   0  0  0  0  0  0
  -21.6637   -6.8888   21.4240 O   0  0  0  0  0  0
  -22.3496  -14.5542   20.6727 O   0  0  0  0  0  0
  -24.6279  -31.8534   23.2057 C   0  0  0  0  0  0
  -25.9120  -32.4748   23.8359 C   0  0  1  0  0  0
  -27.2073  -27.2808   20.1021 C   0  0  0  0  0  0
  -25.5919  -33.8554   24.2250 N   0  0  0  0  0  0
  -23.4264  -30.4786   21.5457 C   0  0  2  0  0  0
  -24.8731  -28.9413   20.1031 C   0  0  0  0  0  0
  -22.7486  -29.4576   22.4910 C   0  0  0  0  0  0
  -18.0256  -28.1360   22.8464 C   0  0  0  0  0  0
  -24.1484  -36.7321   23.2632 C   0  0  0  0  0  0
  -25.9711  -30.7683   21.3926 C   0  0  0  0  0  0
  -26.0416  -29.3949   20.7293 C   0  0  0  0  0  0
  -27.2114  -28.5695   20.7323 C   0  0  0  0  0  0
  -26.0290  -26.9213   19.4070 C   0  0  0  0  0  0
  -24.8682  -27.7109   19.4349 C   0  0  0  0  0  0
  -23.6462  -29.8263   20.1573 C   0  0  0  0  0  0
  -25.4103  -36.3070   24.0310 C   0  0  1  0  0  0
  -20.5862  -28.3671   23.1247 C   0  0  2  0  0  0
  -20.6746  -26.9388   22.5367 C   0  0  0  0  0  0
  -19.5730  -26.6384   21.5161 C   0  0  0  0  0  0
  -18.1910  -26.7891   22.1596 C   0  0  0  0  0  0
  -19.1522  -28.8835   23.2844 C   0  0  0  0  0  0
  -18.9452  -30.1432   23.8868 C   0  0  0  0  0  0
  -17.6458  -30.6566   24.0558 C   0  0  0  0  0  0
  -25.9040  -34.9432   23.5084 C   0  0  0  0  0  0
  -16.5341  -29.9069   23.6334 C   0  0  0  0  0  0
  -16.7256  -28.6490   23.0333 C   0  0  0  0  0  0
  -26.4493  -31.6600   25.0761 C   0  0  0  0  0  0
  -25.3695  -31.3747   26.1471 C   0  0  0  0  0  0
  -27.0368  -30.3017   24.6300 C   0  0  0  0  0  0
  -27.6035  -32.4356   25.7538 C   0  0  0  0  0  0
  -27.5576  -37.1782   24.8443 C   0  0  0  0  0  0
  -21.4186  -29.3047   22.3686 N   0  0  0  0  0  0
  -26.4279  -37.3765   23.9413 N   0  0  0  0  0  0
  -24.6932  -31.0514   22.1046 N   0  0  0  0  0  0
  -23.4169  -28.8070   23.2973 O   0  0  0  0  0  0
  -28.2821  -26.3690   20.1826 O   0  0  0  0  0  0
  -26.5623  -34.8905   22.4655 O   0  0  0  0  0  0
  -23.5445  -32.1355   23.7368 O   0  0  0  0  0  0
  -30.4002  -18.6393   20.0159 C   0  0  0  0  0  0
  -31.5623  -19.1586   19.4615 C   0  0  0  0  0  0
  -30.8471  -17.2679   20.3735 C   0  0  0  0  0  0
  -32.1898  -21.6523   19.1691 C   0  0  0  0  0  0
  -30.8613  -20.4406   17.3496 C   0  0  0  0  0  0
  -28.3540  -23.7154   22.0587 C   0  0  0  0  0  0
  -34.0457  -18.5555   19.7622 C   0  0  0  0  0  0
  -29.0592  -19.4522   20.0527 C   0  0  0  0  0  0
  -29.1183  -20.9361   20.6992 C   0  0  0  0  0  0
  -28.6074  -22.2573   19.9265 C   0  0  0  0  0  0
  -28.0330  -24.9292   19.8452 C   0  0  0  0  0  0
  -31.8649  -20.3020   18.5084 C   0  0  0  0  0  0
  -28.7911  -23.7241   20.5819 C   0  0  1  0  0  0
  -32.1650  -17.2814   20.5244 N   0  0  0  0  0  0
  -32.6083  -18.3866   19.9221 N   0  0  0  0  0  0
  -30.1449  -15.9682   20.5545 N   0  0  0  0  0  0
  -31.4464  -12.4779   19.1725 H   0  0  0  0  0  0
  -30.2913  -11.4747   19.9950 H   0  0  0  0  0  0
  -29.7660  -11.6961   17.5313 H   0  0  0  0  0  0
  -29.6249  -13.4298   17.7110 H   0  0  0  0  0  0
  -27.8899  -11.2752   18.9550 H   0  0  0  0  0  0
  -27.3583  -12.4761   17.8136 H   0  0  0  0  0  0
  -27.6097  -14.2512   19.4273 H   0  0  0  0  0  0
  -28.7176  -12.2834   21.4874 H   0  0  0  0  0  0
  -28.4392  -13.9905   21.7353 H   0  0  0  0  0  0
  -25.2764   -9.5705   22.4787 H   0  0  0  0  0  0
  -24.0009   -7.4645   22.7488 H   0  0  0  0  0  0
  -21.0852   -8.8787   19.8951 H   0  0  0  0  0  0
  -22.3701  -10.9697   19.6182 H   0  0  0  0  0  0
  -21.1994   -7.6151   23.9721 H   0  0  0  0  0  0
  -21.1483   -6.0527   25.9085 H   0  0  0  0  0  0
  -22.0591   -2.7610   23.2845 H   0  0  0  0  0  0
  -22.4044  -11.9863   22.4805 H   0  0  0  0  0  0
  -21.1053  -13.1253   22.2614 H   0  0  0  0  0  0
  -24.6547  -15.8544   20.5450 H   0  0  0  0  0  0
  -26.2713  -15.6395   20.1077 H   0  0  0  0  0  0
  -26.7175  -32.5391   23.1084 H   0  0  0  0  0  0
  -25.0048  -33.9673   25.0387 H   0  0  0  0  0  0
  -22.7245  -31.3019   21.4041 H   0  0  0  0  0  0
  -23.3728  -35.9665   23.3263 H   0  0  0  0  0  0
  -24.3566  -36.9001   22.2058 H   0  0  0  0  0  0
  -23.7257  -37.6506   23.6701 H   0  0  0  0  0  0
  -26.1102  -31.5366   20.6310 H   0  0  0  0  0  0
  -26.8455  -30.8097   22.0287 H   0  0  0  0  0  0
  -28.1004  -28.8927   21.2568 H   0  0  0  0  0  0
  -25.9699  -26.0148   18.8251 H   0  0  0  0  0  0
  -23.9837  -27.3734   18.9122 H   0  0  0  0  0  0
  -23.7730  -30.6054   19.4052 H   0  0  0  0  0  0
  -22.7666  -29.2591   19.8471 H   0  0  0  0  0  0
  -25.1272  -36.1914   25.0796 H   0  0  0  0  0  0
  -20.9923  -28.3217   24.1378 H   0  0  0  0  0  0
  -20.5574  -26.2272   23.3542 H   0  0  0  0  0  0
  -21.6623  -26.7356   22.1200 H   0  0  0  0  0  0
  -19.6874  -25.6287   21.1201 H   0  0  0  0  0  0
  -19.6687  -27.3174   20.6667 H   0  0  0  0  0  0
  -17.4153  -26.6595   21.4025 H   0  0  0  0  0  0
  -18.0346  -26.0032   22.9003 H   0  0  0  0  0  0
  -19.7951  -30.7219   24.2241 H   0  0  0  0  0  0
  -17.5039  -31.6240   24.5151 H   0  0  0  0  0  0
  -15.5341  -30.2951   23.7727 H   0  0  0  0  0  0
  -15.8645  -28.0825   22.7040 H   0  0  0  0  0  0
  -24.5860  -30.7117   25.7791 H   0  0  0  0  0  0
  -24.8891  -32.2905   26.4934 H   0  0  0  0  0  0
  -25.7994  -30.8895   27.0248 H   0  0  0  0  0  0
  -26.2979  -29.6729   24.1310 H   0  0  0  0  0  0
  -27.3987  -29.7327   25.4880 H   0  0  0  0  0  0
  -27.8891  -30.4287   23.9604 H   0  0  0  0  0  0
  -27.2648  -33.3680   26.2077 H   0  0  0  0  0  0
  -28.3867  -32.6878   25.0368 H   0  0  0  0  0  0
  -28.0665  -31.8489   26.5485 H   0  0  0  0  0  0
  -28.2535  -38.0145   24.7547 H   0  0  0  0  0  0
  -28.1124  -36.2656   24.6189 H   0  0  0  0  0  0
  -27.2275  -37.1345   25.8838 H   0  0  0  0  0  0
  -20.9338  -29.8930   21.7052 H   0  0  0  0  0  0
  -26.0154  -38.2820   24.1474 H   0  0  0  0  0  0
  -32.9615  -21.5451   19.9305 H   0  0  0  0  0  0
  -31.3308  -22.1152   19.6371 H   0  0  0  0  0  0
  -32.5614  -22.3603   18.4275 H   0  0  0  0  0  0
  -30.7694  -19.5050   16.7988 H   0  0  0  0  0  0
  -31.1948  -21.1999   16.6397 H   0  0  0  0  0  0
  -29.8655  -20.7204   17.6763 H   0  0  0  0  0  0
  -28.9418  -23.0182   22.6571 H   0  0  0  0  0  0
  -27.3010  -23.4471   22.1572 H   0  0  0  0  0  0
  -28.4797  -24.7006   22.5092 H   0  0  0  0  0  0
  -34.3220  -19.5969   19.9303 H   0  0  0  0  0  0
  -34.3462  -18.2679   18.7539 H   0  0  0  0  0  0
  -34.5899  -17.9367   20.4768 H   0  0  0  0  0  0
  -28.3315  -18.8816   20.6321 H   0  0  0  0  0  0
  -28.6060  -19.5057   19.0635 H   0  0  0  0  0  0
  -30.1199  -21.1082   21.0904 H   0  0  0  0  0  0
  -28.5166  -20.8792   21.6049 H   0  0  0  0  0  0
  -27.5529  -22.1160   19.6901 H   0  0  0  0  0  0
  -29.0963  -22.2979   18.9559 H   0  0  0  0  0  0
  -26.9862  -24.6865   20.0306 H   0  0  0  0  0  0
  -28.1777  -24.8259   18.7692 H   0  0  0  0  0  0
  -32.7857  -20.0378   17.9883 H   0  0  0  0  0  0
  -29.8571  -23.9502   20.5517 H   0  0  0  0  0  0
  -29.1418  -16.0009   20.6397 H   0  0  0  0  0  0
  1 25  1  0  0  0
  1 30  2  0  0  0
  1 86  1  0  0  0
  2  3  1  0  0  0
  2 25  1  0  0  0
  2 87  1  0  0  0
  2 88  1  0  0  0
  3  4  1  0  0  0
  3 89  1  0  0  0
  3 90  1  0  0  0
  4  5  1  0  0  0
  4 91  1  0  0  0
  4 92  1  0  0  0
  5  6  1  0  0  0
  5 26  1  0  0  0
  5 93  1  0  0  0
  6 25  1  0  0  0
  6 94  1  0  0  0
  6 95  1  0  0  0
  7  8  2  0  0  0
  7 26  1  0  0  0
  7 29  1  0  0  0
  8  9  1  0  0  0
  8 22  1  0  0  0
  9 10  1  0  0  0
  9 27  2  0  0  0
 10 11  2  0  0  0
 10 15  1  0  0  0
 11 12  1  0  0  0
 11 96  1  0  0  0
 12 13  2  0  0  0
 12 97  1  0  0  0
 13 14  1  0  0  0
 13 31  1  0  0  0
 14 15  2  0  0  0
 14 98  1  0  0  0
 15 99  1  0  0  0
 16 17  2  0  0  0
 16 21  1  0  0  0
 16 31  1  0  0  0
 17 18  1  0  0  0
 17100  1  0  0  0
 18 19  2  0  0  0
 18101  1  0  0  0
 19 20  1  0  0  0
 19 24  1  0  0  0
 20 21  2  0  0  0
 20102  1  0  0  0
 21 23  1  0  0  0
 22 28  1  0  0  0
 22 32  2  0  0  0
 26 27  1  0  0  0
 28103  1  0  0  0
 28104  1  0  0  0
 29105  1  0  0  0
 29106  1  0  0  0
 33 34  1  0  0  0
 33 66  1  0  0  0
 33 70  2  0  0  0
 34 36  1  0  0  0
 34 59  1  0  0  0
 34107  1  0  0  0
 35 44  2  0  0  0
 35 45  1  0  0  0
 35 68  1  0  0  0
 36 56  1  0  0  0
 36108  1  0  0  0
 37 39  1  0  0  0
 37 47  1  0  0  0
 37 66  1  0  0  0
 37109  1  0  0  0
 38 43  2  0  0  0
 38 46  1  0  0  0
 38 47  1  0  0  0
 39 64  1  0  0  0
 39 67  2  0  0  0
 40 52  1  0  0  0
 40 53  2  0  0  0
 40 58  1  0  0  0
 41110  1  0  0  0
 41111  1  0  0  0
 41112  1  0  0  0
 41 48  1  0  0  0
 42 43  1  0  0  0
 42 66  1  0  0  0
 42113  1  0  0  0
 42114  1  0  0  0
 43 44  1  0  0  0
 44115  1  0  0  0
 45 46  2  0  0  0
 45116  1  0  0  0
 46117  1  0  0  0
 47118  1  0  0  0
 47119  1  0  0  0
 48 56  1  0  0  0
 48 65  1  0  0  0
 48120  1  0  0  0
 49 50  1  0  0  0
 49 53  1  0  0  0
 49 64  1  0  0  0
 49121  1  0  0  0
 50 51  1  0  0  0
 50122  1  0  0  0
 50123  1  0  0  0
 51 52  1  0  0  0
 51124  1  0  0  0
 51125  1  0  0  0
 52126  1  0  0  0
 52127  1  0  0  0
 53 54  1  0  0  0
 54 55  2  0  0  0
 54128  1  0  0  0
 55 57  1  0  0  0
 55129  1  0  0  0
 56 69  2  0  0  0
 57 58  2  0  0  0
 57130  1  0  0  0
 58131  1  0  0  0
 59 60  1  0  0  0
 59 61  1  0  0  0
 59 62  1  0  0  0
 60132  1  0  0  0
 60133  1  0  0  0
 60134  1  0  0  0
 61135  1  0  0  0
 61136  1  0  0  0
 61137  1  0  0  0
 62138  1  0  0  0
 62139  1  0  0  0
 62140  1  0  0  0
 63 65  1  0  0  0
 63141  1  0  0  0
 63142  1  0  0  0
 63143  1  0  0  0
 64144  1  0  0  0
 65145  1  0  0  0
 68 81  1  0  0  0
 71 72  2  0  0  0
 71 73  1  0  0  0
 71 78  1  0  0  0
 72 82  1  0  0  0
 72 85  1  0  0  0
 73 84  2  0  0  0
 73 86  1  0  0  0
 74146  1  0  0  0
 74147  1  0  0  0
 74148  1  0  0  0
 74 82  1  0  0  0
 75 82  1  0  0  0
 75149  1  0  0  0
 75150  1  0  0  0
 75151  1  0  0  0
 76152  1  0  0  0
 76153  1  0  0  0
 76154  1  0  0  0
 76 83  1  0  0  0
 77 85  1  0  0  0
 77155  1  0  0  0
 77156  1  0  0  0
 77157  1  0  0  0
 78 79  1  0  0  0
 78158  1  0  0  0
 78159  1  0  0  0
 79 80  1  0  0  0
 79160  1  0  0  0
 79161  1  0  0  0
 80 83  1  0  0  0
 80162  1  0  0  0
 80163  1  0  0  0
 81 83  1  0  0  0
 81164  1  0  0  0
 81165  1  0  0  0
 82166  1  0  0  0
 83167  1  0  0  0
 84 85  1  0  0  0
 86168  1  0  0  0
M  ISO  4   1 100  68 101  81 101  86 100
M  END
> <chiral flag>
0

> <version>
0

> <s_m_source_file>
/data/baiqing/PycharmProjects/Reinvent-master-3.2/result/LINK_invent/BTK/process_docking_weight1_custom_sum_contain_oxygen_bond_distance_aromatic_linkinvent_7_9_3/rearranged_h_0096.sdf

> <i_m_source_file_index>
15

> <r_mmod_Potential_Energy-OPLS-2005>
224.630004882812

> <r_mmod_Stretch_Energy-OPLS-2005>
120.616928100586

> <r_mmod_Bend_Energy-OPLS-2005>
195.279052734375

> <r_mmod_Torsional_Energy-OPLS-2005>
274.113647460938

> <r_mmod_Improper_Torsional_Energy-OPLS-2005>
5.96882247924805

> <r_mmod_Van_der_Waal_Energy-OPLS-2005>
136.93620300293

> <r_mmod_Electrostatic_Energy-OPLS-2005>
-369.948272705078

> <r_mmod_Solvation_Energy-OPLS-2005>
-226.135101318359

> <b_mmod_Minimization_Converged-OPLS-2005>
0

> <r_mmod_RMS_Derivative-OPLS-2005>
3.50955486297607

$$$$
15
                    3D
 Structure written by MMmdl.
167175  0  0  1  0            999 V2000
  -30.1558  -15.5662   20.3418 C   0  0  0  0  0  0
  -30.3833  -13.0369   19.5206 C   0  0  0  0  0  0
  -29.5326  -12.6497   18.2806 C   0  0  0  0  0  0
  -28.0886  -12.2921   18.6857 C   0  0  0  0  0  0
  -27.5674  -13.2462   19.7890 C   0  0  2  0  0  0
  -28.5654  -13.5150   20.9292 C   0  0  0  0  0  0
  -25.2384  -13.7735   20.6084 C   0  0  0  0  0  0
  -24.1611  -13.0122   20.9371 C   0  0  0  0  0  0
  -24.6202  -11.6590   20.8676 C   0  0  0  0  0  0
  -23.8875  -10.4065   21.0315 C   0  0  0  0  0  0
  -24.3461   -9.4040   21.9153 C   0  0  0  0  0  0
  -23.6152   -8.2131   22.0723 C   0  0  0  0  0  0
  -22.4179   -8.0136   21.3441 C   0  0  0  0  0  0
  -21.9740   -9.0109   20.4551 C   0  0  0  0  0  0
  -22.7069  -10.1979   20.2965 C   0  0  0  0  0  0
  -21.6792   -6.0693   22.5321 C   0  0  0  0  0  0
  -21.4014   -6.5604   23.8234 C   0  0  0  0  0  0
  -21.3682   -5.6717   24.9177 C   0  0  0  0  0  0
  -21.6079   -4.3016   24.7234 C   0  0  0  0  0  0
  -21.8810   -3.8125   23.4320 C   0  0  0  0  0  0
  -21.9167   -4.6918   22.3384 C   0  0  0  0  0  0
  -22.7685  -13.5002   21.1988 C   0  0  0  0  0  0
  -22.1665   -4.2153   21.0947 F   0  0  0  0  0  0
  -21.5588   -3.4452   25.7716 F   0  0  0  0  0  0
  -29.7271  -14.1714   20.3134 N   0  0  0  0  0  0
  -26.2576  -12.9017   20.3081 N   0  0  0  0  0  0
  -25.9126  -11.6162   20.5486 N   0  0  0  0  0  0
  -22.0211  -12.8261   22.0570 N   0  0  0  0  0  0
  -25.4363  -15.1410   20.5024 N   0  0  0  0  0  0
  -31.3737  -15.5333   20.0571 O   0  0  0  0  0  0
  -21.6523   -6.8794   21.4244 O   0  0  0  0  0  0
  -22.3493  -14.5265   20.6581 O   0  0  0  0  0  0
  -24.6877  -31.7947   23.1540 C   0  0  0  0  0  0
  -25.9491  -32.4444   23.8069 C   0  0  1  0  0  0
  -27.1853  -26.7140   20.1750 C   0  0  0  0  0  0
  -25.6056  -33.8280   24.1970 N   0  0  0  0  0  0
  -23.5091  -30.4059   21.5042 C   0  0  2  0  0  0
  -24.9522  -28.7568   20.1057 C   0  0  0  0  0  0
  -22.7752  -29.4273   22.4680 C   0  0  0  0  0  0
  -18.0323  -28.1433   22.8412 C   0  0  0  0  0  0
  -24.1488  -36.7122   23.2656 C   0  0  0  0  0  0
  -26.0874  -30.5315   21.4137 C   0  0  0  0  0  0
  -26.1421  -29.1014   20.7557 C   0  0  0  0  0  0
  -27.2395  -28.0989   20.7714 C   0  0  0  0  0  0
  -25.9745  -26.5742   19.4605 C   0  0  0  0  0  0
  -24.9079  -27.5182   19.4378 C   0  0  0  0  0  0
  -23.7556  -29.7145   20.1340 C   0  0  0  0  0  0
  -25.4151  -36.2898   24.0290 C   0  0  1  0  0  0
  -20.5949  -28.3793   23.1122 C   0  0  2  0  0  0
  -20.6777  -26.9472   22.5376 C   0  0  0  0  0  0
  -19.5765  -26.6388   21.5177 C   0  0  0  0  0  0
  -18.1956  -26.7971   22.1583 C   0  0  0  0  0  0
  -19.1573  -28.8933   23.2746 C   0  0  0  0  0  0
  -18.9522  -30.1523   23.8802 C   0  0  0  0  0  0
  -17.6511  -30.6609   24.0549 C   0  0  0  0  0  0
  -25.9108  -34.9265   23.4949 C   0  0  0  0  0  0
  -16.5382  -29.9118   23.6368 C   0  0  0  0  0  0
  -16.7295  -28.6542   23.0357 C   0  0  0  0  0  0
  -26.4648  -31.6467   25.0687 C   0  0  0  0  0  0
  -25.3722  -31.3811   26.1284 C   0  0  0  0  0  0
  -27.0583  -30.2811   24.6626 C   0  0  0  0  0  0
  -27.6087  -32.4333   25.7501 C   0  0  0  0  0  0
  -27.5553  -37.1746   24.8476 C   0  0  0  0  0  0
  -21.4380  -29.3042   22.3452 N   0  0  0  0  0  0
  -26.4278  -37.3681   23.9399 N   0  0  0  0  0  0
  -24.7866  -30.9472   22.0747 N   0  0  0  0  0  0
  -23.4237  -28.7872   23.3001 O   0  0  0  0  0  0
  -28.1243  -25.4995   20.2850 O   0  0  0  0  0  0
  -26.5739  -34.8858   22.4558 O   0  0  0  0  0  0
  -23.5895  -32.0967   23.6564 O   0  0  0  0  0  0
  -28.5954  -20.4164   18.2878 C   0  0  0  0  0  0
  -28.6369  -20.3487   19.7200 C   0  0  0  0  0  0
  -28.0557  -19.2719   17.7764 C   0  0  0  0  0  0
  -28.8319  -18.7977   19.8819 C   0  0  0  0  0  0
  -26.9675  -21.7348   21.0717 C   0  0  0  0  0  0
  -27.7975  -17.5639   15.8284 C   0  0  0  0  0  0
  -28.1837  -19.9332   15.3178 C   0  0  0  0  0  0
  -26.7962  -17.5050   19.1047 C   0  0  0  0  0  0
  -28.9473  -17.1887   22.2641 C   0  0  0  0  0  0
  -28.1173  -23.8171   19.8030 C   0  0  0  0  0  0
  -28.3503  -22.0218   20.4541 C   0  0  1  0  0  0
  -29.3840  -17.2380   20.7424 C   0  0  1  0  0  0
  -27.5310  -18.9918   16.3603 C   0  0  0  0  0  0
  -27.8749  -18.4755   18.9062 N   0  0  0  0  0  0
  -27.5670  -16.7848   22.6674 N   0  3  0  0  0  0
  -31.3720  -13.3281   19.1667 H   0  0  0  0  0  0
  -30.5254  -12.1571   20.1480 H   0  0  0  0  0  0
  -29.9963  -11.8230   17.7405 H   0  0  0  0  0  0
  -29.4993  -13.4885   17.5845 H   0  0  0  0  0  0
  -28.0658  -11.2546   19.0235 H   0  0  0  0  0  0
  -27.4488  -12.3200   17.8019 H   0  0  0  0  0  0
  -27.4346  -14.1816   19.2474 H   0  0  0  0  0  0
  -28.8407  -12.6030   21.4628 H   0  0  0  0  0  0
  -28.1082  -14.1578   21.6754 H   0  0  0  0  0  0
  -25.2557   -9.5620   22.4735 H   0  0  0  0  0  0
  -23.9792   -7.4571   22.7503 H   0  0  0  0  0  0
  -21.0632   -8.8662   19.8918 H   0  0  0  0  0  0
  -22.3505  -10.9514   19.6085 H   0  0  0  0  0  0
  -21.2091   -7.6126   23.9740 H   0  0  0  0  0  0
  -21.1529   -6.0479   25.9070 H   0  0  0  0  0  0
  -22.0539   -2.7600   23.2836 H   0  0  0  0  0  0
  -22.3494  -11.9981   22.5440 H   0  0  0  0  0  0
  -21.0866  -13.1635   22.2482 H   0  0  0  0  0  0
  -26.2718  -15.3839   19.9936 H   0  0  0  0  0  0
  -24.6127  -15.5950   20.1296 H   0  0  0  0  0  0
  -26.7569  -32.4916   23.0764 H   0  0  0  0  0  0
  -25.0216  -33.9233   25.0143 H   0  0  0  0  0  0
  -22.8398  -31.2448   21.3237 H   0  0  0  0  0  0
  -23.3760  -35.9430   23.3282 H   0  0  0  0  0  0
  -24.3560  -36.8801   22.2070 H   0  0  0  0  0  0
  -23.7196  -37.6295   23.6716 H   0  0  0  0  0  0
  -26.2943  -31.2560   20.6250 H   0  0  0  0  0  0
  -26.9345  -30.5889   22.0835 H   0  0  0  0  0  0
  -28.1312  -28.3493   21.3350 H   0  0  0  0  0  0
  -25.7997  -25.6293   18.9630 H   0  0  0  0  0  0
  -24.0080  -27.2504   18.8984 H   0  0  0  0  0  0
  -23.9373  -30.4680   19.3686 H   0  0  0  0  0  0
  -22.8530  -29.1894   19.8186 H   0  0  0  0  0  0
  -25.1370  -36.1647   25.0795 H   0  0  0  0  0  0
  -21.0015  -28.3444   24.1245 H   0  0  0  0  0  0
  -20.5631  -26.2445   23.3662 H   0  0  0  0  0  0
  -21.6673  -26.7410   22.1238 H   0  0  0  0  0  0
  -19.6941  -25.6291   21.1273 H   0  0  0  0  0  0
  -19.6721  -27.3126   20.6678 H   0  0  0  0  0  0
  -17.4234  -26.6652   21.3990 H   0  0  0  0  0  0
  -18.0362  -26.0148   22.9024 H   0  0  0  0  0  0
  -19.7984  -30.7326   24.2161 H   0  0  0  0  0  0
  -17.5065  -31.6282   24.5183 H   0  0  0  0  0  0
  -15.5385  -30.3002   23.7725 H   0  0  0  0  0  0
  -15.8671  -28.0823   22.7140 H   0  0  0  0  0  0
  -24.5929  -30.7122   25.7610 H   0  0  0  0  0  0
  -24.8853  -32.3023   26.4491 H   0  0  0  0  0  0
  -25.7854  -30.9131   27.0219 H   0  0  0  0  0  0
  -26.3325  -29.6392   24.1618 H   0  0  0  0  0  0
  -27.3957  -29.7303   25.5408 H   0  0  0  0  0  0
  -27.9305  -30.3891   24.0185 H   0  0  0  0  0  0
  -27.2642  -33.3725   26.1845 H   0  0  0  0  0  0
  -28.4012  -32.6747   25.0412 H   0  0  0  0  0  0
  -28.0630  -31.8633   26.5608 H   0  0  0  0  0  0
  -28.2599  -38.0033   24.7545 H   0  0  0  0  0  0
  -28.1018  -36.2548   24.6281 H   0  0  0  0  0  0
  -27.2253  -37.1401   25.8887 H   0  0  0  0  0  0
  -20.9727  -29.8698   21.6472 H   0  0  0  0  0  0
  -26.0066  -38.2719   24.1430 H   0  0  0  0  0  0
  -28.7138  -21.3139   17.6998 H   0  0  0  0  0  0
  -26.9803  -20.8685   21.7360 H   0  0  0  0  0  0
  -26.2701  -21.4979   20.2598 H   0  0  0  0  0  0
  -26.5559  -22.5833   21.6221 H   0  0  0  0  0  0
  -27.4266  -16.7679   16.4606 H   0  0  0  0  0  0
  -28.8636  -17.3843   15.6683 H   0  0  0  0  0  0
  -27.3010  -17.4034   14.8675 H   0  0  0  0  0  0
  -28.0775  -20.9920   15.5353 H   0  0  0  0  0  0
  -27.7895  -19.7814   14.3131 H   0  0  0  0  0  0
  -29.2500  -19.7241   15.2746 H   0  0  0  0  0  0
  -25.8338  -18.0324   19.0795 H   0  0  0  0  0  0
  -26.8897  -17.0638   20.0909 H   0  0  0  0  0  0
  -26.7554  -16.6880   18.3929 H   0  0  0  0  0  0
  -29.1715  -18.1484   22.7258 H   0  0  0  0  0  0
  -29.5883  -16.4876   22.8026 H   0  0  0  0  0  0
  -28.9414  -23.8744   19.0891 H   0  0  0  0  0  0
  -27.2356  -23.7444   19.1692 H   0  0  0  0  0  0
  -29.0906  -22.0905   21.2500 H   0  0  0  0  0  0
  -30.3788  -17.6430   20.9156 H   0  0  0  0  0  0
  -26.4509  -19.1618   16.3250 H   0  0  0  0  0  0
  -26.8204  -17.1045   22.0768 H   0  0  0  0  0  0
  -27.3834  -17.1785   23.5765 H   0  0  0  0  0  0
  -27.4882  -15.7888   22.8089 H   0  0  0  0  0  0
  1 25  1  0  0  0
  1 30  2  0  0  0
  1 82  1  0  0  0
  2  3  1  0  0  0
  2 25  1  0  0  0
  2 86  1  0  0  0
  2 87  1  0  0  0
  3  4  1  0  0  0
  3 88  1  0  0  0
  3 89  1  0  0  0
  4  5  1  0  0  0
  4 90  1  0  0  0
  4 91  1  0  0  0
  5  6  1  0  0  0
  5 26  1  0  0  0
  5 92  1  0  0  0
  6 25  1  0  0  0
  6 93  1  0  0  0
  6 94  1  0  0  0
  7  8  2  0  0  0
  7 26  1  0  0  0
  7 29  1  0  0  0
  8  9  1  0  0  0
  8 22  1  0  0  0
  9 10  1  0  0  0
  9 27  2  0  0  0
 10 11  2  0  0  0
 10 15  1  0  0  0
 11 12  1  0  0  0
 11 95  1  0  0  0
 12 13  2  0  0  0
 12 96  1  0  0  0
 13 14  1  0  0  0
 13 31  1  0  0  0
 14 15  2  0  0  0
 14 97  1  0  0  0
 15 98  1  0  0  0
 16 17  2  0  0  0
 16 21  1  0  0  0
 16 31  1  0  0  0
 17 18  1  0  0  0
 17 99  1  0  0  0
 18 19  2  0  0  0
 18100  1  0  0  0
 19 20  1  0  0  0
 19 24  1  0  0  0
 20 21  2  0  0  0
 20101  1  0  0  0
 21 23  1  0  0  0
 22 28  1  0  0  0
 22 32  2  0  0  0
 26 27  1  0  0  0
 28102  1  0  0  0
 28103  1  0  0  0
 29104  1  0  0  0
 29105  1  0  0  0
 33 34  1  0  0  0
 33 66  1  0  0  0
 33 70  2  0  0  0
 34 36  1  0  0  0
 34 59  1  0  0  0
 34106  1  0  0  0
 35 44  2  0  0  0
 35 45  1  0  0  0
 35 68  1  0  0  0
 36 56  1  0  0  0
 36107  1  0  0  0
 37 39  1  0  0  0
 37 47  1  0  0  0
 37 66  1  0  0  0
 37108  1  0  0  0
 38 43  2  0  0  0
 38 46  1  0  0  0
 38 47  1  0  0  0
 39 64  1  0  0  0
 39 67  2  0  0  0
 40 52  1  0  0  0
 40 53  2  0  0  0
 40 58  1  0  0  0
 41109  1  0  0  0
 41110  1  0  0  0
 41111  1  0  0  0
 41 48  1  0  0  0
 42 43  1  0  0  0
 42 66  1  0  0  0
 42112  1  0  0  0
 42113  1  0  0  0
 43 44  1  0  0  0
 44114  1  0  0  0
 45 46  2  0  0  0
 45115  1  0  0  0
 46116  1  0  0  0
 47117  1  0  0  0
 47118  1  0  0  0
 48 56  1  0  0  0
 48 65  1  0  0  0
 48119  1  0  0  0
 49 50  1  0  0  0
 49 53  1  0  0  0
 49 64  1  0  0  0
 49120  1  0  0  0
 50 51  1  0  0  0
 50121  1  0  0  0
 50122  1  0  0  0
 51 52  1  0  0  0
 51123  1  0  0  0
 51124  1  0  0  0
 52125  1  0  0  0
 52126  1  0  0  0
 53 54  1  0  0  0
 54 55  2  0  0  0
 54127  1  0  0  0
 55 57  1  0  0  0
 55128  1  0  0  0
 56 69  2  0  0  0
 57 58  2  0  0  0
 57129  1  0  0  0
 58130  1  0  0  0
 59 60  1  0  0  0
 59 61  1  0  0  0
 59 62  1  0  0  0
 60131  1  0  0  0
 60132  1  0  0  0
 60133  1  0  0  0
 61134  1  0  0  0
 61135  1  0  0  0
 61136  1  0  0  0
 62137  1  0  0  0
 62138  1  0  0  0
 62139  1  0  0  0
 63 65  1  0  0  0
 63140  1  0  0  0
 63141  1  0  0  0
 63142  1  0  0  0
 64143  1  0  0  0
 65144  1  0  0  0
 68 80  1  0  0  0
 71 72  1  0  0  0
 71 73  2  0  0  0
 71145  1  0  0  0
 72 74  2  0  0  0
 72 81  1  0  0  0
 73 83  1  0  0  0
 73 84  1  0  0  0
 74 82  1  0  0  0
 74 84  1  0  0  0
 75146  1  0  0  0
 75147  1  0  0  0
 75148  1  0  0  0
 75 81  1  0  0  0
 76149  1  0  0  0
 76150  1  0  0  0
 76151  1  0  0  0
 76 83  1  0  0  0
 77 83  1  0  0  0
 77152  1  0  0  0
 77153  1  0  0  0
 77154  1  0  0  0
 78 84  1  0  0  0
 78155  1  0  0  0
 78156  1  0  0  0
 78157  1  0  0  0
 79 85  1  0  0  0
 79158  1  0  0  0
 79159  1  0  0  0
 79 82  1  0  0  0
 80 81  1  0  0  0
 80160  1  0  0  0
 80161  1  0  0  0
 81162  1  0  0  0
 82163  1  0  0  0
 83164  1  0  0  0
 85165  1  0  0  0
 85166  1  0  0  0
 85167  1  0  0  0
M  CHG  1  85   1
M  ISO  4   1 100  68 101  80 101  82 100
M  END
> <chiral flag>
0

> <version>
0

> <s_m_source_file>
/data/baiqing/PycharmProjects/Reinvent-master-3.2/result/LINK_invent/BTK/process_docking_weight1_custom_sum_contain_oxygen_bond_distance_aromatic_linkinvent_7_9_3/rearranged_h_0096.sdf

> <i_m_source_file_index>
16

> <r_mmod_Potential_Energy-OPLS-2005>
2426.02807617188

> <r_mmod_Stretch_Energy-OPLS-2005>
1109.83520507812

> <r_mmod_Bend_Energy-OPLS-2005>
747.156555175781

> <r_mmod_Torsional_Energy-OPLS-2005>
375.798980712891

> <r_mmod_Improper_Torsional_Energy-OPLS-2005>
9.89440822601318

> <r_mmod_Van_der_Waal_Energy-OPLS-2005>
106.915733337402

> <r_mmod_Electrostatic_Energy-OPLS-2005>
-275.250305175781

> <r_mmod_Solvation_Energy-OPLS-2005>
-503.898681640625

> <b_mmod_Minimization_Converged-OPLS-2005>
0

> <r_mmod_RMS_Derivative-OPLS-2005>
13.7678060531616

$$$$
16
                    3D
 Structure written by MMmdl.
159167  0  0  1  0            999 V2000
  -30.5566  -15.0178   20.3835 C   0  0  0  0  0  0
  -30.4378  -12.6367   19.4779 C   0  0  0  0  0  0
  -29.5214  -12.5455   18.2342 C   0  0  0  0  0  0
  -28.0512  -12.3433   18.6477 C   0  0  0  0  0  0
  -27.6276  -13.2684   19.8221 C   0  0  2  0  0  0
  -28.6815  -13.3193   20.9529 C   0  0  0  0  0  0
  -25.2476  -13.8281   20.5698 C   0  0  0  0  0  0
  -24.1801  -13.0456   20.9216 C   0  0  0  0  0  0
  -24.6474  -11.6968   20.8776 C   0  0  0  0  0  0
  -23.9155  -10.4303   21.0368 C   0  0  0  0  0  0
  -24.3663   -9.4208   21.9124 C   0  0  0  0  0  0
  -23.6302   -8.2281   22.0741 C   0  0  0  0  0  0
  -22.4292   -8.0327   21.3543 C   0  0  0  0  0  0
  -21.9950   -9.0293   20.4670 C   0  0  0  0  0  0
  -22.7334  -10.2121   20.3046 C   0  0  0  0  0  0
  -21.6872   -6.0760   22.5285 C   0  0  0  0  0  0
  -21.3990   -6.5650   23.8211 C   0  0  0  0  0  0
  -21.3654   -5.6787   24.9164 C   0  0  0  0  0  0
  -21.6050   -4.3060   24.7219 C   0  0  0  0  0  0
  -21.8841   -3.8170   23.4344 C   0  0  0  0  0  0
  -21.9192   -4.6980   22.3410 C   0  0  0  0  0  0
  -22.7830  -13.5196   21.1845 C   0  0  0  0  0  0
  -22.1675   -4.2199   21.0984 F   0  0  0  0  0  0
  -21.5637   -3.4544   25.7717 F   0  0  0  0  0  0
  -29.9377  -13.7577   20.3321 N   0  0  0  0  0  0
  -26.2903  -12.9538   20.3160 N   0  0  0  0  0  0
  -25.9394  -11.6648   20.5696 N   0  0  0  0  0  0
  -22.0472  -12.8168   22.0412 N   0  0  0  0  0  0
  -25.4130  -15.1976   20.4161 N   0  0  0  0  0  0
  -31.7660  -15.0206   20.1471 O   0  0  0  0  0  0
  -21.6663   -6.8907   21.4256 O   0  0  0  0  0  0
  -22.3511  -14.5460   20.6675 O   0  0  0  0  0  0
  -24.6564  -31.8294   23.1744 C   0  0  0  0  0  0
  -25.9273  -32.4622   23.8167 C   0  0  1  0  0  0
  -27.2348  -27.0170   20.1658 C   0  0  0  0  0  0
  -25.5945  -33.8420   24.2035 N   0  0  0  0  0  0
  -23.4638  -30.4414   21.5217 C   0  0  2  0  0  0
  -24.9222  -28.8460   20.0947 C   0  0  0  0  0  0
  -22.7600  -29.4489   22.4832 C   0  0  0  0  0  0
  -18.0317  -28.1365   22.8463 C   0  0  0  0  0  0
  -24.1492  -36.7186   23.2659 C   0  0  0  0  0  0
  -26.0277  -30.6664   21.3936 C   0  0  0  0  0  0
  -26.0987  -29.2682   20.7285 C   0  0  0  0  0  0
  -27.2435  -28.3694   20.7438 C   0  0  0  0  0  0
  -26.0384  -26.7273   19.4743 C   0  0  0  0  0  0
  -24.9122  -27.5955   19.4476 C   0  0  0  0  0  0
  -23.6963  -29.7549   20.1450 C   0  0  0  0  0  0
  -25.4136  -36.2974   24.0307 C   0  0  1  0  0  0
  -20.5917  -28.3728   23.1261 C   0  0  2  0  0  0
  -20.6792  -26.9453   22.5384 C   0  0  0  0  0  0
  -19.5777  -26.6495   21.5181 C   0  0  0  0  0  0
  -18.1938  -26.7924   22.1621 C   0  0  0  0  0  0
  -19.1568  -28.8878   23.2853 C   0  0  0  0  0  0
  -18.9497  -30.1505   23.8813 C   0  0  0  0  0  0
  -17.6470  -30.6610   24.0508 C   0  0  0  0  0  0
  -25.9106  -34.9368   23.4989 C   0  0  0  0  0  0
  -16.5357  -29.9045   23.6298 C   0  0  0  0  0  0
  -16.7283  -28.6456   23.0329 C   0  0  0  0  0  0
  -26.4538  -31.6579   25.0700 C   0  0  0  0  0  0
  -25.3651  -31.3798   26.1346 C   0  0  0  0  0  0
  -27.0468  -30.2949   24.6452 C   0  0  0  0  0  0
  -27.5991  -32.4430   25.7503 C   0  0  0  0  0  0
  -27.5569  -37.1752   24.8470 C   0  0  0  0  0  0
  -21.4287  -29.3032   22.3596 N   0  0  0  0  0  0
  -26.4281  -37.3715   23.9424 N   0  0  0  0  0  0
  -24.7341  -31.0031   22.0839 N   0  0  0  0  0  0
  -23.4175  -28.8115   23.3105 O   0  0  0  0  0  0
  -28.2770  -25.9904   20.3367 O   0  0  0  0  0  0
  -26.5724  -34.8886   22.4603 O   0  0  0  0  0  0
  -23.5654  -32.1285   23.6852 O   0  0  0  0  0  0
  -29.1611  -22.0868   21.4282 C   0  0  0  0  0  0
  -28.9314  -21.6835   19.0827 C   0  0  0  0  0  0
  -29.8139  -20.5588   21.4250 C   0  0  0  0  0  0
  -28.7786  -20.0398   19.2838 C   0  0  0  0  0  0
  -28.4472  -22.7931   20.1650 C   0  0  1  0  0  0
  -29.2880  -19.2602   20.6078 C   0  0  1  0  0  0
  -31.0874  -17.8223   21.9461 C   0  0  0  0  0  0
  -31.3347  -18.0745   19.4801 C   0  0  0  0  0  0
  -28.4972  -24.5124   19.7269 C   0  0  0  0  0  0
  -30.2952  -17.8194   20.5971 C   0  0  0  0  0  0
  -29.8371  -16.2683   20.5006 N   0  0  0  0  0  0
  -31.4601  -12.8073   19.1454 H   0  0  0  0  0  0
  -30.4533  -11.6951   20.0257 H   0  0  0  0  0  0
  -29.8397  -11.7360   17.5775 H   0  0  0  0  0  0
  -29.6229  -13.4575   17.6437 H   0  0  0  0  0  0
  -27.9249  -11.2965   18.9269 H   0  0  0  0  0  0
  -27.3964  -12.5115   17.7863 H   0  0  0  0  0  0
  -27.5725  -14.2687   19.3874 H   0  0  0  0  0  0
  -28.7966  -12.3468   21.4432 H   0  0  0  0  0  0
  -28.3846  -14.0400   21.7163 H   0  0  0  0  0  0
  -25.2805   -9.5688   22.4669 H   0  0  0  0  0  0
  -24.0060   -7.4685   22.7438 H   0  0  0  0  0  0
  -21.0915   -8.8845   19.8937 H   0  0  0  0  0  0
  -22.3840  -10.9652   19.6167 H   0  0  0  0  0  0
  -21.1958   -7.6155   23.9741 H   0  0  0  0  0  0
  -21.1438   -6.0495   25.9054 H   0  0  0  0  0  0
  -22.0612   -2.7657   23.2830 H   0  0  0  0  0  0
  -22.4117  -11.9886   22.4860 H   0  0  0  0  0  0
  -21.1056  -13.1149   22.2455 H   0  0  0  0  0  0
  -24.6454  -15.8526   20.5316 H   0  0  0  0  0  0
  -26.2640  -15.6502   20.1066 H   0  0  0  0  0  0
  -26.7355  -32.5215   23.0924 H   0  0  0  0  0  0
  -25.0061  -33.9482   25.0160 H   0  0  0  0  0  0
  -22.7674  -31.2684   21.3623 H   0  0  0  0  0  0
  -23.3769  -35.9519   23.3318 H   0  0  0  0  0  0
  -24.3516  -36.8827   22.2069 H   0  0  0  0  0  0
  -23.7246  -37.6364   23.6709 H   0  0  0  0  0  0
  -26.2238  -31.4277   20.6326 H   0  0  0  0  0  0
  -26.8729  -30.6899   22.0729 H   0  0  0  0  0  0
  -28.1376  -28.6858   21.2672 H   0  0  0  0  0  0
  -25.9419  -25.7642   18.9950 H   0  0  0  0  0  0
  -24.0195  -27.2726   18.9330 H   0  0  0  0  0  0
  -23.8156  -30.5230   19.3799 H   0  0  0  0  0  0
  -22.8050  -29.1942   19.8505 H   0  0  0  0  0  0
  -25.1351  -36.1754   25.0803 H   0  0  0  0  0  0
  -20.9980  -28.3325   24.1407 H   0  0  0  0  0  0
  -20.5616  -26.2381   23.3646 H   0  0  0  0  0  0
  -21.6686  -26.7469   22.1205 H   0  0  0  0  0  0
  -19.6918  -25.6392   21.1191 H   0  0  0  0  0  0
  -19.6726  -27.3270   20.6670 H   0  0  0  0  0  0
  -17.4248  -26.6717   21.3963 H   0  0  0  0  0  0
  -18.0381  -26.0106   22.8993 H   0  0  0  0  0  0
  -19.7981  -30.7359   24.2146 H   0  0  0  0  0  0
  -17.4991  -31.6263   24.5170 H   0  0  0  0  0  0
  -15.5349  -30.2876   23.7748 H   0  0  0  0  0  0
  -15.8666  -28.0728   22.7122 H   0  0  0  0  0  0
  -24.5759  -30.7266   25.7598 H   0  0  0  0  0  0
  -24.8969  -32.3017   26.4761 H   0  0  0  0  0  0
  -25.7842  -30.8903   27.0139 H   0  0  0  0  0  0
  -26.3176  -29.6549   24.1486 H   0  0  0  0  0  0
  -27.4013  -29.7369   25.5108 H   0  0  0  0  0  0
  -27.9073  -30.4093   23.9882 H   0  0  0  0  0  0
  -27.2445  -33.3697   26.2034 H   0  0  0  0  0  0
  -28.3790  -32.7063   25.0341 H   0  0  0  0  0  0
  -28.0692  -31.8642   26.5469 H   0  0  0  0  0  0
  -28.2604  -38.0035   24.7514 H   0  0  0  0  0  0
  -28.1029  -36.2548   24.6308 H   0  0  0  0  0  0
  -27.2256  -37.1440   25.8866 H   0  0  0  0  0  0
  -20.9615  -29.8758   21.6690 H   0  0  0  0  0  0
  -26.0107  -38.2792   24.1374 H   0  0  0  0  0  0
  -29.9797  -22.7491   21.7097 H   0  0  0  0  0  0
  -28.4692  -22.1537   22.2720 H   0  0  0  0  0  0
  -28.4821  -21.9420   18.1218 H   0  0  0  0  0  0
  -29.9950  -21.8641   18.9258 H   0  0  0  0  0  0
  -29.8575  -20.2484   22.4695 H   0  0  0  0  0  0
  -30.8597  -20.6746   21.1477 H   0  0  0  0  0  0
  -29.2336  -19.5626   18.4054 H   0  0  0  0  0  0
  -27.7178  -19.7990   19.1577 H   0  0  0  0  0  0
  -27.3803  -22.6056   20.2925 H   0  0  0  0  0  0
  -28.3855  -18.9525   21.1331 H   0  0  0  0  0  0
  -30.4258  -17.7765   22.8110 H   0  0  0  0  0  0
  -31.7174  -18.7069   22.0739 H   0  0  0  0  0  0
  -31.7744  -16.9793   22.0423 H   0  0  0  0  0  0
  -31.5733  -19.1399   19.3986 H   0  0  0  0  0  0
  -30.9774  -17.7410   18.5021 H   0  0  0  0  0  0
  -32.2893  -17.5699   19.6679 H   0  0  0  0  0  0
  -27.9844  -24.5563   18.7694 H   0  0  0  0  0  0
  -29.5516  -24.6010   19.4568 H   0  0  0  0  0  0
  -28.8444  -16.1309   20.6089 H   0  0  0  0  0  0
  1 25  1  0  0  0
  1 30  2  0  0  0
  1 81  1  0  0  0
  2  3  1  0  0  0
  2 25  1  0  0  0
  2 82  1  0  0  0
  2 83  1  0  0  0
  3  4  1  0  0  0
  3 84  1  0  0  0
  3 85  1  0  0  0
  4  5  1  0  0  0
  4 86  1  0  0  0
  4 87  1  0  0  0
  5  6  1  0  0  0
  5 26  1  0  0  0
  5 88  1  0  0  0
  6 25  1  0  0  0
  6 89  1  0  0  0
  6 90  1  0  0  0
  7  8  2  0  0  0
  7 26  1  0  0  0
  7 29  1  0  0  0
  8  9  1  0  0  0
  8 22  1  0  0  0
  9 10  1  0  0  0
  9 27  2  0  0  0
 10 11  2  0  0  0
 10 15  1  0  0  0
 11 12  1  0  0  0
 11 91  1  0  0  0
 12 13  2  0  0  0
 12 92  1  0  0  0
 13 14  1  0  0  0
 13 31  1  0  0  0
 14 15  2  0  0  0
 14 93  1  0  0  0
 15 94  1  0  0  0
 16 17  2  0  0  0
 16 21  1  0  0  0
 16 31  1  0  0  0
 17 18  1  0  0  0
 17 95  1  0  0  0
 18 19  2  0  0  0
 18 96  1  0  0  0
 19 20  1  0  0  0
 19 24  1  0  0  0
 20 21  2  0  0  0
 20 97  1  0  0  0
 21 23  1  0  0  0
 22 28  1  0  0  0
 22 32  2  0  0  0
 26 27  1  0  0  0
 28 98  1  0  0  0
 28 99  1  0  0  0
 29100  1  0  0  0
 29101  1  0  0  0
 33 34  1  0  0  0
 33 66  1  0  0  0
 33 70  2  0  0  0
 34 36  1  0  0  0
 34 59  1  0  0  0
 34102  1  0  0  0
 35 44  2  0  0  0
 35 45  1  0  0  0
 35 68  1  0  0  0
 36 56  1  0  0  0
 36103  1  0  0  0
 37 39  1  0  0  0
 37 47  1  0  0  0
 37 66  1  0  0  0
 37104  1  0  0  0
 38 43  2  0  0  0
 38 46  1  0  0  0
 38 47  1  0  0  0
 39 64  1  0  0  0
 39 67  2  0  0  0
 40 52  1  0  0  0
 40 53  2  0  0  0
 40 58  1  0  0  0
 41105  1  0  0  0
 41106  1  0  0  0
 41107  1  0  0  0
 41 48  1  0  0  0
 42 43  1  0  0  0
 42 66  1  0  0  0
 42108  1  0  0  0
 42109  1  0  0  0
 43 44  1  0  0  0
 44110  1  0  0  0
 45 46  2  0  0  0
 45111  1  0  0  0
 46112  1  0  0  0
 47113  1  0  0  0
 47114  1  0  0  0
 48 56  1  0  0  0
 48 65  1  0  0  0
 48115  1  0  0  0
 49 50  1  0  0  0
 49 53  1  0  0  0
 49 64  1  0  0  0
 49116  1  0  0  0
 50 51  1  0  0  0
 50117  1  0  0  0
 50118  1  0  0  0
 51 52  1  0  0  0
 51119  1  0  0  0
 51120  1  0  0  0
 52121  1  0  0  0
 52122  1  0  0  0
 53 54  1  0  0  0
 54 55  2  0  0  0
 54123  1  0  0  0
 55 57  1  0  0  0
 55124  1  0  0  0
 56 69  2  0  0  0
 57 58  2  0  0  0
 57125  1  0  0  0
 58126  1  0  0  0
 59 60  1  0  0  0
 59 61  1  0  0  0
 59 62  1  0  0  0
 60127  1  0  0  0
 60128  1  0  0  0
 60129  1  0  0  0
 61130  1  0  0  0
 61131  1  0  0  0
 61132  1  0  0  0
 62133  1  0  0  0
 62134  1  0  0  0
 62135  1  0  0  0
 63 65  1  0  0  0
 63136  1  0  0  0
 63137  1  0  0  0
 63138  1  0  0  0
 64139  1  0  0  0
 65140  1  0  0  0
 68 79  1  0  0  0
 71 73  1  0  0  0
 71 75  1  0  0  0
 71141  1  0  0  0
 71142  1  0  0  0
 72 74  1  0  0  0
 72 75  1  0  0  0
 72143  1  0  0  0
 72144  1  0  0  0
 73145  1  0  0  0
 73146  1  0  0  0
 73 76  1  0  0  0
 74 76  1  0  0  0
 74147  1  0  0  0
 74148  1  0  0  0
 75 79  1  0  0  0
 75149  1  0  0  0
 76 80  1  0  0  0
 76150  1  0  0  0
 77151  1  0  0  0
 77152  1  0  0  0
 77153  1  0  0  0
 77 80  1  0  0  0
 78 80  1  0  0  0
 78154  1  0  0  0
 78155  1  0  0  0
 78156  1  0  0  0
 79157  1  0  0  0
 79158  1  0  0  0
 80 81  1  0  0  0
 81159  1  0  0  0
M  ISO  4   1 100  68 101  79 101  81 100
M  END
> <chiral flag>
0

> <version>
0

> <s_m_source_file>
/data/baiqing/PycharmProjects/Reinvent-master-3.2/result/LINK_invent/BTK/process_docking_weight1_custom_sum_contain_oxygen_bond_distance_aromatic_linkinvent_7_9_3/rearranged_h_0096.sdf

> <i_m_source_file_index>
17

> <r_mmod_Potential_Energy-OPLS-2005>
998.752868652344

> <r_mmod_Stretch_Energy-OPLS-2005>
414.070709228516

> <r_mmod_Bend_Energy-OPLS-2005>
462.22119140625

> <r_mmod_Torsional_Energy-OPLS-2005>
276.641204833984

> <r_mmod_Improper_Torsional_Energy-OPLS-2005>
4.12605285644531

> <r_mmod_Van_der_Waal_Energy-OPLS-2005>
120.077415466309

> <r_mmod_Electrostatic_Energy-OPLS-2005>
-357.08203125

> <r_mmod_Solvation_Energy-OPLS-2005>
-196.619049072266

> <b_mmod_Minimization_Converged-OPLS-2005>
0

> <r_mmod_RMS_Derivative-OPLS-2005>
11.0140886306763

$$$$
17
                    3D
 Structure written by MMmdl.
172180  0  0  1  0            999 V2000
  -30.6200  -14.7713   20.4377 C   0  0  0  0  0  0
  -30.4274  -12.4711   19.4709 C   0  0  0  0  0  0
  -29.4965  -12.4891   18.2375 C   0  0  0  0  0  0
  -28.0368  -12.2849   18.6803 C   0  0  0  0  0  0
  -27.6376  -13.2216   19.8508 C   0  0  2  0  0  0
  -28.6877  -13.2037   20.9832 C   0  0  0  0  0  0
  -25.2536  -13.8173   20.5750 C   0  0  0  0  0  0
  -24.1786  -13.0441   20.9216 C   0  0  0  0  0  0
  -24.6358  -11.6911   20.8767 C   0  0  0  0  0  0
  -23.9025  -10.4280   21.0426 C   0  0  0  0  0  0
  -24.3588   -9.4219   21.9208 C   0  0  0  0  0  0
  -23.6271   -8.2227   22.0747 C   0  0  0  0  0  0
  -22.4272   -8.0264   21.3517 C   0  0  0  0  0  0
  -21.9914   -9.0223   20.4620 C   0  0  0  0  0  0
  -22.7209  -10.2119   20.3046 C   0  0  0  0  0  0
  -21.6859   -6.0720   22.5271 C   0  0  0  0  0  0
  -21.4014   -6.5626   23.8203 C   0  0  0  0  0  0
  -21.3653   -5.6780   24.9159 C   0  0  0  0  0  0
  -21.6052   -4.3047   24.7224 C   0  0  0  0  0  0
  -21.8816   -3.8135   23.4348 C   0  0  0  0  0  0
  -21.9190   -4.6951   22.3392 C   0  0  0  0  0  0
  -22.7817  -13.5234   21.1909 C   0  0  0  0  0  0
  -22.1662   -4.2125   21.0983 F   0  0  0  0  0  0
  -21.5629   -3.4545   25.7740 F   0  0  0  0  0  0
  -29.9806  -13.5505   20.3807 N   0  0  0  0  0  0
  -26.2936  -12.9354   20.3352 N   0  0  0  0  0  0
  -25.9304  -11.6511   20.5816 N   0  0  0  0  0  0
  -22.0459  -12.8132   22.0402 N   0  0  0  0  0  0
  -25.4360  -15.1890   20.4152 N   0  0  0  0  0  0
  -31.8173  -14.8437   20.1405 O   0  0  0  0  0  0
  -21.6652   -6.8869   21.4220 O   0  0  0  0  0  0
  -22.3482  -14.5577   20.6833 O   0  0  0  0  0  0
  -24.6308  -31.8453   23.1903 C   0  0  0  0  0  0
  -25.9112  -32.4707   23.8283 C   0  0  1  0  0  0
  -27.2354  -27.2363   20.1356 C   0  0  0  0  0  0
  -25.5908  -33.8519   24.2183 N   0  0  0  0  0  0
  -23.4326  -30.4616   21.5329 C   0  0  2  0  0  0
  -24.8829  -28.8992   20.1012 C   0  0  0  0  0  0
  -22.7508  -29.4500   22.4879 C   0  0  0  0  0  0
  -18.0267  -28.1326   22.8510 C   0  0  0  0  0  0
  -24.1488  -36.7269   23.2646 C   0  0  0  0  0  0
  -25.9762  -30.7577   21.3654 C   0  0  0  0  0  0
  -26.0480  -29.3750   20.7113 C   0  0  0  0  0  0
  -27.2206  -28.5597   20.7042 C   0  0  0  0  0  0
  -26.0499  -26.8154   19.4996 C   0  0  0  0  0  0
  -24.8934  -27.6319   19.4835 C   0  0  0  0  0  0
  -23.6510  -29.7872   20.1496 C   0  0  0  0  0  0
  -25.4121  -36.3047   24.0290 C   0  0  1  0  0  0
  -20.5863  -28.3655   23.1285 C   0  0  2  0  0  0
  -20.6738  -26.9354   22.5429 C   0  0  0  0  0  0
  -19.5743  -26.6319   21.5231 C   0  0  0  0  0  0
  -18.1899  -26.7859   22.1597 C   0  0  0  0  0  0
  -19.1509  -28.8798   23.2891 C   0  0  0  0  0  0
  -18.9460  -30.1400   23.8916 C   0  0  0  0  0  0
  -17.6474  -30.6552   24.0561 C   0  0  0  0  0  0
  -25.9105  -34.9416   23.5035 C   0  0  0  0  0  0
  -16.5369  -29.9043   23.6332 C   0  0  0  0  0  0
  -16.7229  -28.6446   23.0377 C   0  0  0  0  0  0
  -26.4472  -31.6563   25.0703 C   0  0  0  0  0  0
  -25.3687  -31.3627   26.1417 C   0  0  0  0  0  0
  -27.0410  -30.3023   24.6141 C   0  0  0  0  0  0
  -27.6040  -32.4361   25.7468 C   0  0  0  0  0  0
  -27.5577  -37.1780   24.8458 C   0  0  0  0  0  0
  -21.4198  -29.3031   22.3698 N   0  0  0  0  0  0
  -26.4277  -37.3769   23.9402 N   0  0  0  0  0  0
  -24.7009  -31.0428   22.0858 N   0  0  0  0  0  0
  -23.4195  -28.8032   23.2990 O   0  0  0  0  0  0
  -28.3753  -26.4089   20.2675 O   0  0  0  0  0  0
  -26.5717  -34.8878   22.4657 O   0  0  0  0  0  0
  -23.5461  -32.1281   23.7196 O   0  0  0  0  0  0
  -30.7287  -22.2116   19.5229 C   0  0  0  0  0  0
  -31.7629  -21.4197   18.9563 C   0  0  0  0  0  0
  -29.6945  -21.4323   19.9741 C   0  0  0  0  0  0
  -31.3404  -20.1196   19.0594 C   0  0  0  0  0  0
  -32.0334  -18.9303   18.4510 C   0  0  0  0  0  0
  -34.2805  -21.8307   19.2246 C   0  0  0  0  0  0
  -32.9368  -23.3504   17.7218 C   0  0  0  0  0  0
  -27.1869  -21.2857   19.8129 C   0  0  0  0  0  0
  -28.2855  -21.5333   22.0197 C   0  0  0  0  0  0
  -27.9228  -23.6474   20.6490 C   0  0  0  0  0  0
  -29.4855  -18.6588   20.1155 C   0  0  0  0  0  0
  -30.3644  -17.3932   20.6902 C   0  0  0  0  0  0
  -28.5833  -24.9429   19.9317 C   0  0  0  0  0  0
  -33.0556  -21.9263   18.2940 C   0  0  0  0  0  0
  -28.3376  -22.0121   20.5557 C   0  0  0  0  0  0
  -30.1376  -20.0361   19.8019 N   0  0  0  0  0  0
  -29.8775  -15.9304   20.6228 N   0  0  0  0  0  0
  -31.4698  -12.5833   19.1656 H   0  0  0  0  0  0
  -30.3678  -11.5063   19.9776 H   0  0  0  0  0  0
  -29.7845  -11.7007   17.5415 H   0  0  0  0  0  0
  -29.5931  -13.4317   17.6947 H   0  0  0  0  0  0
  -27.9439  -11.2453   19.0010 H   0  0  0  0  0  0
  -27.3529  -12.4050   17.8392 H   0  0  0  0  0  0
  -27.6201  -14.2294   19.4351 H   0  0  0  0  0  0
  -28.7383  -12.2250   21.4594 H   0  0  0  0  0  0
  -28.4214  -13.9112   21.7726 H   0  0  0  0  0  0
  -25.2727   -9.5708   22.4788 H   0  0  0  0  0  0
  -23.9998   -7.4630   22.7463 H   0  0  0  0  0  0
  -21.0859   -8.8722   19.8894 H   0  0  0  0  0  0
  -22.3686  -10.9651   19.6137 H   0  0  0  0  0  0
  -21.2009   -7.6128   23.9693 H   0  0  0  0  0  0
  -21.1477   -6.0522   25.9066 H   0  0  0  0  0  0
  -22.0604   -2.7597   23.2860 H   0  0  0  0  0  0
  -22.4095  -11.9713   22.4638 H   0  0  0  0  0  0
  -21.1082  -13.1081   22.2711 H   0  0  0  0  0  0
  -24.6855  -15.8635   20.5270 H   0  0  0  0  0  0
  -26.2962  -15.6064   20.0850 H   0  0  0  0  0  0
  -26.7160  -32.5351   23.1003 H   0  0  0  0  0  0
  -25.0125  -33.9703   25.0367 H   0  0  0  0  0  0
  -22.7323  -31.2839   21.3790 H   0  0  0  0  0  0
  -23.3763  -35.9604   23.3280 H   0  0  0  0  0  0
  -24.3593  -36.8944   22.2083 H   0  0  0  0  0  0
  -23.7206  -37.6423   23.6747 H   0  0  0  0  0  0
  -26.1066  -31.5125   20.5937 H   0  0  0  0  0  0
  -26.8611  -30.8190   21.9893 H   0  0  0  0  0  0
  -28.1239  -28.9216   21.1704 H   0  0  0  0  0  0
  -26.0173  -25.8397   19.0280 H   0  0  0  0  0  0
  -23.9958  -27.2738   18.9968 H   0  0  0  0  0  0
  -23.7522  -30.5658   19.3925 H   0  0  0  0  0  0
  -22.7762  -29.2110   19.8497 H   0  0  0  0  0  0
  -25.1258  -36.1911   25.0764 H   0  0  0  0  0  0
  -20.9955  -28.3209   24.1406 H   0  0  0  0  0  0
  -20.5692  -26.2227   23.3596 H   0  0  0  0  0  0
  -21.6579  -26.7394   22.1178 H   0  0  0  0  0  0
  -19.6946  -25.6255   21.1210 H   0  0  0  0  0  0
  -19.6668  -27.3179   20.6792 H   0  0  0  0  0  0
  -17.4171  -26.6699   21.3956 H   0  0  0  0  0  0
  -18.0226  -25.9930   22.8893 H   0  0  0  0  0  0
  -19.7981  -30.7211   24.2237 H   0  0  0  0  0  0
  -17.5031  -31.6235   24.5140 H   0  0  0  0  0  0
  -15.5380  -30.2961   23.7625 H   0  0  0  0  0  0
  -15.8595  -28.0761   22.7108 H   0  0  0  0  0  0
  -24.5974  -30.6826   25.7684 H   0  0  0  0  0  0
  -24.8748  -32.2767   26.4784 H   0  0  0  0  0  0
  -25.7985  -30.8873   27.0239 H   0  0  0  0  0  0
  -26.3019  -29.6720   24.1170 H   0  0  0  0  0  0
  -27.4185  -29.7266   25.4593 H   0  0  0  0  0  0
  -27.8772  -30.4335   23.9262 H   0  0  0  0  0  0
  -27.2689  -33.3757   26.1830 H   0  0  0  0  0  0
  -28.3928  -32.6743   25.0338 H   0  0  0  0  0  0
  -28.0561  -31.8603   26.5545 H   0  0  0  0  0  0
  -28.2482  -38.0178   24.7613 H   0  0  0  0  0  0
  -28.1136  -36.2695   24.6120 H   0  0  0  0  0  0
  -27.2307  -37.1226   25.8857 H   0  0  0  0  0  0
  -20.9354  -29.8809   21.6958 H   0  0  0  0  0  0
  -26.0119  -38.2806   24.1497 H   0  0  0  0  0  0
  -30.7535  -23.2892   19.5402 H   0  0  0  0  0  0
  -32.5569  -19.1998   17.5350 H   0  0  0  0  0  0
  -31.3351  -18.1477   18.1607 H   0  0  0  0  0  0
  -32.7835  -18.5174   19.1277 H   0  0  0  0  0  0
  -34.5500  -20.7962   19.4412 H   0  0  0  0  0  0
  -34.0959  -22.3358   20.1730 H   0  0  0  0  0  0
  -35.1578  -22.2984   18.7735 H   0  0  0  0  0  0
  -32.0655  -23.4577   17.0717 H   0  0  0  0  0  0
  -33.8147  -23.6003   17.1229 H   0  0  0  0  0  0
  -32.8632  -24.0947   18.5147 H   0  0  0  0  0  0
  -27.2307  -20.2050   19.9435 H   0  0  0  0  0  0
  -27.2072  -21.4742   18.7402 H   0  0  0  0  0  0
  -26.2069  -21.5787   20.1864 H   0  0  0  0  0  0
  -28.4369  -20.4633   22.1227 H   0  0  0  0  0  0
  -27.3272  -21.7523   22.4884 H   0  0  0  0  0  0
  -29.0733  -22.0171   22.6003 H   0  0  0  0  0  0
  -26.8494  -23.7194   20.4390 H   0  0  0  0  0  0
  -27.9520  -23.9237   21.7104 H   0  0  0  0  0  0
  -28.6657  -18.8085   20.8154 H   0  0  0  0  0  0
  -29.0012  -18.3336   19.1954 H   0  0  0  0  0  0
  -30.5398  -17.6051   21.7435 H   0  0  0  0  0  0
  -31.3586  -17.3774   20.2666 H   0  0  0  0  0  0
  -28.6401  -24.7950   18.8525 H   0  0  0  0  0  0
  -29.6165  -24.8741   20.2782 H   0  0  0  0  0  0
  -33.2626  -21.2880   17.4345 H   0  0  0  0  0  0
  -28.8935  -15.7874   20.8006 H   0  0  0  0  0  0
  1 25  1  0  0  0
  1 30  2  0  0  0
  1 87  1  0  0  0
  2  3  1  0  0  0
  2 25  1  0  0  0
  2 88  1  0  0  0
  2 89  1  0  0  0
  3  4  1  0  0  0
  3 90  1  0  0  0
  3 91  1  0  0  0
  4  5  1  0  0  0
  4 92  1  0  0  0
  4 93  1  0  0  0
  5  6  1  0  0  0
  5 26  1  0  0  0
  5 94  1  0  0  0
  6 25  1  0  0  0
  6 95  1  0  0  0
  6 96  1  0  0  0
  7  8  2  0  0  0
  7 26  1  0  0  0
  7 29  1  0  0  0
  8  9  1  0  0  0
  8 22  1  0  0  0
  9 10  1  0  0  0
  9 27  2  0  0  0
 10 11  2  0  0  0
 10 15  1  0  0  0
 11 12  1  0  0  0
 11 97  1  0  0  0
 12 13  2  0  0  0
 12 98  1  0  0  0
 13 14  1  0  0  0
 13 31  1  0  0  0
 14 15  2  0  0  0
 14 99  1  0  0  0
 15100  1  0  0  0
 16 17  2  0  0  0
 16 21  1  0  0  0
 16 31  1  0  0  0
 17 18  1  0  0  0
 17101  1  0  0  0
 18 19  2  0  0  0
 18102  1  0  0  0
 19 20  1  0  0  0
 19 24  1  0  0  0
 20 21  2  0  0  0
 20103  1  0  0  0
 21 23  1  0  0  0
 22 28  1  0  0  0
 22 32  2  0  0  0
 26 27  1  0  0  0
 28104  1  0  0  0
 28105  1  0  0  0
 29106  1  0  0  0
 29107  1  0  0  0
 33 34  1  0  0  0
 33 66  1  0  0  0
 33 70  2  0  0  0
 34 36  1  0  0  0
 34 59  1  0  0  0
 34108  1  0  0  0
 35 44  2  0  0  0
 35 45  1  0  0  0
 35 68  1  0  0  0
 36 56  1  0  0  0
 36109  1  0  0  0
 37 39  1  0  0  0
 37 47  1  0  0  0
 37 66  1  0  0  0
 37110  1  0  0  0
 38 43  2  0  0  0
 38 46  1  0  0  0
 38 47  1  0  0  0
 39 64  1  0  0  0
 39 67  2  0  0  0
 40 52  1  0  0  0
 40 53  2  0  0  0
 40 58  1  0  0  0
 41111  1  0  0  0
 41112  1  0  0  0
 41113  1  0  0  0
 41 48  1  0  0  0
 42 43  1  0  0  0
 42 66  1  0  0  0
 42114  1  0  0  0
 42115  1  0  0  0
 43 44  1  0  0  0
 44116  1  0  0  0
 45 46  2  0  0  0
 45117  1  0  0  0
 46118  1  0  0  0
 47119  1  0  0  0
 47120  1  0  0  0
 48 56  1  0  0  0
 48 65  1  0  0  0
 48121  1  0  0  0
 49 50  1  0  0  0
 49 53  1  0  0  0
 49 64  1  0  0  0
 49122  1  0  0  0
 50 51  1  0  0  0
 50123  1  0  0  0
 50124  1  0  0  0
 51 52  1  0  0  0
 51125  1  0  0  0
 51126  1  0  0  0
 52127  1  0  0  0
 52128  1  0  0  0
 53 54  1  0  0  0
 54 55  2  0  0  0
 54129  1  0  0  0
 55 57  1  0  0  0
 55130  1  0  0  0
 56 69  2  0  0  0
 57 58  2  0  0  0
 57131  1  0  0  0
 58132  1  0  0  0
 59 60  1  0  0  0
 59 61  1  0  0  0
 59 62  1  0  0  0
 60133  1  0  0  0
 60134  1  0  0  0
 60135  1  0  0  0
 61136  1  0  0  0
 61137  1  0  0  0
 61138  1  0  0  0
 62139  1  0  0  0
 62140  1  0  0  0
 62141  1  0  0  0
 63 65  1  0  0  0
 63142  1  0  0  0
 63143  1  0  0  0
 63144  1  0  0  0
 64145  1  0  0  0
 65146  1  0  0  0
 68 83  1  0  0  0
 71 72  1  0  0  0
 71 73  2  0  0  0
 71147  1  0  0  0
 72 74  2  0  0  0
 72 84  1  0  0  0
 73 85  1  0  0  0
 73 86  1  0  0  0
 74 75  1  0  0  0
 74 86  1  0  0  0
 75148  1  0  0  0
 75149  1  0  0  0
 75150  1  0  0  0
 76151  1  0  0  0
 76152  1  0  0  0
 76153  1  0  0  0
 76 84  1  0  0  0
 77 84  1  0  0  0
 77154  1  0  0  0
 77155  1  0  0  0
 77156  1  0  0  0
 78157  1  0  0  0
 78158  1  0  0  0
 78159  1  0  0  0
 78 85  1  0  0  0
 79 85  1  0  0  0
 79160  1  0  0  0
 79161  1  0  0  0
 79162  1  0  0  0
 80 83  1  0  0  0
 80 85  1  0  0  0
 80163  1  0  0  0
 80164  1  0  0  0
 81 82  1  0  0  0
 81 86  1  0  0  0
 81165  1  0  0  0
 81166  1  0  0  0
 82 87  1  0  0  0
 82167  1  0  0  0
 82168  1  0  0  0
 83169  1  0  0  0
 83170  1  0  0  0
 84171  1  0  0  0
 87172  1  0  0  0
M  ISO  4   1 100  68 101  83 101  87 100
M  END
> <chiral flag>
0

> <version>
0

> <s_m_source_file>
/data/baiqing/PycharmProjects/Reinvent-master-3.2/result/LINK_invent/BTK/process_docking_weight1_custom_sum_contain_oxygen_bond_distance_aromatic_linkinvent_7_9_3/rearranged_h_0096.sdf

> <i_m_source_file_index>
18

> <r_mmod_Potential_Energy-OPLS-2005>
274.774047851562

> <r_mmod_Stretch_Energy-OPLS-2005>
182.804763793945

> <r_mmod_Bend_Energy-OPLS-2005>
295.374755859375

> <r_mmod_Torsional_Energy-OPLS-2005>
230.462326049805

> <r_mmod_Improper_Torsional_Energy-OPLS-2005>
5.17967748641968

> <r_mmod_Van_der_Waal_Energy-OPLS-2005>
119.787055969238

> <r_mmod_Electrostatic_Energy-OPLS-2005>
-449.349487304688

> <r_mmod_Solvation_Energy-OPLS-2005>
-208.344543457031

> <b_mmod_Minimization_Converged-OPLS-2005>
0

> <r_mmod_RMS_Derivative-OPLS-2005>
8.00220108032227

$$$$
18
                    3D
 Structure written by MMmdl.
184192  0  0  1  0            999 V2000
  -30.6998  -14.3682   20.7611 C   0  0  0  0  0  0
  -30.4502  -12.3223   19.3766 C   0  0  0  0  0  0
  -29.4995  -12.5484   18.1833 C   0  0  0  0  0  0
  -28.0185  -12.3878   18.5900 C   0  0  0  0  0  0
  -27.6677  -13.1868   19.8716 C   0  0  2  0  0  0
  -28.6955  -12.8601   20.9708 C   0  0  0  0  0  0
  -25.2602  -13.8093   20.5582 C   0  0  0  0  0  0
  -24.1861  -13.0400   20.9111 C   0  0  0  0  0  0
  -24.6404  -11.6859   20.8683 C   0  0  0  0  0  0
  -23.9072  -10.4264   21.0391 C   0  0  0  0  0  0
  -24.3630   -9.4189   21.9171 C   0  0  0  0  0  0
  -23.6310   -8.2226   22.0745 C   0  0  0  0  0  0
  -22.4284   -8.0266   21.3541 C   0  0  0  0  0  0
  -21.9922   -9.0233   20.4637 C   0  0  0  0  0  0
  -22.7242  -10.2107   20.3049 C   0  0  0  0  0  0
  -21.6857   -6.0758   22.5299 C   0  0  0  0  0  0
  -21.3993   -6.5651   23.8232 C   0  0  0  0  0  0
  -21.3648   -5.6794   24.9184 C   0  0  0  0  0  0
  -21.6058   -4.3072   24.7236 C   0  0  0  0  0  0
  -21.8827   -3.8158   23.4347 C   0  0  0  0  0  0
  -21.9188   -4.6976   22.3400 C   0  0  0  0  0  0
  -22.7888  -13.5187   21.1830 C   0  0  0  0  0  0
  -22.1663   -4.2162   21.0987 F   0  0  0  0  0  0
  -21.5636   -3.4555   25.7746 F   0  0  0  0  0  0
  -30.0442  -13.2131   20.4712 N   0  0  0  0  0  0
  -26.3036  -12.9245   20.3256 N   0  0  0  0  0  0
  -25.9305  -11.6407   20.5632 N   0  0  0  0  0  0
  -22.0554  -12.8157   22.0391 N   0  0  0  0  0  0
  -25.4316  -15.1826   20.4022 N   0  0  0  0  0  0
  -31.6996  -14.7708   20.1561 O   0  0  0  0  0  0
  -21.6633   -6.8879   21.4256 O   0  0  0  0  0  0
  -22.3548  -14.5515   20.6733 O   0  0  0  0  0  0
  -24.6134  -31.8698   23.2109 C   0  0  0  0  0  0
  -25.9034  -32.4810   23.8417 C   0  0  1  0  0  0
  -27.2249  -27.4506   20.0730 C   0  0  0  0  0  0
  -25.5910  -33.8623   24.2334 N   0  0  0  0  0  0
  -23.3980  -30.4964   21.5570 C   0  0  2  0  0  0
  -24.8349  -28.9685   20.1185 C   0  0  0  0  0  0
  -22.7398  -29.4670   22.5043 C   0  0  0  0  0  0
  -18.0261  -28.1373   22.8506 C   0  0  0  0  0  0
  -24.1489  -36.7287   23.2648 C   0  0  0  0  0  0
  -25.9300  -30.8415   21.3638 C   0  0  0  0  0  0
  -25.9991  -29.4800   20.7031 C   0  0  0  0  0  0
  -27.1947  -28.7287   20.6751 C   0  0  0  0  0  0
  -26.0325  -26.9463   19.4949 C   0  0  0  0  0  0
  -24.8461  -27.7001   19.5165 C   0  0  0  0  0  0
  -23.5983  -29.8320   20.1717 C   0  0  0  0  0  0
  -25.4106  -36.3087   24.0353 C   0  0  1  0  0  0
  -20.5845  -28.3659   23.1361 C   0  0  2  0  0  0
  -20.6772  -26.9390   22.5453 C   0  0  0  0  0  0
  -19.5754  -26.6377   21.5239 C   0  0  0  0  0  0
  -18.1913  -26.7913   22.1613 C   0  0  0  0  0  0
  -19.1515  -28.8831   23.2915 C   0  0  0  0  0  0
  -18.9437  -30.1437   23.8902 C   0  0  0  0  0  0
  -17.6443  -30.6592   24.0554 C   0  0  0  0  0  0
  -25.9048  -34.9463   23.5130 C   0  0  0  0  0  0
  -16.5329  -29.9081   23.6342 C   0  0  0  0  0  0
  -16.7240  -28.6501   23.0364 C   0  0  0  0  0  0
  -26.4455  -31.6572   25.0750 C   0  0  0  0  0  0
  -25.3719  -31.3648   26.1495 C   0  0  0  0  0  0
  -27.0316  -30.3011   24.6163 C   0  0  0  0  0  0
  -27.6050  -32.4285   25.7479 C   0  0  0  0  0  0
  -27.5565  -37.1789   24.8475 C   0  0  0  0  0  0
  -21.4128  -29.3010   22.3749 N   0  0  0  0  0  0
  -26.4286  -37.3774   23.9412 N   0  0  0  0  0  0
  -24.6660  -31.0841   22.0987 N   0  0  0  0  0  0
  -23.4181  -28.8221   23.3086 O   0  0  0  0  0  0
  -28.4198  -26.7635   20.0615 O   0  0  0  0  0  0
  -26.5612  -34.8921   22.4698 O   0  0  0  0  0  0
  -23.5335  -32.1472   23.7512 O   0  0  0  0  0  0
  -28.0122  -19.0684   23.3063 C   0  0  0  0  0  0
  -28.7261  -17.9891   23.7433 C   0  0  0  0  0  0
  -29.1640  -18.3001   25.0695 C   0  0  0  0  0  0
  -28.6821  -19.5479   25.4021 C   0  0  0  0  0  0
  -29.9626  -17.3766   25.9587 C   0  0  0  0  0  0
  -30.1481  -20.2921   27.3705 C   0  0  0  0  0  0
  -27.6515  -19.9590   27.6689 C   0  0  0  0  0  0
  -29.3138  -22.4704   23.6891 C   0  0  0  0  0  0
  -27.1890  -23.7416   24.1262 C   0  0  0  0  0  0
  -28.1029  -22.4178   19.6705 C   0  0  0  0  0  0
  -28.8806  -16.6679   23.0065 C   0  0  0  0  0  0
  -27.1286  -21.2387   24.2466 C   0  0  0  0  0  0
  -30.2336  -16.3661   22.3105 C   0  0  0  0  0  0
  -27.8412  -24.5565   20.9564 C   0  0  0  0  0  0
  -27.3793  -22.3267   21.9927 C   0  0  0  0  0  0
  -28.4241  -25.3612   19.7701 C   0  0  0  0  0  0
  -28.7712  -20.3417   26.6891 C   0  0  0  0  0  0
  -27.7781  -22.4538   23.4989 C   0  0  0  0  0  0
  -27.9343  -20.0096   24.3177 N   0  0  0  0  0  0
  -30.1322  -15.0026   21.7949 N   0  0  0  0  0  0
  -28.1748  -23.0991   20.9929 N   0  3  1  0  0  0
  -31.4874  -12.4902   19.0804 H   0  0  0  0  0  0
  -30.4037  -11.2849   19.7100 H   0  0  0  0  0  0
  -29.7451  -11.8573   17.3761 H   0  0  0  0  0  0
  -29.6555  -13.5515   17.7806 H   0  0  0  0  0  0
  -27.8264  -11.3249   18.7497 H   0  0  0  0  0  0
  -27.3716  -12.6955   17.7679 H   0  0  0  0  0  0
  -27.7446  -14.2471   19.6256 H   0  0  0  0  0  0
  -28.6718  -11.7912   21.1861 H   0  0  0  0  0  0
  -28.3995  -13.3305   21.9089 H   0  0  0  0  0  0
  -25.2808   -9.5677   22.4696 H   0  0  0  0  0  0
  -24.0057   -7.4618   22.7445 H   0  0  0  0  0  0
  -21.0869   -8.8738   19.8927 H   0  0  0  0  0  0
  -22.3728  -10.9636   19.6128 H   0  0  0  0  0  0
  -21.1974   -7.6158   23.9746 H   0  0  0  0  0  0
  -21.1459   -6.0517   25.9093 H   0  0  0  0  0  0
  -22.0613   -2.7624   23.2849 H   0  0  0  0  0  0
  -22.4205  -11.9838   22.4815 H   0  0  0  0  0  0
  -21.1143  -13.1111   22.2549 H   0  0  0  0  0  0
  -24.6660  -15.8347   20.5286 H   0  0  0  0  0  0
  -26.2853  -15.6332   20.1000 H   0  0  0  0  0  0
  -26.7108  -32.5520   23.1192 H   0  0  0  0  0  0
  -25.0042  -33.9809   25.0466 H   0  0  0  0  0  0
  -22.6839  -31.3124   21.4191 H   0  0  0  0  0  0
  -23.3759  -35.9614   23.3336 H   0  0  0  0  0  0
  -24.3600  -36.8881   22.2055 H   0  0  0  0  0  0
  -23.7249  -37.6505   23.6662 H   0  0  0  0  0  0
  -26.0705  -31.6223   20.6152 H   0  0  0  0  0  0
  -26.8071  -30.8691   21.9980 H   0  0  0  0  0  0
  -28.0972  -29.1280   21.1173 H   0  0  0  0  0  0
  -25.9842  -25.9807   19.0164 H   0  0  0  0  0  0
  -23.9460  -27.3013   19.0691 H   0  0  0  0  0  0
  -23.6992  -30.6136   19.4170 H   0  0  0  0  0  0
  -22.7220  -29.2512   19.8764 H   0  0  0  0  0  0
  -25.1265  -36.1957   25.0850 H   0  0  0  0  0  0
  -20.9906  -28.3234   24.1492 H   0  0  0  0  0  0
  -20.5759  -26.2200   23.3615 H   0  0  0  0  0  0
  -21.6631  -26.7523   22.1158 H   0  0  0  0  0  0
  -19.6962  -25.6311   21.1227 H   0  0  0  0  0  0
  -19.6729  -27.3223   20.6804 H   0  0  0  0  0  0
  -17.4187  -26.6681   21.4000 H   0  0  0  0  0  0
  -18.0305  -26.0075   22.9027 H   0  0  0  0  0  0
  -19.7924  -30.7250   24.2262 H   0  0  0  0  0  0
  -17.5011  -31.6291   24.5124 H   0  0  0  0  0  0
  -15.5327  -30.2966   23.7713 H   0  0  0  0  0  0
  -15.8630  -28.0813   22.7092 H   0  0  0  0  0  0
  -24.5951  -30.6926   25.7817 H   0  0  0  0  0  0
  -24.8852  -32.2784   26.4923 H   0  0  0  0  0  0
  -25.8103  -30.8852   27.0257 H   0  0  0  0  0  0
  -26.2911  -29.6721   24.1222 H   0  0  0  0  0  0
  -27.4064  -29.7274   25.4647 H   0  0  0  0  0  0
  -27.8731  -30.4286   23.9355 H   0  0  0  0  0  0
  -27.2711  -33.3607   26.2035 H   0  0  0  0  0  0
  -28.3850  -32.6797   25.0277 H   0  0  0  0  0  0
  -28.0727  -31.8429   26.5393 H   0  0  0  0  0  0
  -28.2561  -38.0088   24.7511 H   0  0  0  0  0  0
  -28.1059  -36.2628   24.6297 H   0  0  0  0  0  0
  -27.2300  -37.1428   25.8878 H   0  0  0  0  0  0
  -20.9276  -29.8614   21.6884 H   0  0  0  0  0  0
  -26.0168  -38.2851   24.1426 H   0  0  0  0  0  0
  -27.4819  -19.2111   22.3752 H   0  0  0  0  0  0
  -29.9598  -16.3517   25.5888 H   0  0  0  0  0  0
  -29.5495  -17.3591   26.9681 H   0  0  0  0  0  0
  -30.9982  -17.7125   26.0115 H   0  0  0  0  0  0
  -30.9326  -20.6021   26.6789 H   0  0  0  0  0  0
  -30.4029  -19.3029   27.7483 H   0  0  0  0  0  0
  -30.1780  -20.9725   28.2226 H   0  0  0  0  0  0
  -26.6695  -20.0719   27.2086 H   0  0  0  0  0  0
  -27.6692  -20.5970   28.5532 H   0  0  0  0  0  0
  -27.7456  -18.9250   28.0006 H   0  0  0  0  0  0
  -29.5721  -22.4767   24.7486 H   0  0  0  0  0  0
  -29.7805  -23.3547   23.2578 H   0  0  0  0  0  0
  -29.7936  -21.5976   23.2450 H   0  0  0  0  0  0
  -27.3205  -23.7568   25.2081 H   0  0  0  0  0  0
  -26.1208  -23.8373   23.9333 H   0  0  0  0  0  0
  -27.6668  -24.6496   23.7756 H   0  0  0  0  0  0
  -28.6992  -22.9077   18.9018 H   0  0  0  0  0  0
  -27.0739  -22.3505   19.3122 H   0  0  0  0  0  0
  -28.4922  -21.3988   19.7449 H   0  0  0  0  0  0
  -28.0697  -16.5951   22.2791 H   0  0  0  0  0  0
  -28.6705  -15.8852   23.7372 H   0  0  0  0  0  0
  -26.1714  -20.9842   23.7871 H   0  0  0  0  0  0
  -26.8431  -21.5196   25.2593 H   0  0  0  0  0  0
  -31.0602  -16.4278   23.0174 H   0  0  0  0  0  0
  -30.4337  -17.0700   21.5011 H   0  0  0  0  0  0
  -26.7645  -24.7094   21.0290 H   0  0  0  0  0  0
  -28.2806  -25.0033   21.8414 H   0  0  0  0  0  0
  -26.3192  -22.5404   21.8529 H   0  0  0  0  0  0
  -27.4762  -21.2772   21.7296 H   0  0  0  0  0  0
  -27.9313  -25.1334   18.8257 H   0  0  0  0  0  0
  -29.4652  -25.0790   19.6246 H   0  0  0  0  0  0
  -28.6307  -21.3973   26.4643 H   0  0  0  0  0  0
  -29.3760  -14.4669   22.1921 H   0  0  0  0  0  0
  -29.1411  -23.0265   21.2765 H   0  0  0  0  0  0
  1 25  1  0  0  0
  1 30  2  0  0  0
  1 90  1  0  0  0
  2  3  1  0  0  0
  2 25  1  0  0  0
  2 92  1  0  0  0
  2 93  1  0  0  0
  3  4  1  0  0  0
  3 94  1  0  0  0
  3 95  1  0  0  0
  4  5  1  0  0  0
  4 96  1  0  0  0
  4 97  1  0  0  0
  5  6  1  0  0  0
  5 26  1  0  0  0
  5 98  1  0  0  0
  6 25  1  0  0  0
  6 99  1  0  0  0
  6100  1  0  0  0
  7  8  2  0  0  0
  7 26  1  0  0  0
  7 29  1  0  0  0
  8  9  1  0  0  0
  8 22  1  0  0  0
  9 10  1  0  0  0
  9 27  2  0  0  0
 10 11  2  0  0  0
 10 15  1  0  0  0
 11 12  1  0  0  0
 11101  1  0  0  0
 12 13  2  0  0  0
 12102  1  0  0  0
 13 14  1  0  0  0
 13 31  1  0  0  0
 14 15  2  0  0  0
 14103  1  0  0  0
 15104  1  0  0  0
 16 17  2  0  0  0
 16 21  1  0  0  0
 16 31  1  0  0  0
 17 18  1  0  0  0
 17105  1  0  0  0
 18 19  2  0  0  0
 18106  1  0  0  0
 19 20  1  0  0  0
 19 24  1  0  0  0
 20 21  2  0  0  0
 20107  1  0  0  0
 21 23  1  0  0  0
 22 28  1  0  0  0
 22 32  2  0  0  0
 26 27  1  0  0  0
 28108  1  0  0  0
 28109  1  0  0  0
 29110  1  0  0  0
 29111  1  0  0  0
 33 34  1  0  0  0
 33 66  1  0  0  0
 33 70  2  0  0  0
 34 36  1  0  0  0
 34 59  1  0  0  0
 34112  1  0  0  0
 35 44  2  0  0  0
 35 45  1  0  0  0
 35 68  1  0  0  0
 36 56  1  0  0  0
 36113  1  0  0  0
 37 39  1  0  0  0
 37 47  1  0  0  0
 37 66  1  0  0  0
 37114  1  0  0  0
 38 43  2  0  0  0
 38 46  1  0  0  0
 38 47  1  0  0  0
 39 64  1  0  0  0
 39 67  2  0  0  0
 40 52  1  0  0  0
 40 53  2  0  0  0
 40 58  1  0  0  0
 41115  1  0  0  0
 41116  1  0  0  0
 41117  1  0  0  0
 41 48  1  0  0  0
 42 43  1  0  0  0
 42 66  1  0  0  0
 42118  1  0  0  0
 42119  1  0  0  0
 43 44  1  0  0  0
 44120  1  0  0  0
 45 46  2  0  0  0
 45121  1  0  0  0
 46122  1  0  0  0
 47123  1  0  0  0
 47124  1  0  0  0
 48 56  1  0  0  0
 48 65  1  0  0  0
 48125  1  0  0  0
 49 50  1  0  0  0
 49 53  1  0  0  0
 49 64  1  0  0  0
 49126  1  0  0  0
 50 51  1  0  0  0
 50127  1  0  0  0
 50128  1  0  0  0
 51 52  1  0  0  0
 51129  1  0  0  0
 51130  1  0  0  0
 52131  1  0  0  0
 52132  1  0  0  0
 53 54  1  0  0  0
 54 55  2  0  0  0
 54133  1  0  0  0
 55 57  1  0  0  0
 55134  1  0  0  0
 56 69  2  0  0  0
 57 58  2  0  0  0
 57135  1  0  0  0
 58136  1  0  0  0
 59 60  1  0  0  0
 59 61  1  0  0  0
 59 62  1  0  0  0
 60137  1  0  0  0
 60138  1  0  0  0
 60139  1  0  0  0
 61140  1  0  0  0
 61141  1  0  0  0
 61142  1  0  0  0
 62143  1  0  0  0
 62144  1  0  0  0
 62145  1  0  0  0
 63 65  1  0  0  0
 63146  1  0  0  0
 63147  1  0  0  0
 63148  1  0  0  0
 64149  1  0  0  0
 65150  1  0  0  0
 68 86  1  0  0  0
 71 72  2  0  0  0
 71 89  1  0  0  0
 71151  1  0  0  0
 72 73  1  0  0  0
 72 81  1  0  0  0
 73 74  2  0  0  0
 73 75  1  0  0  0
 74 87  1  0  0  0
 74 89  1  0  0  0
 75152  1  0  0  0
 75153  1  0  0  0
 75154  1  0  0  0
 76155  1  0  0  0
 76156  1  0  0  0
 76157  1  0  0  0
 76 87  1  0  0  0
 77 87  1  0  0  0
 77158  1  0  0  0
 77159  1  0  0  0
 77160  1  0  0  0
 78161  1  0  0  0
 78162  1  0  0  0
 78163  1  0  0  0
 78 88  1  0  0  0
 79 88  1  0  0  0
 79164  1  0  0  0
 79165  1  0  0  0
 79166  1  0  0  0
 80167  1  0  0  0
 80168  1  0  0  0
 80169  1  0  0  0
 80 91  1  0  0  0
 81 83  1  0  0  0
 81170  1  0  0  0
 81171  1  0  0  0
 82 88  1  0  0  0
 82 89  1  0  0  0
 82172  1  0  0  0
 82173  1  0  0  0
 83 90  1  0  0  0
 83174  1  0  0  0
 83175  1  0  0  0
 84 86  1  0  0  0
 84 91  1  0  0  0
 84176  1  0  0  0
 84177  1  0  0  0
 85 88  1  0  0  0
 85 91  1  0  0  0
 85178  1  0  0  0
 85179  1  0  0  0
 86180  1  0  0  0
 86181  1  0  0  0
 87182  1  0  0  0
 90183  1  0  0  0
 91184  1  0  0  0
M  CHG  1  91   1
M  ISO  4   1 100  68 101  86 101  90 100
M  END
> <chiral flag>
0

> <version>
0

> <s_m_source_file>
/data/baiqing/PycharmProjects/Reinvent-master-3.2/result/LINK_invent/BTK/process_docking_weight1_custom_sum_contain_oxygen_bond_distance_aromatic_linkinvent_7_9_3/rearranged_h_0096.sdf

> <i_m_source_file_index>
19

> <r_mmod_Potential_Energy-OPLS-2005>
-135.042007446289

> <r_mmod_Stretch_Energy-OPLS-2005>
41.0703125

> <r_mmod_Bend_Energy-OPLS-2005>
142.065414428711

> <r_mmod_Torsional_Energy-OPLS-2005>
239.233276367188

> <r_mmod_Improper_Torsional_Energy-OPLS-2005>
3.12747478485107

> <r_mmod_Van_der_Waal_Energy-OPLS-2005>
141.047271728516

> <r_mmod_Electrostatic_Energy-OPLS-2005>
-293.073211669922

> <r_mmod_Solvation_Energy-OPLS-2005>
-422.197814941406

> <b_mmod_Minimization_Converged-OPLS-2005>
0

> <r_mmod_RMS_Derivative-OPLS-2005>
4.70264530181885

$$$$
19
                    3D
 Structure written by MMmdl.
179187  0  0  1  0            999 V2000
  -30.6866  -14.5158   20.5528 C   0  0  0  0  0  0
  -30.4234  -12.3336   19.4225 C   0  0  0  0  0  0
  -29.4913  -12.5020   18.2056 C   0  0  0  0  0  0
  -28.0152  -12.3543   18.6235 C   0  0  0  0  0  0
  -27.6561  -13.2081   19.8677 C   0  0  2  0  0  0
  -28.7002  -13.0192   20.9898 C   0  0  0  0  0  0
  -25.2554  -13.8128   20.5588 C   0  0  0  0  0  0
  -24.1834  -13.0421   20.9188 C   0  0  0  0  0  0
  -24.6399  -11.6894   20.8756 C   0  0  0  0  0  0
  -23.9050  -10.4292   21.0417 C   0  0  0  0  0  0
  -24.3603   -9.4208   21.9195 C   0  0  0  0  0  0
  -23.6288   -8.2240   22.0757 C   0  0  0  0  0  0
  -22.4271   -8.0281   21.3544 C   0  0  0  0  0  0
  -21.9907   -9.0247   20.4641 C   0  0  0  0  0  0
  -22.7221  -10.2129   20.3062 C   0  0  0  0  0  0
  -21.6861   -6.0730   22.5275 C   0  0  0  0  0  0
  -21.4015   -6.5635   23.8209 C   0  0  0  0  0  0
  -21.3665   -5.6790   24.9169 C   0  0  0  0  0  0
  -21.6042   -4.3057   24.7217 C   0  0  0  0  0  0
  -21.8818   -3.8141   23.4348 C   0  0  0  0  0  0
  -21.9193   -4.6954   22.3398 C   0  0  0  0  0  0
  -22.7854  -13.5235   21.1830 C   0  0  0  0  0  0
  -22.1665   -4.2147   21.0978 F   0  0  0  0  0  0
  -21.5626   -3.4538   25.7732 F   0  0  0  0  0  0
  -30.0217  -13.3339   20.4240 N   0  0  0  0  0  0
  -26.3003  -12.9318   20.3327 N   0  0  0  0  0  0
  -25.9333  -11.6483   20.5798 N   0  0  0  0  0  0
  -22.0498  -12.8238   22.0396 N   0  0  0  0  0  0
  -25.4207  -15.1801   20.3773 N   0  0  0  0  0  0
  -31.8336  -14.6824   20.1313 O   0  0  0  0  0  0
  -21.6642   -6.8866   21.4240 O   0  0  0  0  0  0
  -22.3554  -14.5545   20.6679 O   0  0  0  0  0  0
  -24.6224  -31.8630   23.2043 C   0  0  0  0  0  0
  -25.9113  -32.4800   23.8355 C   0  0  1  0  0  0
  -27.2460  -27.4172   20.0447 C   0  0  0  0  0  0
  -25.6019  -33.8598   24.2307 N   0  0  0  0  0  0
  -23.4117  -30.4879   21.5464 C   0  0  2  0  0  0
  -24.8536  -28.9462   20.1087 C   0  0  0  0  0  0
  -22.7476  -29.4642   22.4954 C   0  0  0  0  0  0
  -18.0307  -28.1392   22.8531 C   0  0  0  0  0  0
  -24.1491  -36.7257   23.2643 C   0  0  0  0  0  0
  -25.9425  -30.8182   21.3568 C   0  0  0  0  0  0
  -26.0162  -29.4493   20.7010 C   0  0  0  0  0  0
  -27.2112  -28.6900   20.6730 C   0  0  0  0  0  0
  -26.0501  -26.9144   19.4920 C   0  0  0  0  0  0
  -24.8638  -27.6754   19.5052 C   0  0  0  0  0  0
  -23.6211  -29.8239   20.1590 C   0  0  0  0  0  0
  -25.4107  -36.3049   24.0329 C   0  0  1  0  0  0
  -20.5904  -28.3680   23.1304 C   0  0  2  0  0  0
  -20.6780  -26.9407   22.5394 C   0  0  0  0  0  0
  -19.5737  -26.6381   21.5230 C   0  0  0  0  0  0
  -18.1926  -26.7947   22.1645 C   0  0  0  0  0  0
  -19.1556  -28.8857   23.2939 C   0  0  0  0  0  0
  -18.9500  -30.1471   23.8945 C   0  0  0  0  0  0
  -17.6501  -30.6609   24.0587 C   0  0  0  0  0  0
  -25.9054  -34.9442   23.5080 C   0  0  0  0  0  0
  -16.5394  -29.9110   23.6342 C   0  0  0  0  0  0
  -16.7304  -28.6521   23.0379 C   0  0  0  0  0  0
  -26.4497  -31.6636   25.0748 C   0  0  0  0  0  0
  -25.3754  -31.3787   26.1504 C   0  0  0  0  0  0
  -27.0342  -30.3113   24.6108 C   0  0  0  0  0  0
  -27.6063  -32.4380   25.7529 C   0  0  0  0  0  0
  -27.5550  -37.1774   24.8486 C   0  0  0  0  0  0
  -21.4198  -29.3037   22.3711 N   0  0  0  0  0  0
  -26.4262  -37.3750   23.9445 N   0  0  0  0  0  0
  -24.6782  -31.0710   22.0938 N   0  0  0  0  0  0
  -23.4267  -28.8136   23.2954 O   0  0  0  0  0  0
  -28.4046  -26.6612   20.1245 O   0  0  0  0  0  0
  -26.5574  -34.8911   22.4610 O   0  0  0  0  0  0
  -23.5401  -32.1419   23.7384 O   0  0  0  0  0  0
  -27.6256  -17.8314   21.4544 C   0  0  0  0  0  0
  -26.2749  -18.1858   21.5023 C   0  0  0  0  0  0
  -28.5465  -18.6356   20.7515 C   0  0  0  0  0  0
  -28.0565  -19.8570   20.1623 C   0  0  0  0  0  0
  -26.6466  -20.0807   20.2230 C   0  0  0  0  0  0
  -25.3542  -22.2571   20.5114 C   0  0  0  0  0  0
  -31.6712  -23.9399   21.1765 C   0  0  0  0  0  0
  -29.1631  -25.2646   16.5328 C   0  0  0  0  0  0
  -30.0063  -18.1427   20.6218 C   0  0  0  0  0  0
  -28.9825  -20.8526   19.4042 C   0  0  0  0  0  0
  -25.9251  -21.2283   19.5270 C   0  0  0  0  0  0
  -30.5687  -24.9485   20.8062 C   0  0  0  0  0  0
  -28.2713  -25.7875   17.6729 C   0  0  0  0  0  0
  -30.4811  -16.8869   21.4460 C   0  0  0  0  0  0
  -28.7024  -23.4008   19.8035 C   0  0  0  0  0  0
  -29.6873  -24.5995   19.5716 C   0  0  1  0  0  0
  -29.0127  -25.9220   19.0337 C   0  0  2  0  0  0
  -25.7924  -19.2715   20.8826 N   0  0  0  0  0  0
  -29.9726  -15.5466   21.0588 N   0  0  0  0  0  0
  -29.3745  -22.1017   20.1349 N   0  3  0  0  0  0
  -31.4671  -12.4399   19.1223 H   0  0  0  0  0  0
  -30.3350  -11.3299   19.8392 H   0  0  0  0  0  0
  -29.7386  -11.7667   17.4389 H   0  0  0  0  0  0
  -29.6490  -13.4803   17.7509 H   0  0  0  0  0  0
  -27.8395  -11.2997   18.8350 H   0  0  0  0  0  0
  -27.3605  -12.6053   17.7897 H   0  0  0  0  0  0
  -27.6909  -14.2506   19.5530 H   0  0  0  0  0  0
  -28.6905  -11.9898   21.3508 H   0  0  0  0  0  0
  -28.4591  -13.6355   21.8573 H   0  0  0  0  0  0
  -25.2749   -9.5684   22.4773 H   0  0  0  0  0  0
  -23.9995   -7.4629   22.7487 H   0  0  0  0  0  0
  -21.0839   -8.8750   19.8950 H   0  0  0  0  0  0
  -22.3682  -10.9661   19.6169 H   0  0  0  0  0  0
  -21.2024   -7.6146   23.9708 H   0  0  0  0  0  0
  -21.1485   -6.0524   25.9069 H   0  0  0  0  0  0
  -22.0599   -2.7607   23.2841 H   0  0  0  0  0  0
  -22.4116  -11.9899   22.4771 H   0  0  0  0  0  0
  -21.1124  -13.1269   22.2600 H   0  0  0  0  0  0
  -24.6135  -15.7939   20.3599 H   0  0  0  0  0  0
  -26.2305  -15.5801   19.9200 H   0  0  0  0  0  0
  -26.7188  -32.5495   23.1105 H   0  0  0  0  0  0
  -25.0342  -33.9739   25.0588 H   0  0  0  0  0  0
  -22.7028  -31.3062   21.4042 H   0  0  0  0  0  0
  -23.3741  -35.9614   23.3346 H   0  0  0  0  0  0
  -24.3552  -36.8811   22.2041 H   0  0  0  0  0  0
  -23.7210  -37.6455   23.6626 H   0  0  0  0  0  0
  -26.0532  -31.5795   20.5812 H   0  0  0  0  0  0
  -26.8295  -30.8774   21.9761 H   0  0  0  0  0  0
  -28.1110  -29.0681   21.1381 H   0  0  0  0  0  0
  -25.9980  -25.9175   19.0835 H   0  0  0  0  0  0
  -23.9626  -27.2719   19.0664 H   0  0  0  0  0  0
  -23.7396  -30.6058   19.4072 H   0  0  0  0  0  0
  -22.7422  -29.2576   19.8500 H   0  0  0  0  0  0
  -25.1262  -36.1870   25.0809 H   0  0  0  0  0  0
  -21.0059  -28.3230   24.1394 H   0  0  0  0  0  0
  -20.5703  -26.2293   23.3591 H   0  0  0  0  0  0
  -21.6630  -26.7397   22.1160 H   0  0  0  0  0  0
  -19.6878  -25.6287   21.1251 H   0  0  0  0  0  0
  -19.6672  -27.3213   20.6786 H   0  0  0  0  0  0
  -17.4186  -26.6803   21.4043 H   0  0  0  0  0  0
  -18.0274  -26.0061   22.9014 H   0  0  0  0  0  0
  -19.7984  -30.7293   24.2301 H   0  0  0  0  0  0
  -17.5065  -31.6282   24.5188 H   0  0  0  0  0  0
  -15.5408  -30.3051   23.7594 H   0  0  0  0  0  0
  -15.8715  -28.0850   22.7063 H   0  0  0  0  0  0
  -24.5932  -30.7106   25.7866 H   0  0  0  0  0  0
  -24.8946  -32.2964   26.4931 H   0  0  0  0  0  0
  -25.8089  -30.8969   27.0289 H   0  0  0  0  0  0
  -26.2859  -29.6898   24.1171 H   0  0  0  0  0  0
  -27.4167  -29.7305   25.4511 H   0  0  0  0  0  0
  -27.8672  -30.4496   23.9212 H   0  0  0  0  0  0
  -27.2662  -33.3697   26.2077 H   0  0  0  0  0  0
  -28.3869  -32.6942   25.0357 H   0  0  0  0  0  0
  -28.0774  -31.8558   26.5462 H   0  0  0  0  0  0
  -28.2554  -38.0087   24.7493 H   0  0  0  0  0  0
  -28.1004  -36.2578   24.6311 H   0  0  0  0  0  0
  -27.2262  -37.1421   25.8890 H   0  0  0  0  0  0
  -20.9363  -29.8853   21.7008 H   0  0  0  0  0  0
  -26.0129  -38.2795   24.1519 H   0  0  0  0  0  0
  -27.9171  -16.9238   21.9552 H   0  0  0  0  0  0
  -25.5607  -17.5686   22.0294 H   0  0  0  0  0  0
  -24.9003  -23.0930   19.9782 H   0  0  0  0  0  0
  -26.1191  -22.6495   21.1777 H   0  0  0  0  0  0
  -24.5842  -21.8007   21.1327 H   0  0  0  0  0  0
  -32.3448  -24.3777   21.9154 H   0  0  0  0  0  0
  -32.2812  -23.6644   20.3169 H   0  0  0  0  0  0
  -31.2797  -23.0349   21.6370 H   0  0  0  0  0  0
  -29.3389  -24.1906   16.6157 H   0  0  0  0  0  0
  -30.1299  -25.7703   16.5174 H   0  0  0  0  0  0
  -28.6955  -25.4376   15.5633 H   0  0  0  0  0  0
  -30.6415  -18.9728   20.9374 H   0  0  0  0  0  0
  -30.2285  -17.9857   19.5655 H   0  0  0  0  0  0
  -28.5839  -21.0839   18.4167 H   0  0  0  0  0  0
  -29.9171  -20.3450   19.1705 H   0  0  0  0  0  0
  -25.1045  -20.8052   18.9446 H   0  0  0  0  0  0
  -26.5471  -21.7209   18.7904 H   0  0  0  0  0  0
  -31.0791  -25.8919   20.5983 H   0  0  0  0  0  0
  -29.9369  -25.1453   21.6752 H   0  0  0  0  0  0
  -27.4053  -25.1323   17.7386 H   0  0  0  0  0  0
  -27.9013  -26.7688   17.3744 H   0  0  0  0  0  0
  -30.2438  -17.0423   22.4983 H   0  0  0  0  0  0
  -31.5714  -16.8639   21.4122 H   0  0  0  0  0  0
  -28.1072  -23.2826   18.8998 H   0  0  0  0  0  0
  -28.0048  -23.6577   20.6006 H   0  0  0  0  0  0
  -30.3728  -24.2831   18.7851 H   0  0  0  0  0  0
  -29.8525  -26.5753   18.7867 H   0  0  0  0  0  0
  -29.0165  -15.3391   21.3025 H   0  0  0  0  0  0
  -30.3471  -22.2385   19.9027 H   0  0  0  0  0  0
  -29.3449  -21.9451   21.1295 H   0  0  0  0  0  0
  1 25  1  0  0  0
  1 30  2  0  0  0
  1 89  1  0  0  0
  2  3  1  0  0  0
  2 25  1  0  0  0
  2 91  1  0  0  0
  2 92  1  0  0  0
  3  4  1  0  0  0
  3 93  1  0  0  0
  3 94  1  0  0  0
  4  5  1  0  0  0
  4 95  1  0  0  0
  4 96  1  0  0  0
  5  6  1  0  0  0
  5 26  1  0  0  0
  5 97  1  0  0  0
  6 25  1  0  0  0
  6 98  1  0  0  0
  6 99  1  0  0  0
  7  8  2  0  0  0
  7 26  1  0  0  0
  7 29  1  0  0  0
  8  9  1  0  0  0
  8 22  1  0  0  0
  9 10  1  0  0  0
  9 27  2  0  0  0
 10 11  2  0  0  0
 10 15  1  0  0  0
 11 12  1  0  0  0
 11100  1  0  0  0
 12 13  2  0  0  0
 12101  1  0  0  0
 13 14  1  0  0  0
 13 31  1  0  0  0
 14 15  2  0  0  0
 14102  1  0  0  0
 15103  1  0  0  0
 16 17  2  0  0  0
 16 21  1  0  0  0
 16 31  1  0  0  0
 17 18  1  0  0  0
 17104  1  0  0  0
 18 19  2  0  0  0
 18105  1  0  0  0
 19 20  1  0  0  0
 19 24  1  0  0  0
 20 21  2  0  0  0
 20106  1  0  0  0
 21 23  1  0  0  0
 22 28  1  0  0  0
 22 32  2  0  0  0
 26 27  1  0  0  0
 28107  1  0  0  0
 28108  1  0  0  0
 29109  1  0  0  0
 29110  1  0  0  0
 33 34  1  0  0  0
 33 66  1  0  0  0
 33 70  2  0  0  0
 34 36  1  0  0  0
 34 59  1  0  0  0
 34111  1  0  0  0
 35 44  2  0  0  0
 35 45  1  0  0  0
 35 68  1  0  0  0
 36 56  1  0  0  0
 36112  1  0  0  0
 37 39  1  0  0  0
 37 47  1  0  0  0
 37 66  1  0  0  0
 37113  1  0  0  0
 38 43  2  0  0  0
 38 46  1  0  0  0
 38 47  1  0  0  0
 39 64  1  0  0  0
 39 67  2  0  0  0
 40 52  1  0  0  0
 40 53  2  0  0  0
 40 58  1  0  0  0
 41114  1  0  0  0
 41115  1  0  0  0
 41116  1  0  0  0
 41 48  1  0  0  0
 42 43  1  0  0  0
 42 66  1  0  0  0
 42117  1  0  0  0
 42118  1  0  0  0
 43 44  1  0  0  0
 44119  1  0  0  0
 45 46  2  0  0  0
 45120  1  0  0  0
 46121  1  0  0  0
 47122  1  0  0  0
 47123  1  0  0  0
 48 56  1  0  0  0
 48 65  1  0  0  0
 48124  1  0  0  0
 49 50  1  0  0  0
 49 53  1  0  0  0
 49 64  1  0  0  0
 49125  1  0  0  0
 50 51  1  0  0  0
 50126  1  0  0  0
 50127  1  0  0  0
 51 52  1  0  0  0
 51128  1  0  0  0
 51129  1  0  0  0
 52130  1  0  0  0
 52131  1  0  0  0
 53 54  1  0  0  0
 54 55  2  0  0  0
 54132  1  0  0  0
 55 57  1  0  0  0
 55133  1  0  0  0
 56 69  2  0  0  0
 57 58  2  0  0  0
 57134  1  0  0  0
 58135  1  0  0  0
 59 60  1  0  0  0
 59 61  1  0  0  0
 59 62  1  0  0  0
 60136  1  0  0  0
 60137  1  0  0  0
 60138  1  0  0  0
 61139  1  0  0  0
 61140  1  0  0  0
 61141  1  0  0  0
 62142  1  0  0  0
 62143  1  0  0  0
 62144  1  0  0  0
 63 65  1  0  0  0
 63145  1  0  0  0
 63146  1  0  0  0
 63147  1  0  0  0
 64148  1  0  0  0
 65149  1  0  0  0
 68 87  1  0  0  0
 71 72  2  0  0  0
 71 73  1  0  0  0
 71150  1  0  0  0
 72 88  1  0  0  0
 72151  1  0  0  0
 73 74  2  0  0  0
 73 79  1  0  0  0
 74 75  1  0  0  0
 74 80  1  0  0  0
 75 81  1  0  0  0
 75 88  2  0  0  0
 76 81  1  0  0  0
 76152  1  0  0  0
 76153  1  0  0  0
 76154  1  0  0  0
 77 82  1  0  0  0
 77155  1  0  0  0
 77156  1  0  0  0
 77157  1  0  0  0
 78 83  1  0  0  0
 78158  1  0  0  0
 78159  1  0  0  0
 78160  1  0  0  0
 79 84  1  0  0  0
 79161  1  0  0  0
 79162  1  0  0  0
 80 90  1  0  0  0
 80163  1  0  0  0
 80164  1  0  0  0
 81165  1  0  0  0
 81166  1  0  0  0
 82167  1  0  0  0
 82168  1  0  0  0
 82 86  1  0  0  0
 83169  1  0  0  0
 83170  1  0  0  0
 83 87  1  0  0  0
 84 89  1  0  0  0
 84171  1  0  0  0
 84172  1  0  0  0
 85 86  1  0  0  0
 85 90  1  0  0  0
 85173  1  0  0  0
 85174  1  0  0  0
 86 87  1  0  0  0
 86175  1  0  0  0
 87176  1  0  0  0
 89177  1  0  0  0
 90178  1  0  0  0
 90179  1  0  0  0
M  CHG  1  90   1
M  ISO  4   1 100  68 101  87 101  89 100
M  END
> <chiral flag>
0

> <version>
0

> <s_m_source_file>
/data/baiqing/PycharmProjects/Reinvent-master-3.2/result/LINK_invent/BTK/process_docking_weight1_custom_sum_contain_oxygen_bond_distance_aromatic_linkinvent_7_9_3/rearranged_h_0096.sdf

> <i_m_source_file_index>
20

> <r_mmod_Potential_Energy-OPLS-2005>
-212.137557983398

> <r_mmod_Stretch_Energy-OPLS-2005>
57.4688682556152

> <r_mmod_Bend_Energy-OPLS-2005>
162.291122436523

> <r_mmod_Torsional_Energy-OPLS-2005>
247.281234741211

> <r_mmod_Improper_Torsional_Energy-OPLS-2005>
5.08239221572876

> <r_mmod_Van_der_Waal_Energy-OPLS-2005>
146.096252441406

> <r_mmod_Electrostatic_Energy-OPLS-2005>
-396.73583984375

> <r_mmod_Solvation_Energy-OPLS-2005>
-453.865539550781

> <b_mmod_Minimization_Converged-OPLS-2005>
0

> <r_mmod_RMS_Derivative-OPLS-2005>
4.51404666900635

$$$$
20
                    3D
 Structure written by MMmdl.
165173  0  0  1  0            999 V2000
  -30.6672  -14.6934   20.4292 C   0  0  0  0  0  0
  -30.4250  -12.4176   19.4608 C   0  0  0  0  0  0
  -29.5128  -12.4804   18.2194 C   0  0  0  0  0  0
  -28.0333  -12.3221   18.6294 C   0  0  0  0  0  0
  -27.6377  -13.2328   19.8241 C   0  0  2  0  0  0
  -28.6848  -13.1919   20.9565 C   0  0  0  0  0  0
  -25.2524  -13.8177   20.5677 C   0  0  0  0  0  0
  -24.1789  -13.0439   20.9184 C   0  0  0  0  0  0
  -24.6339  -11.6910   20.8632 C   0  0  0  0  0  0
  -23.8978  -10.4298   21.0341 C   0  0  0  0  0  0
  -24.3534   -9.4232   21.9124 C   0  0  0  0  0  0
  -23.6262   -8.2230   22.0733 C   0  0  0  0  0  0
  -22.4262   -8.0211   21.3526 C   0  0  0  0  0  0
  -21.9847   -9.0186   20.4641 C   0  0  0  0  0  0
  -22.7121  -10.2099   20.3026 C   0  0  0  0  0  0
  -21.6868   -6.0663   22.5260 C   0  0  0  0  0  0
  -21.4019   -6.5597   23.8172 C   0  0  0  0  0  0
  -21.3668   -5.6771   24.9156 C   0  0  0  0  0  0
  -21.6049   -4.3018   24.7219 C   0  0  0  0  0  0
  -21.8808   -3.8087   23.4347 C   0  0  0  0  0  0
  -21.9209   -4.6903   22.3396 C   0  0  0  0  0  0
  -22.7810  -13.5227   21.1863 C   0  0  0  0  0  0
  -22.1678   -4.2070   21.0963 F   0  0  0  0  0  0
  -21.5659   -3.4499   25.7747 F   0  0  0  0  0  0
  -29.9917  -13.5016   20.3652 N   0  0  0  0  0  0
  -26.2902  -12.9390   20.3107 N   0  0  0  0  0  0
  -25.9254  -11.6517   20.5535 N   0  0  0  0  0  0
  -22.0421  -12.8257   22.0437 N   0  0  0  0  0  0
  -25.4238  -15.1911   20.4222 N   0  0  0  0  0  0
  -31.8850  -14.7181   20.2488 O   0  0  0  0  0  0
  -21.6633   -6.8798   21.4215 O   0  0  0  0  0  0
  -22.3491  -14.5516   20.6680 O   0  0  0  0  0  0
  -24.6279  -31.8548   23.2009 C   0  0  0  0  0  0
  -25.9117  -32.4729   23.8354 C   0  0  1  0  0  0
  -27.2271  -27.3210   20.1138 C   0  0  0  0  0  0
  -25.5951  -33.8540   24.2263 N   0  0  0  0  0  0
  -23.4207  -30.4835   21.5380 C   0  0  2  0  0  0
  -24.8659  -28.9317   20.1053 C   0  0  0  0  0  0
  -22.7478  -29.4632   22.4864 C   0  0  0  0  0  0
  -18.0305  -28.1445   22.8438 C   0  0  0  0  0  0
  -24.1472  -36.7240   23.2650 C   0  0  0  0  0  0
  -25.9598  -30.7862   21.3712 C   0  0  0  0  0  0
  -26.0337  -29.4137   20.7121 C   0  0  0  0  0  0
  -27.2192  -28.6251   20.7000 C   0  0  0  0  0  0
  -26.0398  -26.8840   19.4895 C   0  0  0  0  0  0
  -24.8721  -27.6757   19.4801 C   0  0  0  0  0  0
  -23.6362  -29.8169   20.1519 C   0  0  0  0  0  0
  -25.4091  -36.3025   24.0328 C   0  0  1  0  0  0
  -20.5889  -28.3714   23.1234 C   0  0  2  0  0  0
  -20.6737  -26.9431   22.5380 C   0  0  0  0  0  0
  -19.5758  -26.6431   21.5140 C   0  0  0  0  0  0
  -18.1938  -26.7999   22.1538 C   0  0  0  0  0  0
  -19.1554  -28.8904   23.2835 C   0  0  0  0  0  0
  -18.9467  -30.1490   23.8865 C   0  0  0  0  0  0
  -17.6477  -30.6613   24.0585 C   0  0  0  0  0  0
  -25.9051  -34.9404   23.5077 C   0  0  0  0  0  0
  -16.5370  -29.9103   23.6372 C   0  0  0  0  0  0
  -16.7289  -28.6561   23.0338 C   0  0  0  0  0  0
  -26.4531  -31.6582   25.0735 C   0  0  0  0  0  0
  -25.3786  -31.3762   26.1499 C   0  0  0  0  0  0
  -27.0371  -30.3000   24.6223 C   0  0  0  0  0  0
  -27.6181  -32.4313   25.7415 C   0  0  0  0  0  0
  -27.5569  -37.1751   24.8458 C   0  0  0  0  0  0
  -21.4194  -29.3044   22.3615 N   0  0  0  0  0  0
  -26.4258  -37.3735   23.9452 N   0  0  0  0  0  0
  -24.6877  -31.0605   22.0915 N   0  0  0  0  0  0
  -23.4190  -28.8156   23.2950 O   0  0  0  0  0  0
  -28.3560  -26.4968   20.0936 O   0  0  0  0  0  0
  -26.5576  -34.8887   22.4630 O   0  0  0  0  0  0
  -23.5449  -32.1354   23.7344 O   0  0  0  0  0  0
  -31.9797  -18.9923   19.2298 C   0  0  0  0  0  0
  -31.4040  -17.5681   19.1727 C   0  0  0  0  0  0
  -30.8692  -20.0550   19.1463 C   0  0  0  0  0  0
  -29.3467  -18.4899   20.3209 C   0  0  0  0  0  0
  -30.4484  -17.3172   20.3632 C   0  0  1  0  0  0
  -30.0498  -24.4198   18.8517 C   0  0  0  0  0  0
  -27.6148  -20.8193   21.0503 C   0  0  0  0  0  0
  -29.3782  -22.5816   20.5373 C   0  0  0  0  0  0
  -28.2366  -25.0998   20.5804 C   0  0  0  0  0  0
  -28.8825  -23.8930   19.7323 C   0  0  1  0  0  0
  -28.8487  -21.0966   20.1705 C   0  0  1  0  0  0
  -29.9497  -15.8709   20.4330 N   0  0  0  0  0  0
  -29.8691  -19.9376   20.2470 N   0  3  2  0  0  0
  -31.4749  -12.5133   19.1705 H   0  0  0  0  0  0
  -30.3420  -11.4495   19.9572 H   0  0  0  0  0  0
  -29.7959  -11.7015   17.5083 H   0  0  0  0  0  0
  -29.6566  -13.4277   17.7015 H   0  0  0  0  0  0
  -27.8822  -11.2767   18.8980 H   0  0  0  0  0  0
  -27.3850  -12.5087   17.7749 H   0  0  0  0  0  0
  -27.6221  -14.2465   19.4195 H   0  0  0  0  0  0
  -28.7075  -12.2129   21.4407 H   0  0  0  0  0  0
  -28.4285  -13.9153   21.7328 H   0  0  0  0  0  0
  -25.2676   -9.5763   22.4664 H   0  0  0  0  0  0
  -24.0013   -7.4635   22.7445 H   0  0  0  0  0  0
  -21.0775   -8.8624   19.8959 H   0  0  0  0  0  0
  -22.3496  -10.9591   19.6117 H   0  0  0  0  0  0
  -21.1960   -7.6113   23.9652 H   0  0  0  0  0  0
  -21.1562   -6.0502   25.9063 H   0  0  0  0  0  0
  -22.0591   -2.7550   23.2843 H   0  0  0  0  0  0
  -22.4039  -12.0005   22.4970 H   0  0  0  0  0  0
  -21.0992  -13.1259   22.2483 H   0  0  0  0  0  0
  -24.6659  -15.8493   20.5643 H   0  0  0  0  0  0
  -26.2710  -15.6318   20.0882 H   0  0  0  0  0  0
  -26.7189  -32.5365   23.1116 H   0  0  0  0  0  0
  -25.0151  -33.9665   25.0452 H   0  0  0  0  0  0
  -22.7159  -31.3044   21.3961 H   0  0  0  0  0  0
  -23.3735  -35.9563   23.3240 H   0  0  0  0  0  0
  -24.3624  -36.8931   22.2085 H   0  0  0  0  0  0
  -23.7187  -37.6411   23.6718 H   0  0  0  0  0  0
  -26.1018  -31.5502   20.6056 H   0  0  0  0  0  0
  -26.8346  -30.8232   22.0078 H   0  0  0  0  0  0
  -28.1225  -29.0021   21.1620 H   0  0  0  0  0  0
  -26.0167  -25.9251   18.9932 H   0  0  0  0  0  0
  -23.9877  -27.3094   18.9762 H   0  0  0  0  0  0
  -23.7576  -30.5893   19.3924 H   0  0  0  0  0  0
  -22.7515  -29.2518   19.8530 H   0  0  0  0  0  0
  -25.1281  -36.1842   25.0814 H   0  0  0  0  0  0
  -21.0010  -28.3280   24.1339 H   0  0  0  0  0  0
  -20.5515  -26.2358   23.3582 H   0  0  0  0  0  0
  -21.6627  -26.7381   22.1271 H   0  0  0  0  0  0
  -19.6879  -25.6320   21.1219 H   0  0  0  0  0  0
  -19.6731  -27.3182   20.6616 H   0  0  0  0  0  0
  -17.4209  -26.6758   21.3934 H   0  0  0  0  0  0
  -18.0344  -26.0167   22.8967 H   0  0  0  0  0  0
  -19.7947  -30.7318   24.2215 H   0  0  0  0  0  0
  -17.5042  -31.6268   24.5214 H   0  0  0  0  0  0
  -15.5366  -30.2988   23.7745 H   0  0  0  0  0  0
  -15.8704  -28.0885   22.7015 H   0  0  0  0  0  0
  -24.5988  -30.7051   25.7872 H   0  0  0  0  0  0
  -24.8917  -32.2917   26.4873 H   0  0  0  0  0  0
  -25.8156  -30.9029   27.0299 H   0  0  0  0  0  0
  -26.2908  -29.6697   24.1362 H   0  0  0  0  0  0
  -27.4172  -29.7355   25.4749 H   0  0  0  0  0  0
  -27.8760  -30.4266   23.9369 H   0  0  0  0  0  0
  -27.2902  -33.3656   26.1978 H   0  0  0  0  0  0
  -28.3942  -32.6799   25.0159 H   0  0  0  0  0  0
  -28.0900  -31.8429   26.5288 H   0  0  0  0  0  0
  -28.2594  -38.0042   24.7527 H   0  0  0  0  0  0
  -28.1057  -36.2598   24.6227 H   0  0  0  0  0  0
  -27.2351  -37.1326   25.8877 H   0  0  0  0  0  0
  -20.9394  -29.8789   21.6833 H   0  0  0  0  0  0
  -26.0101  -38.2795   24.1526 H   0  0  0  0  0  0
  -32.6747  -19.1334   18.4001 H   0  0  0  0  0  0
  -32.5648  -19.1235   20.1426 H   0  0  0  0  0  0
  -32.2379  -16.8699   19.1529 H   0  0  0  0  0  0
  -30.8732  -17.4265   18.2308 H   0  0  0  0  0  0
  -30.3626  -19.9615   18.1831 H   0  0  0  0  0  0
  -31.3258  -21.0437   19.1538 H   0  0  0  0  0  0
  -28.7114  -18.3802   21.1987 H   0  0  0  0  0  0
  -28.7046  -18.3294   19.4519 H   0  0  0  0  0  0
  -31.0239  -17.4576   21.2817 H   0  0  0  0  0  0
  -30.5350  -23.6197   18.2880 H   0  0  0  0  0  0
  -30.8234  -24.9163   19.4449 H   0  0  0  0  0  0
  -29.7015  -25.1463   18.1149 H   0  0  0  0  0  0
  -26.8737  -21.6099   20.9252 H   0  0  0  0  0  0
  -27.8937  -20.7922   22.1051 H   0  0  0  0  0  0
  -27.1194  -19.8809   20.7988 H   0  0  0  0  0  0
  -29.1817  -22.7508   21.5971 H   0  0  0  0  0  0
  -30.4638  -22.5826   20.5146 H   0  0  0  0  0  0
  -28.7009  -25.1131   21.5662 H   0  0  0  0  0  0
  -27.1911  -24.8538   20.7834 H   0  0  0  0  0  0
  -28.1019  -23.5667   19.0425 H   0  0  0  0  0  0
  -28.4954  -21.1222   19.1397 H   0  0  0  0  0  0
  -28.9474  -15.7554   20.4756 H   0  0  0  0  0  0
  -30.3770  -20.0676   21.1102 H   0  0  0  0  0  0
  1 25  1  0  0  0
  1 30  2  0  0  0
  1 82  1  0  0  0
  2  3  1  0  0  0
  2 25  1  0  0  0
  2 84  1  0  0  0
  2 85  1  0  0  0
  3  4  1  0  0  0
  3 86  1  0  0  0
  3 87  1  0  0  0
  4  5  1  0  0  0
  4 88  1  0  0  0
  4 89  1  0  0  0
  5  6  1  0  0  0
  5 26  1  0  0  0
  5 90  1  0  0  0
  6 25  1  0  0  0
  6 91  1  0  0  0
  6 92  1  0  0  0
  7  8  2  0  0  0
  7 26  1  0  0  0
  7 29  1  0  0  0
  8  9  1  0  0  0
  8 22  1  0  0  0
  9 10  1  0  0  0
  9 27  2  0  0  0
 10 11  2  0  0  0
 10 15  1  0  0  0
 11 12  1  0  0  0
 11 93  1  0  0  0
 12 13  2  0  0  0
 12 94  1  0  0  0
 13 14  1  0  0  0
 13 31  1  0  0  0
 14 15  2  0  0  0
 14 95  1  0  0  0
 15 96  1  0  0  0
 16 17  2  0  0  0
 16 21  1  0  0  0
 16 31  1  0  0  0
 17 18  1  0  0  0
 17 97  1  0  0  0
 18 19  2  0  0  0
 18 98  1  0  0  0
 19 20  1  0  0  0
 19 24  1  0  0  0
 20 21  2  0  0  0
 20 99  1  0  0  0
 21 23  1  0  0  0
 22 28  1  0  0  0
 22 32  2  0  0  0
 26 27  1  0  0  0
 28100  1  0  0  0
 28101  1  0  0  0
 29102  1  0  0  0
 29103  1  0  0  0
 33 34  1  0  0  0
 33 66  1  0  0  0
 33 70  2  0  0  0
 34 36  1  0  0  0
 34 59  1  0  0  0
 34104  1  0  0  0
 35 44  2  0  0  0
 35 45  1  0  0  0
 35 68  1  0  0  0
 36 56  1  0  0  0
 36105  1  0  0  0
 37 39  1  0  0  0
 37 47  1  0  0  0
 37 66  1  0  0  0
 37106  1  0  0  0
 38 43  2  0  0  0
 38 46  1  0  0  0
 38 47  1  0  0  0
 39 64  1  0  0  0
 39 67  2  0  0  0
 40 52  1  0  0  0
 40 53  2  0  0  0
 40 58  1  0  0  0
 41107  1  0  0  0
 41108  1  0  0  0
 41109  1  0  0  0
 41 48  1  0  0  0
 42 43  1  0  0  0
 42 66  1  0  0  0
 42110  1  0  0  0
 42111  1  0  0  0
 43 44  1  0  0  0
 44112  1  0  0  0
 45 46  2  0  0  0
 45113  1  0  0  0
 46114  1  0  0  0
 47115  1  0  0  0
 47116  1  0  0  0
 48 56  1  0  0  0
 48 65  1  0  0  0
 48117  1  0  0  0
 49 50  1  0  0  0
 49 53  1  0  0  0
 49 64  1  0  0  0
 49118  1  0  0  0
 50 51  1  0  0  0
 50119  1  0  0  0
 50120  1  0  0  0
 51 52  1  0  0  0
 51121  1  0  0  0
 51122  1  0  0  0
 52123  1  0  0  0
 52124  1  0  0  0
 53 54  1  0  0  0
 54 55  2  0  0  0
 54125  1  0  0  0
 55 57  1  0  0  0
 55126  1  0  0  0
 56 69  2  0  0  0
 57 58  2  0  0  0
 57127  1  0  0  0
 58128  1  0  0  0
 59 60  1  0  0  0
 59 61  1  0  0  0
 59 62  1  0  0  0
 60129  1  0  0  0
 60130  1  0  0  0
 60131  1  0  0  0
 61132  1  0  0  0
 61133  1  0  0  0
 61134  1  0  0  0
 62135  1  0  0  0
 62136  1  0  0  0
 62137  1  0  0  0
 63 65  1  0  0  0
 63138  1  0  0  0
 63139  1  0  0  0
 63140  1  0  0  0
 64141  1  0  0  0
 65142  1  0  0  0
 68 79  1  0  0  0
 71 72  1  0  0  0
 71 73  1  0  0  0
 71143  1  0  0  0
 71144  1  0  0  0
 72 75  1  0  0  0
 72145  1  0  0  0
 72146  1  0  0  0
 73147  1  0  0  0
 73148  1  0  0  0
 73 83  1  0  0  0
 74 75  1  0  0  0
 74 83  1  0  0  0
 74149  1  0  0  0
 74150  1  0  0  0
 75 82  1  0  0  0
 75151  1  0  0  0
 76152  1  0  0  0
 76153  1  0  0  0
 76154  1  0  0  0
 76 80  1  0  0  0
 77155  1  0  0  0
 77156  1  0  0  0
 77157  1  0  0  0
 77 81  1  0  0  0
 78 80  1  0  0  0
 78 81  1  0  0  0
 78158  1  0  0  0
 78159  1  0  0  0
 79 80  1  0  0  0
 79160  1  0  0  0
 79161  1  0  0  0
 80162  1  0  0  0
 81 83  1  0  0  0
 81163  1  0  0  0
 82164  1  0  0  0
 83165  1  0  0  0
M  CHG  1  83   1
M  ISO  4   1 100  68 101  79 101  82 100
M  END
> <chiral flag>
0

> <version>
0

> <s_m_source_file>
/data/baiqing/PycharmProjects/Reinvent-master-3.2/result/LINK_invent/BTK/process_docking_weight1_custom_sum_contain_oxygen_bond_distance_aromatic_linkinvent_7_9_3/rearranged_h_0096.sdf

> <i_m_source_file_index>
21

> <r_mmod_Potential_Energy-OPLS-2005>
63.4345664978027

> <r_mmod_Stretch_Energy-OPLS-2005>
107.715614318848

> <r_mmod_Bend_Energy-OPLS-2005>
155.983917236328

> <r_mmod_Torsional_Energy-OPLS-2005>
289.085479736328

> <r_mmod_Improper_Torsional_Energy-OPLS-2005>
5.73369836807251

> <r_mmod_Van_der_Waal_Energy-OPLS-2005>
126.758239746094

> <r_mmod_Electrostatic_Energy-OPLS-2005>
-241.053421020508

> <r_mmod_Solvation_Energy-OPLS-2005>
-447.100219726562

> <b_mmod_Minimization_Converged-OPLS-2005>
0

> <r_mmod_RMS_Derivative-OPLS-2005>
5.94175624847412

$$$$
21
                    3D
 Structure written by MMmdl.
196204  0  0  1  0            999 V2000
  -30.7420  -14.4426   20.6091 C   0  0  0  0  0  0
  -30.4159  -12.3078   19.4148 C   0  0  0  0  0  0
  -29.4908  -12.5224   18.2010 C   0  0  0  0  0  0
  -28.0113  -12.3904   18.6102 C   0  0  0  0  0  0
  -27.6646  -13.2148   19.8793 C   0  0  2  0  0  0
  -28.7076  -12.9936   20.9983 C   0  0  0  0  0  0
  -25.2601  -13.8177   20.5705 C   0  0  0  0  0  0
  -24.1863  -13.0450   20.9185 C   0  0  0  0  0  0
  -24.6432  -11.6911   20.8748 C   0  0  0  0  0  0
  -23.9097  -10.4297   21.0415 C   0  0  0  0  0  0
  -24.3639   -9.4208   21.9198 C   0  0  0  0  0  0
  -23.6305   -8.2251   22.0767 C   0  0  0  0  0  0
  -22.4287   -8.0293   21.3549 C   0  0  0  0  0  0
  -21.9931   -9.0279   20.4659 C   0  0  0  0  0  0
  -22.7269  -10.2146   20.3071 C   0  0  0  0  0  0
  -21.6856   -6.0753   22.5284 C   0  0  0  0  0  0
  -21.4019   -6.5651   23.8216 C   0  0  0  0  0  0
  -21.3653   -5.6803   24.9175 C   0  0  0  0  0  0
  -21.6039   -4.3066   24.7224 C   0  0  0  0  0  0
  -21.8818   -3.8155   23.4344 C   0  0  0  0  0  0
  -21.9192   -4.6982   22.3396 C   0  0  0  0  0  0
  -22.7878  -13.5242   21.1820 C   0  0  0  0  0  0
  -22.1662   -4.2168   21.0977 F   0  0  0  0  0  0
  -21.5620   -3.4545   25.7732 F   0  0  0  0  0  0
  -30.0401  -13.2886   20.4458 N   0  0  0  0  0  0
  -26.3058  -12.9374   20.3401 N   0  0  0  0  0  0
  -25.9361  -11.6515   20.5769 N   0  0  0  0  0  0
  -22.0511  -12.8245   22.0373 N   0  0  0  0  0  0
  -25.4297  -15.1900   20.4101 N   0  0  0  0  0  0
  -31.8383  -14.6404   20.0809 O   0  0  0  0  0  0
  -21.6638   -6.8898   21.4242 O   0  0  0  0  0  0
  -22.3571  -14.5550   20.6658 O   0  0  0  0  0  0
  -24.6131  -31.8718   23.2056 C   0  0  0  0  0  0
  -25.9050  -32.4837   23.8370 C   0  0  1  0  0  0
  -27.2401  -27.4254   20.1261 C   0  0  0  0  0  0
  -25.5911  -33.8625   24.2319 N   0  0  0  0  0  0
  -23.4012  -30.4858   21.5469 C   0  0  2  0  0  0
  -24.8553  -28.9483   20.1189 C   0  0  0  0  0  0
  -22.7407  -29.4634   22.5004 C   0  0  0  0  0  0
  -18.0255  -28.1301   22.8465 C   0  0  0  0  0  0
  -24.1524  -36.7324   23.2627 C   0  0  0  0  0  0
  -25.9293  -30.8308   21.3650 C   0  0  0  0  0  0
  -26.0100  -29.4587   20.7283 C   0  0  0  0  0  0
  -27.2048  -28.7020   20.7426 C   0  0  0  0  0  0
  -26.0763  -26.9398   19.4986 C   0  0  0  0  0  0
  -24.8824  -27.6862   19.5001 C   0  0  0  0  0  0
  -23.6124  -29.8106   20.1639 C   0  0  0  0  0  0
  -25.4139  -36.3106   24.0316 C   0  0  1  0  0  0
  -20.5853  -28.3602   23.1227 C   0  0  2  0  0  0
  -20.6769  -26.9408   22.5171 C   0  0  0  0  0  0
  -19.5678  -26.6321   21.5092 C   0  0  0  0  0  0
  -18.1903  -26.7829   22.1625 C   0  0  0  0  0  0
  -19.1507  -28.8769   23.2850 C   0  0  0  0  0  0
  -18.9467  -30.1377   23.8859 C   0  0  0  0  0  0
  -17.6480  -30.6541   24.0501 C   0  0  0  0  0  0
  -25.9042  -34.9479   23.5112 C   0  0  0  0  0  0
  -16.5360  -29.9020   23.6305 C   0  0  0  0  0  0
  -16.7251  -28.6432   23.0340 C   0  0  0  0  0  0
  -26.4470  -31.6570   25.0689 C   0  0  0  0  0  0
  -25.3726  -31.3690   26.1424 C   0  0  0  0  0  0
  -27.0292  -30.3009   24.6023 C   0  0  0  0  0  0
  -27.6038  -32.4284   25.7453 C   0  0  0  0  0  0
  -27.5608  -37.1810   24.8453 C   0  0  0  0  0  0
  -21.4143  -29.3004   22.3710 N   0  0  0  0  0  0
  -26.4328  -37.3768   23.9384 N   0  0  0  0  0  0
  -24.6645  -31.0782   22.0968 N   0  0  0  0  0  0
  -23.4200  -28.8256   23.3081 O   0  0  0  0  0  0
  -28.3564  -26.6185   20.0622 O   0  0  0  0  0  0
  -26.5594  -34.8913   22.4662 O   0  0  0  0  0  0
  -23.5308  -32.1505   23.7401 O   0  0  0  0  0  0
  -28.9788  -23.3160   21.1306 C   0  0  0  0  0  0
  -28.2809  -24.0980   22.0103 C   0  0  0  0  0  0
  -27.3073  -23.2316   22.6075 C   0  0  0  0  0  0
  -27.3552  -22.0062   21.9746 C   0  0  0  0  0  0
  -29.3616  -25.7097   23.6487 C   0  0  0  0  0  0
  -24.9874  -21.0389   22.1020 C   0  0  0  0  0  0
  -26.8403  -20.0193   23.4739 C   0  0  0  0  0  0
  -23.4490  -25.7952   24.6964 C   0  0  0  0  0  0
  -23.2112  -23.2852   24.6087 C   0  0  0  0  0  0
  -29.7406  -21.3797   19.0507 C   0  0  0  0  0  0
  -30.8516  -18.4369   23.4552 C   0  0  0  0  0  0
  -28.8758  -16.9384   23.3181 C   0  0  0  0  0  0
  -26.4229  -23.5892   23.7833 C   0  0  0  0  0  0
  -25.1809  -24.4232   23.4493 C   0  0  0  0  0  0
  -30.7576  -16.7302   21.5862 C   0  0  0  0  0  0
  -29.8724  -19.9323   21.1476 C   0  0  0  0  0  0
  -29.1607  -26.4517   21.2334 C   0  0  0  0  0  0
  -28.5284  -25.5761   22.3577 C   0  0  1  0  0  0
  -26.4962  -20.7684   22.1771 C   0  0  0  0  0  0
  -24.1979  -24.4632   24.6399 C   0  0  0  0  0  0
  -28.9818  -20.8991   20.3029 C   0  0  1  0  0  0
  -29.9066  -17.7125   22.4600 C   0  0  0  0  0  0
  -28.4474  -22.0281   21.1016 N   0  0  0  0  0  0
  -30.1431  -15.4153   21.3170 N   0  0  0  0  0  0
  -29.1695  -18.6919   21.5948 N   0  3  0  0  0  0
  -31.4614  -12.3935   19.1119 H   0  0  0  0  0  0
  -30.3044  -11.2943   19.8049 H   0  0  0  0  0  0
  -29.7264  -11.8053   17.4134 H   0  0  0  0  0  0
  -29.6674  -13.5123   17.7745 H   0  0  0  0  0  0
  -27.8056  -11.3335   18.7826 H   0  0  0  0  0  0
  -27.3690  -12.6948   17.7837 H   0  0  0  0  0  0
  -27.7093  -14.2671   19.5957 H   0  0  0  0  0  0
  -28.6789  -11.9593   21.3446 H   0  0  0  0  0  0
  -28.4705  -13.5983   21.8748 H   0  0  0  0  0  0
  -25.2785   -9.5673   22.4774 H   0  0  0  0  0  0
  -24.0009   -7.4639   22.7496 H   0  0  0  0  0  0
  -21.0850   -8.8812   19.8964 H   0  0  0  0  0  0
  -22.3740  -10.9699   19.6182 H   0  0  0  0  0  0
  -21.2019   -7.6167   23.9726 H   0  0  0  0  0  0
  -21.1472   -6.0532   25.9078 H   0  0  0  0  0  0
  -22.0598   -2.7628   23.2835 H   0  0  0  0  0  0
  -22.4115  -11.9912   22.4778 H   0  0  0  0  0  0
  -21.1131  -13.1285   22.2559 H   0  0  0  0  0  0
  -24.6537  -15.8367   20.5018 H   0  0  0  0  0  0
  -26.2673  -15.6231   20.0451 H   0  0  0  0  0  0
  -26.7136  -32.5543   23.1166 H   0  0  0  0  0  0
  -25.0093  -33.9784   25.0497 H   0  0  0  0  0  0
  -22.6853  -31.2973   21.3982 H   0  0  0  0  0  0
  -23.3753  -35.9684   23.3277 H   0  0  0  0  0  0
  -24.3619  -36.8946   22.2047 H   0  0  0  0  0  0
  -23.7294  -37.6526   23.6672 H   0  0  0  0  0  0
  -26.0331  -31.5921   20.5901 H   0  0  0  0  0  0
  -26.8193  -30.8956   21.9798 H   0  0  0  0  0  0
  -28.0913  -29.1074   21.2085 H   0  0  0  0  0  0
  -26.0947  -25.9683   19.0234 H   0  0  0  0  0  0
  -23.9980  -27.2841   19.0245 H   0  0  0  0  0  0
  -23.7117  -30.5817   19.3976 H   0  0  0  0  0  0
  -22.7422  -29.2200   19.8726 H   0  0  0  0  0  0
  -25.1303  -36.1971   25.0791 H   0  0  0  0  0  0
  -20.9960  -28.3102   24.1345 H   0  0  0  0  0  0
  -20.5915  -26.2186   23.3307 H   0  0  0  0  0  0
  -21.6534  -26.7637   22.0678 H   0  0  0  0  0  0
  -19.6858  -25.6233   21.1131 H   0  0  0  0  0  0
  -19.6492  -27.3131   20.6614 H   0  0  0  0  0  0
  -17.4101  -26.6442   21.4124 H   0  0  0  0  0  0
  -18.0424  -25.9988   22.9077 H   0  0  0  0  0  0
  -19.7973  -30.7142   24.2213 H   0  0  0  0  0  0
  -17.5062  -31.6223   24.5107 H   0  0  0  0  0  0
  -15.5366  -30.2922   23.7659 H   0  0  0  0  0  0
  -15.8645  -28.0753   22.7090 H   0  0  0  0  0  0
  -24.5927  -30.6982   25.7796 H   0  0  0  0  0  0
  -24.8867  -32.2852   26.4798 H   0  0  0  0  0  0
  -25.8074  -30.8953   27.0235 H   0  0  0  0  0  0
  -26.2843  -29.6756   24.1113 H   0  0  0  0  0  0
  -27.4102  -29.7221   25.4435 H   0  0  0  0  0  0
  -27.8641  -30.4266   23.9130 H   0  0  0  0  0  0
  -27.2648  -33.3584   26.2041 H   0  0  0  0  0  0
  -28.3882  -32.6843   25.0314 H   0  0  0  0  0  0
  -28.0696  -31.8390   26.5380 H   0  0  0  0  0  0
  -28.2578  -38.0159   24.7505 H   0  0  0  0  0  0
  -28.1135  -36.2653   24.6265 H   0  0  0  0  0  0
  -27.2307  -37.1444   25.8853 H   0  0  0  0  0  0
  -20.9332  -29.8721   21.6912 H   0  0  0  0  0  0
  -26.0213  -38.2825   24.1394 H   0  0  0  0  0  0
  -29.8308  -23.5781   20.5193 H   0  0  0  0  0  0
  -28.8829  -25.2309   24.5016 H   0  0  0  0  0  0
  -29.5004  -26.7570   23.9239 H   0  0  0  0  0  0
  -30.3486  -25.2616   23.5336 H   0  0  0  0  0  0
  -24.7078  -21.4932   21.1525 H   0  0  0  0  0  0
  -24.6556  -21.7016   22.8899 H   0  0  0  0  0  0
  -24.4115  -20.1192   22.2113 H   0  0  0  0  0  0
  -27.9141  -19.8883   23.5886 H   0  0  0  0  0  0
  -26.3605  -19.0388   23.4992 H   0  0  0  0  0  0
  -26.4999  -20.5541   24.3586 H   0  0  0  0  0  0
  -22.6533  -25.7752   25.4420 H   0  0  0  0  0  0
  -23.0040  -26.0319   23.7327 H   0  0  0  0  0  0
  -24.1260  -26.6102   24.9559 H   0  0  0  0  0  0
  -22.4986  -23.3381   25.4303 H   0  0  0  0  0  0
  -23.7247  -22.3301   24.7102 H   0  0  0  0  0  0
  -22.6406  -23.2712   23.6784 H   0  0  0  0  0  0
  -29.9851  -20.5335   18.4064 H   0  0  0  0  0  0
  -30.6795  -21.8724   19.3007 H   0  0  0  0  0  0
  -29.1380  -22.0740   18.4641 H   0  0  0  0  0  0
  -31.2949  -17.7344   24.1609 H   0  0  0  0  0  0
  -30.3283  -19.1861   24.0509 H   0  0  0  0  0  0
  -31.6860  -18.9289   22.9532 H   0  0  0  0  0  0
  -29.3628  -16.1728   23.9227 H   0  0  0  0  0  0
  -28.1095  -16.4480   22.7163 H   0  0  0  0  0  0
  -28.3600  -17.5918   24.0215 H   0  0  0  0  0  0
  -27.0232  -24.1234   24.5166 H   0  0  0  0  0  0
  -26.1258  -22.6769   24.2909 H   0  0  0  0  0  0
  -24.6845  -24.0278   22.5634 H   0  0  0  0  0  0
  -25.4868  -25.4336   23.1823 H   0  0  0  0  0  0
  -31.6979  -16.5219   22.1018 H   0  0  0  0  0  0
  -31.0525  -17.2006   20.6461 H   0  0  0  0  0  0
  -30.2659  -20.4910   21.9964 H   0  0  0  0  0  0
  -30.7426  -19.6248   20.5683 H   0  0  0  0  0  0
  -30.1021  -26.0004   20.9178 H   0  0  0  0  0  0
  -29.4389  -27.4272   21.6303 H   0  0  0  0  0  0
  -27.5540  -26.0095   22.5746 H   0  0  0  0  0  0
  -26.6633  -20.0742   21.3595 H   0  0  0  0  0  0
  -24.7705  -24.3892   25.5662 H   0  0  0  0  0  0
  -28.1372  -20.3520   19.8892 H   0  0  0  0  0  0
  -29.2451  -15.2080   21.7255 H   0  0  0  0  0  0
  -28.8378  -18.1993   20.7772 H   0  0  0  0  0  0
  -28.3583  -18.9948   22.1114 H   0  0  0  0  0  0
  1 25  1  0  0  0
  1 30  2  0  0  0
  1 94  1  0  0  0
  2  3  1  0  0  0
  2 25  1  0  0  0
  2 96  1  0  0  0
  2 97  1  0  0  0
  3  4  1  0  0  0
  3 98  1  0  0  0
  3 99  1  0  0  0
  4  5  1  0  0  0
  4100  1  0  0  0
  4101  1  0  0  0
  5  6  1  0  0  0
  5 26  1  0  0  0
  5102  1  0  0  0
  6 25  1  0  0  0
  6103  1  0  0  0
  6104  1  0  0  0
  7  8  2  0  0  0
  7 26  1  0  0  0
  7 29  1  0  0  0
  8  9  1  0  0  0
  8 22  1  0  0  0
  9 10  1  0  0  0
  9 27  2  0  0  0
 10 11  2  0  0  0
 10 15  1  0  0  0
 11 12  1  0  0  0
 11105  1  0  0  0
 12 13  2  0  0  0
 12106  1  0  0  0
 13 14  1  0  0  0
 13 31  1  0  0  0
 14 15  2  0  0  0
 14107  1  0  0  0
 15108  1  0  0  0
 16 17  2  0  0  0
 16 21  1  0  0  0
 16 31  1  0  0  0
 17 18  1  0  0  0
 17109  1  0  0  0
 18 19  2  0  0  0
 18110  1  0  0  0
 19 20  1  0  0  0
 19 24  1  0  0  0
 20 21  2  0  0  0
 20111  1  0  0  0
 21 23  1  0  0  0
 22 28  1  0  0  0
 22 32  2  0  0  0
 26 27  1  0  0  0
 28112  1  0  0  0
 28113  1  0  0  0
 29114  1  0  0  0
 29115  1  0  0  0
 33 34  1  0  0  0
 33 66  1  0  0  0
 33 70  2  0  0  0
 34 36  1  0  0  0
 34 59  1  0  0  0
 34116  1  0  0  0
 35 44  2  0  0  0
 35 45  1  0  0  0
 35 68  1  0  0  0
 36 56  1  0  0  0
 36117  1  0  0  0
 37 39  1  0  0  0
 37 47  1  0  0  0
 37 66  1  0  0  0
 37118  1  0  0  0
 38 43  2  0  0  0
 38 46  1  0  0  0
 38 47  1  0  0  0
 39 64  1  0  0  0
 39 67  2  0  0  0
 40 52  1  0  0  0
 40 53  2  0  0  0
 40 58  1  0  0  0
 41119  1  0  0  0
 41120  1  0  0  0
 41121  1  0  0  0
 41 48  1  0  0  0
 42 43  1  0  0  0
 42 66  1  0  0  0
 42122  1  0  0  0
 42123  1  0  0  0
 43 44  1  0  0  0
 44124  1  0  0  0
 45 46  2  0  0  0
 45125  1  0  0  0
 46126  1  0  0  0
 47127  1  0  0  0
 47128  1  0  0  0
 48 56  1  0  0  0
 48 65  1  0  0  0
 48129  1  0  0  0
 49 50  1  0  0  0
 49 53  1  0  0  0
 49 64  1  0  0  0
 49130  1  0  0  0
 50 51  1  0  0  0
 50131  1  0  0  0
 50132  1  0  0  0
 51 52  1  0  0  0
 51133  1  0  0  0
 51134  1  0  0  0
 52135  1  0  0  0
 52136  1  0  0  0
 53 54  1  0  0  0
 54 55  2  0  0  0
 54137  1  0  0  0
 55 57  1  0  0  0
 55138  1  0  0  0
 56 69  2  0  0  0
 57 58  2  0  0  0
 57139  1  0  0  0
 58140  1  0  0  0
 59 60  1  0  0  0
 59 61  1  0  0  0
 59 62  1  0  0  0
 60141  1  0  0  0
 60142  1  0  0  0
 60143  1  0  0  0
 61144  1  0  0  0
 61145  1  0  0  0
 61146  1  0  0  0
 62147  1  0  0  0
 62148  1  0  0  0
 62149  1  0  0  0
 63 65  1  0  0  0
 63150  1  0  0  0
 63151  1  0  0  0
 63152  1  0  0  0
 64153  1  0  0  0
 65154  1  0  0  0
 68 87  1  0  0  0
 71 72  2  0  0  0
 71 93  1  0  0  0
 71155  1  0  0  0
 72 73  1  0  0  0
 72 88  1  0  0  0
 73 74  2  0  0  0
 73 83  1  0  0  0
 74 89  1  0  0  0
 74 93  1  0  0  0
 75156  1  0  0  0
 75157  1  0  0  0
 75158  1  0  0  0
 75 88  1  0  0  0
 76159  1  0  0  0
 76160  1  0  0  0
 76161  1  0  0  0
 76 89  1  0  0  0
 77 89  1  0  0  0
 77162  1  0  0  0
 77163  1  0  0  0
 77164  1  0  0  0
 78165  1  0  0  0
 78166  1  0  0  0
 78167  1  0  0  0
 78 90  1  0  0  0
 79 90  1  0  0  0
 79168  1  0  0  0
 79169  1  0  0  0
 79170  1  0  0  0
 80171  1  0  0  0
 80172  1  0  0  0
 80173  1  0  0  0
 80 91  1  0  0  0
 81174  1  0  0  0
 81175  1  0  0  0
 81176  1  0  0  0
 81 92  1  0  0  0
 82 92  1  0  0  0
 82177  1  0  0  0
 82178  1  0  0  0
 82179  1  0  0  0
 83 84  1  0  0  0
 83180  1  0  0  0
 83181  1  0  0  0
 84 90  1  0  0  0
 84182  1  0  0  0
 84183  1  0  0  0
 85 92  1  0  0  0
 85 94  1  0  0  0
 85184  1  0  0  0
 85185  1  0  0  0
 86 91  1  0  0  0
 86 95  1  0  0  0
 86186  1  0  0  0
 86187  1  0  0  0
 87 88  1  0  0  0
 87188  1  0  0  0
 87189  1  0  0  0
 88190  1  0  0  0
 89191  1  0  0  0
 90192  1  0  0  0
 91 93  1  0  0  0
 91193  1  0  0  0
 92 95  1  0  0  0
 94194  1  0  0  0
 95195  1  0  0  0
 95196  1  0  0  0
M  CHG  1  95   1
M  ISO  4   1 100  68 101  87 101  94 100
M  END
> <chiral flag>
0

> <version>
0

> <s_m_source_file>
/data/baiqing/PycharmProjects/Reinvent-master-3.2/result/LINK_invent/BTK/process_docking_weight1_custom_sum_contain_oxygen_bond_distance_aromatic_linkinvent_7_9_3/rearranged_h_0096.sdf

> <i_m_source_file_index>
22

> <r_mmod_Potential_Energy-OPLS-2005>
-244.530288696289

> <r_mmod_Stretch_Energy-OPLS-2005>
46.358024597168

> <r_mmod_Bend_Energy-OPLS-2005>
129.899215698242

> <r_mmod_Torsional_Energy-OPLS-2005>
313.91796875

> <r_mmod_Improper_Torsional_Energy-OPLS-2005>
2.82407999038696

> <r_mmod_Van_der_Waal_Energy-OPLS-2005>
114.053520202637

> <r_mmod_Electrostatic_Energy-OPLS-2005>
-409.9296875

> <r_mmod_Solvation_Energy-OPLS-2005>
-453.040710449219

> <b_mmod_Minimization_Converged-OPLS-2005>
0

> <r_mmod_RMS_Derivative-OPLS-2005>
4.21858692169189

$$$$
22
                    3D
 Structure written by MMmdl.
170178  0  0  1  0            999 V2000
  -30.7420  -14.4314   20.6530 C   0  0  0  0  0  0
  -30.4249  -12.3146   19.4091 C   0  0  0  0  0  0
  -29.4941  -12.5131   18.1933 C   0  0  0  0  0  0
  -28.0118  -12.3844   18.6019 C   0  0  0  0  0  0
  -27.6587  -13.2090   19.8674 C   0  0  2  0  0  0
  -28.6938  -12.9428   20.9752 C   0  0  0  0  0  0
  -25.2564  -13.8196   20.5649 C   0  0  0  0  0  0
  -24.1834  -13.0478   20.9198 C   0  0  0  0  0  0
  -24.6401  -11.6927   20.8775 C   0  0  0  0  0  0
  -23.9082  -10.4307   21.0455 C   0  0  0  0  0  0
  -24.3648   -9.4188   21.9202 C   0  0  0  0  0  0
  -23.6317   -8.2225   22.0734 C   0  0  0  0  0  0
  -22.4288   -8.0288   21.3540 C   0  0  0  0  0  0
  -21.9932   -9.0286   20.4643 C   0  0  0  0  0  0
  -22.7274  -10.2165   20.3074 C   0  0  0  0  0  0
  -21.6854   -6.0746   22.5292 C   0  0  0  0  0  0
  -21.3991   -6.5625   23.8240 C   0  0  0  0  0  0
  -21.3675   -5.6771   24.9189 C   0  0  0  0  0  0
  -21.6061   -4.3043   24.7231 C   0  0  0  0  0  0
  -21.8821   -3.8136   23.4349 C   0  0  0  0  0  0
  -21.9188   -4.6960   22.3409 C   0  0  0  0  0  0
  -22.7859  -13.5245   21.1934 C   0  0  0  0  0  0
  -22.1643   -4.2144   21.0992 F   0  0  0  0  0  0
  -21.5674   -3.4525   25.7752 F   0  0  0  0  0  0
  -30.0314  -13.2807   20.4492 N   0  0  0  0  0  0
  -26.2981  -12.9368   20.3300 N   0  0  0  0  0  0
  -25.9312  -11.6534   20.5732 N   0  0  0  0  0  0
  -22.0498  -12.8219   22.0451 N   0  0  0  0  0  0
  -25.4360  -15.1931   20.4086 N   0  0  0  0  0  0
  -31.8013  -14.6616   20.0646 O   0  0  0  0  0  0
  -21.6626   -6.8897   21.4264 O   0  0  0  0  0  0
  -22.3539  -14.5591   20.6797 O   0  0  0  0  0  0
  -24.6128  -31.8686   23.2116 C   0  0  0  0  0  0
  -25.9023  -32.4837   23.8411 C   0  0  1  0  0  0
  -27.2365  -27.4513   20.0985 C   0  0  0  0  0  0
  -25.5866  -33.8629   24.2353 N   0  0  0  0  0  0
  -23.3991  -30.4906   21.5516 C   0  0  2  0  0  0
  -24.8462  -28.9580   20.1176 C   0  0  0  0  0  0
  -22.7413  -29.4628   22.5004 C   0  0  0  0  0  0
  -18.0261  -28.1423   22.8446 C   0  0  0  0  0  0
  -24.1480  -36.7332   23.2628 C   0  0  0  0  0  0
  -25.9193  -30.8462   21.3494 C   0  0  0  0  0  0
  -26.0015  -29.4736   20.7141 C   0  0  0  0  0  0
  -27.1973  -28.7254   20.7016 C   0  0  0  0  0  0
  -26.0620  -26.9456   19.4925 C   0  0  0  0  0  0
  -24.8693  -27.6952   19.5031 C   0  0  0  0  0  0
  -23.6086  -29.8236   20.1642 C   0  0  0  0  0  0
  -25.4098  -36.3122   24.0338 C   0  0  1  0  0  0
  -20.5841  -28.3670   23.1346 C   0  0  2  0  0  0
  -20.6752  -26.9414   22.5428 C   0  0  0  0  0  0
  -19.5746  -26.6424   21.5207 C   0  0  0  0  0  0
  -18.1915  -26.7966   22.1593 C   0  0  0  0  0  0
  -19.1509  -28.8864   23.2880 C   0  0  0  0  0  0
  -18.9436  -30.1459   23.8917 C   0  0  0  0  0  0
  -17.6441  -30.6606   24.0582 C   0  0  0  0  0  0
  -25.9006  -34.9475   23.5149 C   0  0  0  0  0  0
  -16.5329  -29.9130   23.6314 C   0  0  0  0  0  0
  -16.7244  -28.6548   23.0314 C   0  0  0  0  0  0
  -26.4498  -31.6588   25.0692 C   0  0  0  0  0  0
  -25.3801  -31.3650   26.1461 C   0  0  0  0  0  0
  -27.0298  -30.3059   24.5939 C   0  0  0  0  0  0
  -27.6107  -32.4284   25.7423 C   0  0  0  0  0  0
  -27.5586  -37.1810   24.8462 C   0  0  0  0  0  0
  -21.4135  -29.3035   22.3766 N   0  0  0  0  0  0
  -26.4301  -37.3792   23.9415 N   0  0  0  0  0  0
  -24.6641  -31.0806   22.1006 N   0  0  0  0  0  0
  -23.4210  -28.8151   23.3001 O   0  0  0  0  0  0
  -28.4427  -26.7817   20.0976 O   0  0  0  0  0  0
  -26.5557  -34.8918   22.4705 O   0  0  0  0  0  0
  -23.5322  -32.1386   23.7556 O   0  0  0  0  0  0
  -28.2193  -23.0069   17.8317 C   0  0  0  0  0  0
  -29.1086  -23.2952   18.8792 C   0  0  0  0  0  0
  -29.6043  -22.2247   19.6748 C   0  0  0  0  0  0
  -29.0851  -20.9142   19.4212 C   0  0  0  0  0  0
  -28.1298  -20.7613   18.3790 C   0  0  0  0  0  0
  -27.4795  -19.4215   18.0372 C   0  0  0  0  0  0
  -32.0951  -22.3310   20.2079 C   0  0  0  0  0  0
  -29.9447  -15.1638   22.8393 C   0  0  0  0  0  0
  -29.4025  -24.7752   19.1264 C   0  0  0  0  0  0
  -30.6676  -22.4896   20.7515 C   0  0  0  0  0  0
  -29.4695  -19.6779   20.2502 C   0  0  0  0  0  0
  -30.3263  -16.8524   21.1626 C   0  0  0  0  0  0
  -30.3036  -17.3627   19.6923 C   0  0  0  0  0  0
  -28.4554  -25.3580   20.1878 C   0  0  0  0  0  0
  -27.7437  -21.7762   17.5833 N   0  0  0  0  0  0
  -30.1473  -15.3984   21.4012 N   0  0  0  0  0  0
  -30.4904  -18.8383   19.5763 N   0  3  0  0  0  0
  -31.4725  -12.4176   19.1128 H   0  0  0  0  0  0
  -30.3367  -11.2968   19.7933 H   0  0  0  0  0  0
  -29.7257  -11.7800   17.4169 H   0  0  0  0  0  0
  -29.6729  -13.4934   17.7483 H   0  0  0  0  0  0
  -27.8127  -11.3288   18.7925 H   0  0  0  0  0  0
  -27.3729  -12.6637   17.7646 H   0  0  0  0  0  0
  -27.7110  -14.2626   19.5959 H   0  0  0  0  0  0
  -28.6787  -11.8847   21.2437 H   0  0  0  0  0  0
  -28.4066  -13.4699   21.8816 H   0  0  0  0  0  0
  -25.2824   -9.5657   22.4731 H   0  0  0  0  0  0
  -24.0050   -7.4600   22.7413 H   0  0  0  0  0  0
  -21.0873   -8.8853   19.8939 H   0  0  0  0  0  0
  -22.3790  -10.9722   19.6164 H   0  0  0  0  0  0
  -21.1930   -7.6123   23.9750 H   0  0  0  0  0  0
  -21.1519   -6.0486   25.9115 H   0  0  0  0  0  0
  -22.0581   -2.7585   23.2866 H   0  0  0  0  0  0
  -22.4034  -11.9864   22.4877 H   0  0  0  0  0  0
  -21.1135  -13.1280   22.2682 H   0  0  0  0  0  0
  -24.6926  -15.8722   20.5344 H   0  0  0  0  0  0
  -26.3060  -15.6132   20.1109 H   0  0  0  0  0  0
  -26.7069  -32.5595   23.1164 H   0  0  0  0  0  0
  -25.0062  -33.9776   25.0535 H   0  0  0  0  0  0
  -22.6819  -31.3043   21.4169 H   0  0  0  0  0  0
  -23.3740  -35.9670   23.3298 H   0  0  0  0  0  0
  -24.3552  -36.8942   22.2038 H   0  0  0  0  0  0
  -23.7245  -37.6543   23.6636 H   0  0  0  0  0  0
  -25.9823  -31.5954   20.5593 H   0  0  0  0  0  0
  -26.8270  -30.9406   21.9330 H   0  0  0  0  0  0
  -28.0971  -29.1144   21.1573 H   0  0  0  0  0  0
  -26.0427  -25.9924   18.9845 H   0  0  0  0  0  0
  -23.9806  -27.3061   19.0265 H   0  0  0  0  0  0
  -23.7161  -30.5996   19.4039 H   0  0  0  0  0  0
  -22.7313  -29.2434   19.8710 H   0  0  0  0  0  0
  -25.1276  -36.1991   25.0831 H   0  0  0  0  0  0
  -20.9883  -28.3235   24.1484 H   0  0  0  0  0  0
  -20.5676  -26.2253   23.3587 H   0  0  0  0  0  0
  -21.6627  -26.7489   22.1208 H   0  0  0  0  0  0
  -19.6915  -25.6353   21.1196 H   0  0  0  0  0  0
  -19.6741  -27.3266   20.6771 H   0  0  0  0  0  0
  -17.4189  -26.6694   21.3986 H   0  0  0  0  0  0
  -18.0317  -26.0139   22.9017 H   0  0  0  0  0  0
  -19.7904  -30.7268   24.2307 H   0  0  0  0  0  0
  -17.4991  -31.6266   24.5238 H   0  0  0  0  0  0
  -15.5328  -30.3062   23.7628 H   0  0  0  0  0  0
  -15.8620  -28.0902   22.7021 H   0  0  0  0  0  0
  -24.5998  -30.6959   25.7801 H   0  0  0  0  0  0
  -24.8961  -32.2782   26.4918 H   0  0  0  0  0  0
  -25.8195  -30.8822   27.0193 H   0  0  0  0  0  0
  -26.2751  -29.6789   24.1157 H   0  0  0  0  0  0
  -27.4309  -29.7302   25.4282 H   0  0  0  0  0  0
  -27.8472  -30.4423   23.8858 H   0  0  0  0  0  0
  -27.2765  -33.3568   26.2050 H   0  0  0  0  0  0
  -28.3882  -32.6855   25.0224 H   0  0  0  0  0  0
  -28.0809  -31.8366   26.5277 H   0  0  0  0  0  0
  -28.2610  -38.0092   24.7492 H   0  0  0  0  0  0
  -28.1068  -36.2629   24.6319 H   0  0  0  0  0  0
  -27.2275  -37.1492   25.8848 H   0  0  0  0  0  0
  -20.9303  -29.8769   21.6986 H   0  0  0  0  0  0
  -26.0201  -38.2860   24.1472 H   0  0  0  0  0  0
  -27.8745  -23.7889   17.1690 H   0  0  0  0  0  0
  -28.2167  -18.7233   17.6431 H   0  0  0  0  0  0
  -26.7103  -19.5445   17.2738 H   0  0  0  0  0  0
  -26.9842  -18.9565   18.8882 H   0  0  0  0  0  0
  -32.8392  -22.5604   20.9719 H   0  0  0  0  0  0
  -32.2783  -22.9931   19.3594 H   0  0  0  0  0  0
  -32.2735  -21.3114   19.8735 H   0  0  0  0  0  0
  -28.9238  -15.4262   23.1149 H   0  0  0  0  0  0
  -30.6085  -15.7823   23.4424 H   0  0  0  0  0  0
  -30.1221  -14.1308   23.1492 H   0  0  0  0  0  0
  -29.2102  -25.3219   18.2013 H   0  0  0  0  0  0
  -30.4490  -24.9730   19.3645 H   0  0  0  0  0  0
  -30.5320  -21.8438   21.6159 H   0  0  0  0  0  0
  -30.5685  -23.4884   21.1742 H   0  0  0  0  0  0
  -28.5654  -19.0921   20.3939 H   0  0  0  0  0  0
  -29.7706  -19.9115   21.2718 H   0  0  0  0  0  0
  -29.5178  -17.3443   21.7057 H   0  0  0  0  0  0
  -31.2573  -17.1761   21.6313 H   0  0  0  0  0  0
  -29.3635  -17.0885   19.2111 H   0  0  0  0  0  0
  -31.0939  -16.9008   19.0994 H   0  0  0  0  0  0
  -27.4720  -24.9039   20.0863 H   0  0  0  0  0  0
  -28.7917  -25.0711   21.1827 H   0  0  0  0  0  0
  -31.4029  -19.0973   19.9122 H   0  0  0  0  0  0
  -30.4899  -19.0721   18.5957 H   0  0  0  0  0  0
  1 25  1  0  0  0
  1 30  2  0  0  0
  1 86  1  0  0  0
  2  3  1  0  0  0
  2 25  1  0  0  0
  2 88  1  0  0  0
  2 89  1  0  0  0
  3  4  1  0  0  0
  3 90  1  0  0  0
  3 91  1  0  0  0
  4  5  1  0  0  0
  4 92  1  0  0  0
  4 93  1  0  0  0
  5  6  1  0  0  0
  5 26  1  0  0  0
  5 94  1  0  0  0
  6 25  1  0  0  0
  6 95  1  0  0  0
  6 96  1  0  0  0
  7  8  2  0  0  0
  7 26  1  0  0  0
  7 29  1  0  0  0
  8  9  1  0  0  0
  8 22  1  0  0  0
  9 10  1  0  0  0
  9 27  2  0  0  0
 10 11  2  0  0  0
 10 15  1  0  0  0
 11 12  1  0  0  0
 11 97  1  0  0  0
 12 13  2  0  0  0
 12 98  1  0  0  0
 13 14  1  0  0  0
 13 31  1  0  0  0
 14 15  2  0  0  0
 14 99  1  0  0  0
 15100  1  0  0  0
 16 17  2  0  0  0
 16 21  1  0  0  0
 16 31  1  0  0  0
 17 18  1  0  0  0
 17101  1  0  0  0
 18 19  2  0  0  0
 18102  1  0  0  0
 19 20  1  0  0  0
 19 24  1  0  0  0
 20 21  2  0  0  0
 20103  1  0  0  0
 21 23  1  0  0  0
 22 28  1  0  0  0
 22 32  2  0  0  0
 26 27  1  0  0  0
 28104  1  0  0  0
 28105  1  0  0  0
 29106  1  0  0  0
 29107  1  0  0  0
 33 34  1  0  0  0
 33 66  1  0  0  0
 33 70  2  0  0  0
 34 36  1  0  0  0
 34 59  1  0  0  0
 34108  1  0  0  0
 35 44  2  0  0  0
 35 45  1  0  0  0
 35 68  1  0  0  0
 36 56  1  0  0  0
 36109  1  0  0  0
 37 39  1  0  0  0
 37 47  1  0  0  0
 37 66  1  0  0  0
 37110  1  0  0  0
 38 43  2  0  0  0
 38 46  1  0  0  0
 38 47  1  0  0  0
 39 64  1  0  0  0
 39 67  2  0  0  0
 40 52  1  0  0  0
 40 53  2  0  0  0
 40 58  1  0  0  0
 41111  1  0  0  0
 41112  1  0  0  0
 41113  1  0  0  0
 41 48  1  0  0  0
 42 43  1  0  0  0
 42 66  1  0  0  0
 42114  1  0  0  0
 42115  1  0  0  0
 43 44  1  0  0  0
 44116  1  0  0  0
 45 46  2  0  0  0
 45117  1  0  0  0
 46118  1  0  0  0
 47119  1  0  0  0
 47120  1  0  0  0
 48 56  1  0  0  0
 48 65  1  0  0  0
 48121  1  0  0  0
 49 50  1  0  0  0
 49 53  1  0  0  0
 49 64  1  0  0  0
 49122  1  0  0  0
 50 51  1  0  0  0
 50123  1  0  0  0
 50124  1  0  0  0
 51 52  1  0  0  0
 51125  1  0  0  0
 51126  1  0  0  0
 52127  1  0  0  0
 52128  1  0  0  0
 53 54  1  0  0  0
 54 55  2  0  0  0
 54129  1  0  0  0
 55 57  1  0  0  0
 55130  1  0  0  0
 56 69  2  0  0  0
 57 58  2  0  0  0
 57131  1  0  0  0
 58132  1  0  0  0
 59 60  1  0  0  0
 59 61  1  0  0  0
 59 62  1  0  0  0
 60133  1  0  0  0
 60134  1  0  0  0
 60135  1  0  0  0
 61136  1  0  0  0
 61137  1  0  0  0
 61138  1  0  0  0
 62139  1  0  0  0
 62140  1  0  0  0
 62141  1  0  0  0
 63 65  1  0  0  0
 63142  1  0  0  0
 63143  1  0  0  0
 63144  1  0  0  0
 64145  1  0  0  0
 65146  1  0  0  0
 68 84  1  0  0  0
 71 72  2  0  0  0
 71 85  1  0  0  0
 71147  1  0  0  0
 72 73  1  0  0  0
 72 79  1  0  0  0
 73 74  2  0  0  0
 73 80  1  0  0  0
 74 75  1  0  0  0
 74 81  1  0  0  0
 75 76  1  0  0  0
 75 85  2  0  0  0
 76148  1  0  0  0
 76149  1  0  0  0
 76150  1  0  0  0
 77 80  1  0  0  0
 77151  1  0  0  0
 77152  1  0  0  0
 77153  1  0  0  0
 78 86  1  0  0  0
 78154  1  0  0  0
 78155  1  0  0  0
 78156  1  0  0  0
 79 84  1  0  0  0
 79157  1  0  0  0
 79158  1  0  0  0
 80159  1  0  0  0
 80160  1  0  0  0
 81 87  1  0  0  0
 81161  1  0  0  0
 81162  1  0  0  0
 82 83  1  0  0  0
 82 86  1  0  0  0
 82163  1  0  0  0
 82164  1  0  0  0
 83 87  1  0  0  0
 83165  1  0  0  0
 83166  1  0  0  0
 84167  1  0  0  0
 84168  1  0  0  0
 87169  1  0  0  0
 87170  1  0  0  0
M  CHG  1  87   1
M  ISO  4   1 100  68 101  84 101  86 100
M  END
> <chiral flag>
0

> <version>
0

> <s_m_source_file>
/data/baiqing/PycharmProjects/Reinvent-master-3.2/result/LINK_invent/BTK/process_docking_weight1_custom_sum_contain_oxygen_bond_distance_aromatic_linkinvent_7_9_3/rearranged_h_0096.sdf

> <i_m_source_file_index>
23

> <r_mmod_Potential_Energy-OPLS-2005>
-222.795776367188

> <r_mmod_Stretch_Energy-OPLS-2005>
43.8953590393066

> <r_mmod_Bend_Energy-OPLS-2005>
122.039131164551

> <r_mmod_Torsional_Energy-OPLS-2005>
258.551666259766

> <r_mmod_Improper_Torsional_Energy-OPLS-2005>
6.29442739486694

> <r_mmod_Van_der_Waal_Energy-OPLS-2005>
165.565322875977

> <r_mmod_Electrostatic_Energy-OPLS-2005>
-371.594573974609

> <r_mmod_Solvation_Energy-OPLS-2005>
-456.870971679688

> <b_mmod_Minimization_Converged-OPLS-2005>
0

> <r_mmod_RMS_Derivative-OPLS-2005>
6.44719648361206

$$$$
23
                    3D
 Structure written by MMmdl.
175183  0  0  1  0            999 V2000
  -30.6511  -14.5230   20.5377 C   0  0  0  0  0  0
  -30.4341  -12.3247   19.4354 C   0  0  0  0  0  0
  -29.5008  -12.4936   18.2154 C   0  0  0  0  0  0
  -28.0239  -12.3420   18.6310 C   0  0  0  0  0  0
  -27.6624  -13.1975   19.8731 C   0  0  2  0  0  0
  -28.7026  -12.9930   20.9991 C   0  0  0  0  0  0
  -25.2606  -13.8133   20.5662 C   0  0  0  0  0  0
  -24.1848  -13.0430   20.9166 C   0  0  0  0  0  0
  -24.6387  -11.6885   20.8731 C   0  0  0  0  0  0
  -23.9049  -10.4287   21.0414 C   0  0  0  0  0  0
  -24.3605   -9.4204   21.9191 C   0  0  0  0  0  0
  -23.6279   -8.2241   22.0762 C   0  0  0  0  0  0
  -22.4265   -8.0283   21.3547 C   0  0  0  0  0  0
  -21.9897   -9.0254   20.4650 C   0  0  0  0  0  0
  -22.7225  -10.2130   20.3063 C   0  0  0  0  0  0
  -21.6846   -6.0733   22.5275 C   0  0  0  0  0  0
  -21.4013   -6.5636   23.8210 C   0  0  0  0  0  0
  -21.3658   -5.6790   24.9177 C   0  0  0  0  0  0
  -21.6045   -4.3051   24.7226 C   0  0  0  0  0  0
  -21.8824   -3.8142   23.4343 C   0  0  0  0  0  0
  -21.9196   -4.6961   22.3399 C   0  0  0  0  0  0
  -22.7871  -13.5242   21.1839 C   0  0  0  0  0  0
  -22.1665   -4.2147   21.0976 F   0  0  0  0  0  0
  -21.5632   -3.4535   25.7734 F   0  0  0  0  0  0
  -30.0321  -13.3129   20.4509 N   0  0  0  0  0  0
  -26.3026  -12.9288   20.3339 N   0  0  0  0  0  0
  -25.9311  -11.6464   20.5761 N   0  0  0  0  0  0
  -22.0516  -12.8225   22.0387 N   0  0  0  0  0  0
  -25.4346  -15.1847   20.4062 N   0  0  0  0  0  0
  -31.7765  -14.7386   20.0814 O   0  0  0  0  0  0
  -21.6639   -6.8872   21.4233 O   0  0  0  0  0  0
  -22.3565  -14.5564   20.6700 O   0  0  0  0  0  0
  -24.6200  -31.8658   23.2098 C   0  0  0  0  0  0
  -25.9078  -32.4812   23.8382 C   0  0  1  0  0  0
  -27.2240  -27.3842   20.0991 C   0  0  0  0  0  0
  -25.5896  -33.8606   24.2301 N   0  0  0  0  0  0
  -23.4084  -30.4940   21.5535 C   0  0  2  0  0  0
  -24.8520  -28.9638   20.1133 C   0  0  0  0  0  0
  -22.7433  -29.4659   22.4989 C   0  0  0  0  0  0
  -18.0271  -28.1370   22.8501 C   0  0  0  0  0  0
  -24.1495  -36.7327   23.2640 C   0  0  0  0  0  0
  -25.9454  -30.8171   21.3723 C   0  0  0  0  0  0
  -26.0195  -29.4522   20.7113 C   0  0  0  0  0  0
  -27.2076  -28.6730   20.6998 C   0  0  0  0  0  0
  -26.0275  -26.9380   19.4817 C   0  0  0  0  0  0
  -24.8535  -27.7063   19.4959 C   0  0  0  0  0  0
  -23.6173  -29.8349   20.1669 C   0  0  0  0  0  0
  -25.4115  -36.3118   24.0335 C   0  0  1  0  0  0
  -20.5868  -28.3674   23.1312 C   0  0  2  0  0  0
  -20.6781  -26.9407   22.5422 C   0  0  0  0  0  0
  -19.5756  -26.6393   21.5222 C   0  0  0  0  0  0
  -18.1929  -26.7919   22.1630 C   0  0  0  0  0  0
  -19.1521  -28.8839   23.2899 C   0  0  0  0  0  0
  -18.9450  -30.1444   23.8917 C   0  0  0  0  0  0
  -17.6457  -30.6587   24.0561 C   0  0  0  0  0  0
  -25.9044  -34.9475   23.5126 C   0  0  0  0  0  0
  -16.5341  -29.9090   23.6324 C   0  0  0  0  0  0
  -16.7262  -28.6498   23.0352 C   0  0  0  0  0  0
  -26.4479  -31.6599   25.0720 C   0  0  0  0  0  0
  -25.3728  -31.3706   26.1461 C   0  0  0  0  0  0
  -27.0296  -30.3027   24.6115 C   0  0  0  0  0  0
  -27.6061  -32.4323   25.7475 C   0  0  0  0  0  0
  -27.5593  -37.1813   24.8459 C   0  0  0  0  0  0
  -21.4160  -29.3042   22.3726 N   0  0  0  0  0  0
  -26.4309  -37.3800   23.9403 N   0  0  0  0  0  0
  -24.6768  -31.0724   22.1024 N   0  0  0  0  0  0
  -23.4189  -28.8189   23.3035 O   0  0  0  0  0  0
  -28.3728  -26.5918   20.1488 O   0  0  0  0  0  0
  -26.5618  -34.8940   22.4697 O   0  0  0  0  0  0
  -23.5391  -32.1427   23.7478 O   0  0  0  0  0  0
  -30.2925  -21.4426   19.6453 C   0  0  0  0  0  0
  -29.4074  -20.4138   21.4019 C   0  0  0  0  0  0
  -30.7830  -20.1587   19.6538 C   0  0  0  0  0  0
  -30.2326  -19.4838   20.7988 C   0  0  0  0  0  0
  -29.7605  -20.3142   15.2592 C   0  0  0  0  0  0
  -33.1866  -19.8678   19.0137 C   0  0  0  0  0  0
  -28.4246  -24.9131   18.3844 C   0  0  0  0  0  0
  -30.0106  -19.7913   16.6803 C   0  0  0  0  0  0
  -31.4369  -20.0876   17.1810 C   0  0  0  0  0  0
  -29.1877  -24.2246   20.7079 C   0  0  0  0  0  0
  -28.5818  -22.7961   20.9586 C   0  0  0  0  0  0
  -29.8426  -16.9163   20.3998 C   0  0  0  0  0  0
  -31.7322  -19.5869   18.6158 C   0  0  2  0  0  0
  -30.5209  -18.0283   21.2612 C   0  0  2  0  0  0
  -28.2366  -25.1618   19.8930 C   0  0  1  0  0  0
  -29.4324  -21.6178   20.7045 N   0  0  0  0  0  0
  -29.8538  -15.5349   20.9472 N   0  0  0  0  0  0
  -30.2340  -17.8525   22.6930 N   0  3  0  0  0  0
  -31.4788  -12.4351   19.1382 H   0  0  0  0  0  0
  -30.3452  -11.3170   19.8431 H   0  0  0  0  0  0
  -29.7470  -11.7568   17.4497 H   0  0  0  0  0  0
  -29.6556  -13.4719   17.7579 H   0  0  0  0  0  0
  -27.8511  -11.2870   18.8483 H   0  0  0  0  0  0
  -27.3676  -12.5901   17.7972 H   0  0  0  0  0  0
  -27.7020  -14.2388   19.5559 H   0  0  0  0  0  0
  -28.6886  -11.9578   21.3435 H   0  0  0  0  0  0
  -28.4587  -13.5924   21.8764 H   0  0  0  0  0  0
  -25.2757   -9.5674   22.4757 H   0  0  0  0  0  0
  -23.9991   -7.4632   22.7472 H   0  0  0  0  0  0
  -21.0836   -8.8768   19.8945 H   0  0  0  0  0  0
  -22.3694  -10.9669   19.6167 H   0  0  0  0  0  0
  -21.2003   -7.6145   23.9704 H   0  0  0  0  0  0
  -21.1475   -6.0527   25.9078 H   0  0  0  0  0  0
  -22.0605   -2.7603   23.2843 H   0  0  0  0  0  0
  -22.4128  -11.9884   22.4769 H   0  0  0  0  0  0
  -21.1138  -13.1248   22.2611 H   0  0  0  0  0  0
  -24.6616  -15.8343   20.5041 H   0  0  0  0  0  0
  -26.2751  -15.6209   20.0493 H   0  0  0  0  0  0
  -26.7131  -32.5520   23.1131 H   0  0  0  0  0  0
  -24.9968  -33.9735   25.0394 H   0  0  0  0  0  0
  -22.7003  -31.3148   21.4190 H   0  0  0  0  0  0
  -23.3757  -35.9657   23.3297 H   0  0  0  0  0  0
  -24.3596  -36.8963   22.2057 H   0  0  0  0  0  0
  -23.7260  -37.6534   23.6664 H   0  0  0  0  0  0
  -26.0662  -31.5860   20.6082 H   0  0  0  0  0  0
  -26.8310  -30.8641   21.9953 H   0  0  0  0  0  0
  -28.1047  -29.0426   21.1783 H   0  0  0  0  0  0
  -25.9552  -25.9844   18.9820 H   0  0  0  0  0  0
  -23.9558  -27.3221   19.0301 H   0  0  0  0  0  0
  -23.7322  -30.6159   19.4145 H   0  0  0  0  0  0
  -22.7377  -29.2625   19.8660 H   0  0  0  0  0  0
  -25.1295  -36.1997   25.0829 H   0  0  0  0  0  0
  -20.9928  -28.3262   24.1441 H   0  0  0  0  0  0
  -20.5712  -26.2272   23.3609 H   0  0  0  0  0  0
  -21.6646  -26.7484   22.1185 H   0  0  0  0  0  0
  -19.6923  -25.6313   21.1240 H   0  0  0  0  0  0
  -19.6705  -27.3218   20.6760 H   0  0  0  0  0  0
  -17.4203  -26.6671   21.4028 H   0  0  0  0  0  0
  -18.0313  -26.0052   22.9009 H   0  0  0  0  0  0
  -19.7932  -30.7229   24.2313 H   0  0  0  0  0  0
  -17.5025  -31.6278   24.5154 H   0  0  0  0  0  0
  -15.5342  -30.2993   23.7667 H   0  0  0  0  0  0
  -15.8656  -28.0833   22.7051 H   0  0  0  0  0  0
  -24.5900  -30.7056   25.7792 H   0  0  0  0  0  0
  -24.8898  -32.2844   26.4919 H   0  0  0  0  0  0
  -25.8062  -30.8866   27.0219 H   0  0  0  0  0  0
  -26.2817  -29.6792   24.1185 H   0  0  0  0  0  0
  -27.4062  -29.7283   25.4591 H   0  0  0  0  0  0
  -27.8670  -30.4322   23.9252 H   0  0  0  0  0  0
  -27.2678  -33.3632   26.2035 H   0  0  0  0  0  0
  -28.3851  -32.6868   25.0274 H   0  0  0  0  0  0
  -28.0718  -31.8441   26.5395 H   0  0  0  0  0  0
  -28.2611  -38.0109   24.7519 H   0  0  0  0  0  0
  -28.1096  -36.2650   24.6276 H   0  0  0  0  0  0
  -27.2300  -37.1445   25.8856 H   0  0  0  0  0  0
  -20.9333  -29.8750   21.6930 H   0  0  0  0  0  0
  -26.0215  -38.2895   24.1378 H   0  0  0  0  0  0
  -30.4533  -22.2469   18.9395 H   0  0  0  0  0  0
  -28.7767  -20.3297   22.2773 H   0  0  0  0  0  0
  -28.7300  -20.1349   14.9500 H   0  0  0  0  0  0
  -30.4139  -19.8245   14.5364 H   0  0  0  0  0  0
  -29.9359  -21.3888   15.1951 H   0  0  0  0  0  0
  -33.4068  -19.4726   20.0058 H   0  0  0  0  0  0
  -33.3952  -20.9384   19.0292 H   0  0  0  0  0  0
  -33.8832  -19.4034   18.3151 H   0  0  0  0  0  0
  -28.2369  -23.8692   18.1297 H   0  0  0  0  0  0
  -29.4420  -25.1531   18.0783 H   0  0  0  0  0  0
  -27.7571  -25.5186   17.7731 H   0  0  0  0  0  0
  -29.8307  -18.7158   16.7116 H   0  0  0  0  0  0
  -29.2759  -20.2420   17.3475 H   0  0  0  0  0  0
  -31.6193  -21.1618   17.1253 H   0  0  0  0  0  0
  -32.1487  -19.6311   16.4904 H   0  0  0  0  0  0
  -30.1625  -24.1701   20.2237 H   0  0  0  0  0  0
  -29.3765  -24.6770   21.6809 H   0  0  0  0  0  0
  -27.6964  -22.6598   20.3376 H   0  0  0  0  0  0
  -28.2137  -22.7401   21.9841 H   0  0  0  0  0  0
  -30.2577  -16.9152   19.3913 H   0  0  0  0  0  0
  -28.7919  -17.1793   20.2714 H   0  0  0  0  0  0
  -31.6018  -18.5070   18.6078 H   0  0  0  0  0  0
  -31.5990  -17.8866   21.1670 H   0  0  0  0  0  0
  -27.2392  -24.8503   20.2002 H   0  0  0  0  0  0
  -28.9765  -15.2220   21.3358 H   0  0  0  0  0  0
  -29.2579  -17.9841   22.8826 H   0  0  0  0  0  0
  -30.7631  -18.5173   23.2282 H   0  0  0  0  0  0
  -30.4985  -16.9271   22.9770 H   0  0  0  0  0  0
  1 25  1  0  0  0
  1 30  2  0  0  0
  1 87  1  0  0  0
  2  3  1  0  0  0
  2 25  1  0  0  0
  2 89  1  0  0  0
  2 90  1  0  0  0
  3  4  1  0  0  0
  3 91  1  0  0  0
  3 92  1  0  0  0
  4  5  1  0  0  0
  4 93  1  0  0  0
  4 94  1  0  0  0
  5  6  1  0  0  0
  5 26  1  0  0  0
  5 95  1  0  0  0
  6 25  1  0  0  0
  6 96  1  0  0  0
  6 97  1  0  0  0
  7  8  2  0  0  0
  7 26  1  0  0  0
  7 29  1  0  0  0
  8  9  1  0  0  0
  8 22  1  0  0  0
  9 10  1  0  0  0
  9 27  2  0  0  0
 10 11  2  0  0  0
 10 15  1  0  0  0
 11 12  1  0  0  0
 11 98  1  0  0  0
 12 13  2  0  0  0
 12 99  1  0  0  0
 13 14  1  0  0  0
 13 31  1  0  0  0
 14 15  2  0  0  0
 14100  1  0  0  0
 15101  1  0  0  0
 16 17  2  0  0  0
 16 21  1  0  0  0
 16 31  1  0  0  0
 17 18  1  0  0  0
 17102  1  0  0  0
 18 19  2  0  0  0
 18103  1  0  0  0
 19 20  1  0  0  0
 19 24  1  0  0  0
 20 21  2  0  0  0
 20104  1  0  0  0
 21 23  1  0  0  0
 22 28  1  0  0  0
 22 32  2  0  0  0
 26 27  1  0  0  0
 28105  1  0  0  0
 28106  1  0  0  0
 29107  1  0  0  0
 29108  1  0  0  0
 33 34  1  0  0  0
 33 66  1  0  0  0
 33 70  2  0  0  0
 34 36  1  0  0  0
 34 59  1  0  0  0
 34109  1  0  0  0
 35 44  2  0  0  0
 35 45  1  0  0  0
 35 68  1  0  0  0
 36 56  1  0  0  0
 36110  1  0  0  0
 37 39  1  0  0  0
 37 47  1  0  0  0
 37 66  1  0  0  0
 37111  1  0  0  0
 38 43  2  0  0  0
 38 46  1  0  0  0
 38 47  1  0  0  0
 39 64  1  0  0  0
 39 67  2  0  0  0
 40 52  1  0  0  0
 40 53  2  0  0  0
 40 58  1  0  0  0
 41112  1  0  0  0
 41113  1  0  0  0
 41114  1  0  0  0
 41 48  1  0  0  0
 42 43  1  0  0  0
 42 66  1  0  0  0
 42115  1  0  0  0
 42116  1  0  0  0
 43 44  1  0  0  0
 44117  1  0  0  0
 45 46  2  0  0  0
 45118  1  0  0  0
 46119  1  0  0  0
 47120  1  0  0  0
 47121  1  0  0  0
 48 56  1  0  0  0
 48 65  1  0  0  0
 48122  1  0  0  0
 49 50  1  0  0  0
 49 53  1  0  0  0
 49 64  1  0  0  0
 49123  1  0  0  0
 50 51  1  0  0  0
 50124  1  0  0  0
 50125  1  0  0  0
 51 52  1  0  0  0
 51126  1  0  0  0
 51127  1  0  0  0
 52128  1  0  0  0
 52129  1  0  0  0
 53 54  1  0  0  0
 54 55  2  0  0  0
 54130  1  0  0  0
 55 57  1  0  0  0
 55131  1  0  0  0
 56 69  2  0  0  0
 57 58  2  0  0  0
 57132  1  0  0  0
 58133  1  0  0  0
 59 60  1  0  0  0
 59 61  1  0  0  0
 59 62  1  0  0  0
 60134  1  0  0  0
 60135  1  0  0  0
 60136  1  0  0  0
 61137  1  0  0  0
 61138  1  0  0  0
 61139  1  0  0  0
 62140  1  0  0  0
 62141  1  0  0  0
 62142  1  0  0  0
 63 65  1  0  0  0
 63143  1  0  0  0
 63144  1  0  0  0
 63145  1  0  0  0
 64146  1  0  0  0
 65147  1  0  0  0
 68 85  1  0  0  0
 71 73  2  0  0  0
 71 86  1  0  0  0
 71148  1  0  0  0
 72 74  2  0  0  0
 72 86  1  0  0  0
 72149  1  0  0  0
 73 74  1  0  0  0
 73 83  1  0  0  0
 74 84  1  0  0  0
 75 78  1  0  0  0
 75150  1  0  0  0
 75151  1  0  0  0
 75152  1  0  0  0
 76153  1  0  0  0
 76154  1  0  0  0
 76155  1  0  0  0
 76 83  1  0  0  0
 77156  1  0  0  0
 77157  1  0  0  0
 77158  1  0  0  0
 77 85  1  0  0  0
 78 79  1  0  0  0
 78159  1  0  0  0
 78160  1  0  0  0
 79 83  1  0  0  0
 79161  1  0  0  0
 79162  1  0  0  0
 80 81  1  0  0  0
 80 85  1  0  0  0
 80163  1  0  0  0
 80164  1  0  0  0
 81 86  1  0  0  0
 81165  1  0  0  0
 81166  1  0  0  0
 82 84  1  0  0  0
 82 87  1  0  0  0
 82167  1  0  0  0
 82168  1  0  0  0
 83169  1  0  0  0
 84 88  1  0  0  0
 84170  1  0  0  0
 85171  1  0  0  0
 87172  1  0  0  0
 88173  1  0  0  0
 88174  1  0  0  0
 88175  1  0  0  0
M  CHG  1  88   1
M  ISO  4   1 100  68 101  85 101  87 100
M  END
> <chiral flag>
0

> <version>
0

> <s_m_source_file>
/data/baiqing/PycharmProjects/Reinvent-master-3.2/result/LINK_invent/BTK/process_docking_weight1_custom_sum_contain_oxygen_bond_distance_aromatic_linkinvent_7_9_3/rearranged_h_0096.sdf

> <i_m_source_file_index>
24

> <r_mmod_Potential_Energy-OPLS-2005>
-356.994415283203

> <r_mmod_Stretch_Energy-OPLS-2005>
50.4947052001953

> <r_mmod_Bend_Energy-OPLS-2005>
116.844161987305

> <r_mmod_Torsional_Energy-OPLS-2005>
267.160858154297

> <r_mmod_Improper_Torsional_Energy-OPLS-2005>
7.97549295425415

> <r_mmod_Van_der_Waal_Energy-OPLS-2005>
128.35710144043

> <r_mmod_Electrostatic_Energy-OPLS-2005>
-469.152740478516

> <r_mmod_Solvation_Energy-OPLS-2005>
-481.393798828125

> <b_mmod_Minimization_Converged-OPLS-2005>
0

> <r_mmod_RMS_Derivative-OPLS-2005>
2.13911724090576

$$$$
24
                    3D
 Structure written by MMmdl.
158166  0  0  1  0            999 V2000
  -30.7058  -14.4569   20.4610 C   0  0  0  0  0  0
  -30.4152  -12.2641   19.4303 C   0  0  0  0  0  0
  -29.4909  -12.4128   18.2040 C   0  0  0  0  0  0
  -28.0122  -12.2936   18.6262 C   0  0  0  0  0  0
  -27.6474  -13.1957   19.8385 C   0  0  2  0  0  0
  -28.6902  -13.0482   20.9682 C   0  0  0  0  0  0
  -25.2550  -13.8138   20.5631 C   0  0  0  0  0  0
  -24.1818  -13.0458   20.9197 C   0  0  0  0  0  0
  -24.6333  -11.6908   20.8747 C   0  0  0  0  0  0
  -23.9007  -10.4301   21.0423 C   0  0  0  0  0  0
  -24.3584   -9.4207   21.9180 C   0  0  0  0  0  0
  -23.6264   -8.2226   22.0749 C   0  0  0  0  0  0
  -22.4248   -8.0264   21.3530 C   0  0  0  0  0  0
  -21.9867   -9.0239   20.4646 C   0  0  0  0  0  0
  -22.7189  -10.2124   20.3062 C   0  0  0  0  0  0
  -21.6843   -6.0712   22.5247 C   0  0  0  0  0  0
  -21.4007   -6.5617   23.8199 C   0  0  0  0  0  0
  -21.3674   -5.6767   24.9157 C   0  0  0  0  0  0
  -21.6047   -4.3028   24.7221 C   0  0  0  0  0  0
  -21.8812   -3.8129   23.4339 C   0  0  0  0  0  0
  -21.9188   -4.6928   22.3396 C   0  0  0  0  0  0
  -22.7828  -13.5250   21.1851 C   0  0  0  0  0  0
  -22.1647   -4.2118   21.0966 F   0  0  0  0  0  0
  -21.5640   -3.4514   25.7743 F   0  0  0  0  0  0
  -30.0155  -13.2966   20.3887 N   0  0  0  0  0  0
  -26.2943  -12.9293   20.3170 N   0  0  0  0  0  0
  -25.9249  -11.6486   20.5735 N   0  0  0  0  0  0
  -22.0427  -12.8292   22.0402 N   0  0  0  0  0  0
  -25.4327  -15.1885   20.4083 N   0  0  0  0  0  0
  -31.9049  -14.5512   20.1898 O   0  0  0  0  0  0
  -21.6610   -6.8857   21.4224 O   0  0  0  0  0  0
  -22.3538  -14.5546   20.6654 O   0  0  0  0  0  0
  -24.6250  -31.8660   23.2121 C   0  0  0  0  0  0
  -25.9130  -32.4826   23.8452 C   0  0  1  0  0  0
  -27.2036  -27.3829   20.1269 C   0  0  0  0  0  0
  -25.5976  -33.8618   24.2406 N   0  0  0  0  0  0
  -23.4096  -30.4968   21.5554 C   0  0  2  0  0  0
  -24.8397  -28.9558   20.1124 C   0  0  0  0  0  0
  -22.7475  -29.4677   22.5001 C   0  0  0  0  0  0
  -18.0299  -28.1412   22.8483 C   0  0  0  0  0  0
  -24.1456  -36.7329   23.2625 C   0  0  0  0  0  0
  -25.9421  -30.8258   21.3574 C   0  0  0  0  0  0
  -26.0067  -29.4558   20.7052 C   0  0  0  0  0  0
  -27.1920  -28.6826   20.6930 C   0  0  0  0  0  0
  -26.0171  -26.9050   19.5259 C   0  0  0  0  0  0
  -24.8462  -27.6875   19.5083 C   0  0  0  0  0  0
  -23.6098  -29.8384   20.1658 C   0  0  0  0  0  0
  -25.4062  -36.3118   24.0355 C   0  0  1  0  0  0
  -20.5888  -28.3710   23.1287 C   0  0  2  0  0  0
  -20.6793  -26.9453   22.5384 C   0  0  0  0  0  0
  -19.5748  -26.6429   21.5202 C   0  0  0  0  0  0
  -18.1932  -26.7961   22.1620 C   0  0  0  0  0  0
  -19.1546  -28.8876   23.2876 C   0  0  0  0  0  0
  -18.9466  -30.1484   23.8883 C   0  0  0  0  0  0
  -17.6454  -30.6594   24.0570 C   0  0  0  0  0  0
  -25.9017  -34.9476   23.5185 C   0  0  0  0  0  0
  -16.5351  -29.9085   23.6342 C   0  0  0  0  0  0
  -16.7280  -28.6513   23.0350 C   0  0  0  0  0  0
  -26.4501  -31.6614   25.0819 C   0  0  0  0  0  0
  -25.3802  -31.3684   26.1617 C   0  0  0  0  0  0
  -27.0304  -30.3061   24.6183 C   0  0  0  0  0  0
  -27.6116  -32.4286   25.7579 C   0  0  0  0  0  0
  -27.5549  -37.1832   24.8473 C   0  0  0  0  0  0
  -21.4200  -29.3051   22.3707 N   0  0  0  0  0  0
  -26.4253  -37.3804   23.9427 N   0  0  0  0  0  0
  -24.6796  -31.0770   22.0988 N   0  0  0  0  0  0
  -23.4230  -28.8228   23.3046 O   0  0  0  0  0  0
  -28.3714  -26.6413   20.1786 O   0  0  0  0  0  0
  -26.5541  -34.8922   22.4724 O   0  0  0  0  0  0
  -23.5446  -32.1384   23.7531 O   0  0  0  0  0  0
  -28.3159  -18.2089   20.6475 C   0  0  0  0  0  0
  -27.6770  -19.4630   20.5429 C   0  0  0  0  0  0
  -30.2905  -19.2526   19.7110 C   0  0  0  0  0  0
  -29.6698  -18.1136   20.2517 C   0  0  0  0  0  0
  -28.4241  -20.5624   20.0704 C   0  0  0  0  0  0
  -26.7142  -24.2672   21.8013 C   0  0  0  0  0  0
  -30.5581  -16.8933   20.4507 C   0  0  0  0  0  0
  -27.8883  -21.9834   20.0880 C   0  0  0  0  0  0
  -28.6742  -22.8732   21.0849 C   0  0  0  0  0  0
  -28.3680  -25.2078   19.9741 C   0  0  0  0  0  0
  -28.1540  -24.3267   21.2480 C   0  0  1  0  0  0
  -29.6879  -20.4495   19.6197 N   0  0  0  0  0  0
  -29.9509  -15.5659   20.5656 N   0  0  0  0  0  0
  -31.4625  -12.3383   19.1364 H   0  0  0  0  0  0
  -30.3076  -11.2740   19.8806 H   0  0  0  0  0  0
  -29.7293  -11.6316   17.4768 H   0  0  0  0  0  0
  -29.6648  -13.3669   17.7021 H   0  0  0  0  0  0
  -27.8394  -11.2468   18.8894 H   0  0  0  0  0  0
  -27.3578  -12.5021   17.7811 H   0  0  0  0  0  0
  -27.6719  -14.2231   19.4732 H   0  0  0  0  0  0
  -28.6521  -12.0476   21.3977 H   0  0  0  0  0  0
  -28.4766  -13.7342   21.7900 H   0  0  0  0  0  0
  -25.2734   -9.5650   22.4780 H   0  0  0  0  0  0
  -23.9956   -7.4597   22.7455 H   0  0  0  0  0  0
  -21.0796   -8.8773   19.8966 H   0  0  0  0  0  0
  -22.3652  -10.9667   19.6185 H   0  0  0  0  0  0
  -21.1996   -7.6132   23.9694 H   0  0  0  0  0  0
  -21.1501   -6.0496   25.9062 H   0  0  0  0  0  0
  -22.0593   -2.7592   23.2838 H   0  0  0  0  0  0
  -22.4011  -12.0019   22.4961 H   0  0  0  0  0  0
  -21.1022  -13.1352   22.2526 H   0  0  0  0  0  0
  -24.6700  -15.8451   20.5327 H   0  0  0  0  0  0
  -26.2601  -15.6124   20.0126 H   0  0  0  0  0  0
  -26.7239  -32.5486   23.1248 H   0  0  0  0  0  0
  -25.0262  -33.9753   25.0648 H   0  0  0  0  0  0
  -22.6975  -31.3142   21.4293 H   0  0  0  0  0  0
  -23.3702  -35.9684   23.3315 H   0  0  0  0  0  0
  -24.3555  -36.8899   22.2034 H   0  0  0  0  0  0
  -23.7227  -37.6563   23.6596 H   0  0  0  0  0  0
  -26.0613  -31.5844   20.5812 H   0  0  0  0  0  0
  -26.8311  -30.8765   21.9759 H   0  0  0  0  0  0
  -28.0980  -29.0705   21.1357 H   0  0  0  0  0  0
  -25.9583  -25.9285   19.0707 H   0  0  0  0  0  0
  -23.9560  -27.2965   19.0336 H   0  0  0  0  0  0
  -23.7214  -30.6231   19.4158 H   0  0  0  0  0  0
  -22.7224  -29.2792   19.8680 H   0  0  0  0  0  0
  -25.1223  -36.2007   25.0845 H   0  0  0  0  0  0
  -20.9983  -28.3300   24.1398 H   0  0  0  0  0  0
  -20.5726  -26.2333   23.3584 H   0  0  0  0  0  0
  -21.6660  -26.7499   22.1144 H   0  0  0  0  0  0
  -19.6903  -25.6347   21.1213 H   0  0  0  0  0  0
  -19.6665  -27.3242   20.6731 H   0  0  0  0  0  0
  -17.4201  -26.6718   21.4022 H   0  0  0  0  0  0
  -18.0317  -26.0103   22.9008 H   0  0  0  0  0  0
  -19.7940  -30.7334   24.2220 H   0  0  0  0  0  0
  -17.4998  -31.6251   24.5230 H   0  0  0  0  0  0
  -15.5345  -30.2970   23.7683 H   0  0  0  0  0  0
  -15.8692  -28.0831   22.7055 H   0  0  0  0  0  0
  -24.6056  -30.6890   25.8052 H   0  0  0  0  0  0
  -24.8886  -32.2777   26.5066 H   0  0  0  0  0  0
  -25.8246  -30.8970   27.0397 H   0  0  0  0  0  0
  -26.2836  -29.6882   24.1201 H   0  0  0  0  0  0
  -27.4015  -29.7246   25.4626 H   0  0  0  0  0  0
  -27.8694  -30.4375   23.9360 H   0  0  0  0  0  0
  -27.2823  -33.3597   26.2178 H   0  0  0  0  0  0
  -28.3948  -32.6805   25.0430 H   0  0  0  0  0  0
  -28.0776  -31.8398   26.5484 H   0  0  0  0  0  0
  -28.2623  -38.0069   24.7480 H   0  0  0  0  0  0
  -28.0989  -36.2629   24.6342 H   0  0  0  0  0  0
  -27.2296  -37.1548   25.8881 H   0  0  0  0  0  0
  -20.9414  -29.8728   21.6865 H   0  0  0  0  0  0
  -26.0163  -38.2894   24.1415 H   0  0  0  0  0  0
  -27.7878  -17.3601   21.0589 H   0  0  0  0  0  0
  -26.6492  -19.5829   20.8654 H   0  0  0  0  0  0
  -31.3232  -19.2176   19.3848 H   0  0  0  0  0  0
  -26.6702  -23.5614   22.6365 H   0  0  0  0  0  0
  -26.0117  -23.9097   21.0478 H   0  0  0  0  0  0
  -26.3535  -25.2270   22.1704 H   0  0  0  0  0  0
  -31.1538  -17.0666   21.3461 H   0  0  0  0  0  0
  -31.2720  -16.8928   19.6270 H   0  0  0  0  0  0
  -26.8382  -21.9510   20.3711 H   0  0  0  0  0  0
  -27.9432  -22.3865   19.0750 H   0  0  0  0  0  0
  -29.7287  -22.8888   20.8042 H   0  0  0  0  0  0
  -28.6470  -22.3812   22.0605 H   0  0  0  0  0  0
  -27.7519  -24.8770   19.1418 H   0  0  0  0  0  0
  -29.3787  -25.0015   19.6255 H   0  0  0  0  0  0
  -28.7801  -24.7736   22.0231 H   0  0  0  0  0  0
  -28.9498  -15.4629   20.5775 H   0  0  0  0  0  0
  1 25  1  0  0  0
  1 30  2  0  0  0
  1 83  1  0  0  0
  2  3  1  0  0  0
  2 25  1  0  0  0
  2 84  1  0  0  0
  2 85  1  0  0  0
  3  4  1  0  0  0
  3 86  1  0  0  0
  3 87  1  0  0  0
  4  5  1  0  0  0
  4 88  1  0  0  0
  4 89  1  0  0  0
  5  6  1  0  0  0
  5 26  1  0  0  0
  5 90  1  0  0  0
  6 25  1  0  0  0
  6 91  1  0  0  0
  6 92  1  0  0  0
  7  8  2  0  0  0
  7 26  1  0  0  0
  7 29  1  0  0  0
  8  9  1  0  0  0
  8 22  1  0  0  0
  9 10  1  0  0  0
  9 27  2  0  0  0
 10 11  2  0  0  0
 10 15  1  0  0  0
 11 12  1  0  0  0
 11 93  1  0  0  0
 12 13  2  0  0  0
 12 94  1  0  0  0
 13 14  1  0  0  0
 13 31  1  0  0  0
 14 15  2  0  0  0
 14 95  1  0  0  0
 15 96  1  0  0  0
 16 17  2  0  0  0
 16 21  1  0  0  0
 16 31  1  0  0  0
 17 18  1  0  0  0
 17 97  1  0  0  0
 18 19  2  0  0  0
 18 98  1  0  0  0
 19 20  1  0  0  0
 19 24  1  0  0  0
 20 21  2  0  0  0
 20 99  1  0  0  0
 21 23  1  0  0  0
 22 28  1  0  0  0
 22 32  2  0  0  0
 26 27  1  0  0  0
 28100  1  0  0  0
 28101  1  0  0  0
 29102  1  0  0  0
 29103  1  0  0  0
 33 34  1  0  0  0
 33 66  1  0  0  0
 33 70  2  0  0  0
 34 36  1  0  0  0
 34 59  1  0  0  0
 34104  1  0  0  0
 35 44  2  0  0  0
 35 45  1  0  0  0
 35 68  1  0  0  0
 36 56  1  0  0  0
 36105  1  0  0  0
 37 39  1  0  0  0
 37 47  1  0  0  0
 37 66  1  0  0  0
 37106  1  0  0  0
 38 43  2  0  0  0
 38 46  1  0  0  0
 38 47  1  0  0  0
 39 64  1  0  0  0
 39 67  2  0  0  0
 40 52  1  0  0  0
 40 53  2  0  0  0
 40 58  1  0  0  0
 41107  1  0  0  0
 41108  1  0  0  0
 41109  1  0  0  0
 41 48  1  0  0  0
 42 43  1  0  0  0
 42 66  1  0  0  0
 42110  1  0  0  0
 42111  1  0  0  0
 43 44  1  0  0  0
 44112  1  0  0  0
 45 46  2  0  0  0
 45113  1  0  0  0
 46114  1  0  0  0
 47115  1  0  0  0
 47116  1  0  0  0
 48 56  1  0  0  0
 48 65  1  0  0  0
 48117  1  0  0  0
 49 50  1  0  0  0
 49 53  1  0  0  0
 49 64  1  0  0  0
 49118  1  0  0  0
 50 51  1  0  0  0
 50119  1  0  0  0
 50120  1  0  0  0
 51 52  1  0  0  0
 51121  1  0  0  0
 51122  1  0  0  0
 52123  1  0  0  0
 52124  1  0  0  0
 53 54  1  0  0  0
 54 55  2  0  0  0
 54125  1  0  0  0
 55 57  1  0  0  0
 55126  1  0  0  0
 56 69  2  0  0  0
 57 58  2  0  0  0
 57127  1  0  0  0
 58128  1  0  0  0
 59 60  1  0  0  0
 59 61  1  0  0  0
 59 62  1  0  0  0
 60129  1  0  0  0
 60130  1  0  0  0
 60131  1  0  0  0
 61132  1  0  0  0
 61133  1  0  0  0
 61134  1  0  0  0
 62135  1  0  0  0
 62136  1  0  0  0
 62137  1  0  0  0
 63 65  1  0  0  0
 63138  1  0  0  0
 63139  1  0  0  0
 63140  1  0  0  0
 64141  1  0  0  0
 65142  1  0  0  0
 68 80  1  0  0  0
 71 72  2  0  0  0
 71 74  1  0  0  0
 71143  1  0  0  0
 72 75  1  0  0  0
 72144  1  0  0  0
 73 74  2  0  0  0
 73 82  1  0  0  0
 73145  1  0  0  0
 74 77  1  0  0  0
 75 78  1  0  0  0
 75 82  2  0  0  0
 76146  1  0  0  0
 76147  1  0  0  0
 76148  1  0  0  0
 76 81  1  0  0  0
 77 83  1  0  0  0
 77149  1  0  0  0
 77150  1  0  0  0
 78 79  1  0  0  0
 78151  1  0  0  0
 78152  1  0  0  0
 79 81  1  0  0  0
 79153  1  0  0  0
 79154  1  0  0  0
 80 81  1  0  0  0
 80155  1  0  0  0
 80156  1  0  0  0
 81157  1  0  0  0
 83158  1  0  0  0
M  ISO  4   1 100  68 101  80 101  83 100
M  END
> <chiral flag>
0

> <version>
0

> <s_m_source_file>
/data/baiqing/PycharmProjects/Reinvent-master-3.2/result/LINK_invent/BTK/process_docking_weight1_custom_sum_contain_oxygen_bond_distance_aromatic_linkinvent_7_9_3/rearranged_h_0096.sdf

> <i_m_source_file_index>
25

> <r_mmod_Potential_Energy-OPLS-2005>
-162.489791870117

> <r_mmod_Stretch_Energy-OPLS-2005>
36.4224472045898

> <r_mmod_Bend_Energy-OPLS-2005>
117.567070007324

> <r_mmod_Torsional_Energy-OPLS-2005>
201.352081298828

> <r_mmod_Improper_Torsional_Energy-OPLS-2005>
7.24978971481323

> <r_mmod_Van_der_Waal_Energy-OPLS-2005>
154.515197753906

> <r_mmod_Electrostatic_Energy-OPLS-2005>
-495.908630371094

> <r_mmod_Solvation_Energy-OPLS-2005>
-213.475723266602

> <b_mmod_Minimization_Converged-OPLS-2005>
0

> <r_mmod_RMS_Derivative-OPLS-2005>
6.60104322433472

$$$$
25
                    3D
 Structure written by MMmdl.
152160  0  0  1  0            999 V2000
  -30.4041  -15.3300   20.3697 C   0  0  0  0  0  0
  -30.4413  -12.8644   19.5006 C   0  0  0  0  0  0
  -29.5333  -12.5791   18.2785 C   0  0  0  0  0  0
  -28.0882  -12.2883   18.7222 C   0  0  0  0  0  0
  -27.6061  -13.2754   19.8143 C   0  0  2  0  0  0
  -28.6464  -13.4817   20.9333 C   0  0  0  0  0  0
  -25.2394  -13.8245   20.5794 C   0  0  0  0  0  0
  -24.1739  -13.0429   20.9272 C   0  0  0  0  0  0
  -24.6395  -11.6927   20.8776 C   0  0  0  0  0  0
  -23.9093  -10.4287   21.0418 C   0  0  0  0  0  0
  -24.3637   -9.4197   21.9191 C   0  0  0  0  0  0
  -23.6297   -8.2239   22.0757 C   0  0  0  0  0  0
  -22.4280   -8.0281   21.3548 C   0  0  0  0  0  0
  -21.9926   -9.0259   20.4654 C   0  0  0  0  0  0
  -22.7269  -10.2129   20.3059 C   0  0  0  0  0  0
  -21.6848   -6.0740   22.5279 C   0  0  0  0  0  0
  -21.4020   -6.5641   23.8215 C   0  0  0  0  0  0
  -21.3656   -5.6794   24.9174 C   0  0  0  0  0  0
  -21.6038   -4.3057   24.7229 C   0  0  0  0  0  0
  -21.8821   -3.8149   23.4350 C   0  0  0  0  0  0
  -21.9192   -4.6968   22.3405 C   0  0  0  0  0  0
  -22.7759  -13.5187   21.1904 C   0  0  0  0  0  0
  -22.1663   -4.2147   21.0982 F   0  0  0  0  0  0
  -21.5619   -3.4537   25.7742 F   0  0  0  0  0  0
  -29.8519  -14.0166   20.2763 N   0  0  0  0  0  0
  -26.2809  -12.9512   20.3233 N   0  0  0  0  0  0
  -25.9330  -11.6617   20.5723 N   0  0  0  0  0  0
  -22.0408  -12.8173   22.0456 N   0  0  0  0  0  0
  -25.4022  -15.1984   20.4296 N   0  0  0  0  0  0
  -31.6424  -15.3143   20.2747 O   0  0  0  0  0  0
  -21.6637   -6.8885   21.4242 O   0  0  0  0  0  0
  -22.3451  -14.5491   20.6745 O   0  0  0  0  0  0
  -24.6685  -31.8201   23.1654 C   0  0  0  0  0  0
  -25.9336  -32.4572   23.8144 C   0  0  1  0  0  0
  -27.2137  -26.8803   20.2037 C   0  0  0  0  0  0
  -25.5995  -33.8390   24.2050 N   0  0  0  0  0  0
  -23.4842  -30.4287   21.5193 C   0  0  2  0  0  0
  -24.9340  -28.8002   20.1224 C   0  0  0  0  0  0
  -22.7694  -29.4425   22.4801 C   0  0  0  0  0  0
  -18.0337  -28.1398   22.8455 C   0  0  0  0  0  0
  -24.1497  -36.7214   23.2647 C   0  0  0  0  0  0
  -26.0550  -30.6100   21.4023 C   0  0  0  0  0  0
  -26.1210  -29.1922   20.7541 C   0  0  0  0  0  0
  -27.2558  -28.2567   20.7645 C   0  0  0  0  0  0
  -25.9966  -26.6473   19.5250 C   0  0  0  0  0  0
  -24.8984  -27.5467   19.4883 C   0  0  0  0  0  0
  -23.7256  -29.7380   20.1487 C   0  0  0  0  0  0
  -25.4134  -36.2964   24.0298 C   0  0  1  0  0  0
  -20.5956  -28.3754   23.1174 C   0  0  2  0  0  0
  -20.6816  -26.9428   22.5397 C   0  0  0  0  0  0
  -19.5791  -26.6364   21.5206 C   0  0  0  0  0  0
  -18.1971  -26.7931   22.1608 C   0  0  0  0  0  0
  -19.1595  -28.8898   23.2798 C   0  0  0  0  0  0
  -18.9505  -30.1491   23.8828 C   0  0  0  0  0  0
  -17.6493  -30.6588   24.0547 C   0  0  0  0  0  0
  -25.9108  -34.9346   23.4998 C   0  0  0  0  0  0
  -16.5385  -29.9072   23.6335 C   0  0  0  0  0  0
  -16.7317  -28.6493   23.0351 C   0  0  0  0  0  0
  -26.4555  -31.6543   25.0701 C   0  0  0  0  0  0
  -25.3651  -31.3806   26.1339 C   0  0  0  0  0  0
  -27.0468  -30.2914   24.6463 C   0  0  0  0  0  0
  -27.6042  -32.4369   25.7495 C   0  0  0  0  0  0
  -27.5576  -37.1760   24.8463 C   0  0  0  0  0  0
  -21.4363  -29.3045   22.3534 N   0  0  0  0  0  0
  -26.4282  -37.3701   23.9410 N   0  0  0  0  0  0
  -24.7580  -30.9812   22.0826 N   0  0  0  0  0  0
  -23.4218  -28.8009   23.3068 O   0  0  0  0  0  0
  -28.2268  -25.7706   20.2220 O   0  0  0  0  0  0
  -26.5715  -34.8894   22.4599 O   0  0  0  0  0  0
  -23.5745  -32.1216   23.6713 O   0  0  0  0  0  0
  -29.2103  -19.5142   19.9839 C   0  0  0  0  0  0
  -29.5877  -18.1720   20.6729 C   0  0  0  0  0  0
  -29.7621  -18.4393   22.0580 C   0  0  0  0  0  0
  -29.0433  -20.9262   20.6057 C   0  0  0  0  0  0
  -29.5866  -19.7538   22.6099 C   0  0  0  0  0  0
  -28.3173  -19.6572   24.7962 C   0  0  0  0  0  0
  -28.9077  -22.5855   19.9943 C   0  0  0  0  0  0
  -29.6616  -19.9563   24.1182 C   0  0  0  0  0  0
  -28.0254  -24.1223   20.4551 C   0  0  0  0  0  0
  -29.2663  -20.9026   21.9378 N   0  0  0  0  0  0
  -29.6195  -16.5983   20.2184 N   0  0  0  0  0  0
  -30.1055  -17.1167   23.1286 Cl  0  0  0  0  0  0
  -31.4485  -13.1009   19.1538 H   0  0  0  0  0  0
  -30.5445  -11.9783   20.1298 H   0  0  0  0  0  0
  -29.9257  -11.7425   17.7002 H   0  0  0  0  0  0
  -29.5406  -13.4437   17.6128 H   0  0  0  0  0  0
  -28.0639  -11.2723   19.1164 H   0  0  0  0  0  0
  -27.4136  -12.3000   17.8653 H   0  0  0  0  0  0
  -27.5061  -14.2311   19.2986 H   0  0  0  0  0  0
  -28.8458  -12.5568   21.4760 H   0  0  0  0  0  0
  -28.2809  -14.2023   21.6676 H   0  0  0  0  0  0
  -25.2775   -9.5660   22.4778 H   0  0  0  0  0  0
  -23.9986   -7.4634   22.7486 H   0  0  0  0  0  0
  -21.0847   -8.8800   19.8971 H   0  0  0  0  0  0
  -22.3732  -10.9676   19.6174 H   0  0  0  0  0  0
  -21.2018   -7.6146   23.9719 H   0  0  0  0  0  0
  -21.1474   -6.0522   25.9077 H   0  0  0  0  0  0
  -22.0601   -2.7606   23.2853 H   0  0  0  0  0  0
  -22.4023  -11.9833   22.4840 H   0  0  0  0  0  0
  -21.1028  -13.1203   22.2671 H   0  0  0  0  0  0
  -24.6388  -15.8496   20.5766 H   0  0  0  0  0  0
  -26.2513  -15.6506   20.1195 H   0  0  0  0  0  0
  -26.7425  -32.5090   23.0875 H   0  0  0  0  0  0
  -25.0096  -33.9456   25.0169 H   0  0  0  0  0  0
  -22.7989  -31.2606   21.3436 H   0  0  0  0  0  0
  -23.3774  -35.9532   23.3272 H   0  0  0  0  0  0
  -24.3581  -36.8909   22.2074 H   0  0  0  0  0  0
  -23.7238  -37.6380   23.6736 H   0  0  0  0  0  0
  -26.2358  -31.3447   20.6167 H   0  0  0  0  0  0
  -26.9153  -30.6735   22.0569 H   0  0  0  0  0  0
  -28.1573  -28.5590   21.2790 H   0  0  0  0  0  0
  -25.8681  -25.6955   19.0302 H   0  0  0  0  0  0
  -23.9969  -27.2354   18.9790 H   0  0  0  0  0  0
  -23.8916  -30.5043   19.3900 H   0  0  0  0  0  0
  -22.8320  -29.2005   19.8272 H   0  0  0  0  0  0
  -25.1328  -36.1765   25.0787 H   0  0  0  0  0  0
  -21.0027  -28.3374   24.1303 H   0  0  0  0  0  0
  -20.5709  -26.2375   23.3647 H   0  0  0  0  0  0
  -21.6680  -26.7419   22.1189 H   0  0  0  0  0  0
  -19.6952  -25.6258   21.1285 H   0  0  0  0  0  0
  -19.6727  -27.3140   20.6705 H   0  0  0  0  0  0
  -17.4239  -26.6683   21.4008 H   0  0  0  0  0  0
  -18.0353  -26.0074   22.9004 H   0  0  0  0  0  0
  -19.7983  -30.7320   24.2164 H   0  0  0  0  0  0
  -17.5049  -31.6257   24.5168 H   0  0  0  0  0  0
  -15.5382  -30.2941   23.7701 H   0  0  0  0  0  0
  -15.8723  -28.0795   22.7073 H   0  0  0  0  0  0
  -24.5831  -30.7171   25.7621 H   0  0  0  0  0  0
  -24.8831  -32.3015   26.4634 H   0  0  0  0  0  0
  -25.7836  -30.9034   27.0207 H   0  0  0  0  0  0
  -26.3150  -29.6570   24.1448 H   0  0  0  0  0  0
  -27.3984  -29.7295   25.5123 H   0  0  0  0  0  0
  -27.9093  -30.4109   23.9901 H   0  0  0  0  0  0
  -27.2613  -33.3726   26.1925 H   0  0  0  0  0  0
  -28.3908  -32.6853   25.0356 H   0  0  0  0  0  0
  -28.0658  -31.8606   26.5525 H   0  0  0  0  0  0
  -28.2553  -38.0093   24.7523 H   0  0  0  0  0  0
  -28.1113  -36.2617   24.6267 H   0  0  0  0  0  0
  -27.2304  -37.1369   25.8868 H   0  0  0  0  0  0
  -20.9641  -29.8736   21.6648 H   0  0  0  0  0  0
  -26.0135  -38.2765   24.1414 H   0  0  0  0  0  0
  -29.0570  -19.4628   18.9151 H   0  0  0  0  0  0
  -28.3842  -19.7786   25.8767 H   0  0  0  0  0  0
  -27.9987  -18.6336   24.5983 H   0  0  0  0  0  0
  -27.5378  -20.3240   24.4272 H   0  0  0  0  0  0
  -28.6825  -22.4506   18.9373 H   0  0  0  0  0  0
  -29.9516  -22.8970   19.9909 H   0  0  0  0  0  0
  -29.9479  -20.9851   24.3365 H   0  0  0  0  0  0
  -30.4530  -19.3446   24.5498 H   0  0  0  0  0  0
  -28.0163  -24.0728   21.5446 H   0  0  0  0  0  0
  -26.9858  -23.9328   20.1879 H   0  0  0  0  0  0
  -28.7237  -16.3480   19.8310 H   0  0  0  0  0  0
  1 25  1  0  0  0
  1 30  2  0  0  0
  1 81  1  0  0  0
  2  3  1  0  0  0
  2 25  1  0  0  0
  2 83  1  0  0  0
  2 84  1  0  0  0
  3  4  1  0  0  0
  3 85  1  0  0  0
  3 86  1  0  0  0
  4  5  1  0  0  0
  4 87  1  0  0  0
  4 88  1  0  0  0
  5  6  1  0  0  0
  5 26  1  0  0  0
  5 89  1  0  0  0
  6 25  1  0  0  0
  6 90  1  0  0  0
  6 91  1  0  0  0
  7  8  2  0  0  0
  7 26  1  0  0  0
  7 29  1  0  0  0
  8  9  1  0  0  0
  8 22  1  0  0  0
  9 10  1  0  0  0
  9 27  2  0  0  0
 10 11  2  0  0  0
 10 15  1  0  0  0
 11 12  1  0  0  0
 11 92  1  0  0  0
 12 13  2  0  0  0
 12 93  1  0  0  0
 13 14  1  0  0  0
 13 31  1  0  0  0
 14 15  2  0  0  0
 14 94  1  0  0  0
 15 95  1  0  0  0
 16 17  2  0  0  0
 16 21  1  0  0  0
 16 31  1  0  0  0
 17 18  1  0  0  0
 17 96  1  0  0  0
 18 19  2  0  0  0
 18 97  1  0  0  0
 19 20  1  0  0  0
 19 24  1  0  0  0
 20 21  2  0  0  0
 20 98  1  0  0  0
 21 23  1  0  0  0
 22 28  1  0  0  0
 22 32  2  0  0  0
 26 27  1  0  0  0
 28 99  1  0  0  0
 28100  1  0  0  0
 29101  1  0  0  0
 29102  1  0  0  0
 33 34  1  0  0  0
 33 66  1  0  0  0
 33 70  2  0  0  0
 34 36  1  0  0  0
 34 59  1  0  0  0
 34103  1  0  0  0
 35 44  2  0  0  0
 35 45  1  0  0  0
 35 68  1  0  0  0
 36 56  1  0  0  0
 36104  1  0  0  0
 37 39  1  0  0  0
 37 47  1  0  0  0
 37 66  1  0  0  0
 37105  1  0  0  0
 38 43  2  0  0  0
 38 46  1  0  0  0
 38 47  1  0  0  0
 39 64  1  0  0  0
 39 67  2  0  0  0
 40 52  1  0  0  0
 40 53  2  0  0  0
 40 58  1  0  0  0
 41106  1  0  0  0
 41107  1  0  0  0
 41108  1  0  0  0
 41 48  1  0  0  0
 42 43  1  0  0  0
 42 66  1  0  0  0
 42109  1  0  0  0
 42110  1  0  0  0
 43 44  1  0  0  0
 44111  1  0  0  0
 45 46  2  0  0  0
 45112  1  0  0  0
 46113  1  0  0  0
 47114  1  0  0  0
 47115  1  0  0  0
 48 56  1  0  0  0
 48 65  1  0  0  0
 48116  1  0  0  0
 49 50  1  0  0  0
 49 53  1  0  0  0
 49 64  1  0  0  0
 49117  1  0  0  0
 50 51  1  0  0  0
 50118  1  0  0  0
 50119  1  0  0  0
 51 52  1  0  0  0
 51120  1  0  0  0
 51121  1  0  0  0
 52122  1  0  0  0
 52123  1  0  0  0
 53 54  1  0  0  0
 54 55  2  0  0  0
 54124  1  0  0  0
 55 57  1  0  0  0
 55125  1  0  0  0
 56 69  2  0  0  0
 57 58  2  0  0  0
 57126  1  0  0  0
 58127  1  0  0  0
 59 60  1  0  0  0
 59 61  1  0  0  0
 59 62  1  0  0  0
 60128  1  0  0  0
 60129  1  0  0  0
 60130  1  0  0  0
 61131  1  0  0  0
 61132  1  0  0  0
 61133  1  0  0  0
 62134  1  0  0  0
 62135  1  0  0  0
 62136  1  0  0  0
 63 65  1  0  0  0
 63137  1  0  0  0
 63138  1  0  0  0
 63139  1  0  0  0
 64140  1  0  0  0
 65141  1  0  0  0
 68 79  1  0  0  0
 71 72  2  0  0  0
 71 74  1  0  0  0
 71142  1  0  0  0
 72 73  1  0  0  0
 72 81  1  0  0  0
 73 75  2  0  0  0
 73 82  1  0  0  0
 74 77  1  0  0  0
 74 80  2  0  0  0
 75 78  1  0  0  0
 75 80  1  0  0  0
 76 78  1  0  0  0
 76143  1  0  0  0
 76144  1  0  0  0
 76145  1  0  0  0
 77 79  1  0  0  0
 77146  1  0  0  0
 77147  1  0  0  0
 78148  1  0  0  0
 78149  1  0  0  0
 79150  1  0  0  0
 79151  1  0  0  0
 81152  1  0  0  0
M  ISO  4   1 100  68 101  79 101  81 100
M  END
> <chiral flag>
0

> <version>
0

> <s_m_source_file>
/data/baiqing/PycharmProjects/Reinvent-master-3.2/result/LINK_invent/BTK/process_docking_weight1_custom_sum_contain_oxygen_bond_distance_aromatic_linkinvent_7_9_3/rearranged_h_0096.sdf

> <i_m_source_file_index>
26

> <r_mmod_Potential_Energy-OPLS-2005>
1344.53564453125

> <r_mmod_Stretch_Energy-OPLS-2005>
647.102233886719

> <r_mmod_Bend_Energy-OPLS-2005>
449.051177978516

> <r_mmod_Torsional_Energy-OPLS-2005>
253.352127075195

> <r_mmod_Improper_Torsional_Energy-OPLS-2005>
12.0085134506226

> <r_mmod_Van_der_Waal_Energy-OPLS-2005>
129.998718261719

> <r_mmod_Electrostatic_Energy-OPLS-2005>
-454.900512695312

> <r_mmod_Solvation_Energy-OPLS-2005>
-222.504241943359

> <b_mmod_Minimization_Converged-OPLS-2005>
0

> <r_mmod_RMS_Derivative-OPLS-2005>
1.6551308631897

$$$$
26
                    3D
 Structure written by MMmdl.
169177  0  0  1  0            999 V2000
  -30.6282  -14.5655   20.4896 C   0  0  0  0  0  0
  -30.4309  -12.3442   19.4366 C   0  0  0  0  0  0
  -29.5034  -12.4874   18.2101 C   0  0  0  0  0  0
  -28.0216  -12.3481   18.6169 C   0  0  0  0  0  0
  -27.6526  -13.2070   19.8566 C   0  0  2  0  0  0
  -28.6934  -13.0341   20.9857 C   0  0  0  0  0  0
  -25.2567  -13.8151   20.5656 C   0  0  0  0  0  0
  -24.1828  -13.0429   20.9172 C   0  0  0  0  0  0
  -24.6375  -11.6897   20.8710 C   0  0  0  0  0  0
  -23.9036  -10.4283   21.0377 C   0  0  0  0  0  0
  -24.3606   -9.4203   21.9155 C   0  0  0  0  0  0
  -23.6281   -8.2244   22.0744 C   0  0  0  0  0  0
  -22.4259   -8.0266   21.3537 C   0  0  0  0  0  0
  -21.9888   -9.0233   20.4639 C   0  0  0  0  0  0
  -22.7209  -10.2113   20.3036 C   0  0  0  0  0  0
  -21.6864   -6.0714   22.5274 C   0  0  0  0  0  0
  -21.4019   -6.5629   23.8198 C   0  0  0  0  0  0
  -21.3652   -5.6787   24.9166 C   0  0  0  0  0  0
  -21.6039   -4.3047   24.7222 C   0  0  0  0  0  0
  -21.8824   -3.8130   23.4352 C   0  0  0  0  0  0
  -21.9196   -4.6947   22.3395 C   0  0  0  0  0  0
  -22.7844  -13.5222   21.1811 C   0  0  0  0  0  0
  -22.1664   -4.2124   21.0982 F   0  0  0  0  0  0
  -21.5617   -3.4535   25.7739 F   0  0  0  0  0  0
  -30.0136  -13.3523   20.4234 N   0  0  0  0  0  0
  -26.2974  -12.9316   20.3258 N   0  0  0  0  0  0
  -25.9295  -11.6482   20.5703 N   0  0  0  0  0  0
  -22.0496  -12.8229   22.0396 N   0  0  0  0  0  0
  -25.4280  -15.1870   20.4045 N   0  0  0  0  0  0
  -31.7955  -14.7365   20.1255 O   0  0  0  0  0  0
  -21.6645   -6.8856   21.4231 O   0  0  0  0  0  0
  -22.3523  -14.5510   20.6632 O   0  0  0  0  0  0
  -24.6213  -31.8624   23.1991 C   0  0  0  0  0  0
  -25.9079  -32.4803   23.8333 C   0  0  1  0  0  0
  -27.2335  -27.3643   20.1120 C   0  0  0  0  0  0
  -25.5919  -33.8609   24.2271 N   0  0  0  0  0  0
  -23.4136  -30.4838   21.5377 C   0  0  2  0  0  0
  -24.8605  -28.9352   20.1100 C   0  0  0  0  0  0
  -22.7452  -29.4642   22.4896 C   0  0  0  0  0  0
  -18.0300  -28.1387   22.8512 C   0  0  0  0  0  0
  -24.1495  -36.7289   23.2633 C   0  0  0  0  0  0
  -25.9481  -30.8056   21.3616 C   0  0  0  0  0  0
  -26.0211  -29.4328   20.7130 C   0  0  0  0  0  0
  -27.2061  -28.6533   20.7122 C   0  0  0  0  0  0
  -26.0488  -26.8928   19.5039 C   0  0  0  0  0  0
  -24.8714  -27.6685   19.5011 C   0  0  0  0  0  0
  -23.6278  -29.8119   20.1539 C   0  0  0  0  0  0
  -25.4118  -36.3102   24.0340 C   0  0  1  0  0  0
  -20.5907  -28.3677   23.1286 C   0  0  2  0  0  0
  -20.6796  -26.9407   22.5411 C   0  0  0  0  0  0
  -19.5765  -26.6395   21.5221 C   0  0  0  0  0  0
  -18.1940  -26.7945   22.1628 C   0  0  0  0  0  0
  -19.1557  -28.8851   23.2910 C   0  0  0  0  0  0
  -18.9483  -30.1452   23.8921 C   0  0  0  0  0  0
  -17.6484  -30.6598   24.0568 C   0  0  0  0  0  0
  -25.9049  -34.9482   23.5106 C   0  0  0  0  0  0
  -16.5369  -29.9109   23.6328 C   0  0  0  0  0  0
  -16.7288  -28.6515   23.0362 C   0  0  0  0  0  0
  -26.4487  -31.6611   25.0680 C   0  0  0  0  0  0
  -25.3752  -31.3769   26.1431 C   0  0  0  0  0  0
  -27.0283  -30.3048   24.6054 C   0  0  0  0  0  0
  -27.6045  -32.4332   25.7450 C   0  0  0  0  0  0
  -27.5589  -37.1793   24.8469 C   0  0  0  0  0  0
  -21.4172  -29.3052   22.3667 N   0  0  0  0  0  0
  -26.4297  -37.3799   23.9419 N   0  0  0  0  0  0
  -24.6794  -31.0685   22.0910 N   0  0  0  0  0  0
  -23.4199  -28.8186   23.2961 O   0  0  0  0  0  0
  -28.4018  -26.6098   20.1683 O   0  0  0  0  0  0
  -26.5603  -34.8943   22.4658 O   0  0  0  0  0  0
  -23.5391  -32.1393   23.7349 O   0  0  0  0  0  0
  -29.3632  -21.2580   22.4168 C   0  0  0  0  0  0
  -29.5663  -20.2949   23.4329 C   0  0  0  0  0  0
  -29.0036  -20.6104   21.2681 C   0  0  0  0  0  0
  -29.3286  -19.0601   22.9035 C   0  0  0  0  0  0
  -27.7102  -16.3348   25.1282 C   0  0  0  0  0  0
  -30.6234  -17.3706   24.2452 C   0  0  0  0  0  0
  -28.5190  -21.2562   19.9776 C   0  0  0  0  0  0
  -28.1410  -17.7391   24.6806 C   0  0  0  0  0  0
  -28.9615  -22.7334   19.6401 C   0  0  0  0  0  0
  -28.2827  -23.9956   20.2985 C   0  0  0  0  0  0
  -28.9029  -18.0623   20.6105 C   0  0  0  0  0  0
  -30.1213  -17.0571   20.5258 C   0  0  0  0  0  0
  -28.5481  -25.3266   19.4958 C   0  0  0  0  0  0
  -29.2677  -17.7381   23.6262 C   0  0  1  0  0  0
  -29.0985  -19.2143   21.5308 N   0  0  0  0  0  0
  -29.8089  -15.6169   20.7414 N   0  0  0  0  0  0
  -31.4731  -12.4653   19.1340 H   0  0  0  0  0  0
  -30.3573  -11.3440   19.8650 H   0  0  0  0  0  0
  -29.7572  -11.7382   17.4596 H   0  0  0  0  0  0
  -29.6640  -13.4577   17.7372 H   0  0  0  0  0  0
  -27.8367  -11.2943   18.8278 H   0  0  0  0  0  0
  -27.3749  -12.6048   17.7768 H   0  0  0  0  0  0
  -27.6793  -14.2449   19.5257 H   0  0  0  0  0  0
  -28.6885  -12.0090   21.3598 H   0  0  0  0  0  0
  -28.4526  -13.6671   21.8409 H   0  0  0  0  0  0
  -25.2764   -9.5686   22.4701 H   0  0  0  0  0  0
  -23.9988   -7.4650   22.7477 H   0  0  0  0  0  0
  -21.0806   -8.8733   19.8961 H   0  0  0  0  0  0
  -22.3650  -10.9631   19.6125 H   0  0  0  0  0  0
  -21.2033   -7.6141   23.9690 H   0  0  0  0  0  0
  -21.1456   -6.0523   25.9060 H   0  0  0  0  0  0
  -22.0614   -2.7594   23.2861 H   0  0  0  0  0  0
  -22.4158  -11.9940   22.4836 H   0  0  0  0  0  0
  -21.1082  -13.1193   22.2526 H   0  0  0  0  0  0
  -24.6537  -15.8332   20.5057 H   0  0  0  0  0  0
  -26.2577  -15.6222   20.0257 H   0  0  0  0  0  0
  -26.7137  -32.5461   23.1064 H   0  0  0  0  0  0
  -25.0165  -33.9783   25.0488 H   0  0  0  0  0  0
  -22.7062  -31.3035   21.3900 H   0  0  0  0  0  0
  -23.3779  -35.9593   23.3302 H   0  0  0  0  0  0
  -24.3617  -36.8903   22.2052 H   0  0  0  0  0  0
  -23.7230  -37.6478   23.6657 H   0  0  0  0  0  0
  -26.0701  -31.5635   20.5866 H   0  0  0  0  0  0
  -26.8361  -30.8633   21.9802 H   0  0  0  0  0  0
  -28.0985  -29.0322   21.1917 H   0  0  0  0  0  0
  -26.0035  -25.9147   19.0495 H   0  0  0  0  0  0
  -23.9755  -27.2781   19.0378 H   0  0  0  0  0  0
  -23.7500  -30.5860   19.3956 H   0  0  0  0  0  0
  -22.7498  -29.2396   19.8483 H   0  0  0  0  0  0
  -25.1307  -36.1944   25.0834 H   0  0  0  0  0  0
  -21.0018  -28.3267   24.1397 H   0  0  0  0  0  0
  -20.5717  -26.2292   23.3612 H   0  0  0  0  0  0
  -21.6660  -26.7454   22.1180 H   0  0  0  0  0  0
  -19.6930  -25.6305   21.1254 H   0  0  0  0  0  0
  -19.6720  -27.3201   20.6754 H   0  0  0  0  0  0
  -17.4223  -26.6726   21.4015 H   0  0  0  0  0  0
  -18.0314  -26.0081   22.9017 H   0  0  0  0  0  0
  -19.7959  -30.7269   24.2289 H   0  0  0  0  0  0
  -17.5044  -31.6277   24.5178 H   0  0  0  0  0  0
  -15.5369  -30.3023   23.7631 H   0  0  0  0  0  0
  -15.8699  -28.0839   22.7054 H   0  0  0  0  0  0
  -24.5864  -30.7185   25.7782 H   0  0  0  0  0  0
  -24.9007  -32.2956   26.4887 H   0  0  0  0  0  0
  -25.8094  -30.8917   27.0181 H   0  0  0  0  0  0
  -26.2793  -29.6829   24.1115 H   0  0  0  0  0  0
  -27.4086  -29.7265   25.4480 H   0  0  0  0  0  0
  -27.8651  -30.4381   23.9187 H   0  0  0  0  0  0
  -27.2650  -33.3634   26.2019 H   0  0  0  0  0  0
  -28.3858  -32.6888   25.0287 H   0  0  0  0  0  0
  -28.0700  -31.8461   26.5373 H   0  0  0  0  0  0
  -28.2586  -38.0101   24.7520 H   0  0  0  0  0  0
  -28.1103  -36.2639   24.6285 H   0  0  0  0  0  0
  -27.2317  -37.1408   25.8869 H   0  0  0  0  0  0
  -20.9321  -29.8782   21.6900 H   0  0  0  0  0  0
  -26.0184  -38.2872   24.1427 H   0  0  0  0  0  0
  -29.4200  -22.3293   22.5427 H   0  0  0  0  0  0
  -29.8070  -20.4920   24.4698 H   0  0  0  0  0  0
  -26.8834  -16.3886   25.8367 H   0  0  0  0  0  0
  -28.5258  -15.8053   25.6182 H   0  0  0  0  0  0
  -27.3800  -15.7343   24.2793 H   0  0  0  0  0  0
  -31.4039  -17.3381   23.4856 H   0  0  0  0  0  0
  -30.5963  -16.3897   24.7183 H   0  0  0  0  0  0
  -30.9282  -18.0983   24.9974 H   0  0  0  0  0  0
  -27.4302  -21.1971   19.9430 H   0  0  0  0  0  0
  -28.8576  -20.6364   19.1480 H   0  0  0  0  0  0
  -28.4299  -18.3438   25.5425 H   0  0  0  0  0  0
  -27.2620  -18.2282   24.2556 H   0  0  0  0  0  0
  -28.7762  -22.8414   18.5703 H   0  0  0  0  0  0
  -30.0455  -22.8081   19.7412 H   0  0  0  0  0  0
  -28.6642  -24.1094   21.3133 H   0  0  0  0  0  0
  -27.2088  -23.8384   20.3987 H   0  0  0  0  0  0
  -27.9942  -17.5433   20.9195 H   0  0  0  0  0  0
  -28.6818  -18.4367   19.6123 H   0  0  0  0  0  0
  -30.9032  -17.3499   21.2252 H   0  0  0  0  0  0
  -30.5767  -17.1523   19.5387 H   0  0  0  0  0  0
  -28.0149  -25.3071   18.5455 H   0  0  0  0  0  0
  -29.5990  -25.3070   19.2039 H   0  0  0  0  0  0
  -29.0112  -16.9462   22.9291 H   0  0  0  0  0  0
  -28.8599  -15.3884   20.9932 H   0  0  0  0  0  0
  1 25  1  0  0  0
  1 30  2  0  0  0
  1 86  1  0  0  0
  2  3  1  0  0  0
  2 25  1  0  0  0
  2 87  1  0  0  0
  2 88  1  0  0  0
  3  4  1  0  0  0
  3 89  1  0  0  0
  3 90  1  0  0  0
  4  5  1  0  0  0
  4 91  1  0  0  0
  4 92  1  0  0  0
  5  6  1  0  0  0
  5 26  1  0  0  0
  5 93  1  0  0  0
  6 25  1  0  0  0
  6 94  1  0  0  0
  6 95  1  0  0  0
  7  8  2  0  0  0
  7 26  1  0  0  0
  7 29  1  0  0  0
  8  9  1  0  0  0
  8 22  1  0  0  0
  9 10  1  0  0  0
  9 27  2  0  0  0
 10 11  2  0  0  0
 10 15  1  0  0  0
 11 12  1  0  0  0
 11 96  1  0  0  0
 12 13  2  0  0  0
 12 97  1  0  0  0
 13 14  1  0  0  0
 13 31  1  0  0  0
 14 15  2  0  0  0
 14 98  1  0  0  0
 15 99  1  0  0  0
 16 17  2  0  0  0
 16 21  1  0  0  0
 16 31  1  0  0  0
 17 18  1  0  0  0
 17100  1  0  0  0
 18 19  2  0  0  0
 18101  1  0  0  0
 19 20  1  0  0  0
 19 24  1  0  0  0
 20 21  2  0  0  0
 20102  1  0  0  0
 21 23  1  0  0  0
 22 28  1  0  0  0
 22 32  2  0  0  0
 26 27  1  0  0  0
 28103  1  0  0  0
 28104  1  0  0  0
 29105  1  0  0  0
 29106  1  0  0  0
 33 34  1  0  0  0
 33 66  1  0  0  0
 33 70  2  0  0  0
 34 36  1  0  0  0
 34 59  1  0  0  0
 34107  1  0  0  0
 35 44  2  0  0  0
 35 45  1  0  0  0
 35 68  1  0  0  0
 36 56  1  0  0  0
 36108  1  0  0  0
 37 39  1  0  0  0
 37 47  1  0  0  0
 37 66  1  0  0  0
 37109  1  0  0  0
 38 43  2  0  0  0
 38 46  1  0  0  0
 38 47  1  0  0  0
 39 64  1  0  0  0
 39 67  2  0  0  0
 40 52  1  0  0  0
 40 53  2  0  0  0
 40 58  1  0  0  0
 41110  1  0  0  0
 41111  1  0  0  0
 41112  1  0  0  0
 41 48  1  0  0  0
 42 43  1  0  0  0
 42 66  1  0  0  0
 42113  1  0  0  0
 42114  1  0  0  0
 43 44  1  0  0  0
 44115  1  0  0  0
 45 46  2  0  0  0
 45116  1  0  0  0
 46117  1  0  0  0
 47118  1  0  0  0
 47119  1  0  0  0
 48 56  1  0  0  0
 48 65  1  0  0  0
 48120  1  0  0  0
 49 50  1  0  0  0
 49 53  1  0  0  0
 49 64  1  0  0  0
 49121  1  0  0  0
 50 51  1  0  0  0
 50122  1  0  0  0
 50123  1  0  0  0
 51 52  1  0  0  0
 51124  1  0  0  0
 51125  1  0  0  0
 52126  1  0  0  0
 52127  1  0  0  0
 53 54  1  0  0  0
 54 55  2  0  0  0
 54128  1  0  0  0
 55 57  1  0  0  0
 55129  1  0  0  0
 56 69  2  0  0  0
 57 58  2  0  0  0
 57130  1  0  0  0
 58131  1  0  0  0
 59 60  1  0  0  0
 59 61  1  0  0  0
 59 62  1  0  0  0
 60132  1  0  0  0
 60133  1  0  0  0
 60134  1  0  0  0
 61135  1  0  0  0
 61136  1  0  0  0
 61137  1  0  0  0
 62138  1  0  0  0
 62139  1  0  0  0
 62140  1  0  0  0
 63 65  1  0  0  0
 63141  1  0  0  0
 63142  1  0  0  0
 63143  1  0  0  0
 64144  1  0  0  0
 65145  1  0  0  0
 68 83  1  0  0  0
 71 72  1  0  0  0
 71 73  2  0  0  0
 71146  1  0  0  0
 72 74  2  0  0  0
 72147  1  0  0  0
 73 77  1  0  0  0
 73 85  1  0  0  0
 74 84  1  0  0  0
 74 85  1  0  0  0
 75 78  1  0  0  0
 75148  1  0  0  0
 75149  1  0  0  0
 75150  1  0  0  0
 76151  1  0  0  0
 76152  1  0  0  0
 76153  1  0  0  0
 76 84  1  0  0  0
 77 79  1  0  0  0
 77154  1  0  0  0
 77155  1  0  0  0
 78 84  1  0  0  0
 78156  1  0  0  0
 78157  1  0  0  0
 79 80  1  0  0  0
 79158  1  0  0  0
 79159  1  0  0  0
 80 83  1  0  0  0
 80160  1  0  0  0
 80161  1  0  0  0
 81 82  1  0  0  0
 81 85  1  0  0  0
 81162  1  0  0  0
 81163  1  0  0  0
 82 86  1  0  0  0
 82164  1  0  0  0
 82165  1  0  0  0
 83166  1  0  0  0
 83167  1  0  0  0
 84168  1  0  0  0
 86169  1  0  0  0
M  ISO  4   1 100  68 101  83 101  86 100
M  END
> <chiral flag>
0

> <version>
0

> <s_m_source_file>
/data/baiqing/PycharmProjects/Reinvent-master-3.2/result/LINK_invent/BTK/process_docking_weight1_custom_sum_contain_oxygen_bond_distance_aromatic_linkinvent_7_9_3/rearranged_h_0096.sdf

> <i_m_source_file_index>
27

> <r_mmod_Potential_Energy-OPLS-2005>
-14.3653297424316

> <r_mmod_Stretch_Energy-OPLS-2005>
58.6011123657227

> <r_mmod_Bend_Energy-OPLS-2005>
138.007171630859

> <r_mmod_Torsional_Energy-OPLS-2005>
243.580490112305

> <r_mmod_Improper_Torsional_Energy-OPLS-2005>
6.56651973724365

> <r_mmod_Van_der_Waal_Energy-OPLS-2005>
117.318664550781

> <r_mmod_Electrostatic_Energy-OPLS-2005>
-402.272399902344

> <r_mmod_Solvation_Energy-OPLS-2005>
-206.660858154297

> <b_mmod_Minimization_Converged-OPLS-2005>
0

> <r_mmod_RMS_Derivative-OPLS-2005>
2.85788869857788

$$$$
27
                    3D
 Structure written by MMmdl.
154162  0  0  1  0            999 V2000
  -30.5081  -15.0256   20.3870 C   0  0  0  0  0  0
  -30.4394  -12.6307   19.5308 C   0  0  0  0  0  0
  -29.5306  -12.5373   18.2820 C   0  0  0  0  0  0
  -28.0689  -12.3010   18.7018 C   0  0  0  0  0  0
  -27.6278  -13.2530   19.8441 C   0  0  2  0  0  0
  -28.6628  -13.3181   20.9892 C   0  0  0  0  0  0
  -25.2441  -13.8213   20.5725 C   0  0  0  0  0  0
  -24.1767  -13.0429   20.9234 C   0  0  0  0  0  0
  -24.6383  -11.6916   20.8755 C   0  0  0  0  0  0
  -23.9072  -10.4286   21.0413 C   0  0  0  0  0  0
  -24.3623   -9.4203   21.9192 C   0  0  0  0  0  0
  -23.6298   -8.2236   22.0753 C   0  0  0  0  0  0
  -22.4282   -8.0274   21.3541 C   0  0  0  0  0  0
  -21.9915   -9.0249   20.4648 C   0  0  0  0  0  0
  -22.7241  -10.2129   20.3066 C   0  0  0  0  0  0
  -21.6847   -6.0738   22.5288 C   0  0  0  0  0  0
  -21.4011   -6.5643   23.8223 C   0  0  0  0  0  0
  -21.3657   -5.6797   24.9185 C   0  0  0  0  0  0
  -21.6038   -4.3060   24.7230 C   0  0  0  0  0  0
  -21.8810   -3.8150   23.4350 C   0  0  0  0  0  0
  -21.9186   -4.6967   22.3408 C   0  0  0  0  0  0
  -22.7789  -13.5211   21.1884 C   0  0  0  0  0  0
  -22.1656   -4.2153   21.0987 F   0  0  0  0  0  0
  -21.5628   -3.4543   25.7743 F   0  0  0  0  0  0
  -29.9375  -13.7452   20.3965 N   0  0  0  0  0  0
  -26.2871  -12.9453   20.3267 N   0  0  0  0  0  0
  -25.9323  -11.6571   20.5759 N   0  0  0  0  0  0
  -22.0430  -12.8216   22.0443 N   0  0  0  0  0  0
  -25.4094  -15.1946   20.4147 N   0  0  0  0  0  0
  -31.6943  -15.0827   20.0407 O   0  0  0  0  0  0
  -21.6632   -6.8884   21.4249 O   0  0  0  0  0  0
  -22.3483  -14.5517   20.6731 O   0  0  0  0  0  0
  -24.6480  -31.8365   23.1791 C   0  0  0  0  0  0
  -25.9236  -32.4644   23.8209 C   0  0  1  0  0  0
  -27.2253  -27.0769   20.1539 C   0  0  0  0  0  0
  -25.5972  -33.8450   24.2138 N   0  0  0  0  0  0
  -23.4547  -30.4506   21.5248 C   0  0  2  0  0  0
  -24.9047  -28.8590   20.1065 C   0  0  0  0  0  0
  -22.7587  -29.4499   22.4813 C   0  0  0  0  0  0
  -18.0311  -28.1390   22.8474 C   0  0  0  0  0  0
  -24.1494  -36.7224   23.2646 C   0  0  0  0  0  0
  -26.0121  -30.6889   21.3859 C   0  0  0  0  0  0
  -26.0807  -29.2939   20.7281 C   0  0  0  0  0  0
  -27.2338  -28.4179   20.7328 C   0  0  0  0  0  0
  -26.0196  -26.7459   19.5003 C   0  0  0  0  0  0
  -24.8904  -27.6012   19.4776 C   0  0  0  0  0  0
  -23.6846  -29.7697   20.1471 C   0  0  0  0  0  0
  -25.4128  -36.2992   24.0310 C   0  0  1  0  0  0
  -20.5925  -28.3718   23.1215 C   0  0  2  0  0  0
  -20.6783  -26.9409   22.5400 C   0  0  0  0  0  0
  -19.5759  -26.6373   21.5205 C   0  0  0  0  0  0
  -18.1944  -26.7928   22.1619 C   0  0  0  0  0  0
  -19.1570  -28.8869   23.2840 C   0  0  0  0  0  0
  -18.9489  -30.1467   23.8860 C   0  0  0  0  0  0
  -17.6486  -30.6584   24.0550 C   0  0  0  0  0  0
  -25.9086  -34.9375   23.5031 C   0  0  0  0  0  0
  -16.5373  -29.9076   23.6338 C   0  0  0  0  0  0
  -16.7296  -28.6497   23.0353 C   0  0  0  0  0  0
  -26.4558  -31.6539   25.0675 C   0  0  0  0  0  0
  -25.3737  -31.3743   26.1370 C   0  0  0  0  0  0
  -27.0445  -30.2933   24.6294 C   0  0  0  0  0  0
  -27.6065  -32.4330   25.7470 C   0  0  0  0  0  0
  -27.5571  -37.1765   24.8471 C   0  0  0  0  0  0
  -21.4269  -29.3040   22.3576 N   0  0  0  0  0  0
  -26.4281  -37.3719   23.9415 N   0  0  0  0  0  0
  -24.7250  -31.0159   22.0851 N   0  0  0  0  0  0
  -23.4208  -28.8064   23.2996 O   0  0  0  0  0  0
  -28.3046  -26.1117   20.2818 O   0  0  0  0  0  0
  -26.5672  -34.8888   22.4612 O   0  0  0  0  0  0
  -23.5589  -32.1267   23.6987 O   0  0  0  0  0  0
  -30.5597  -20.0800   20.9390 C   0  0  0  0  0  0
  -28.6062  -20.3055   20.0338 C   0  0  0  0  0  0
  -29.5644  -19.2688   20.2978 C   0  0  0  0  0  0
  -30.2234  -21.4301   21.0005 C   0  0  0  0  0  0
  -31.0197  -22.5542   21.5835 C   0  0  0  0  0  0
  -28.3295  -24.5473   18.2802 C   0  0  0  0  0  0
  -29.7560  -17.6510   19.8205 C   0  0  0  0  0  0
  -28.1546  -23.0795   20.4971 C   0  0  0  0  0  0
  -28.5204  -24.6082   19.8032 C   0  0  1  0  0  0
  -28.9672  -21.6727   20.4390 N   0  0  0  0  0  0
  -29.7314  -16.2259   20.5532 N   0  0  0  0  0  0
  -31.4761  -12.7823   19.2237 H   0  0  0  0  0  0
  -30.4342  -11.6892   20.0819 H   0  0  0  0  0  0
  -29.8687  -11.7344   17.6257 H   0  0  0  0  0  0
  -29.6044  -13.4595   17.7033 H   0  0  0  0  0  0
  -27.9928  -11.2681   19.0430 H   0  0  0  0  0  0
  -27.4013  -12.3874   17.8445 H   0  0  0  0  0  0
  -27.5823  -14.2461   19.3963 H   0  0  0  0  0  0
  -28.7615  -12.3527   21.4885 H   0  0  0  0  0  0
  -28.3434  -14.0277   21.7541 H   0  0  0  0  0  0
  -25.2760   -9.5679   22.4779 H   0  0  0  0  0  0
  -23.9991   -7.4630   22.7482 H   0  0  0  0  0  0
  -21.0832   -8.8786   19.8967 H   0  0  0  0  0  0
  -22.3697  -10.9679   19.6192 H   0  0  0  0  0  0
  -21.2010   -7.6155   23.9733 H   0  0  0  0  0  0
  -21.1489   -6.0527   25.9090 H   0  0  0  0  0  0
  -22.0588   -2.7610   23.2857 H   0  0  0  0  0  0
  -22.4038  -11.9897   22.4879 H   0  0  0  0  0  0
  -21.1050  -13.1268   22.2627 H   0  0  0  0  0  0
  -24.6357  -15.8426   20.5196 H   0  0  0  0  0  0
  -26.2503  -15.6365   20.0661 H   0  0  0  0  0  0
  -26.7280  -32.5224   23.0910 H   0  0  0  0  0  0
  -25.0119  -33.9561   25.0286 H   0  0  0  0  0  0
  -22.7607  -31.2778   21.3625 H   0  0  0  0  0  0
  -23.3766  -35.9547   23.3287 H   0  0  0  0  0  0
  -24.3581  -36.8880   22.2065 H   0  0  0  0  0  0
  -23.7246  -37.6406   23.6705 H   0  0  0  0  0  0
  -26.1762  -31.4391   20.6117 H   0  0  0  0  0  0
  -26.8798  -30.7413   22.0321 H   0  0  0  0  0  0
  -28.1277  -28.7441   21.2452 H   0  0  0  0  0  0
  -25.9162  -25.7738   19.0449 H   0  0  0  0  0  0
  -23.9893  -27.2613   18.9860 H   0  0  0  0  0  0
  -23.8259  -30.5397   19.3885 H   0  0  0  0  0  0
  -22.7985  -29.2138   19.8350 H   0  0  0  0  0  0
  -25.1320  -36.1799   25.0800 H   0  0  0  0  0  0
  -21.0025  -28.3316   24.1333 H   0  0  0  0  0  0
  -20.5648  -26.2335   23.3629 H   0  0  0  0  0  0
  -21.6647  -26.7383   22.1212 H   0  0  0  0  0  0
  -19.6916  -25.6277   21.1250 H   0  0  0  0  0  0
  -19.6695  -27.3163   20.6714 H   0  0  0  0  0  0
  -17.4207  -26.6666   21.4029 H   0  0  0  0  0  0
  -18.0342  -26.0070   22.9013 H   0  0  0  0  0  0
  -19.7966  -30.7295   24.2204 H   0  0  0  0  0  0
  -17.5039  -31.6261   24.5161 H   0  0  0  0  0  0
  -15.5371  -30.2966   23.7683 H   0  0  0  0  0  0
  -15.8696  -28.0809   22.7078 H   0  0  0  0  0  0
  -24.5918  -30.7092   25.7696 H   0  0  0  0  0  0
  -24.8938  -32.2929   26.4745 H   0  0  0  0  0  0
  -25.8028  -30.8950   27.0179 H   0  0  0  0  0  0
  -26.3077  -29.6625   24.1309 H   0  0  0  0  0  0
  -27.4064  -29.7266   25.4885 H   0  0  0  0  0  0
  -27.8976  -30.4170   23.9618 H   0  0  0  0  0  0
  -27.2637  -33.3652   26.1973 H   0  0  0  0  0  0
  -28.3917  -32.6861   25.0333 H   0  0  0  0  0  0
  -28.0687  -31.8509   26.5454 H   0  0  0  0  0  0
  -28.2571  -38.0076   24.7509 H   0  0  0  0  0  0
  -28.1081  -36.2601   24.6300 H   0  0  0  0  0  0
  -27.2288  -37.1402   25.8874 H   0  0  0  0  0  0
  -20.9487  -29.8753   21.6747 H   0  0  0  0  0  0
  -26.0134  -38.2778   24.1433 H   0  0  0  0  0  0
  -31.5097  -19.7015   21.2926 H   0  0  0  0  0  0
  -27.6490  -20.1865   19.5416 H   0  0  0  0  0  0
  -31.9116  -22.1829   22.0889 H   0  0  0  0  0  0
  -30.4376  -23.1165   22.3140 H   0  0  0  0  0  0
  -31.3484  -23.2431   20.8054 H   0  0  0  0  0  0
  -27.2824  -24.4391   18.0009 H   0  0  0  0  0  0
  -28.8611  -23.6930   17.8592 H   0  0  0  0  0  0
  -28.7224  -25.4420   17.7969 H   0  0  0  0  0  0
  -30.7070  -17.6536   19.2870 H   0  0  0  0  0  0
  -29.0180  -17.5360   19.0259 H   0  0  0  0  0  0
  -27.1342  -22.8431   20.1971 H   0  0  0  0  0  0
  -28.0579  -23.2841   21.5634 H   0  0  0  0  0  0
  -29.6035  -24.5997   19.9145 H   0  0  0  0  0  0
  -28.8356  -16.0324   20.9754 H   0  0  0  0  0  0
  1 25  1  0  0  0
  1 30  2  0  0  0
  1 81  1  0  0  0
  2  3  1  0  0  0
  2 25  1  0  0  0
  2 82  1  0  0  0
  2 83  1  0  0  0
  3  4  1  0  0  0
  3 84  1  0  0  0
  3 85  1  0  0  0
  4  5  1  0  0  0
  4 86  1  0  0  0
  4 87  1  0  0  0
  5  6  1  0  0  0
  5 26  1  0  0  0
  5 88  1  0  0  0
  6 25  1  0  0  0
  6 89  1  0  0  0
  6 90  1  0  0  0
  7  8  2  0  0  0
  7 26  1  0  0  0
  7 29  1  0  0  0
  8  9  1  0  0  0
  8 22  1  0  0  0
  9 10  1  0  0  0
  9 27  2  0  0  0
 10 11  2  0  0  0
 10 15  1  0  0  0
 11 12  1  0  0  0
 11 91  1  0  0  0
 12 13  2  0  0  0
 12 92  1  0  0  0
 13 14  1  0  0  0
 13 31  1  0  0  0
 14 15  2  0  0  0
 14 93  1  0  0  0
 15 94  1  0  0  0
 16 17  2  0  0  0
 16 21  1  0  0  0
 16 31  1  0  0  0
 17 18  1  0  0  0
 17 95  1  0  0  0
 18 19  2  0  0  0
 18 96  1  0  0  0
 19 20  1  0  0  0
 19 24  1  0  0  0
 20 21  2  0  0  0
 20 97  1  0  0  0
 21 23  1  0  0  0
 22 28  1  0  0  0
 22 32  2  0  0  0
 26 27  1  0  0  0
 28 98  1  0  0  0
 28 99  1  0  0  0
 29100  1  0  0  0
 29101  1  0  0  0
 33 34  1  0  0  0
 33 66  1  0  0  0
 33 70  2  0  0  0
 34 36  1  0  0  0
 34 59  1  0  0  0
 34102  1  0  0  0
 35 44  2  0  0  0
 35 45  1  0  0  0
 35 68  1  0  0  0
 36 56  1  0  0  0
 36103  1  0  0  0
 37 39  1  0  0  0
 37 47  1  0  0  0
 37 66  1  0  0  0
 37104  1  0  0  0
 38 43  2  0  0  0
 38 46  1  0  0  0
 38 47  1  0  0  0
 39 64  1  0  0  0
 39 67  2  0  0  0
 40 52  1  0  0  0
 40 53  2  0  0  0
 40 58  1  0  0  0
 41105  1  0  0  0
 41106  1  0  0  0
 41107  1  0  0  0
 41 48  1  0  0  0
 42 43  1  0  0  0
 42 66  1  0  0  0
 42108  1  0  0  0
 42109  1  0  0  0
 43 44  1  0  0  0
 44110  1  0  0  0
 45 46  2  0  0  0
 45111  1  0  0  0
 46112  1  0  0  0
 47113  1  0  0  0
 47114  1  0  0  0
 48 56  1  0  0  0
 48 65  1  0  0  0
 48115  1  0  0  0
 49 50  1  0  0  0
 49 53  1  0  0  0
 49 64  1  0  0  0
 49116  1  0  0  0
 50 51  1  0  0  0
 50117  1  0  0  0
 50118  1  0  0  0
 51 52  1  0  0  0
 51119  1  0  0  0
 51120  1  0  0  0
 52121  1  0  0  0
 52122  1  0  0  0
 53 54  1  0  0  0
 54 55  2  0  0  0
 54123  1  0  0  0
 55 57  1  0  0  0
 55124  1  0  0  0
 56 69  2  0  0  0
 57 58  2  0  0  0
 57125  1  0  0  0
 58126  1  0  0  0
 59 60  1  0  0  0
 59 61  1  0  0  0
 59 62  1  0  0  0
 60127  1  0  0  0
 60128  1  0  0  0
 60129  1  0  0  0
 61130  1  0  0  0
 61131  1  0  0  0
 61132  1  0  0  0
 62133  1  0  0  0
 62134  1  0  0  0
 62135  1  0  0  0
 63 65  1  0  0  0
 63136  1  0  0  0
 63137  1  0  0  0
 63138  1  0  0  0
 64139  1  0  0  0
 65140  1  0  0  0
 68 79  1  0  0  0
 71 73  1  0  0  0
 71 74  2  0  0  0
 71141  1  0  0  0
 72 73  2  0  0  0
 72 80  1  0  0  0
 72142  1  0  0  0
 73 77  1  0  0  0
 74 75  1  0  0  0
 74 80  1  0  0  0
 75143  1  0  0  0
 75144  1  0  0  0
 75145  1  0  0  0
 76146  1  0  0  0
 76147  1  0  0  0
 76148  1  0  0  0
 76 79  1  0  0  0
 77 81  1  0  0  0
 77149  1  0  0  0
 77150  1  0  0  0
 78 79  1  0  0  0
 78 80  1  0  0  0
 78151  1  0  0  0
 78152  1  0  0  0
 79153  1  0  0  0
 81154  1  0  0  0
M  ISO  4   1 100  68 101  79 101  81 100
M  END
> <chiral flag>
0

> <version>
0

> <s_m_source_file>
/data/baiqing/PycharmProjects/Reinvent-master-3.2/result/LINK_invent/BTK/process_docking_weight1_custom_sum_contain_oxygen_bond_distance_aromatic_linkinvent_7_9_3/rearranged_h_0096.sdf

> <i_m_source_file_index>
28

> <r_mmod_Potential_Energy-OPLS-2005>
677.364807128906

> <r_mmod_Stretch_Energy-OPLS-2005>
330.011993408203

> <r_mmod_Bend_Energy-OPLS-2005>
375.832580566406

> <r_mmod_Torsional_Energy-OPLS-2005>
230.193725585938

> <r_mmod_Improper_Torsional_Energy-OPLS-2005>
9.13162708282471

> <r_mmod_Van_der_Waal_Energy-OPLS-2005>
103.608253479004

> <r_mmod_Electrostatic_Energy-OPLS-2005>
-397.604217529297

> <r_mmod_Solvation_Energy-OPLS-2005>
-220.54328918457

> <b_mmod_Minimization_Converged-OPLS-2005>
0

> <r_mmod_RMS_Derivative-OPLS-2005>
1.58662366867065

$$$$
28
                    3D
 Structure written by MMmdl.
178186  0  0  1  0            999 V2000
  -30.6578  -14.5733   20.4847 C   0  0  0  0  0  0
  -30.4291  -12.3553   19.4078 C   0  0  0  0  0  0
  -29.4872  -12.4841   18.1900 C   0  0  0  0  0  0
  -28.0108  -12.3416   18.6177 C   0  0  0  0  0  0
  -27.6507  -13.2126   19.8512 C   0  0  2  0  0  0
  -28.7053  -13.0519   20.9675 C   0  0  0  0  0  0
  -25.2555  -13.8125   20.5635 C   0  0  0  0  0  0
  -24.1822  -13.0393   20.9213 C   0  0  0  0  0  0
  -24.6406  -11.6884   20.8778 C   0  0  0  0  0  0
  -23.9076  -10.4262   21.0433 C   0  0  0  0  0  0
  -24.3638   -9.4165   21.9178 C   0  0  0  0  0  0
  -23.6284   -8.2218   22.0746 C   0  0  0  0  0  0
  -22.4261   -8.0281   21.3554 C   0  0  0  0  0  0
  -21.9922   -9.0256   20.4659 C   0  0  0  0  0  0
  -22.7267  -10.2117   20.3062 C   0  0  0  0  0  0
  -21.6847   -6.0737   22.5283 C   0  0  0  0  0  0
  -21.4012   -6.5645   23.8217 C   0  0  0  0  0  0
  -21.3650   -5.6797   24.9177 C   0  0  0  0  0  0
  -21.6045   -4.3061   24.7231 C   0  0  0  0  0  0
  -21.8824   -3.8152   23.4353 C   0  0  0  0  0  0
  -21.9192   -4.6966   22.3411 C   0  0  0  0  0  0
  -22.7864  -13.5220   21.1852 C   0  0  0  0  0  0
  -22.1665   -4.2162   21.0985 F   0  0  0  0  0  0
  -21.5620   -3.4538   25.7741 F   0  0  0  0  0  0
  -30.0152  -13.3740   20.3876 N   0  0  0  0  0  0
  -26.2989  -12.9309   20.3298 N   0  0  0  0  0  0
  -25.9333  -11.6462   20.5777 N   0  0  0  0  0  0
  -22.0528  -12.8208   22.0440 N   0  0  0  0  0  0
  -25.4163  -15.1797   20.3896 N   0  0  0  0  0  0
  -31.8418  -14.7012   20.1627 O   0  0  0  0  0  0
  -21.6637   -6.8880   21.4241 O   0  0  0  0  0  0
  -22.3571  -14.5511   20.6689 O   0  0  0  0  0  0
  -24.6162  -31.8660   23.1993 C   0  0  0  0  0  0
  -25.9037  -32.4785   23.8359 C   0  0  1  0  0  0
  -27.2579  -27.4106   20.0962 C   0  0  0  0  0  0
  -25.5882  -33.8581   24.2327 N   0  0  0  0  0  0
  -23.4069  -30.4861   21.5363 C   0  0  2  0  0  0
  -24.8635  -28.9347   20.1201 C   0  0  0  0  0  0
  -22.7389  -29.4688   22.4885 C   0  0  0  0  0  0
  -18.0294  -28.1367   22.8511 C   0  0  0  0  0  0
  -24.1517  -36.7339   23.2643 C   0  0  0  0  0  0
  -25.9348  -30.8310   21.3467 C   0  0  0  0  0  0
  -26.0221  -29.4522   20.7116 C   0  0  0  0  0  0
  -27.2222  -28.7008   20.6895 C   0  0  0  0  0  0
  -26.0764  -26.9069   19.5160 C   0  0  0  0  0  0
  -24.8849  -27.6591   19.5266 C   0  0  0  0  0  0
  -23.6235  -29.8027   20.1591 C   0  0  0  0  0  0
  -25.4114  -36.3087   24.0360 C   0  0  1  0  0  0
  -20.5880  -28.3706   23.1265 C   0  0  2  0  0  0
  -20.6764  -26.9428   22.5394 C   0  0  0  0  0  0
  -19.5748  -26.6397   21.5181 C   0  0  0  0  0  0
  -18.1942  -26.7934   22.1621 C   0  0  0  0  0  0
  -19.1543  -28.8846   23.2919 C   0  0  0  0  0  0
  -18.9463  -30.1433   23.8944 C   0  0  0  0  0  0
  -17.6462  -30.6583   24.0552 C   0  0  0  0  0  0
  -25.9014  -34.9431   23.5140 C   0  0  0  0  0  0
  -16.5355  -29.9076   23.6310 C   0  0  0  0  0  0
  -16.7282  -28.6491   23.0355 C   0  0  0  0  0  0
  -26.4461  -31.6524   25.0658 C   0  0  0  0  0  0
  -25.3708  -31.3655   26.1397 C   0  0  0  0  0  0
  -27.0288  -30.2961   24.6006 C   0  0  0  0  0  0
  -27.6070  -32.4196   25.7415 C   0  0  0  0  0  0
  -27.5599  -37.1799   24.8465 C   0  0  0  0  0  0
  -21.4113  -29.3080   22.3627 N   0  0  0  0  0  0
  -26.4308  -37.3762   23.9420 N   0  0  0  0  0  0
  -24.6721  -31.0760   22.0865 N   0  0  0  0  0  0
  -23.4146  -28.8239   23.2941 O   0  0  0  0  0  0
  -28.4342  -26.6857   20.0124 O   0  0  0  0  0  0
  -26.5570  -34.8882   22.4687 O   0  0  0  0  0  0
  -23.5342  -32.1393   23.7359 O   0  0  0  0  0  0
  -27.5171  -21.0283   21.3261 C   0  0  0  0  0  0
  -26.9538  -19.9856   22.0762 C   0  0  0  0  0  0
  -28.5874  -20.5726   20.6290 C   0  0  0  0  0  0
  -27.6572  -18.8471   21.7567 C   0  0  0  0  0  0
  -27.4503  -17.4681   22.2977 C   0  0  0  0  0  0
  -24.6943  -21.0498   22.3499 C   0  0  0  0  0  0
  -25.2503  -20.5471   25.4960 C   0  0  0  0  0  0
  -26.7418  -22.2389   24.3840 C   0  0  0  0  0  0
  -29.8535  -24.6015   18.5286 C   0  0  0  0  0  0
  -29.4719  -21.5120   19.8299 C   0  0  0  0  0  0
  -29.5281  -22.9797   20.4298 C   0  0  0  0  0  0
  -29.4731  -18.1718   20.0573 C   0  0  0  0  0  0
  -30.3131  -17.0939   20.8526 C   0  0  0  0  0  0
  -28.4639  -25.3570   20.5889 C   0  0  0  0  0  0
  -25.7947  -20.2025   23.0236 C   0  0  2  0  0  0
  -26.2870  -20.7617   24.3867 C   0  0  0  0  0  0
  -28.8789  -24.1694   19.6398 C   0  0  1  0  0  0
  -28.6402  -19.1644   20.8022 N   0  0  0  0  0  0
  -29.8821  -15.6595   20.7477 N   0  0  0  0  0  0
  -31.4645  -12.4795   19.0877 H   0  0  0  0  0  0
  -30.3715  -11.3517   19.8388 H   0  0  0  0  0  0
  -29.7258  -11.7283   17.4402 H   0  0  0  0  0  0
  -29.6388  -13.4501   17.7086 H   0  0  0  0  0  0
  -27.8360  -11.2891   18.8456 H   0  0  0  0  0  0
  -27.3525  -12.5824   17.7809 H   0  0  0  0  0  0
  -27.6717  -14.2490   19.5100 H   0  0  0  0  0  0
  -28.7100  -12.0268   21.3420 H   0  0  0  0  0  0
  -28.4807  -13.6883   21.8233 H   0  0  0  0  0  0
  -25.2765   -9.5645   22.4761 H   0  0  0  0  0  0
  -23.9992   -7.4625   22.7463 H   0  0  0  0  0  0
  -21.0847   -8.8794   19.8982 H   0  0  0  0  0  0
  -22.3717  -10.9671   19.6198 H   0  0  0  0  0  0
  -21.2001   -7.6155   23.9729 H   0  0  0  0  0  0
  -21.1465   -6.0522   25.9084 H   0  0  0  0  0  0
  -22.0605   -2.7616   23.2852 H   0  0  0  0  0  0
  -22.4121  -11.9871   22.4834 H   0  0  0  0  0  0
  -21.1157  -13.1266   22.2659 H   0  0  0  0  0  0
  -24.6469  -15.8271   20.5108 H   0  0  0  0  0  0
  -26.2402  -15.6173   20.0005 H   0  0  0  0  0  0
  -26.7093  -32.5532   23.1117 H   0  0  0  0  0  0
  -25.0003  -33.9775   25.0448 H   0  0  0  0  0  0
  -22.7006  -31.3041   21.3788 H   0  0  0  0  0  0
  -23.3730  -35.9722   23.3293 H   0  0  0  0  0  0
  -24.3618  -36.8937   22.2059 H   0  0  0  0  0  0
  -23.7323  -37.6572   23.6647 H   0  0  0  0  0  0
  -26.0217  -31.5888   20.5649 H   0  0  0  0  0  0
  -26.8320  -30.9170   21.9502 H   0  0  0  0  0  0
  -28.1203  -29.1135   21.1277 H   0  0  0  0  0  0
  -26.0889  -25.9382   19.0358 H   0  0  0  0  0  0
  -23.9942  -27.2503   19.0714 H   0  0  0  0  0  0
  -23.7220  -30.5721   19.3930 H   0  0  0  0  0  0
  -22.7537  -29.2139   19.8645 H   0  0  0  0  0  0
  -25.1263  -36.1939   25.0854 H   0  0  0  0  0  0
  -21.0038  -28.3293   24.1348 H   0  0  0  0  0  0
  -20.5630  -26.2314   23.3587 H   0  0  0  0  0  0
  -21.6633  -26.7411   22.1187 H   0  0  0  0  0  0
  -19.6911  -25.6307   21.1214 H   0  0  0  0  0  0
  -19.6686  -27.3187   20.6692 H   0  0  0  0  0  0
  -17.4185  -26.6693   21.4045 H   0  0  0  0  0  0
  -18.0371  -26.0062   22.9015 H   0  0  0  0  0  0
  -19.7931  -30.7240   24.2351 H   0  0  0  0  0  0
  -17.5003  -31.6270   24.5138 H   0  0  0  0  0  0
  -15.5353  -30.2974   23.7592 H   0  0  0  0  0  0
  -15.8693  -28.0774   22.7059 H   0  0  0  0  0  0
  -24.5865  -30.7025   25.7729 H   0  0  0  0  0  0
  -24.8905  -32.2819   26.4838 H   0  0  0  0  0  0
  -25.8011  -30.8811   27.0169 H   0  0  0  0  0  0
  -26.2829  -29.6676   24.1130 H   0  0  0  0  0  0
  -27.4155  -29.7224   25.4447 H   0  0  0  0  0  0
  -27.8614  -30.4297   23.9089 H   0  0  0  0  0  0
  -27.2744  -33.3487   26.2070 H   0  0  0  0  0  0
  -28.3851  -32.6738   25.0196 H   0  0  0  0  0  0
  -28.0769  -31.8232   26.5252 H   0  0  0  0  0  0
  -28.2561  -38.0133   24.7424 H   0  0  0  0  0  0
  -28.1127  -36.2623   24.6339 H   0  0  0  0  0  0
  -27.2309  -37.1503   25.8868 H   0  0  0  0  0  0
  -20.9225  -29.8839   21.6896 H   0  0  0  0  0  0
  -26.0190  -38.2859   24.1325 H   0  0  0  0  0  0
  -27.1841  -22.0545   21.3409 H   0  0  0  0  0  0
  -26.6741  -17.4656   23.0644 H   0  0  0  0  0  0
  -28.3443  -17.1002   22.7930 H   0  0  0  0  0  0
  -27.1510  -16.7744   21.5141 H   0  0  0  0  0  0
  -23.8220  -21.1739   22.9913 H   0  0  0  0  0  0
  -24.3635  -20.5719   21.4262 H   0  0  0  0  0  0
  -25.0420  -22.0480   22.0750 H   0  0  0  0  0  0
  -25.6536  -20.8644   26.4560 H   0  0  0  0  0  0
  -24.9713  -19.4983   25.6009 H   0  0  0  0  0  0
  -24.3420  -21.1251   25.3126 H   0  0  0  0  0  0
  -27.5705  -22.4179   23.7001 H   0  0  0  0  0  0
  -27.0848  -22.5372   25.3753 H   0  0  0  0  0  0
  -25.9317  -22.9106   24.1092 H   0  0  0  0  0  0
  -30.7208  -25.1047   18.9568 H   0  0  0  0  0  0
  -29.3772  -25.2786   17.8206 H   0  0  0  0  0  0
  -30.2256  -23.7412   17.9687 H   0  0  0  0  0  0
  -29.1182  -21.5401   18.7978 H   0  0  0  0  0  0
  -30.4849  -21.1102   19.7852 H   0  0  0  0  0  0
  -30.5746  -23.2429   20.5965 H   0  0  0  0  0  0
  -29.1402  -22.9933   21.4492 H   0  0  0  0  0  0
  -28.8219  -17.6675   19.3446 H   0  0  0  0  0  0
  -30.1629  -18.7485   19.4388 H   0  0  0  0  0  0
  -31.3367  -17.1614   20.4792 H   0  0  0  0  0  0
  -30.3917  -17.3741   21.9041 H   0  0  0  0  0  0
  -27.5311  -25.1149   21.1040 H   0  0  0  0  0  0
  -29.2009  -25.4238   21.3890 H   0  0  0  0  0  0
  -25.3523  -19.2279   23.2184 H   0  0  0  0  0  0
  -27.1562  -20.1602   24.6623 H   0  0  0  0  0  0
  -27.9660  -23.8209   19.1525 H   0  0  0  0  0  0
  -28.8987  -15.4757   20.8783 H   0  0  0  0  0  0
  1 25  1  0  0  0
  1 30  2  0  0  0
  1 89  1  0  0  0
  2  3  1  0  0  0
  2 25  1  0  0  0
  2 90  1  0  0  0
  2 91  1  0  0  0
  3  4  1  0  0  0
  3 92  1  0  0  0
  3 93  1  0  0  0
  4  5  1  0  0  0
  4 94  1  0  0  0
  4 95  1  0  0  0
  5  6  1  0  0  0
  5 26  1  0  0  0
  5 96  1  0  0  0
  6 25  1  0  0  0
  6 97  1  0  0  0
  6 98  1  0  0  0
  7  8  2  0  0  0
  7 26  1  0  0  0
  7 29  1  0  0  0
  8  9  1  0  0  0
  8 22  1  0  0  0
  9 10  1  0  0  0
  9 27  2  0  0  0
 10 11  2  0  0  0
 10 15  1  0  0  0
 11 12  1  0  0  0
 11 99  1  0  0  0
 12 13  2  0  0  0
 12100  1  0  0  0
 13 14  1  0  0  0
 13 31  1  0  0  0
 14 15  2  0  0  0
 14101  1  0  0  0
 15102  1  0  0  0
 16 17  2  0  0  0
 16 21  1  0  0  0
 16 31  1  0  0  0
 17 18  1  0  0  0
 17103  1  0  0  0
 18 19  2  0  0  0
 18104  1  0  0  0
 19 20  1  0  0  0
 19 24  1  0  0  0
 20 21  2  0  0  0
 20105  1  0  0  0
 21 23  1  0  0  0
 22 28  1  0  0  0
 22 32  2  0  0  0
 26 27  1  0  0  0
 28106  1  0  0  0
 28107  1  0  0  0
 29108  1  0  0  0
 29109  1  0  0  0
 33 34  1  0  0  0
 33 66  1  0  0  0
 33 70  2  0  0  0
 34 36  1  0  0  0
 34 59  1  0  0  0
 34110  1  0  0  0
 35 44  2  0  0  0
 35 45  1  0  0  0
 35 68  1  0  0  0
 36 56  1  0  0  0
 36111  1  0  0  0
 37 39  1  0  0  0
 37 47  1  0  0  0
 37 66  1  0  0  0
 37112  1  0  0  0
 38 43  2  0  0  0
 38 46  1  0  0  0
 38 47  1  0  0  0
 39 64  1  0  0  0
 39 67  2  0  0  0
 40 52  1  0  0  0
 40 53  2  0  0  0
 40 58  1  0  0  0
 41113  1  0  0  0
 41114  1  0  0  0
 41115  1  0  0  0
 41 48  1  0  0  0
 42 43  1  0  0  0
 42 66  1  0  0  0
 42116  1  0  0  0
 42117  1  0  0  0
 43 44  1  0  0  0
 44118  1  0  0  0
 45 46  2  0  0  0
 45119  1  0  0  0
 46120  1  0  0  0
 47121  1  0  0  0
 47122  1  0  0  0
 48 56  1  0  0  0
 48 65  1  0  0  0
 48123  1  0  0  0
 49 50  1  0  0  0
 49 53  1  0  0  0
 49 64  1  0  0  0
 49124  1  0  0  0
 50 51  1  0  0  0
 50125  1  0  0  0
 50126  1  0  0  0
 51 52  1  0  0  0
 51127  1  0  0  0
 51128  1  0  0  0
 52129  1  0  0  0
 52130  1  0  0  0
 53 54  1  0  0  0
 54 55  2  0  0  0
 54131  1  0  0  0
 55 57  1  0  0  0
 55132  1  0  0  0
 56 69  2  0  0  0
 57 58  2  0  0  0
 57133  1  0  0  0
 58134  1  0  0  0
 59 60  1  0  0  0
 59 61  1  0  0  0
 59 62  1  0  0  0
 60135  1  0  0  0
 60136  1  0  0  0
 60137  1  0  0  0
 61138  1  0  0  0
 61139  1  0  0  0
 61140  1  0  0  0
 62141  1  0  0  0
 62142  1  0  0  0
 62143  1  0  0  0
 63 65  1  0  0  0
 63144  1  0  0  0
 63145  1  0  0  0
 63146  1  0  0  0
 64147  1  0  0  0
 65148  1  0  0  0
 68 84  1  0  0  0
 71 72  1  0  0  0
 71 73  2  0  0  0
 71149  1  0  0  0
 72 74  2  0  0  0
 72 85  1  0  0  0
 73 80  1  0  0  0
 73 88  1  0  0  0
 74 75  1  0  0  0
 74 88  1  0  0  0
 75150  1  0  0  0
 75151  1  0  0  0
 75152  1  0  0  0
 76153  1  0  0  0
 76154  1  0  0  0
 76155  1  0  0  0
 76 85  1  0  0  0
 77156  1  0  0  0
 77157  1  0  0  0
 77158  1  0  0  0
 77 86  1  0  0  0
 78 86  1  0  0  0
 78159  1  0  0  0
 78160  1  0  0  0
 78161  1  0  0  0
 79162  1  0  0  0
 79163  1  0  0  0
 79164  1  0  0  0
 79 87  1  0  0  0
 80 81  1  0  0  0
 80165  1  0  0  0
 80166  1  0  0  0
 81 87  1  0  0  0
 81167  1  0  0  0
 81168  1  0  0  0
 82 83  1  0  0  0
 82 88  1  0  0  0
 82169  1  0  0  0
 82170  1  0  0  0
 83 89  1  0  0  0
 83171  1  0  0  0
 83172  1  0  0  0
 84 87  1  0  0  0
 84173  1  0  0  0
 84174  1  0  0  0
 85 86  1  0  0  0
 85175  1  0  0  0
 86176  1  0  0  0
 87177  1  0  0  0
 89178  1  0  0  0
M  ISO  4   1 100  68 101  84 101  89 100
M  END
> <chiral flag>
0

> <version>
0

> <s_m_source_file>
/data/baiqing/PycharmProjects/Reinvent-master-3.2/result/LINK_invent/BTK/process_docking_weight1_custom_sum_contain_oxygen_bond_distance_aromatic_linkinvent_7_9_3/rearranged_h_0096.sdf

> <i_m_source_file_index>
29

> <r_mmod_Potential_Energy-OPLS-2005>
21.3537464141846

> <r_mmod_Stretch_Energy-OPLS-2005>
60.9665985107422

> <r_mmod_Bend_Energy-OPLS-2005>
149.114227294922

> <r_mmod_Torsional_Energy-OPLS-2005>
286.410552978516

> <r_mmod_Improper_Torsional_Energy-OPLS-2005>
5.23623466491699

> <r_mmod_Van_der_Waal_Energy-OPLS-2005>
120.32088470459

> <r_mmod_Electrostatic_Energy-OPLS-2005>
-432.216033935547

> <r_mmod_Solvation_Energy-OPLS-2005>
-193.998489379883

> <b_mmod_Minimization_Converged-OPLS-2005>
0

> <r_mmod_RMS_Derivative-OPLS-2005>
5.87951326370239

$$$$
29
                    3D
 Structure written by MMmdl.
174182  0  0  1  0            999 V2000
  -30.7923  -14.4412   20.6195 C   0  0  0  0  0  0
  -30.3994  -12.3099   19.4407 C   0  0  0  0  0  0
  -29.4801  -12.4995   18.2192 C   0  0  0  0  0  0
  -28.0092  -12.3521   18.6392 C   0  0  0  0  0  0
  -27.6568  -13.2189   19.8771 C   0  0  2  0  0  0
  -28.6992  -13.0509   21.0101 C   0  0  0  0  0  0
  -25.2539  -13.8205   20.5682 C   0  0  0  0  0  0
  -24.1808  -13.0456   20.9153 C   0  0  0  0  0  0
  -24.6385  -11.6926   20.8742 C   0  0  0  0  0  0
  -23.9061  -10.4311   21.0422 C   0  0  0  0  0  0
  -24.3617   -9.4218   21.9194 C   0  0  0  0  0  0
  -23.6283   -8.2253   22.0766 C   0  0  0  0  0  0
  -22.4256   -8.0293   21.3557 C   0  0  0  0  0  0
  -21.9902   -9.0266   20.4653 C   0  0  0  0  0  0
  -22.7236  -10.2143   20.3064 C   0  0  0  0  0  0
  -21.6824   -6.0730   22.5271 C   0  0  0  0  0  0
  -21.4014   -6.5640   23.8210 C   0  0  0  0  0  0
  -21.3672   -5.6789   24.9174 C   0  0  0  0  0  0
  -21.6032   -4.3053   24.7219 C   0  0  0  0  0  0
  -21.8825   -3.8147   23.4338 C   0  0  0  0  0  0
  -21.9198   -4.6961   22.3393 C   0  0  0  0  0  0
  -22.7827  -13.5241   21.1806 C   0  0  0  0  0  0
  -22.1650   -4.2145   21.0956 F   0  0  0  0  0  0
  -21.5643   -3.4538   25.7741 F   0  0  0  0  0  0
  -30.0378  -13.3152   20.4613 N   0  0  0  0  0  0
  -26.2987  -12.9400   20.3397 N   0  0  0  0  0  0
  -25.9318  -11.6546   20.5808 N   0  0  0  0  0  0
  -22.0473  -12.8245   22.0385 N   0  0  0  0  0  0
  -25.4260  -15.1918   20.4090 N   0  0  0  0  0  0
  -31.8417  -14.5998   19.9950 O   0  0  0  0  0  0
  -21.6628   -6.8874   21.4231 O   0  0  0  0  0  0
  -22.3515  -14.5548   20.6656 O   0  0  0  0  0  0
  -24.6200  -31.8664   23.2108 C   0  0  0  0  0  0
  -25.9059  -32.4833   23.8450 C   0  0  1  0  0  0
  -27.2184  -27.4084   20.0846 C   0  0  0  0  0  0
  -25.5855  -33.8610   24.2357 N   0  0  0  0  0  0
  -23.4192  -30.4891   21.5487 C   0  0  2  0  0  0
  -24.8684  -28.9793   20.0860 C   0  0  0  0  0  0
  -22.7480  -29.4611   22.4894 C   0  0  0  0  0  0
  -18.0281  -28.1360   22.8437 C   0  0  0  0  0  0
  -24.1476  -36.7328   23.2645 C   0  0  0  0  0  0
  -25.9521  -30.8236   21.3756 C   0  0  0  0  0  0
  -26.0306  -29.4673   20.6984 C   0  0  0  0  0  0
  -27.2170  -28.6900   20.6934 C   0  0  0  0  0  0
  -26.0616  -26.9821   19.3995 C   0  0  0  0  0  0
  -24.8827  -27.7427   19.4220 C   0  0  0  0  0  0
  -23.6291  -29.8399   20.1554 C   0  0  0  0  0  0
  -25.4095  -36.3110   24.0349 C   0  0  1  0  0  0
  -20.5874  -28.3660   23.1228 C   0  0  2  0  0  0
  -20.6781  -26.9390   22.5387 C   0  0  0  0  0  0
  -19.5771  -26.6362   21.5191 C   0  0  0  0  0  0
  -18.1926  -26.7894   22.1585 C   0  0  0  0  0  0
  -19.1527  -28.8826   23.2822 C   0  0  0  0  0  0
  -18.9479  -30.1428   23.8856 C   0  0  0  0  0  0
  -17.6477  -30.6557   24.0531 C   0  0  0  0  0  0
  -25.9013  -34.9458   23.5176 C   0  0  0  0  0  0
  -16.5359  -29.9068   23.6335 C   0  0  0  0  0  0
  -16.7275  -28.6479   23.0389 C   0  0  0  0  0  0
  -26.4417  -31.6624   25.0808 C   0  0  0  0  0  0
  -25.3625  -31.3711   26.1519 C   0  0  0  0  0  0
  -27.0299  -30.3087   24.6242 C   0  0  0  0  0  0
  -27.5994  -32.4370   25.7544 C   0  0  0  0  0  0
  -27.5575  -37.1812   24.8452 C   0  0  0  0  0  0
  -21.4200  -29.3010   22.3652 N   0  0  0  0  0  0
  -26.4295  -37.3771   23.9390 N   0  0  0  0  0  0
  -24.6811  -31.0727   22.1028 N   0  0  0  0  0  0
  -23.4199  -28.8088   23.2935 O   0  0  0  0  0  0
  -28.2387  -26.4892   20.2869 O   0  0  0  0  0  0
  -26.5579  -34.8892   22.4754 O   0  0  0  0  0  0
  -23.5382  -32.1474   23.7429 O   0  0  0  0  0  0
  -30.0666  -23.9740   20.9740 C   0  0  0  0  0  0
  -27.9112  -22.8102   20.5960 C   0  0  0  0  0  0
  -30.6771  -22.6960   21.6277 C   0  0  0  0  0  0
  -28.3795  -21.5045   21.2738 C   0  0  0  0  0  0
  -28.5652  -24.0373   21.2768 C   0  0  2  0  0  0
  -29.9242  -21.3379   21.3657 C   0  0  2  0  0  0
  -27.4043  -25.9431   22.5486 C   0  0  0  0  0  0
  -32.2773  -18.2425   23.2785 C   0  0  0  0  0  0
  -30.0408  -17.2071   23.8796 C   0  0  0  0  0  0
  -29.7715  -20.4861   23.7155 C   0  0  0  0  0  0
  -31.3544  -16.4801   21.8420 C   0  0  0  0  0  0
  -30.2140  -18.8426   21.8627 C   0  0  0  0  0  0
  -27.7672  -25.3891   21.1440 C   0  0  1  0  0  0
  -30.9273  -17.7117   22.7181 C   0  0  0  0  0  0
  -30.3995  -15.3973   21.4921 N   0  0  0  0  0  0
  -30.3364  -20.2665   22.3526 N   0  3  1  0  0  0
  -31.4435  -12.3720   19.1303 H   0  0  0  0  0  0
  -30.2800  -11.3073   19.8543 H   0  0  0  0  0  0
  -29.7197  -11.7633   17.4493 H   0  0  0  0  0  0
  -29.6440  -13.4820   17.7728 H   0  0  0  0  0  0
  -27.8348  -11.2983   18.8627 H   0  0  0  0  0  0
  -27.3520  -12.5967   17.8048 H   0  0  0  0  0  0
  -27.6903  -14.2573   19.5483 H   0  0  0  0  0  0
  -28.6656  -12.0337   21.4020 H   0  0  0  0  0  0
  -28.4557  -13.7022   21.8496 H   0  0  0  0  0  0
  -25.2763   -9.5674   22.4779 H   0  0  0  0  0  0
  -23.9976   -7.4640   22.7498 H   0  0  0  0  0  0
  -21.0832   -8.8789   19.8963 H   0  0  0  0  0  0
  -22.3697  -10.9683   19.6184 H   0  0  0  0  0  0
  -21.1993   -7.6149   23.9707 H   0  0  0  0  0  0
  -21.1483   -6.0519   25.9068 H   0  0  0  0  0  0
  -22.0596   -2.7606   23.2831 H   0  0  0  0  0  0
  -22.4058  -11.9908   22.4808 H   0  0  0  0  0  0
  -21.1120  -13.1350   22.2626 H   0  0  0  0  0  0
  -24.6624  -15.8508   20.5141 H   0  0  0  0  0  0
  -26.2916  -15.6313   20.1206 H   0  0  0  0  0  0
  -26.7173  -32.5528   23.1266 H   0  0  0  0  0  0
  -25.0057  -33.9812   25.0527 H   0  0  0  0  0  0
  -22.7128  -31.3090   21.4110 H   0  0  0  0  0  0
  -23.3725  -35.9655   23.3304 H   0  0  0  0  0  0
  -24.3516  -36.8954   22.2045 H   0  0  0  0  0  0
  -23.7249  -37.6531   23.6680 H   0  0  0  0  0  0
  -26.0914  -31.6084   20.6275 H   0  0  0  0  0  0
  -26.8280  -30.8553   22.0105 H   0  0  0  0  0  0
  -28.1023  -29.0277   21.2075 H   0  0  0  0  0  0
  -26.0609  -26.0279   18.8885 H   0  0  0  0  0  0
  -23.9970  -27.3745   18.9238 H   0  0  0  0  0  0
  -23.7385  -30.6253   19.4034 H   0  0  0  0  0  0
  -22.7553  -29.2592   19.8520 H   0  0  0  0  0  0
  -25.1261  -36.2011   25.0844 H   0  0  0  0  0  0
  -20.9989  -28.3254   24.1352 H   0  0  0  0  0  0
  -20.5662  -26.2284   23.3589 H   0  0  0  0  0  0
  -21.6625  -26.7429   22.1151 H   0  0  0  0  0  0
  -19.6908  -25.6263   21.1258 H   0  0  0  0  0  0
  -19.6673  -27.3105   20.6656 H   0  0  0  0  0  0
  -17.4203  -26.6647   21.3992 H   0  0  0  0  0  0
  -18.0269  -26.0044   22.8992 H   0  0  0  0  0  0
  -19.7970  -30.7219   24.2215 H   0  0  0  0  0  0
  -17.5062  -31.6234   24.5134 H   0  0  0  0  0  0
  -15.5353  -30.2956   23.7715 H   0  0  0  0  0  0
  -15.8669  -28.0788   22.7150 H   0  0  0  0  0  0
  -24.5797  -30.7090   25.7787 H   0  0  0  0  0  0
  -24.8795  -32.2845   26.5039 H   0  0  0  0  0  0
  -25.7893  -30.8811   27.0278 H   0  0  0  0  0  0
  -26.2829  -29.6693   24.1516 H   0  0  0  0  0  0
  -27.4275  -29.7466   25.4686 H   0  0  0  0  0  0
  -27.8556  -30.4395   23.9224 H   0  0  0  0  0  0
  -27.2645  -33.3682   26.2154 H   0  0  0  0  0  0
  -28.3750  -32.6942   25.0316 H   0  0  0  0  0  0
  -28.0716  -31.8512   26.5449 H   0  0  0  0  0  0
  -28.2584  -38.0124   24.7496 H   0  0  0  0  0  0
  -28.1099  -36.2637   24.6304 H   0  0  0  0  0  0
  -27.2262  -37.1443   25.8849 H   0  0  0  0  0  0
  -20.9423  -29.8864   21.6931 H   0  0  0  0  0  0
  -26.0196  -38.2843   24.1430 H   0  0  0  0  0  0
  -30.2344  -23.9716   19.8953 H   0  0  0  0  0  0
  -30.5681  -24.8639   21.3607 H   0  0  0  0  0  0
  -26.8227  -22.8551   20.6732 H   0  0  0  0  0  0
  -28.1433  -22.7982   19.5279 H   0  0  0  0  0  0
  -30.7513  -22.8983   22.6908 H   0  0  0  0  0  0
  -31.7103  -22.5971   21.2968 H   0  0  0  0  0  0
  -27.9583  -20.6533   20.7408 H   0  0  0  0  0  0
  -27.9217  -21.4836   22.2630 H   0  0  0  0  0  0
  -28.5130  -23.8054   22.3418 H   0  0  0  0  0  0
  -30.2497  -21.0214   20.3763 H   0  0  0  0  0  0
  -27.0503  -25.1576   23.2170 H   0  0  0  0  0  0
  -26.5817  -26.6560   22.5024 H   0  0  0  0  0  0
  -28.2519  -26.4387   23.0229 H   0  0  0  0  0  0
  -32.8187  -17.4673   23.8202 H   0  0  0  0  0  0
  -32.1807  -19.0583   23.9856 H   0  0  0  0  0  0
  -32.9349  -18.5861   22.4770 H   0  0  0  0  0  0
  -30.5155  -16.3811   24.4128 H   0  0  0  0  0  0
  -29.0680  -16.8632   23.5249 H   0  0  0  0  0  0
  -29.8463  -17.9691   24.6280 H   0  0  0  0  0  0
  -29.6694  -21.5423   23.9609 H   0  0  0  0  0  0
  -30.4074  -20.0839   24.4978 H   0  0  0  0  0  0
  -28.7855  -20.0322   23.8280 H   0  0  0  0  0  0
  -32.1527  -15.9483   22.3646 H   0  0  0  0  0  0
  -31.8230  -16.8649   20.9351 H   0  0  0  0  0  0
  -29.1612  -18.5966   21.7282 H   0  0  0  0  0  0
  -30.6408  -18.8236   20.8596 H   0  0  0  0  0  0
  -26.8111  -25.0493   20.7520 H   0  0  0  0  0  0
  -29.5530  -15.2715   22.0229 H   0  0  0  0  0  0
  -31.3321  -20.4008   22.4502 H   0  0  0  0  0  0
  1 25  1  0  0  0
  1 30  2  0  0  0
  1 85  1  0  0  0
  2  3  1  0  0  0
  2 25  1  0  0  0
  2 87  1  0  0  0
  2 88  1  0  0  0
  3  4  1  0  0  0
  3 89  1  0  0  0
  3 90  1  0  0  0
  4  5  1  0  0  0
  4 91  1  0  0  0
  4 92  1  0  0  0
  5  6  1  0  0  0
  5 26  1  0  0  0
  5 93  1  0  0  0
  6 25  1  0  0  0
  6 94  1  0  0  0
  6 95  1  0  0  0
  7  8  2  0  0  0
  7 26  1  0  0  0
  7 29  1  0  0  0
  8  9  1  0  0  0
  8 22  1  0  0  0
  9 10  1  0  0  0
  9 27  2  0  0  0
 10 11  2  0  0  0
 10 15  1  0  0  0
 11 12  1  0  0  0
 11 96  1  0  0  0
 12 13  2  0  0  0
 12 97  1  0  0  0
 13 14  1  0  0  0
 13 31  1  0  0  0
 14 15  2  0  0  0
 14 98  1  0  0  0
 15 99  1  0  0  0
 16 17  2  0  0  0
 16 21  1  0  0  0
 16 31  1  0  0  0
 17 18  1  0  0  0
 17100  1  0  0  0
 18 19  2  0  0  0
 18101  1  0  0  0
 19 20  1  0  0  0
 19 24  1  0  0  0
 20 21  2  0  0  0
 20102  1  0  0  0
 21 23  1  0  0  0
 22 28  1  0  0  0
 22 32  2  0  0  0
 26 27  1  0  0  0
 28103  1  0  0  0
 28104  1  0  0  0
 29105  1  0  0  0
 29106  1  0  0  0
 33 34  1  0  0  0
 33 66  1  0  0  0
 33 70  2  0  0  0
 34 36  1  0  0  0
 34 59  1  0  0  0
 34107  1  0  0  0
 35 44  2  0  0  0
 35 45  1  0  0  0
 35 68  1  0  0  0
 36 56  1  0  0  0
 36108  1  0  0  0
 37 39  1  0  0  0
 37 47  1  0  0  0
 37 66  1  0  0  0
 37109  1  0  0  0
 38 43  2  0  0  0
 38 46  1  0  0  0
 38 47  1  0  0  0
 39 64  1  0  0  0
 39 67  2  0  0  0
 40 52  1  0  0  0
 40 53  2  0  0  0
 40 58  1  0  0  0
 41110  1  0  0  0
 41111  1  0  0  0
 41112  1  0  0  0
 41 48  1  0  0  0
 42 43  1  0  0  0
 42 66  1  0  0  0
 42113  1  0  0  0
 42114  1  0  0  0
 43 44  1  0  0  0
 44115  1  0  0  0
 45 46  2  0  0  0
 45116  1  0  0  0
 46117  1  0  0  0
 47118  1  0  0  0
 47119  1  0  0  0
 48 56  1  0  0  0
 48 65  1  0  0  0
 48120  1  0  0  0
 49 50  1  0  0  0
 49 53  1  0  0  0
 49 64  1  0  0  0
 49121  1  0  0  0
 50 51  1  0  0  0
 50122  1  0  0  0
 50123  1  0  0  0
 51 52  1  0  0  0
 51124  1  0  0  0
 51125  1  0  0  0
 52126  1  0  0  0
 52127  1  0  0  0
 53 54  1  0  0  0
 54 55  2  0  0  0
 54128  1  0  0  0
 55 57  1  0  0  0
 55129  1  0  0  0
 56 69  2  0  0  0
 57 58  2  0  0  0
 57130  1  0  0  0
 58131  1  0  0  0
 59 60  1  0  0  0
 59 61  1  0  0  0
 59 62  1  0  0  0
 60132  1  0  0  0
 60133  1  0  0  0
 60134  1  0  0  0
 61135  1  0  0  0
 61136  1  0  0  0
 61137  1  0  0  0
 62138  1  0  0  0
 62139  1  0  0  0
 62140  1  0  0  0
 63 65  1  0  0  0
 63141  1  0  0  0
 63142  1  0  0  0
 63143  1  0  0  0
 64144  1  0  0  0
 65145  1  0  0  0
 68 83  1  0  0  0
 71 73  1  0  0  0
 71146  1  0  0  0
 71147  1  0  0  0
 71 75  1  0  0  0
 72 74  1  0  0  0
 72 75  1  0  0  0
 72148  1  0  0  0
 72149  1  0  0  0
 73150  1  0  0  0
 73151  1  0  0  0
 73 76  1  0  0  0
 74 76  1  0  0  0
 74152  1  0  0  0
 74153  1  0  0  0
 75 83  1  0  0  0
 75154  1  0  0  0
 76 86  1  0  0  0
 76155  1  0  0  0
 77156  1  0  0  0
 77157  1  0  0  0
 77158  1  0  0  0
 77 83  1  0  0  0
 78159  1  0  0  0
 78160  1  0  0  0
 78161  1  0  0  0
 78 84  1  0  0  0
 79 84  1  0  0  0
 79162  1  0  0  0
 79163  1  0  0  0
 79164  1  0  0  0
 80165  1  0  0  0
 80166  1  0  0  0
 80167  1  0  0  0
 80 86  1  0  0  0
 81 84  1  0  0  0
 81 85  1  0  0  0
 81168  1  0  0  0
 81169  1  0  0  0
 82 84  1  0  0  0
 82 86  1  0  0  0
 82170  1  0  0  0
 82171  1  0  0  0
 83172  1  0  0  0
 85173  1  0  0  0
 86174  1  0  0  0
M  CHG  1  86   1
M  ISO  4   1 100  68 101  83 101  85 100
M  END
> <chiral flag>
0

> <version>
0

> <s_m_source_file>
/data/baiqing/PycharmProjects/Reinvent-master-3.2/result/LINK_invent/BTK/process_docking_weight1_custom_sum_contain_oxygen_bond_distance_aromatic_linkinvent_7_9_3/rearranged_h_0096.sdf

> <i_m_source_file_index>
30

> <r_mmod_Potential_Energy-OPLS-2005>
39.959716796875

> <r_mmod_Stretch_Energy-OPLS-2005>
59.9416160583496

> <r_mmod_Bend_Energy-OPLS-2005>
163.433197021484

> <r_mmod_Torsional_Energy-OPLS-2005>
317.266754150391

> <r_mmod_Improper_Torsional_Energy-OPLS-2005>
2.79806208610535

> <r_mmod_Van_der_Waal_Energy-OPLS-2005>
167.488311767578

> <r_mmod_Electrostatic_Energy-OPLS-2005>
-280.504669189453

> <r_mmod_Solvation_Energy-OPLS-2005>
-423.745819091797

> <b_mmod_Minimization_Converged-OPLS-2005>
0

> <r_mmod_RMS_Derivative-OPLS-2005>
5.36390829086304

$$$$
30
                    3D
 Structure written by MMmdl.
169177  0  0  1  0            999 V2000
  -30.6206  -14.7645   20.4364 C   0  0  0  0  0  0
  -30.4275  -12.4629   19.4910 C   0  0  0  0  0  0
  -29.5080  -12.5277   18.2502 C   0  0  0  0  0  0
  -28.0439  -12.3286   18.6697 C   0  0  0  0  0  0
  -27.6477  -13.2351   19.8652 C   0  0  2  0  0  0
  -28.6910  -13.1899   21.0099 C   0  0  0  0  0  0
  -25.2532  -13.8204   20.5685 C   0  0  0  0  0  0
  -24.1816  -13.0463   20.9225 C   0  0  0  0  0  0
  -24.6413  -11.6944   20.8785 C   0  0  0  0  0  0
  -23.9063  -10.4321   21.0427 C   0  0  0  0  0  0
  -24.3618   -9.4234   21.9196 C   0  0  0  0  0  0
  -23.6307   -8.2270   22.0767 C   0  0  0  0  0  0
  -22.4284   -8.0308   21.3561 C   0  0  0  0  0  0
  -21.9922   -9.0273   20.4650 C   0  0  0  0  0  0
  -22.7246  -10.2160   20.3060 C   0  0  0  0  0  0
  -21.6869   -6.0742   22.5283 C   0  0  0  0  0  0
  -21.4020   -6.5645   23.8212 C   0  0  0  0  0  0
  -21.3665   -5.6793   24.9173 C   0  0  0  0  0  0
  -21.6058   -4.3057   24.7228 C   0  0  0  0  0  0
  -21.8818   -3.8146   23.4354 C   0  0  0  0  0  0
  -21.9193   -4.6964   22.3405 C   0  0  0  0  0  0
  -22.7834  -13.5258   21.1873 C   0  0  0  0  0  0
  -22.1665   -4.2154   21.0985 F   0  0  0  0  0  0
  -21.5639   -3.4541   25.7739 F   0  0  0  0  0  0
  -30.0028  -13.5273   20.4381 N   0  0  0  0  0  0
  -26.2973  -12.9405   20.3358 N   0  0  0  0  0  0
  -25.9341  -11.6557   20.5827 N   0  0  0  0  0  0
  -22.0478  -12.8223   22.0407 N   0  0  0  0  0  0
  -25.4220  -15.1908   20.4004 N   0  0  0  0  0  0
  -31.7524  -14.8608   19.9651 O   0  0  0  0  0  0
  -21.6670   -6.8893   21.4238 O   0  0  0  0  0  0
  -22.3526  -14.5561   20.6721 O   0  0  0  0  0  0
  -24.6302  -31.8563   23.2008 C   0  0  0  0  0  0
  -25.9136  -32.4752   23.8345 C   0  0  1  0  0  0
  -27.2204  -27.2792   20.1154 C   0  0  0  0  0  0
  -25.5939  -33.8565   24.2257 N   0  0  0  0  0  0
  -23.4257  -30.4787   21.5449 C   0  0  2  0  0  0
  -24.8720  -28.9249   20.1114 C   0  0  0  0  0  0
  -22.7490  -29.4591   22.4932 C   0  0  0  0  0  0
  -18.0292  -28.1377   22.8497 C   0  0  0  0  0  0
  -24.1482  -36.7272   23.2641 C   0  0  0  0  0  0
  -25.9717  -30.7694   21.3836 C   0  0  0  0  0  0
  -26.0437  -29.3952   20.7191 C   0  0  0  0  0  0
  -27.2230  -28.5848   20.7092 C   0  0  0  0  0  0
  -26.0295  -26.8702   19.4813 C   0  0  0  0  0  0
  -24.8690  -27.6697   19.4822 C   0  0  0  0  0  0
  -23.6433  -29.8128   20.1605 C   0  0  0  0  0  0
  -25.4107  -36.3060   24.0323 C   0  0  1  0  0  0
  -20.5896  -28.3687   23.1277 C   0  0  2  0  0  0
  -20.6787  -26.9405   22.5412 C   0  0  0  0  0  0
  -19.5759  -26.6379   21.5221 C   0  0  0  0  0  0
  -18.1937  -26.7924   22.1623 C   0  0  0  0  0  0
  -19.1545  -28.8853   23.2891 C   0  0  0  0  0  0
  -18.9465  -30.1452   23.8904 C   0  0  0  0  0  0
  -17.6455  -30.6589   24.0561 C   0  0  0  0  0  0
  -25.9053  -34.9436   23.5091 C   0  0  0  0  0  0
  -16.5357  -29.9087   23.6336 C   0  0  0  0  0  0
  -16.7279  -28.6489   23.0371 C   0  0  0  0  0  0
  -26.4523  -31.6599   25.0748 C   0  0  0  0  0  0
  -25.3747  -31.3761   26.1473 C   0  0  0  0  0  0
  -27.0388  -30.3003   24.6272 C   0  0  0  0  0  0
  -27.6029  -32.4401   25.7545 C   0  0  0  0  0  0
  -27.5576  -37.1788   24.8455 C   0  0  0  0  0  0
  -21.4199  -29.3039   22.3659 N   0  0  0  0  0  0
  -26.4277  -37.3775   23.9425 N   0  0  0  0  0  0
  -24.6934  -31.0520   22.0980 N   0  0  0  0  0  0
  -23.4194  -28.8129   23.3019 O   0  0  0  0  0  0
  -28.3252  -26.4031   20.1077 O   0  0  0  0  0  0
  -26.5613  -34.8912   22.4654 O   0  0  0  0  0  0
  -23.5444  -32.1386   23.7291 O   0  0  0  0  0  0
  -31.4193  -20.7226   20.4987 C   0  0  0  0  0  0
  -32.4611  -19.9077   20.8080 C   0  0  0  0  0  0
  -31.9304  -18.5823   20.8939 C   0  0  0  0  0  0
  -30.6027  -18.5851   20.4981 C   0  0  0  0  0  0
  -32.7774  -17.3911   21.2641 C   0  0  0  0  0  0
  -34.0754  -21.8519   21.2124 C   0  0  0  0  0  0
  -34.8038  -19.8848   19.8297 C   0  0  0  0  0  0
  -27.8640  -23.5738   18.4447 C   0  0  0  0  0  0
  -29.7371  -17.2963   20.1671 C   0  0  0  0  0  0
  -28.7521  -22.2770   20.5574 C   0  0  0  0  0  0
  -29.0281  -20.7952   19.9033 C   0  0  0  0  0  0
  -28.1384  -24.9859   20.5646 C   0  0  0  0  0  0
  -33.9145  -20.3360   21.0012 C   0  0  0  0  0  0
  -28.6794  -23.6939   19.7448 C   0  0  2  0  0  0
  -30.2548  -19.9986   20.3306 N   0  0  0  0  0  0
  -29.8903  -15.8913   20.7947 N   0  0  0  0  0  0
  -31.4711  -12.5675   19.1938 H   0  0  0  0  0  0
  -30.3593  -11.4830   19.9657 H   0  0  0  0  0  0
  -29.7960  -11.7712   17.5180 H   0  0  0  0  0  0
  -29.6141  -13.4942   17.7554 H   0  0  0  0  0  0
  -27.9256  -11.2798   18.9423 H   0  0  0  0  0  0
  -27.3743  -12.5005   17.8279 H   0  0  0  0  0  0
  -27.6397  -14.2535   19.4762 H   0  0  0  0  0  0
  -28.7207  -12.2067   21.4802 H   0  0  0  0  0  0
  -28.4191  -13.8932   21.8002 H   0  0  0  0  0  0
  -25.2756   -9.5753   22.4781 H   0  0  0  0  0  0
  -24.0060   -7.4659   22.7469 H   0  0  0  0  0  0
  -21.0885   -8.8768   19.8933 H   0  0  0  0  0  0
  -22.3691  -10.9702   19.6190 H   0  0  0  0  0  0
  -21.2015   -7.6152   23.9701 H   0  0  0  0  0  0
  -21.1490   -6.0542   25.9078 H   0  0  0  0  0  0
  -22.0586   -2.7611   23.2847 H   0  0  0  0  0  0
  -22.4091  -11.9900   22.4828 H   0  0  0  0  0  0
  -21.1089  -13.1215   22.2573 H   0  0  0  0  0  0
  -24.6607  -15.8493   20.5213 H   0  0  0  0  0  0
  -26.2581  -15.6155   20.0178 H   0  0  0  0  0  0
  -26.7193  -32.5403   23.1069 H   0  0  0  0  0  0
  -25.0147  -33.9711   25.0441 H   0  0  0  0  0  0
  -22.7211  -31.3007   21.4001 H   0  0  0  0  0  0
  -23.3765  -35.9580   23.3276 H   0  0  0  0  0  0
  -24.3557  -36.8933   22.2062 H   0  0  0  0  0  0
  -23.7212  -37.6443   23.6697 H   0  0  0  0  0  0
  -26.1217  -31.5364   20.6219 H   0  0  0  0  0  0
  -26.8406  -30.8032   22.0292 H   0  0  0  0  0  0
  -28.1226  -28.9408   21.1912 H   0  0  0  0  0  0
  -25.9949  -25.9140   18.9778 H   0  0  0  0  0  0
  -23.9750  -27.3104   18.9906 H   0  0  0  0  0  0
  -23.7661  -30.5914   19.4067 H   0  0  0  0  0  0
  -22.7616  -29.2486   19.8535 H   0  0  0  0  0  0
  -25.1296  -36.1894   25.0810 H   0  0  0  0  0  0
  -20.9991  -28.3271   24.1399 H   0  0  0  0  0  0
  -20.5714  -26.2295   23.3617 H   0  0  0  0  0  0
  -21.6655  -26.7448   22.1193 H   0  0  0  0  0  0
  -19.6924  -25.6288   21.1264 H   0  0  0  0  0  0
  -19.6699  -27.3186   20.6751 H   0  0  0  0  0  0
  -17.4213  -26.6696   21.4014 H   0  0  0  0  0  0
  -18.0313  -26.0052   22.9000 H   0  0  0  0  0  0
  -19.7936  -30.7271   24.2280 H   0  0  0  0  0  0
  -17.5011  -31.6267   24.5155 H   0  0  0  0  0  0
  -15.5352  -30.2986   23.7639 H   0  0  0  0  0  0
  -15.8685  -28.0797   22.7111 H   0  0  0  0  0  0
  -24.5859  -30.7189   25.7798 H   0  0  0  0  0  0
  -24.9031  -32.2952   26.4964 H   0  0  0  0  0  0
  -25.8058  -30.8872   27.0215 H   0  0  0  0  0  0
  -26.2976  -29.6728   24.1297 H   0  0  0  0  0  0
  -27.4042  -29.7305   25.4828 H   0  0  0  0  0  0
  -27.8878  -30.4267   23.9544 H   0  0  0  0  0  0
  -27.2544  -33.3669   26.2130 H   0  0  0  0  0  0
  -28.3833  -32.7045   25.0394 H   0  0  0  0  0  0
  -28.0711  -31.8561   26.5477 H   0  0  0  0  0  0
  -28.2564  -38.0118   24.7545 H   0  0  0  0  0  0
  -28.1108  -36.2651   24.6231 H   0  0  0  0  0  0
  -27.2300  -37.1368   25.8857 H   0  0  0  0  0  0
  -20.9372  -29.8761   21.6864 H   0  0  0  0  0  0
  -26.0147  -38.2833   24.1458 H   0  0  0  0  0  0
  -31.4151  -21.7942   20.3442 H   0  0  0  0  0  0
  -33.1466  -16.9025   20.3636 H   0  0  0  0  0  0
  -32.2248  -16.6827   21.8779 H   0  0  0  0  0  0
  -33.6500  -17.6822   21.8466 H   0  0  0  0  0  0
  -33.4982  -22.1938   22.0703 H   0  0  0  0  0  0
  -33.7523  -22.4190   20.3383 H   0  0  0  0  0  0
  -35.1202  -22.1093   21.3977 H   0  0  0  0  0  0
  -34.7309  -18.8125   19.6516 H   0  0  0  0  0  0
  -35.8516  -20.1051   20.0397 H   0  0  0  0  0  0
  -34.5431  -20.3934   18.9003 H   0  0  0  0  0  0
  -28.2798  -22.8228   17.7735 H   0  0  0  0  0  0
  -27.8660  -24.5203   17.8999 H   0  0  0  0  0  0
  -26.8220  -23.3191   18.6385 H   0  0  0  0  0  0
  -29.8109  -17.1344   19.0919 H   0  0  0  0  0  0
  -28.6901  -17.5584   20.3237 H   0  0  0  0  0  0
  -29.4530  -22.4153   21.3804 H   0  0  0  0  0  0
  -27.7938  -22.1917   21.0717 H   0  0  0  0  0  0
  -29.0764  -20.8924   18.8202 H   0  0  0  0  0  0
  -28.1538  -20.1713   20.0868 H   0  0  0  0  0  0
  -28.6369  -24.9568   21.5325 H   0  0  0  0  0  0
  -27.0898  -24.8138   20.8129 H   0  0  0  0  0  0
  -34.2781  -19.8499   21.9066 H   0  0  0  0  0  0
  -29.7035  -23.9257   19.4447 H   0  0  0  0  0  0
  -29.0745  -15.6375   21.3308 H   0  0  0  0  0  0
  1 25  1  0  0  0
  1 30  2  0  0  0
  1 86  1  0  0  0
  2  3  1  0  0  0
  2 25  1  0  0  0
  2 87  1  0  0  0
  2 88  1  0  0  0
  3  4  1  0  0  0
  3 89  1  0  0  0
  3 90  1  0  0  0
  4  5  1  0  0  0
  4 91  1  0  0  0
  4 92  1  0  0  0
  5  6  1  0  0  0
  5 26  1  0  0  0
  5 93  1  0  0  0
  6 25  1  0  0  0
  6 94  1  0  0  0
  6 95  1  0  0  0
  7  8  2  0  0  0
  7 26  1  0  0  0
  7 29  1  0  0  0
  8  9  1  0  0  0
  8 22  1  0  0  0
  9 10  1  0  0  0
  9 27  2  0  0  0
 10 11  2  0  0  0
 10 15  1  0  0  0
 11 12  1  0  0  0
 11 96  1  0  0  0
 12 13  2  0  0  0
 12 97  1  0  0  0
 13 14  1  0  0  0
 13 31  1  0  0  0
 14 15  2  0  0  0
 14 98  1  0  0  0
 15 99  1  0  0  0
 16 17  2  0  0  0
 16 21  1  0  0  0
 16 31  1  0  0  0
 17 18  1  0  0  0
 17100  1  0  0  0
 18 19  2  0  0  0
 18101  1  0  0  0
 19 20  1  0  0  0
 19 24  1  0  0  0
 20 21  2  0  0  0
 20102  1  0  0  0
 21 23  1  0  0  0
 22 28  1  0  0  0
 22 32  2  0  0  0
 26 27  1  0  0  0
 28103  1  0  0  0
 28104  1  0  0  0
 29105  1  0  0  0
 29106  1  0  0  0
 33 34  1  0  0  0
 33 66  1  0  0  0
 33 70  2  0  0  0
 34 36  1  0  0  0
 34 59  1  0  0  0
 34107  1  0  0  0
 35 44  2  0  0  0
 35 45  1  0  0  0
 35 68  1  0  0  0
 36 56  1  0  0  0
 36108  1  0  0  0
 37 39  1  0  0  0
 37 47  1  0  0  0
 37 66  1  0  0  0
 37109  1  0  0  0
 38 43  2  0  0  0
 38 46  1  0  0  0
 38 47  1  0  0  0
 39 64  1  0  0  0
 39 67  2  0  0  0
 40 52  1  0  0  0
 40 53  2  0  0  0
 40 58  1  0  0  0
 41110  1  0  0  0
 41111  1  0  0  0
 41112  1  0  0  0
 41 48  1  0  0  0
 42 43  1  0  0  0
 42 66  1  0  0  0
 42113  1  0  0  0
 42114  1  0  0  0
 43 44  1  0  0  0
 44115  1  0  0  0
 45 46  2  0  0  0
 45116  1  0  0  0
 46117  1  0  0  0
 47118  1  0  0  0
 47119  1  0  0  0
 48 56  1  0  0  0
 48 65  1  0  0  0
 48120  1  0  0  0
 49 50  1  0  0  0
 49 53  1  0  0  0
 49 64  1  0  0  0
 49121  1  0  0  0
 50 51  1  0  0  0
 50122  1  0  0  0
 50123  1  0  0  0
 51 52  1  0  0  0
 51124  1  0  0  0
 51125  1  0  0  0
 52126  1  0  0  0
 52127  1  0  0  0
 53 54  1  0  0  0
 54 55  2  0  0  0
 54128  1  0  0  0
 55 57  1  0  0  0
 55129  1  0  0  0
 56 69  2  0  0  0
 57 58  2  0  0  0
 57130  1  0  0  0
 58131  1  0  0  0
 59 60  1  0  0  0
 59 61  1  0  0  0
 59 62  1  0  0  0
 60132  1  0  0  0
 60133  1  0  0  0
 60134  1  0  0  0
 61135  1  0  0  0
 61136  1  0  0  0
 61137  1  0  0  0
 62138  1  0  0  0
 62139  1  0  0  0
 62140  1  0  0  0
 63 65  1  0  0  0
 63141  1  0  0  0
 63142  1  0  0  0
 63143  1  0  0  0
 64144  1  0  0  0
 65145  1  0  0  0
 68 82  1  0  0  0
 71 72  2  0  0  0
 71 85  1  0  0  0
 71146  1  0  0  0
 72 73  1  0  0  0
 72 83  1  0  0  0
 73 74  2  0  0  0
 73 75  1  0  0  0
 74 79  1  0  0  0
 74 85  1  0  0  0
 75147  1  0  0  0
 75148  1  0  0  0
 75149  1  0  0  0
 76150  1  0  0  0
 76151  1  0  0  0
 76152  1  0  0  0
 76 83  1  0  0  0
 77 83  1  0  0  0
 77153  1  0  0  0
 77154  1  0  0  0
 77155  1  0  0  0
 78156  1  0  0  0
 78157  1  0  0  0
 78158  1  0  0  0
 78 84  1  0  0  0
 79 86  1  0  0  0
 79159  1  0  0  0
 79160  1  0  0  0
 80 81  1  0  0  0
 80 84  1  0  0  0
 80161  1  0  0  0
 80162  1  0  0  0
 81 85  1  0  0  0
 81163  1  0  0  0
 81164  1  0  0  0
 82 84  1  0  0  0
 82165  1  0  0  0
 82166  1  0  0  0
 83167  1  0  0  0
 84168  1  0  0  0
 86169  1  0  0  0
M  ISO  4   1 100  68 101  82 101  86 100
M  END
> <chiral flag>
0

> <version>
0

> <s_m_source_file>
/data/baiqing/PycharmProjects/Reinvent-master-3.2/result/LINK_invent/BTK/process_docking_weight1_custom_sum_contain_oxygen_bond_distance_aromatic_linkinvent_7_9_3/rearranged_h_0096.sdf

> <i_m_source_file_index>
31

> <r_mmod_Potential_Energy-OPLS-2005>
181.089096069336

> <r_mmod_Stretch_Energy-OPLS-2005>
146.246673583984

> <r_mmod_Bend_Energy-OPLS-2005>
222.023178100586

> <r_mmod_Torsional_Energy-OPLS-2005>
262.380096435547

> <r_mmod_Improper_Torsional_Energy-OPLS-2005>
7.2469220161438

> <r_mmod_Van_der_Waal_Energy-OPLS-2005>
113.140830993652

> <r_mmod_Electrostatic_Energy-OPLS-2005>
-439.761840820312

> <r_mmod_Solvation_Energy-OPLS-2005>
-214.507797241211

> <b_mmod_Minimization_Converged-OPLS-2005>
0

> <r_mmod_RMS_Derivative-OPLS-2005>
3.6722424030304

$$$$
31
                    3D
 Structure written by MMmdl.
153161  0  0  1  0            999 V2000
  -30.6156  -14.7033   20.4673 C   0  0  0  0  0  0
  -30.4234  -12.4307   19.4626 C   0  0  0  0  0  0
  -29.5001  -12.5039   18.2268 C   0  0  0  0  0  0
  -28.0248  -12.3346   18.6406 C   0  0  0  0  0  0
  -27.6372  -13.2285   19.8494 C   0  0  2  0  0  0
  -28.6820  -13.1416   20.9823 C   0  0  0  0  0  0
  -25.2478  -13.8197   20.5698 C   0  0  0  0  0  0
  -24.1774  -13.0446   20.9216 C   0  0  0  0  0  0
  -24.6365  -11.6919   20.8748 C   0  0  0  0  0  0
  -23.9043  -10.4297   21.0399 C   0  0  0  0  0  0
  -24.3602   -9.4212   21.9172 C   0  0  0  0  0  0
  -23.6284   -8.2242   22.0748 C   0  0  0  0  0  0
  -22.4263   -8.0274   21.3539 C   0  0  0  0  0  0
  -21.9889   -9.0245   20.4638 C   0  0  0  0  0  0
  -22.7215  -10.2131   20.3047 C   0  0  0  0  0  0
  -21.6852   -6.0718   22.5273 C   0  0  0  0  0  0
  -21.4014   -6.5624   23.8206 C   0  0  0  0  0  0
  -21.3666   -5.6784   24.9172 C   0  0  0  0  0  0
  -21.6042   -4.3045   24.7226 C   0  0  0  0  0  0
  -21.8820   -3.8131   23.4350 C   0  0  0  0  0  0
  -21.9193   -4.6945   22.3401 C   0  0  0  0  0  0
  -22.7793  -13.5221   21.1879 C   0  0  0  0  0  0
  -22.1658   -4.2132   21.0980 F   0  0  0  0  0  0
  -21.5635   -3.4530   25.7741 F   0  0  0  0  0  0
  -29.9827  -13.4859   20.3993 N   0  0  0  0  0  0
  -26.2895  -12.9398   20.3275 N   0  0  0  0  0  0
  -25.9292  -11.6537   20.5746 N   0  0  0  0  0  0
  -22.0450  -12.8205   22.0446 N   0  0  0  0  0  0
  -25.4161  -15.1929   20.4107 N   0  0  0  0  0  0
  -31.8086  -14.7958   20.1676 O   0  0  0  0  0  0
  -21.6634   -6.8864   21.4235 O   0  0  0  0  0  0
  -22.3461  -14.5525   20.6731 O   0  0  0  0  0  0
  -24.6288  -31.8564   23.1947 C   0  0  0  0  0  0
  -25.9113  -32.4764   23.8317 C   0  0  1  0  0  0
  -27.2255  -27.2956   20.1292 C   0  0  0  0  0  0
  -25.5926  -33.8566   24.2254 N   0  0  0  0  0  0
  -23.4247  -30.4762   21.5382 C   0  0  2  0  0  0
  -24.8710  -28.9171   20.1156 C   0  0  0  0  0  0
  -22.7487  -29.4602   22.4903 C   0  0  0  0  0  0
  -18.0294  -28.1391   22.8488 C   0  0  0  0  0  0
  -24.1486  -36.7291   23.2636 C   0  0  0  0  0  0
  -25.9640  -30.7828   21.3633 C   0  0  0  0  0  0
  -26.0398  -29.4026   20.7158 C   0  0  0  0  0  0
  -27.2236  -28.6047   20.7062 C   0  0  0  0  0  0
  -26.0383  -26.8575   19.5112 C   0  0  0  0  0  0
  -24.8713  -27.6512   19.5048 C   0  0  0  0  0  0
  -23.6413  -29.8035   20.1568 C   0  0  0  0  0  0
  -25.4107  -36.3071   24.0323 C   0  0  1  0  0  0
  -20.5893  -28.3692   23.1276 C   0  0  2  0  0  0
  -20.6778  -26.9411   22.5403 C   0  0  0  0  0  0
  -19.5755  -26.6391   21.5203 C   0  0  0  0  0  0
  -18.1935  -26.7938   22.1620 C   0  0  0  0  0  0
  -19.1546  -28.8859   23.2884 C   0  0  0  0  0  0
  -18.9470  -30.1462   23.8900 C   0  0  0  0  0  0
  -17.6468  -30.6588   24.0565 C   0  0  0  0  0  0
  -25.9050  -34.9445   23.5082 C   0  0  0  0  0  0
  -16.5359  -29.9086   23.6325 C   0  0  0  0  0  0
  -16.7280  -28.6504   23.0346 C   0  0  0  0  0  0
  -26.4483  -31.6574   25.0694 C   0  0  0  0  0  0
  -25.3716  -31.3711   26.1422 C   0  0  0  0  0  0
  -27.0314  -30.3003   24.6128 C   0  0  0  0  0  0
  -27.6057  -32.4278   25.7479 C   0  0  0  0  0  0
  -27.5568  -37.1803   24.8470 C   0  0  0  0  0  0
  -21.4192  -29.3048   22.3671 N   0  0  0  0  0  0
  -26.4280  -37.3773   23.9411 N   0  0  0  0  0  0
  -24.6919  -31.0565   22.0899 N   0  0  0  0  0  0
  -23.4205  -28.8140   23.2988 O   0  0  0  0  0  0
  -28.3475  -26.4502   20.1193 O   0  0  0  0  0  0
  -26.5619  -34.8919   22.4645 O   0  0  0  0  0  0
  -23.5443  -32.1347   23.7272 O   0  0  0  0  0  0
  -29.8416  -19.9218   20.8527 C   0  0  0  0  0  0
  -28.2725  -18.5614   19.8527 C   0  0  0  0  0  0
  -29.4861  -18.5410   20.4969 C   0  0  0  0  0  0
  -28.9292  -20.9382   20.5366 C   0  0  0  0  0  0
  -27.3701  -25.1574   22.0278 C   0  0  0  0  0  0
  -30.3696  -17.2664   20.7864 C   0  0  0  0  0  0
  -28.9364  -22.4478   20.9834 C   0  0  0  0  0  0
  -28.4070  -23.7059   20.1138 C   0  0  0  0  0  0
  -28.3712  -25.1462   20.8549 C   0  0  2  0  0  0
  -29.8562  -15.8386   20.6798 N   0  0  0  0  0  0
  -27.5759  -20.1830   19.7283 S   0  0  0  0  0  0
  -31.4658  -12.5496   19.1611 H   0  0  0  0  0  0
  -30.3603  -11.4512   19.9389 H   0  0  0  0  0  0
  -29.7766  -11.7379   17.5013 H   0  0  0  0  0  0
  -29.6306  -13.4632   17.7231 H   0  0  0  0  0  0
  -27.8742  -11.2843   18.8946 H   0  0  0  0  0  0
  -27.3676  -12.5374   17.7942 H   0  0  0  0  0  0
  -27.6363  -14.2539   19.4774 H   0  0  0  0  0  0
  -28.7116  -12.1372   21.4083 H   0  0  0  0  0  0
  -28.4261  -13.8138   21.8027 H   0  0  0  0  0  0
  -25.2745   -9.5684   22.4746 H   0  0  0  0  0  0
  -23.9996   -7.4623   22.7459 H   0  0  0  0  0  0
  -21.0821   -8.8740   19.8942 H   0  0  0  0  0  0
  -22.3651  -10.9659   19.6155 H   0  0  0  0  0  0
  -21.1999   -7.6130   23.9703 H   0  0  0  0  0  0
  -21.1495   -6.0514   25.9078 H   0  0  0  0  0  0
  -22.0596   -2.7589   23.2853 H   0  0  0  0  0  0
  -22.4058  -11.9852   22.4813 H   0  0  0  0  0  0
  -21.1065  -13.1210   22.2657 H   0  0  0  0  0  0
  -24.6475  -15.8457   20.5216 H   0  0  0  0  0  0
  -26.2632  -15.6309   20.0775 H   0  0  0  0  0  0
  -26.7186  -32.5426   23.1076 H   0  0  0  0  0  0
  -25.0116  -33.9707   25.0434 H   0  0  0  0  0  0
  -22.7191  -31.2960   21.3889 H   0  0  0  0  0  0
  -23.3745  -35.9628   23.3298 H   0  0  0  0  0  0
  -24.3581  -36.8911   22.2051 H   0  0  0  0  0  0
  -23.7249  -37.6496   23.6662 H   0  0  0  0  0  0
  -26.0868  -31.5375   20.5849 H   0  0  0  0  0  0
  -26.8474  -30.8445   21.9868 H   0  0  0  0  0  0
  -28.1263  -28.9765   21.1697 H   0  0  0  0  0  0
  -26.0130  -25.8830   19.0435 H   0  0  0  0  0  0
  -23.9721  -27.2746   19.0361 H   0  0  0  0  0  0
  -23.7651  -30.5754   19.3957 H   0  0  0  0  0  0
  -22.7603  -29.2363   19.8531 H   0  0  0  0  0  0
  -25.1287  -36.1905   25.0818 H   0  0  0  0  0  0
  -21.0011  -28.3270   24.1388 H   0  0  0  0  0  0
  -20.5668  -26.2298   23.3602 H   0  0  0  0  0  0
  -21.6646  -26.7421   22.1200 H   0  0  0  0  0  0
  -19.6910  -25.6298   21.1237 H   0  0  0  0  0  0
  -19.6704  -27.3199   20.6733 H   0  0  0  0  0  0
  -17.4202  -26.6687   21.4023 H   0  0  0  0  0  0
  -18.0331  -26.0076   22.9018 H   0  0  0  0  0  0
  -19.7945  -30.7281   24.2269 H   0  0  0  0  0  0
  -17.5019  -31.6270   24.5170 H   0  0  0  0  0  0
  -15.5361  -30.2991   23.7644 H   0  0  0  0  0  0
  -15.8679  -28.0829   22.7047 H   0  0  0  0  0  0
  -24.5908  -30.7039   25.7756 H   0  0  0  0  0  0
  -24.8880  -32.2878   26.4806 H   0  0  0  0  0  0
  -25.8031  -30.8923   27.0220 H   0  0  0  0  0  0
  -26.2882  -29.6796   24.1105 H   0  0  0  0  0  0
  -27.3986  -29.7203   25.4603 H   0  0  0  0  0  0
  -27.8760  -30.4295   23.9352 H   0  0  0  0  0  0
  -27.2696  -33.3595   26.2032 H   0  0  0  0  0  0
  -28.3902  -32.6794   25.0333 H   0  0  0  0  0  0
  -28.0690  -31.8404   26.5420 H   0  0  0  0  0  0
  -28.2591  -38.0095   24.7502 H   0  0  0  0  0  0
  -28.1058  -36.2628   24.6302 H   0  0  0  0  0  0
  -27.2293  -37.1444   25.8876 H   0  0  0  0  0  0
  -20.9354  -29.8779   21.6899 H   0  0  0  0  0  0
  -26.0159  -38.2845   24.1424 H   0  0  0  0  0  0
  -30.7641  -20.1199   21.3806 H   0  0  0  0  0  0
  -27.7289  -17.7204   19.4395 H   0  0  0  0  0  0
  -26.3485  -25.0051   21.6803 H   0  0  0  0  0  0
  -27.4032  -26.1016   22.5721 H   0  0  0  0  0  0
  -27.5889  -24.3753   22.7526 H   0  0  0  0  0  0
  -31.2618  -17.3391   20.1631 H   0  0  0  0  0  0
  -30.7498  -17.3509   21.8054 H   0  0  0  0  0  0
  -29.9597  -22.6891   21.2746 H   0  0  0  0  0  0
  -28.3877  -22.4706   21.9229 H   0  0  0  0  0  0
  -27.4045  -23.4904   19.7436 H   0  0  0  0  0  0
  -29.0322  -23.7894   19.2252 H   0  0  0  0  0  0
  -29.3535  -25.2070   21.3245 H   0  0  0  0  0  0
  -28.8747  -15.6952   20.8567 H   0  0  0  0  0  0
  1 25  1  0  0  0
  1 30  2  0  0  0
  1 80  1  0  0  0
  2  3  1  0  0  0
  2 25  1  0  0  0
  2 82  1  0  0  0
  2 83  1  0  0  0
  3  4  1  0  0  0
  3 84  1  0  0  0
  3 85  1  0  0  0
  4  5  1  0  0  0
  4 86  1  0  0  0
  4 87  1  0  0  0
  5  6  1  0  0  0
  5 26  1  0  0  0
  5 88  1  0  0  0
  6 25  1  0  0  0
  6 89  1  0  0  0
  6 90  1  0  0  0
  7  8  2  0  0  0
  7 26  1  0  0  0
  7 29  1  0  0  0
  8  9  1  0  0  0
  8 22  1  0  0  0
  9 10  1  0  0  0
  9 27  2  0  0  0
 10 11  2  0  0  0
 10 15  1  0  0  0
 11 12  1  0  0  0
 11 91  1  0  0  0
 12 13  2  0  0  0
 12 92  1  0  0  0
 13 14  1  0  0  0
 13 31  1  0  0  0
 14 15  2  0  0  0
 14 93  1  0  0  0
 15 94  1  0  0  0
 16 17  2  0  0  0
 16 21  1  0  0  0
 16 31  1  0  0  0
 17 18  1  0  0  0
 17 95  1  0  0  0
 18 19  2  0  0  0
 18 96  1  0  0  0
 19 20  1  0  0  0
 19 24  1  0  0  0
 20 21  2  0  0  0
 20 97  1  0  0  0
 21 23  1  0  0  0
 22 28  1  0  0  0
 22 32  2  0  0  0
 26 27  1  0  0  0
 28 98  1  0  0  0
 28 99  1  0  0  0
 29100  1  0  0  0
 29101  1  0  0  0
 33 34  1  0  0  0
 33 66  1  0  0  0
 33 70  2  0  0  0
 34 36  1  0  0  0
 34 59  1  0  0  0
 34102  1  0  0  0
 35 44  2  0  0  0
 35 45  1  0  0  0
 35 68  1  0  0  0
 36 56  1  0  0  0
 36103  1  0  0  0
 37 39  1  0  0  0
 37 47  1  0  0  0
 37 66  1  0  0  0
 37104  1  0  0  0
 38 43  2  0  0  0
 38 46  1  0  0  0
 38 47  1  0  0  0
 39 64  1  0  0  0
 39 67  2  0  0  0
 40 52  1  0  0  0
 40 53  2  0  0  0
 40 58  1  0  0  0
 41105  1  0  0  0
 41106  1  0  0  0
 41107  1  0  0  0
 41 48  1  0  0  0
 42 43  1  0  0  0
 42 66  1  0  0  0
 42108  1  0  0  0
 42109  1  0  0  0
 43 44  1  0  0  0
 44110  1  0  0  0
 45 46  2  0  0  0
 45111  1  0  0  0
 46112  1  0  0  0
 47113  1  0  0  0
 47114  1  0  0  0
 48 56  1  0  0  0
 48 65  1  0  0  0
 48115  1  0  0  0
 49 50  1  0  0  0
 49 53  1  0  0  0
 49 64  1  0  0  0
 49116  1  0  0  0
 50 51  1  0  0  0
 50117  1  0  0  0
 50118  1  0  0  0
 51 52  1  0  0  0
 51119  1  0  0  0
 51120  1  0  0  0
 52121  1  0  0  0
 52122  1  0  0  0
 53 54  1  0  0  0
 54 55  2  0  0  0
 54123  1  0  0  0
 55 57  1  0  0  0
 55124  1  0  0  0
 56 69  2  0  0  0
 57 58  2  0  0  0
 57125  1  0  0  0
 58126  1  0  0  0
 59 60  1  0  0  0
 59 61  1  0  0  0
 59 62  1  0  0  0
 60127  1  0  0  0
 60128  1  0  0  0
 60129  1  0  0  0
 61130  1  0  0  0
 61131  1  0  0  0
 61132  1  0  0  0
 62133  1  0  0  0
 62134  1  0  0  0
 62135  1  0  0  0
 63 65  1  0  0  0
 63136  1  0  0  0
 63137  1  0  0  0
 63138  1  0  0  0
 64139  1  0  0  0
 65140  1  0  0  0
 68 79  1  0  0  0
 71 73  1  0  0  0
 71 74  2  0  0  0
 71141  1  0  0  0
 72 73  2  0  0  0
 72 81  1  0  0  0
 72142  1  0  0  0
 73 76  1  0  0  0
 74 77  1  0  0  0
 74 81  1  0  0  0
 75143  1  0  0  0
 75144  1  0  0  0
 75145  1  0  0  0
 75 79  1  0  0  0
 76 80  1  0  0  0
 76146  1  0  0  0
 76147  1  0  0  0
 77 78  1  0  0  0
 77148  1  0  0  0
 77149  1  0  0  0
 78 79  1  0  0  0
 78150  1  0  0  0
 78151  1  0  0  0
 79152  1  0  0  0
 80153  1  0  0  0
M  ISO  4   1 100  68 101  79 101  80 100
M  END
> <chiral flag>
0

> <version>
0

> <s_m_source_file>
/data/baiqing/PycharmProjects/Reinvent-master-3.2/result/LINK_invent/BTK/process_docking_weight1_custom_sum_contain_oxygen_bond_distance_aromatic_linkinvent_7_9_3/rearranged_h_0096.sdf

> <i_m_source_file_index>
32

> <r_mmod_Potential_Energy-OPLS-2005>
34.7503204345703

> <r_mmod_Stretch_Energy-OPLS-2005>
102.98974609375

> <r_mmod_Bend_Energy-OPLS-2005>
171.889984130859

> <r_mmod_Torsional_Energy-OPLS-2005>
213.858901977539

> <r_mmod_Improper_Torsional_Energy-OPLS-2005>
4.9484658241272

> <r_mmod_Van_der_Waal_Energy-OPLS-2005>
112.586051940918

> <r_mmod_Electrostatic_Energy-OPLS-2005>
-426.948669433594

> <r_mmod_Solvation_Energy-OPLS-2005>
-210.153625488281

> <b_mmod_Minimization_Converged-OPLS-2005>
0

> <r_mmod_RMS_Derivative-OPLS-2005>
1.85805034637451

$$$$
32
                    3D
 Structure written by MMmdl.
163171  0  0  1  0            999 V2000
  -30.5363  -14.9710   20.4121 C   0  0  0  0  0  0
  -30.4400  -12.6012   19.5158 C   0  0  0  0  0  0
  -29.5252  -12.5391   18.2695 C   0  0  0  0  0  0
  -28.0595  -12.3176   18.6845 C   0  0  0  0  0  0
  -27.6312  -13.2521   19.8460 C   0  0  2  0  0  0
  -28.6704  -13.2900   20.9880 C   0  0  0  0  0  0
  -25.2459  -13.8224   20.5719 C   0  0  0  0  0  0
  -24.1779  -13.0446   20.9227 C   0  0  0  0  0  0
  -24.6406  -11.6932   20.8768 C   0  0  0  0  0  0
  -23.9099  -10.4299   21.0417 C   0  0  0  0  0  0
  -24.3640   -9.4211   21.9200 C   0  0  0  0  0  0
  -23.6307   -8.2253   22.0765 C   0  0  0  0  0  0
  -22.4291   -8.0295   21.3548 C   0  0  0  0  0  0
  -21.9933   -9.0274   20.4652 C   0  0  0  0  0  0
  -22.7271  -10.2146   20.3064 C   0  0  0  0  0  0
  -21.6853   -6.0754   22.5284 C   0  0  0  0  0  0
  -21.4018   -6.5654   23.8217 C   0  0  0  0  0  0
  -21.3656   -5.6800   24.9177 C   0  0  0  0  0  0
  -21.6038   -4.3064   24.7220 C   0  0  0  0  0  0
  -21.8818   -3.8162   23.4343 C   0  0  0  0  0  0
  -21.9193   -4.6983   22.3400 C   0  0  0  0  0  0
  -22.7798  -13.5213   21.1875 C   0  0  0  0  0  0
  -22.1660   -4.2170   21.0977 F   0  0  0  0  0  0
  -21.5624   -3.4543   25.7732 F   0  0  0  0  0  0
  -29.9485  -13.7043   20.3957 N   0  0  0  0  0  0
  -26.2896  -12.9469   20.3286 N   0  0  0  0  0  0
  -25.9343  -11.6593   20.5768 N   0  0  0  0  0  0
  -22.0444  -12.8200   22.0420 N   0  0  0  0  0  0
  -25.4117  -15.1956   20.4148 N   0  0  0  0  0  0
  -31.7270  -15.0332   20.0888 O   0  0  0  0  0  0
  -21.6643   -6.8902   21.4247 O   0  0  0  0  0  0
  -22.3487  -14.5522   20.6720 O   0  0  0  0  0  0
  -24.6496  -31.8428   23.1867 C   0  0  0  0  0  0
  -25.9257  -32.4686   23.8269 C   0  0  1  0  0  0
  -27.2105  -27.1059   20.1545 C   0  0  0  0  0  0
  -25.5988  -33.8489   24.2197 N   0  0  0  0  0  0
  -23.4526  -30.4629   21.5346 C   0  0  2  0  0  0
  -24.9007  -28.8864   20.1107 C   0  0  0  0  0  0
  -22.7607  -29.4544   22.4866 C   0  0  0  0  0  0
  -18.0321  -28.1382   22.8479 C   0  0  0  0  0  0
  -24.1489  -36.7249   23.2634 C   0  0  0  0  0  0
  -26.0113  -30.7056   21.3897 C   0  0  0  0  0  0
  -26.0810  -29.3155   20.7304 C   0  0  0  0  0  0
  -27.2378  -28.4427   20.7323 C   0  0  0  0  0  0
  -26.0016  -26.7868   19.4956 C   0  0  0  0  0  0
  -24.8762  -27.6375   19.4764 C   0  0  0  0  0  0
  -23.6790  -29.7920   20.1547 C   0  0  0  0  0  0
  -25.4120  -36.3027   24.0314 C   0  0  1  0  0  0
  -20.5937  -28.3713   23.1222 C   0  0  2  0  0  0
  -20.6801  -26.9412   22.5396 C   0  0  0  0  0  0
  -19.5765  -26.6370   21.5210 C   0  0  0  0  0  0
  -18.1948  -26.7926   22.1622 C   0  0  0  0  0  0
  -19.1580  -28.8871   23.2834 C   0  0  0  0  0  0
  -18.9491  -30.1469   23.8849 C   0  0  0  0  0  0
  -17.6480  -30.6571   24.0553 C   0  0  0  0  0  0
  -25.9081  -34.9399   23.5064 C   0  0  0  0  0  0
  -16.5373  -29.9061   23.6329 C   0  0  0  0  0  0
  -16.7305  -28.6488   23.0344 C   0  0  0  0  0  0
  -26.4561  -31.6560   25.0721 C   0  0  0  0  0  0
  -25.3716  -31.3731   26.1387 C   0  0  0  0  0  0
  -27.0446  -30.2959   24.6321 C   0  0  0  0  0  0
  -27.6075  -32.4347   25.7518 C   0  0  0  0  0  0
  -27.5575  -37.1784   24.8463 C   0  0  0  0  0  0
  -21.4300  -29.3037   22.3600 N   0  0  0  0  0  0
  -26.4285  -37.3745   23.9405 N   0  0  0  0  0  0
  -24.7246  -31.0256   22.0919 N   0  0  0  0  0  0
  -23.4243  -28.8094   23.3027 O   0  0  0  0  0  0
  -28.2502  -26.0983   20.2283 O   0  0  0  0  0  0
  -26.5659  -34.8902   22.4638 O   0  0  0  0  0  0
  -23.5607  -32.1325   23.7071 O   0  0  0  0  0  0
  -28.5312  -19.9291   18.3271 C   0  0  0  0  0  0
  -28.4318  -20.9911   17.4072 C   0  0  0  0  0  0
  -28.9568  -20.3596   19.5521 C   0  0  0  0  0  0
  -28.7955  -22.1200   18.0780 C   0  0  0  0  0  0
  -29.0810  -23.4511   17.4337 C   0  0  0  0  0  0
  -26.5615  -20.4789   15.8116 C   0  0  0  0  0  0
  -28.9468  -19.8518   15.2247 C   0  0  0  0  0  0
  -29.2945  -19.1284   20.5830 C   0  0  0  0  0  0
  -28.9030  -23.1690   20.3835 C   0  0  0  0  0  0
  -29.9922  -17.6532   20.0491 C   0  0  0  0  0  0
  -27.9358  -24.5622   20.1140 C   0  0  0  0  0  0
  -28.0437  -20.8589   15.9487 C   0  0  0  0  0  0
  -28.8494  -21.8728   19.4648 N   0  0  0  0  0  0
  -29.7677  -16.1656   20.5706 N   0  0  0  0  0  0
  -31.4740  -12.7553   19.2041 H   0  0  0  0  0  0
  -30.4326  -11.6515   20.0535 H   0  0  0  0  0  0
  -29.8509  -11.7441   17.5972 H   0  0  0  0  0  0
  -29.6076  -13.4716   17.7086 H   0  0  0  0  0  0
  -27.9596  -11.2764   18.9942 H   0  0  0  0  0  0
  -27.3966  -12.4461   17.8281 H   0  0  0  0  0  0
  -27.5939  -14.2530   19.4153 H   0  0  0  0  0  0
  -28.7587  -12.3176   21.4748 H   0  0  0  0  0  0
  -28.3643  -13.9961   21.7612 H   0  0  0  0  0  0
  -25.2783   -9.5684   22.4779 H   0  0  0  0  0  0
  -24.0011   -7.4644   22.7485 H   0  0  0  0  0  0
  -21.0868   -8.8809   19.8952 H   0  0  0  0  0  0
  -22.3746  -10.9696   19.6174 H   0  0  0  0  0  0
  -21.2015   -7.6162   23.9729 H   0  0  0  0  0  0
  -21.1472   -6.0528   25.9079 H   0  0  0  0  0  0
  -22.0597   -2.7627   23.2834 H   0  0  0  0  0  0
  -22.4064  -11.9854   22.4792 H   0  0  0  0  0  0
  -21.1066  -13.1228   22.2632 H   0  0  0  0  0  0
  -24.6398  -15.8438   20.5255 H   0  0  0  0  0  0
  -26.2519  -15.6390   20.0673 H   0  0  0  0  0  0
  -26.7326  -32.5295   23.0995 H   0  0  0  0  0  0
  -25.0117  -33.9587   25.0333 H   0  0  0  0  0  0
  -22.7559  -31.2892   21.3804 H   0  0  0  0  0  0
  -23.3767  -35.9565   23.3288 H   0  0  0  0  0  0
  -24.3569  -36.8905   22.2050 H   0  0  0  0  0  0
  -23.7240  -37.6437   23.6687 H   0  0  0  0  0  0
  -26.1681  -31.4575   20.6155 H   0  0  0  0  0  0
  -26.8810  -30.7579   22.0330 H   0  0  0  0  0  0
  -28.1369  -28.7643   21.2400 H   0  0  0  0  0  0
  -25.8808  -25.8337   19.0055 H   0  0  0  0  0  0
  -23.9745  -27.3053   18.9801 H   0  0  0  0  0  0
  -23.8182  -30.5649   19.3977 H   0  0  0  0  0  0
  -22.7928  -29.2355   19.8447 H   0  0  0  0  0  0
  -25.1308  -36.1850   25.0809 H   0  0  0  0  0  0
  -21.0018  -28.3301   24.1348 H   0  0  0  0  0  0
  -20.5704  -26.2319   23.3618 H   0  0  0  0  0  0
  -21.6662  -26.7417   22.1181 H   0  0  0  0  0  0
  -19.6913  -25.6275   21.1252 H   0  0  0  0  0  0
  -19.6694  -27.3172   20.6733 H   0  0  0  0  0  0
  -17.4223  -26.6692   21.4017 H   0  0  0  0  0  0
  -18.0330  -26.0058   22.9005 H   0  0  0  0  0  0
  -19.7961  -30.7305   24.2199 H   0  0  0  0  0  0
  -17.5025  -31.6244   24.5166 H   0  0  0  0  0  0
  -15.5369  -30.2931   23.7675 H   0  0  0  0  0  0
  -15.8718  -28.0790   22.7053 H   0  0  0  0  0  0
  -24.5920  -30.7068   25.7679 H   0  0  0  0  0  0
  -24.8861  -32.2894   26.4751 H   0  0  0  0  0  0
  -25.7966  -30.8933   27.0211 H   0  0  0  0  0  0
  -26.3078  -29.6657   24.1324 H   0  0  0  0  0  0
  -27.4060  -29.7279   25.4905 H   0  0  0  0  0  0
  -27.8986  -30.4204   23.9657 H   0  0  0  0  0  0
  -27.2673  -33.3686   26.2003 H   0  0  0  0  0  0
  -28.3937  -32.6855   25.0386 H   0  0  0  0  0  0
  -28.0691  -31.8535   26.5514 H   0  0  0  0  0  0
  -28.2581  -38.0090   24.7526 H   0  0  0  0  0  0
  -28.1097  -36.2627   24.6291 H   0  0  0  0  0  0
  -27.2291  -37.1425   25.8864 H   0  0  0  0  0  0
  -20.9535  -29.8756   21.6767 H   0  0  0  0  0  0
  -26.0158  -38.2818   24.1405 H   0  0  0  0  0  0
  -28.3472  -18.8963   18.0706 H   0  0  0  0  0  0
  -28.1673  -23.9467   17.1058 H   0  0  0  0  0  0
  -29.6984  -23.3107   16.5463 H   0  0  0  0  0  0
  -29.6475  -24.1275   18.0714 H   0  0  0  0  0  0
  -25.9196  -21.2208   16.2892 H   0  0  0  0  0  0
  -26.3524  -19.5136   16.2741 H   0  0  0  0  0  0
  -26.2659  -20.4166   14.7636 H   0  0  0  0  0  0
  -29.9953  -20.1421   15.3002 H   0  0  0  0  0  0
  -28.6959  -19.7914   14.1657 H   0  0  0  0  0  0
  -28.8464  -18.8507   15.6449 H   0  0  0  0  0  0
  -28.3544  -18.8659   21.0690 H   0  0  0  0  0  0
  -29.9159  -19.5182   21.3899 H   0  0  0  0  0  0
  -28.7504  -22.8394   21.4115 H   0  0  0  0  0  0
  -29.9408  -23.5000   20.3616 H   0  0  0  0  0  0
  -31.0709  -17.8117   20.0161 H   0  0  0  0  0  0
  -29.7317  -17.5513   18.9979 H   0  0  0  0  0  0
  -27.0892  -24.4250   20.7865 H   0  0  0  0  0  0
  -27.4730  -24.4325   19.1425 H   0  0  0  0  0  0
  -28.1731  -21.8277   15.4648 H   0  0  0  0  0  0
  -28.8283  -15.9863   20.8931 H   0  0  0  0  0  0
  1 25  1  0  0  0
  1 30  2  0  0  0
  1 84  1  0  0  0
  2  3  1  0  0  0
  2 25  1  0  0  0
  2 85  1  0  0  0
  2 86  1  0  0  0
  3  4  1  0  0  0
  3 87  1  0  0  0
  3 88  1  0  0  0
  4  5  1  0  0  0
  4 89  1  0  0  0
  4 90  1  0  0  0
  5  6  1  0  0  0
  5 26  1  0  0  0
  5 91  1  0  0  0
  6 25  1  0  0  0
  6 92  1  0  0  0
  6 93  1  0  0  0
  7  8  2  0  0  0
  7 26  1  0  0  0
  7 29  1  0  0  0
  8  9  1  0  0  0
  8 22  1  0  0  0
  9 10  1  0  0  0
  9 27  2  0  0  0
 10 11  2  0  0  0
 10 15  1  0  0  0
 11 12  1  0  0  0
 11 94  1  0  0  0
 12 13  2  0  0  0
 12 95  1  0  0  0
 13 14  1  0  0  0
 13 31  1  0  0  0
 14 15  2  0  0  0
 14 96  1  0  0  0
 15 97  1  0  0  0
 16 17  2  0  0  0
 16 21  1  0  0  0
 16 31  1  0  0  0
 17 18  1  0  0  0
 17 98  1  0  0  0
 18 19  2  0  0  0
 18 99  1  0  0  0
 19 20  1  0  0  0
 19 24  1  0  0  0
 20 21  2  0  0  0
 20100  1  0  0  0
 21 23  1  0  0  0
 22 28  1  0  0  0
 22 32  2  0  0  0
 26 27  1  0  0  0
 28101  1  0  0  0
 28102  1  0  0  0
 29103  1  0  0  0
 29104  1  0  0  0
 33 34  1  0  0  0
 33 66  1  0  0  0
 33 70  2  0  0  0
 34 36  1  0  0  0
 34 59  1  0  0  0
 34105  1  0  0  0
 35 44  2  0  0  0
 35 45  1  0  0  0
 35 68  1  0  0  0
 36 56  1  0  0  0
 36106  1  0  0  0
 37 39  1  0  0  0
 37 47  1  0  0  0
 37 66  1  0  0  0
 37107  1  0  0  0
 38 43  2  0  0  0
 38 46  1  0  0  0
 38 47  1  0  0  0
 39 64  1  0  0  0
 39 67  2  0  0  0
 40 52  1  0  0  0
 40 53  2  0  0  0
 40 58  1  0  0  0
 41108  1  0  0  0
 41109  1  0  0  0
 41110  1  0  0  0
 41 48  1  0  0  0
 42 43  1  0  0  0
 42 66  1  0  0  0
 42111  1  0  0  0
 42112  1  0  0  0
 43 44  1  0  0  0
 44113  1  0  0  0
 45 46  2  0  0  0
 45114  1  0  0  0
 46115  1  0  0  0
 47116  1  0  0  0
 47117  1  0  0  0
 48 56  1  0  0  0
 48 65  1  0  0  0
 48118  1  0  0  0
 49 50  1  0  0  0
 49 53  1  0  0  0
 49 64  1  0  0  0
 49119  1  0  0  0
 50 51  1  0  0  0
 50120  1  0  0  0
 50121  1  0  0  0
 51 52  1  0  0  0
 51122  1  0  0  0
 51123  1  0  0  0
 52124  1  0  0  0
 52125  1  0  0  0
 53 54  1  0  0  0
 54 55  2  0  0  0
 54126  1  0  0  0
 55 57  1  0  0  0
 55127  1  0  0  0
 56 69  2  0  0  0
 57 58  2  0  0  0
 57128  1  0  0  0
 58129  1  0  0  0
 59 60  1  0  0  0
 59 61  1  0  0  0
 59 62  1  0  0  0
 60130  1  0  0  0
 60131  1  0  0  0
 60132  1  0  0  0
 61133  1  0  0  0
 61134  1  0  0  0
 61135  1  0  0  0
 62136  1  0  0  0
 62137  1  0  0  0
 62138  1  0  0  0
 63 65  1  0  0  0
 63139  1  0  0  0
 63140  1  0  0  0
 63141  1  0  0  0
 64142  1  0  0  0
 65143  1  0  0  0
 68 81  1  0  0  0
 71 72  1  0  0  0
 71 73  2  0  0  0
 71144  1  0  0  0
 72 74  2  0  0  0
 72 82  1  0  0  0
 73 78  1  0  0  0
 73 83  1  0  0  0
 74 75  1  0  0  0
 74 83  1  0  0  0
 75145  1  0  0  0
 75146  1  0  0  0
 75147  1  0  0  0
 76148  1  0  0  0
 76149  1  0  0  0
 76150  1  0  0  0
 76 82  1  0  0  0
 77 82  1  0  0  0
 77151  1  0  0  0
 77152  1  0  0  0
 77153  1  0  0  0
 78 80  1  0  0  0
 78154  1  0  0  0
 78155  1  0  0  0
 79 81  1  0  0  0
 79 83  1  0  0  0
 79156  1  0  0  0
 79157  1  0  0  0
 80 84  1  0  0  0
 80158  1  0  0  0
 80159  1  0  0  0
 81160  1  0  0  0
 81161  1  0  0  0
 82162  1  0  0  0
 84163  1  0  0  0
M  ISO  4   1 100  68 101  81 101  84 100
M  END
> <chiral flag>
0

> <version>
0

> <s_m_source_file>
/data/baiqing/PycharmProjects/Reinvent-master-3.2/result/LINK_invent/BTK/process_docking_weight1_custom_sum_contain_oxygen_bond_distance_aromatic_linkinvent_7_9_3/rearranged_h_0096.sdf

> <i_m_source_file_index>
33

> <r_mmod_Potential_Energy-OPLS-2005>
636.093383789062

> <r_mmod_Stretch_Energy-OPLS-2005>
322.378509521484

> <r_mmod_Bend_Energy-OPLS-2005>
341.567443847656

> <r_mmod_Torsional_Energy-OPLS-2005>
260.623382568359

> <r_mmod_Improper_Torsional_Energy-OPLS-2005>
6.30463981628418

> <r_mmod_Van_der_Waal_Energy-OPLS-2005>
120.694953918457

> <r_mmod_Electrostatic_Energy-OPLS-2005>
-414.881408691406

> <r_mmod_Solvation_Energy-OPLS-2005>
-215.094116210938

> <b_mmod_Minimization_Converged-OPLS-2005>
0

> <r_mmod_RMS_Derivative-OPLS-2005>
1.33920967578888

$$$$
33
                    3D
 Structure written by MMmdl.
179187  0  0  1  0            999 V2000
  -30.6938  -14.4171   20.5887 C   0  0  0  0  0  0
  -30.4286  -12.2782   19.3984 C   0  0  0  0  0  0
  -29.4937  -12.5377   18.1992 C   0  0  0  0  0  0
  -28.0135  -12.4039   18.6079 C   0  0  0  0  0  0
  -27.6732  -13.2043   19.8943 C   0  0  2  0  0  0
  -28.7143  -12.9125   20.9974 C   0  0  0  0  0  0
  -25.2622  -13.8155   20.5651 C   0  0  0  0  0  0
  -24.1885  -13.0446   20.9126 C   0  0  0  0  0  0
  -24.6445  -11.6898   20.8697 C   0  0  0  0  0  0
  -23.9103  -10.4284   21.0373 C   0  0  0  0  0  0
  -24.3631   -9.4201   21.9172 C   0  0  0  0  0  0
  -23.6285   -8.2245   22.0764 C   0  0  0  0  0  0
  -22.4275   -8.0259   21.3533 C   0  0  0  0  0  0
  -21.9901   -9.0250   20.4653 C   0  0  0  0  0  0
  -22.7249  -10.2125   20.3053 C   0  0  0  0  0  0
  -21.6868   -6.0698   22.5259 C   0  0  0  0  0  0
  -21.4039   -6.5613   23.8186 C   0  0  0  0  0  0
  -21.3669   -5.6775   24.9155 C   0  0  0  0  0  0
  -21.6059   -4.3030   24.7223 C   0  0  0  0  0  0
  -21.8836   -3.8116   23.4340 C   0  0  0  0  0  0
  -21.9210   -4.6928   22.3386 C   0  0  0  0  0  0
  -22.7885  -13.5194   21.1798 C   0  0  0  0  0  0
  -22.1659   -4.2115   21.0957 F   0  0  0  0  0  0
  -21.5630   -3.4512   25.7736 F   0  0  0  0  0  0
  -30.0525  -13.2259   20.4577 N   0  0  0  0  0  0
  -26.3102  -12.9335   20.3445 N   0  0  0  0  0  0
  -25.9383  -11.6490   20.5785 N   0  0  0  0  0  0
  -22.0542  -12.8186   22.0357 N   0  0  0  0  0  0
  -25.4334  -15.1871   20.3979 N   0  0  0  0  0  0
  -31.7893  -14.6544   20.0642 O   0  0  0  0  0  0
  -21.6635   -6.8852   21.4226 O   0  0  0  0  0  0
  -22.3539  -14.5485   20.6634 O   0  0  0  0  0  0
  -24.6163  -31.8613   23.2093 C   0  0  0  0  0  0
  -25.9058  -32.4763   23.8419 C   0  0  1  0  0  0
  -27.2586  -27.4463   20.0612 C   0  0  0  0  0  0
  -25.5912  -33.8589   24.2328 N   0  0  0  0  0  0
  -23.4060  -30.4865   21.5458 C   0  0  2  0  0  0
  -24.8560  -28.9428   20.1284 C   0  0  0  0  0  0
  -22.7391  -29.4674   22.4973 C   0  0  0  0  0  0
  -18.0287  -28.1369   22.8542 C   0  0  0  0  0  0
  -24.1490  -36.7295   23.2649 C   0  0  0  0  0  0
  -25.9379  -30.8214   21.3720 C   0  0  0  0  0  0
  -26.0154  -29.4567   20.7184 C   0  0  0  0  0  0
  -27.2151  -28.7091   20.6929 C   0  0  0  0  0  0
  -26.0604  -26.9181   19.5254 C   0  0  0  0  0  0
  -24.8685  -27.6650   19.5480 C   0  0  0  0  0  0
  -23.6191  -29.8046   20.1680 C   0  0  0  0  0  0
  -25.4098  -36.3075   24.0342 C   0  0  1  0  0  0
  -20.5867  -28.3689   23.1312 C   0  0  2  0  0  0
  -20.6764  -26.9421   22.5437 C   0  0  0  0  0  0
  -19.5737  -26.6395   21.5226 C   0  0  0  0  0  0
  -18.1912  -26.7931   22.1626 C   0  0  0  0  0  0
  -19.1529  -28.8833   23.2926 C   0  0  0  0  0  0
  -18.9452  -30.1438   23.8947 C   0  0  0  0  0  0
  -17.6450  -30.6584   24.0588 C   0  0  0  0  0  0
  -25.9032  -34.9445   23.5118 C   0  0  0  0  0  0
  -16.5359  -29.9090   23.6348 C   0  0  0  0  0  0
  -16.7271  -28.6492   23.0400 C   0  0  0  0  0  0
  -26.4516  -31.6569   25.0777 C   0  0  0  0  0  0
  -25.3784  -31.3672   26.1533 C   0  0  0  0  0  0
  -27.0434  -30.3010   24.6288 C   0  0  0  0  0  0
  -27.6106  -32.4321   25.7499 C   0  0  0  0  0  0
  -27.5563  -37.1792   24.8469 C   0  0  0  0  0  0
  -21.4112  -29.3077   22.3715 N   0  0  0  0  0  0
  -26.4293  -37.3770   23.9386 N   0  0  0  0  0  0
  -24.6703  -31.0718   22.0983 N   0  0  0  0  0  0
  -23.4141  -28.8208   23.3019 O   0  0  0  0  0  0
  -28.4650  -26.7737   20.0194 O   0  0  0  0  0  0
  -26.5597  -34.8901   22.4689 O   0  0  0  0  0  0
  -23.5349  -32.1418   23.7460 O   0  0  0  0  0  0
  -30.2700  -19.5053   21.1369 C   0  0  0  0  0  0
  -30.2238  -17.4073   19.9749 C   0  0  0  0  0  0
  -30.3050  -18.8220   19.9099 C   0  0  0  0  0  0
  -30.0870  -18.7921   22.3392 C   0  0  0  0  0  0
  -30.1089  -16.7465   21.2234 C   0  0  0  0  0  0
  -30.3835  -18.6965   17.3352 C   0  0  0  0  0  0
  -29.3018  -23.9398   26.0859 C   0  0  0  0  0  0
  -27.9993  -23.6476   23.9399 C   0  0  0  0  0  0
  -29.9749  -19.4906   23.6911 C   0  0  0  0  0  0
  -29.6090  -20.9796   23.5857 C   0  0  0  0  0  0
  -29.3345  -21.6879   24.9171 C   0  0  0  0  0  0
  -29.2741  -24.5272   19.5641 C   0  0  0  0  0  0
  -29.3411  -23.3410   18.5639 C   0  0  0  0  0  0
  -29.5404  -20.8467   18.3916 C   0  0  0  0  0  0
  -28.7282  -25.8385   18.9606 C   0  0  0  0  0  0
  -30.4828  -19.6042   18.5864 C   0  0  1  0  0  0
  -29.2435  -23.2157   24.7361 C   0  0  0  0  0  0
  -29.9996  -17.4473   22.3711 N   0  0  0  0  0  0
  -30.0096  -15.3353   21.2886 N   0  0  0  0  0  0
  -29.8682  -22.0831   19.1669 N   0  3  0  0  0  0
  -31.4703  -12.3836   19.0884 H   0  0  0  0  0  0
  -30.3250  -11.2499   19.7478 H   0  0  0  0  0  0
  -29.7208  -11.8540   17.3814 H   0  0  0  0  0  0
  -29.6767  -13.5434   17.8144 H   0  0  0  0  0  0
  -27.8036  -11.3462   18.7548 H   0  0  0  0  0  0
  -27.3723  -12.7348   17.7904 H   0  0  0  0  0  0
  -27.7399  -14.2644   19.6495 H   0  0  0  0  0  0
  -28.6760  -11.8580   21.2798 H   0  0  0  0  0  0
  -28.4808  -13.4544   21.9148 H   0  0  0  0  0  0
  -25.2797   -9.5625   22.4721 H   0  0  0  0  0  0
  -23.9982   -7.4632   22.7496 H   0  0  0  0  0  0
  -21.0824   -8.8766   19.8947 H   0  0  0  0  0  0
  -22.3726  -10.9642   19.6126 H   0  0  0  0  0  0
  -21.2031   -7.6123   23.9672 H   0  0  0  0  0  0
  -21.1482   -6.0502   25.9048 H   0  0  0  0  0  0
  -22.0621   -2.7580   23.2852 H   0  0  0  0  0  0
  -22.4182  -11.9802   22.4654 H   0  0  0  0  0  0
  -21.1173  -13.1204   22.2626 H   0  0  0  0  0  0
  -24.6666  -15.8444   20.4972 H   0  0  0  0  0  0
  -26.2816  -15.6173   20.0477 H   0  0  0  0  0  0
  -26.7142  -32.5489   23.1174 H   0  0  0  0  0  0
  -25.0068  -33.9758   25.0482 H   0  0  0  0  0  0
  -22.7039  -31.3073   21.3913 H   0  0  0  0  0  0
  -23.3743  -35.9634   23.3318 H   0  0  0  0  0  0
  -24.3600  -36.8924   22.2071 H   0  0  0  0  0  0
  -23.7263  -37.6513   23.6676 H   0  0  0  0  0  0
  -26.0710  -31.5867   20.6065 H   0  0  0  0  0  0
  -26.8141  -30.8633   22.0056 H   0  0  0  0  0  0
  -28.1153  -29.1052   21.1425 H   0  0  0  0  0  0
  -26.0093  -25.9250   19.1088 H   0  0  0  0  0  0
  -23.9675  -27.2360   19.1311 H   0  0  0  0  0  0
  -23.7237  -30.5648   19.3957 H   0  0  0  0  0  0
  -22.7507  -29.2139   19.8758 H   0  0  0  0  0  0
  -25.1271  -36.1959   25.0844 H   0  0  0  0  0  0
  -20.9992  -28.3259   24.1396 H   0  0  0  0  0  0
  -20.5631  -26.2291   23.3634 H   0  0  0  0  0  0
  -21.6621  -26.7409   22.1221 H   0  0  0  0  0  0
  -19.6876  -25.6294   21.1248 H   0  0  0  0  0  0
  -19.6658  -27.3208   20.6756 H   0  0  0  0  0  0
  -17.4178  -26.6760   21.4028 H   0  0  0  0  0  0
  -18.0285  -26.0031   22.8956 H   0  0  0  0  0  0
  -19.7919  -30.7274   24.2326 H   0  0  0  0  0  0
  -17.4998  -31.6267   24.5168 H   0  0  0  0  0  0
  -15.5360  -30.3002   23.7626 H   0  0  0  0  0  0
  -15.8672  -28.0808   22.7119 H   0  0  0  0  0  0
  -24.5910  -30.7105   25.7798 H   0  0  0  0  0  0
  -24.9058  -32.2855   26.5059 H   0  0  0  0  0  0
  -25.8121  -30.8733   27.0238 H   0  0  0  0  0  0
  -26.3051  -29.6656   24.1405 H   0  0  0  0  0  0
  -27.4228  -29.7392   25.4834 H   0  0  0  0  0  0
  -27.8852  -30.4289   23.9479 H   0  0  0  0  0  0
  -27.2752  -33.3620   26.2086 H   0  0  0  0  0  0
  -28.3885  -32.6870   25.0285 H   0  0  0  0  0  0
  -28.0838  -31.8466   26.5407 H   0  0  0  0  0  0
  -28.2574  -38.0089   24.7477 H   0  0  0  0  0  0
  -28.1056  -36.2618   24.6312 H   0  0  0  0  0  0
  -27.2295  -37.1459   25.8884 H   0  0  0  0  0  0
  -20.9268  -29.8792   21.6948 H   0  0  0  0  0  0
  -26.0183  -38.2846   24.1378 H   0  0  0  0  0  0
  -30.3960  -20.5717   21.1613 H   0  0  0  0  0  0
  -30.2555  -16.8081   19.0762 H   0  0  0  0  0  0
  -31.1185  -17.8907   17.3517 H   0  0  0  0  0  0
  -30.5746  -19.2532   16.4171 H   0  0  0  0  0  0
  -29.3966  -18.2469   17.2334 H   0  0  0  0  0  0
  -29.4439  -25.0121   25.9354 H   0  0  0  0  0  0
  -30.1366  -23.5844   26.6911 H   0  0  0  0  0  0
  -28.3857  -23.7994   26.6613 H   0  0  0  0  0  0
  -27.0848  -23.2679   24.3942 H   0  0  0  0  0  0
  -28.0287  -23.2930   22.9105 H   0  0  0  0  0  0
  -27.9148  -24.7358   23.9045 H   0  0  0  0  0  0
  -30.9193  -19.3752   24.2241 H   0  0  0  0  0  0
  -29.2201  -18.9828   24.2915 H   0  0  0  0  0  0
  -28.7302  -21.0727   22.9489 H   0  0  0  0  0  0
  -30.4293  -21.5038   23.0967 H   0  0  0  0  0  0
  -30.1469  -21.4581   25.6124 H   0  0  0  0  0  0
  -28.4223  -21.2946   25.3680 H   0  0  0  0  0  0
  -30.2632  -24.7307   19.9764 H   0  0  0  0  0  0
  -28.6332  -24.2521   20.4027 H   0  0  0  0  0  0
  -29.9597  -23.6057   17.7040 H   0  0  0  0  0  0
  -28.3392  -23.1529   18.1765 H   0  0  0  0  0  0
  -28.5075  -20.5616   18.5974 H   0  0  0  0  0  0
  -29.5610  -21.1208   17.3374 H   0  0  0  0  0  0
  -27.8809  -25.6212   18.3136 H   0  0  0  0  0  0
  -29.4730  -26.2787   18.2923 H   0  0  0  0  0  0
  -31.5113  -19.9692   18.6080 H   0  0  0  0  0  0
  -30.1248  -23.5380   24.1768 H   0  0  0  0  0  0
  -29.2475  -14.9723   21.8386 H   0  0  0  0  0  0
  -29.4666  -21.9956   20.0855 H   0  0  0  0  0  0
  -30.8684  -22.1746   19.2718 H   0  0  0  0  0  0
  1 25  1  0  0  0
  1 30  2  0  0  0
  1 89  1  0  0  0
  2  3  1  0  0  0
  2 25  1  0  0  0
  2 91  1  0  0  0
  2 92  1  0  0  0
  3  4  1  0  0  0
  3 93  1  0  0  0
  3 94  1  0  0  0
  4  5  1  0  0  0
  4 95  1  0  0  0
  4 96  1  0  0  0
  5  6  1  0  0  0
  5 26  1  0  0  0
  5 97  1  0  0  0
  6 25  1  0  0  0
  6 98  1  0  0  0
  6 99  1  0  0  0
  7  8  2  0  0  0
  7 26  1  0  0  0
  7 29  1  0  0  0
  8  9  1  0  0  0
  8 22  1  0  0  0
  9 10  1  0  0  0
  9 27  2  0  0  0
 10 11  2  0  0  0
 10 15  1  0  0  0
 11 12  1  0  0  0
 11100  1  0  0  0
 12 13  2  0  0  0
 12101  1  0  0  0
 13 14  1  0  0  0
 13 31  1  0  0  0
 14 15  2  0  0  0
 14102  1  0  0  0
 15103  1  0  0  0
 16 17  2  0  0  0
 16 21  1  0  0  0
 16 31  1  0  0  0
 17 18  1  0  0  0
 17104  1  0  0  0
 18 19  2  0  0  0
 18105  1  0  0  0
 19 20  1  0  0  0
 19 24  1  0  0  0
 20 21  2  0  0  0
 20106  1  0  0  0
 21 23  1  0  0  0
 22 28  1  0  0  0
 22 32  2  0  0  0
 26 27  1  0  0  0
 28107  1  0  0  0
 28108  1  0  0  0
 29109  1  0  0  0
 29110  1  0  0  0
 33 34  1  0  0  0
 33 66  1  0  0  0
 33 70  2  0  0  0
 34 36  1  0  0  0
 34 59  1  0  0  0
 34111  1  0  0  0
 35 44  2  0  0  0
 35 45  1  0  0  0
 35 68  1  0  0  0
 36 56  1  0  0  0
 36112  1  0  0  0
 37 39  1  0  0  0
 37 47  1  0  0  0
 37 66  1  0  0  0
 37113  1  0  0  0
 38 43  2  0  0  0
 38 46  1  0  0  0
 38 47  1  0  0  0
 39 64  1  0  0  0
 39 67  2  0  0  0
 40 52  1  0  0  0
 40 53  2  0  0  0
 40 58  1  0  0  0
 41114  1  0  0  0
 41115  1  0  0  0
 41116  1  0  0  0
 41 48  1  0  0  0
 42 43  1  0  0  0
 42 66  1  0  0  0
 42117  1  0  0  0
 42118  1  0  0  0
 43 44  1  0  0  0
 44119  1  0  0  0
 45 46  2  0  0  0
 45120  1  0  0  0
 46121  1  0  0  0
 47122  1  0  0  0
 47123  1  0  0  0
 48 56  1  0  0  0
 48 65  1  0  0  0
 48124  1  0  0  0
 49 50  1  0  0  0
 49 53  1  0  0  0
 49 64  1  0  0  0
 49125  1  0  0  0
 50 51  1  0  0  0
 50126  1  0  0  0
 50127  1  0  0  0
 51 52  1  0  0  0
 51128  1  0  0  0
 51129  1  0  0  0
 52130  1  0  0  0
 52131  1  0  0  0
 53 54  1  0  0  0
 54 55  2  0  0  0
 54132  1  0  0  0
 55 57  1  0  0  0
 55133  1  0  0  0
 56 69  2  0  0  0
 57 58  2  0  0  0
 57134  1  0  0  0
 58135  1  0  0  0
 59 60  1  0  0  0
 59 61  1  0  0  0
 59 62  1  0  0  0
 60136  1  0  0  0
 60137  1  0  0  0
 60138  1  0  0  0
 61139  1  0  0  0
 61140  1  0  0  0
 61141  1  0  0  0
 62142  1  0  0  0
 62143  1  0  0  0
 62144  1  0  0  0
 63 65  1  0  0  0
 63145  1  0  0  0
 63146  1  0  0  0
 63147  1  0  0  0
 64148  1  0  0  0
 65149  1  0  0  0
 68 85  1  0  0  0
 71 73  2  0  0  0
 71 74  1  0  0  0
 71150  1  0  0  0
 72 73  1  0  0  0
 72 75  2  0  0  0
 72151  1  0  0  0
 73 86  1  0  0  0
 74 79  1  0  0  0
 74 88  2  0  0  0
 75 88  1  0  0  0
 75 89  1  0  0  0
 76152  1  0  0  0
 76153  1  0  0  0
 76154  1  0  0  0
 76 86  1  0  0  0
 77155  1  0  0  0
 77156  1  0  0  0
 77157  1  0  0  0
 77 87  1  0  0  0
 78 87  1  0  0  0
 78158  1  0  0  0
 78159  1  0  0  0
 78160  1  0  0  0
 79 80  1  0  0  0
 79161  1  0  0  0
 79162  1  0  0  0
 80 81  1  0  0  0
 80163  1  0  0  0
 80164  1  0  0  0
 81 87  1  0  0  0
 81165  1  0  0  0
 81166  1  0  0  0
 82 83  1  0  0  0
 82 85  1  0  0  0
 82167  1  0  0  0
 82168  1  0  0  0
 83 90  1  0  0  0
 83169  1  0  0  0
 83170  1  0  0  0
 84 86  1  0  0  0
 84 90  1  0  0  0
 84171  1  0  0  0
 84172  1  0  0  0
 85173  1  0  0  0
 85174  1  0  0  0
 86175  1  0  0  0
 87176  1  0  0  0
 89177  1  0  0  0
 90178  1  0  0  0
 90179  1  0  0  0
M  CHG  1  90   1
M  ISO  4   1 100  68 101  85 101  89 100
M  END
> <chiral flag>
0

> <version>
0

> <s_m_source_file>
/data/baiqing/PycharmProjects/Reinvent-master-3.2/result/LINK_invent/BTK/process_docking_weight1_custom_sum_contain_oxygen_bond_distance_aromatic_linkinvent_7_9_3/rearranged_h_0096.sdf

> <i_m_source_file_index>
34

> <r_mmod_Potential_Energy-OPLS-2005>
-331.394134521484

> <r_mmod_Stretch_Energy-OPLS-2005>
41.55810546875

> <r_mmod_Bend_Energy-OPLS-2005>
115.900291442871

> <r_mmod_Torsional_Energy-OPLS-2005>
251.021286010742

> <r_mmod_Improper_Torsional_Energy-OPLS-2005>
3.00223112106323

> <r_mmod_Van_der_Waal_Energy-OPLS-2005>
163.540954589844

> <r_mmod_Electrostatic_Energy-OPLS-2005>
-435.149658203125

> <r_mmod_Solvation_Energy-OPLS-2005>
-481.547027587891

> <b_mmod_Minimization_Converged-OPLS-2005>
0

> <r_mmod_RMS_Derivative-OPLS-2005>
5.5460000038147

$$$$
34
                    3D
 Structure written by MMmdl.
177185  0  0  1  0            999 V2000
  -30.6846  -14.5263   20.5528 C   0  0  0  0  0  0
  -30.4155  -12.3344   19.4526 C   0  0  0  0  0  0
  -29.4903  -12.5055   18.2285 C   0  0  0  0  0  0
  -28.0111  -12.3666   18.6358 C   0  0  0  0  0  0
  -27.6505  -13.2176   19.8826 C   0  0  2  0  0  0
  -28.6930  -13.0406   21.0133 C   0  0  0  0  0  0
  -25.2380  -13.8048   20.5643 C   0  0  0  0  0  0
  -24.1740  -13.0346   20.9312 C   0  0  0  0  0  0
  -24.6373  -11.6837   20.8897 C   0  0  0  0  0  0
  -23.9093  -10.4219   21.0506 C   0  0  0  0  0  0
  -24.3635   -9.4118   21.9256 C   0  0  0  0  0  0
  -23.6298   -8.2157   22.0774 C   0  0  0  0  0  0
  -22.4284   -8.0231   21.3549 C   0  0  0  0  0  0
  -21.9952   -9.0227   20.4667 C   0  0  0  0  0  0
  -22.7298  -10.2091   20.3115 C   0  0  0  0  0  0
  -21.6815   -6.0723   22.5283 C   0  0  0  0  0  0
  -21.3984   -6.5634   23.8218 C   0  0  0  0  0  0
  -21.3669   -5.6786   24.9176 C   0  0  0  0  0  0
  -21.6058   -4.3054   24.7221 C   0  0  0  0  0  0
  -21.8817   -3.8149   23.4329 C   0  0  0  0  0  0
  -21.9183   -4.6960   22.3387 C   0  0  0  0  0  0
  -22.7750  -13.5116   21.1891 C   0  0  0  0  0  0
  -22.1662   -4.2156   21.0963 F   0  0  0  0  0  0
  -21.5645   -3.4542   25.7734 F   0  0  0  0  0  0
  -30.0238  -13.3377   20.4570 N   0  0  0  0  0  0
  -26.2931  -12.9324   20.3459 N   0  0  0  0  0  0
  -25.9301  -11.6483   20.5931 N   0  0  0  0  0  0
  -22.0391  -12.8150   22.0474 N   0  0  0  0  0  0
  -25.3807  -15.1690   20.3652 N   0  0  0  0  0  0
  -31.8017  -14.6995   20.0566 O   0  0  0  0  0  0
  -21.6616   -6.8859   21.4243 O   0  0  0  0  0  0
  -22.3436  -14.5383   20.6626 O   0  0  0  0  0  0
  -24.6132  -31.8696   23.2098 C   0  0  0  0  0  0
  -25.9039  -32.4826   23.8382 C   0  0  1  0  0  0
  -27.2530  -27.4406   20.1163 C   0  0  0  0  0  0
  -25.5909  -33.8624   24.2330 N   0  0  0  0  0  0
  -23.4027  -30.4888   21.5491 C   0  0  2  0  0  0
  -24.8563  -28.9460   20.1257 C   0  0  0  0  0  0
  -22.7399  -29.4664   22.4998 C   0  0  0  0  0  0
  -18.0261  -28.1346   22.8499 C   0  0  0  0  0  0
  -24.1483  -36.7310   23.2636 C   0  0  0  0  0  0
  -25.9285  -30.8383   21.3602 C   0  0  0  0  0  0
  -26.0118  -29.4655   20.7234 C   0  0  0  0  0  0
  -27.2132  -28.7209   20.7162 C   0  0  0  0  0  0
  -26.0840  -26.9322   19.5145 C   0  0  0  0  0  0
  -24.8865  -27.6760   19.5196 C   0  0  0  0  0  0
  -23.6145  -29.8124   20.1669 C   0  0  0  0  0  0
  -25.4109  -36.3126   24.0347 C   0  0  1  0  0  0
  -20.5859  -28.3645   23.1310 C   0  0  2  0  0  0
  -20.6759  -26.9371   22.5469 C   0  0  0  0  0  0
  -19.5751  -26.6295   21.5268 C   0  0  0  0  0  0
  -18.1915  -26.7883   22.1679 C   0  0  0  0  0  0
  -19.1519  -28.8808   23.2900 C   0  0  0  0  0  0
  -18.9455  -30.1403   23.8940 C   0  0  0  0  0  0
  -17.6466  -30.6550   24.0631 C   0  0  0  0  0  0
  -25.9045  -34.9486   23.5134 C   0  0  0  0  0  0
  -16.5372  -29.9072   23.6368 C   0  0  0  0  0  0
  -16.7271  -28.6484   23.0361 C   0  0  0  0  0  0
  -26.4473  -31.6604   25.0705 C   0  0  0  0  0  0
  -25.3734  -31.3721   26.1451 C   0  0  0  0  0  0
  -27.0313  -30.3047   24.6079 C   0  0  0  0  0  0
  -27.6063  -32.4312   25.7463 C   0  0  0  0  0  0
  -27.5581  -37.1807   24.8469 C   0  0  0  0  0  0
  -21.4132  -29.2988   22.3698 N   0  0  0  0  0  0
  -26.4298  -37.3801   23.9416 N   0  0  0  0  0  0
  -24.6658  -31.0798   22.0988 N   0  0  0  0  0  0
  -23.4190  -28.8246   23.3064 O   0  0  0  0  0  0
  -28.4376  -26.7477   20.0008 O   0  0  0  0  0  0
  -26.5586  -34.8940   22.4681 O   0  0  0  0  0  0
  -23.5330  -32.1439   23.7505 O   0  0  0  0  0  0
  -27.4319  -21.5279   20.2782 C   0  0  0  0  0  0
  -29.3451  -20.5958   21.4332 C   0  0  0  0  0  0
  -28.6204  -21.7379   20.9916 C   0  0  0  0  0  0
  -26.9322  -20.2368   20.0517 C   0  0  0  0  0  0
  -28.8861  -19.2623   21.2062 C   0  0  0  0  0  0
  -27.6460  -19.0987   20.5171 C   0  0  0  0  0  0
  -27.0156  -17.7307   20.3518 C   0  0  0  0  0  0
  -29.5665  -19.0738   24.9071 C   0  0  0  0  0  0
  -29.0644  -23.1759   21.3309 C   0  0  0  0  0  0
  -25.5731  -20.1646   19.3687 C   0  0  0  0  0  0
  -28.4712  -18.3363   24.1283 C   0  0  0  0  0  0
  -28.2960  -24.3357   20.6114 C   0  0  0  0  0  0
  -29.0023  -17.3914   23.0338 C   0  0  0  0  0  0
  -30.2469  -17.0043   20.7668 C   0  0  0  0  0  0
  -24.4158  -20.2635   20.3815 C   0  0  0  0  0  0
  -28.7610  -25.7636   20.9926 C   0  0  0  0  0  0
  -29.6828  -18.0545   21.8045 C   0  0  2  0  0  0
  -29.9806  -15.5657   21.0502 N   0  0  0  0  0  0
  -23.0971  -20.2965   19.7288 N   0  3  0  0  0  0
  -31.4592  -12.4313   19.1538 H   0  0  0  0  0  0
  -30.3233  -11.3338   19.8772 H   0  0  0  0  0  0
  -29.7357  -11.7688   17.4618 H   0  0  0  0  0  0
  -29.6504  -13.4881   17.7825 H   0  0  0  0  0  0
  -27.8197  -11.3126   18.8432 H   0  0  0  0  0  0
  -27.3613  -12.6377   17.8034 H   0  0  0  0  0  0
  -27.6784  -14.2631   19.5714 H   0  0  0  0  0  0
  -28.6785  -12.0223   21.4050 H   0  0  0  0  0  0
  -28.4464  -13.6768   21.8644 H   0  0  0  0  0  0
  -25.2785   -9.5553   22.4851 H   0  0  0  0  0  0
  -23.9981   -7.4519   22.7472 H   0  0  0  0  0  0
  -21.0893   -8.8775   19.8974 H   0  0  0  0  0  0
  -22.3790  -10.9631   19.6222 H   0  0  0  0  0  0
  -21.1951   -7.6140   23.9711 H   0  0  0  0  0  0
  -21.1521   -6.0522   25.9076 H   0  0  0  0  0  0
  -22.0598   -2.7618   23.2813 H   0  0  0  0  0  0
  -22.4010  -11.9851   22.4950 H   0  0  0  0  0  0
  -21.1004  -13.1189   22.2641 H   0  0  0  0  0  0
  -24.5752  -15.7849   20.3944 H   0  0  0  0  0  0
  -26.1958  -15.5892   19.9427 H   0  0  0  0  0  0
  -26.7115  -32.5567   23.1154 H   0  0  0  0  0  0
  -25.0113  -33.9777   25.0516 H   0  0  0  0  0  0
  -22.6899  -31.3023   21.4052 H   0  0  0  0  0  0
  -23.3750  -35.9632   23.3316 H   0  0  0  0  0  0
  -24.3574  -36.8900   22.2045 H   0  0  0  0  0  0
  -23.7227  -37.6521   23.6628 H   0  0  0  0  0  0
  -26.0300  -31.5981   20.5855 H   0  0  0  0  0  0
  -26.8188  -30.9027   21.9747 H   0  0  0  0  0  0
  -28.1134  -29.1328   21.1486 H   0  0  0  0  0  0
  -26.1084  -25.9713   19.0218 H   0  0  0  0  0  0
  -24.0021  -27.2731   19.0456 H   0  0  0  0  0  0
  -23.7182  -30.5826   19.4022 H   0  0  0  0  0  0
  -22.7405  -29.2274   19.8746 H   0  0  0  0  0  0
  -25.1277  -36.1992   25.0838 H   0  0  0  0  0  0
  -20.9969  -28.3226   24.1417 H   0  0  0  0  0  0
  -20.5631  -26.2307   23.3711 H   0  0  0  0  0  0
  -21.6626  -26.7395   22.1288 H   0  0  0  0  0  0
  -19.6923  -25.6170   21.1357 H   0  0  0  0  0  0
  -19.6710  -27.3075   20.6779 H   0  0  0  0  0  0
  -17.4190  -26.6585   21.4082 H   0  0  0  0  0  0
  -18.0294  -26.0077   22.9135 H   0  0  0  0  0  0
  -19.7936  -30.7201   24.2324 H   0  0  0  0  0  0
  -17.5036  -31.6203   24.5285 H   0  0  0  0  0  0
  -15.5370  -30.2970   23.7682 H   0  0  0  0  0  0
  -15.8658  -28.0839   22.7045 H   0  0  0  0  0  0
  -24.5902  -30.7075   25.7777 H   0  0  0  0  0  0
  -24.8930  -32.2894   26.4870 H   0  0  0  0  0  0
  -25.8078  -30.8894   27.0218 H   0  0  0  0  0  0
  -26.2866  -29.6789   24.1144 H   0  0  0  0  0  0
  -27.4111  -29.7294   25.4537 H   0  0  0  0  0  0
  -27.8679  -30.4360   23.9207 H   0  0  0  0  0  0
  -27.2689  -33.3601   26.2060 H   0  0  0  0  0  0
  -28.3850  -32.6882   25.0274 H   0  0  0  0  0  0
  -28.0741  -31.8415   26.5351 H   0  0  0  0  0  0
  -28.2617  -38.0084   24.7511 H   0  0  0  0  0  0
  -28.1054  -36.2630   24.6300 H   0  0  0  0  0  0
  -27.2297  -37.1465   25.8866 H   0  0  0  0  0  0
  -20.9290  -29.8699   21.6912 H   0  0  0  0  0  0
  -26.0196  -38.2887   24.1394 H   0  0  0  0  0  0
  -26.8479  -22.3638   19.9244 H   0  0  0  0  0  0
  -30.2553  -20.7518   21.9945 H   0  0  0  0  0  0
  -26.6089  -17.5804   19.3533 H   0  0  0  0  0  0
  -26.2089  -17.6321   21.0792 H   0  0  0  0  0  0
  -27.6988  -16.9077   20.5108 H   0  0  0  0  0  0
  -30.3170  -18.3830   25.2927 H   0  0  0  0  0  0
  -29.1432  -19.5990   25.7642 H   0  0  0  0  0  0
  -30.0683  -19.8178   24.2910 H   0  0  0  0  0  0
  -30.1294  -23.2644   21.1125 H   0  0  0  0  0  0
  -28.9661  -23.3064   22.4086 H   0  0  0  0  0  0
  -25.4762  -19.2781   18.7493 H   0  0  0  0  0  0
  -25.5067  -20.9998   18.6697 H   0  0  0  0  0  0
  -27.7589  -19.0460   23.7079 H   0  0  0  0  0  0
  -27.9062  -17.7337   24.8411 H   0  0  0  0  0  0
  -27.2262  -24.2807   20.8272 H   0  0  0  0  0  0
  -28.4028  -24.2115   19.5331 H   0  0  0  0  0  0
  -28.1578  -16.7917   22.7020 H   0  0  0  0  0  0
  -29.6957  -16.6855   23.4946 H   0  0  0  0  0  0
  -31.3252  -17.1487   20.6784 H   0  0  0  0  0  0
  -29.8626  -17.2201   19.7684 H   0  0  0  0  0  0
  -24.5218  -21.1676   20.9829 H   0  0  0  0  0  0
  -24.4518  -19.4213   21.0750 H   0  0  0  0  0  0
  -29.8488  -25.7602   21.0681 H   0  0  0  0  0  0
  -28.3955  -26.0472   21.9803 H   0  0  0  0  0  0
  -30.5813  -18.5101   22.2216 H   0  0  0  0  0  0
  -29.0950  -15.3409   21.4784 H   0  0  0  0  0  0
  -23.0018  -21.1146   19.1528 H   0  0  0  0  0  0
  -22.3742  -20.3202   20.4269 H   0  0  0  0  0  0
  -22.9586  -19.4814   19.1589 H   0  0  0  0  0  0
  1 25  1  0  0  0
  1 30  2  0  0  0
  1 88  1  0  0  0
  2  3  1  0  0  0
  2 25  1  0  0  0
  2 90  1  0  0  0
  2 91  1  0  0  0
  3  4  1  0  0  0
  3 92  1  0  0  0
  3 93  1  0  0  0
  4  5  1  0  0  0
  4 94  1  0  0  0
  4 95  1  0  0  0
  5  6  1  0  0  0
  5 26  1  0  0  0
  5 96  1  0  0  0
  6 25  1  0  0  0
  6 97  1  0  0  0
  6 98  1  0  0  0
  7  8  2  0  0  0
  7 26  1  0  0  0
  7 29  1  0  0  0
  8  9  1  0  0  0
  8 22  1  0  0  0
  9 10  1  0  0  0
  9 27  2  0  0  0
 10 11  2  0  0  0
 10 15  1  0  0  0
 11 12  1  0  0  0
 11 99  1  0  0  0
 12 13  2  0  0  0
 12100  1  0  0  0
 13 14  1  0  0  0
 13 31  1  0  0  0
 14 15  2  0  0  0
 14101  1  0  0  0
 15102  1  0  0  0
 16 17  2  0  0  0
 16 21  1  0  0  0
 16 31  1  0  0  0
 17 18  1  0  0  0
 17103  1  0  0  0
 18 19  2  0  0  0
 18104  1  0  0  0
 19 20  1  0  0  0
 19 24  1  0  0  0
 20 21  2  0  0  0
 20105  1  0  0  0
 21 23  1  0  0  0
 22 28  1  0  0  0
 22 32  2  0  0  0
 26 27  1  0  0  0
 28106  1  0  0  0
 28107  1  0  0  0
 29108  1  0  0  0
 29109  1  0  0  0
 33 34  1  0  0  0
 33 66  1  0  0  0
 33 70  2  0  0  0
 34 36  1  0  0  0
 34 59  1  0  0  0
 34110  1  0  0  0
 35 44  2  0  0  0
 35 45  1  0  0  0
 35 68  1  0  0  0
 36 56  1  0  0  0
 36111  1  0  0  0
 37 39  1  0  0  0
 37 47  1  0  0  0
 37 66  1  0  0  0
 37112  1  0  0  0
 38 43  2  0  0  0
 38 46  1  0  0  0
 38 47  1  0  0  0
 39 64  1  0  0  0
 39 67  2  0  0  0
 40 52  1  0  0  0
 40 53  2  0  0  0
 40 58  1  0  0  0
 41113  1  0  0  0
 41114  1  0  0  0
 41115  1  0  0  0
 41 48  1  0  0  0
 42 43  1  0  0  0
 42 66  1  0  0  0
 42116  1  0  0  0
 42117  1  0  0  0
 43 44  1  0  0  0
 44118  1  0  0  0
 45 46  2  0  0  0
 45119  1  0  0  0
 46120  1  0  0  0
 47121  1  0  0  0
 47122  1  0  0  0
 48 56  1  0  0  0
 48 65  1  0  0  0
 48123  1  0  0  0
 49 50  1  0  0  0
 49 53  1  0  0  0
 49 64  1  0  0  0
 49124  1  0  0  0
 50 51  1  0  0  0
 50125  1  0  0  0
 50126  1  0  0  0
 51 52  1  0  0  0
 51127  1  0  0  0
 51128  1  0  0  0
 52129  1  0  0  0
 52130  1  0  0  0
 53 54  1  0  0  0
 54 55  2  0  0  0
 54131  1  0  0  0
 55 57  1  0  0  0
 55132  1  0  0  0
 56 69  2  0  0  0
 57 58  2  0  0  0
 57133  1  0  0  0
 58134  1  0  0  0
 59 60  1  0  0  0
 59 61  1  0  0  0
 59 62  1  0  0  0
 60135  1  0  0  0
 60136  1  0  0  0
 60137  1  0  0  0
 61138  1  0  0  0
 61139  1  0  0  0
 61140  1  0  0  0
 62141  1  0  0  0
 62142  1  0  0  0
 62143  1  0  0  0
 63 65  1  0  0  0
 63144  1  0  0  0
 63145  1  0  0  0
 63146  1  0  0  0
 64147  1  0  0  0
 65148  1  0  0  0
 68 86  1  0  0  0
 71 73  2  0  0  0
 71 74  1  0  0  0
 71149  1  0  0  0
 72 73  1  0  0  0
 72 75  2  0  0  0
 72150  1  0  0  0
 73 79  1  0  0  0
 74 76  2  0  0  0
 74 80  1  0  0  0
 75 76  1  0  0  0
 75 87  1  0  0  0
 76 77  1  0  0  0
 77151  1  0  0  0
 77152  1  0  0  0
 77153  1  0  0  0
 78 81  1  0  0  0
 78154  1  0  0  0
 78155  1  0  0  0
 78156  1  0  0  0
 79 82  1  0  0  0
 79157  1  0  0  0
 79158  1  0  0  0
 80 85  1  0  0  0
 80159  1  0  0  0
 80160  1  0  0  0
 81 83  1  0  0  0
 81161  1  0  0  0
 81162  1  0  0  0
 82 86  1  0  0  0
 82163  1  0  0  0
 82164  1  0  0  0
 83165  1  0  0  0
 83166  1  0  0  0
 83 87  1  0  0  0
 84 87  1  0  0  0
 84 88  1  0  0  0
 84167  1  0  0  0
 84168  1  0  0  0
 85 89  1  0  0  0
 85169  1  0  0  0
 85170  1  0  0  0
 86171  1  0  0  0
 86172  1  0  0  0
 87173  1  0  0  0
 88174  1  0  0  0
 89175  1  0  0  0
 89176  1  0  0  0
 89177  1  0  0  0
M  CHG  1  89   1
M  ISO  4   1 100  68 101  86 101  88 100
M  END
> <chiral flag>
0

> <version>
0

> <s_m_source_file>
/data/baiqing/PycharmProjects/Reinvent-master-3.2/result/LINK_invent/BTK/process_docking_weight1_custom_sum_contain_oxygen_bond_distance_aromatic_linkinvent_7_9_3/rearranged_h_0096.sdf

> <i_m_source_file_index>
35

> <r_mmod_Potential_Energy-OPLS-2005>
-267.377410888672

> <r_mmod_Stretch_Energy-OPLS-2005>
50.6269645690918

> <r_mmod_Bend_Energy-OPLS-2005>
114.92017364502

> <r_mmod_Torsional_Energy-OPLS-2005>
258.310546875

> <r_mmod_Improper_Torsional_Energy-OPLS-2005>
6.57174634933472

> <r_mmod_Van_der_Waal_Energy-OPLS-2005>
149.339462280273

> <r_mmod_Electrostatic_Energy-OPLS-2005>
-362.573699951172

> <r_mmod_Solvation_Energy-OPLS-2005>
-500.592010498047

> <b_mmod_Minimization_Converged-OPLS-2005>
0

> <r_mmod_RMS_Derivative-OPLS-2005>
4.4422664642334

$$$$
35
                    3D
 Structure written by MMmdl.
169177  0  0  1  0            999 V2000
  -30.6240  -14.5271   20.4761 C   0  0  0  0  0  0
  -30.4262  -12.3148   19.4291 C   0  0  0  0  0  0
  -29.4942  -12.4738   18.2098 C   0  0  0  0  0  0
  -28.0090  -12.3510   18.6210 C   0  0  0  0  0  0
  -27.6524  -13.1885   19.8787 C   0  0  2  0  0  0
  -28.7000  -12.9968   20.9968 C   0  0  0  0  0  0
  -25.2522  -13.8065   20.5605 C   0  0  0  0  0  0
  -24.1770  -13.0376   20.9189 C   0  0  0  0  0  0
  -24.6329  -11.6858   20.8818 C   0  0  0  0  0  0
  -23.8992  -10.4266   21.0437 C   0  0  0  0  0  0
  -24.3581   -9.4195   21.9202 C   0  0  0  0  0  0
  -23.6272   -8.2234   22.0789 C   0  0  0  0  0  0
  -22.4268   -8.0276   21.3559 C   0  0  0  0  0  0
  -21.9865   -9.0239   20.4665 C   0  0  0  0  0  0
  -22.7168  -10.2124   20.3070 C   0  0  0  0  0  0
  -21.6853   -6.0710   22.5277 C   0  0  0  0  0  0
  -21.4019   -6.5619   23.8200 C   0  0  0  0  0  0
  -21.3648   -5.6784   24.9177 C   0  0  0  0  0  0
  -21.6016   -4.3039   24.7232 C   0  0  0  0  0  0
  -21.8810   -3.8131   23.4375 C   0  0  0  0  0  0
  -21.9194   -4.6926   22.3413 C   0  0  0  0  0  0
  -22.7806  -13.5236   21.1752 C   0  0  0  0  0  0
  -22.1650   -4.2108   21.0999 F   0  0  0  0  0  0
  -21.5649   -3.4530   25.7753 F   0  0  0  0  0  0
  -30.0215  -13.3113   20.4288 N   0  0  0  0  0  0
  -26.2962  -12.9193   20.3420 N   0  0  0  0  0  0
  -25.9261  -11.6387   20.5890 N   0  0  0  0  0  0
  -22.0392  -12.8345   22.0356 N   0  0  0  0  0  0
  -25.4131  -15.1741   20.3771 N   0  0  0  0  0  0
  -31.7845  -14.7253   20.1036 O   0  0  0  0  0  0
  -21.6653   -6.8854   21.4244 O   0  0  0  0  0  0
  -22.3512  -14.5490   20.6485 O   0  0  0  0  0  0
  -24.6163  -31.8667   23.2081 C   0  0  0  0  0  0
  -25.9040  -32.4823   23.8387 C   0  0  1  0  0  0
  -27.2408  -27.4153   20.0805 C   0  0  0  0  0  0
  -25.5888  -33.8621   24.2311 N   0  0  0  0  0  0
  -23.4053  -30.4868   21.5503 C   0  0  2  0  0  0
  -24.8512  -28.9488   20.1119 C   0  0  0  0  0  0
  -22.7416  -29.4641   22.5003 C   0  0  0  0  0  0
  -18.0270  -28.1384   22.8493 C   0  0  0  0  0  0
  -24.1488  -36.7310   23.2635 C   0  0  0  0  0  0
  -25.9362  -30.8222   21.3657 C   0  0  0  0  0  0
  -26.0114  -29.4550   20.7099 C   0  0  0  0  0  0
  -27.2044  -28.6931   20.6933 C   0  0  0  0  0  0
  -26.0598  -26.9249   19.4815 C   0  0  0  0  0  0
  -24.8723  -27.6847   19.4952 C   0  0  0  0  0  0
  -23.6130  -29.8169   20.1654 C   0  0  0  0  0  0
  -25.4110  -36.3112   24.0336 C   0  0  1  0  0  0
  -20.5856  -28.3669   23.1334 C   0  0  2  0  0  0
  -20.6761  -26.9399   22.5445 C   0  0  0  0  0  0
  -19.5749  -26.6384   21.5228 C   0  0  0  0  0  0
  -18.1914  -26.7943   22.1609 C   0  0  0  0  0  0
  -19.1517  -28.8846   23.2913 C   0  0  0  0  0  0
  -18.9441  -30.1453   23.8926 C   0  0  0  0  0  0
  -17.6441  -30.6593   24.0570 C   0  0  0  0  0  0
  -25.9039  -34.9477   23.5123 C   0  0  0  0  0  0
  -16.5334  -29.9088   23.6333 C   0  0  0  0  0  0
  -16.7256  -28.6505   23.0353 C   0  0  0  0  0  0
  -26.4446  -31.6620   25.0734 C   0  0  0  0  0  0
  -25.3684  -31.3770   26.1469 C   0  0  0  0  0  0
  -27.0262  -30.3042   24.6156 C   0  0  0  0  0  0
  -27.6049  -32.4332   25.7469 C   0  0  0  0  0  0
  -27.5599  -37.1792   24.8446 C   0  0  0  0  0  0
  -21.4138  -29.3021   22.3729 N   0  0  0  0  0  0
  -26.4292  -37.3802   23.9419 N   0  0  0  0  0  0
  -24.6707  -31.0739   22.0995 N   0  0  0  0  0  0
  -23.4169  -28.8194   23.3065 O   0  0  0  0  0  0
  -28.4266  -26.7015   20.1112 O   0  0  0  0  0  0
  -26.5605  -34.8931   22.4686 O   0  0  0  0  0  0
  -23.5352  -32.1427   23.7462 O   0  0  0  0  0  0
  -28.9363  -19.4461   16.6774 C   0  0  0  0  0  0
  -28.4211  -18.2001   16.2384 C   0  0  0  0  0  0
  -29.0889  -19.4167   18.0351 C   0  0  0  0  0  0
  -28.2957  -17.4150   17.3512 C   0  0  0  0  0  0
  -28.0794  -17.8240   14.8201 C   0  0  0  0  0  0
  -27.8122  -16.0056   17.4607 C   0  0  0  0  0  0
  -30.3052  -22.8859   20.7715 C   0  0  0  0  0  0
  -29.6251  -20.5156   18.9209 C   0  0  0  0  0  0
  -28.6000  -21.5828   19.4027 C   0  0  0  0  0  0
  -28.2410  -24.1553   19.9541 C   0  0  0  0  0  0
  -28.6538  -17.6523   19.8520 C   0  0  0  0  0  0
  -29.9622  -16.9634   20.3355 C   0  0  0  0  0  0
  -28.6355  -25.5212   19.3085 C   0  0  0  0  0  0
  -29.2430  -22.9852   19.6589 C   0  0  1  0  0  0
  -28.6937  -18.1476   18.4690 N   0  0  0  0  0  0
  -29.7732  -15.5475   20.7074 N   0  0  0  0  0  0
  -31.4643  -12.4398   19.1181 H   0  0  0  0  0  0
  -30.3581  -11.3094   19.8388 H   0  0  0  0  0  0
  -29.7341  -11.7221   17.4579 H   0  0  0  0  0  0
  -29.6795  -13.4367   17.7345 H   0  0  0  0  0  0
  -27.8081  -11.2962   18.8153 H   0  0  0  0  0  0
  -27.3666  -12.6354   17.7861 H   0  0  0  0  0  0
  -27.6751  -14.2309   19.5796 H   0  0  0  0  0  0
  -28.6893  -11.9718   21.3675 H   0  0  0  0  0  0
  -28.4642  -13.6245   21.8578 H   0  0  0  0  0  0
  -25.2720   -9.5687   22.4787 H   0  0  0  0  0  0
  -23.9945   -7.4623   22.7532 H   0  0  0  0  0  0
  -21.0781   -8.8746   19.8996 H   0  0  0  0  0  0
  -22.3595  -10.9677   19.6205 H   0  0  0  0  0  0
  -21.2023   -7.6128   23.9681 H   0  0  0  0  0  0
  -21.1467   -6.0543   25.9066 H   0  0  0  0  0  0
  -22.0606   -2.7589   23.2894 H   0  0  0  0  0  0
  -22.3970  -12.0101   22.4928 H   0  0  0  0  0  0
  -21.1005  -13.1465   22.2438 H   0  0  0  0  0  0
  -24.5787  -15.7440   20.2821 H   0  0  0  0  0  0
  -26.1989  -15.5526   19.8705 H   0  0  0  0  0  0
  -26.7117  -32.5518   23.1155 H   0  0  0  0  0  0
  -25.0057  -33.9788   25.0466 H   0  0  0  0  0  0
  -22.6951  -31.3043   21.4110 H   0  0  0  0  0  0
  -23.3777  -35.9613   23.3251 H   0  0  0  0  0  0
  -24.3595  -36.8973   22.2060 H   0  0  0  0  0  0
  -23.7196  -37.6478   23.6682 H   0  0  0  0  0  0
  -26.0548  -31.5913   20.6019 H   0  0  0  0  0  0
  -26.8211  -30.8726   21.9889 H   0  0  0  0  0  0
  -28.1022  -29.0835   21.1530 H   0  0  0  0  0  0
  -26.0388  -25.9546   19.0094 H   0  0  0  0  0  0
  -23.9813  -27.2865   19.0305 H   0  0  0  0  0  0
  -23.7141  -30.5916   19.4042 H   0  0  0  0  0  0
  -22.7374  -29.2333   19.8752 H   0  0  0  0  0  0
  -25.1286  -36.1978   25.0830 H   0  0  0  0  0  0
  -20.9948  -28.3243   24.1452 H   0  0  0  0  0  0
  -20.5664  -26.2271   23.3632 H   0  0  0  0  0  0
  -21.6637  -26.7443   22.1243 H   0  0  0  0  0  0
  -19.6908  -25.6296   21.1258 H   0  0  0  0  0  0
  -19.6715  -27.3201   20.6767 H   0  0  0  0  0  0
  -17.4205  -26.6737   21.3978 H   0  0  0  0  0  0
  -18.0264  -26.0067   22.8981 H   0  0  0  0  0  0
  -19.7912  -30.7264   24.2309 H   0  0  0  0  0  0
  -17.4992  -31.6269   24.5165 H   0  0  0  0  0  0
  -15.5340  -30.2996   23.7648 H   0  0  0  0  0  0
  -15.8656  -28.0836   22.7062 H   0  0  0  0  0  0
  -24.5907  -30.7042   25.7825 H   0  0  0  0  0  0
  -24.8796  -32.2934   26.4800 H   0  0  0  0  0  0
  -25.8009  -30.9051   27.0300 H   0  0  0  0  0  0
  -26.2823  -29.6830   24.1152 H   0  0  0  0  0  0
  -27.3923  -29.7271   25.4658 H   0  0  0  0  0  0
  -27.8709  -30.4325   23.9384 H   0  0  0  0  0  0
  -27.2712  -33.3665   26.2018 H   0  0  0  0  0  0
  -28.3851  -32.6831   25.0264 H   0  0  0  0  0  0
  -28.0713  -31.8457   26.5387 H   0  0  0  0  0  0
  -28.2594  -38.0119   24.7557 H   0  0  0  0  0  0
  -28.1125  -36.2655   24.6186 H   0  0  0  0  0  0
  -27.2336  -37.1344   25.8854 H   0  0  0  0  0  0
  -20.9307  -29.8703   21.6917 H   0  0  0  0  0  0
  -26.0187  -38.2876   24.1458 H   0  0  0  0  0  0
  -29.1696  -20.2923   16.0459 H   0  0  0  0  0  0
  -28.7466  -17.0444   14.4515 H   0  0  0  0  0  0
  -28.1676  -18.6889   14.1603 H   0  0  0  0  0  0
  -27.0536  -17.4587   14.7628 H   0  0  0  0  0  0
  -27.5668  -15.5791   16.4900 H   0  0  0  0  0  0
  -26.9092  -15.9542   18.0628 H   0  0  0  0  0  0
  -28.5816  -15.3811   17.9092 H   0  0  0  0  0  0
  -31.1220  -22.2161   20.4952 H   0  0  0  0  0  0
  -29.8686  -22.5058   21.6973 H   0  0  0  0  0  0
  -30.7489  -23.8582   20.9880 H   0  0  0  0  0  0
  -30.3910  -21.0294   18.3362 H   0  0  0  0  0  0
  -30.1611  -20.0996   19.7744 H   0  0  0  0  0  0
  -28.0880  -21.2156   20.2939 H   0  0  0  0  0  0
  -27.8294  -21.6806   18.6378 H   0  0  0  0  0  0
  -27.2467  -23.8843   19.5979 H   0  0  0  0  0  0
  -28.1395  -24.2820   21.0337 H   0  0  0  0  0  0
  -28.4001  -18.4896   20.5007 H   0  0  0  0  0  0
  -27.8057  -16.9750   19.9544 H   0  0  0  0  0  0
  -30.3197  -17.4989   21.2144 H   0  0  0  0  0  0
  -30.7481  -17.0722   19.5855 H   0  0  0  0  0  0
  -28.1993  -25.6243   18.3140 H   0  0  0  0  0  0
  -29.7112  -25.5067   19.1343 H   0  0  0  0  0  0
  -29.7605  -23.2460   18.7351 H   0  0  0  0  0  0
  -28.8563  -15.2864   21.0373 H   0  0  0  0  0  0
  1 25  1  0  0  0
  1 30  2  0  0  0
  1 86  1  0  0  0
  2  3  1  0  0  0
  2 25  1  0  0  0
  2 87  1  0  0  0
  2 88  1  0  0  0
  3  4  1  0  0  0
  3 89  1  0  0  0
  3 90  1  0  0  0
  4  5  1  0  0  0
  4 91  1  0  0  0
  4 92  1  0  0  0
  5  6  1  0  0  0
  5 26  1  0  0  0
  5 93  1  0  0  0
  6 25  1  0  0  0
  6 94  1  0  0  0
  6 95  1  0  0  0
  7  8  2  0  0  0
  7 26  1  0  0  0
  7 29  1  0  0  0
  8  9  1  0  0  0
  8 22  1  0  0  0
  9 10  1  0  0  0
  9 27  2  0  0  0
 10 11  2  0  0  0
 10 15  1  0  0  0
 11 12  1  0  0  0
 11 96  1  0  0  0
 12 13  2  0  0  0
 12 97  1  0  0  0
 13 14  1  0  0  0
 13 31  1  0  0  0
 14 15  2  0  0  0
 14 98  1  0  0  0
 15 99  1  0  0  0
 16 17  2  0  0  0
 16 21  1  0  0  0
 16 31  1  0  0  0
 17 18  1  0  0  0
 17100  1  0  0  0
 18 19  2  0  0  0
 18101  1  0  0  0
 19 20  1  0  0  0
 19 24  1  0  0  0
 20 21  2  0  0  0
 20102  1  0  0  0
 21 23  1  0  0  0
 22 28  1  0  0  0
 22 32  2  0  0  0
 26 27  1  0  0  0
 28103  1  0  0  0
 28104  1  0  0  0
 29105  1  0  0  0
 29106  1  0  0  0
 33 34  1  0  0  0
 33 66  1  0  0  0
 33 70  2  0  0  0
 34 36  1  0  0  0
 34 59  1  0  0  0
 34107  1  0  0  0
 35 44  2  0  0  0
 35 45  1  0  0  0
 35 68  1  0  0  0
 36 56  1  0  0  0
 36108  1  0  0  0
 37 39  1  0  0  0
 37 47  1  0  0  0
 37 66  1  0  0  0
 37109  1  0  0  0
 38 43  2  0  0  0
 38 46  1  0  0  0
 38 47  1  0  0  0
 39 64  1  0  0  0
 39 67  2  0  0  0
 40 52  1  0  0  0
 40 53  2  0  0  0
 40 58  1  0  0  0
 41110  1  0  0  0
 41111  1  0  0  0
 41112  1  0  0  0
 41 48  1  0  0  0
 42 43  1  0  0  0
 42 66  1  0  0  0
 42113  1  0  0  0
 42114  1  0  0  0
 43 44  1  0  0  0
 44115  1  0  0  0
 45 46  2  0  0  0
 45116  1  0  0  0
 46117  1  0  0  0
 47118  1  0  0  0
 47119  1  0  0  0
 48 56  1  0  0  0
 48 65  1  0  0  0
 48120  1  0  0  0
 49 50  1  0  0  0
 49 53  1  0  0  0
 49 64  1  0  0  0
 49121  1  0  0  0
 50 51  1  0  0  0
 50122  1  0  0  0
 50123  1  0  0  0
 51 52  1  0  0  0
 51124  1  0  0  0
 51125  1  0  0  0
 52126  1  0  0  0
 52127  1  0  0  0
 53 54  1  0  0  0
 54 55  2  0  0  0
 54128  1  0  0  0
 55 57  1  0  0  0
 55129  1  0  0  0
 56 69  2  0  0  0
 57 58  2  0  0  0
 57130  1  0  0  0
 58131  1  0  0  0
 59 60  1  0  0  0
 59 61  1  0  0  0
 59 62  1  0  0  0
 60132  1  0  0  0
 60133  1  0  0  0
 60134  1  0  0  0
 61135  1  0  0  0
 61136  1  0  0  0
 61137  1  0  0  0
 62138  1  0  0  0
 62139  1  0  0  0
 62140  1  0  0  0
 63 65  1  0  0  0
 63141  1  0  0  0
 63142  1  0  0  0
 63143  1  0  0  0
 64144  1  0  0  0
 65145  1  0  0  0
 68 83  1  0  0  0
 71 72  1  0  0  0
 71 73  2  0  0  0
 71146  1  0  0  0
 72 74  2  0  0  0
 72 75  1  0  0  0
 73 78  1  0  0  0
 73 85  1  0  0  0
 74 76  1  0  0  0
 74 85  1  0  0  0
 75147  1  0  0  0
 75148  1  0  0  0
 75149  1  0  0  0
 76150  1  0  0  0
 76151  1  0  0  0
 76152  1  0  0  0
 77153  1  0  0  0
 77154  1  0  0  0
 77155  1  0  0  0
 77 84  1  0  0  0
 78 79  1  0  0  0
 78156  1  0  0  0
 78157  1  0  0  0
 79 84  1  0  0  0
 79158  1  0  0  0
 79159  1  0  0  0
 80 83  1  0  0  0
 80 84  1  0  0  0
 80160  1  0  0  0
 80161  1  0  0  0
 81 82  1  0  0  0
 81 85  1  0  0  0
 81162  1  0  0  0
 81163  1  0  0  0
 82 86  1  0  0  0
 82164  1  0  0  0
 82165  1  0  0  0
 83166  1  0  0  0
 83167  1  0  0  0
 84168  1  0  0  0
 86169  1  0  0  0
M  ISO  4   1 100  68 101  83 101  86 100
M  END
> <chiral flag>
0

> <version>
0

> <s_m_source_file>
/data/baiqing/PycharmProjects/Reinvent-master-3.2/result/LINK_invent/BTK/process_docking_weight1_custom_sum_contain_oxygen_bond_distance_aromatic_linkinvent_7_9_3/rearranged_h_0096.sdf

> <i_m_source_file_index>
36

> <r_mmod_Potential_Energy-OPLS-2005>
-58.7548942565918

> <r_mmod_Stretch_Energy-OPLS-2005>
41.3504600524902

> <r_mmod_Bend_Energy-OPLS-2005>
113.597366333008

> <r_mmod_Torsional_Energy-OPLS-2005>
253.543991088867

> <r_mmod_Improper_Torsional_Energy-OPLS-2005>
9.10041809082031

> <r_mmod_Van_der_Waal_Energy-OPLS-2005>
114.888999938965

> <r_mmod_Electrostatic_Energy-OPLS-2005>
-401.554534912109

> <r_mmod_Solvation_Energy-OPLS-2005>
-211.169921875

> <b_mmod_Minimization_Converged-OPLS-2005>
0

> <r_mmod_RMS_Derivative-OPLS-2005>
4.56815624237061

$$$$
36
                    3D
 Structure written by MMmdl.
167175  0  0  1  0            999 V2000
  -30.5722  -14.9794   20.4412 C   0  0  0  0  0  0
  -30.4307  -12.6154   19.4948 C   0  0  0  0  0  0
  -29.5119  -12.5295   18.2536 C   0  0  0  0  0  0
  -28.0523  -12.2923   18.6813 C   0  0  0  0  0  0
  -27.6225  -13.2409   19.8274 C   0  0  2  0  0  0
  -28.6640  -13.2884   20.9599 C   0  0  0  0  0  0
  -25.2467  -13.8186   20.5739 C   0  0  0  0  0  0
  -24.1768  -13.0416   20.9247 C   0  0  0  0  0  0
  -24.6370  -11.6908   20.8774 C   0  0  0  0  0  0
  -23.9052  -10.4277   21.0455 C   0  0  0  0  0  0
  -24.3605   -9.4188   21.9223 C   0  0  0  0  0  0
  -23.6296   -8.2207   22.0765 C   0  0  0  0  0  0
  -22.4276   -8.0252   21.3548 C   0  0  0  0  0  0
  -21.9921   -9.0224   20.4663 C   0  0  0  0  0  0
  -22.7235  -10.2114   20.3096 C   0  0  0  0  0  0
  -21.6849   -6.0706   22.5266 C   0  0  0  0  0  0
  -21.4018   -6.5610   23.8196 C   0  0  0  0  0  0
  -21.3657   -5.6773   24.9164 C   0  0  0  0  0  0
  -21.6048   -4.3027   24.7218 C   0  0  0  0  0  0
  -21.8829   -3.8121   23.4341 C   0  0  0  0  0  0
  -21.9196   -4.6936   22.3394 C   0  0  0  0  0  0
  -22.7795  -13.5205   21.1914 C   0  0  0  0  0  0
  -22.1666   -4.2116   21.0974 F   0  0  0  0  0  0
  -21.5632   -3.4522   25.7738 F   0  0  0  0  0  0
  -29.9343  -13.7310   20.3602 N   0  0  0  0  0  0
  -26.2846  -12.9379   20.3229 N   0  0  0  0  0  0
  -25.9296  -11.6526   20.5756 N   0  0  0  0  0  0
  -22.0404  -12.8185   22.0446 N   0  0  0  0  0  0
  -25.4241  -15.1907   20.4215 N   0  0  0  0  0  0
  -31.7863  -14.9721   20.1948 O   0  0  0  0  0  0
  -21.6649   -6.8844   21.4230 O   0  0  0  0  0  0
  -22.3476  -14.5502   20.6757 O   0  0  0  0  0  0
  -24.6426  -31.8387   23.1873 C   0  0  0  0  0  0
  -25.9177  -32.4680   23.8249 C   0  0  1  0  0  0
  -27.2376  -27.1138   20.1725 C   0  0  0  0  0  0
  -25.5920  -33.8496   24.2139 N   0  0  0  0  0  0
  -23.4469  -30.4520   21.5380 C   0  0  2  0  0  0
  -24.9022  -28.8682   20.1219 C   0  0  0  0  0  0
  -22.7549  -29.4490   22.4939 C   0  0  0  0  0  0
  -18.0292  -28.1366   22.8496 C   0  0  0  0  0  0
  -24.1476  -36.7231   23.2645 C   0  0  0  0  0  0
  -26.0037  -30.7067   21.3890 C   0  0  0  0  0  0
  -26.0799  -29.3142   20.7337 C   0  0  0  0  0  0
  -27.2476  -28.4565   20.7358 C   0  0  0  0  0  0
  -26.0297  -26.7688   19.5250 C   0  0  0  0  0  0
  -24.8905  -27.6077   19.5011 C   0  0  0  0  0  0
  -23.6717  -29.7654   20.1638 C   0  0  0  0  0  0
  -25.4118  -36.3008   24.0302 C   0  0  1  0  0  0
  -20.5896  -28.3661   23.1290 C   0  0  2  0  0  0
  -20.6771  -26.9367   22.5439 C   0  0  0  0  0  0
  -19.5751  -26.6350   21.5237 C   0  0  0  0  0  0
  -18.1920  -26.7922   22.1619 C   0  0  0  0  0  0
  -19.1539  -28.8848   23.2876 C   0  0  0  0  0  0
  -18.9456  -30.1467   23.8873 C   0  0  0  0  0  0
  -17.6450  -30.6582   24.0546 C   0  0  0  0  0  0
  -25.9070  -34.9398   23.5025 C   0  0  0  0  0  0
  -16.5345  -29.9057   23.6355 C   0  0  0  0  0  0
  -16.7277  -28.6474   23.0387 C   0  0  0  0  0  0
  -26.4499  -31.6603   25.0723 C   0  0  0  0  0  0
  -25.3679  -31.3834   26.1424 C   0  0  0  0  0  0
  -27.0356  -30.2993   24.6336 C   0  0  0  0  0  0
  -27.6010  -32.4414   25.7483 C   0  0  0  0  0  0
  -27.5569  -37.1750   24.8450 C   0  0  0  0  0  0
  -21.4246  -29.2986   22.3678 N   0  0  0  0  0  0
  -26.4266  -37.3742   23.9413 N   0  0  0  0  0  0
  -24.7171  -31.0206   22.0932 N   0  0  0  0  0  0
  -23.4196  -28.8034   23.3079 O   0  0  0  0  0  0
  -28.3160  -26.1448   20.1791 O   0  0  0  0  0  0
  -26.5670  -34.8908   22.4614 O   0  0  0  0  0  0
  -23.5533  -32.1259   23.7092 O   0  0  0  0  0  0
  -30.9278  -19.6759   22.1654 C   0  0  0  0  0  0
  -30.1112  -18.9831   21.2432 C   0  0  0  0  0  0
  -30.5127  -17.0518   22.7346 C   0  0  0  0  0  0
  -30.1463  -17.4558   21.4058 C   0  0  0  0  0  0
  -31.2719  -17.8991   23.5702 C   0  0  0  0  0  0
  -29.9855  -15.7456   23.3332 C   0  0  0  0  0  0
  -33.8397  -17.1631   26.4430 C   0  0  0  0  0  0
  -29.2083  -16.6044   19.2390 C   0  0  0  0  0  0
  -29.4742  -20.1407   20.2438 C   0  0  0  0  0  0
  -31.8194  -17.4828   24.9400 C   0  0  0  0  0  0
  -33.3540  -17.4561   25.0163 C   0  0  0  0  0  0
  -28.8725  -21.6648   20.7886 C   0  0  0  0  0  0
  -28.9509  -23.2190   20.0771 C   0  0  0  0  0  0
  -28.1424  -24.6393   20.6005 C   0  0  0  0  0  0
  -31.5337  -19.1660   23.2422 N   0  0  0  0  0  0
  -29.8635  -16.2433   20.4946 N   0  0  0  0  0  0
  -31.4643  -12.7642   19.1772 H   0  0  0  0  0  0
  -30.4245  -11.6708   20.0419 H   0  0  0  0  0  0
  -29.8381  -11.7284   17.5903 H   0  0  0  0  0  0
  -29.5802  -13.4530   17.6766 H   0  0  0  0  0  0
  -27.9777  -11.2587   19.0218 H   0  0  0  0  0  0
  -27.3759  -12.3851   17.8303 H   0  0  0  0  0  0
  -27.5761  -14.2355   19.3824 H   0  0  0  0  0  0
  -28.7701  -12.3135   21.4428 H   0  0  0  0  0  0
  -28.3171  -13.9706   21.7277 H   0  0  0  0  0  0
  -25.2727   -9.5646   22.4844 H   0  0  0  0  0  0
  -23.9986   -7.4576   22.7477 H   0  0  0  0  0  0
  -21.0842   -8.8745   19.8961 H   0  0  0  0  0  0
  -22.3688  -10.9665   19.6225 H   0  0  0  0  0  0
  -21.2024   -7.6125   23.9695 H   0  0  0  0  0  0
  -21.1476   -6.0501   25.9064 H   0  0  0  0  0  0
  -22.0627   -2.7581   23.2853 H   0  0  0  0  0  0
  -22.3962  -11.9803   22.4801 H   0  0  0  0  0  0
  -21.1041  -13.1251   22.2668 H   0  0  0  0  0  0
  -24.6717  -15.8588   20.5528 H   0  0  0  0  0  0
  -26.2944  -15.6250   20.1396 H   0  0  0  0  0  0
  -26.7236  -32.5273   23.0967 H   0  0  0  0  0  0
  -25.0086  -33.9628   25.0289 H   0  0  0  0  0  0
  -22.7485  -31.2765   21.3796 H   0  0  0  0  0  0
  -23.3764  -35.9533   23.3272 H   0  0  0  0  0  0
  -24.3558  -36.8913   22.2068 H   0  0  0  0  0  0
  -23.7209  -37.6398   23.6729 H   0  0  0  0  0  0
  -26.1586  -31.4600   20.6152 H   0  0  0  0  0  0
  -26.8731  -30.7606   22.0328 H   0  0  0  0  0  0
  -28.1479  -28.8030   21.2248 H   0  0  0  0  0  0
  -25.9536  -25.8065   19.0400 H   0  0  0  0  0  0
  -23.9882  -27.2552   19.0201 H   0  0  0  0  0  0
  -23.7934  -30.5310   19.3972 H   0  0  0  0  0  0
  -22.7863  -29.1965   19.8695 H   0  0  0  0  0  0
  -25.1312  -36.1816   25.0796 H   0  0  0  0  0  0
  -20.9980  -28.3228   24.1415 H   0  0  0  0  0  0
  -20.5671  -26.2241   23.3630 H   0  0  0  0  0  0
  -21.6630  -26.7385   22.1216 H   0  0  0  0  0  0
  -19.6895  -25.6254   21.1272 H   0  0  0  0  0  0
  -19.6726  -27.3157   20.6760 H   0  0  0  0  0  0
  -17.4208  -26.6729   21.3996 H   0  0  0  0  0  0
  -18.0271  -26.0050   22.8984 H   0  0  0  0  0  0
  -19.7933  -30.7306   24.2202 H   0  0  0  0  0  0
  -17.5000  -31.6279   24.5101 H   0  0  0  0  0  0
  -15.5340  -30.2935   23.7717 H   0  0  0  0  0  0
  -15.8676  -28.0789   22.7115 H   0  0  0  0  0  0
  -24.5873  -30.7143   25.7781 H   0  0  0  0  0  0
  -24.8847  -32.3036   26.4728 H   0  0  0  0  0  0
  -25.7965  -30.9121   27.0279 H   0  0  0  0  0  0
  -26.2984  -29.6745   24.1281 H   0  0  0  0  0  0
  -27.3877  -29.7278   25.4933 H   0  0  0  0  0  0
  -27.8929  -30.4214   23.9710 H   0  0  0  0  0  0
  -27.2582  -33.3760   26.1943 H   0  0  0  0  0  0
  -28.3858  -32.6932   25.0333 H   0  0  0  0  0  0
  -28.0638  -31.8642   26.5496 H   0  0  0  0  0  0
  -28.2547  -38.0082   24.7545 H   0  0  0  0  0  0
  -28.1101  -36.2620   24.6212 H   0  0  0  0  0  0
  -27.2298  -37.1315   25.8852 H   0  0  0  0  0  0
  -20.9448  -29.8686   21.6862 H   0  0  0  0  0  0
  -26.0117  -38.2780   24.1509 H   0  0  0  0  0  0
  -31.1232  -20.7292   22.0382 H   0  0  0  0  0  0
  -29.0313  -15.5037   22.8797 H   0  0  0  0  0  0
  -29.7232  -15.8415   24.3864 H   0  0  0  0  0  0
  -30.6851  -14.9166   23.2176 H   0  0  0  0  0  0
  -34.9276  -17.1204   26.4966 H   0  0  0  0  0  0
  -33.4480  -16.2113   26.8055 H   0  0  0  0  0  0
  -33.5079  -17.9381   27.1337 H   0  0  0  0  0  0
  -29.7486  -17.4197   18.7566 H   0  0  0  0  0  0
  -28.1891  -16.9387   19.4308 H   0  0  0  0  0  0
  -29.1644  -15.7883   18.5151 H   0  0  0  0  0  0
  -28.7191  -19.6770   19.6090 H   0  0  0  0  0  0
  -30.2959  -20.3721   19.5673 H   0  0  0  0  0  0
  -31.4900  -16.4938   25.2443 H   0  0  0  0  0  0
  -31.4193  -18.1674   25.6893 H   0  0  0  0  0  0
  -33.7409  -16.7067   24.3251 H   0  0  0  0  0  0
  -33.7668  -18.4115   24.6915 H   0  0  0  0  0  0
  -29.2603  -21.8187   21.7948 H   0  0  0  0  0  0
  -27.8092  -21.4965   20.9641 H   0  0  0  0  0  0
  -28.6640  -23.0794   19.0355 H   0  0  0  0  0  0
  -30.0118  -23.4720   20.0418 H   0  0  0  0  0  0
  -27.0767  -24.4224   20.5621 H   0  0  0  0  0  0
  -28.3660  -24.6880   21.6664 H   0  0  0  0  0  0
  1 25  1  0  0  0
  1 30  2  0  0  0
  1 86  1  0  0  0
  2  3  1  0  0  0
  2 25  1  0  0  0
  2 87  1  0  0  0
  2 88  1  0  0  0
  3  4  1  0  0  0
  3 89  1  0  0  0
  3 90  1  0  0  0
  4  5  1  0  0  0
  4 91  1  0  0  0
  4 92  1  0  0  0
  5  6  1  0  0  0
  5 26  1  0  0  0
  5 93  1  0  0  0
  6 25  1  0  0  0
  6 94  1  0  0  0
  6 95  1  0  0  0
  7  8  2  0  0  0
  7 26  1  0  0  0
  7 29  1  0  0  0
  8  9  1  0  0  0
  8 22  1  0  0  0
  9 10  1  0  0  0
  9 27  2  0  0  0
 10 11  2  0  0  0
 10 15  1  0  0  0
 11 12  1  0  0  0
 11 96  1  0  0  0
 12 13  2  0  0  0
 12 97  1  0  0  0
 13 14  1  0  0  0
 13 31  1  0  0  0
 14 15  2  0  0  0
 14 98  1  0  0  0
 15 99  1  0  0  0
 16 17  2  0  0  0
 16 21  1  0  0  0
 16 31  1  0  0  0
 17 18  1  0  0  0
 17100  1  0  0  0
 18 19  2  0  0  0
 18101  1  0  0  0
 19 20  1  0  0  0
 19 24  1  0  0  0
 20 21  2  0  0  0
 20102  1  0  0  0
 21 23  1  0  0  0
 22 28  1  0  0  0
 22 32  2  0  0  0
 26 27  1  0  0  0
 28103  1  0  0  0
 28104  1  0  0  0
 29105  1  0  0  0
 29106  1  0  0  0
 33 34  1  0  0  0
 33 66  1  0  0  0
 33 70  2  0  0  0
 34 36  1  0  0  0
 34 59  1  0  0  0
 34107  1  0  0  0
 35 44  2  0  0  0
 35 45  1  0  0  0
 35 68  1  0  0  0
 36 56  1  0  0  0
 36108  1  0  0  0
 37 39  1  0  0  0
 37 47  1  0  0  0
 37 66  1  0  0  0
 37109  1  0  0  0
 38 43  2  0  0  0
 38 46  1  0  0  0
 38 47  1  0  0  0
 39 64  1  0  0  0
 39 67  2  0  0  0
 40 52  1  0  0  0
 40 53  2  0  0  0
 40 58  1  0  0  0
 41110  1  0  0  0
 41111  1  0  0  0
 41112  1  0  0  0
 41 48  1  0  0  0
 42 43  1  0  0  0
 42 66  1  0  0  0
 42113  1  0  0  0
 42114  1  0  0  0
 43 44  1  0  0  0
 44115  1  0  0  0
 45 46  2  0  0  0
 45116  1  0  0  0
 46117  1  0  0  0
 47118  1  0  0  0
 47119  1  0  0  0
 48 56  1  0  0  0
 48 65  1  0  0  0
 48120  1  0  0  0
 49 50  1  0  0  0
 49 53  1  0  0  0
 49 64  1  0  0  0
 49121  1  0  0  0
 50 51  1  0  0  0
 50122  1  0  0  0
 50123  1  0  0  0
 51 52  1  0  0  0
 51124  1  0  0  0
 51125  1  0  0  0
 52126  1  0  0  0
 52127  1  0  0  0
 53 54  1  0  0  0
 54 55  2  0  0  0
 54128  1  0  0  0
 55 57  1  0  0  0
 55129  1  0  0  0
 56 69  2  0  0  0
 57 58  2  0  0  0
 57130  1  0  0  0
 58131  1  0  0  0
 59 60  1  0  0  0
 59 61  1  0  0  0
 59 62  1  0  0  0
 60132  1  0  0  0
 60133  1  0  0  0
 60134  1  0  0  0
 61135  1  0  0  0
 61136  1  0  0  0
 61137  1  0  0  0
 62138  1  0  0  0
 62139  1  0  0  0
 62140  1  0  0  0
 63 65  1  0  0  0
 63141  1  0  0  0
 63142  1  0  0  0
 63143  1  0  0  0
 64144  1  0  0  0
 65145  1  0  0  0
 68 84  1  0  0  0
 71 72  2  0  0  0
 71 85  1  0  0  0
 71146  1  0  0  0
 72 74  1  0  0  0
 72 79  1  0  0  0
 73 74  2  0  0  0
 73 75  1  0  0  0
 73 76  1  0  0  0
 74 86  1  0  0  0
 75 80  1  0  0  0
 75 85  2  0  0  0
 76147  1  0  0  0
 76148  1  0  0  0
 76149  1  0  0  0
 77 81  1  0  0  0
 77150  1  0  0  0
 77151  1  0  0  0
 77152  1  0  0  0
 78 86  1  0  0  0
 78153  1  0  0  0
 78154  1  0  0  0
 78155  1  0  0  0
 79 82  1  0  0  0
 79156  1  0  0  0
 79157  1  0  0  0
 80 81  1  0  0  0
 80158  1  0  0  0
 80159  1  0  0  0
 81160  1  0  0  0
 81161  1  0  0  0
 82 83  1  0  0  0
 82162  1  0  0  0
 82163  1  0  0  0
 83 84  1  0  0  0
 83164  1  0  0  0
 83165  1  0  0  0
 84166  1  0  0  0
 84167  1  0  0  0
M  ISO  4   1 100  68 101  84 101  86 100
M  END
> <chiral flag>
0

> <version>
0

> <s_m_source_file>
/data/baiqing/PycharmProjects/Reinvent-master-3.2/result/LINK_invent/BTK/process_docking_weight1_custom_sum_contain_oxygen_bond_distance_aromatic_linkinvent_7_9_3/rearranged_h_0096.sdf

> <i_m_source_file_index>
37

> <r_mmod_Potential_Energy-OPLS-2005>
799.320007324219

> <r_mmod_Stretch_Energy-OPLS-2005>
350.844207763672

> <r_mmod_Bend_Energy-OPLS-2005>
353.279235839844

> <r_mmod_Torsional_Energy-OPLS-2005>
350.245513916016

> <r_mmod_Improper_Torsional_Energy-OPLS-2005>
9.03788280487061

> <r_mmod_Van_der_Waal_Energy-OPLS-2005>
149.234970092773

> <r_mmod_Electrostatic_Energy-OPLS-2005>
-414.724243164062

> <r_mmod_Solvation_Energy-OPLS-2005>
-203.243103027344

> <b_mmod_Minimization_Converged-OPLS-2005>
0

> <r_mmod_RMS_Derivative-OPLS-2005>
4.36094284057617

$$$$
37
                    3D
 Structure written by MMmdl.
152160  0  0  1  0            999 V2000
  -30.4406  -15.2241   20.3728 C   0  0  0  0  0  0
  -30.4403  -12.7783   19.5161 C   0  0  0  0  0  0
  -29.5349  -12.5675   18.2768 C   0  0  0  0  0  0
  -28.0695  -12.3242   18.6869 C   0  0  0  0  0  0
  -27.6118  -13.2753   19.8235 C   0  0  2  0  0  0
  -28.6522  -13.4171   20.9551 C   0  0  0  0  0  0
  -25.2393  -13.8234   20.5735 C   0  0  0  0  0  0
  -24.1754  -13.0431   20.9262 C   0  0  0  0  0  0
  -24.6403  -11.6929   20.8771 C   0  0  0  0  0  0
  -23.9085  -10.4293   21.0411 C   0  0  0  0  0  0
  -24.3633   -9.4196   21.9184 C   0  0  0  0  0  0
  -23.6306   -8.2231   22.0753 C   0  0  0  0  0  0
  -22.4294   -8.0267   21.3534 C   0  0  0  0  0  0
  -21.9927   -9.0239   20.4643 C   0  0  0  0  0  0
  -22.7257  -10.2126   20.3053 C   0  0  0  0  0  0
  -21.6850   -6.0719   22.5269 C   0  0  0  0  0  0
  -21.4015   -6.5635   23.8197 C   0  0  0  0  0  0
  -21.3669   -5.6795   24.9164 C   0  0  0  0  0  0
  -21.6044   -4.3053   24.7224 C   0  0  0  0  0  0
  -21.8824   -3.8135   23.4346 C   0  0  0  0  0  0
  -21.9197   -4.6943   22.3399 C   0  0  0  0  0  0
  -22.7779  -13.5171   21.1911 C   0  0  0  0  0  0
  -22.1674   -4.2124   21.0977 F   0  0  0  0  0  0
  -21.5632   -3.4555   25.7744 F   0  0  0  0  0  0
  -29.8840  -13.9184   20.3262 N   0  0  0  0  0  0
  -26.2821  -12.9514   20.3215 N   0  0  0  0  0  0
  -25.9342  -11.6625   20.5738 N   0  0  0  0  0  0
  -22.0447  -12.8144   22.0465 N   0  0  0  0  0  0
  -25.4002  -15.1972   20.4112 N   0  0  0  0  0  0
  -31.6649  -15.2424   20.1810 O   0  0  0  0  0  0
  -21.6648   -6.8875   21.4236 O   0  0  0  0  0  0
  -22.3457  -14.5474   20.6757 O   0  0  0  0  0  0
  -24.6580  -31.8264   23.1720 C   0  0  0  0  0  0
  -25.9279  -32.4591   23.8183 C   0  0  1  0  0  0
  -27.2264  -26.9502   20.1988 C   0  0  0  0  0  0
  -25.5958  -33.8412   24.2083 N   0  0  0  0  0  0
  -23.4718  -30.4333   21.5205 C   0  0  2  0  0  0
  -24.9269  -28.8168   20.1176 C   0  0  0  0  0  0
  -22.7637  -29.4435   22.4807 C   0  0  0  0  0  0
  -18.0323  -28.1402   22.8479 C   0  0  0  0  0  0
  -24.1500  -36.7211   23.2647 C   0  0  0  0  0  0
  -26.0363  -30.6395   21.3998 C   0  0  0  0  0  0
  -26.1047  -29.2277   20.7523 C   0  0  0  0  0  0
  -27.2454  -28.3128   20.7695 C   0  0  0  0  0  0
  -26.0209  -26.6812   19.5145 C   0  0  0  0  0  0
  -24.9069  -27.5631   19.4806 C   0  0  0  0  0  0
  -23.7116  -29.7428   20.1482 C   0  0  0  0  0  0
  -25.4140  -36.2973   24.0301 C   0  0  1  0  0  0
  -20.5945  -28.3740   23.1208 C   0  0  2  0  0  0
  -20.6790  -26.9426   22.5418 C   0  0  0  0  0  0
  -19.5764  -26.6369   21.5228 C   0  0  0  0  0  0
  -18.1944  -26.7939   22.1635 C   0  0  0  0  0  0
  -19.1581  -28.8899   23.2824 C   0  0  0  0  0  0
  -18.9493  -30.1490   23.8853 C   0  0  0  0  0  0
  -17.6484  -30.6592   24.0556 C   0  0  0  0  0  0
  -25.9094  -34.9351   23.5012 C   0  0  0  0  0  0
  -16.5380  -29.9078   23.6336 C   0  0  0  0  0  0
  -16.7304  -28.6502   23.0357 C   0  0  0  0  0  0
  -26.4549  -31.6537   25.0702 C   0  0  0  0  0  0
  -25.3671  -31.3794   26.1352 C   0  0  0  0  0  0
  -27.0429  -30.2902   24.6421 C   0  0  0  0  0  0
  -27.6025  -32.4350   25.7508 C   0  0  0  0  0  0
  -27.5574  -37.1767   24.8457 C   0  0  0  0  0  0
  -21.4319  -29.3024   22.3553 N   0  0  0  0  0  0
  -26.4283  -37.3703   23.9401 N   0  0  0  0  0  0
  -24.7428  -30.9947   22.0841 N   0  0  0  0  0  0
  -23.4201  -28.8010   23.3040 O   0  0  0  0  0  0
  -28.3041  -25.9307   20.2315 O   0  0  0  0  0  0
  -26.5711  -34.8878   22.4609 O   0  0  0  0  0  0
  -23.5656  -32.1218   23.6822 O   0  0  0  0  0  0
  -29.8344  -22.1904   20.3787 C   0  0  0  0  0  0
  -27.5622  -22.0538   20.1748 C   0  0  0  0  0  0
  -28.7693  -21.2158   20.2537 C   0  0  0  0  0  0
  -29.6702  -23.6674   20.3915 C   0  0  0  0  0  0
  -28.4153  -24.3973   20.2611 C   0  0  0  0  0  0
  -30.9225  -24.5080   20.5584 C   0  0  0  0  0  0
  -29.8987  -18.1207   20.5147 C   0  0  0  0  0  0
  -28.7880  -19.4602   20.1207 C   0  0  2  0  0  0
  -27.3838  -23.4734   20.1628 N   0  0  0  0  0  0
  -29.6525  -16.4725   20.4401 N   0  0  0  0  0  0
  -28.3211  -19.1416   18.7621 N   0  3  0  0  0  0
  -31.4599  -12.9805   19.1848 H   0  0  0  0  0  0
  -30.4966  -11.8678   20.1160 H   0  0  0  0  0  0
  -29.8982  -11.7341   17.6744 H   0  0  0  0  0  0
  -29.5930  -13.4503   17.6399 H   0  0  0  0  0  0
  -27.9803  -11.2886   19.0119 H   0  0  0  0  0  0
  -27.4139  -12.4267   17.8218 H   0  0  0  0  0  0
  -27.5317  -14.2530   19.3489 H   0  0  0  0  0  0
  -28.8138  -12.4729   21.4765 H   0  0  0  0  0  0
  -28.3072  -14.1290   21.7075 H   0  0  0  0  0  0
  -25.2776   -9.5682   22.4769 H   0  0  0  0  0  0
  -24.0004   -7.4629   22.7481 H   0  0  0  0  0  0
  -21.0850   -8.8753   19.8964 H   0  0  0  0  0  0
  -22.3683  -10.9662   19.6171 H   0  0  0  0  0  0
  -21.2005   -7.6144   23.9689 H   0  0  0  0  0  0
  -21.1500   -6.0532   25.9067 H   0  0  0  0  0  0
  -22.0600   -2.7591   23.2848 H   0  0  0  0  0  0
  -22.4108  -11.9806   22.4824 H   0  0  0  0  0  0
  -21.1053  -13.1138   22.2697 H   0  0  0  0  0  0
  -24.6153  -15.8353   20.4909 H   0  0  0  0  0  0
  -26.2112  -15.6225   19.9857 H   0  0  0  0  0  0
  -26.7342  -32.5148   23.0891 H   0  0  0  0  0  0
  -25.0034  -33.9509   25.0190 H   0  0  0  0  0  0
  -22.7831  -31.2622   21.3468 H   0  0  0  0  0  0
  -23.3770  -35.9527   23.3276 H   0  0  0  0  0  0
  -24.3566  -36.8895   22.2062 H   0  0  0  0  0  0
  -23.7252  -37.6388   23.6733 H   0  0  0  0  0  0
  -26.2120  -31.3821   20.6198 H   0  0  0  0  0  0
  -26.8963  -30.6973   22.0542 H   0  0  0  0  0  0
  -28.1436  -28.6297   21.2814 H   0  0  0  0  0  0
  -25.9191  -25.7229   19.0242 H   0  0  0  0  0  0
  -24.0111  -27.2421   18.9672 H   0  0  0  0  0  0
  -23.8665  -30.5068   19.3857 H   0  0  0  0  0  0
  -22.8225  -29.1935   19.8325 H   0  0  0  0  0  0
  -25.1343  -36.1762   25.0792 H   0  0  0  0  0  0
  -21.0034  -28.3350   24.1335 H   0  0  0  0  0  0
  -20.5680  -26.2358   23.3656 H   0  0  0  0  0  0
  -21.6647  -26.7401   22.1226 H   0  0  0  0  0  0
  -19.6917  -25.6267   21.1284 H   0  0  0  0  0  0
  -19.6702  -27.3152   20.6738 H   0  0  0  0  0  0
  -17.4220  -26.6701   21.4028 H   0  0  0  0  0  0
  -18.0330  -26.0091   22.9040 H   0  0  0  0  0  0
  -19.7962  -30.7320   24.2202 H   0  0  0  0  0  0
  -17.5028  -31.6265   24.5158 H   0  0  0  0  0  0
  -15.5369  -30.2953   23.7684 H   0  0  0  0  0  0
  -15.8714  -28.0790   22.7096 H   0  0  0  0  0  0
  -24.5823  -30.7193   25.7663 H   0  0  0  0  0  0
  -24.8894  -32.2999   26.4718 H   0  0  0  0  0  0
  -25.7880  -30.8982   27.0188 H   0  0  0  0  0  0
  -26.3089  -29.6582   24.1408 H   0  0  0  0  0  0
  -27.3937  -29.7271   25.5084 H   0  0  0  0  0  0
  -27.9044  -30.4086   23.9839 H   0  0  0  0  0  0
  -27.2574  -33.3667   26.2007 H   0  0  0  0  0  0
  -28.3877  -32.6898   25.0376 H   0  0  0  0  0  0
  -28.0647  -31.8537   26.5498 H   0  0  0  0  0  0
  -28.2566  -38.0088   24.7506 H   0  0  0  0  0  0
  -28.1103  -36.2614   24.6288 H   0  0  0  0  0  0
  -27.2284  -37.1398   25.8857 H   0  0  0  0  0  0
  -20.9583  -29.8713   21.6678 H   0  0  0  0  0  0
  -26.0133  -38.2759   24.1408 H   0  0  0  0  0  0
  -30.8384  -21.7981   20.4639 H   0  0  0  0  0  0
  -26.6249  -21.5287   20.0683 H   0  0  0  0  0  0
  -31.8166  -23.8923   20.6589 H   0  0  0  0  0  0
  -30.8429  -25.1261   21.4539 H   0  0  0  0  0  0
  -31.0599  -25.1703   19.7024 H   0  0  0  0  0  0
  -30.2087  -18.2947   21.5449 H   0  0  0  0  0  0
  -30.8078  -18.2933   19.9385 H   0  0  0  0  0  0
  -27.9399  -19.2210   20.7650 H   0  0  0  0  0  0
  -28.6746  -16.2453   20.5502 H   0  0  0  0  0  0
  -29.0109  -19.4114   18.0831 H   0  0  0  0  0  0
  -27.4536  -19.5943   18.5425 H   0  0  0  0  0  0
  -28.1824  -18.1511   18.6783 H   0  0  0  0  0  0
  1 25  1  0  0  0
  1 30  2  0  0  0
  1 80  1  0  0  0
  2  3  1  0  0  0
  2 25  1  0  0  0
  2 82  1  0  0  0
  2 83  1  0  0  0
  3  4  1  0  0  0
  3 84  1  0  0  0
  3 85  1  0  0  0
  4  5  1  0  0  0
  4 86  1  0  0  0
  4 87  1  0  0  0
  5  6  1  0  0  0
  5 26  1  0  0  0
  5 88  1  0  0  0
  6 25  1  0  0  0
  6 89  1  0  0  0
  6 90  1  0  0  0
  7  8  2  0  0  0
  7 26  1  0  0  0
  7 29  1  0  0  0
  8  9  1  0  0  0
  8 22  1  0  0  0
  9 10  1  0  0  0
  9 27  2  0  0  0
 10 11  2  0  0  0
 10 15  1  0  0  0
 11 12  1  0  0  0
 11 91  1  0  0  0
 12 13  2  0  0  0
 12 92  1  0  0  0
 13 14  1  0  0  0
 13 31  1  0  0  0
 14 15  2  0  0  0
 14 93  1  0  0  0
 15 94  1  0  0  0
 16 17  2  0  0  0
 16 21  1  0  0  0
 16 31  1  0  0  0
 17 18  1  0  0  0
 17 95  1  0  0  0
 18 19  2  0  0  0
 18 96  1  0  0  0
 19 20  1  0  0  0
 19 24  1  0  0  0
 20 21  2  0  0  0
 20 97  1  0  0  0
 21 23  1  0  0  0
 22 28  1  0  0  0
 22 32  2  0  0  0
 26 27  1  0  0  0
 28 98  1  0  0  0
 28 99  1  0  0  0
 29100  1  0  0  0
 29101  1  0  0  0
 33 34  1  0  0  0
 33 66  1  0  0  0
 33 70  2  0  0  0
 34 36  1  0  0  0
 34 59  1  0  0  0
 34102  1  0  0  0
 35 44  2  0  0  0
 35 45  1  0  0  0
 35 68  1  0  0  0
 36 56  1  0  0  0
 36103  1  0  0  0
 37 39  1  0  0  0
 37 47  1  0  0  0
 37 66  1  0  0  0
 37104  1  0  0  0
 38 43  2  0  0  0
 38 46  1  0  0  0
 38 47  1  0  0  0
 39 64  1  0  0  0
 39 67  2  0  0  0
 40 52  1  0  0  0
 40 53  2  0  0  0
 40 58  1  0  0  0
 41105  1  0  0  0
 41106  1  0  0  0
 41107  1  0  0  0
 41 48  1  0  0  0
 42 43  1  0  0  0
 42 66  1  0  0  0
 42108  1  0  0  0
 42109  1  0  0  0
 43 44  1  0  0  0
 44110  1  0  0  0
 45 46  2  0  0  0
 45111  1  0  0  0
 46112  1  0  0  0
 47113  1  0  0  0
 47114  1  0  0  0
 48 56  1  0  0  0
 48 65  1  0  0  0
 48115  1  0  0  0
 49 50  1  0  0  0
 49 53  1  0  0  0
 49 64  1  0  0  0
 49116  1  0  0  0
 50 51  1  0  0  0
 50117  1  0  0  0
 50118  1  0  0  0
 51 52  1  0  0  0
 51119  1  0  0  0
 51120  1  0  0  0
 52121  1  0  0  0
 52122  1  0  0  0
 53 54  1  0  0  0
 54 55  2  0  0  0
 54123  1  0  0  0
 55 57  1  0  0  0
 55124  1  0  0  0
 56 69  2  0  0  0
 57 58  2  0  0  0
 57125  1  0  0  0
 58126  1  0  0  0
 59 60  1  0  0  0
 59 61  1  0  0  0
 59 62  1  0  0  0
 60127  1  0  0  0
 60128  1  0  0  0
 60129  1  0  0  0
 61130  1  0  0  0
 61131  1  0  0  0
 61132  1  0  0  0
 62133  1  0  0  0
 62134  1  0  0  0
 62135  1  0  0  0
 63 65  1  0  0  0
 63136  1  0  0  0
 63137  1  0  0  0
 63138  1  0  0  0
 64139  1  0  0  0
 65140  1  0  0  0
 68 75  1  0  0  0
 71 73  2  0  0  0
 71 74  1  0  0  0
 71141  1  0  0  0
 72 73  1  0  0  0
 72 79  2  0  0  0
 72142  1  0  0  0
 73 78  1  0  0  0
 74 75  2  0  0  0
 74 76  1  0  0  0
 75 79  1  0  0  0
 76143  1  0  0  0
 76144  1  0  0  0
 76145  1  0  0  0
 77 78  1  0  0  0
 77 80  1  0  0  0
 77146  1  0  0  0
 77147  1  0  0  0
 78 81  1  0  0  0
 78148  1  0  0  0
 80149  1  0  0  0
 81150  1  0  0  0
 81151  1  0  0  0
 81152  1  0  0  0
M  CHG  1  81   1
M  ISO  4   1 100  68 101  75 101  80 100
M  END
> <chiral flag>
0

> <version>
0

> <s_m_source_file>
/data/baiqing/PycharmProjects/Reinvent-master-3.2/result/LINK_invent/BTK/process_docking_weight1_custom_sum_contain_oxygen_bond_distance_aromatic_linkinvent_7_9_3/rearranged_h_0096.sdf

> <i_m_source_file_index>
38

> <r_mmod_Potential_Energy-OPLS-2005>
652.148010253906

> <r_mmod_Stretch_Energy-OPLS-2005>
482.207489013672

> <r_mmod_Bend_Energy-OPLS-2005>
431.342254638672

> <r_mmod_Torsional_Energy-OPLS-2005>
229.790664672852

> <r_mmod_Improper_Torsional_Energy-OPLS-2005>
4.54378700256348

> <r_mmod_Van_der_Waal_Energy-OPLS-2005>
126.027084350586

> <r_mmod_Electrostatic_Energy-OPLS-2005>
-481.019348144531

> <r_mmod_Solvation_Energy-OPLS-2005>
-546.632019042969

> <b_mmod_Minimization_Converged-OPLS-2005>
0

> <r_mmod_RMS_Derivative-OPLS-2005>
2.46814036369324

$$$$
38
                    3D
 Structure written by MMmdl.
165173  0  0  1  0            999 V2000
  -30.4660  -15.0287   20.5062 C   0  0  0  0  0  0
  -30.4687  -12.6626   19.4875 C   0  0  0  0  0  0
  -29.5394  -12.5933   18.2475 C   0  0  0  0  0  0
  -28.0603  -12.3373   18.6296 C   0  0  0  0  0  0
  -27.6401  -13.1981   19.8464 C   0  0  2  0  0  0
  -28.7046  -13.1173   20.9774 C   0  0  0  0  0  0
  -25.2407  -13.8026   20.5416 C   0  0  0  0  0  0
  -24.1735  -13.0318   20.9100 C   0  0  0  0  0  0
  -24.6348  -11.6834   20.8717 C   0  0  0  0  0  0
  -23.8997  -10.4242   21.0446 C   0  0  0  0  0  0
  -24.3562   -9.4158   21.9205 C   0  0  0  0  0  0
  -23.6213   -8.2208   22.0767 C   0  0  0  0  0  0
  -22.4207   -8.0239   21.3555 C   0  0  0  0  0  0
  -21.9857   -9.0216   20.4664 C   0  0  0  0  0  0
  -22.7180  -10.2094   20.3066 C   0  0  0  0  0  0
  -21.6833   -6.0702   22.5278 C   0  0  0  0  0  0
  -21.4032   -6.5628   23.8206 C   0  0  0  0  0  0
  -21.3684   -5.6777   24.9164 C   0  0  0  0  0  0
  -21.6032   -4.3035   24.7220 C   0  0  0  0  0  0
  -21.8806   -3.8124   23.4351 C   0  0  0  0  0  0
  -21.9171   -4.6931   22.3401 C   0  0  0  0  0  0
  -22.7748  -13.5149   21.1832 C   0  0  0  0  0  0
  -22.1628   -4.2119   21.0976 F   0  0  0  0  0  0
  -21.5618   -3.4521   25.7745 F   0  0  0  0  0  0
  -29.9304  -13.7172   20.4132 N   0  0  0  0  0  0
  -26.2894  -12.9191   20.3186 N   0  0  0  0  0  0
  -25.9274  -11.6397   20.5731 N   0  0  0  0  0  0
  -22.0421  -12.8160   22.0437 N   0  0  0  0  0  0
  -25.3834  -15.1711   20.3528 N   0  0  0  0  0  0
  -31.6624  -15.1054   20.1825 O   0  0  0  0  0  0
  -21.6590   -6.8836   21.4229 O   0  0  0  0  0  0
  -22.3434  -14.5475   20.6711 O   0  0  0  0  0  0
  -24.6437  -31.8431   23.1843 C   0  0  0  0  0  0
  -25.9197  -32.4705   23.8246 C   0  0  1  0  0  0
  -27.2489  -27.1568   20.1256 C   0  0  0  0  0  0
  -25.5945  -33.8509   24.2179 N   0  0  0  0  0  0
  -23.4481  -30.4572   21.5357 C   0  0  2  0  0  0
  -24.8973  -28.8794   20.1151 C   0  0  0  0  0  0
  -22.7590  -29.4534   22.4956 C   0  0  0  0  0  0
  -18.0353  -28.1366   22.8299 C   0  0  0  0  0  0
  -24.1448  -36.7251   23.2635 C   0  0  0  0  0  0
  -25.9947  -30.7325   21.3582 C   0  0  0  0  0  0
  -26.0757  -29.3380   20.7129 C   0  0  0  0  0  0
  -27.2484  -28.4957   20.6939 C   0  0  0  0  0  0
  -26.0284  -26.7791   19.5208 C   0  0  0  0  0  0
  -24.8835  -27.6108   19.5119 C   0  0  0  0  0  0
  -23.6669  -29.7753   20.1560 C   0  0  0  0  0  0
  -25.4059  -36.3035   24.0322 C   0  0  1  0  0  0
  -20.5956  -28.3628   23.1363 C   0  0  2  0  0  0
  -20.6870  -26.9368   22.5433 C   0  0  0  0  0  0
  -19.5970  -26.6398   21.5059 C   0  0  0  0  0  0
  -18.2019  -26.8010   22.1201 C   0  0  0  0  0  0
  -19.1590  -28.8764   23.2904 C   0  0  0  0  0  0
  -18.9441  -30.1290   23.9061 C   0  0  0  0  0  0
  -17.6435  -30.6425   24.0663 C   0  0  0  0  0  0
  -25.9063  -34.9432   23.5078 C   0  0  0  0  0  0
  -16.5362  -29.8973   23.6263 C   0  0  0  0  0  0
  -16.7344  -28.6469   23.0134 C   0  0  0  0  0  0
  -26.4504  -31.6587   25.0681 C   0  0  0  0  0  0
  -25.3703  -31.3803   26.1408 C   0  0  0  0  0  0
  -27.0307  -30.3006   24.6137 C   0  0  0  0  0  0
  -27.6067  -32.4309   25.7456 C   0  0  0  0  0  0
  -27.5527  -37.1784   24.8456 C   0  0  0  0  0  0
  -21.4277  -29.3058   22.3820 N   0  0  0  0  0  0
  -26.4205  -37.3771   23.9459 N   0  0  0  0  0  0
  -24.7192  -31.0288   22.0865 N   0  0  0  0  0  0
  -23.4266  -28.8037   23.3055 O   0  0  0  0  0  0
  -28.3536  -26.2323   20.2044 O   0  0  0  0  0  0
  -26.5649  -34.8966   22.4660 O   0  0  0  0  0  0
  -23.5562  -32.1335   23.7075 O   0  0  0  0  0  0
  -26.3660  -20.2164   21.0870 C   0  0  0  0  0  0
  -27.2851  -20.7488   20.1895 C   0  0  0  0  0  0
  -28.1831  -18.9559   22.0799 C   0  0  0  0  0  0
  -26.8417  -19.4228   22.1439 C   0  0  0  0  0  0
  -28.6635  -20.4733   20.2737 C   0  0  0  0  0  0
  -29.0292  -19.1585   20.9453 C   0  0  0  0  0  0
  -24.4651  -19.5880   23.1889 C   0  0  0  0  0  0
  -26.4514  -19.2436   24.6774 C   0  0  0  0  0  0
  -28.3539  -16.1756   21.3200 C   0  0  0  0  0  0
  -29.3931  -21.8838   19.8712 C   0  0  0  0  0  0
  -30.0252  -17.8405   20.5486 C   0  0  0  0  0  0
  -28.7975  -23.3653   20.4727 C   0  0  0  0  0  0
  -28.4474  -24.7847   19.6373 C   0  0  0  0  0  0
  -25.8894  -18.9821   23.2693 C   0  0  0  0  0  0
  -29.6863  -16.2525   20.7251 N   0  0  0  0  0  0
  -31.4868  -12.8782   19.1627 H   0  0  0  0  0  0
  -30.5345  -11.6830   19.9664 H   0  0  0  0  0  0
  -29.8871  -11.8323   17.5472 H   0  0  0  0  0  0
  -29.6108  -13.5425   17.7150 H   0  0  0  0  0  0
  -27.9270  -11.2789   18.8556 H   0  0  0  0  0  0
  -27.4137  -12.5465   17.7774 H   0  0  0  0  0  0
  -27.6222  -14.2057   19.4382 H   0  0  0  0  0  0
  -28.8488  -12.0697   21.2557 H   0  0  0  0  0  0
  -28.4050  -13.5632   21.9234 H   0  0  0  0  0  0
  -25.2715   -9.5602   22.4763 H   0  0  0  0  0  0
  -23.9902   -7.4590   22.7488 H   0  0  0  0  0  0
  -21.0777   -8.8736   19.8955 H   0  0  0  0  0  0
  -22.3650  -10.9621   19.6153 H   0  0  0  0  0  0
  -21.2075   -7.6142   23.9704 H   0  0  0  0  0  0
  -21.1507   -6.0523   25.9078 H   0  0  0  0  0  0
  -22.0567   -2.7578   23.2850 H   0  0  0  0  0  0
  -22.3997  -11.9846   22.4877 H   0  0  0  0  0  0
  -21.1088  -13.1279   22.2697 H   0  0  0  0  0  0
  -24.5941  -15.8022   20.4302 H   0  0  0  0  0  0
  -26.2183  -15.6274   20.0119 H   0  0  0  0  0  0
  -26.7275  -32.5301   23.0994 H   0  0  0  0  0  0
  -24.9960  -33.9583   25.0227 H   0  0  0  0  0  0
  -22.7495  -31.2782   21.3816 H   0  0  0  0  0  0
  -23.3725  -35.9576   23.3250 H   0  0  0  0  0  0
  -24.3557  -36.8898   22.2064 H   0  0  0  0  0  0
  -23.7185  -37.6433   23.6678 H   0  0  0  0  0  0
  -26.0968  -31.4706   20.5640 H   0  0  0  0  0  0
  -26.8858  -30.8272   21.9677 H   0  0  0  0  0  0
  -28.1571  -28.8586   21.1576 H   0  0  0  0  0  0
  -25.9034  -25.7964   19.0951 H   0  0  0  0  0  0
  -23.9753  -27.2320   19.0685 H   0  0  0  0  0  0
  -23.7979  -30.5447   19.3958 H   0  0  0  0  0  0
  -22.7800  -29.2104   19.8531 H   0  0  0  0  0  0
  -25.1236  -36.1851   25.0802 H   0  0  0  0  0  0
  -20.9999  -28.3117   24.1515 H   0  0  0  0  0  0
  -20.5678  -26.2139   23.3534 H   0  0  0  0  0  0
  -21.6768  -26.7421   22.1310 H   0  0  0  0  0  0
  -19.7187  -25.6347   21.1003 H   0  0  0  0  0  0
  -19.7081  -27.3255   20.6654 H   0  0  0  0  0  0
  -17.4570  -26.7143   21.3268 H   0  0  0  0  0  0
  -18.0060  -25.9956   22.8279 H   0  0  0  0  0  0
  -19.7909  -30.6996   24.2594 H   0  0  0  0  0  0
  -17.4983  -31.5990   24.5468 H   0  0  0  0  0  0
  -15.5350  -30.2824   23.7549 H   0  0  0  0  0  0
  -15.8820  -28.0792   22.6643 H   0  0  0  0  0  0
  -24.5890  -30.7116   25.7776 H   0  0  0  0  0  0
  -24.8856  -32.3005   26.4714 H   0  0  0  0  0  0
  -25.8008  -30.9093   27.0262 H   0  0  0  0  0  0
  -26.2907  -29.6848   24.1006 H   0  0  0  0  0  0
  -27.3868  -29.7165   25.4627 H   0  0  0  0  0  0
  -27.8837  -30.4288   23.9463 H   0  0  0  0  0  0
  -27.2696  -33.3625   26.2024 H   0  0  0  0  0  0
  -28.3908  -32.6825   25.0302 H   0  0  0  0  0  0
  -28.0725  -31.8415   26.5378 H   0  0  0  0  0  0
  -28.2545  -38.0072   24.7497 H   0  0  0  0  0  0
  -28.1027  -36.2622   24.6258 H   0  0  0  0  0  0
  -27.2303  -37.1418   25.8874 H   0  0  0  0  0  0
  -20.9430  -29.9017   21.7267 H   0  0  0  0  0  0
  -26.0056  -38.2821   24.1541 H   0  0  0  0  0  0
  -25.3463  -20.5579   21.0175 H   0  0  0  0  0  0
  -26.9329  -21.5621   19.5672 H   0  0  0  0  0  0
  -28.4882  -18.2613   22.8414 H   0  0  0  0  0  0
  -24.4902  -20.6777   23.1752 H   0  0  0  0  0  0
  -23.8502  -19.3056   24.0454 H   0  0  0  0  0  0
  -23.9372  -19.2535   22.2937 H   0  0  0  0  0  0
  -27.4693  -18.8753   24.7939 H   0  0  0  0  0  0
  -25.8451  -18.7493   25.4375 H   0  0  0  0  0  0
  -26.4592  -20.3084   24.8980 H   0  0  0  0  0  0
  -27.7686  -15.3056   21.1749 H   0  0  0  0  0  0
  -28.4146  -16.2846   22.4024 H   0  0  0  0  0  0
  -27.6931  -16.9110   20.8706 H   0  0  0  0  0  0
  -29.3084  -21.9519   18.7861 H   0  0  0  0  0  0
  -30.4730  -21.8279   20.0267 H   0  0  0  0  0  0
  -30.3088  -17.9793   19.5032 H   0  0  0  0  0  0
  -30.9563  -17.9932   21.0956 H   0  0  0  0  0  0
  -27.8664  -23.1362   20.9906 H   0  0  0  0  0  0
  -29.4492  -23.6418   21.3054 H   0  0  0  0  0  0
  -27.5833  -24.5828   19.0118 H   0  0  0  0  0  0
  -29.2591  -24.8650   18.9110 H   0  0  0  0  0  0
  -25.7791  -17.9038   23.1429 H   0  0  0  0  0  0
  1 25  1  0  0  0
  1 30  2  0  0  0
  1 85  1  0  0  0
  2  3  1  0  0  0
  2 25  1  0  0  0
  2 86  1  0  0  0
  2 87  1  0  0  0
  3  4  1  0  0  0
  3 88  1  0  0  0
  3 89  1  0  0  0
  4  5  1  0  0  0
  4 90  1  0  0  0
  4 91  1  0  0  0
  5  6  1  0  0  0
  5 26  1  0  0  0
  5 92  1  0  0  0
  6 25  1  0  0  0
  6 93  1  0  0  0
  6 94  1  0  0  0
  7  8  2  0  0  0
  7 26  1  0  0  0
  7 29  1  0  0  0
  8  9  1  0  0  0
  8 22  1  0  0  0
  9 10  1  0  0  0
  9 27  2  0  0  0
 10 11  2  0  0  0
 10 15  1  0  0  0
 11 12  1  0  0  0
 11 95  1  0  0  0
 12 13  2  0  0  0
 12 96  1  0  0  0
 13 14  1  0  0  0
 13 31  1  0  0  0
 14 15  2  0  0  0
 14 97  1  0  0  0
 15 98  1  0  0  0
 16 17  2  0  0  0
 16 21  1  0  0  0
 16 31  1  0  0  0
 17 18  1  0  0  0
 17 99  1  0  0  0
 18 19  2  0  0  0
 18100  1  0  0  0
 19 20  1  0  0  0
 19 24  1  0  0  0
 20 21  2  0  0  0
 20101  1  0  0  0
 21 23  1  0  0  0
 22 28  1  0  0  0
 22 32  2  0  0  0
 26 27  1  0  0  0
 28102  1  0  0  0
 28103  1  0  0  0
 29104  1  0  0  0
 29105  1  0  0  0
 33 34  1  0  0  0
 33 66  1  0  0  0
 33 70  2  0  0  0
 34 36  1  0  0  0
 34 59  1  0  0  0
 34106  1  0  0  0
 35 44  2  0  0  0
 35 45  1  0  0  0
 35 68  1  0  0  0
 36 56  1  0  0  0
 36107  1  0  0  0
 37 39  1  0  0  0
 37 47  1  0  0  0
 37 66  1  0  0  0
 37108  1  0  0  0
 38 43  2  0  0  0
 38 46  1  0  0  0
 38 47  1  0  0  0
 39 64  1  0  0  0
 39 67  2  0  0  0
 40 52  1  0  0  0
 40 53  2  0  0  0
 40 58  1  0  0  0
 41109  1  0  0  0
 41110  1  0  0  0
 41111  1  0  0  0
 41 48  1  0  0  0
 42 43  1  0  0  0
 42 66  1  0  0  0
 42112  1  0  0  0
 42113  1  0  0  0
 43 44  1  0  0  0
 44114  1  0  0  0
 45 46  2  0  0  0
 45115  1  0  0  0
 46116  1  0  0  0
 47117  1  0  0  0
 47118  1  0  0  0
 48 56  1  0  0  0
 48 65  1  0  0  0
 48119  1  0  0  0
 49 50  1  0  0  0
 49 53  1  0  0  0
 49 64  1  0  0  0
 49120  1  0  0  0
 50 51  1  0  0  0
 50121  1  0  0  0
 50122  1  0  0  0
 51 52  1  0  0  0
 51123  1  0  0  0
 51124  1  0  0  0
 52125  1  0  0  0
 52126  1  0  0  0
 53 54  1  0  0  0
 54 55  2  0  0  0
 54127  1  0  0  0
 55 57  1  0  0  0
 55128  1  0  0  0
 56 69  2  0  0  0
 57 58  2  0  0  0
 57129  1  0  0  0
 58130  1  0  0  0
 59 60  1  0  0  0
 59 61  1  0  0  0
 59 62  1  0  0  0
 60131  1  0  0  0
 60132  1  0  0  0
 60133  1  0  0  0
 61134  1  0  0  0
 61135  1  0  0  0
 61136  1  0  0  0
 62137  1  0  0  0
 62138  1  0  0  0
 62139  1  0  0  0
 63 65  1  0  0  0
 63140  1  0  0  0
 63141  1  0  0  0
 63142  1  0  0  0
 64143  1  0  0  0
 65144  1  0  0  0
 68 83  1  0  0  0
 71 72  2  0  0  0
 71 74  1  0  0  0
 71145  1  0  0  0
 72 75  1  0  0  0
 72146  1  0  0  0
 73 74  2  0  0  0
 73 76  1  0  0  0
 73147  1  0  0  0
 74 84  1  0  0  0
 75 76  2  0  0  0
 75 80  1  0  0  0
 76 81  1  0  0  0
 77148  1  0  0  0
 77149  1  0  0  0
 77150  1  0  0  0
 77 84  1  0  0  0
 78 84  1  0  0  0
 78151  1  0  0  0
 78152  1  0  0  0
 78153  1  0  0  0
 79 85  1  0  0  0
 79154  1  0  0  0
 79155  1  0  0  0
 79156  1  0  0  0
 80 82  1  0  0  0
 80157  1  0  0  0
 80158  1  0  0  0
 81 85  1  0  0  0
 81159  1  0  0  0
 81160  1  0  0  0
 82 83  1  0  0  0
 82161  1  0  0  0
 82162  1  0  0  0
 83163  1  0  0  0
 83164  1  0  0  0
 84165  1  0  0  0
M  ISO  4   1 100  68 101  83 101  85 100
M  END
> <chiral flag>
0

> <version>
0

> <s_m_source_file>
/data/baiqing/PycharmProjects/Reinvent-master-3.2/result/LINK_invent/BTK/process_docking_weight1_custom_sum_contain_oxygen_bond_distance_aromatic_linkinvent_7_9_3/rearranged_h_0096.sdf

> <i_m_source_file_index>
39

> <r_mmod_Potential_Energy-OPLS-2005>
971.238098144531

> <r_mmod_Stretch_Energy-OPLS-2005>
352.297943115234

> <r_mmod_Bend_Energy-OPLS-2005>
372.302673339844

> <r_mmod_Torsional_Energy-OPLS-2005>
389.342742919922

> <r_mmod_Improper_Torsional_Energy-OPLS-2005>
10.1539707183838

> <r_mmod_Van_der_Waal_Energy-OPLS-2005>
183.938110351562

> <r_mmod_Electrostatic_Energy-OPLS-2005>
-340.666046142578

> <r_mmod_Solvation_Energy-OPLS-2005>
-196.692291259766

> <b_mmod_Minimization_Converged-OPLS-2005>
0

> <r_mmod_RMS_Derivative-OPLS-2005>
8.32371139526367

$$$$
39
                    3D
 Structure written by MMmdl.
180188  0  0  1  0            999 V2000
  -30.6113  -14.5700   20.5905 C   0  0  0  0  0  0
  -30.4543  -12.3743   19.4186 C   0  0  0  0  0  0
  -29.5090  -12.5256   18.2051 C   0  0  0  0  0  0
  -28.0283  -12.3650   18.6149 C   0  0  0  0  0  0
  -27.6660  -13.1963   19.8733 C   0  0  2  0  0  0
  -28.7084  -12.9515   20.9854 C   0  0  0  0  0  0
  -25.2641  -13.8130   20.5684 C   0  0  0  0  0  0
  -24.1860  -13.0431   20.9166 C   0  0  0  0  0  0
  -24.6388  -11.6883   20.8700 C   0  0  0  0  0  0
  -23.9038  -10.4284   21.0382 C   0  0  0  0  0  0
  -24.3593   -9.4214   21.9179 C   0  0  0  0  0  0
  -23.6280   -8.2246   22.0759 C   0  0  0  0  0  0
  -22.4260   -8.0280   21.3552 C   0  0  0  0  0  0
  -21.9874   -9.0254   20.4658 C   0  0  0  0  0  0
  -22.7198  -10.2129   20.3057 C   0  0  0  0  0  0
  -21.6853   -6.0729   22.5279 C   0  0  0  0  0  0
  -21.4020   -6.5637   23.8213 C   0  0  0  0  0  0
  -21.3667   -5.6791   24.9175 C   0  0  0  0  0  0
  -21.6031   -4.3056   24.7226 C   0  0  0  0  0  0
  -21.8817   -3.8147   23.4351 C   0  0  0  0  0  0
  -21.9194   -4.6960   22.3404 C   0  0  0  0  0  0
  -22.7893  -13.5255   21.1840 C   0  0  0  0  0  0
  -22.1661   -4.2146   21.0983 F   0  0  0  0  0  0
  -21.5629   -3.4539   25.7740 F   0  0  0  0  0  0
  -30.0317  -13.3357   20.4511 N   0  0  0  0  0  0
  -26.3051  -12.9264   20.3325 N   0  0  0  0  0  0
  -25.9306  -11.6433   20.5700 N   0  0  0  0  0  0
  -22.0496  -12.8284   22.0390 N   0  0  0  0  0  0
  -25.4383  -15.1847   20.4162 N   0  0  0  0  0  0
  -31.7060  -14.8539   20.0951 O   0  0  0  0  0  0
  -21.6635   -6.8868   21.4242 O   0  0  0  0  0  0
  -22.3582  -14.5572   20.6694 O   0  0  0  0  0  0
  -24.6195  -31.8642   23.2044 C   0  0  0  0  0  0
  -25.9059  -32.4813   23.8362 C   0  0  1  0  0  0
  -27.2395  -27.3759   20.1132 C   0  0  0  0  0  0
  -25.5883  -33.8613   24.2291 N   0  0  0  0  0  0
  -23.4114  -30.4841   21.5464 C   0  0  2  0  0  0
  -24.8593  -28.9346   20.1203 C   0  0  0  0  0  0
  -22.7444  -29.4642   22.4978 C   0  0  0  0  0  0
  -18.0286  -28.1358   22.8495 C   0  0  0  0  0  0
  -24.1486  -36.7320   23.2650 C   0  0  0  0  0  0
  -25.9462  -30.8095   21.3676 C   0  0  0  0  0  0
  -26.0235  -29.4378   20.7156 C   0  0  0  0  0  0
  -27.2178  -28.6701   20.6993 C   0  0  0  0  0  0
  -26.0558  -26.9002   19.5096 C   0  0  0  0  0  0
  -24.8737  -27.6678   19.5106 C   0  0  0  0  0  0
  -23.6233  -29.8084   20.1650 C   0  0  0  0  0  0
  -25.4114  -36.3117   24.0340 C   0  0  1  0  0  0
  -20.5883  -28.3668   23.1306 C   0  0  2  0  0  0
  -20.6764  -26.9396   22.5426 C   0  0  0  0  0  0
  -19.5753  -26.6370   21.5208 C   0  0  0  0  0  0
  -18.1927  -26.7912   22.1609 C   0  0  0  0  0  0
  -19.1535  -28.8827   23.2901 C   0  0  0  0  0  0
  -18.9458  -30.1420   23.8934 C   0  0  0  0  0  0
  -17.6460  -30.6569   24.0567 C   0  0  0  0  0  0
  -25.9038  -34.9481   23.5125 C   0  0  0  0  0  0
  -16.5355  -29.9076   23.6307 C   0  0  0  0  0  0
  -16.7275  -28.6477   23.0364 C   0  0  0  0  0  0
  -26.4468  -31.6625   25.0716 C   0  0  0  0  0  0
  -25.3705  -31.3802   26.1465 C   0  0  0  0  0  0
  -27.0285  -30.3041   24.6160 C   0  0  0  0  0  0
  -27.6074  -32.4367   25.7407 C   0  0  0  0  0  0
  -27.5598  -37.1812   24.8460 C   0  0  0  0  0  0
  -21.4168  -29.3030   22.3707 N   0  0  0  0  0  0
  -26.4309  -37.3794   23.9404 N   0  0  0  0  0  0
  -24.6769  -31.0695   22.0965 N   0  0  0  0  0  0
  -23.4195  -28.8180   23.3038 O   0  0  0  0  0  0
  -28.3959  -26.6044   20.0902 O   0  0  0  0  0  0
  -26.5625  -34.8944   22.4706 O   0  0  0  0  0  0
  -23.5371  -32.1417   23.7403 O   0  0  0  0  0  0
  -28.9562  -19.5864   21.8793 C   0  0  0  0  0  0
  -30.2096  -17.8905   20.6450 C   0  0  0  0  0  0
  -29.8690  -19.2779   20.8496 C   0  0  0  0  0  0
  -28.3828  -18.5862   22.6918 C   0  0  0  0  0  0
  -28.7568  -17.2289   22.4995 C   0  0  0  0  0  0
  -29.6576  -16.8576   21.4614 C   0  0  0  0  0  0
  -28.1615  -16.1490   23.4122 C   0  0  0  0  0  0
  -31.3931  -19.9579   18.8956 C   0  0  0  0  0  0
  -27.1798  -23.6031   25.6255 C   0  0  0  0  0  0
  -25.8086  -23.2128   23.6235 C   0  0  0  0  0  0
  -27.3648  -18.9401   23.7857 C   0  0  0  0  0  0
  -26.6391  -20.3006   23.7127 C   0  0  0  0  0  0
  -27.3570  -21.4420   24.4674 C   0  0  0  0  0  0
  -28.9017  -24.1008   19.7332 C   0  0  0  0  0  0
  -29.5516  -21.6261   19.5148 C   0  0  0  0  0  0
  -28.3311  -25.2539   20.6448 C   0  0  0  0  0  0
  -30.5033  -20.4650   20.0518 C   0  0  1  0  0  0
  -29.8375  -15.4287   21.3014 N   0  0  0  0  0  0
  -29.2331  -22.7897   20.4219 N   0  3  0  0  0  0
  -26.4762  -22.5967   24.7956 N   0  3  0  0  0  0
  -31.4918  -12.5319   19.1172 H   0  0  0  0  0  0
  -30.4102  -11.3590   19.8159 H   0  0  0  0  0  0
  -29.7685  -11.7971   17.4372 H   0  0  0  0  0  0
  -29.6521  -13.5063   17.7486 H   0  0  0  0  0  0
  -27.8487  -11.3071   18.8130 H   0  0  0  0  0  0
  -27.3775  -12.6338   17.7826 H   0  0  0  0  0  0
  -27.7146  -14.2460   19.5853 H   0  0  0  0  0  0
  -28.7168  -11.8956   21.2626 H   0  0  0  0  0  0
  -28.4361  -13.4719   21.9036 H   0  0  0  0  0  0
  -25.2738   -9.5720   22.4745 H   0  0  0  0  0  0
  -24.0007   -7.4641   22.7471 H   0  0  0  0  0  0
  -21.0805   -8.8783   19.8957 H   0  0  0  0  0  0
  -22.3664  -10.9681   19.6174 H   0  0  0  0  0  0
  -21.2021   -7.6139   23.9724 H   0  0  0  0  0  0
  -21.1484   -6.0510   25.9079 H   0  0  0  0  0  0
  -22.0588   -2.7605   23.2849 H   0  0  0  0  0  0
  -22.4103  -11.9966   22.4828 H   0  0  0  0  0  0
  -21.1129  -13.1377   22.2574 H   0  0  0  0  0  0
  -24.6746  -15.8423   20.5291 H   0  0  0  0  0  0
  -26.2976  -15.6249   20.1118 H   0  0  0  0  0  0
  -26.7131  -32.5511   23.1121 H   0  0  0  0  0  0
  -25.0005  -33.9760   25.0418 H   0  0  0  0  0  0
  -22.7027  -31.3019   21.4017 H   0  0  0  0  0  0
  -23.3750  -35.9650   23.3316 H   0  0  0  0  0  0
  -24.3576  -36.8941   22.2063 H   0  0  0  0  0  0
  -23.7232  -37.6521   23.6672 H   0  0  0  0  0  0
  -26.0720  -31.5717   20.5974 H   0  0  0  0  0  0
  -26.8298  -30.8616   21.9931 H   0  0  0  0  0  0
  -28.1191  -29.0598   21.1519 H   0  0  0  0  0  0
  -26.0458  -25.9327   19.0294 H   0  0  0  0  0  0
  -23.9817  -27.2761   19.0409 H   0  0  0  0  0  0
  -23.7349  -30.5779   19.4002 H   0  0  0  0  0  0
  -22.7452  -29.2292   19.8731 H   0  0  0  0  0  0
  -25.1294  -36.1987   25.0832 H   0  0  0  0  0  0
  -20.9986  -28.3245   24.1425 H   0  0  0  0  0  0
  -20.5614  -26.2298   23.3629 H   0  0  0  0  0  0
  -21.6647  -26.7396   22.1264 H   0  0  0  0  0  0
  -19.6915  -25.6276   21.1247 H   0  0  0  0  0  0
  -19.6691  -27.3169   20.6729 H   0  0  0  0  0  0
  -17.4207  -26.6692   21.3994 H   0  0  0  0  0  0
  -18.0307  -26.0031   22.8977 H   0  0  0  0  0  0
  -19.7935  -30.7212   24.2347 H   0  0  0  0  0  0
  -17.5019  -31.6254   24.5160 H   0  0  0  0  0  0
  -15.5358  -30.2996   23.7586 H   0  0  0  0  0  0
  -15.8681  -28.0780   22.7101 H   0  0  0  0  0  0
  -24.5850  -30.7175   25.7809 H   0  0  0  0  0  0
  -24.8913  -32.2994   26.4858 H   0  0  0  0  0  0
  -25.8007  -30.9001   27.0261 H   0  0  0  0  0  0
  -26.2860  -29.6843   24.1125 H   0  0  0  0  0  0
  -27.3917  -29.7259   25.4665 H   0  0  0  0  0  0
  -27.8756  -30.4325   23.9419 H   0  0  0  0  0  0
  -27.2708  -33.3640   26.2058 H   0  0  0  0  0  0
  -28.3774  -32.7004   25.0139 H   0  0  0  0  0  0
  -28.0887  -31.8478   26.5223 H   0  0  0  0  0  0
  -28.2628  -38.0100   24.7515 H   0  0  0  0  0  0
  -28.1087  -36.2640   24.6268 H   0  0  0  0  0  0
  -27.2336  -37.1451   25.8870 H   0  0  0  0  0  0
  -20.9334  -29.8758   21.6928 H   0  0  0  0  0  0
  -26.0210  -38.2888   24.1368 H   0  0  0  0  0  0
  -28.7038  -20.6174   22.0559 H   0  0  0  0  0  0
  -30.8917  -17.6023   19.8579 H   0  0  0  0  0  0
  -27.9362  -16.5203   24.4109 H   0  0  0  0  0  0
  -28.8460  -15.3196   23.5833 H   0  0  0  0  0  0
  -27.2396  -15.7551   22.9795 H   0  0  0  0  0  0
  -32.1904  -19.3079   19.2577 H   0  0  0  0  0  0
  -31.8871  -20.7784   18.3734 H   0  0  0  0  0  0
  -30.8109  -19.4065   18.1565 H   0  0  0  0  0  0
  -26.5031  -24.3961   25.9467 H   0  0  0  0  0  0
  -28.0016  -24.0615   25.0743 H   0  0  0  0  0  0
  -27.5913  -23.1476   26.5268 H   0  0  0  0  0  0
  -25.2752  -24.1206   23.9106 H   0  0  0  0  0  0
  -25.0732  -22.5368   23.1864 H   0  0  0  0  0  0
  -26.5278  -23.4804   22.8499 H   0  0  0  0  0  0
  -27.8454  -18.8197   24.7574 H   0  0  0  0  0  0
  -26.5755  -18.1886   23.7400 H   0  0  0  0  0  0
  -25.6769  -20.1518   24.2050 H   0  0  0  0  0  0
  -26.3989  -20.5635   22.6813 H   0  0  0  0  0  0
  -28.2234  -21.7890   23.9040 H   0  0  0  0  0  0
  -27.7463  -21.0494   25.4076 H   0  0  0  0  0  0
  -29.8093  -24.4607   19.2479 H   0  0  0  0  0  0
  -28.1853  -23.9121   18.9341 H   0  0  0  0  0  0
  -28.6331  -21.2011   19.1086 H   0  0  0  0  0  0
  -30.0541  -22.0790   18.6591 H   0  0  0  0  0  0
  -28.9050  -25.2853   21.5718 H   0  0  0  0  0  0
  -27.3144  -24.9999   20.9478 H   0  0  0  0  0  0
  -31.1998  -20.9338   20.7491 H   0  0  0  0  0  0
  -29.0976  -14.9121   21.7484 H   0  0  0  0  0  0
  -28.4605  -22.5171   21.0073 H   0  0  0  0  0  0
  -30.0323  -22.9498   21.0181 H   0  0  0  0  0  0
  -25.7364  -22.2405   25.3834 H   0  0  0  0  0  0
  1 25  1  0  0  0
  1 30  2  0  0  0
  1 88  1  0  0  0
  2  3  1  0  0  0
  2 25  1  0  0  0
  2 91  1  0  0  0
  2 92  1  0  0  0
  3  4  1  0  0  0
  3 93  1  0  0  0
  3 94  1  0  0  0
  4  5  1  0  0  0
  4 95  1  0  0  0
  4 96  1  0  0  0
  5  6  1  0  0  0
  5 26  1  0  0  0
  5 97  1  0  0  0
  6 25  1  0  0  0
  6 98  1  0  0  0
  6 99  1  0  0  0
  7  8  2  0  0  0
  7 26  1  0  0  0
  7 29  1  0  0  0
  8  9  1  0  0  0
  8 22  1  0  0  0
  9 10  1  0  0  0
  9 27  2  0  0  0
 10 11  2  0  0  0
 10 15  1  0  0  0
 11 12  1  0  0  0
 11100  1  0  0  0
 12 13  2  0  0  0
 12101  1  0  0  0
 13 14  1  0  0  0
 13 31  1  0  0  0
 14 15  2  0  0  0
 14102  1  0  0  0
 15103  1  0  0  0
 16 17  2  0  0  0
 16 21  1  0  0  0
 16 31  1  0  0  0
 17 18  1  0  0  0
 17104  1  0  0  0
 18 19  2  0  0  0
 18105  1  0  0  0
 19 20  1  0  0  0
 19 24  1  0  0  0
 20 21  2  0  0  0
 20106  1  0  0  0
 21 23  1  0  0  0
 22 28  1  0  0  0
 22 32  2  0  0  0
 26 27  1  0  0  0
 28107  1  0  0  0
 28108  1  0  0  0
 29109  1  0  0  0
 29110  1  0  0  0
 33 34  1  0  0  0
 33 66  1  0  0  0
 33 70  2  0  0  0
 34 36  1  0  0  0
 34 59  1  0  0  0
 34111  1  0  0  0
 35 44  2  0  0  0
 35 45  1  0  0  0
 35 68  1  0  0  0
 36 56  1  0  0  0
 36112  1  0  0  0
 37 39  1  0  0  0
 37 47  1  0  0  0
 37 66  1  0  0  0
 37113  1  0  0  0
 38 43  2  0  0  0
 38 46  1  0  0  0
 38 47  1  0  0  0
 39 64  1  0  0  0
 39 67  2  0  0  0
 40 52  1  0  0  0
 40 53  2  0  0  0
 40 58  1  0  0  0
 41114  1  0  0  0
 41115  1  0  0  0
 41116  1  0  0  0
 41 48  1  0  0  0
 42 43  1  0  0  0
 42 66  1  0  0  0
 42117  1  0  0  0
 42118  1  0  0  0
 43 44  1  0  0  0
 44119  1  0  0  0
 45 46  2  0  0  0
 45120  1  0  0  0
 46121  1  0  0  0
 47122  1  0  0  0
 47123  1  0  0  0
 48 56  1  0  0  0
 48 65  1  0  0  0
 48124  1  0  0  0
 49 50  1  0  0  0
 49 53  1  0  0  0
 49 64  1  0  0  0
 49125  1  0  0  0
 50 51  1  0  0  0
 50126  1  0  0  0
 50127  1  0  0  0
 51 52  1  0  0  0
 51128  1  0  0  0
 51129  1  0  0  0
 52130  1  0  0  0
 52131  1  0  0  0
 53 54  1  0  0  0
 54 55  2  0  0  0
 54132  1  0  0  0
 55 57  1  0  0  0
 55133  1  0  0  0
 56 69  2  0  0  0
 57 58  2  0  0  0
 57134  1  0  0  0
 58135  1  0  0  0
 59 60  1  0  0  0
 59 61  1  0  0  0
 59 62  1  0  0  0
 60136  1  0  0  0
 60137  1  0  0  0
 60138  1  0  0  0
 61139  1  0  0  0
 61140  1  0  0  0
 61141  1  0  0  0
 62142  1  0  0  0
 62143  1  0  0  0
 62144  1  0  0  0
 63 65  1  0  0  0
 63145  1  0  0  0
 63146  1  0  0  0
 63147  1  0  0  0
 64148  1  0  0  0
 65149  1  0  0  0
 68 86  1  0  0  0
 71 73  2  0  0  0
 71 74  1  0  0  0
 71150  1  0  0  0
 72 73  1  0  0  0
 72 76  2  0  0  0
 72151  1  0  0  0
 73 87  1  0  0  0
 74 75  2  0  0  0
 74 81  1  0  0  0
 75 76  1  0  0  0
 75 77  1  0  0  0
 76 88  1  0  0  0
 77152  1  0  0  0
 77153  1  0  0  0
 77154  1  0  0  0
 78155  1  0  0  0
 78156  1  0  0  0
 78157  1  0  0  0
 78 87  1  0  0  0
 79158  1  0  0  0
 79159  1  0  0  0
 79160  1  0  0  0
 79 90  1  0  0  0
 80 90  1  0  0  0
 80161  1  0  0  0
 80162  1  0  0  0
 80163  1  0  0  0
 81 82  1  0  0  0
 81164  1  0  0  0
 81165  1  0  0  0
 82 83  1  0  0  0
 82166  1  0  0  0
 82167  1  0  0  0
 83 90  1  0  0  0
 83168  1  0  0  0
 83169  1  0  0  0
 84 86  1  0  0  0
 84 89  1  0  0  0
 84170  1  0  0  0
 84171  1  0  0  0
 85 87  1  0  0  0
 85 89  1  0  0  0
 85172  1  0  0  0
 85173  1  0  0  0
 86174  1  0  0  0
 86175  1  0  0  0
 87176  1  0  0  0
 88177  1  0  0  0
 89178  1  0  0  0
 89179  1  0  0  0
 90180  1  0  0  0
M  CHG  2  89   1  90   1
M  ISO  4   1 100  68 101  86 101  88 100
M  END
> <chiral flag>
0

> <version>
0

> <s_m_source_file>
/data/baiqing/PycharmProjects/Reinvent-master-3.2/result/LINK_invent/BTK/process_docking_weight1_custom_sum_contain_oxygen_bond_distance_aromatic_linkinvent_7_9_3/rearranged_h_0096.sdf

> <i_m_source_file_index>
40

> <r_mmod_Potential_Energy-OPLS-2005>
-189.108352661133

> <r_mmod_Stretch_Energy-OPLS-2005>
69.4168090820312

> <r_mmod_Bend_Energy-OPLS-2005>
164.231262207031

> <r_mmod_Torsional_Energy-OPLS-2005>
263.339263916016

> <r_mmod_Improper_Torsional_Energy-OPLS-2005>
2.74074077606201

> <r_mmod_Van_der_Waal_Energy-OPLS-2005>
149.94091796875

> <r_mmod_Electrostatic_Energy-OPLS-2005>
76.496940612793

> <r_mmod_Solvation_Energy-OPLS-2005>
-943.42333984375

> <b_mmod_Minimization_Converged-OPLS-2005>
0

> <r_mmod_RMS_Derivative-OPLS-2005>
2.79826951026917

$$$$
40
                    3D
 Structure written by MMmdl.
174182  0  0  1  0            999 V2000
  -30.6561  -14.4660   20.5792 C   0  0  0  0  0  0
  -30.4273  -12.2971   19.4358 C   0  0  0  0  0  0
  -29.4949  -12.4854   18.2197 C   0  0  0  0  0  0
  -28.0177  -12.3297   18.6350 C   0  0  0  0  0  0
  -27.6570  -13.1839   19.8770 C   0  0  2  0  0  0
  -28.6907  -12.9579   21.0057 C   0  0  0  0  0  0
  -25.2588  -13.8153   20.5733 C   0  0  0  0  0  0
  -24.1830  -13.0485   20.9207 C   0  0  0  0  0  0
  -24.6324  -11.6917   20.8712 C   0  0  0  0  0  0
  -23.8984  -10.4330   21.0367 C   0  0  0  0  0  0
  -24.3586   -9.4256   21.9145 C   0  0  0  0  0  0
  -23.6280   -8.2295   22.0737 C   0  0  0  0  0  0
  -22.4258   -8.0315   21.3536 C   0  0  0  0  0  0
  -21.9870   -9.0268   20.4634 C   0  0  0  0  0  0
  -22.7157  -10.2155   20.3023 C   0  0  0  0  0  0
  -21.6879   -6.0752   22.5269 C   0  0  0  0  0  0
  -21.4031   -6.5665   23.8196 C   0  0  0  0  0  0
  -21.3635   -5.6815   24.9152 C   0  0  0  0  0  0
  -21.6001   -4.3076   24.7214 C   0  0  0  0  0  0
  -21.8830   -3.8170   23.4340 C   0  0  0  0  0  0
  -21.9214   -4.6988   22.3397 C   0  0  0  0  0  0
  -22.7862  -13.5283   21.1842 C   0  0  0  0  0  0
  -22.1691   -4.2170   21.0973 F   0  0  0  0  0  0
  -21.5568   -3.4551   25.7717 F   0  0  0  0  0  0
  -30.0280  -13.2676   20.4674 N   0  0  0  0  0  0
  -26.2953  -12.9263   20.3298 N   0  0  0  0  0  0
  -25.9220  -11.6449   20.5707 N   0  0  0  0  0  0
  -22.0542  -12.8279   22.0393 N   0  0  0  0  0  0
  -25.4305  -15.1904   20.4236 N   0  0  0  0  0  0
  -31.7461  -14.7117   20.0534 O   0  0  0  0  0  0
  -21.6643   -6.8905   21.4243 O   0  0  0  0  0  0
  -22.3574  -14.5611   20.6684 O   0  0  0  0  0  0
  -24.6126  -31.8687   23.2111 C   0  0  0  0  0  0
  -25.9013  -32.4818   23.8401 C   0  0  1  0  0  0
  -27.2381  -27.4554   20.0977 C   0  0  0  0  0  0
  -25.5883  -33.8602   24.2330 N   0  0  0  0  0  0
  -23.3962  -30.4931   21.5520 C   0  0  2  0  0  0
  -24.8433  -28.9530   20.1201 C   0  0  0  0  0  0
  -22.7372  -29.4682   22.5027 C   0  0  0  0  0  0
  -18.0283  -28.1408   22.8431 C   0  0  0  0  0  0
  -24.1489  -36.7306   23.2656 C   0  0  0  0  0  0
  -25.9248  -30.8393   21.3570 C   0  0  0  0  0  0
  -26.0031  -29.4735   20.7109 C   0  0  0  0  0  0
  -27.2057  -28.7351   20.6915 C   0  0  0  0  0  0
  -26.0660  -26.9325   19.5176 C   0  0  0  0  0  0
  -24.8697  -27.6794   19.5212 C   0  0  0  0  0  0
  -23.6010  -29.8160   20.1685 C   0  0  0  0  0  0
  -25.4104  -36.3110   24.0361 C   0  0  1  0  0  0
  -20.5872  -28.3619   23.1327 C   0  0  2  0  0  0
  -20.6752  -26.9361   22.5429 C   0  0  0  0  0  0
  -19.5777  -26.6400   21.5146 C   0  0  0  0  0  0
  -18.1878  -26.8034   22.1411 C   0  0  0  0  0  0
  -19.1545  -28.8817   23.2918 C   0  0  0  0  0  0
  -18.9497  -30.1405   23.8983 C   0  0  0  0  0  0
  -17.6514  -30.6557   24.0663 C   0  0  0  0  0  0
  -25.9034  -34.9481   23.5159 C   0  0  0  0  0  0
  -16.5391  -29.9106   23.6364 C   0  0  0  0  0  0
  -16.7289  -28.6559   23.0314 C   0  0  0  0  0  0
  -26.4456  -31.6586   25.0717 C   0  0  0  0  0  0
  -25.3747  -31.3655   26.1485 C   0  0  0  0  0  0
  -27.0275  -30.3038   24.6034 C   0  0  0  0  0  0
  -27.6048  -32.4310   25.7439 C   0  0  0  0  0  0
  -27.5572  -37.1809   24.8476 C   0  0  0  0  0  0
  -21.4120  -29.2986   22.3720 N   0  0  0  0  0  0
  -26.4283  -37.3785   23.9427 N   0  0  0  0  0  0
  -24.6627  -31.0804   22.0985 N   0  0  0  0  0  0
  -23.4145  -28.8309   23.3143 O   0  0  0  0  0  0
  -28.4195  -26.7573   20.0249 O   0  0  0  0  0  0
  -26.5598  -34.8940   22.4711 O   0  0  0  0  0  0
  -23.5345  -32.1417   23.7556 O   0  0  0  0  0  0
  -28.8185  -23.5271   19.8146 C   0  0  0  0  0  0
  -28.3106  -22.2579   19.4796 C   0  0  0  0  0  0
  -26.8470  -23.9421   21.1406 C   0  0  0  0  0  0
  -28.0824  -24.3857   20.6430 C   0  0  0  0  0  0
  -27.0303  -21.8014   19.9030 C   0  0  0  0  0  0
  -26.2813  -22.6925   20.7672 C   0  0  0  0  0  0
  -24.1264  -23.5390   22.0503 C   0  0  0  0  0  0
  -30.9996  -17.5694   21.6949 C   0  0  0  0  0  0
  -25.0428  -20.2904   19.0924 C   0  0  0  0  0  0
  -27.2172  -20.0129   18.0101 C   0  0  0  0  0  0
  -24.8710  -22.4002   21.3097 C   0  0  0  0  0  0
  -28.6183  -25.7597   21.0301 C   0  0  0  0  0  0
  -28.5154  -17.4805   21.0460 C   0  0  0  0  0  0
  -26.8995  -19.2479   20.3961 C   0  0  0  0  0  0
  -29.9338  -16.8715   20.8397 C   0  0  2  0  0  0
  -26.5657  -20.3853   19.3811 C   0  0  0  0  0  0
  -29.9027  -15.4308   21.1455 N   0  0  0  0  0  0
  -28.3306  -18.8450   20.4802 N   0  3  0  0  0  0
  -31.4708  -12.4077   19.1384 H   0  0  0  0  0  0
  -30.3387  -11.2875   19.8394 H   0  0  0  0  0  0
  -29.7433  -11.7617   17.4431 H   0  0  0  0  0  0
  -29.6482  -13.4718   17.7806 H   0  0  0  0  0  0
  -27.8554  -11.2722   18.8557 H   0  0  0  0  0  0
  -27.3562  -12.5679   17.7997 H   0  0  0  0  0  0
  -27.7038  -14.2278   19.5707 H   0  0  0  0  0  0
  -28.6690  -11.9232   21.3473 H   0  0  0  0  0  0
  -28.4334  -13.5519   21.8852 H   0  0  0  0  0  0
  -25.2774   -9.5767   22.4656 H   0  0  0  0  0  0
  -24.0005   -7.4727   22.7483 H   0  0  0  0  0  0
  -21.0780   -8.8781   19.8971 H   0  0  0  0  0  0
  -22.3612  -10.9676   19.6114 H   0  0  0  0  0  0
  -21.2069   -7.6182   23.9691 H   0  0  0  0  0  0
  -21.1393   -6.0549   25.9030 H   0  0  0  0  0  0
  -22.0632   -2.7647   23.2819 H   0  0  0  0  0  0
  -22.4264  -11.9960   22.4728 H   0  0  0  0  0  0
  -21.1152  -13.1249   22.2617 H   0  0  0  0  0  0
  -24.6539  -15.8279   20.5625 H   0  0  0  0  0  0
  -26.1874  -15.6010   19.8987 H   0  0  0  0  0  0
  -26.7085  -32.5541   23.1179 H   0  0  0  0  0  0
  -25.0031  -33.9743   25.0474 H   0  0  0  0  0  0
  -22.6836  -31.3089   21.4148 H   0  0  0  0  0  0
  -23.3748  -35.9638   23.3340 H   0  0  0  0  0  0
  -24.3603  -36.8873   22.2064 H   0  0  0  0  0  0
  -23.7208  -37.6519   23.6625 H   0  0  0  0  0  0
  -26.0300  -31.6005   20.5822 H   0  0  0  0  0  0
  -26.8141  -30.8949   21.9723 H   0  0  0  0  0  0
  -28.1092  -29.1441   21.1193 H   0  0  0  0  0  0
  -26.0777  -25.9548   19.0551 H   0  0  0  0  0  0
  -23.9775  -27.2714   19.0644 H   0  0  0  0  0  0
  -23.6979  -30.5861   19.4028 H   0  0  0  0  0  0
  -22.7234  -29.2278   19.8856 H   0  0  0  0  0  0
  -25.1270  -36.1992   25.0845 H   0  0  0  0  0  0
  -20.9982  -28.3206   24.1451 H   0  0  0  0  0  0
  -20.5547  -26.2283   23.3634 H   0  0  0  0  0  0
  -21.6668  -26.7344   22.1350 H   0  0  0  0  0  0
  -19.6931  -25.6316   21.1133 H   0  0  0  0  0  0
  -19.6805  -27.3202   20.6698 H   0  0  0  0  0  0
  -17.4271  -26.7052   21.3657 H   0  0  0  0  0  0
  -17.9969  -26.0067   22.8626 H   0  0  0  0  0  0
  -19.7990  -30.7166   24.2429 H   0  0  0  0  0  0
  -17.5087  -31.6212   24.5348 H   0  0  0  0  0  0
  -15.5406  -30.3048   23.7740 H   0  0  0  0  0  0
  -15.8672  -28.0949   22.6975 H   0  0  0  0  0  0
  -24.5926  -30.6985   25.7838 H   0  0  0  0  0  0
  -24.8966  -32.2806   26.4996 H   0  0  0  0  0  0
  -25.8166  -30.8798   27.0194 H   0  0  0  0  0  0
  -26.2795  -29.6800   24.1123 H   0  0  0  0  0  0
  -27.4105  -29.7254   25.4455 H   0  0  0  0  0  0
  -27.8615  -30.4401   23.9133 H   0  0  0  0  0  0
  -27.2660  -33.3594   26.2044 H   0  0  0  0  0  0
  -28.3804  -32.6863   25.0212 H   0  0  0  0  0  0
  -28.0749  -31.8406   26.5306 H   0  0  0  0  0  0
  -28.2608  -38.0089   24.7503 H   0  0  0  0  0  0
  -28.1044  -36.2620   24.6322 H   0  0  0  0  0  0
  -27.2320  -37.1489   25.8888 H   0  0  0  0  0  0
  -20.9304  -29.8483   21.6744 H   0  0  0  0  0  0
  -26.0206  -38.2884   24.1367 H   0  0  0  0  0  0
  -29.7907  -23.8200   19.4408 H   0  0  0  0  0  0
  -28.9489  -21.6431   18.8667 H   0  0  0  0  0  0
  -26.3342  -24.6212   21.8046 H   0  0  0  0  0  0
  -23.1216  -23.2182   22.3340 H   0  0  0  0  0  0
  -24.0070  -24.4261   21.4258 H   0  0  0  0  0  0
  -24.6239  -23.8555   22.9660 H   0  0  0  0  0  0
  -31.9873  -17.1551   21.4880 H   0  0  0  0  0  0
  -30.7925  -17.4434   22.7599 H   0  0  0  0  0  0
  -31.0414  -18.6407   21.4909 H   0  0  0  0  0  0
  -24.6754  -21.1471   18.5275 H   0  0  0  0  0  0
  -24.4442  -20.1621   19.9935 H   0  0  0  0  0  0
  -24.7888  -19.4039   18.5101 H   0  0  0  0  0  0
  -26.8027  -19.0917   17.5962 H   0  0  0  0  0  0
  -28.2915  -19.8301   18.0538 H   0  0  0  0  0  0
  -27.0354  -20.7842   17.2609 H   0  0  0  0  0  0
  -24.9020  -21.5089   21.9401 H   0  0  0  0  0  0
  -24.2210  -22.2005   20.4655 H   0  0  0  0  0  0
  -29.6885  -25.6801   21.2305 H   0  0  0  0  0  0
  -28.1723  -26.0751   21.9739 H   0  0  0  0  0  0
  -28.2459  -17.4851   22.1034 H   0  0  0  0  0  0
  -27.7937  -16.8199   20.5619 H   0  0  0  0  0  0
  -26.3377  -18.3643   20.0836 H   0  0  0  0  0  0
  -26.5273  -19.5032   21.3905 H   0  0  0  0  0  0
  -30.1985  -16.9782   19.7845 H   0  0  0  0  0  0
  -29.0718  -15.0873   21.5996 H   0  0  0  0  0  0
  -28.8484  -19.5365   20.9972 H   0  0  0  0  0  0
  -28.7051  -18.8255   19.5456 H   0  0  0  0  0  0
  1 25  1  0  0  0
  1 30  2  0  0  0
  1 87  1  0  0  0
  2  3  1  0  0  0
  2 25  1  0  0  0
  2 89  1  0  0  0
  2 90  1  0  0  0
  3  4  1  0  0  0
  3 91  1  0  0  0
  3 92  1  0  0  0
  4  5  1  0  0  0
  4 93  1  0  0  0
  4 94  1  0  0  0
  5  6  1  0  0  0
  5 26  1  0  0  0
  5 95  1  0  0  0
  6 25  1  0  0  0
  6 96  1  0  0  0
  6 97  1  0  0  0
  7  8  2  0  0  0
  7 26  1  0  0  0
  7 29  1  0  0  0
  8  9  1  0  0  0
  8 22  1  0  0  0
  9 10  1  0  0  0
  9 27  2  0  0  0
 10 11  2  0  0  0
 10 15  1  0  0  0
 11 12  1  0  0  0
 11 98  1  0  0  0
 12 13  2  0  0  0
 12 99  1  0  0  0
 13 14  1  0  0  0
 13 31  1  0  0  0
 14 15  2  0  0  0
 14100  1  0  0  0
 15101  1  0  0  0
 16 17  2  0  0  0
 16 21  1  0  0  0
 16 31  1  0  0  0
 17 18  1  0  0  0
 17102  1  0  0  0
 18 19  2  0  0  0
 18103  1  0  0  0
 19 20  1  0  0  0
 19 24  1  0  0  0
 20 21  2  0  0  0
 20104  1  0  0  0
 21 23  1  0  0  0
 22 28  1  0  0  0
 22 32  2  0  0  0
 26 27  1  0  0  0
 28105  1  0  0  0
 28106  1  0  0  0
 29107  1  0  0  0
 29108  1  0  0  0
 33 34  1  0  0  0
 33 66  1  0  0  0
 33 70  2  0  0  0
 34 36  1  0  0  0
 34 59  1  0  0  0
 34109  1  0  0  0
 35 44  2  0  0  0
 35 45  1  0  0  0
 35 68  1  0  0  0
 36 56  1  0  0  0
 36110  1  0  0  0
 37 39  1  0  0  0
 37 47  1  0  0  0
 37 66  1  0  0  0
 37111  1  0  0  0
 38 43  2  0  0  0
 38 46  1  0  0  0
 38 47  1  0  0  0
 39 64  1  0  0  0
 39 67  2  0  0  0
 40 52  1  0  0  0
 40 53  2  0  0  0
 40 58  1  0  0  0
 41112  1  0  0  0
 41113  1  0  0  0
 41114  1  0  0  0
 41 48  1  0  0  0
 42 43  1  0  0  0
 42 66  1  0  0  0
 42115  1  0  0  0
 42116  1  0  0  0
 43 44  1  0  0  0
 44117  1  0  0  0
 45 46  2  0  0  0
 45118  1  0  0  0
 46119  1  0  0  0
 47120  1  0  0  0
 47121  1  0  0  0
 48 56  1  0  0  0
 48 65  1  0  0  0
 48122  1  0  0  0
 49 50  1  0  0  0
 49 53  1  0  0  0
 49 64  1  0  0  0
 49123  1  0  0  0
 50 51  1  0  0  0
 50124  1  0  0  0
 50125  1  0  0  0
 51 52  1  0  0  0
 51126  1  0  0  0
 51127  1  0  0  0
 52128  1  0  0  0
 52129  1  0  0  0
 53 54  1  0  0  0
 54 55  2  0  0  0
 54130  1  0  0  0
 55 57  1  0  0  0
 55131  1  0  0  0
 56 69  2  0  0  0
 57 58  2  0  0  0
 57132  1  0  0  0
 58133  1  0  0  0
 59 60  1  0  0  0
 59 61  1  0  0  0
 59 62  1  0  0  0
 60134  1  0  0  0
 60135  1  0  0  0
 60136  1  0  0  0
 61137  1  0  0  0
 61138  1  0  0  0
 61139  1  0  0  0
 62140  1  0  0  0
 62141  1  0  0  0
 62142  1  0  0  0
 63 65  1  0  0  0
 63143  1  0  0  0
 63144  1  0  0  0
 63145  1  0  0  0
 64146  1  0  0  0
 65147  1  0  0  0
 68 82  1  0  0  0
 71 72  2  0  0  0
 71 74  1  0  0  0
 71148  1  0  0  0
 72 75  1  0  0  0
 72149  1  0  0  0
 73 74  2  0  0  0
 73 76  1  0  0  0
 73150  1  0  0  0
 74 82  1  0  0  0
 75 76  2  0  0  0
 75 86  1  0  0  0
 76 81  1  0  0  0
 77 81  1  0  0  0
 77151  1  0  0  0
 77152  1  0  0  0
 77153  1  0  0  0
 78154  1  0  0  0
 78155  1  0  0  0
 78156  1  0  0  0
 78 85  1  0  0  0
 79157  1  0  0  0
 79158  1  0  0  0
 79159  1  0  0  0
 79 86  1  0  0  0
 80 86  1  0  0  0
 80160  1  0  0  0
 80161  1  0  0  0
 80162  1  0  0  0
 81163  1  0  0  0
 81164  1  0  0  0
 82165  1  0  0  0
 82166  1  0  0  0
 83 85  1  0  0  0
 83 88  1  0  0  0
 83167  1  0  0  0
 83168  1  0  0  0
 84 86  1  0  0  0
 84 88  1  0  0  0
 84169  1  0  0  0
 84170  1  0  0  0
 85 87  1  0  0  0
 85171  1  0  0  0
 87172  1  0  0  0
 88173  1  0  0  0
 88174  1  0  0  0
M  CHG  1  88   1
M  ISO  4   1 100  68 101  82 101  87 100
M  END
> <chiral flag>
0

> <version>
0

> <s_m_source_file>
/data/baiqing/PycharmProjects/Reinvent-master-3.2/result/LINK_invent/BTK/process_docking_weight1_custom_sum_contain_oxygen_bond_distance_aromatic_linkinvent_7_9_3/rearranged_h_0096.sdf

> <i_m_source_file_index>
41

> <r_mmod_Potential_Energy-OPLS-2005>
-174.36213684082

> <r_mmod_Stretch_Energy-OPLS-2005>
50.7920455932617

> <r_mmod_Bend_Energy-OPLS-2005>
120.430824279785

> <r_mmod_Torsional_Energy-OPLS-2005>
274.3759765625

> <r_mmod_Improper_Torsional_Energy-OPLS-2005>
6.53355598449707

> <r_mmod_Van_der_Waal_Energy-OPLS-2005>
161.462905883789

> <r_mmod_Electrostatic_Energy-OPLS-2005>
-335.145233154297

> <r_mmod_Solvation_Energy-OPLS-2005>
-464.557342529297

> <b_mmod_Minimization_Converged-OPLS-2005>
0

> <r_mmod_RMS_Derivative-OPLS-2005>
6.35262537002563

$$$$
41
                    3D
 Structure written by MMmdl.
149156  0  0  1  0            999 V2000
  -30.4679  -15.1942   20.3730 C   0  0  0  0  0  0
  -30.4420  -12.7555   19.5292 C   0  0  0  0  0  0
  -29.5354  -12.5613   18.2878 C   0  0  0  0  0  0
  -28.0838  -12.2917   18.7154 C   0  0  0  0  0  0
  -27.6177  -13.2657   19.8262 C   0  0  2  0  0  0
  -28.6509  -13.4194   20.9651 C   0  0  0  0  0  0
  -25.2427  -13.8232   20.5727 C   0  0  0  0  0  0
  -24.1760  -13.0435   20.9240 C   0  0  0  0  0  0
  -24.6388  -11.6932   20.8739 C   0  0  0  0  0  0
  -23.9065  -10.4302   21.0395 C   0  0  0  0  0  0
  -24.3620   -9.4219   21.9172 C   0  0  0  0  0  0
  -23.6302   -8.2250   22.0740 C   0  0  0  0  0  0
  -22.4286   -8.0280   21.3534 C   0  0  0  0  0  0
  -21.9916   -9.0247   20.4631 C   0  0  0  0  0  0
  -22.7234  -10.2136   20.3042 C   0  0  0  0  0  0
  -21.6856   -6.0739   22.5277 C   0  0  0  0  0  0
  -21.4016   -6.5636   23.8211 C   0  0  0  0  0  0
  -21.3660   -5.6784   24.9167 C   0  0  0  0  0  0
  -21.6047   -4.3048   24.7215 C   0  0  0  0  0  0
  -21.8819   -3.8146   23.4334 C   0  0  0  0  0  0
  -21.9197   -4.6968   22.3396 C   0  0  0  0  0  0
  -22.7782  -13.5198   21.1890 C   0  0  0  0  0  0
  -22.1666   -4.2155   21.0972 F   0  0  0  0  0  0
  -21.5627   -3.4529   25.7728 F   0  0  0  0  0  0
  -29.8994  -13.8964   20.3506 N   0  0  0  0  0  0
  -26.2838  -12.9485   20.3209 N   0  0  0  0  0  0
  -25.9325  -11.6598   20.5715 N   0  0  0  0  0  0
  -22.0437  -12.8186   22.0448 N   0  0  0  0  0  0
  -25.4077  -15.1964   20.4172 N   0  0  0  0  0  0
  -31.6771  -15.2108   20.1068 O   0  0  0  0  0  0
  -21.6641   -6.8886   21.4241 O   0  0  0  0  0  0
  -22.3457  -14.5491   20.6726 O   0  0  0  0  0  0
  -24.6573  -31.8289   23.1735 C   0  0  0  0  0  0
  -25.9284  -32.4611   23.8189 C   0  0  1  0  0  0
  -27.2243  -26.9771   20.1738 C   0  0  0  0  0  0
  -25.5968  -33.8421   24.2101 N   0  0  0  0  0  0
  -23.4693  -30.4404   21.5222 C   0  0  2  0  0  0
  -24.9235  -28.8362   20.1076 C   0  0  0  0  0  0
  -22.7636  -29.4465   22.4808 C   0  0  0  0  0  0
  -18.0309  -28.1409   22.8468 C   0  0  0  0  0  0
  -24.1486  -36.7213   23.2646 C   0  0  0  0  0  0
  -26.0335  -30.6493   21.3973 C   0  0  0  0  0  0
  -26.1030  -29.2442   20.7408 C   0  0  0  0  0  0
  -27.2441  -28.3326   20.7558 C   0  0  0  0  0  0
  -26.0205  -26.7148   19.4804 C   0  0  0  0  0  0
  -24.9045  -27.5905   19.4596 C   0  0  0  0  0  0
  -23.7061  -29.7565   20.1468 C   0  0  0  0  0  0
  -25.4125  -36.2981   24.0308 C   0  0  1  0  0  0
  -20.5929  -28.3752   23.1194 C   0  0  2  0  0  0
  -20.6789  -26.9439   22.5404 C   0  0  0  0  0  0
  -19.5767  -26.6382   21.5211 C   0  0  0  0  0  0
  -18.1948  -26.7941   22.1620 C   0  0  0  0  0  0
  -19.1571  -28.8898   23.2818 C   0  0  0  0  0  0
  -18.9490  -30.1487   23.8855 C   0  0  0  0  0  0
  -17.6488  -30.6602   24.0554 C   0  0  0  0  0  0
  -25.9091  -34.9362   23.5026 C   0  0  0  0  0  0
  -16.5374  -29.9093   23.6344 C   0  0  0  0  0  0
  -16.7292  -28.6508   23.0366 C   0  0  0  0  0  0
  -26.4555  -31.6536   25.0696 C   0  0  0  0  0  0
  -25.3695  -31.3779   26.1366 C   0  0  0  0  0  0
  -27.0449  -30.2909   24.6400 C   0  0  0  0  0  0
  -27.6049  -32.4335   25.7496 C   0  0  0  0  0  0
  -27.5568  -37.1764   24.8468 C   0  0  0  0  0  0
  -21.4312  -29.3048   22.3549 N   0  0  0  0  0  0
  -26.4273  -37.3717   23.9413 N   0  0  0  0  0  0
  -24.7407  -30.9989   22.0849 N   0  0  0  0  0  0
  -23.4210  -28.8045   23.3040 O   0  0  0  0  0  0
  -28.2444  -25.9098   20.3047 O   0  0  0  0  0  0
  -26.5700  -34.8891   22.4620 O   0  0  0  0  0  0
  -23.5656  -32.1243   23.6851 O   0  0  0  0  0  0
  -27.6547  -19.1482   20.8915 C   0  0  0  0  0  0
  -28.6856  -22.7934   20.6198 C   0  0  0  0  0  0
  -29.0889  -21.1818   19.9676 C   0  0  0  0  0  0
  -29.9321  -18.0435   20.1119 C   0  0  0  0  0  0
  -28.2000  -24.3359   19.8692 C   0  0  0  0  0  0
  -29.1186  -19.5328   20.6529 C   0  0  1  0  0  0
  -29.7041  -16.4468   20.4865 N   0  0  0  0  0  0
  -31.4654  -12.9467   19.2028 H   0  0  0  0  0  0
  -30.4884  -11.8409   20.1221 H   0  0  0  0  0  0
  -29.9060  -11.7405   17.6719 H   0  0  0  0  0  0
  -29.5733  -13.4556   17.6639 H   0  0  0  0  0  0
  -28.0391  -11.2675   19.0882 H   0  0  0  0  0  0
  -27.4152  -12.3327   17.8555 H   0  0  0  0  0  0
  -27.5420  -14.2343   19.3314 H   0  0  0  0  0  0
  -28.7996  -12.4823   21.5041 H   0  0  0  0  0  0
  -28.2996  -14.1499   21.6964 H   0  0  0  0  0  0
  -25.2759   -9.5698   22.4753 H   0  0  0  0  0  0
  -24.0006   -7.4637   22.7457 H   0  0  0  0  0  0
  -21.0845   -8.8759   19.8938 H   0  0  0  0  0  0
  -22.3674  -10.9675   19.6159 H   0  0  0  0  0  0
  -21.2013   -7.6147   23.9717 H   0  0  0  0  0  0
  -21.1474   -6.0513   25.9073 H   0  0  0  0  0  0
  -22.0600   -2.7610   23.2827 H   0  0  0  0  0  0
  -22.4059  -11.9869   22.4860 H   0  0  0  0  0  0
  -21.1042  -13.1204   22.2622 H   0  0  0  0  0  0
  -24.6361  -15.8462   20.5244 H   0  0  0  0  0  0
  -26.2472  -15.6379   20.0654 H   0  0  0  0  0  0
  -26.7343  -32.5172   23.0902 H   0  0  0  0  0  0
  -25.0058  -33.9498   25.0213 H   0  0  0  0  0  0
  -22.7808  -31.2712   21.3546 H   0  0  0  0  0  0
  -23.3763  -35.9530   23.3281 H   0  0  0  0  0  0
  -24.3564  -36.8885   22.2066 H   0  0  0  0  0  0
  -23.7234  -37.6392   23.6711 H   0  0  0  0  0  0
  -26.2075  -31.3918   20.6175 H   0  0  0  0  0  0
  -26.8951  -30.7045   22.0506 H   0  0  0  0  0  0
  -28.1323  -28.6392   21.2908 H   0  0  0  0  0  0
  -25.8968  -25.7681   18.9782 H   0  0  0  0  0  0
  -24.0070  -27.2746   18.9452 H   0  0  0  0  0  0
  -23.8541  -30.5258   19.3883 H   0  0  0  0  0  0
  -22.8171  -29.2068   19.8324 H   0  0  0  0  0  0
  -25.1323  -36.1782   25.0802 H   0  0  0  0  0  0
  -21.0008  -28.3353   24.1320 H   0  0  0  0  0  0
  -20.5659  -26.2376   23.3648 H   0  0  0  0  0  0
  -21.6659  -26.7424   22.1223 H   0  0  0  0  0  0
  -19.6933  -25.6283   21.1270 H   0  0  0  0  0  0
  -19.6695  -27.3167   20.6721 H   0  0  0  0  0  0
  -17.4220  -26.6674   21.4022 H   0  0  0  0  0  0
  -18.0343  -26.0092   22.9023 H   0  0  0  0  0  0
  -19.7967  -30.7307   24.2207 H   0  0  0  0  0  0
  -17.5043  -31.6275   24.5171 H   0  0  0  0  0  0
  -15.5373  -30.2986   23.7687 H   0  0  0  0  0  0
  -15.8690  -28.0808   22.7117 H   0  0  0  0  0  0
  -24.5884  -30.7116   25.7691 H   0  0  0  0  0  0
  -24.8874  -32.2974   26.4688 H   0  0  0  0  0  0
  -25.7937  -30.9026   27.0220 H   0  0  0  0  0  0
  -26.3113  -29.6587   24.1382 H   0  0  0  0  0  0
  -27.3976  -29.7266   25.5048 H   0  0  0  0  0  0
  -27.9056  -30.4108   23.9812 H   0  0  0  0  0  0
  -27.2624  -33.3677   26.1964 H   0  0  0  0  0  0
  -28.3918  -32.6836   25.0364 H   0  0  0  0  0  0
  -28.0654  -31.8540   26.5512 H   0  0  0  0  0  0
  -28.2577  -38.0069   24.7522 H   0  0  0  0  0  0
  -28.1072  -36.2602   24.6287 H   0  0  0  0  0  0
  -27.2285  -37.1401   25.8870 H   0  0  0  0  0  0
  -20.9560  -29.8731   21.6673 H   0  0  0  0  0  0
  -26.0126  -38.2777   24.1425 H   0  0  0  0  0  0
  -27.5747  -18.2288   21.4728 H   0  0  0  0  0  0
  -27.1334  -18.9929   19.9454 H   0  0  0  0  0  0
  -27.1270  -19.9288   21.4405 H   0  0  0  0  0  0
  -29.5567  -23.0524   21.2219 H   0  0  0  0  0  0
  -27.9111  -22.6076   21.3639 H   0  0  0  0  0  0
  -30.0908  -21.3187   19.5576 H   0  0  0  0  0  0
  -28.4664  -21.0903   19.0774 H   0  0  0  0  0  0
  -30.9988  -18.2114   20.2673 H   0  0  0  0  0  0
  -29.8294  -18.0557   19.0259 H   0  0  0  0  0  0
  -28.7654  -24.3560   18.9372 H   0  0  0  0  0  0
  -27.1796  -24.1520   19.5429 H   0  0  0  0  0  0
  -29.5442  -19.6897   21.6459 H   0  0  0  0  0  0
  -28.7433  -16.2557   20.7320 H   0  0  0  0  0  0
  1 25  1  0  0  0
  1 30  2  0  0  0
  1 77  1  0  0  0
  2  3  1  0  0  0
  2 25  1  0  0  0
  2 78  1  0  0  0
  2 79  1  0  0  0
  3  4  1  0  0  0
  3 80  1  0  0  0
  3 81  1  0  0  0
  4  5  1  0  0  0
  4 82  1  0  0  0
  4 83  1  0  0  0
  5  6  1  0  0  0
  5 26  1  0  0  0
  5 84  1  0  0  0
  6 25  1  0  0  0
  6 85  1  0  0  0
  6 86  1  0  0  0
  7  8  2  0  0  0
  7 26  1  0  0  0
  7 29  1  0  0  0
  8  9  1  0  0  0
  8 22  1  0  0  0
  9 10  1  0  0  0
  9 27  2  0  0  0
 10 11  2  0  0  0
 10 15  1  0  0  0
 11 12  1  0  0  0
 11 87  1  0  0  0
 12 13  2  0  0  0
 12 88  1  0  0  0
 13 14  1  0  0  0
 13 31  1  0  0  0
 14 15  2  0  0  0
 14 89  1  0  0  0
 15 90  1  0  0  0
 16 17  2  0  0  0
 16 21  1  0  0  0
 16 31  1  0  0  0
 17 18  1  0  0  0
 17 91  1  0  0  0
 18 19  2  0  0  0
 18 92  1  0  0  0
 19 20  1  0  0  0
 19 24  1  0  0  0
 20 21  2  0  0  0
 20 93  1  0  0  0
 21 23  1  0  0  0
 22 28  1  0  0  0
 22 32  2  0  0  0
 26 27  1  0  0  0
 28 94  1  0  0  0
 28 95  1  0  0  0
 29 96  1  0  0  0
 29 97  1  0  0  0
 33 34  1  0  0  0
 33 66  1  0  0  0
 33 70  2  0  0  0
 34 36  1  0  0  0
 34 59  1  0  0  0
 34 98  1  0  0  0
 35 44  2  0  0  0
 35 45  1  0  0  0
 35 68  1  0  0  0
 36 56  1  0  0  0
 36 99  1  0  0  0
 37 39  1  0  0  0
 37 47  1  0  0  0
 37 66  1  0  0  0
 37100  1  0  0  0
 38 43  2  0  0  0
 38 46  1  0  0  0
 38 47  1  0  0  0
 39 64  1  0  0  0
 39 67  2  0  0  0
 40 52  1  0  0  0
 40 53  2  0  0  0
 40 58  1  0  0  0
 41101  1  0  0  0
 41102  1  0  0  0
 41103  1  0  0  0
 41 48  1  0  0  0
 42 43  1  0  0  0
 42 66  1  0  0  0
 42104  1  0  0  0
 42105  1  0  0  0
 43 44  1  0  0  0
 44106  1  0  0  0
 45 46  2  0  0  0
 45107  1  0  0  0
 46108  1  0  0  0
 47109  1  0  0  0
 47110  1  0  0  0
 48 56  1  0  0  0
 48 65  1  0  0  0
 48111  1  0  0  0
 49 50  1  0  0  0
 49 53  1  0  0  0
 49 64  1  0  0  0
 49112  1  0  0  0
 50 51  1  0  0  0
 50113  1  0  0  0
 50114  1  0  0  0
 51 52  1  0  0  0
 51115  1  0  0  0
 51116  1  0  0  0
 52117  1  0  0  0
 52118  1  0  0  0
 53 54  1  0  0  0
 54 55  2  0  0  0
 54119  1  0  0  0
 55 57  1  0  0  0
 55120  1  0  0  0
 56 69  2  0  0  0
 57 58  2  0  0  0
 57121  1  0  0  0
 58122  1  0  0  0
 59 60  1  0  0  0
 59 61  1  0  0  0
 59 62  1  0  0  0
 60123  1  0  0  0
 60124  1  0  0  0
 60125  1  0  0  0
 61126  1  0  0  0
 61127  1  0  0  0
 61128  1  0  0  0
 62129  1  0  0  0
 62130  1  0  0  0
 62131  1  0  0  0
 63 65  1  0  0  0
 63132  1  0  0  0
 63133  1  0  0  0
 63134  1  0  0  0
 64135  1  0  0  0
 65136  1  0  0  0
 68 75  1  0  0  0
 71137  1  0  0  0
 71138  1  0  0  0
 71139  1  0  0  0
 71 76  1  0  0  0
 72 73  1  0  0  0
 72 75  1  0  0  0
 72140  1  0  0  0
 72141  1  0  0  0
 73 76  1  0  0  0
 73142  1  0  0  0
 73143  1  0  0  0
 74 76  1  0  0  0
 74 77  1  0  0  0
 74144  1  0  0  0
 74145  1  0  0  0
 75146  1  0  0  0
 75147  1  0  0  0
 76148  1  0  0  0
 77149  1  0  0  0
M  ISO  4   1 100  68 101  75 101  77 100
M  END
> <chiral flag>
0

> <version>
0

> <s_m_source_file>
/data/baiqing/PycharmProjects/Reinvent-master-3.2/result/LINK_invent/BTK/process_docking_weight1_custom_sum_contain_oxygen_bond_distance_aromatic_linkinvent_7_9_3/rearranged_h_0096.sdf

> <i_m_source_file_index>
42

> <r_mmod_Potential_Energy-OPLS-2005>
1113.25598144531

> <r_mmod_Stretch_Energy-OPLS-2005>
554.324523925781

> <r_mmod_Bend_Energy-OPLS-2005>
417.093597412109

> <r_mmod_Torsional_Energy-OPLS-2005>
221.745315551758

> <r_mmod_Improper_Torsional_Energy-OPLS-2005>
4.54988527297974

> <r_mmod_Van_der_Waal_Energy-OPLS-2005>
108.37646484375

> <r_mmod_Electrostatic_Energy-OPLS-2005>
-373.982543945312

> <r_mmod_Solvation_Energy-OPLS-2005>
-206.665893554688

> <b_mmod_Minimization_Converged-OPLS-2005>
0

> <r_mmod_RMS_Derivative-OPLS-2005>
1.59083497524261

$$$$
42
                    3D
 Structure written by MMmdl.
162169  0  0  1  0            999 V2000
  -30.5657  -14.9318   20.2620 C   0  0  0  0  0  0
  -30.4127  -12.5566   19.4606 C   0  0  0  0  0  0
  -29.4923  -12.4893   18.2250 C   0  0  0  0  0  0
  -28.0265  -12.2847   18.6653 C   0  0  0  0  0  0
  -27.5910  -13.2010   19.8388 C   0  0  2  0  0  0
  -28.6659  -13.3165   20.9404 C   0  0  0  0  0  0
  -25.2359  -13.8092   20.5996 C   0  0  0  0  0  0
  -24.1607  -13.0353   20.9365 C   0  0  0  0  0  0
  -24.6274  -11.6874   20.9040 C   0  0  0  0  0  0
  -23.8975  -10.4305   21.0596 C   0  0  0  0  0  0
  -24.3604   -9.4216   21.9277 C   0  0  0  0  0  0
  -23.6308   -8.2260   22.0848 C   0  0  0  0  0  0
  -22.4289   -8.0341   21.3642 C   0  0  0  0  0  0
  -21.9895   -9.0311   20.4734 C   0  0  0  0  0  0
  -22.7232  -10.2167   20.3154 C   0  0  0  0  0  0
  -21.6876   -6.0805   22.5331 C   0  0  0  0  0  0
  -21.3996   -6.5707   23.8252 C   0  0  0  0  0  0
  -21.3636   -5.6857   24.9215 C   0  0  0  0  0  0
  -21.6045   -4.3121   24.7261 C   0  0  0  0  0  0
  -21.8829   -3.8224   23.4378 C   0  0  0  0  0  0
  -21.9228   -4.7045   22.3446 C   0  0  0  0  0  0
  -22.7674  -13.5213   21.1852 C   0  0  0  0  0  0
  -22.1692   -4.2230   21.1027 F   0  0  0  0  0  0
  -21.5624   -3.4593   25.7768 F   0  0  0  0  0  0
  -29.9336  -13.6901   20.2977 N   0  0  0  0  0  0
  -26.2717  -12.9157   20.3592 N   0  0  0  0  0  0
  -25.9228  -11.6399   20.6230 N   0  0  0  0  0  0
  -22.0394  -12.8157   22.0394 N   0  0  0  0  0  0
  -25.3986  -15.1796   20.4490 N   0  0  0  0  0  0
  -31.7975  -14.8825   20.2922 O   0  0  0  0  0  0
  -21.6672   -6.8937   21.4305 O   0  0  0  0  0  0
  -22.3400  -14.5559   20.6770 O   0  0  0  0  0  0
  -24.6388  -31.8446   23.1918 C   0  0  0  0  0  0
  -25.9156  -32.4706   23.8309 C   0  0  1  0  0  0
  -27.2082  -27.1704   20.1443 C   0  0  0  0  0  0
  -25.5909  -33.8506   24.2238 N   0  0  0  0  0  0
  -23.4431  -30.4680   21.5311 C   0  0  2  0  0  0
  -24.8922  -28.9030   20.1041 C   0  0  0  0  0  0
  -22.7556  -29.4561   22.4804 C   0  0  0  0  0  0
  -18.0294  -28.1386   22.8472 C   0  0  0  0  0  0
  -24.1476  -36.7272   23.2634 C   0  0  0  0  0  0
  -25.9984  -30.7284   21.3877 C   0  0  0  0  0  0
  -26.0679  -29.3441   20.7282 C   0  0  0  0  0  0
  -27.2266  -28.4883   20.7417 C   0  0  0  0  0  0
  -26.0210  -26.8372   19.4545 C   0  0  0  0  0  0
  -24.8812  -27.6646   19.4512 C   0  0  0  0  0  0
  -23.6688  -29.8000   20.1502 C   0  0  0  0  0  0
  -25.4106  -36.3041   24.0316 C   0  0  1  0  0  0
  -20.5904  -28.3719   23.1202 C   0  0  2  0  0  0
  -20.6771  -26.9414   22.5374 C   0  0  0  0  0  0
  -19.5761  -26.6377   21.5175 C   0  0  0  0  0  0
  -18.1944  -26.7926   22.1597 C   0  0  0  0  0  0
  -19.1548  -28.8860   23.2842 C   0  0  0  0  0  0
  -18.9469  -30.1450   23.8889 C   0  0  0  0  0  0
  -17.6467  -30.6596   24.0535 C   0  0  0  0  0  0
  -25.9059  -34.9393   23.5079 C   0  0  0  0  0  0
  -16.5357  -29.9093   23.6314 C   0  0  0  0  0  0
  -16.7274  -28.6496   23.0358 C   0  0  0  0  0  0
  -26.4490  -31.6553   25.0723 C   0  0  0  0  0  0
  -25.3684  -31.3700   26.1439 C   0  0  0  0  0  0
  -27.0356  -30.2950   24.6279 C   0  0  0  0  0  0
  -27.6079  -32.4283   25.7473 C   0  0  0  0  0  0
  -27.5599  -37.1768   24.8471 C   0  0  0  0  0  0
  -21.4241  -29.3044   22.3570 N   0  0  0  0  0  0
  -26.4299  -37.3740   23.9414 N   0  0  0  0  0  0
  -24.7135  -31.0339   22.0914 N   0  0  0  0  0  0
  -23.4229  -28.8067   23.2897 O   0  0  0  0  0  0
  -28.2641  -26.2098   20.2636 O   0  0  0  0  0  0
  -26.5649  -34.8883   22.4680 O   0  0  0  0  0  0
  -23.5526  -32.1323   23.7136 O   0  0  0  0  0  0
  -30.2229  -23.7151   21.0268 C   0  0  0  0  0  0
  -30.7447  -16.6704   18.4157 C   0  0  0  0  0  0
  -28.5154  -16.2843   19.1507 C   0  0  0  0  0  0
  -28.6413  -20.4815   22.0728 C   0  0  0  0  0  0
  -29.9529  -17.8319   20.5493 C   0  0  0  0  0  0
  -29.2504  -19.2505   19.9654 C   0  0  0  0  0  0
  -28.6875  -21.8927   20.0082 C   0  0  0  0  0  0
  -28.0859  -24.7222   19.9086 C   0  0  0  0  0  0
  -28.7621  -23.4129   20.6744 C   0  0  2  0  0  0
  -29.9325  -16.3946   19.7089 C   0  0  0  0  0  0
  -29.2544  -20.6196   20.7328 N   0  3  1  0  0  0
  -31.4502  -12.6825   19.1484 H   0  0  0  0  0  0
  -30.3690  -11.6120   20.0049 H   0  0  0  0  0  0
  -29.7895  -11.6645   17.5759 H   0  0  0  0  0  0
  -29.6047  -13.3905   17.6225 H   0  0  0  0  0  0
  -27.9514  -11.2408   18.9678 H   0  0  0  0  0  0
  -27.3421  -12.4159   17.8265 H   0  0  0  0  0  0
  -27.4173  -14.1440   19.3747 H   0  0  0  0  0  0
  -28.7718  -12.3777   21.4870 H   0  0  0  0  0  0
  -28.3880  -14.0651   21.6806 H   0  0  0  0  0  0
  -25.2884   -9.5719   22.4624 H   0  0  0  0  0  0
  -24.0177   -7.4708   22.7547 H   0  0  0  0  0  0
  -21.0865   -8.8900   19.8980 H   0  0  0  0  0  0
  -22.3920  -10.9710   19.6156 H   0  0  0  0  0  0
  -21.1918   -7.6208   23.9735 H   0  0  0  0  0  0
  -21.1403   -6.0610   25.9101 H   0  0  0  0  0  0
  -22.0582   -2.7687   23.2896 H   0  0  0  0  0  0
  -22.4283  -11.9789   22.4488 H   0  0  0  0  0  0
  -21.1074  -13.1133   22.2920 H   0  0  0  0  0  0
  -24.6429  -15.8470   20.5718 H   0  0  0  0  0  0
  -26.2549  -15.6249   20.1506 H   0  0  0  0  0  0
  -26.7195  -32.5315   23.1026 H   0  0  0  0  0  0
  -24.9993  -33.9621   25.0346 H   0  0  0  0  0  0
  -22.7445  -31.2924   21.3729 H   0  0  0  0  0  0
  -23.3740  -35.9602   23.3282 H   0  0  0  0  0  0
  -24.3592  -36.8957   22.2064 H   0  0  0  0  0  0
  -23.7215  -37.6449   23.6701 H   0  0  0  0  0  0
  -26.1491  -31.4772   20.6108 H   0  0  0  0  0  0
  -26.8741  -30.7831   22.0225 H   0  0  0  0  0  0
  -28.1150  -28.8010   21.2717 H   0  0  0  0  0  0
  -25.9333  -25.9091   18.9120 H   0  0  0  0  0  0
  -23.9846  -27.3305   18.9456 H   0  0  0  0  0  0
  -23.7967  -30.5711   19.3913 H   0  0  0  0  0  0
  -22.7908  -29.2318   19.8419 H   0  0  0  0  0  0
  -25.1260  -36.1896   25.0800 H   0  0  0  0  0  0
  -20.9990  -28.3317   24.1330 H   0  0  0  0  0  0
  -20.5616  -26.2330   23.3591 H   0  0  0  0  0  0
  -21.6646  -26.7395   22.1196 H   0  0  0  0  0  0
  -19.6935  -25.6275   21.1236 H   0  0  0  0  0  0
  -19.6711  -27.3147   20.6674 H   0  0  0  0  0  0
  -17.4179  -26.6616   21.4035 H   0  0  0  0  0  0
  -18.0396  -26.0085   22.9016 H   0  0  0  0  0  0
  -19.7936  -30.7236   24.2327 H   0  0  0  0  0  0
  -17.5016  -31.6293   24.5115 H   0  0  0  0  0  0
  -15.5350  -30.2983   23.7674 H   0  0  0  0  0  0
  -15.8666  -28.0805   22.7123 H   0  0  0  0  0  0
  -24.5966  -30.6905   25.7799 H   0  0  0  0  0  0
  -24.8696  -32.2810   26.4729 H   0  0  0  0  0  0
  -25.8001  -30.9037   27.0306 H   0  0  0  0  0  0
  -26.2967  -29.6645   24.1309 H   0  0  0  0  0  0
  -27.4018  -29.7272   25.4845 H   0  0  0  0  0  0
  -27.8853  -30.4209   23.9574 H   0  0  0  0  0  0
  -27.2810  -33.3709   26.1876 H   0  0  0  0  0  0
  -28.3971  -32.6623   25.0308 H   0  0  0  0  0  0
  -28.0613  -31.8459   26.5503 H   0  0  0  0  0  0
  -28.2543  -38.0126   24.7574 H   0  0  0  0  0  0
  -28.1175  -36.2655   24.6237 H   0  0  0  0  0  0
  -27.2334  -37.1355   25.8877 H   0  0  0  0  0  0
  -20.9452  -29.8813   21.6799 H   0  0  0  0  0  0
  -26.0181  -38.2818   24.1437 H   0  0  0  0  0  0
  -30.6783  -22.8767   21.5541 H   0  0  0  0  0  0
  -30.2875  -24.5848   21.6821 H   0  0  0  0  0  0
  -30.8204  -23.9122   20.1365 H   0  0  0  0  0  0
  -31.7818  -16.9260   18.6194 H   0  0  0  0  0  0
  -30.3147  -17.4862   17.8370 H   0  0  0  0  0  0
  -30.7415  -15.8009   17.7542 H   0  0  0  0  0  0
  -28.2336  -17.1685   18.5759 H   0  0  0  0  0  0
  -27.7839  -16.2056   19.9513 H   0  0  0  0  0  0
  -28.4597  -15.4740   18.4266 H   0  0  0  0  0  0
  -28.9881  -19.5889   22.5906 H   0  0  0  0  0  0
  -27.5544  -20.4314   21.9952 H   0  0  0  0  0  0
  -28.9009  -21.3351   22.6984 H   0  0  0  0  0  0
  -29.5083  -17.6242   21.5206 H   0  0  0  0  0  0
  -31.0035  -18.0303   20.7630 H   0  0  0  0  0  0
  -28.1920  -19.0555   19.7758 H   0  0  0  0  0  0
  -29.6496  -19.4709   18.9743 H   0  0  0  0  0  0
  -29.1776  -21.9496   19.0347 H   0  0  0  0  0  0
  -27.6402  -21.6762   19.7883 H   0  0  0  0  0  0
  -27.0242  -24.4862   19.9149 H   0  0  0  0  0  0
  -28.3924  -24.6514   18.8651 H   0  0  0  0  0  0
  -28.2274  -23.3474   21.6240 H   0  0  0  0  0  0
  -30.2251  -20.8272   20.9130 H   0  0  0  0  0  0
  1 25  1  0  0  0
  1 30  2  0  0  0
  1 80  1  0  0  0
  2  3  1  0  0  0
  2 25  1  0  0  0
  2 82  1  0  0  0
  2 83  1  0  0  0
  3  4  1  0  0  0
  3 84  1  0  0  0
  3 85  1  0  0  0
  4  5  1  0  0  0
  4 86  1  0  0  0
  4 87  1  0  0  0
  5  6  1  0  0  0
  5 26  1  0  0  0
  5 88  1  0  0  0
  6 25  1  0  0  0
  6 89  1  0  0  0
  6 90  1  0  0  0
  7  8  2  0  0  0
  7 26  1  0  0  0
  7 29  1  0  0  0
  8  9  1  0  0  0
  8 22  1  0  0  0
  9 10  1  0  0  0
  9 27  2  0  0  0
 10 11  2  0  0  0
 10 15  1  0  0  0
 11 12  1  0  0  0
 11 91  1  0  0  0
 12 13  2  0  0  0
 12 92  1  0  0  0
 13 14  1  0  0  0
 13 31  1  0  0  0
 14 15  2  0  0  0
 14 93  1  0  0  0
 15 94  1  0  0  0
 16 17  2  0  0  0
 16 21  1  0  0  0
 16 31  1  0  0  0
 17 18  1  0  0  0
 17 95  1  0  0  0
 18 19  2  0  0  0
 18 96  1  0  0  0
 19 20  1  0  0  0
 19 24  1  0  0  0
 20 21  2  0  0  0
 20 97  1  0  0  0
 21 23  1  0  0  0
 22 28  1  0  0  0
 22 32  2  0  0  0
 26 27  1  0  0  0
 28 98  1  0  0  0
 28 99  1  0  0  0
 29100  1  0  0  0
 29101  1  0  0  0
 33 34  1  0  0  0
 33 66  1  0  0  0
 33 70  2  0  0  0
 34 36  1  0  0  0
 34 59  1  0  0  0
 34102  1  0  0  0
 35 44  2  0  0  0
 35 45  1  0  0  0
 35 68  1  0  0  0
 36 56  1  0  0  0
 36103  1  0  0  0
 37 39  1  0  0  0
 37 47  1  0  0  0
 37 66  1  0  0  0
 37104  1  0  0  0
 38 43  2  0  0  0
 38 46  1  0  0  0
 38 47  1  0  0  0
 39 64  1  0  0  0
 39 67  2  0  0  0
 40 52  1  0  0  0
 40 53  2  0  0  0
 40 58  1  0  0  0
 41105  1  0  0  0
 41106  1  0  0  0
 41107  1  0  0  0
 41 48  1  0  0  0
 42 43  1  0  0  0
 42 66  1  0  0  0
 42108  1  0  0  0
 42109  1  0  0  0
 43 44  1  0  0  0
 44110  1  0  0  0
 45 46  2  0  0  0
 45111  1  0  0  0
 46112  1  0  0  0
 47113  1  0  0  0
 47114  1  0  0  0
 48 56  1  0  0  0
 48 65  1  0  0  0
 48115  1  0  0  0
 49 50  1  0  0  0
 49 53  1  0  0  0
 49 64  1  0  0  0
 49116  1  0  0  0
 50 51  1  0  0  0
 50117  1  0  0  0
 50118  1  0  0  0
 51 52  1  0  0  0
 51119  1  0  0  0
 51120  1  0  0  0
 52121  1  0  0  0
 52122  1  0  0  0
 53 54  1  0  0  0
 54 55  2  0  0  0
 54123  1  0  0  0
 55 57  1  0  0  0
 55124  1  0  0  0
 56 69  2  0  0  0
 57 58  2  0  0  0
 57125  1  0  0  0
 58126  1  0  0  0
 59 60  1  0  0  0
 59 61  1  0  0  0
 59 62  1  0  0  0
 60127  1  0  0  0
 60128  1  0  0  0
 60129  1  0  0  0
 61130  1  0  0  0
 61131  1  0  0  0
 61132  1  0  0  0
 62133  1  0  0  0
 62134  1  0  0  0
 62135  1  0  0  0
 63 65  1  0  0  0
 63136  1  0  0  0
 63137  1  0  0  0
 63138  1  0  0  0
 64139  1  0  0  0
 65140  1  0  0  0
 68 78  1  0  0  0
 71141  1  0  0  0
 71142  1  0  0  0
 71143  1  0  0  0
 71 79  1  0  0  0
 72144  1  0  0  0
 72145  1  0  0  0
 72146  1  0  0  0
 72 80  1  0  0  0
 73 80  1  0  0  0
 73147  1  0  0  0
 73148  1  0  0  0
 73149  1  0  0  0
 74150  1  0  0  0
 74151  1  0  0  0
 74152  1  0  0  0
 74 81  1  0  0  0
 75 76  1  0  0  0
 75 80  1  0  0  0
 75153  1  0  0  0
 75154  1  0  0  0
 76 81  1  0  0  0
 76155  1  0  0  0
 76156  1  0  0  0
 77 79  1  0  0  0
 77 81  1  0  0  0
 77157  1  0  0  0
 77158  1  0  0  0
 78 79  1  0  0  0
 78159  1  0  0  0
 78160  1  0  0  0
 79161  1  0  0  0
 81162  1  0  0  0
M  CHG  1  81   1
M  ISO  4   1 100  68 101  78 101  80 100
M  END
> <chiral flag>
0

> <version>
0

> <s_m_source_file>
/data/baiqing/PycharmProjects/Reinvent-master-3.2/result/LINK_invent/BTK/process_docking_weight1_custom_sum_contain_oxygen_bond_distance_aromatic_linkinvent_7_9_3/rearranged_h_0096.sdf

> <i_m_source_file_index>
43

> <r_mmod_Potential_Energy-OPLS-2005>
473.298034667969

> <r_mmod_Stretch_Energy-OPLS-2005>
232.955429077148

> <r_mmod_Bend_Energy-OPLS-2005>
263.107727050781

> <r_mmod_Torsional_Energy-OPLS-2005>
250.160354614258

> <r_mmod_Improper_Torsional_Energy-OPLS-2005>
13.0016374588013

> <r_mmod_Van_der_Waal_Energy-OPLS-2005>
137.862350463867

> <r_mmod_Electrostatic_Energy-OPLS-2005>
-184.439071655273

> <r_mmod_Solvation_Energy-OPLS-2005>
-430.228149414062

> <b_mmod_Minimization_Converged-OPLS-2005>
0

> <r_mmod_RMS_Derivative-OPLS-2005>
8.8373908996582

$$$$
43
                    3D
 Structure written by MMmdl.
162170  0  0  1  0            999 V2000
  -30.6865  -14.5043   20.5709 C   0  0  0  0  0  0
  -30.4219  -12.3320   19.4250 C   0  0  0  0  0  0
  -29.4999  -12.5461   18.2064 C   0  0  0  0  0  0
  -28.0129  -12.4288   18.5948 C   0  0  0  0  0  0
  -27.6601  -13.2277   19.8787 C   0  0  2  0  0  0
  -28.7029  -12.9995   20.9970 C   0  0  0  0  0  0
  -25.2530  -13.8182   20.5723 C   0  0  0  0  0  0
  -24.1850  -13.0464   20.9239 C   0  0  0  0  0  0
  -24.6436  -11.6943   20.8745 C   0  0  0  0  0  0
  -23.9096  -10.4312   21.0366 C   0  0  0  0  0  0
  -24.3609   -9.4208   21.9149 C   0  0  0  0  0  0
  -23.6285   -8.2235   22.0752 C   0  0  0  0  0  0
  -22.4248   -8.0302   21.3580 C   0  0  0  0  0  0
  -21.9897   -9.0242   20.4645 C   0  0  0  0  0  0
  -22.7247  -10.2132   20.3029 C   0  0  0  0  0  0
  -21.6856   -6.0734   22.5270 C   0  0  0  0  0  0
  -21.4034   -6.5636   23.8212 C   0  0  0  0  0  0
  -21.3663   -5.6800   24.9169 C   0  0  0  0  0  0
  -21.6037   -4.3058   24.7231 C   0  0  0  0  0  0
  -21.8813   -3.8150   23.4345 C   0  0  0  0  0  0
  -21.9194   -4.6959   22.3405 C   0  0  0  0  0  0
  -22.7820  -13.5185   21.1861 C   0  0  0  0  0  0
  -22.1654   -4.2161   21.0974 F   0  0  0  0  0  0
  -21.5616   -3.4532   25.7724 F   0  0  0  0  0  0
  -30.0300  -13.3163   20.4464 N   0  0  0  0  0  0
  -26.3024  -12.9441   20.3359 N   0  0  0  0  0  0
  -25.9408  -11.6580   20.5807 N   0  0  0  0  0  0
  -22.0511  -12.8190   22.0430 N   0  0  0  0  0  0
  -25.4160  -15.1935   20.4233 N   0  0  0  0  0  0
  -31.7841  -14.7109   20.0440 O   0  0  0  0  0  0
  -21.6653   -6.8883   21.4250 O   0  0  0  0  0  0
  -22.3453  -14.5450   20.6668 O   0  0  0  0  0  0
  -24.6326  -31.8774   23.2149 C   0  0  0  0  0  0
  -25.9211  -32.4863   23.8456 C   0  0  1  0  0  0
  -27.2227  -27.4268   20.0791 C   0  0  0  0  0  0
  -25.6014  -33.8647   24.2374 N   0  0  0  0  0  0
  -23.4373  -30.4972   21.5783 C   0  0  2  0  0  0
  -24.8536  -28.9711   20.1134 C   0  0  0  0  0  0
  -22.7778  -29.4755   22.5257 C   0  0  0  0  0  0
  -17.9888  -28.1197   22.9083 C   0  0  0  0  0  0
  -24.1482  -36.7353   23.2622 C   0  0  0  0  0  0
  -25.9499  -30.8376   21.3660 C   0  0  0  0  0  0
  -26.0208  -29.4705   20.7080 C   0  0  0  0  0  0
  -27.2124  -28.7075   20.6846 C   0  0  0  0  0  0
  -26.0427  -26.9562   19.4693 C   0  0  0  0  0  0
  -24.8613  -27.7162   19.4843 C   0  0  0  0  0  0
  -23.6232  -29.8443   20.1823 C   0  0  0  0  0  0
  -25.4102  -36.3144   24.0318 C   0  0  1  0  0  0
  -20.4782  -28.4548   22.7944 C   0  0  2  0  0  0
  -20.6800  -26.9550   22.5153 C   0  0  0  0  0  0
  -19.5222  -26.4848   21.6086 C   0  0  0  0  0  0
  -18.1528  -26.7386   22.2760 C   0  0  0  0  0  0
  -19.1122  -28.9063   23.2606 C   0  0  0  0  0  0
  -18.9372  -30.1704   23.8617 C   0  0  0  0  0  0
  -17.6441  -30.6780   24.0674 C   0  0  0  0  0  0
  -25.9079  -34.9511   23.5122 C   0  0  0  0  0  0
  -16.5197  -29.9137   23.7004 C   0  0  0  0  0  0
  -16.6912  -28.6357   23.1321 C   0  0  0  0  0  0
  -26.4545  -31.6621   25.0783 C   0  0  0  0  0  0
  -25.3760  -31.3743   26.1481 C   0  0  0  0  0  0
  -27.0326  -30.3053   24.6141 C   0  0  0  0  0  0
  -27.6080  -32.4300   25.7610 C   0  0  0  0  0  0
  -27.5573  -37.1834   24.8458 C   0  0  0  0  0  0
  -21.4542  -29.4470   22.4201 N   0  0  0  0  0  0
  -26.4292  -37.3818   23.9402 N   0  0  0  0  0  0
  -24.6951  -31.0832   22.1130 N   0  0  0  0  0  0
  -23.4309  -28.7482   23.2751 O   0  0  0  0  0  0
  -28.3569  -26.6475   20.0751 O   0  0  0  0  0  0
  -26.5574  -34.8943   22.4645 O   0  0  0  0  0  0
  -23.5472  -32.1502   23.7518 O   0  0  0  0  0  0
  -28.3961  -19.7293   19.6820 C   0  0  0  0  0  0
  -27.4135  -20.6945   19.5704 C   0  0  0  0  0  0
  -26.4091  -20.2345   20.4822 C   0  0  0  0  0  0
  -25.0858  -20.8227   20.8777 C   0  0  0  0  0  0
  -30.3572  -15.7386   22.5892 C   0  0  0  0  0  0
  -27.3691  -21.9345   18.6878 C   0  0  0  0  0  0
  -27.0976  -23.2834   19.4176 C   0  0  0  0  0  0
  -28.3670  -24.1403   19.6908 C   0  0  0  0  0  0
  -28.6206  -17.6339   21.2594 C   0  0  0  0  0  0
  -29.6227  -16.7532   20.4549 C   0  0  0  0  0  0
  -28.1925  -25.3419   20.6591 C   0  0  0  0  0  0
  -26.7466  -19.1035   21.0704 N   0  0  0  0  0  0
  -27.9666  -18.7773   20.5988 N   0  0  0  0  0  0
  -30.0053  -15.5071   21.1869 N   0  0  0  0  0  0
  -31.4672  -12.4403   19.1302 H   0  0  0  0  0  0
  -30.3145  -11.3198   19.8273 H   0  0  0  0  0  0
  -29.7441  -11.8240   17.4291 H   0  0  0  0  0  0
  -29.6953  -13.5333   17.7748 H   0  0  0  0  0  0
  -27.7682  -11.3794   18.7256 H   0  0  0  0  0  0
  -27.3874  -12.7931   17.7745 H   0  0  0  0  0  0
  -27.6917  -14.2808   19.6040 H   0  0  0  0  0  0
  -28.6801  -11.9689   21.3407 H   0  0  0  0  0  0
  -28.4589  -13.5917   21.8818 H   0  0  0  0  0  0
  -25.2766   -9.5671   22.4733 H   0  0  0  0  0  0
  -24.0008   -7.4605   22.7458 H   0  0  0  0  0  0
  -21.0824   -8.8742   19.8927 H   0  0  0  0  0  0
  -22.3680  -10.9654   19.6126 H   0  0  0  0  0  0
  -21.2058   -7.6155   23.9725 H   0  0  0  0  0  0
  -21.1480   -6.0524   25.9075 H   0  0  0  0  0  0
  -22.0598   -2.7619   23.2837 H   0  0  0  0  0  0
  -22.4129  -11.9850   22.4836 H   0  0  0  0  0  0
  -21.1124  -13.1212   22.2626 H   0  0  0  0  0  0
  -24.6478  -15.8428   20.5665 H   0  0  0  0  0  0
  -26.2740  -15.6557   20.1488 H   0  0  0  0  0  0
  -26.7272  -32.5597   23.1218 H   0  0  0  0  0  0
  -25.0134  -33.9798   25.0506 H   0  0  0  0  0  0
  -22.7287  -31.3116   21.4495 H   0  0  0  0  0  0
  -23.3738  -35.9696   23.3282 H   0  0  0  0  0  0
  -24.3567  -36.8987   22.2041 H   0  0  0  0  0  0
  -23.7279  -37.6559   23.6654 H   0  0  0  0  0  0
  -26.0525  -31.6080   20.6013 H   0  0  0  0  0  0
  -26.8427  -30.8976   21.9733 H   0  0  0  0  0  0
  -28.1178  -29.0921   21.1340 H   0  0  0  0  0  0
  -26.0356  -26.0064   18.9645 H   0  0  0  0  0  0
  -23.9705  -27.3413   19.0043 H   0  0  0  0  0  0
  -23.7270  -30.6312   19.4331 H   0  0  0  0  0  0
  -22.7383  -29.2727   19.8854 H   0  0  0  0  0  0
  -25.1291  -36.1951   25.0804 H   0  0  0  0  0  0
  -20.1514  -28.6953   21.7792 H   0  0  0  0  0  0
  -20.6702  -26.3808   23.4468 H   0  0  0  0  0  0
  -21.6360  -26.7610   22.0273 H   0  0  0  0  0  0
  -19.6149  -25.4262   21.3735 H   0  0  0  0  0  0
  -19.5737  -26.9951   20.6472 H   0  0  0  0  0  0
  -17.3395  -26.5647   21.5740 H   0  0  0  0  0  0
  -18.0220  -26.0101   23.0845 H   0  0  0  0  0  0
  -19.7960  -30.7825   24.1219 H   0  0  0  0  0  0
  -17.5082  -31.6664   24.4820 H   0  0  0  0  0  0
  -15.5231  -30.3044   23.8632 H   0  0  0  0  0  0
  -15.8184  -28.0541   22.8689 H   0  0  0  0  0  0
  -24.5926  -30.7106   25.7822 H   0  0  0  0  0  0
  -24.8958  -32.2904   26.4917 H   0  0  0  0  0  0
  -25.8061  -30.8915   27.0275 H   0  0  0  0  0  0
  -26.2876  -29.6868   24.1115 H   0  0  0  0  0  0
  -27.4013  -29.7203   25.4596 H   0  0  0  0  0  0
  -27.8758  -30.4355   23.9340 H   0  0  0  0  0  0
  -27.2684  -33.3580   26.2213 H   0  0  0  0  0  0
  -28.3936  -32.6888   25.0509 H   0  0  0  0  0  0
  -28.0696  -31.8404   26.5543 H   0  0  0  0  0  0
  -28.2601  -38.0119   24.7501 H   0  0  0  0  0  0
  -28.1050  -36.2663   24.6279 H   0  0  0  0  0  0
  -27.2282  -37.1490   25.8854 H   0  0  0  0  0  0
  -21.0672  -30.1891   21.8482 H   0  0  0  0  0  0
  -26.0162  -38.2877   24.1413 H   0  0  0  0  0  0
  -29.3648  -19.6600   19.2007 H   0  0  0  0  0  0
  -24.3890  -20.0581   21.2132 H   0  0  0  0  0  0
  -24.6211  -21.3487   20.0472 H   0  0  0  0  0  0
  -25.1941  -21.5098   21.7175 H   0  0  0  0  0  0
  -31.0200  -16.6043   22.6592 H   0  0  0  0  0  0
  -30.8672  -14.8996   23.0733 H   0  0  0  0  0  0
  -29.4515  -15.9284   23.1735 H   0  0  0  0  0  0
  -26.5898  -21.8009   17.9399 H   0  0  0  0  0  0
  -28.2765  -22.0228   18.0898 H   0  0  0  0  0  0
  -26.4319  -23.8714   18.7884 H   0  0  0  0  0  0
  -26.5243  -23.1324   20.3270 H   0  0  0  0  0  0
  -28.8052  -24.4776   18.7505 H   0  0  0  0  0  0
  -29.1171  -23.4769   20.1266 H   0  0  0  0  0  0
  -27.8262  -16.9790   21.6285 H   0  0  0  0  0  0
  -29.1267  -18.0376   22.1376 H   0  0  0  0  0  0
  -30.5066  -17.3377   20.2195 H   0  0  0  0  0  0
  -29.1626  -16.4886   19.5005 H   0  0  0  0  0  0
  -28.9793  -25.2733   21.4170 H   0  0  0  0  0  0
  -27.2528  -25.2511   21.2121 H   0  0  0  0  0  0
  1 25  1  0  0  0
  1 30  2  0  0  0
  1 84  1  0  0  0
  2  3  1  0  0  0
  2 25  1  0  0  0
  2 85  1  0  0  0
  2 86  1  0  0  0
  3  4  1  0  0  0
  3 87  1  0  0  0
  3 88  1  0  0  0
  4  5  1  0  0  0
  4 89  1  0  0  0
  4 90  1  0  0  0
  5  6  1  0  0  0
  5 26  1  0  0  0
  5 91  1  0  0  0
  6 25  1  0  0  0
  6 92  1  0  0  0
  6 93  1  0  0  0
  7  8  2  0  0  0
  7 26  1  0  0  0
  7 29  1  0  0  0
  8  9  1  0  0  0
  8 22  1  0  0  0
  9 10  1  0  0  0
  9 27  2  0  0  0
 10 11  2  0  0  0
 10 15  1  0  0  0
 11 12  1  0  0  0
 11 94  1  0  0  0
 12 13  2  0  0  0
 12 95  1  0  0  0
 13 14  1  0  0  0
 13 31  1  0  0  0
 14 15  2  0  0  0
 14 96  1  0  0  0
 15 97  1  0  0  0
 16 17  2  0  0  0
 16 21  1  0  0  0
 16 31  1  0  0  0
 17 18  1  0  0  0
 17 98  1  0  0  0
 18 19  2  0  0  0
 18 99  1  0  0  0
 19 20  1  0  0  0
 19 24  1  0  0  0
 20 21  2  0  0  0
 20100  1  0  0  0
 21 23  1  0  0  0
 22 28  1  0  0  0
 22 32  2  0  0  0
 26 27  1  0  0  0
 28101  1  0  0  0
 28102  1  0  0  0
 29103  1  0  0  0
 29104  1  0  0  0
 33 34  1  0  0  0
 33 66  1  0  0  0
 33 70  2  0  0  0
 34 36  1  0  0  0
 34 59  1  0  0  0
 34105  1  0  0  0
 35 44  2  0  0  0
 35 45  1  0  0  0
 35 68  1  0  0  0
 36 56  1  0  0  0
 36106  1  0  0  0
 37 39  1  0  0  0
 37 47  1  0  0  0
 37 66  1  0  0  0
 37107  1  0  0  0
 38 43  2  0  0  0
 38 46  1  0  0  0
 38 47  1  0  0  0
 39 64  1  0  0  0
 39 67  2  0  0  0
 40 52  1  0  0  0
 40 53  2  0  0  0
 40 58  1  0  0  0
 41108  1  0  0  0
 41109  1  0  0  0
 41110  1  0  0  0
 41 48  1  0  0  0
 42 43  1  0  0  0
 42 66  1  0  0  0
 42111  1  0  0  0
 42112  1  0  0  0
 43 44  1  0  0  0
 44113  1  0  0  0
 45 46  2  0  0  0
 45114  1  0  0  0
 46115  1  0  0  0
 47116  1  0  0  0
 47117  1  0  0  0
 48 56  1  0  0  0
 48 65  1  0  0  0
 48118  1  0  0  0
 49 50  1  0  0  0
 49 53  1  0  0  0
 49 64  1  0  0  0
 49119  1  0  0  0
 50 51  1  0  0  0
 50120  1  0  0  0
 50121  1  0  0  0
 51 52  1  0  0  0
 51122  1  0  0  0
 51123  1  0  0  0
 52124  1  0  0  0
 52125  1  0  0  0
 53 54  1  0  0  0
 54 55  2  0  0  0
 54126  1  0  0  0
 55 57  1  0  0  0
 55127  1  0  0  0
 56 69  2  0  0  0
 57 58  2  0  0  0
 57128  1  0  0  0
 58129  1  0  0  0
 59 60  1  0  0  0
 59 61  1  0  0  0
 59 62  1  0  0  0
 60130  1  0  0  0
 60131  1  0  0  0
 60132  1  0  0  0
 61133  1  0  0  0
 61134  1  0  0  0
 61135  1  0  0  0
 62136  1  0  0  0
 62137  1  0  0  0
 62138  1  0  0  0
 63 65  1  0  0  0
 63139  1  0  0  0
 63140  1  0  0  0
 63141  1  0  0  0
 64142  1  0  0  0
 65143  1  0  0  0
 68 81  1  0  0  0
 71 72  2  0  0  0
 71 83  1  0  0  0
 71144  1  0  0  0
 72 73  1  0  0  0
 72 76  1  0  0  0
 73 74  1  0  0  0
 73 82  2  0  0  0
 74145  1  0  0  0
 74146  1  0  0  0
 74147  1  0  0  0
 75 84  1  0  0  0
 75148  1  0  0  0
 75149  1  0  0  0
 75150  1  0  0  0
 76 77  1  0  0  0
 76151  1  0  0  0
 76152  1  0  0  0
 77 78  1  0  0  0
 77153  1  0  0  0
 77154  1  0  0  0
 78 81  1  0  0  0
 78155  1  0  0  0
 78156  1  0  0  0
 79 80  1  0  0  0
 79 83  1  0  0  0
 79157  1  0  0  0
 79158  1  0  0  0
 80 84  1  0  0  0
 80159  1  0  0  0
 80160  1  0  0  0
 81161  1  0  0  0
 81162  1  0  0  0
 82 83  1  0  0  0
M  ISO  4   1 100  68 101  81 101  84 100
M  END
> <chiral flag>
0

> <version>
0

> <s_m_source_file>
/data/baiqing/PycharmProjects/Reinvent-master-3.2/result/LINK_invent/BTK/process_docking_weight1_custom_sum_contain_oxygen_bond_distance_aromatic_linkinvent_7_9_3/rearranged_h_0096.sdf

> <i_m_source_file_index>
44

> <r_mmod_Potential_Energy-OPLS-2005>
253.599960327148

> <r_mmod_Stretch_Energy-OPLS-2005>
39.4383163452148

> <r_mmod_Bend_Energy-OPLS-2005>
217.673446655273

> <r_mmod_Torsional_Energy-OPLS-2005>
343.977996826172

> <r_mmod_Improper_Torsional_Energy-OPLS-2005>
7.83722448348999

> <r_mmod_Van_der_Waal_Energy-OPLS-2005>
129.702499389648

> <r_mmod_Electrostatic_Energy-OPLS-2005>
-316.262664794922

> <r_mmod_Solvation_Energy-OPLS-2005>
-205.376571655273

> <b_mmod_Minimization_Converged-OPLS-2005>
0

> <r_mmod_RMS_Derivative-OPLS-2005>
11.8545961380005

$$$$
44
                    3D
 Structure written by MMmdl.
168176  0  0  1  0            999 V2000
  -30.7326  -14.4601   20.5771 C   0  0  0  0  0  0
  -30.4138  -12.3056   19.4217 C   0  0  0  0  0  0
  -29.4896  -12.5054   18.2045 C   0  0  0  0  0  0
  -28.0127  -12.3660   18.6205 C   0  0  0  0  0  0
  -27.6595  -13.2124   19.8736 C   0  0  2  0  0  0
  -28.7032  -13.0086   20.9953 C   0  0  0  0  0  0
  -25.2572  -13.8172   20.5687 C   0  0  0  0  0  0
  -24.1836  -13.0444   20.9181 C   0  0  0  0  0  0
  -24.6396  -11.6911   20.8736 C   0  0  0  0  0  0
  -23.9063  -10.4294   21.0400 C   0  0  0  0  0  0
  -24.3612   -9.4208   21.9178 C   0  0  0  0  0  0
  -23.6288   -8.2242   22.0752 C   0  0  0  0  0  0
  -22.4271   -8.0277   21.3542 C   0  0  0  0  0  0
  -21.9906   -9.0250   20.4644 C   0  0  0  0  0  0
  -22.7235  -10.2131   20.3050 C   0  0  0  0  0  0
  -21.6851   -6.0732   22.5278 C   0  0  0  0  0  0
  -21.4016   -6.5635   23.8213 C   0  0  0  0  0  0
  -21.3658   -5.6789   24.9173 C   0  0  0  0  0  0
  -21.6046   -4.3052   24.7227 C   0  0  0  0  0  0
  -21.8818   -3.8142   23.4347 C   0  0  0  0  0  0
  -21.9195   -4.6959   22.3402 C   0  0  0  0  0  0
  -22.7855  -13.5234   21.1847 C   0  0  0  0  0  0
  -22.1661   -4.2142   21.0980 F   0  0  0  0  0  0
  -21.5628   -3.4538   25.7742 F   0  0  0  0  0  0
  -30.0329  -13.3013   20.4367 N   0  0  0  0  0  0
  -26.3018  -12.9357   20.3375 N   0  0  0  0  0  0
  -25.9326  -11.6509   20.5775 N   0  0  0  0  0  0
  -22.0495  -12.8224   22.0397 N   0  0  0  0  0  0
  -25.4286  -15.1892   20.4081 N   0  0  0  0  0  0
  -31.8570  -14.6192   20.0957 O   0  0  0  0  0  0
  -21.6636   -6.8872   21.4239 O   0  0  0  0  0  0
  -22.3536  -14.5536   20.6696 O   0  0  0  0  0  0
  -24.6163  -31.8688   23.2094 C   0  0  0  0  0  0
  -25.9055  -32.4821   23.8386 C   0  0  1  0  0  0
  -27.2274  -27.4200   20.0942 C   0  0  0  0  0  0
  -25.5901  -33.8614   24.2322 N   0  0  0  0  0  0
  -23.4041  -30.4938   21.5520 C   0  0  2  0  0  0
  -24.8487  -28.9637   20.1125 C   0  0  0  0  0  0
  -22.7418  -29.4676   22.4989 C   0  0  0  0  0  0
  -18.0274  -28.1372   22.8501 C   0  0  0  0  0  0
  -24.1490  -36.7315   23.2637 C   0  0  0  0  0  0
  -25.9362  -30.8303   21.3655 C   0  0  0  0  0  0
  -26.0121  -29.4664   20.7081 C   0  0  0  0  0  0
  -27.2051  -28.7034   20.6929 C   0  0  0  0  0  0
  -26.0435  -26.9445   19.4813 C   0  0  0  0  0  0
  -24.8604  -27.7030   19.4957 C   0  0  0  0  0  0
  -23.6111  -29.8305   20.1662 C   0  0  0  0  0  0
  -25.4113  -36.3113   24.0340 C   0  0  1  0  0  0
  -20.5867  -28.3674   23.1316 C   0  0  2  0  0  0
  -20.6769  -26.9406   22.5420 C   0  0  0  0  0  0
  -19.5747  -26.6386   21.5216 C   0  0  0  0  0  0
  -18.1923  -26.7925   22.1624 C   0  0  0  0  0  0
  -19.1524  -28.8838   23.2904 C   0  0  0  0  0  0
  -18.9455  -30.1445   23.8913 C   0  0  0  0  0  0
  -17.6457  -30.6583   24.0567 C   0  0  0  0  0  0
  -25.9044  -34.9477   23.5134 C   0  0  0  0  0  0
  -16.5348  -29.9088   23.6327 C   0  0  0  0  0  0
  -16.7263  -28.6502   23.0351 C   0  0  0  0  0  0
  -26.4471  -31.6588   25.0713 C   0  0  0  0  0  0
  -25.3723  -31.3668   26.1449 C   0  0  0  0  0  0
  -27.0313  -30.3034   24.6086 C   0  0  0  0  0  0
  -27.6052  -32.4293   25.7473 C   0  0  0  0  0  0
  -27.5587  -37.1813   24.8466 C   0  0  0  0  0  0
  -21.4143  -29.3048   22.3726 N   0  0  0  0  0  0
  -26.4302  -37.3793   23.9405 N   0  0  0  0  0  0
  -24.6706  -31.0780   22.1003 N   0  0  0  0  0  0
  -23.4187  -28.8216   23.3032 O   0  0  0  0  0  0
  -28.3825  -26.6559   20.1313 O   0  0  0  0  0  0
  -26.5606  -34.8928   22.4696 O   0  0  0  0  0  0
  -23.5354  -32.1448   23.7482 O   0  0  0  0  0  0
  -28.3561  -20.3318   22.5120 C   0  0  0  0  0  0
  -27.9451  -19.0577   22.9448 C   0  0  0  0  0  0
  -30.1884  -19.3026   21.2977 C   0  0  0  0  0  0
  -29.4902  -20.4730   21.6882 C   0  0  0  0  0  0
  -28.6608  -17.8950   22.5838 C   0  0  0  0  0  0
  -29.7964  -18.0070   21.7343 C   0  0  0  0  0  0
  -28.2000  -16.5733   23.1774 C   0  0  0  0  0  0
  -29.5492  -24.8964   22.1748 C   0  0  0  0  0  0
  -30.0214  -21.8708   21.3334 C   0  0  0  0  0  0
  -30.7003  -16.8204   21.3432 C   0  0  0  0  0  0
  -28.9869  -22.8761   20.7383 C   0  0  0  0  0  0
  -30.7068  -24.6620   19.9540 C   0  0  0  0  0  0
  -28.2036  -25.2226   20.1001 C   0  0  0  0  0  0
  -29.3775  -24.4017   20.7201 C   0  0  2  0  0  0
  -30.0960  -15.4883   21.1675 N   0  0  0  0  0  0
  -30.6934  -24.2529   18.5373 N   0  3  0  0  0  0
  -31.4600  -12.3865   19.1212 H   0  0  0  0  0  0
  -30.3005  -11.2985   19.8259 H   0  0  0  0  0  0
  -29.7282  -11.7797   17.4259 H   0  0  0  0  0  0
  -29.6589  -13.4907   17.7669 H   0  0  0  0  0  0
  -27.8274  -11.3108   18.8239 H   0  0  0  0  0  0
  -27.3595  -12.6325   17.7887 H   0  0  0  0  0  0
  -27.7001  -14.2587   19.5691 H   0  0  0  0  0  0
  -28.6777  -11.9780   21.3525 H   0  0  0  0  0  0
  -28.4704  -13.6249   21.8640 H   0  0  0  0  0  0
  -25.2757   -9.5683   22.4753 H   0  0  0  0  0  0
  -23.9997   -7.4633   22.7472 H   0  0  0  0  0  0
  -21.0837   -8.8766   19.8947 H   0  0  0  0  0  0
  -22.3692  -10.9665   19.6154 H   0  0  0  0  0  0
  -21.2007   -7.6144   23.9714 H   0  0  0  0  0  0
  -21.1482   -6.0520   25.9077 H   0  0  0  0  0  0
  -22.0599   -2.7605   23.2853 H   0  0  0  0  0  0
  -22.4109  -11.9887   22.4788 H   0  0  0  0  0  0
  -21.1109  -13.1240   22.2596 H   0  0  0  0  0  0
  -24.6593  -15.8422   20.5061 H   0  0  0  0  0  0
  -26.2802  -15.6283   20.0828 H   0  0  0  0  0  0
  -26.7133  -32.5525   23.1149 H   0  0  0  0  0  0
  -25.0037  -33.9758   25.0463 H   0  0  0  0  0  0
  -22.6936  -31.3114   21.4146 H   0  0  0  0  0  0
  -23.3749  -35.9648   23.3308 H   0  0  0  0  0  0
  -24.3586  -36.8925   22.2050 H   0  0  0  0  0  0
  -23.7254  -37.6526   23.6654 H   0  0  0  0  0  0
  -26.0520  -31.5998   20.6009 H   0  0  0  0  0  0
  -26.8222  -30.8774   21.9868 H   0  0  0  0  0  0
  -28.1019  -29.0833   21.1615 H   0  0  0  0  0  0
  -26.0108  -25.9835   18.9893 H   0  0  0  0  0  0
  -23.9659  -27.3108   19.0308 H   0  0  0  0  0  0
  -23.7178  -30.6074   19.4088 H   0  0  0  0  0  0
  -22.7333  -29.2520   19.8718 H   0  0  0  0  0  0
  -25.1283  -36.1981   25.0832 H   0  0  0  0  0  0
  -20.9947  -28.3245   24.1440 H   0  0  0  0  0  0
  -20.5685  -26.2272   23.3605 H   0  0  0  0  0  0
  -21.6638  -26.7465   22.1197 H   0  0  0  0  0  0
  -19.6913  -25.6302   21.1231 H   0  0  0  0  0  0
  -19.6685  -27.3210   20.6756 H   0  0  0  0  0  0
  -17.4195  -26.6687   21.4017 H   0  0  0  0  0  0
  -18.0318  -26.0052   22.9005 H   0  0  0  0  0  0
  -19.7931  -30.7255   24.2283 H   0  0  0  0  0  0
  -17.5014  -31.6259   24.5164 H   0  0  0  0  0  0
  -15.5352  -30.2986   23.7642 H   0  0  0  0  0  0
  -15.8665  -28.0823   22.7057 H   0  0  0  0  0  0
  -24.5938  -30.6972   25.7775 H   0  0  0  0  0  0
  -24.8852  -32.2794   26.4889 H   0  0  0  0  0  0
  -25.8064  -30.8851   27.0219 H   0  0  0  0  0  0
  -26.2873  -29.6772   24.1151 H   0  0  0  0  0  0
  -27.4106  -29.7278   25.4540 H   0  0  0  0  0  0
  -27.8682  -30.4354   23.9225 H   0  0  0  0  0  0
  -27.2715  -33.3607   26.2052 H   0  0  0  0  0  0
  -28.3861  -32.6829   25.0293 H   0  0  0  0  0  0
  -28.0722  -31.8406   26.5380 H   0  0  0  0  0  0
  -28.2603  -38.0111   24.7517 H   0  0  0  0  0  0
  -28.1082  -36.2644   24.6286 H   0  0  0  0  0  0
  -27.2293  -37.1451   25.8863 H   0  0  0  0  0  0
  -20.9310  -29.8759   21.6934 H   0  0  0  0  0  0
  -26.0191  -38.2875   24.1384 H   0  0  0  0  0  0
  -27.8123  -21.2014   22.8542 H   0  0  0  0  0  0
  -27.0856  -18.9843   23.5976 H   0  0  0  0  0  0
  -31.0764  -19.4049   20.6882 H   0  0  0  0  0  0
  -27.5060  -16.7308   24.0036 H   0  0  0  0  0  0
  -29.0424  -16.0065   23.5765 H   0  0  0  0  0  0
  -27.6834  -15.9736   22.4279 H   0  0  0  0  0  0
  -30.4047  -24.4407   22.6721 H   0  0  0  0  0  0
  -28.6642  -24.6869   22.7761 H   0  0  0  0  0  0
  -29.7114  -25.9753   22.2127 H   0  0  0  0  0  0
  -30.8636  -21.7667   20.6489 H   0  0  0  0  0  0
  -30.4391  -22.2680   22.2573 H   0  0  0  0  0  0
  -31.4792  -16.7377   22.1024 H   0  0  0  0  0  0
  -31.2138  -17.0893   20.4174 H   0  0  0  0  0  0
  -28.0622  -22.7952   21.3079 H   0  0  0  0  0  0
  -28.7200  -22.5438   19.7344 H   0  0  0  0  0  0
  -31.5317  -24.1455   20.4475 H   0  0  0  0  0  0
  -30.9546  -25.7240   19.9948 H   0  0  0  0  0  0
  -27.3001  -24.9562   20.6542 H   0  0  0  0  0  0
  -28.0340  -24.9119   19.0690 H   0  0  0  0  0  0
  -29.1590  -15.3426   21.5066 H   0  0  0  0  0  0
  -30.5092  -23.2714   18.4370 H   0  0  0  0  0  0
  -31.5957  -24.4368   18.1336 H   0  0  0  0  0  0
  -30.0183  -24.7769   18.0100 H   0  0  0  0  0  0
  1 25  1  0  0  0
  1 30  2  0  0  0
  1 85  1  0  0  0
  2  3  1  0  0  0
  2 25  1  0  0  0
  2 87  1  0  0  0
  2 88  1  0  0  0
  3  4  1  0  0  0
  3 89  1  0  0  0
  3 90  1  0  0  0
  4  5  1  0  0  0
  4 91  1  0  0  0
  4 92  1  0  0  0
  5  6  1  0  0  0
  5 26  1  0  0  0
  5 93  1  0  0  0
  6 25  1  0  0  0
  6 94  1  0  0  0
  6 95  1  0  0  0
  7  8  2  0  0  0
  7 26  1  0  0  0
  7 29  1  0  0  0
  8  9  1  0  0  0
  8 22  1  0  0  0
  9 10  1  0  0  0
  9 27  2  0  0  0
 10 11  2  0  0  0
 10 15  1  0  0  0
 11 12  1  0  0  0
 11 96  1  0  0  0
 12 13  2  0  0  0
 12 97  1  0  0  0
 13 14  1  0  0  0
 13 31  1  0  0  0
 14 15  2  0  0  0
 14 98  1  0  0  0
 15 99  1  0  0  0
 16 17  2  0  0  0
 16 21  1  0  0  0
 16 31  1  0  0  0
 17 18  1  0  0  0
 17100  1  0  0  0
 18 19  2  0  0  0
 18101  1  0  0  0
 19 20  1  0  0  0
 19 24  1  0  0  0
 20 21  2  0  0  0
 20102  1  0  0  0
 21 23  1  0  0  0
 22 28  1  0  0  0
 22 32  2  0  0  0
 26 27  1  0  0  0
 28103  1  0  0  0
 28104  1  0  0  0
 29105  1  0  0  0
 29106  1  0  0  0
 33 34  1  0  0  0
 33 66  1  0  0  0
 33 70  2  0  0  0
 34 36  1  0  0  0
 34 59  1  0  0  0
 34107  1  0  0  0
 35 44  2  0  0  0
 35 45  1  0  0  0
 35 68  1  0  0  0
 36 56  1  0  0  0
 36108  1  0  0  0
 37 39  1  0  0  0
 37 47  1  0  0  0
 37 66  1  0  0  0
 37109  1  0  0  0
 38 43  2  0  0  0
 38 46  1  0  0  0
 38 47  1  0  0  0
 39 64  1  0  0  0
 39 67  2  0  0  0
 40 52  1  0  0  0
 40 53  2  0  0  0
 40 58  1  0  0  0
 41110  1  0  0  0
 41111  1  0  0  0
 41112  1  0  0  0
 41 48  1  0  0  0
 42 43  1  0  0  0
 42 66  1  0  0  0
 42113  1  0  0  0
 42114  1  0  0  0
 43 44  1  0  0  0
 44115  1  0  0  0
 45 46  2  0  0  0
 45116  1  0  0  0
 46117  1  0  0  0
 47118  1  0  0  0
 47119  1  0  0  0
 48 56  1  0  0  0
 48 65  1  0  0  0
 48120  1  0  0  0
 49 50  1  0  0  0
 49 53  1  0  0  0
 49 64  1  0  0  0
 49121  1  0  0  0
 50 51  1  0  0  0
 50122  1  0  0  0
 50123  1  0  0  0
 51 52  1  0  0  0
 51124  1  0  0  0
 51125  1  0  0  0
 52126  1  0  0  0
 52127  1  0  0  0
 53 54  1  0  0  0
 54 55  2  0  0  0
 54128  1  0  0  0
 55 57  1  0  0  0
 55129  1  0  0  0
 56 69  2  0  0  0
 57 58  2  0  0  0
 57130  1  0  0  0
 58131  1  0  0  0
 59 60  1  0  0  0
 59 61  1  0  0  0
 59 62  1  0  0  0
 60132  1  0  0  0
 60133  1  0  0  0
 60134  1  0  0  0
 61135  1  0  0  0
 61136  1  0  0  0
 61137  1  0  0  0
 62138  1  0  0  0
 62139  1  0  0  0
 62140  1  0  0  0
 63 65  1  0  0  0
 63141  1  0  0  0
 63142  1  0  0  0
 63143  1  0  0  0
 64144  1  0  0  0
 65145  1  0  0  0
 68 83  1  0  0  0
 71 72  2  0  0  0
 71 74  1  0  0  0
 71146  1  0  0  0
 72 75  1  0  0  0
 72147  1  0  0  0
 73 74  2  0  0  0
 73 76  1  0  0  0
 73148  1  0  0  0
 74 79  1  0  0  0
 75 76  2  0  0  0
 75 77  1  0  0  0
 76 80  1  0  0  0
 77149  1  0  0  0
 77150  1  0  0  0
 77151  1  0  0  0
 78152  1  0  0  0
 78153  1  0  0  0
 78154  1  0  0  0
 78 84  1  0  0  0
 79 81  1  0  0  0
 79155  1  0  0  0
 79156  1  0  0  0
 80 85  1  0  0  0
 80157  1  0  0  0
 80158  1  0  0  0
 81 84  1  0  0  0
 81159  1  0  0  0
 81160  1  0  0  0
 82 84  1  0  0  0
 82 86  1  0  0  0
 82161  1  0  0  0
 82162  1  0  0  0
 83 84  1  0  0  0
 83163  1  0  0  0
 83164  1  0  0  0
 85165  1  0  0  0
 86166  1  0  0  0
 86167  1  0  0  0
 86168  1  0  0  0
M  CHG  1  86   1
M  ISO  4   1 100  68 101  83 101  85 100
M  END
> <chiral flag>
0

> <version>
0

> <s_m_source_file>
/data/baiqing/PycharmProjects/Reinvent-master-3.2/result/LINK_invent/BTK/process_docking_weight1_custom_sum_contain_oxygen_bond_distance_aromatic_linkinvent_7_9_3/rearranged_h_0096.sdf

> <i_m_source_file_index>
45

> <r_mmod_Potential_Energy-OPLS-2005>
-313.8837890625

> <r_mmod_Stretch_Energy-OPLS-2005>
44.5598335266113

> <r_mmod_Bend_Energy-OPLS-2005>
109.988876342773

> <r_mmod_Torsional_Energy-OPLS-2005>
222.622375488281

> <r_mmod_Improper_Torsional_Energy-OPLS-2005>
3.32910799980164

> <r_mmod_Van_der_Waal_Energy-OPLS-2005>
158.276947021484

> <r_mmod_Electrostatic_Energy-OPLS-2005>
-387.105316162109

> <r_mmod_Solvation_Energy-OPLS-2005>
-480.155090332031

> <b_mmod_Minimization_Converged-OPLS-2005>
0

> <r_mmod_RMS_Derivative-OPLS-2005>
1.25455582141876

$$$$
45
                    3D
 Structure written by MMmdl.
169177  0  0  1  0            999 V2000
  -30.5869  -14.7261   20.4351 C   0  0  0  0  0  0
  -30.4233  -12.4434   19.4306 C   0  0  0  0  0  0
  -29.4757  -12.4737   18.2107 C   0  0  0  0  0  0
  -28.0056  -12.3099   18.6421 C   0  0  0  0  0  0
  -27.6270  -13.2252   19.8392 C   0  0  2  0  0  0
  -28.6806  -13.1408   20.9642 C   0  0  0  0  0  0
  -25.2409  -13.8196   20.5735 C   0  0  0  0  0  0
  -24.1747  -13.0420   20.9243 C   0  0  0  0  0  0
  -24.6353  -11.6881   20.8744 C   0  0  0  0  0  0
  -23.9046  -10.4260   21.0413 C   0  0  0  0  0  0
  -24.3589   -9.4161   21.9193 C   0  0  0  0  0  0
  -23.6279   -8.2192   22.0746 C   0  0  0  0  0  0
  -22.4254   -8.0242   21.3549 C   0  0  0  0  0  0
  -21.9895   -9.0197   20.4634 C   0  0  0  0  0  0
  -22.7218  -10.2082   20.3058 C   0  0  0  0  0  0
  -21.6823   -6.0703   22.5267 C   0  0  0  0  0  0
  -21.4012   -6.5627   23.8194 C   0  0  0  0  0  0
  -21.3682   -5.6800   24.9159 C   0  0  0  0  0  0
  -21.6040   -4.3057   24.7225 C   0  0  0  0  0  0
  -21.8815   -3.8136   23.4350 C   0  0  0  0  0  0
  -21.9191   -4.6940   22.3396 C   0  0  0  0  0  0
  -22.7753  -13.5124   21.1954 C   0  0  0  0  0  0
  -22.1660   -4.2122   21.0976 F   0  0  0  0  0  0
  -21.5643   -3.4543   25.7746 F   0  0  0  0  0  0
  -29.9722  -13.4993   20.3632 N   0  0  0  0  0  0
  -26.2833  -12.9421   20.3243 N   0  0  0  0  0  0
  -25.9266  -11.6550   20.5732 N   0  0  0  0  0  0
  -22.0427  -12.8077   22.0496 N   0  0  0  0  0  0
  -25.4086  -15.1966   20.4278 N   0  0  0  0  0  0
  -31.7947  -14.8325   20.2083 O   0  0  0  0  0  0
  -21.6630   -6.8828   21.4231 O   0  0  0  0  0  0
  -22.3368  -14.5403   20.6777 O   0  0  0  0  0  0
  -24.6367  -31.8417   23.1956 C   0  0  0  0  0  0
  -25.9154  -32.4684   23.8314 C   0  0  1  0  0  0
  -27.2174  -27.2083   20.1167 C   0  0  0  0  0  0
  -25.5932  -33.8489   24.2237 N   0  0  0  0  0  0
  -23.4426  -30.4605   21.5354 C   0  0  2  0  0  0
  -24.8910  -28.8885   20.1215 C   0  0  0  0  0  0
  -22.7557  -29.4515   22.4838 C   0  0  0  0  0  0
  -18.0304  -28.1399   22.8445 C   0  0  0  0  0  0
  -24.1537  -36.7266   23.2639 C   0  0  0  0  0  0
  -25.9940  -30.7376   21.3860 C   0  0  0  0  0  0
  -26.0659  -29.3553   20.7223 C   0  0  0  0  0  0
  -27.2377  -28.5266   20.7026 C   0  0  0  0  0  0
  -26.0179  -26.8057   19.5014 C   0  0  0  0  0  0
  -24.8708  -27.6220   19.5073 C   0  0  0  0  0  0
  -23.6751  -29.7886   20.1538 C   0  0  0  0  0  0
  -25.4154  -36.3023   24.0325 C   0  0  1  0  0  0
  -20.5896  -28.3668   23.1253 C   0  0  2  0  0  0
  -20.6774  -26.9375   22.5368 C   0  0  0  0  0  0
  -19.5737  -26.6392   21.5176 C   0  0  0  0  0  0
  -18.1937  -26.7939   22.1611 C   0  0  0  0  0  0
  -19.1554  -28.8859   23.2828 C   0  0  0  0  0  0
  -18.9466  -30.1459   23.8855 C   0  0  0  0  0  0
  -17.6442  -30.6565   24.0574 C   0  0  0  0  0  0
  -25.9084  -34.9377   23.5079 C   0  0  0  0  0  0
  -16.5352  -29.9057   23.6353 C   0  0  0  0  0  0
  -16.7285  -28.6486   23.0323 C   0  0  0  0  0  0
  -26.4618  -31.6528   25.0674 C   0  0  0  0  0  0
  -25.3936  -31.3606   26.1441 C   0  0  0  0  0  0
  -27.0512  -30.2964   24.6126 C   0  0  0  0  0  0
  -27.6137  -32.4326   25.7459 C   0  0  0  0  0  0
  -27.5623  -37.1785   24.8438 C   0  0  0  0  0  0
  -21.4239  -29.3023   22.3640 N   0  0  0  0  0  0
  -26.4323  -37.3713   23.9417 N   0  0  0  0  0  0
  -24.7129  -31.0306   22.0971 N   0  0  0  0  0  0
  -23.4226  -28.8035   23.2953 O   0  0  0  0  0  0
  -28.3346  -26.3396   20.0623 O   0  0  0  0  0  0
  -26.5604  -34.8853   22.4627 O   0  0  0  0  0  0
  -23.5499  -32.1251   23.7187 O   0  0  0  0  0  0
  -28.9013  -21.8177   22.0549 C   0  0  0  0  0  0
  -28.9336  -21.2764   20.7928 C   0  0  0  0  0  0
  -30.3296  -20.1451   22.0859 C   0  0  0  0  0  0
  -33.2499  -20.8142   24.0220 C   0  0  0  0  0  0
  -33.9958  -20.2735   21.6818 C   0  0  0  0  0  0
  -28.3484  -18.3741   19.4269 C   0  0  0  0  0  0
  -28.3440  -22.0018   19.5491 C   0  0  0  0  0  0
  -31.6690  -19.5535   22.4305 C   0  0  0  0  0  0
  -27.8966  -23.6003   19.4936 C   0  0  0  0  0  0
  -30.1564  -17.2785   20.9402 C   0  0  0  0  0  0
  -28.3200  -24.8612   20.4361 C   0  0  0  0  0  0
  -32.7891  -20.6142   22.5719 C   0  0  0  0  0  0
  -29.6767  -18.6485   20.1470 C   0  0  2  0  0  0
  -29.5768  -19.9897   20.9697 N   0  0  0  0  0  0
  -29.7352  -21.0759   22.8297 N   0  3  0  0  0  0
  -29.7808  -15.8481   20.5648 N   0  0  0  0  0  0
  -31.4521  -12.5882   19.0976 H   0  0  0  0  0  0
  -30.4054  -11.4688   19.9181 H   0  0  0  0  0  0
  -29.7319  -11.6809   17.5059 H   0  0  0  0  0  0
  -29.5983  -13.4132   17.6695 H   0  0  0  0  0  0
  -27.8572  -11.2660   18.9164 H   0  0  0  0  0  0
  -27.3381  -12.4836   17.7968 H   0  0  0  0  0  0
  -27.6185  -14.2473   19.4592 H   0  0  0  0  0  0
  -28.7234  -12.1322   21.3779 H   0  0  0  0  0  0
  -28.4286  -13.7994   21.7994 H   0  0  0  0  0  0
  -25.2716   -9.5619   22.4777 H   0  0  0  0  0  0
  -23.9982   -7.4565   22.7451 H   0  0  0  0  0  0
  -21.0826   -8.8679   19.8924 H   0  0  0  0  0  0
  -22.3667  -10.9607   19.6161 H   0  0  0  0  0  0
  -21.2000   -7.6137   23.9672 H   0  0  0  0  0  0
  -21.1533   -6.0542   25.9063 H   0  0  0  0  0  0
  -22.0587   -2.7595   23.2842 H   0  0  0  0  0  0
  -22.4107  -11.9784   22.4944 H   0  0  0  0  0  0
  -21.1011  -13.1019   22.2711 H   0  0  0  0  0  0
  -24.6444  -15.8395   20.6037 H   0  0  0  0  0  0
  -26.2515  -15.6617   20.1190 H   0  0  0  0  0  0
  -26.7201  -32.5324   23.1037 H   0  0  0  0  0  0
  -25.0127  -33.9620   25.0405 H   0  0  0  0  0  0
  -22.7462  -31.2823   21.3706 H   0  0  0  0  0  0
  -23.3776  -35.9620   23.3275 H   0  0  0  0  0  0
  -24.3666  -36.8884   22.2061 H   0  0  0  0  0  0
  -23.7293  -37.6473   23.6656 H   0  0  0  0  0  0
  -26.1359  -31.4995   20.6174 H   0  0  0  0  0  0
  -26.8752  -30.7968   22.0163 H   0  0  0  0  0  0
  -28.1636  -28.8743   21.1485 H   0  0  0  0  0  0
  -25.9616  -25.8440   19.0061 H   0  0  0  0  0  0
  -23.9639  -27.2499   19.0535 H   0  0  0  0  0  0
  -23.8483  -30.5619   19.4058 H   0  0  0  0  0  0
  -22.7969  -29.2377   19.8105 H   0  0  0  0  0  0
  -25.1361  -36.1892   25.0814 H   0  0  0  0  0  0
  -20.9995  -28.3231   24.1369 H   0  0  0  0  0  0
  -20.5639  -26.2268   23.3543 H   0  0  0  0  0  0
  -21.6649  -26.7361   22.1184 H   0  0  0  0  0  0
  -19.6858  -25.6294   21.1190 H   0  0  0  0  0  0
  -19.6704  -27.3222   20.6720 H   0  0  0  0  0  0
  -17.4193  -26.6660   21.4028 H   0  0  0  0  0  0
  -18.0353  -26.0094   22.9028 H   0  0  0  0  0  0
  -19.7933  -30.7278   24.2230 H   0  0  0  0  0  0
  -17.5000  -31.6250   24.5139 H   0  0  0  0  0  0
  -15.5342  -30.2938   23.7680 H   0  0  0  0  0  0
  -15.8712  -28.0820   22.7050 H   0  0  0  0  0  0
  -24.5824  -30.7377   25.7672 H   0  0  0  0  0  0
  -24.9552  -32.2795   26.5343 H   0  0  0  0  0  0
  -25.8297  -30.8248   26.9887 H   0  0  0  0  0  0
  -26.3142  -29.6681   24.1114 H   0  0  0  0  0  0
  -27.4218  -29.7236   25.4648 H   0  0  0  0  0  0
  -27.9009  -30.4269   23.9420 H   0  0  0  0  0  0
  -27.2575  -33.3350   26.2458 H   0  0  0  0  0  0
  -28.3720  -32.7395   25.0225 H   0  0  0  0  0  0
  -28.1137  -31.8282   26.5045 H   0  0  0  0  0  0
  -28.2624  -38.0093   24.7477 H   0  0  0  0  0  0
  -28.1139  -36.2627   24.6275 H   0  0  0  0  0  0
  -27.2348  -37.1444   25.8832 H   0  0  0  0  0  0
  -20.9409  -29.8797   21.6877 H   0  0  0  0  0  0
  -26.0201  -38.2798   24.1368 H   0  0  0  0  0  0
  -28.4319  -22.7163   22.4289 H   0  0  0  0  0  0
  -34.0484  -21.5594   24.0803 H   0  0  0  0  0  0
  -33.6335  -19.8787   24.4377 H   0  0  0  0  0  0
  -32.4293  -21.1574   24.6526 H   0  0  0  0  0  0
  -34.7894  -21.0151   21.7828 H   0  0  0  0  0  0
  -33.7146  -20.2501   20.6286 H   0  0  0  0  0  0
  -34.4121  -19.2961   21.9303 H   0  0  0  0  0  0
  -28.4179  -17.4953   18.7851 H   0  0  0  0  0  0
  -28.0542  -19.1986   18.7784 H   0  0  0  0  0  0
  -27.5467  -18.1851   20.1424 H   0  0  0  0  0  0
  -27.4616  -21.4169   19.2691 H   0  0  0  0  0  0
  -29.0540  -21.8355   18.7330 H   0  0  0  0  0  0
  -31.9618  -18.9533   21.5848 H   0  0  0  0  0  0
  -31.5668  -18.8972   23.2936 H   0  0  0  0  0  0
  -26.8093  -23.5770   19.5498 H   0  0  0  0  0  0
  -28.0765  -23.8943   18.4583 H   0  0  0  0  0  0
  -29.8146  -17.3643   21.9703 H   0  0  0  0  0  0
  -31.2398  -17.2267   20.9983 H   0  0  0  0  0  0
  -29.3545  -24.6555   20.7186 H   0  0  0  0  0  0
  -27.7485  -24.7804   21.3589 H   0  0  0  0  0  0
  -32.4112  -21.5671   22.1969 H   0  0  0  0  0  0
  -30.4235  -18.8305   19.3659 H   0  0  0  0  0  0
  -29.9506  -21.2711   23.8014 H   0  0  0  0  0  0
  -28.7924  -15.6515   20.5805 H   0  0  0  0  0  0
  1 25  1  0  0  0
  1 30  2  0  0  0
  1 86  1  0  0  0
  2  3  1  0  0  0
  2 25  1  0  0  0
  2 87  1  0  0  0
  2 88  1  0  0  0
  3  4  1  0  0  0
  3 89  1  0  0  0
  3 90  1  0  0  0
  4  5  1  0  0  0
  4 91  1  0  0  0
  4 92  1  0  0  0
  5  6  1  0  0  0
  5 26  1  0  0  0
  5 93  1  0  0  0
  6 25  1  0  0  0
  6 94  1  0  0  0
  6 95  1  0  0  0
  7  8  2  0  0  0
  7 26  1  0  0  0
  7 29  1  0  0  0
  8  9  1  0  0  0
  8 22  1  0  0  0
  9 10  1  0  0  0
  9 27  2  0  0  0
 10 11  2  0  0  0
 10 15  1  0  0  0
 11 12  1  0  0  0
 11 96  1  0  0  0
 12 13  2  0  0  0
 12 97  1  0  0  0
 13 14  1  0  0  0
 13 31  1  0  0  0
 14 15  2  0  0  0
 14 98  1  0  0  0
 15 99  1  0  0  0
 16 17  2  0  0  0
 16 21  1  0  0  0
 16 31  1  0  0  0
 17 18  1  0  0  0
 17100  1  0  0  0
 18 19  2  0  0  0
 18101  1  0  0  0
 19 20  1  0  0  0
 19 24  1  0  0  0
 20 21  2  0  0  0
 20102  1  0  0  0
 21 23  1  0  0  0
 22 28  1  0  0  0
 22 32  2  0  0  0
 26 27  1  0  0  0
 28103  1  0  0  0
 28104  1  0  0  0
 29105  1  0  0  0
 29106  1  0  0  0
 33 34  1  0  0  0
 33 66  1  0  0  0
 33 70  2  0  0  0
 34 36  1  0  0  0
 34 59  1  0  0  0
 34107  1  0  0  0
 35 44  2  0  0  0
 35 45  1  0  0  0
 35 68  1  0  0  0
 36 56  1  0  0  0
 36108  1  0  0  0
 37 39  1  0  0  0
 37 47  1  0  0  0
 37 66  1  0  0  0
 37109  1  0  0  0
 38 43  2  0  0  0
 38 46  1  0  0  0
 38 47  1  0  0  0
 39 64  1  0  0  0
 39 67  2  0  0  0
 40 52  1  0  0  0
 40 53  2  0  0  0
 40 58  1  0  0  0
 41110  1  0  0  0
 41111  1  0  0  0
 41112  1  0  0  0
 41 48  1  0  0  0
 42 43  1  0  0  0
 42 66  1  0  0  0
 42113  1  0  0  0
 42114  1  0  0  0
 43 44  1  0  0  0
 44115  1  0  0  0
 45 46  2  0  0  0
 45116  1  0  0  0
 46117  1  0  0  0
 47118  1  0  0  0
 47119  1  0  0  0
 48 56  1  0  0  0
 48 65  1  0  0  0
 48120  1  0  0  0
 49 50  1  0  0  0
 49 53  1  0  0  0
 49 64  1  0  0  0
 49121  1  0  0  0
 50 51  1  0  0  0
 50122  1  0  0  0
 50123  1  0  0  0
 51 52  1  0  0  0
 51124  1  0  0  0
 51125  1  0  0  0
 52126  1  0  0  0
 52127  1  0  0  0
 53 54  1  0  0  0
 54 55  2  0  0  0
 54128  1  0  0  0
 55 57  1  0  0  0
 55129  1  0  0  0
 56 69  2  0  0  0
 57 58  2  0  0  0
 57130  1  0  0  0
 58131  1  0  0  0
 59 60  1  0  0  0
 59 61  1  0  0  0
 59 62  1  0  0  0
 60132  1  0  0  0
 60133  1  0  0  0
 60134  1  0  0  0
 61135  1  0  0  0
 61136  1  0  0  0
 61137  1  0  0  0
 62138  1  0  0  0
 62139  1  0  0  0
 62140  1  0  0  0
 63 65  1  0  0  0
 63141  1  0  0  0
 63142  1  0  0  0
 63143  1  0  0  0
 64144  1  0  0  0
 65145  1  0  0  0
 68 81  1  0  0  0
 71 72  2  0  0  0
 71 85  1  0  0  0
 71146  1  0  0  0
 72 77  1  0  0  0
 72 84  1  0  0  0
 73 78  1  0  0  0
 73 84  1  0  0  0
 73 85  2  0  0  0
 74147  1  0  0  0
 74148  1  0  0  0
 74149  1  0  0  0
 74 82  1  0  0  0
 75 82  1  0  0  0
 75150  1  0  0  0
 75151  1  0  0  0
 75152  1  0  0  0
 76153  1  0  0  0
 76154  1  0  0  0
 76155  1  0  0  0
 76 83  1  0  0  0
 77 79  1  0  0  0
 77156  1  0  0  0
 77157  1  0  0  0
 78 82  1  0  0  0
 78158  1  0  0  0
 78159  1  0  0  0
 79 81  1  0  0  0
 79160  1  0  0  0
 79161  1  0  0  0
 80 83  1  0  0  0
 80 86  1  0  0  0
 80162  1  0  0  0
 80163  1  0  0  0
 81164  1  0  0  0
 81165  1  0  0  0
 82166  1  0  0  0
 83 84  1  0  0  0
 83167  1  0  0  0
 85168  1  0  0  0
 86169  1  0  0  0
M  CHG  1  85   1
M  ISO  4   1 100  68 101  81 101  86 100
M  END
> <chiral flag>
0

> <version>
0

> <s_m_source_file>
/data/baiqing/PycharmProjects/Reinvent-master-3.2/result/LINK_invent/BTK/process_docking_weight1_custom_sum_contain_oxygen_bond_distance_aromatic_linkinvent_7_9_3/rearranged_h_0096.sdf

> <i_m_source_file_index>
46

> <r_mmod_Potential_Energy-OPLS-2005>
337.160583496094

> <r_mmod_Stretch_Energy-OPLS-2005>
163.630996704102

> <r_mmod_Bend_Energy-OPLS-2005>
257.2470703125

> <r_mmod_Torsional_Energy-OPLS-2005>
337.192535400391

> <r_mmod_Improper_Torsional_Energy-OPLS-2005>
5.65202522277832

> <r_mmod_Van_der_Waal_Energy-OPLS-2005>
115.26244354248

> <r_mmod_Electrostatic_Energy-OPLS-2005>
-216.000427246094

> <r_mmod_Solvation_Energy-OPLS-2005>
-421.447387695312

> <b_mmod_Minimization_Converged-OPLS-2005>
0

> <r_mmod_RMS_Derivative-OPLS-2005>
8.3530912399292

$$$$
46
                    3D
 Structure written by MMmdl.
172180  0  0  1  0            999 V2000
  -29.4240  -16.9787   20.5829 C   0  0  0  0  0  0
  -30.1422  -14.1803   19.6675 C   0  0  0  0  0  0
  -29.5552  -13.1783   18.5491 C   0  0  0  0  0  0
  -28.2810  -12.4656   18.9942 C   0  0  0  0  0  0
  -27.5305  -13.4691   19.8739 C   0  0  2  0  0  0
  -28.3513  -14.2456   20.9765 C   0  0  0  0  0  0
  -25.1824  -13.8500   20.5926 C   0  0  0  0  0  0
  -24.1442  -13.0417   20.9329 C   0  0  0  0  0  0
  -24.6413  -11.7012   20.8741 C   0  0  0  0  0  0
  -23.9202  -10.4286   21.0339 C   0  0  0  0  0  0
  -24.3721   -9.4208   21.9143 C   0  0  0  0  0  0
  -23.6355   -8.2264   22.0750 C   0  0  0  0  0  0
  -22.4331   -8.0302   21.3549 C   0  0  0  0  0  0
  -21.9989   -9.0266   20.4633 C   0  0  0  0  0  0
  -22.7356  -10.2115   20.3007 C   0  0  0  0  0  0
  -21.6869   -6.0755   22.5284 C   0  0  0  0  0  0
  -21.4022   -6.5651   23.8218 C   0  0  0  0  0  0
  -21.3667   -5.6798   24.9180 C   0  0  0  0  0  0
  -21.6046   -4.3059   24.7223 C   0  0  0  0  0  0
  -21.8818   -3.8158   23.4340 C   0  0  0  0  0  0
  -21.9199   -4.6982   22.3403 C   0  0  0  0  0  0
  -22.7445  -13.5028   21.1947 C   0  0  0  0  0  0
  -22.1663   -4.2164   21.0979 F   0  0  0  0  0  0
  -21.5631   -3.4545   25.7734 F   0  0  0  0  0  0
  -29.2052  -15.3596   20.3512 N   0  0  0  0  0  0
  -26.2460  -13.0131   20.3526 N   0  0  0  0  0  0
  -25.9412  -11.7023   20.5682 N   0  0  0  0  0  0
  -22.0196  -12.7973   22.0526 N   0  0  0  0  0  0
  -25.3094  -15.2286   20.4367 N   0  0  0  0  0  0
  -30.6929  -16.7781   20.4412 O   0  0  0  0  0  0
  -21.6671   -6.8909   21.4252 O   0  0  0  0  0  0
  -22.3088  -14.5323   20.6792 O   0  0  0  0  0  0
  -24.7148  -31.3855   23.3061 C   0  0  0  0  0  0
  -25.9077  -32.2928   23.8165 C   0  0  1  0  0  0
  -27.8168  -27.0304   19.5414 C   0  0  0  0  0  0
  -25.5125  -33.7124   24.1194 N   0  0  0  0  0  0
  -23.5788  -29.0495   22.2588 C   0  0  2  0  0  0
  -25.7945  -28.3092   19.1361 C   0  0  0  0  0  0
  -22.5499  -28.9174   23.2011 C   0  0  0  0  0  0
  -17.8891  -28.1503   22.8549 C   0  0  0  0  0  0
  -24.1435  -36.6636   23.2701 C   0  0  0  0  0  0
  -26.3611  -29.9651   21.7558 C   0  0  0  0  0  0
  -26.7231  -29.0114   20.2723 C   0  0  0  0  0  0
  -27.7525  -28.1040   20.4815 C   0  0  0  0  0  0
  -27.3454  -27.1947   18.2648 C   0  0  0  0  0  0
  -26.1332  -27.7135   18.0569 C   0  0  0  0  0  0
  -24.1886  -27.7310   19.3424 C   0  0  0  0  0  0
  -25.4097  -36.2167   24.0202 C   0  0  1  0  0  0
  -20.3376  -28.2046   23.4422 C   0  0  2  0  0  0
  -20.3794  -26.7643   22.9016 C   0  0  0  0  0  0
  -19.4505  -26.5169   21.7092 C   0  0  0  0  0  0
  -18.0291  -26.7937   22.1752 C   0  0  0  0  0  0
  -18.9994  -28.8499   23.3720 C   0  0  0  0  0  0
  -18.8532  -30.1361   23.9281 C   0  0  0  0  0  0
  -17.5767  -30.7000   24.0417 C   0  0  0  0  0  0
  -25.8944  -34.8399   23.4787 C   0  0  0  0  0  0
  -16.4562  -29.9775   23.5985 C   0  0  0  0  0  0
  -16.6132  -28.7154   22.9980 C   0  0  0  0  0  0
  -26.4942  -31.6452   25.1285 C   0  0  0  0  0  0
  -25.4110  -31.3960   26.2073 C   0  0  0  0  0  0
  -27.1756  -30.2905   24.8520 C   0  0  0  0  0  0
  -27.5983  -32.5320   25.7431 C   0  0  0  0  0  0
  -27.5445  -37.1373   24.8459 C   0  0  0  0  0  0
  -21.2857  -29.0471   22.8276 N   0  0  0  0  0  0
  -26.4187  -37.3031   23.9313 N   0  0  0  0  0  0
  -24.9144  -30.1370   22.6395 N   0  0  0  0  0  0
  -23.0031  -28.5884   24.2643 O   0  0  0  0  0  0
  -27.7298  -25.6753   19.7393 O   0  0  0  0  0  0
  -26.6123  -34.8164   22.4771 O   0  0  0  0  0  0
  -23.5925  -31.8311   23.6066 O   0  0  0  0  0  0
  -21.9866  -28.2822   20.2820 C   0  0  0  0  0  0
  -23.7837  -26.6908   21.5515 C   0  0  0  0  0  0
  -22.6714  -29.5460   19.9850 C   0  0  0  0  0  0
  -22.5416  -26.8708   20.8900 C   0  0  0  0  0  0
  -24.2879  -29.7349   20.2810 C   0  0  0  0  0  0
  -20.9032  -30.2356   18.2551 C   0  0  0  0  0  0
  -21.2546  -31.5992   20.3694 C   0  0  0  0  0  0
  -22.3084  -25.4975   20.1425 C   0  0  0  0  0  0
  -23.4382  -24.8267   19.1297 C   0  0  0  0  0  0
  -24.9675  -24.3769   19.5343 C   0  0  0  0  0  0
  -26.2223  -25.6641   21.6410 C   0  0  0  0  0  0
  -28.0675  -20.9063   20.9304 C   0  0  0  0  0  0
  -26.5389  -24.8438   19.0516 C   0  0  0  0  0  0
  -21.9197  -30.6998   19.3173 C   0  0  0  0  0  0
  -26.8300  -23.1125   21.4395 C   0  0  2  0  0  0
  -25.0279  -27.6089   21.3569 N   0  0  0  0  0  0
  -28.5646  -18.6719   20.7990 N   0  0  0  0  0  0
  -24.8204  -30.7903   19.8583 O   0  0  0  0  0  0
  -27.2573  -23.0697   22.7892 O   0  0  0  0  0  0
  -30.9630  -14.6981   19.1700 H   0  0  0  0  0  0
  -30.6583  -13.6082   20.4431 H   0  0  0  0  0  0
  -30.3136  -12.4539   18.2491 H   0  0  0  0  0  0
  -29.3311  -13.7664   17.6583 H   0  0  0  0  0  0
  -28.5417  -11.5854   19.5846 H   0  0  0  0  0  0
  -27.6856  -12.1303   18.1437 H   0  0  0  0  0  0
  -27.2674  -14.2403   19.1479 H   0  0  0  0  0  0
  -28.8951  -13.5704   21.6394 H   0  0  0  0  0  0
  -27.6657  -14.7580   21.6500 H   0  0  0  0  0  0
  -25.2862   -9.5688   22.4728 H   0  0  0  0  0  0
  -24.0051   -7.4668   22.7493 H   0  0  0  0  0  0
  -21.0917   -8.8804   19.8940 H   0  0  0  0  0  0
  -22.3824  -10.9653   19.6112 H   0  0  0  0  0  0
  -21.2008   -7.6158   23.9724 H   0  0  0  0  0  0
  -21.1490   -6.0527   25.9080 H   0  0  0  0  0  0
  -22.0585   -2.7621   23.2841 H   0  0  0  0  0  0
  -22.3924  -11.9695   22.4928 H   0  0  0  0  0  0
  -21.0779  -13.0892   22.2733 H   0  0  0  0  0  0
  -24.5199  -15.8566   20.5440 H   0  0  0  0  0  0
  -26.1508  -15.6959   20.1243 H   0  0  0  0  0  0
  -26.6941  -32.3321   23.0672 H   0  0  0  0  0  0
  -24.8645  -33.8183   24.8851 H   0  0  0  0  0  0
  -23.0580  -30.0201   22.1922 H   0  0  0  0  0  0
  -23.3670  -35.8993   23.3264 H   0  0  0  0  0  0
  -24.3458  -36.8437   22.2132 H   0  0  0  0  0  0
  -23.7260  -37.5767   23.6948 H   0  0  0  0  0  0
  -26.7343  -30.9559   21.5049 H   0  0  0  0  0  0
  -27.0876  -29.5749   22.4516 H   0  0  0  0  0  0
  -28.2311  -28.0249   21.4469 H   0  0  0  0  0  0
  -27.7095  -26.5400   17.4854 H   0  0  0  0  0  0
  -25.4961  -27.3975   17.2411 H   0  0  0  0  0  0
  -23.5841  -27.9191   18.4420 H   0  0  0  0  0  0
  -24.5250  -26.7308   19.2667 H   0  0  0  0  0  0
  -25.1391  -36.0866   25.0700 H   0  0  0  0  0  0
  -20.5479  -28.1418   24.5149 H   0  0  0  0  0  0
  -19.9611  -26.1498   23.7008 H   0  0  0  0  0  0
  -21.3669  -26.3261   22.8608 H   0  0  0  0  0  0
  -19.5407  -25.4894   21.3578 H   0  0  0  0  0  0
  -19.6444  -27.1559   20.8650 H   0  0  0  0  0  0
  -17.3497  -26.7414   21.3243 H   0  0  0  0  0  0
  -17.7098  -26.0204   22.8760 H   0  0  0  0  0  0
  -19.7076  -30.6741   24.3154 H   0  0  0  0  0  0
  -17.4560  -31.6749   24.4929 H   0  0  0  0  0  0
  -15.4696  -30.4075   23.7067 H   0  0  0  0  0  0
  -15.7403  -28.1863   22.6416 H   0  0  0  0  0  0
  -24.6812  -30.6424   25.9094 H   0  0  0  0  0  0
  -24.8644  -32.3082   26.4479 H   0  0  0  0  0  0
  -25.8557  -31.0383   27.1367 H   0  0  0  0  0  0
  -26.4923  -29.5039   24.5391 H   0  0  0  0  0  0
  -27.6173  -29.9058   25.7721 H   0  0  0  0  0  0
  -28.0071  -30.3879   24.1545 H   0  0  0  0  0  0
  -27.2061  -33.4791   26.1157 H   0  0  0  0  0  0
  -28.3725  -32.7641   25.0108 H   0  0  0  0  0  0
  -28.0876  -32.0470   26.5887 H   0  0  0  0  0  0
  -28.2423  -37.9685   24.7352 H   0  0  0  0  0  0
  -28.0966  -36.2159   24.6532 H   0  0  0  0  0  0
  -27.2079  -37.1246   25.8838 H   0  0  0  0  0  0
  -21.0783  -29.3552   21.8894 H   0  0  0  0  0  0
  -25.9929  -38.2066   24.1179 H   0  0  0  0  0  0
  -20.9671  -28.2780   19.9565 H   0  0  0  0  0  0
  -24.0171  -25.6773   21.8091 H   0  0  0  0  0  0
  -21.3497  -29.5239   17.5581 H   0  0  0  0  0  0
  -20.5457  -31.0806   17.6650 H   0  0  0  0  0  0
  -20.0210  -29.7653   18.6928 H   0  0  0  0  0  0
  -21.9951  -32.0325   21.0419 H   0  0  0  0  0  0
  -20.5352  -31.0514   20.9785 H   0  0  0  0  0  0
  -20.7199  -32.4248   19.8991 H   0  0  0  0  0  0
  -21.3899  -25.6188   19.5671 H   0  0  0  0  0  0
  -22.0616  -24.7635   20.9107 H   0  0  0  0  0  0
  -23.4418  -25.3522   18.1744 H   0  0  0  0  0  0
  -22.9627  -23.8886   18.8360 H   0  0  0  0  0  0
  -24.9780  -23.3607   19.1365 H   0  0  0  0  0  0
  -24.8208  -24.1535   20.5739 H   0  0  0  0  0  0
  -27.1877  -26.0692   21.9325 H   0  0  0  0  0  0
  -25.8564  -25.5339   22.6588 H   0  0  0  0  0  0
  -29.0761  -21.2301   21.1854 H   0  0  0  0  0  0
  -28.0206  -21.0222   19.8472 H   0  0  0  0  0  0
  -26.4482  -24.9923   17.9776 H   0  0  0  0  0  0
  -27.0583  -23.8872   19.0044 H   0  0  0  0  0  0
  -22.6478  -31.3058   18.7783 H   0  0  0  0  0  0
  -25.8381  -22.6643   21.4562 H   0  0  0  0  0  0
  -29.5292  -18.9631   20.9181 H   0  0  0  0  0  0
  -28.1348  -23.4390   22.8318 H   0  0  0  0  0  0
  1 25  1  0  0  0
  1 30  2  0  0  0
  1 87  1  0  0  0
  2  3  1  0  0  0
  2 25  1  0  0  0
  2 90  1  0  0  0
  2 91  1  0  0  0
  3  4  1  0  0  0
  3 92  1  0  0  0
  3 93  1  0  0  0
  4  5  1  0  0  0
  4 94  1  0  0  0
  4 95  1  0  0  0
  5  6  1  0  0  0
  5 26  1  0  0  0
  5 96  1  0  0  0
  6 25  1  0  0  0
  6 97  1  0  0  0
  6 98  1  0  0  0
  7  8  2  0  0  0
  7 26  1  0  0  0
  7 29  1  0  0  0
  8  9  1  0  0  0
  8 22  1  0  0  0
  9 10  1  0  0  0
  9 27  2  0  0  0
 10 11  2  0  0  0
 10 15  1  0  0  0
 11 12  1  0  0  0
 11 99  1  0  0  0
 12 13  2  0  0  0
 12100  1  0  0  0
 13 14  1  0  0  0
 13 31  1  0  0  0
 14 15  2  0  0  0
 14101  1  0  0  0
 15102  1  0  0  0
 16 17  2  0  0  0
 16 21  1  0  0  0
 16 31  1  0  0  0
 17 18  1  0  0  0
 17103  1  0  0  0
 18 19  2  0  0  0
 18104  1  0  0  0
 19 20  1  0  0  0
 19 24  1  0  0  0
 20 21  2  0  0  0
 20105  1  0  0  0
 21 23  1  0  0  0
 22 28  1  0  0  0
 22 32  2  0  0  0
 26 27  1  0  0  0
 28106  1  0  0  0
 28107  1  0  0  0
 29108  1  0  0  0
 29109  1  0  0  0
 33 34  1  0  0  0
 33 66  1  0  0  0
 33 70  2  0  0  0
 34 36  1  0  0  0
 34 59  1  0  0  0
 34110  1  0  0  0
 35 44  2  0  0  0
 35 45  1  0  0  0
 35 68  1  0  0  0
 36 56  1  0  0  0
 36111  1  0  0  0
 37 39  1  0  0  0
 37 47  1  0  0  0
 37 66  1  0  0  0
 37112  1  0  0  0
 38 43  2  0  0  0
 38 46  1  0  0  0
 38 47  1  0  0  0
 39 64  1  0  0  0
 39 67  2  0  0  0
 40 52  1  0  0  0
 40 53  2  0  0  0
 40 58  1  0  0  0
 41113  1  0  0  0
 41114  1  0  0  0
 41115  1  0  0  0
 41 48  1  0  0  0
 42 43  1  0  0  0
 42 66  1  0  0  0
 42116  1  0  0  0
 42117  1  0  0  0
 43 44  1  0  0  0
 44118  1  0  0  0
 45 46  2  0  0  0
 45119  1  0  0  0
 46120  1  0  0  0
 47121  1  0  0  0
 47122  1  0  0  0
 48 56  1  0  0  0
 48 65  1  0  0  0
 48123  1  0  0  0
 49 50  1  0  0  0
 49 53  1  0  0  0
 49 64  1  0  0  0
 49124  1  0  0  0
 50 51  1  0  0  0
 50125  1  0  0  0
 50126  1  0  0  0
 51 52  1  0  0  0
 51127  1  0  0  0
 51128  1  0  0  0
 52129  1  0  0  0
 52130  1  0  0  0
 53 54  1  0  0  0
 54 55  2  0  0  0
 54131  1  0  0  0
 55 57  1  0  0  0
 55132  1  0  0  0
 56 69  2  0  0  0
 57 58  2  0  0  0
 57133  1  0  0  0
 58134  1  0  0  0
 59 60  1  0  0  0
 59 61  1  0  0  0
 59 62  1  0  0  0
 60135  1  0  0  0
 60136  1  0  0  0
 60137  1  0  0  0
 61138  1  0  0  0
 61139  1  0  0  0
 61140  1  0  0  0
 62141  1  0  0  0
 62142  1  0  0  0
 62143  1  0  0  0
 63 65  1  0  0  0
 63144  1  0  0  0
 63145  1  0  0  0
 63146  1  0  0  0
 64147  1  0  0  0
 65148  1  0  0  0
 68 83  1  0  0  0
 71 73  2  0  0  0
 71 74  1  0  0  0
 71149  1  0  0  0
 72 74  2  0  0  0
 72 86  1  0  0  0
 72150  1  0  0  0
 73 75  1  0  0  0
 73 84  1  0  0  0
 74 78  1  0  0  0
 75 86  1  0  0  0
 75 88  2  0  0  0
 76151  1  0  0  0
 76152  1  0  0  0
 76153  1  0  0  0
 76 84  1  0  0  0
 77 84  1  0  0  0
 77154  1  0  0  0
 77155  1  0  0  0
 77156  1  0  0  0
 78 79  1  0  0  0
 78157  1  0  0  0
 78158  1  0  0  0
 79 80  1  0  0  0
 79159  1  0  0  0
 79160  1  0  0  0
 80 83  1  0  0  0
 80161  1  0  0  0
 80162  1  0  0  0
 81 85  1  0  0  0
 81 86  1  0  0  0
 81163  1  0  0  0
 81164  1  0  0  0
 82 85  1  0  0  0
 82 87  1  0  0  0
 82165  1  0  0  0
 82166  1  0  0  0
 83167  1  0  0  0
 83168  1  0  0  0
 84169  1  0  0  0
 85 89  1  0  0  0
 85170  1  0  0  0
 87171  1  0  0  0
 89172  1  0  0  0
M  ISO  4   1 100  68 101  83 101  87 100
M  END
> <chiral flag>
0

> <version>
0

> <s_m_source_file>
/data/baiqing/PycharmProjects/Reinvent-master-3.2/result/LINK_invent/BTK/process_docking_weight1_custom_sum_contain_oxygen_bond_distance_aromatic_linkinvent_7_9_3/rearranged_h_0096.sdf

> <i_m_source_file_index>
47

> <r_mmod_Potential_Energy-OPLS-2005>
23720.58984375

> <r_mmod_Stretch_Energy-OPLS-2005>
12689.3916015625

> <r_mmod_Bend_Energy-OPLS-2005>
2302.15356445312

> <r_mmod_Torsional_Energy-OPLS-2005>
632.01416015625

> <r_mmod_Improper_Torsional_Energy-OPLS-2005>
43.4588623046875

> <r_mmod_Van_der_Waal_Energy-OPLS-2005>
3303.3759765625

> <r_mmod_Electrostatic_Energy-OPLS-2005>
-378.527862548828

> <r_mmod_Solvation_Energy-OPLS-2005>
-240.139678955078

> <b_mmod_Minimization_Converged-OPLS-2005>
0

> <r_mmod_RMS_Derivative-OPLS-2005>
4.41946172714233

$$$$
47
                    3D
 Structure written by MMmdl.
170178  0  0  1  0            999 V2000
  -30.7188  -14.4563   20.5053 C   0  0  0  0  0  0
  -30.4235  -12.2822   19.3947 C   0  0  0  0  0  0
  -29.4965  -12.5185   18.1833 C   0  0  0  0  0  0
  -28.0202  -12.3712   18.6036 C   0  0  0  0  0  0
  -27.6693  -13.2074   19.8661 C   0  0  2  0  0  0
  -28.7224  -12.9937   20.9810 C   0  0  0  0  0  0
  -25.2477  -13.8010   20.5370 C   0  0  0  0  0  0
  -24.1861  -13.0319   20.9119 C   0  0  0  0  0  0
  -24.6464  -11.6784   20.8776 C   0  0  0  0  0  0
  -23.9139  -10.4207   21.0424 C   0  0  0  0  0  0
  -24.3683   -9.4103   21.9197 C   0  0  0  0  0  0
  -23.6321   -8.2186   22.0773 C   0  0  0  0  0  0
  -22.4298   -8.0265   21.3566 C   0  0  0  0  0  0
  -21.9948   -9.0235   20.4678 C   0  0  0  0  0  0
  -22.7299  -10.2082   20.3055 C   0  0  0  0  0  0
  -21.6824   -6.0739   22.5289 C   0  0  0  0  0  0
  -21.3988   -6.5648   23.8208 C   0  0  0  0  0  0
  -21.3679   -5.6820   24.9187 C   0  0  0  0  0  0
  -21.6017   -4.3059   24.7222 C   0  0  0  0  0  0
  -21.8832   -3.8160   23.4336 C   0  0  0  0  0  0
  -21.9173   -4.6979   22.3403 C   0  0  0  0  0  0
  -22.7848  -13.5036   21.1850 C   0  0  0  0  0  0
  -22.1664   -4.2153   21.0984 F   0  0  0  0  0  0
  -21.5661   -3.4573   25.7745 F   0  0  0  0  0  0
  -30.0558  -13.2767   20.4108 N   0  0  0  0  0  0
  -26.3073  -12.9293   20.3341 N   0  0  0  0  0  0
  -25.9405  -11.6429   20.5840 N   0  0  0  0  0  0
  -22.0618  -12.8024   22.0485 N   0  0  0  0  0  0
  -25.3849  -15.1711   20.3222 N   0  0  0  0  0  0
  -31.8653  -14.6341   20.0888 O   0  0  0  0  0  0
  -21.6611   -6.8889   21.4242 O   0  0  0  0  0  0
  -22.3479  -14.5379   20.6716 O   0  0  0  0  0  0
  -24.6073  -31.8706   23.2023 C   0  0  0  0  0  0
  -25.8950  -32.4821   23.8374 C   0  0  1  0  0  0
  -27.2676  -27.4740   20.0859 C   0  0  0  0  0  0
  -25.5768  -33.8621   24.2348 N   0  0  0  0  0  0
  -23.3916  -30.4831   21.5484 C   0  0  2  0  0  0
  -24.8403  -28.9282   20.1343 C   0  0  0  0  0  0
  -22.7306  -29.4655   22.5037 C   0  0  0  0  0  0
  -18.0237  -28.1295   22.8569 C   0  0  0  0  0  0
  -24.1481  -36.7348   23.2649 C   0  0  0  0  0  0
  -25.9157  -30.8340   21.3500 C   0  0  0  0  0  0
  -25.9964  -29.4653   20.7127 C   0  0  0  0  0  0
  -27.2103  -28.7498   20.6808 C   0  0  0  0  0  0
  -26.0916  -26.9153   19.5333 C   0  0  0  0  0  0
  -24.8797  -27.6425   19.5514 C   0  0  0  0  0  0
  -23.5986  -29.7917   20.1757 C   0  0  0  0  0  0
  -25.4128  -36.3179   24.0353 C   0  0  1  0  0  0
  -20.5823  -28.3536   23.1167 C   0  0  2  0  0  0
  -20.6601  -26.9291   22.5253 C   0  0  0  0  0  0
  -19.5513  -26.6311   21.5094 C   0  0  0  0  0  0
  -18.1821  -26.7808   22.1759 C   0  0  0  0  0  0
  -19.1552  -28.8738   23.2914 C   0  0  0  0  0  0
  -18.9587  -30.1318   23.8913 C   0  0  0  0  0  0
  -17.6601  -30.6430   24.0768 C   0  0  0  0  0  0
  -25.9028  -34.9487   23.5182 C   0  0  0  0  0  0
  -16.5447  -29.9068   23.6485 C   0  0  0  0  0  0
  -16.7252  -28.6500   23.0435 C   0  0  0  0  0  0
  -26.4434  -31.6547   25.0646 C   0  0  0  0  0  0
  -25.3765  -31.3543   26.1445 C   0  0  0  0  0  0
  -27.0256  -30.2996   24.5934 C   0  0  0  0  0  0
  -27.6066  -32.4246   25.7363 C   0  0  0  0  0  0
  -27.5629  -37.1833   24.8504 C   0  0  0  0  0  0
  -21.4066  -29.2985   22.3665 N   0  0  0  0  0  0
  -26.4337  -37.3863   23.9422 N   0  0  0  0  0  0
  -24.6565  -31.0762   22.0933 N   0  0  0  0  0  0
  -23.4088  -28.8278   23.3125 O   0  0  0  0  0  0
  -28.5129  -26.9019   19.9628 O   0  0  0  0  0  0
  -26.5663  -34.8952   22.4800 O   0  0  0  0  0  0
  -23.5250  -32.1492   23.7403 O   0  0  0  0  0  0
  -29.2382  -19.8784   19.8061 C   0  0  0  0  0  0
  -27.6546  -21.6261   20.2804 C   0  0  0  0  0  0
  -28.8594  -21.2285   19.6721 C   0  0  0  0  0  0
  -28.3903  -18.9560   20.4654 C   0  0  0  0  0  0
  -27.2257  -19.4722   21.1317 C   0  0  0  0  0  0
  -26.6932  -17.3822   22.7485 C   0  0  0  0  0  0
  -24.8122  -18.6747   21.6815 C   0  0  0  0  0  0
  -30.6980  -17.5296   22.0289 C   0  0  0  0  0  0
  -29.7260  -22.1965   18.8613 C   0  0  0  0  0  0
  -28.7304  -17.4710   20.2823 C   0  0  0  0  0  0
  -30.0640  -23.5049   19.6033 C   0  0  0  0  0  0
  -29.3766  -24.7910   19.0991 C   0  0  0  0  0  0
  -28.7175  -25.5374   20.2754 C   0  0  0  0  0  0
  -26.2836  -18.7381   22.1371 C   0  0  0  0  0  0
  -30.1160  -16.9122   20.7408 C   0  0  1  0  0  0
  -26.9023  -20.7866   21.0245 N   0  0  0  0  0  0
  -29.9410  -15.4671   20.9098 N   0  0  0  0  0  0
  -31.4719  -12.3475   19.0965 H   0  0  0  0  0  0
  -30.2893  -11.2670   19.7812 H   0  0  0  0  0  0
  -29.7299  -11.8223   17.3777 H   0  0  0  0  0  0
  -29.6771  -13.5195   17.7787 H   0  0  0  0  0  0
  -27.8302  -11.3112   18.7914 H   0  0  0  0  0  0
  -27.3726  -12.6577   17.7786 H   0  0  0  0  0  0
  -27.7108  -14.2540   19.5614 H   0  0  0  0  0  0
  -28.7010  -11.9615   21.3348 H   0  0  0  0  0  0
  -28.5008  -13.6149   21.8530 H   0  0  0  0  0  0
  -25.2834   -9.5552   22.4739 H   0  0  0  0  0  0
  -24.0010   -7.4532   22.7461 H   0  0  0  0  0  0
  -21.0900   -8.8727   19.8981 H   0  0  0  0  0  0
  -22.3763  -10.9614   19.6180 H   0  0  0  0  0  0
  -21.1954   -7.6144   23.9672 H   0  0  0  0  0  0
  -21.1530   -6.0593   25.9086 H   0  0  0  0  0  0
  -22.0583   -2.7610   23.2845 H   0  0  0  0  0  0
  -22.4260  -11.9660   22.4797 H   0  0  0  0  0  0
  -21.1239  -13.1019   22.2804 H   0  0  0  0  0  0
  -24.5969  -15.8038   20.4135 H   0  0  0  0  0  0
  -26.1959  -15.6039   19.9073 H   0  0  0  0  0  0
  -26.6990  -32.5548   23.1131 H   0  0  0  0  0  0
  -24.9815  -33.9788   25.0429 H   0  0  0  0  0  0
  -22.6898  -31.3051   21.3919 H   0  0  0  0  0  0
  -23.3733  -35.9680   23.3336 H   0  0  0  0  0  0
  -24.3635  -36.8915   22.2065 H   0  0  0  0  0  0
  -23.7159  -37.6537   23.6636 H   0  0  0  0  0  0
  -26.0338  -31.5910   20.5755 H   0  0  0  0  0  0
  -26.8014  -30.8887   21.9639 H   0  0  0  0  0  0
  -28.1134  -29.1912   21.0766 H   0  0  0  0  0  0
  -26.1271  -25.9435   19.0534 H   0  0  0  0  0  0
  -23.9884  -27.2069   19.1132 H   0  0  0  0  0  0
  -23.7229  -30.5530   19.4074 H   0  0  0  0  0  0
  -22.7193  -29.2109   19.8842 H   0  0  0  0  0  0
  -25.1261  -36.2104   25.0823 H   0  0  0  0  0  0
  -20.9984  -28.2988   24.1276 H   0  0  0  0  0  0
  -20.5376  -26.2255   23.3492 H   0  0  0  0  0  0
  -21.6451  -26.7131   22.1114 H   0  0  0  0  0  0
  -19.6698  -25.6217   21.1079 H   0  0  0  0  0  0
  -19.6353  -27.3143   20.6622 H   0  0  0  0  0  0
  -17.3909  -26.6238   21.4402 H   0  0  0  0  0  0
  -18.0578  -26.0074   22.9382 H   0  0  0  0  0  0
  -19.8140  -30.7104   24.2116 H   0  0  0  0  0  0
  -17.5299  -31.6091   24.5458 H   0  0  0  0  0  0
  -15.5473  -30.3036   23.7836 H   0  0  0  0  0  0
  -15.8614  -28.0899   22.7086 H   0  0  0  0  0  0
  -24.5974  -30.6801   25.7837 H   0  0  0  0  0  0
  -24.8898  -32.2617   26.5018 H   0  0  0  0  0  0
  -25.8257  -30.8688   27.0114 H   0  0  0  0  0  0
  -26.2726  -29.6767   24.1048 H   0  0  0  0  0  0
  -27.4153  -29.7190   25.4312 H   0  0  0  0  0  0
  -27.8551  -30.4376   23.8985 H   0  0  0  0  0  0
  -27.2703  -33.3562   26.1955 H   0  0  0  0  0  0
  -28.3849  -32.6772   25.0120 H   0  0  0  0  0  0
  -28.0759  -31.8298   26.5219 H   0  0  0  0  0  0
  -28.2687  -38.0108   24.7567 H   0  0  0  0  0  0
  -28.1073  -36.2632   24.6299 H   0  0  0  0  0  0
  -27.2358  -37.1454   25.8917 H   0  0  0  0  0  0
  -20.9276  -29.8767   21.6880 H   0  0  0  0  0  0
  -26.0241  -38.2946   24.1393 H   0  0  0  0  0  0
  -30.1735  -19.5555   19.3662 H   0  0  0  0  0  0
  -27.3049  -22.6499   20.1944 H   0  0  0  0  0  0
  -27.7198  -17.3422   23.1100 H   0  0  0  0  0  0
  -26.4932  -16.5415   22.0911 H   0  0  0  0  0  0
  -26.0581  -17.1601   23.6027 H   0  0  0  0  0  0
  -24.4024  -19.6744   21.5184 H   0  0  0  0  0  0
  -24.1841  -18.2102   22.4431 H   0  0  0  0  0  0
  -24.6959  -18.0991   20.7650 H   0  0  0  0  0  0
  -31.7145  -17.1689   22.2025 H   0  0  0  0  0  0
  -30.7862  -18.6084   21.9496 H   0  0  0  0  0  0
  -30.0907  -17.3086   22.9054 H   0  0  0  0  0  0
  -29.2804  -22.3746   17.8788 H   0  0  0  0  0  0
  -30.6634  -21.6903   18.6306 H   0  0  0  0  0  0
  -27.9406  -16.8472   20.6549 H   0  0  0  0  0  0
  -28.6496  -17.2871   19.2086 H   0  0  0  0  0  0
  -31.1469  -23.6566   19.5738 H   0  0  0  0  0  0
  -29.8228  -23.3628   20.6560 H   0  0  0  0  0  0
  -30.1164  -25.4326   18.6041 H   0  0  0  0  0  0
  -28.6151  -24.5841   18.3501 H   0  0  0  0  0  0
  -29.4179  -25.5415   21.1121 H   0  0  0  0  0  0
  -27.8151  -25.0221   20.6008 H   0  0  0  0  0  0
  -26.2866  -19.3911   23.0113 H   0  0  0  0  0  0
  -30.8458  -17.0958   19.9443 H   0  0  0  0  0  0
  -29.0022  -15.1815   21.1436 H   0  0  0  0  0  0
  1 25  1  0  0  0
  1 30  2  0  0  0
  1 87  1  0  0  0
  2  3  1  0  0  0
  2 25  1  0  0  0
  2 88  1  0  0  0
  2 89  1  0  0  0
  3  4  1  0  0  0
  3 90  1  0  0  0
  3 91  1  0  0  0
  4  5  1  0  0  0
  4 92  1  0  0  0
  4 93  1  0  0  0
  5  6  1  0  0  0
  5 26  1  0  0  0
  5 94  1  0  0  0
  6 25  1  0  0  0
  6 95  1  0  0  0
  6 96  1  0  0  0
  7  8  2  0  0  0
  7 26  1  0  0  0
  7 29  1  0  0  0
  8  9  1  0  0  0
  8 22  1  0  0  0
  9 10  1  0  0  0
  9 27  2  0  0  0
 10 11  2  0  0  0
 10 15  1  0  0  0
 11 12  1  0  0  0
 11 97  1  0  0  0
 12 13  2  0  0  0
 12 98  1  0  0  0
 13 14  1  0  0  0
 13 31  1  0  0  0
 14 15  2  0  0  0
 14 99  1  0  0  0
 15100  1  0  0  0
 16 17  2  0  0  0
 16 21  1  0  0  0
 16 31  1  0  0  0
 17 18  1  0  0  0
 17101  1  0  0  0
 18 19  2  0  0  0
 18102  1  0  0  0
 19 20  1  0  0  0
 19 24  1  0  0  0
 20 21  2  0  0  0
 20103  1  0  0  0
 21 23  1  0  0  0
 22 28  1  0  0  0
 22 32  2  0  0  0
 26 27  1  0  0  0
 28104  1  0  0  0
 28105  1  0  0  0
 29106  1  0  0  0
 29107  1  0  0  0
 33 34  1  0  0  0
 33 66  1  0  0  0
 33 70  2  0  0  0
 34 36  1  0  0  0
 34 59  1  0  0  0
 34108  1  0  0  0
 35 44  2  0  0  0
 35 45  1  0  0  0
 35 68  1  0  0  0
 36 56  1  0  0  0
 36109  1  0  0  0
 37 39  1  0  0  0
 37 47  1  0  0  0
 37 66  1  0  0  0
 37110  1  0  0  0
 38 43  2  0  0  0
 38 46  1  0  0  0
 38 47  1  0  0  0
 39 64  1  0  0  0
 39 67  2  0  0  0
 40 52  1  0  0  0
 40 53  2  0  0  0
 40 58  1  0  0  0
 41111  1  0  0  0
 41112  1  0  0  0
 41113  1  0  0  0
 41 48  1  0  0  0
 42 43  1  0  0  0
 42 66  1  0  0  0
 42114  1  0  0  0
 42115  1  0  0  0
 43 44  1  0  0  0
 44116  1  0  0  0
 45 46  2  0  0  0
 45117  1  0  0  0
 46118  1  0  0  0
 47119  1  0  0  0
 47120  1  0  0  0
 48 56  1  0  0  0
 48 65  1  0  0  0
 48121  1  0  0  0
 49 50  1  0  0  0
 49 53  1  0  0  0
 49 64  1  0  0  0
 49122  1  0  0  0
 50 51  1  0  0  0
 50123  1  0  0  0
 50124  1  0  0  0
 51 52  1  0  0  0
 51125  1  0  0  0
 51126  1  0  0  0
 52127  1  0  0  0
 52128  1  0  0  0
 53 54  1  0  0  0
 54 55  2  0  0  0
 54129  1  0  0  0
 55 57  1  0  0  0
 55130  1  0  0  0
 56 69  2  0  0  0
 57 58  2  0  0  0
 57131  1  0  0  0
 58132  1  0  0  0
 59 60  1  0  0  0
 59 61  1  0  0  0
 59 62  1  0  0  0
 60133  1  0  0  0
 60134  1  0  0  0
 60135  1  0  0  0
 61136  1  0  0  0
 61137  1  0  0  0
 61138  1  0  0  0
 62139  1  0  0  0
 62140  1  0  0  0
 62141  1  0  0  0
 63 65  1  0  0  0
 63142  1  0  0  0
 63143  1  0  0  0
 63144  1  0  0  0
 64145  1  0  0  0
 65146  1  0  0  0
 68 83  1  0  0  0
 71 73  2  0  0  0
 71 74  1  0  0  0
 71147  1  0  0  0
 72 73  1  0  0  0
 72 86  2  0  0  0
 72148  1  0  0  0
 73 79  1  0  0  0
 74 75  2  0  0  0
 74 80  1  0  0  0
 75 84  1  0  0  0
 75 86  1  0  0  0
 76149  1  0  0  0
 76150  1  0  0  0
 76151  1  0  0  0
 76 84  1  0  0  0
 77 84  1  0  0  0
 77152  1  0  0  0
 77153  1  0  0  0
 77154  1  0  0  0
 78155  1  0  0  0
 78156  1  0  0  0
 78157  1  0  0  0
 78 85  1  0  0  0
 79 81  1  0  0  0
 79158  1  0  0  0
 79159  1  0  0  0
 80 85  1  0  0  0
 80160  1  0  0  0
 80161  1  0  0  0
 81 82  1  0  0  0
 81162  1  0  0  0
 81163  1  0  0  0
 82 83  1  0  0  0
 82164  1  0  0  0
 82165  1  0  0  0
 83166  1  0  0  0
 83167  1  0  0  0
 84168  1  0  0  0
 85 87  1  0  0  0
 85169  1  0  0  0
 87170  1  0  0  0
M  ISO  4   1 100  68 101  83 101  87 100
M  END
> <chiral flag>
0

> <version>
0

> <s_m_source_file>
/data/baiqing/PycharmProjects/Reinvent-master-3.2/result/LINK_invent/BTK/process_docking_weight1_custom_sum_contain_oxygen_bond_distance_aromatic_linkinvent_7_9_3/rearranged_h_0096.sdf

> <i_m_source_file_index>
48

> <r_mmod_Potential_Energy-OPLS-2005>
-174.470260620117

> <r_mmod_Stretch_Energy-OPLS-2005>
44.0111885070801

> <r_mmod_Bend_Energy-OPLS-2005>
148.507873535156

> <r_mmod_Torsional_Energy-OPLS-2005>
248.132339477539

> <r_mmod_Improper_Torsional_Energy-OPLS-2005>
6.94206190109253

> <r_mmod_Van_der_Waal_Energy-OPLS-2005>
146.955123901367

> <r_mmod_Electrostatic_Energy-OPLS-2005>
-577.350463867188

> <r_mmod_Solvation_Energy-OPLS-2005>
-210.084579467773

> <b_mmod_Minimization_Converged-OPLS-2005>
0

> <r_mmod_RMS_Derivative-OPLS-2005>
12.9384508132935

$$$$
48
                    3D
 Structure written by MMmdl.
170178  0  0  1  0            999 V2000
  -30.6632  -14.5664   20.5439 C   0  0  0  0  0  0
  -30.4267  -12.3622   19.4355 C   0  0  0  0  0  0
  -29.4997  -12.5134   18.2088 C   0  0  0  0  0  0
  -28.0192  -12.3697   18.6157 C   0  0  0  0  0  0
  -27.6542  -13.2162   19.8654 C   0  0  2  0  0  0
  -28.6978  -13.0440   20.9914 C   0  0  0  0  0  0
  -25.2568  -13.8163   20.5691 C   0  0  0  0  0  0
  -24.1843  -13.0426   20.9209 C   0  0  0  0  0  0
  -24.6403  -11.6904   20.8742 C   0  0  0  0  0  0
  -23.9075  -10.4287   21.0404 C   0  0  0  0  0  0
  -24.3604   -9.4198   21.9182 C   0  0  0  0  0  0
  -23.6258   -8.2244   22.0784 C   0  0  0  0  0  0
  -22.4240   -8.0283   21.3573 C   0  0  0  0  0  0
  -21.9889   -9.0280   20.4680 C   0  0  0  0  0  0
  -22.7240  -10.2148   20.3063 C   0  0  0  0  0  0
  -21.6863   -6.0691   22.5274 C   0  0  0  0  0  0
  -21.4019   -6.5605   23.8197 C   0  0  0  0  0  0
  -21.3669   -5.6771   24.9180 C   0  0  0  0  0  0
  -21.6044   -4.3039   24.7241 C   0  0  0  0  0  0
  -21.8816   -3.8111   23.4378 C   0  0  0  0  0  0
  -21.9200   -4.6919   22.3414 C   0  0  0  0  0  0
  -22.7866  -13.5235   21.1881 C   0  0  0  0  0  0
  -22.1687   -4.2089   21.1000 F   0  0  0  0  0  0
  -21.5634   -3.4533   25.7776 F   0  0  0  0  0  0
  -30.0141  -13.3724   20.4266 N   0  0  0  0  0  0
  -26.2998  -12.9353   20.3326 N   0  0  0  0  0  0
  -25.9337  -11.6515   20.5771 N   0  0  0  0  0  0
  -22.0484  -12.8245   22.0436 N   0  0  0  0  0  0
  -25.4239  -15.1880   20.4108 N   0  0  0  0  0  0
  -31.8226  -14.7174   20.1551 O   0  0  0  0  0  0
  -21.6645   -6.8853   21.4245 O   0  0  0  0  0  0
  -22.3568  -14.5549   20.6726 O   0  0  0  0  0  0
  -24.6186  -31.8644   23.2069 C   0  0  0  0  0  0
  -25.9058  -32.4811   23.8389 C   0  0  1  0  0  0
  -27.2094  -27.3443   20.1499 C   0  0  0  0  0  0
  -25.5899  -33.8611   24.2299 N   0  0  0  0  0  0
  -23.4147  -30.4863   21.5447 C   0  0  2  0  0  0
  -24.8656  -28.9513   20.1041 C   0  0  0  0  0  0
  -22.7456  -29.4623   22.4909 C   0  0  0  0  0  0
  -18.0283  -28.1402   22.8481 C   0  0  0  0  0  0
  -24.1487  -36.7322   23.2636 C   0  0  0  0  0  0
  -25.9517  -30.8000   21.3820 C   0  0  0  0  0  0
  -26.0227  -29.4258   20.7378 C   0  0  0  0  0  0
  -27.1970  -28.6245   20.7712 C   0  0  0  0  0  0
  -26.0672  -26.9477   19.4300 C   0  0  0  0  0  0
  -24.8882  -27.7151   19.4392 C   0  0  0  0  0  0
  -23.6312  -29.8262   20.1556 C   0  0  0  0  0  0
  -25.4108  -36.3115   24.0341 C   0  0  1  0  0  0
  -20.5853  -28.3730   23.1298 C   0  0  2  0  0  0
  -20.6787  -26.9444   22.5470 C   0  0  0  0  0  0
  -19.5752  -26.6330   21.5303 C   0  0  0  0  0  0
  -18.1941  -26.7907   22.1694 C   0  0  0  0  0  0
  -19.1510  -28.8884   23.2873 C   0  0  0  0  0  0
  -18.9405  -30.1475   23.8908 C   0  0  0  0  0  0
  -17.6397  -30.6594   24.0541 C   0  0  0  0  0  0
  -25.9038  -34.9480   23.5126 C   0  0  0  0  0  0
  -16.5315  -29.9077   23.6294 C   0  0  0  0  0  0
  -16.7255  -28.6487   23.0333 C   0  0  0  0  0  0
  -26.4459  -31.6609   25.0735 C   0  0  0  0  0  0
  -25.3685  -31.3754   26.1459 C   0  0  0  0  0  0
  -27.0276  -30.3038   24.6157 C   0  0  0  0  0  0
  -27.6035  -32.4322   25.7489 C   0  0  0  0  0  0
  -27.5585  -37.1819   24.8459 C   0  0  0  0  0  0
  -21.4173  -29.3040   22.3658 N   0  0  0  0  0  0
  -26.4290  -37.3798   23.9407 N   0  0  0  0  0  0
  -24.6788  -31.0687   22.1009 N   0  0  0  0  0  0
  -23.4177  -28.8145   23.2975 O   0  0  0  0  0  0
  -28.3120  -26.5034   20.1663 O   0  0  0  0  0  0
  -26.5605  -34.8940   22.4697 O   0  0  0  0  0  0
  -23.5359  -32.1432   23.7404 O   0  0  0  0  0  0
  -29.0963  -21.6568   20.6753 C   0  0  0  0  0  0
  -27.8817  -22.1063   22.4681 C   0  0  0  0  0  0
  -28.2198  -22.6442   21.2498 C   0  0  0  0  0  0
  -29.2001  -20.5656   21.5213 C   0  0  0  0  0  0
  -25.3318  -22.7948   20.2858 C   0  0  0  0  0  0
  -28.0999  -20.8867   25.1401 C   0  0  0  0  0  0
  -29.2289  -18.9298   24.1424 C   0  0  0  0  0  0
  -26.7880  -19.3319   23.6768 C   0  0  0  0  0  0
  -26.1041  -23.9541   20.9455 C   0  0  0  0  0  0
  -30.4280  -17.0179   21.1935 C   0  0  0  0  0  0
  -29.4380  -18.2134   20.8996 C   0  0  0  0  0  0
  -28.3142  -25.3328   21.0637 C   0  0  0  0  0  0
  -27.6307  -23.9611   20.6358 C   0  0  1  0  0  0
  -28.1611  -20.0106   23.8656 C   0  0  0  0  0  0
  -28.4530  -20.8476   22.6708 N   0  0  0  0  0  0
  -29.9272  -15.6311   20.9607 N   0  0  0  0  0  0
  -29.9979  -19.4551   21.3966 O   0  0  0  0  0  0
  -31.4710  -12.4718   19.1373 H   0  0  0  0  0  0
  -30.3437  -11.3630   19.8623 H   0  0  0  0  0  0
  -29.7483  -11.7748   17.4464 H   0  0  0  0  0  0
  -29.6557  -13.4880   17.7429 H   0  0  0  0  0  0
  -27.8181  -11.3152   18.8062 H   0  0  0  0  0  0
  -27.3829  -12.6545   17.7777 H   0  0  0  0  0  0
  -27.6780  -14.2576   19.5486 H   0  0  0  0  0  0
  -28.6991  -12.0171   21.3563 H   0  0  0  0  0  0
  -28.4516  -13.6665   21.8528 H   0  0  0  0  0  0
  -25.2772   -9.5666   22.4727 H   0  0  0  0  0  0
  -23.9949   -7.4652   22.7517 H   0  0  0  0  0  0
  -21.0809   -8.8850   19.9003 H   0  0  0  0  0  0
  -22.3748  -10.9684   19.6147 H   0  0  0  0  0  0
  -21.2031   -7.6118   23.9697 H   0  0  0  0  0  0
  -21.1489   -6.0513   25.9069 H   0  0  0  0  0  0
  -22.0591   -2.7562   23.2922 H   0  0  0  0  0  0
  -22.4071  -11.9886   22.4785 H   0  0  0  0  0  0
  -21.1127  -13.1351   22.2699 H   0  0  0  0  0  0
  -24.6478  -15.8324   20.5151 H   0  0  0  0  0  0
  -26.2636  -15.6331   20.0656 H   0  0  0  0  0  0
  -26.7120  -32.5489   23.1128 H   0  0  0  0  0  0
  -25.0040  -33.9768   25.0446 H   0  0  0  0  0  0
  -22.7021  -31.3038   21.4033 H   0  0  0  0  0  0
  -23.3750  -35.9651   23.3301 H   0  0  0  0  0  0
  -24.3573  -36.8928   22.2045 H   0  0  0  0  0  0
  -23.7242  -37.6536   23.6642 H   0  0  0  0  0  0
  -26.0809  -31.5533   20.6054 H   0  0  0  0  0  0
  -26.8359  -30.8552   22.0047 H   0  0  0  0  0  0
  -28.0815  -28.9661   21.2921 H   0  0  0  0  0  0
  -26.0843  -26.0220   18.8710 H   0  0  0  0  0  0
  -24.0154  -27.3610   18.9083 H   0  0  0  0  0  0
  -23.7428  -30.6060   19.4026 H   0  0  0  0  0  0
  -22.7541  -29.2502   19.8551 H   0  0  0  0  0  0
  -25.1273  -36.1990   25.0831 H   0  0  0  0  0  0
  -20.9926  -28.3326   24.1432 H   0  0  0  0  0  0
  -20.5787  -26.2386   23.3715 H   0  0  0  0  0  0
  -21.6643  -26.7492   22.1208 H   0  0  0  0  0  0
  -19.6925  -25.6218   21.1405 H   0  0  0  0  0  0
  -19.6716  -27.3105   20.6809 H   0  0  0  0  0  0
  -17.4207  -26.6599   21.4103 H   0  0  0  0  0  0
  -18.0345  -26.0119   22.9169 H   0  0  0  0  0  0
  -19.7865  -30.7303   24.2327 H   0  0  0  0  0  0
  -17.4925  -31.6261   24.5154 H   0  0  0  0  0  0
  -15.5296  -30.2961   23.7593 H   0  0  0  0  0  0
  -15.8674  -28.0760   22.7072 H   0  0  0  0  0  0
  -24.5856  -30.7102   25.7799 H   0  0  0  0  0  0
  -24.8860  -32.2907   26.4890 H   0  0  0  0  0  0
  -25.7998  -30.8930   27.0238 H   0  0  0  0  0  0
  -26.2830  -29.6821   24.1163 H   0  0  0  0  0  0
  -27.3967  -29.7272   25.4654 H   0  0  0  0  0  0
  -27.8716  -30.4343   23.9377 H   0  0  0  0  0  0
  -27.2676  -33.3618   26.2107 H   0  0  0  0  0  0
  -28.3828  -32.6890   25.0294 H   0  0  0  0  0  0
  -28.0727  -31.8410   26.5363 H   0  0  0  0  0  0
  -28.2601  -38.0115   24.7487 H   0  0  0  0  0  0
  -28.1080  -36.2648   24.6289 H   0  0  0  0  0  0
  -27.2305  -37.1477   25.8862 H   0  0  0  0  0  0
  -20.9364  -29.8752   21.6837 H   0  0  0  0  0  0
  -26.0194  -38.2889   24.1389 H   0  0  0  0  0  0
  -29.5896  -21.7344   19.7158 H   0  0  0  0  0  0
  -27.2143  -22.5134   23.2137 H   0  0  0  0  0  0
  -24.2754  -22.8314   20.5514 H   0  0  0  0  0  0
  -25.7082  -21.8199   20.5953 H   0  0  0  0  0  0
  -25.4026  -22.8488   19.1997 H   0  0  0  0  0  0
  -27.9815  -20.2709   26.0335 H   0  0  0  0  0  0
  -27.2520  -21.5709   25.1458 H   0  0  0  0  0  0
  -29.0120  -21.4702   25.2659 H   0  0  0  0  0  0
  -29.1450  -18.5294   25.1512 H   0  0  0  0  0  0
  -30.2412  -19.3186   24.0349 H   0  0  0  0  0  0
  -29.1192  -18.0670   23.4914 H   0  0  0  0  0  0
  -26.4461  -18.8538   24.5956 H   0  0  0  0  0  0
  -26.8157  -18.5617   22.9073 H   0  0  0  0  0  0
  -26.0222  -20.0507   23.3817 H   0  0  0  0  0  0
  -25.9415  -23.9345   22.0234 H   0  0  0  0  0  0
  -25.6225  -24.8692   20.6406 H   0  0  0  0  0  0
  -30.7266  -17.0632   22.2409 H   0  0  0  0  0  0
  -31.3460  -17.1878   20.6322 H   0  0  0  0  0  0
  -28.4635  -18.0287   21.3513 H   0  0  0  0  0  0
  -29.2714  -18.3052   19.8245 H   0  0  0  0  0  0
  -29.3766  -25.1154   21.1757 H   0  0  0  0  0  0
  -27.9940  -25.6253   22.0650 H   0  0  0  0  0  0
  -27.7643  -23.8797   19.5562 H   0  0  0  0  0  0
  -28.9627  -15.4506   21.1935 H   0  0  0  0  0  0
  1 25  1  0  0  0
  1 30  2  0  0  0
  1 86  1  0  0  0
  2  3  1  0  0  0
  2 25  1  0  0  0
  2 88  1  0  0  0
  2 89  1  0  0  0
  3  4  1  0  0  0
  3 90  1  0  0  0
  3 91  1  0  0  0
  4  5  1  0  0  0
  4 92  1  0  0  0
  4 93  1  0  0  0
  5  6  1  0  0  0
  5 26  1  0  0  0
  5 94  1  0  0  0
  6 25  1  0  0  0
  6 95  1  0  0  0
  6 96  1  0  0  0
  7  8  2  0  0  0
  7 26  1  0  0  0
  7 29  1  0  0  0
  8  9  1  0  0  0
  8 22  1  0  0  0
  9 10  1  0  0  0
  9 27  2  0  0  0
 10 11  2  0  0  0
 10 15  1  0  0  0
 11 12  1  0  0  0
 11 97  1  0  0  0
 12 13  2  0  0  0
 12 98  1  0  0  0
 13 14  1  0  0  0
 13 31  1  0  0  0
 14 15  2  0  0  0
 14 99  1  0  0  0
 15100  1  0  0  0
 16 17  2  0  0  0
 16 21  1  0  0  0
 16 31  1  0  0  0
 17 18  1  0  0  0
 17101  1  0  0  0
 18 19  2  0  0  0
 18102  1  0  0  0
 19 20  1  0  0  0
 19 24  1  0  0  0
 20 21  2  0  0  0
 20103  1  0  0  0
 21 23  1  0  0  0
 22 28  1  0  0  0
 22 32  2  0  0  0
 26 27  1  0  0  0
 28104  1  0  0  0
 28105  1  0  0  0
 29106  1  0  0  0
 29107  1  0  0  0
 33 34  1  0  0  0
 33 66  1  0  0  0
 33 70  2  0  0  0
 34 36  1  0  0  0
 34 59  1  0  0  0
 34108  1  0  0  0
 35 44  2  0  0  0
 35 45  1  0  0  0
 35 68  1  0  0  0
 36 56  1  0  0  0
 36109  1  0  0  0
 37 39  1  0  0  0
 37 47  1  0  0  0
 37 66  1  0  0  0
 37110  1  0  0  0
 38 43  2  0  0  0
 38 46  1  0  0  0
 38 47  1  0  0  0
 39 64  1  0  0  0
 39 67  2  0  0  0
 40 52  1  0  0  0
 40 53  2  0  0  0
 40 58  1  0  0  0
 41111  1  0  0  0
 41112  1  0  0  0
 41113  1  0  0  0
 41 48  1  0  0  0
 42 43  1  0  0  0
 42 66  1  0  0  0
 42114  1  0  0  0
 42115  1  0  0  0
 43 44  1  0  0  0
 44116  1  0  0  0
 45 46  2  0  0  0
 45117  1  0  0  0
 46118  1  0  0  0
 47119  1  0  0  0
 47120  1  0  0  0
 48 56  1  0  0  0
 48 65  1  0  0  0
 48121  1  0  0  0
 49 50  1  0  0  0
 49 53  1  0  0  0
 49 64  1  0  0  0
 49122  1  0  0  0
 50 51  1  0  0  0
 50123  1  0  0  0
 50124  1  0  0  0
 51 52  1  0  0  0
 51125  1  0  0  0
 51126  1  0  0  0
 52127  1  0  0  0
 52128  1  0  0  0
 53 54  1  0  0  0
 54 55  2  0  0  0
 54129  1  0  0  0
 55 57  1  0  0  0
 55130  1  0  0  0
 56 69  2  0  0  0
 57 58  2  0  0  0
 57131  1  0  0  0
 58132  1  0  0  0
 59 60  1  0  0  0
 59 61  1  0  0  0
 59 62  1  0  0  0
 60133  1  0  0  0
 60134  1  0  0  0
 60135  1  0  0  0
 61136  1  0  0  0
 61137  1  0  0  0
 61138  1  0  0  0
 62139  1  0  0  0
 62140  1  0  0  0
 62141  1  0  0  0
 63 65  1  0  0  0
 63142  1  0  0  0
 63143  1  0  0  0
 63144  1  0  0  0
 64145  1  0  0  0
 65146  1  0  0  0
 68 82  1  0  0  0
 71 73  1  0  0  0
 71 74  2  0  0  0
 71147  1  0  0  0
 72 73  2  0  0  0
 72 85  1  0  0  0
 72148  1  0  0  0
 73 83  1  0  0  0
 74 85  1  0  0  0
 74 87  1  0  0  0
 75 79  1  0  0  0
 75149  1  0  0  0
 75150  1  0  0  0
 75151  1  0  0  0
 76152  1  0  0  0
 76153  1  0  0  0
 76154  1  0  0  0
 76 84  1  0  0  0
 77 84  1  0  0  0
 77155  1  0  0  0
 77156  1  0  0  0
 77157  1  0  0  0
 78 84  1  0  0  0
 78158  1  0  0  0
 78159  1  0  0  0
 78160  1  0  0  0
 79161  1  0  0  0
 79162  1  0  0  0
 79 83  1  0  0  0
 80 81  1  0  0  0
 80 86  1  0  0  0
 80163  1  0  0  0
 80164  1  0  0  0
 81 87  1  0  0  0
 81165  1  0  0  0
 81166  1  0  0  0
 82 83  1  0  0  0
 82167  1  0  0  0
 82168  1  0  0  0
 83169  1  0  0  0
 84 85  1  0  0  0
 86170  1  0  0  0
M  ISO  4   1 100  68 101  82 101  86 100
M  END
> <chiral flag>
0

> <version>
0

> <s_m_source_file>
/data/baiqing/PycharmProjects/Reinvent-master-3.2/result/LINK_invent/BTK/process_docking_weight1_custom_sum_contain_oxygen_bond_distance_aromatic_linkinvent_7_9_3/rearranged_h_0096.sdf

> <i_m_source_file_index>
49

> <r_mmod_Potential_Energy-OPLS-2005>
46.5768852233887

> <r_mmod_Stretch_Energy-OPLS-2005>
64.8958129882812

> <r_mmod_Bend_Energy-OPLS-2005>
144.40641784668

> <r_mmod_Torsional_Energy-OPLS-2005>
293.777099609375

> <r_mmod_Improper_Torsional_Energy-OPLS-2005>
5.16413974761963

> <r_mmod_Van_der_Waal_Energy-OPLS-2005>
127.82112121582

> <r_mmod_Electrostatic_Energy-OPLS-2005>
-427.2197265625

> <r_mmod_Solvation_Energy-OPLS-2005>
-198.439804077148

> <b_mmod_Minimization_Converged-OPLS-2005>
0

> <r_mmod_RMS_Derivative-OPLS-2005>
4.03962087631226

$$$$
49
                    3D
 Structure written by MMmdl.
157165  0  0  1  0            999 V2000
  -30.5268  -14.9651   20.4150 C   0  0  0  0  0  0
  -30.4422  -12.5979   19.5021 C   0  0  0  0  0  0
  -29.5241  -12.5306   18.2591 C   0  0  0  0  0  0
  -28.0570  -12.3141   18.6765 C   0  0  0  0  0  0
  -27.6294  -13.2487   19.8382 C   0  0  2  0  0  0
  -28.6705  -13.2820   20.9772 C   0  0  0  0  0  0
  -25.2462  -13.8214   20.5711 C   0  0  0  0  0  0
  -24.1781  -13.0439   20.9235 C   0  0  0  0  0  0
  -24.6392  -11.6925   20.8758 C   0  0  0  0  0  0
  -23.9075  -10.4297   21.0410 C   0  0  0  0  0  0
  -24.3626   -9.4210   21.9185 C   0  0  0  0  0  0
  -23.6302   -8.2243   22.0752 C   0  0  0  0  0  0
  -22.4285   -8.0284   21.3544 C   0  0  0  0  0  0
  -21.9923   -9.0256   20.4646 C   0  0  0  0  0  0
  -22.7249  -10.2136   20.3057 C   0  0  0  0  0  0
  -21.6856   -6.0738   22.5278 C   0  0  0  0  0  0
  -21.4011   -6.5639   23.8212 C   0  0  0  0  0  0
  -21.3660   -5.6790   24.9173 C   0  0  0  0  0  0
  -21.6045   -4.3053   24.7222 C   0  0  0  0  0  0
  -21.8822   -3.8147   23.4341 C   0  0  0  0  0  0
  -21.9192   -4.6964   22.3399 C   0  0  0  0  0  0
  -22.7801  -13.5211   21.1889 C   0  0  0  0  0  0
  -22.1665   -4.2152   21.0976 F   0  0  0  0  0  0
  -21.5630   -3.4534   25.7732 F   0  0  0  0  0  0
  -29.9451  -13.6977   20.3794 N   0  0  0  0  0  0
  -26.2885  -12.9446   20.3239 N   0  0  0  0  0  0
  -25.9326  -11.6575   20.5738 N   0  0  0  0  0  0
  -22.0446  -12.8200   22.0441 N   0  0  0  0  0  0
  -25.4115  -15.1939   20.4112 N   0  0  0  0  0  0
  -31.7295  -15.0371   20.1427 O   0  0  0  0  0  0
  -21.6644   -6.8884   21.4244 O   0  0  0  0  0  0
  -22.3484  -14.5512   20.6724 O   0  0  0  0  0  0
  -24.6442  -31.8434   23.1873 C   0  0  0  0  0  0
  -25.9212  -32.4687   23.8262 C   0  0  1  0  0  0
  -27.2141  -27.1229   20.1498 C   0  0  0  0  0  0
  -25.5966  -33.8492   24.2183 N   0  0  0  0  0  0
  -23.4477  -30.4633   21.5324 C   0  0  2  0  0  0
  -24.8970  -28.8887   20.1059 C   0  0  0  0  0  0
  -22.7569  -29.4546   22.4844 C   0  0  0  0  0  0
  -18.0311  -28.1400   22.8477 C   0  0  0  0  0  0
  -24.1494  -36.7246   23.2640 C   0  0  0  0  0  0
  -26.0041  -30.7129   21.3878 C   0  0  0  0  0  0
  -26.0742  -29.3230   20.7285 C   0  0  0  0  0  0
  -27.2317  -28.4552   20.7351 C   0  0  0  0  0  0
  -26.0144  -26.7980   19.4787 C   0  0  0  0  0  0
  -24.8812  -27.6411   19.4643 C   0  0  0  0  0  0
  -23.6743  -29.7933   20.1507 C   0  0  0  0  0  0
  -25.4124  -36.3024   24.0317 C   0  0  1  0  0  0
  -20.5923  -28.3725   23.1236 C   0  0  2  0  0  0
  -20.6793  -26.9426   22.5409 C   0  0  0  0  0  0
  -19.5769  -26.6383   21.5215 C   0  0  0  0  0  0
  -18.1948  -26.7941   22.1618 C   0  0  0  0  0  0
  -19.1567  -28.8880   23.2851 C   0  0  0  0  0  0
  -18.9480  -30.1474   23.8880 C   0  0  0  0  0  0
  -17.6476  -30.6591   24.0561 C   0  0  0  0  0  0
  -25.9078  -34.9404   23.5056 C   0  0  0  0  0  0
  -16.5368  -29.9084   23.6336 C   0  0  0  0  0  0
  -16.7295  -28.6505   23.0355 C   0  0  0  0  0  0
  -26.4537  -31.6557   25.0704 C   0  0  0  0  0  0
  -25.3718  -31.3755   26.1395 C   0  0  0  0  0  0
  -27.0389  -30.2947   24.6287 C   0  0  0  0  0  0
  -27.6070  -32.4320   25.7485 C   0  0  0  0  0  0
  -27.5576  -37.1778   24.8464 C   0  0  0  0  0  0
  -21.4261  -29.3050   22.3597 N   0  0  0  0  0  0
  -26.4284  -37.3742   23.9412 N   0  0  0  0  0  0
  -24.7185  -31.0280   22.0910 N   0  0  0  0  0  0
  -23.4210  -28.8102   23.3000 O   0  0  0  0  0  0
  -28.2599  -26.1276   20.2407 O   0  0  0  0  0  0
  -26.5655  -34.8906   22.4629 O   0  0  0  0  0  0
  -23.5561  -32.1317   23.7093 O   0  0  0  0  0  0
  -27.8555  -19.4539   22.9068 C   0  0  0  0  0  0
  -27.7896  -20.5159   22.0732 C   0  0  0  0  0  0
  -28.7144  -20.3173   20.9902 C   0  0  0  0  0  0
  -29.1345  -18.9044   21.1004 C   0  0  0  0  0  0
  -26.8723  -21.6885   22.3330 C   0  0  0  0  0  0
  -28.9813  -17.2927   23.1179 C   0  0  0  0  0  0
  -28.8663  -21.6451   20.0105 C   0  0  0  0  0  0
  -29.9702  -17.7004   20.3413 C   0  0  0  0  0  0
  -28.9337  -23.2781   20.5164 C   0  0  0  0  0  0
  -28.0264  -24.6026   19.9700 C   0  0  0  0  0  0
  -28.6885  -18.5121   22.3744 N   0  0  0  0  0  0
  -29.7267  -16.1380   20.5458 N   0  0  0  0  0  0
  -31.4754  -12.7612   19.1912 H   0  0  0  0  0  0
  -30.4401  -11.6478   20.0385 H   0  0  0  0  0  0
  -29.8474  -11.7296   17.5925 H   0  0  0  0  0  0
  -29.6105  -13.4571   17.6897 H   0  0  0  0  0  0
  -27.9568  -11.2739   18.9882 H   0  0  0  0  0  0
  -27.3942  -12.4406   17.8197 H   0  0  0  0  0  0
  -27.5914  -14.2492   19.4061 H   0  0  0  0  0  0
  -28.7610  -12.3083   21.4603 H   0  0  0  0  0  0
  -28.3669  -13.9854   21.7541 H   0  0  0  0  0  0
  -25.2769   -9.5686   22.4763 H   0  0  0  0  0  0
  -24.0012   -7.4633   22.7466 H   0  0  0  0  0  0
  -21.0857   -8.8774   19.8951 H   0  0  0  0  0  0
  -22.3705  -10.9675   19.6169 H   0  0  0  0  0  0
  -21.2000   -7.6147   23.9716 H   0  0  0  0  0  0
  -21.1484   -6.0519   25.9077 H   0  0  0  0  0  0
  -22.0599   -2.7610   23.2834 H   0  0  0  0  0  0
  -22.4068  -11.9866   22.4835 H   0  0  0  0  0  0
  -21.1060  -13.1216   22.2633 H   0  0  0  0  0  0
  -24.6363  -15.8398   20.5141 H   0  0  0  0  0  0
  -26.2425  -15.6349   20.0398 H   0  0  0  0  0  0
  -26.7270  -32.5293   23.0984 H   0  0  0  0  0  0
  -25.0116  -33.9612   25.0333 H   0  0  0  0  0  0
  -22.7507  -31.2898   21.3788 H   0  0  0  0  0  0
  -23.3768  -35.9564   23.3281 H   0  0  0  0  0  0
  -24.3586  -36.8895   22.2059 H   0  0  0  0  0  0
  -23.7234  -37.6430   23.6688 H   0  0  0  0  0  0
  -26.1608  -31.4678   20.6158 H   0  0  0  0  0  0
  -26.8737  -30.7634   22.0313 H   0  0  0  0  0  0
  -28.1254  -28.7806   21.2487 H   0  0  0  0  0  0
  -25.9177  -25.8472   18.9766 H   0  0  0  0  0  0
  -23.9845  -27.3073   18.9603 H   0  0  0  0  0  0
  -23.8117  -30.5694   19.3966 H   0  0  0  0  0  0
  -22.7879  -29.2377   19.8388 H   0  0  0  0  0  0
  -25.1315  -36.1846   25.0810 H   0  0  0  0  0  0
  -21.0025  -28.3318   24.1355 H   0  0  0  0  0  0
  -20.5681  -26.2342   23.3632 H   0  0  0  0  0  0
  -21.6661  -26.7429   22.1212 H   0  0  0  0  0  0
  -19.6931  -25.6287   21.1260 H   0  0  0  0  0  0
  -19.6712  -27.3180   20.6734 H   0  0  0  0  0  0
  -17.4224  -26.6697   21.4012 H   0  0  0  0  0  0
  -18.0337  -26.0086   22.9015 H   0  0  0  0  0  0
  -19.7955  -30.7295   24.2242 H   0  0  0  0  0  0
  -17.5029  -31.6270   24.5164 H   0  0  0  0  0  0
  -15.5366  -30.2978   23.7672 H   0  0  0  0  0  0
  -15.8700  -28.0816   22.7077 H   0  0  0  0  0  0
  -24.5938  -30.7050   25.7730 H   0  0  0  0  0  0
  -24.8860  -32.2933   26.4712 H   0  0  0  0  0  0
  -25.8010  -30.9021   27.0235 H   0  0  0  0  0  0
  -26.2996  -29.6671   24.1296 H   0  0  0  0  0  0
  -27.3997  -29.7250   25.4861 H   0  0  0  0  0  0
  -27.8917  -30.4171   23.9604 H   0  0  0  0  0  0
  -27.2675  -33.3657   26.1981 H   0  0  0  0  0  0
  -28.3924  -32.6812   25.0336 H   0  0  0  0  0  0
  -28.0687  -31.8489   26.5464 H   0  0  0  0  0  0
  -28.2581  -38.0086   24.7515 H   0  0  0  0  0  0
  -28.1084  -36.2615   24.6285 H   0  0  0  0  0  0
  -27.2300  -37.1414   25.8869 H   0  0  0  0  0  0
  -20.9468  -29.8758   21.6775 H   0  0  0  0  0  0
  -26.0149  -38.2806   24.1424 H   0  0  0  0  0  0
  -27.3571  -19.2807   23.8531 H   0  0  0  0  0  0
  -25.9591  -21.3483   22.8220 H   0  0  0  0  0  0
  -26.5705  -22.1787   21.4083 H   0  0  0  0  0  0
  -27.3435  -22.4185   22.9910 H   0  0  0  0  0  0
  -28.7659  -17.4352   24.1777 H   0  0  0  0  0  0
  -30.0368  -17.0342   23.0342 H   0  0  0  0  0  0
  -28.3581  -16.4733   22.7612 H   0  0  0  0  0  0
  -28.0355  -21.5742   19.3077 H   0  0  0  0  0  0
  -29.7468  -21.4630   19.3942 H   0  0  0  0  0  0
  -31.0288  -17.8647   20.5464 H   0  0  0  0  0  0
  -29.8777  -17.8705   19.2685 H   0  0  0  0  0  0
  -29.9688  -23.5668   20.3339 H   0  0  0  0  0  0
  -28.8837  -23.2927   21.6026 H   0  0  0  0  0  0
  -27.0085  -24.3902   20.2968 H   0  0  0  0  0  0
  -27.9926  -24.5147   18.8836 H   0  0  0  0  0  0
  -28.7567  -15.9200   20.7109 H   0  0  0  0  0  0
  1 25  1  0  0  0
  1 30  2  0  0  0
  1 82  1  0  0  0
  2  3  1  0  0  0
  2 25  1  0  0  0
  2 83  1  0  0  0
  2 84  1  0  0  0
  3  4  1  0  0  0
  3 85  1  0  0  0
  3 86  1  0  0  0
  4  5  1  0  0  0
  4 87  1  0  0  0
  4 88  1  0  0  0
  5  6  1  0  0  0
  5 26  1  0  0  0
  5 89  1  0  0  0
  6 25  1  0  0  0
  6 90  1  0  0  0
  6 91  1  0  0  0
  7  8  2  0  0  0
  7 26  1  0  0  0
  7 29  1  0  0  0
  8  9  1  0  0  0
  8 22  1  0  0  0
  9 10  1  0  0  0
  9 27  2  0  0  0
 10 11  2  0  0  0
 10 15  1  0  0  0
 11 12  1  0  0  0
 11 92  1  0  0  0
 12 13  2  0  0  0
 12 93  1  0  0  0
 13 14  1  0  0  0
 13 31  1  0  0  0
 14 15  2  0  0  0
 14 94  1  0  0  0
 15 95  1  0  0  0
 16 17  2  0  0  0
 16 21  1  0  0  0
 16 31  1  0  0  0
 17 18  1  0  0  0
 17 96  1  0  0  0
 18 19  2  0  0  0
 18 97  1  0  0  0
 19 20  1  0  0  0
 19 24  1  0  0  0
 20 21  2  0  0  0
 20 98  1  0  0  0
 21 23  1  0  0  0
 22 28  1  0  0  0
 22 32  2  0  0  0
 26 27  1  0  0  0
 28 99  1  0  0  0
 28100  1  0  0  0
 29101  1  0  0  0
 29102  1  0  0  0
 33 34  1  0  0  0
 33 66  1  0  0  0
 33 70  2  0  0  0
 34 36  1  0  0  0
 34 59  1  0  0  0
 34103  1  0  0  0
 35 44  2  0  0  0
 35 45  1  0  0  0
 35 68  1  0  0  0
 36 56  1  0  0  0
 36104  1  0  0  0
 37 39  1  0  0  0
 37 47  1  0  0  0
 37 66  1  0  0  0
 37105  1  0  0  0
 38 43  2  0  0  0
 38 46  1  0  0  0
 38 47  1  0  0  0
 39 64  1  0  0  0
 39 67  2  0  0  0
 40 52  1  0  0  0
 40 53  2  0  0  0
 40 58  1  0  0  0
 41106  1  0  0  0
 41107  1  0  0  0
 41108  1  0  0  0
 41 48  1  0  0  0
 42 43  1  0  0  0
 42 66  1  0  0  0
 42109  1  0  0  0
 42110  1  0  0  0
 43 44  1  0  0  0
 44111  1  0  0  0
 45 46  2  0  0  0
 45112  1  0  0  0
 46113  1  0  0  0
 47114  1  0  0  0
 47115  1  0  0  0
 48 56  1  0  0  0
 48 65  1  0  0  0
 48116  1  0  0  0
 49 50  1  0  0  0
 49 53  1  0  0  0
 49 64  1  0  0  0
 49117  1  0  0  0
 50 51  1  0  0  0
 50118  1  0  0  0
 50119  1  0  0  0
 51 52  1  0  0  0
 51120  1  0  0  0
 51121  1  0  0  0
 52122  1  0  0  0
 52123  1  0  0  0
 53 54  1  0  0  0
 54 55  2  0  0  0
 54124  1  0  0  0
 55 57  1  0  0  0
 55125  1  0  0  0
 56 69  2  0  0  0
 57 58  2  0  0  0
 57126  1  0  0  0
 58127  1  0  0  0
 59 60  1  0  0  0
 59 61  1  0  0  0
 59 62  1  0  0  0
 60128  1  0  0  0
 60129  1  0  0  0
 60130  1  0  0  0
 61131  1  0  0  0
 61132  1  0  0  0
 61133  1  0  0  0
 62134  1  0  0  0
 62135  1  0  0  0
 62136  1  0  0  0
 63 65  1  0  0  0
 63137  1  0  0  0
 63138  1  0  0  0
 63139  1  0  0  0
 64140  1  0  0  0
 65141  1  0  0  0
 68 80  1  0  0  0
 71 72  2  0  0  0
 71 81  1  0  0  0
 71142  1  0  0  0
 72 73  1  0  0  0
 72 75  1  0  0  0
 73 74  2  0  0  0
 73 77  1  0  0  0
 74 78  1  0  0  0
 74 81  1  0  0  0
 75143  1  0  0  0
 75144  1  0  0  0
 75145  1  0  0  0
 76 81  1  0  0  0
 76146  1  0  0  0
 76147  1  0  0  0
 76148  1  0  0  0
 77 79  1  0  0  0
 77149  1  0  0  0
 77150  1  0  0  0
 78 82  1  0  0  0
 78151  1  0  0  0
 78152  1  0  0  0
 79 80  1  0  0  0
 79153  1  0  0  0
 79154  1  0  0  0
 80155  1  0  0  0
 80156  1  0  0  0
 82157  1  0  0  0
M  ISO  4   1 100  68 101  80 101  82 100
M  END
> <chiral flag>
0

> <version>
0

> <s_m_source_file>
/data/baiqing/PycharmProjects/Reinvent-master-3.2/result/LINK_invent/BTK/process_docking_weight1_custom_sum_contain_oxygen_bond_distance_aromatic_linkinvent_7_9_3/rearranged_h_0096.sdf

> <i_m_source_file_index>
50

> <r_mmod_Potential_Energy-OPLS-2005>
498.717742919922

> <r_mmod_Stretch_Energy-OPLS-2005>
303.392639160156

> <r_mmod_Bend_Energy-OPLS-2005>
292.43212890625

> <r_mmod_Torsional_Energy-OPLS-2005>
222.892166137695

> <r_mmod_Improper_Torsional_Energy-OPLS-2005>
5.27596855163574

> <r_mmod_Van_der_Waal_Energy-OPLS-2005>
119.665504455566

> <r_mmod_Electrostatic_Energy-OPLS-2005>
-434.097778320312

> <r_mmod_Solvation_Energy-OPLS-2005>
-216.976364135742

> <b_mmod_Minimization_Converged-OPLS-2005>
0

> <r_mmod_RMS_Derivative-OPLS-2005>
0.873123824596405

$$$$
50
                    3D
 Structure written by MMmdl.
175183  0  0  1  0            999 V2000
  -30.6547  -14.5293   20.7448 C   0  0  0  0  0  0
  -30.4663  -12.4209   19.4394 C   0  0  0  0  0  0
  -29.5159  -12.5694   18.2349 C   0  0  0  0  0  0
  -28.0437  -12.3720   18.6363 C   0  0  0  0  0  0
  -27.6638  -13.1989   19.8904 C   0  0  2  0  0  0
  -28.6912  -12.9552   21.0136 C   0  0  0  0  0  0
  -25.2599  -13.8106   20.5633 C   0  0  0  0  0  0
  -24.1858  -13.0428   20.9090 C   0  0  0  0  0  0
  -24.6388  -11.6867   20.8700 C   0  0  0  0  0  0
  -23.9052  -10.4298   21.0388 C   0  0  0  0  0  0
  -24.3607   -9.4215   21.9186 C   0  0  0  0  0  0
  -23.6296   -8.2262   22.0767 C   0  0  0  0  0  0
  -22.4286   -8.0293   21.3558 C   0  0  0  0  0  0
  -21.9913   -9.0260   20.4647 C   0  0  0  0  0  0
  -22.7226  -10.2131   20.3051 C   0  0  0  0  0  0
  -21.6858   -6.0721   22.5291 C   0  0  0  0  0  0
  -21.4027   -6.5636   23.8215 C   0  0  0  0  0  0
  -21.3664   -5.6787   24.9173 C   0  0  0  0  0  0
  -21.6044   -4.3060   24.7228 C   0  0  0  0  0  0
  -21.8830   -3.8146   23.4358 C   0  0  0  0  0  0
  -21.9218   -4.6961   22.3420 C   0  0  0  0  0  0
  -22.7896  -13.5218   21.1816 C   0  0  0  0  0  0
  -22.1674   -4.2147   21.0991 F   0  0  0  0  0  0
  -21.5629   -3.4552   25.7743 F   0  0  0  0  0  0
  -30.0209  -13.3436   20.5009 N   0  0  0  0  0  0
  -26.3011  -12.9260   20.3363 N   0  0  0  0  0  0
  -25.9294  -11.6413   20.5722 N   0  0  0  0  0  0
  -22.0546  -12.8226   22.0351 N   0  0  0  0  0  0
  -25.4377  -15.1854   20.4045 N   0  0  0  0  0  0
  -31.7284  -14.8301   20.2111 O   0  0  0  0  0  0
  -21.6648   -6.8908   21.4269 O   0  0  0  0  0  0
  -22.3590  -14.5561   20.6688 O   0  0  0  0  0  0
  -24.6174  -31.8627   23.2053 C   0  0  0  0  0  0
  -25.9041  -32.4732   23.8403 C   0  0  1  0  0  0
  -27.2340  -27.3948   20.1518 C   0  0  0  0  0  0
  -25.5901  -33.8538   24.2347 N   0  0  0  0  0  0
  -23.4116  -30.4788   21.5396 C   0  0  2  0  0  0
  -24.8677  -28.9524   20.1003 C   0  0  0  0  0  0
  -22.7444  -29.4608   22.4927 C   0  0  0  0  0  0
  -18.0255  -28.1390   22.8456 C   0  0  0  0  0  0
  -24.1491  -36.7307   23.2640 C   0  0  0  0  0  0
  -25.9380  -30.8261   21.3650 C   0  0  0  0  0  0
  -26.0209  -29.4564   20.7175 C   0  0  0  0  0  0
  -27.2060  -28.6823   20.7483 C   0  0  0  0  0  0
  -26.0814  -26.9345   19.4848 C   0  0  0  0  0  0
  -24.8986  -27.6955   19.4698 C   0  0  0  0  0  0
  -23.6290  -29.8174   20.1495 C   0  0  0  0  0  0
  -25.4094  -36.3014   24.0333 C   0  0  1  0  0  0
  -20.5861  -28.3675   23.1275 C   0  0  2  0  0  0
  -20.6707  -26.9410   22.5383 C   0  0  0  0  0  0
  -19.5679  -26.6378   21.5189 C   0  0  0  0  0  0
  -18.1876  -26.7908   22.1635 C   0  0  0  0  0  0
  -19.1524  -28.8847   23.2836 C   0  0  0  0  0  0
  -18.9466  -30.1454   23.8843 C   0  0  0  0  0  0
  -17.6471  -30.6562   24.0573 C   0  0  0  0  0  0
  -25.9017  -34.9376   23.5113 C   0  0  0  0  0  0
  -16.5353  -29.9064   23.6331 C   0  0  0  0  0  0
  -16.7259  -28.6504   23.0304 C   0  0  0  0  0  0
  -26.4475  -31.6479   25.0720 C   0  0  0  0  0  0
  -25.3787  -31.3620   26.1515 C   0  0  0  0  0  0
  -27.0328  -30.2911   24.6070 C   0  0  0  0  0  0
  -27.5978  -32.4274   25.7504 C   0  0  0  0  0  0
  -27.5564  -37.1795   24.8459 C   0  0  0  0  0  0
  -21.4166  -29.3040   22.3709 N   0  0  0  0  0  0
  -26.4249  -37.3715   23.9417 N   0  0  0  0  0  0
  -24.6718  -31.0723   22.0944 N   0  0  0  0  0  0
  -23.4175  -28.8148   23.2992 O   0  0  0  0  0  0
  -28.3347  -26.5572   20.1720 O   0  0  0  0  0  0
  -26.5536  -34.8821   22.4651 O   0  0  0  0  0  0
  -23.5358  -32.1460   23.7378 O   0  0  0  0  0  0
  -30.1070  -19.1522   22.4340 C   0  0  0  0  0  0
  -30.4142  -17.9551   21.8084 C   0  0  0  0  0  0
  -30.7896  -19.6718   20.4040 C   0  0  0  0  0  0
  -29.9374  -20.7923   18.3348 C   0  0  0  0  0  0
  -32.1733  -19.5680   18.2902 C   0  0  0  0  0  0
  -27.5512  -22.1942   21.6587 C   0  0  0  0  0  0
  -26.6604  -24.9437   22.2337 C   0  0  0  0  0  0
  -28.7501  -24.6233   23.5013 C   0  0  0  0  0  0
  -30.5035  -16.5337   22.3732 C   0  0  0  0  0  0
  -29.9400  -22.8864   21.1219 C   0  0  0  0  0  0
  -30.4391  -21.6680   22.0070 C   0  0  0  0  0  0
  -28.7879  -26.0779   21.4639 C   0  0  0  0  0  0
  -31.1878  -20.3872   19.1470 C   0  0  0  0  0  0
  -28.4584  -23.3907   21.2583 C   0  0  2  0  0  0
  -28.1850  -24.7385   22.0683 C   0  0  0  0  0  0
  -30.3728  -20.2072   21.5762 N   0  0  0  0  0  0
  -30.8242  -18.3320   20.5561 N   0  3  0  0  0  0
  -30.0126  -15.3660   21.5991 N   0  0  0  0  0  0
  -31.4832  -12.6501   19.1086 H   0  0  0  0  0  0
  -30.4956  -11.3963   19.8135 H   0  0  0  0  0  0
  -29.8039  -11.8757   17.4424 H   0  0  0  0  0  0
  -29.6355  -13.5728   17.8205 H   0  0  0  0  0  0
  -27.8894  -11.3117   18.8329 H   0  0  0  0  0  0
  -27.3917  -12.6305   17.8030 H   0  0  0  0  0  0
  -27.7116  -14.2511   19.6082 H   0  0  0  0  0  0
  -28.6967  -11.8991   21.2879 H   0  0  0  0  0  0
  -28.3888  -13.4829   21.9201 H   0  0  0  0  0  0
  -25.2770   -9.5702   22.4727 H   0  0  0  0  0  0
  -24.0017   -7.4673   22.7470 H   0  0  0  0  0  0
  -21.0874   -8.8762   19.8934 H   0  0  0  0  0  0
  -22.3719  -10.9656   19.6142 H   0  0  0  0  0  0
  -21.1994   -7.6139   23.9716 H   0  0  0  0  0  0
  -21.1470   -6.0516   25.9078 H   0  0  0  0  0  0
  -22.0605   -2.7608   23.2858 H   0  0  0  0  0  0
  -22.4147  -11.9874   22.4744 H   0  0  0  0  0  0
  -21.1169  -13.1270   22.2556 H   0  0  0  0  0  0
  -24.6843  -15.8545   20.5195 H   0  0  0  0  0  0
  -26.3037  -15.6202   20.1132 H   0  0  0  0  0  0
  -26.7104  -32.5468   23.1166 H   0  0  0  0  0  0
  -25.0108  -33.9730   25.0520 H   0  0  0  0  0  0
  -22.7085  -31.2977   21.3878 H   0  0  0  0  0  0
  -23.3663  -35.9736   23.3267 H   0  0  0  0  0  0
  -24.3681  -36.8985   22.2075 H   0  0  0  0  0  0
  -23.7311  -37.6529   23.6702 H   0  0  0  0  0  0
  -26.0641  -31.6000   20.6078 H   0  0  0  0  0  0
  -26.8155  -30.8710   21.9943 H   0  0  0  0  0  0
  -28.0904  -29.0597   21.2426 H   0  0  0  0  0  0
  -26.0918  -25.9650   19.0063 H   0  0  0  0  0  0
  -24.0239  -27.3069   18.9681 H   0  0  0  0  0  0
  -23.7505  -30.5943   19.3938 H   0  0  0  0  0  0
  -22.7555  -29.2421   19.8366 H   0  0  0  0  0  0
  -25.1264  -36.1826   25.0822 H   0  0  0  0  0  0
  -20.9968  -28.3131   24.1399 H   0  0  0  0  0  0
  -20.5553  -26.2320   23.3601 H   0  0  0  0  0  0
  -21.6571  -26.7389   22.1237 H   0  0  0  0  0  0
  -19.6853  -25.6284   21.1220 H   0  0  0  0  0  0
  -19.6533  -27.3178   20.6703 H   0  0  0  0  0  0
  -17.4158  -26.6675   21.4013 H   0  0  0  0  0  0
  -18.0213  -26.0087   22.9067 H   0  0  0  0  0  0
  -19.7979  -30.7238   24.2193 H   0  0  0  0  0  0
  -17.5053  -31.6232   24.5196 H   0  0  0  0  0  0
  -15.5356  -30.2932   23.7702 H   0  0  0  0  0  0
  -15.8693  -28.0811   22.7002 H   0  0  0  0  0  0
  -24.5928  -30.6945   25.7952 H   0  0  0  0  0  0
  -24.9039  -32.2808   26.4952 H   0  0  0  0  0  0
  -25.8244  -30.8856   27.0257 H   0  0  0  0  0  0
  -26.2889  -29.6626   24.1148 H   0  0  0  0  0  0
  -27.4142  -29.7135   25.4503 H   0  0  0  0  0  0
  -27.8682  -30.4257   23.9205 H   0  0  0  0  0  0
  -27.2465  -33.3554   26.2032 H   0  0  0  0  0  0
  -28.3775  -32.6892   25.0341 H   0  0  0  0  0  0
  -28.0607  -31.8464   26.5495 H   0  0  0  0  0  0
  -28.2467  -38.0174   24.7486 H   0  0  0  0  0  0
  -28.1148  -36.2687   24.6235 H   0  0  0  0  0  0
  -27.2336  -37.1364   25.8876 H   0  0  0  0  0  0
  -20.9322  -29.8956   21.7127 H   0  0  0  0  0  0
  -26.0084  -38.2786   24.1379 H   0  0  0  0  0  0
  -29.8040  -19.3284   23.4580 H   0  0  0  0  0  0
  -29.1102  -21.0691   18.9887 H   0  0  0  0  0  0
  -29.5812  -19.9872   17.6877 H   0  0  0  0  0  0
  -30.1356  -21.6699   17.7187 H   0  0  0  0  0  0
  -33.0696  -19.3007   18.8568 H   0  0  0  0  0  0
  -32.5005  -20.1346   17.4163 H   0  0  0  0  0  0
  -31.7120  -18.6469   17.9254 H   0  0  0  0  0  0
  -27.8048  -21.2967   21.0946 H   0  0  0  0  0  0
  -26.4983  -22.3888   21.4634 H   0  0  0  0  0  0
  -27.6389  -21.9356   22.7147 H   0  0  0  0  0  0
  -26.4381  -25.9026   22.7033 H   0  0  0  0  0  0
  -26.1971  -24.1763   22.8549 H   0  0  0  0  0  0
  -26.1494  -24.9196   21.2732 H   0  0  0  0  0  0
  -28.6132  -25.5588   24.0466 H   0  0  0  0  0  0
  -29.8167  -24.4040   23.5133 H   0  0  0  0  0  0
  -28.2329  -23.8619   24.0800 H   0  0  0  0  0  0
  -29.9086  -16.5430   23.2910 H   0  0  0  0  0  0
  -31.5241  -16.3564   22.7199 H   0  0  0  0  0  0
  -30.1291  -22.7022   20.0717 H   0  0  0  0  0  0
  -30.5902  -23.7423   21.3180 H   0  0  0  0  0  0
  -29.9566  -21.7460   22.9814 H   0  0  0  0  0  0
  -31.4978  -21.8366   22.2069 H   0  0  0  0  0  0
  -29.8698  -25.9863   21.4054 H   0  0  0  0  0  0
  -28.6377  -26.8807   22.1904 H   0  0  0  0  0  0
  -31.7257  -21.2727   19.4893 H   0  0  0  0  0  0
  -28.1541  -23.6524   20.2421 H   0  0  0  0  0  0
  -31.2380  -17.6995   19.8773 H   0  0  0  0  0  0
  -29.1663  -14.9635   21.9765 H   0  0  0  0  0  0
  1 25  1  0  0  0
  1 30  2  0  0  0
  1 88  1  0  0  0
  2  3  1  0  0  0
  2 25  1  0  0  0
  2 89  1  0  0  0
  2 90  1  0  0  0
  3  4  1  0  0  0
  3 91  1  0  0  0
  3 92  1  0  0  0
  4  5  1  0  0  0
  4 93  1  0  0  0
  4 94  1  0  0  0
  5  6  1  0  0  0
  5 26  1  0  0  0
  5 95  1  0  0  0
  6 25  1  0  0  0
  6 96  1  0  0  0
  6 97  1  0  0  0
  7  8  2  0  0  0
  7 26  1  0  0  0
  7 29  1  0  0  0
  8  9  1  0  0  0
  8 22  1  0  0  0
  9 10  1  0  0  0
  9 27  2  0  0  0
 10 11  2  0  0  0
 10 15  1  0  0  0
 11 12  1  0  0  0
 11 98  1  0  0  0
 12 13  2  0  0  0
 12 99  1  0  0  0
 13 14  1  0  0  0
 13 31  1  0  0  0
 14 15  2  0  0  0
 14100  1  0  0  0
 15101  1  0  0  0
 16 17  2  0  0  0
 16 21  1  0  0  0
 16 31  1  0  0  0
 17 18  1  0  0  0
 17102  1  0  0  0
 18 19  2  0  0  0
 18103  1  0  0  0
 19 20  1  0  0  0
 19 24  1  0  0  0
 20 21  2  0  0  0
 20104  1  0  0  0
 21 23  1  0  0  0
 22 28  1  0  0  0
 22 32  2  0  0  0
 26 27  1  0  0  0
 28105  1  0  0  0
 28106  1  0  0  0
 29107  1  0  0  0
 29108  1  0  0  0
 33 34  1  0  0  0
 33 66  1  0  0  0
 33 70  2  0  0  0
 34 36  1  0  0  0
 34 59  1  0  0  0
 34109  1  0  0  0
 35 44  2  0  0  0
 35 45  1  0  0  0
 35 68  1  0  0  0
 36 56  1  0  0  0
 36110  1  0  0  0
 37 39  1  0  0  0
 37 47  1  0  0  0
 37 66  1  0  0  0
 37111  1  0  0  0
 38 43  2  0  0  0
 38 46  1  0  0  0
 38 47  1  0  0  0
 39 64  1  0  0  0
 39 67  2  0  0  0
 40 52  1  0  0  0
 40 53  2  0  0  0
 40 58  1  0  0  0
 41112  1  0  0  0
 41113  1  0  0  0
 41114  1  0  0  0
 41 48  1  0  0  0
 42 43  1  0  0  0
 42 66  1  0  0  0
 42115  1  0  0  0
 42116  1  0  0  0
 43 44  1  0  0  0
 44117  1  0  0  0
 45 46  2  0  0  0
 45118  1  0  0  0
 46119  1  0  0  0
 47120  1  0  0  0
 47121  1  0  0  0
 48 56  1  0  0  0
 48 65  1  0  0  0
 48122  1  0  0  0
 49 50  1  0  0  0
 49 53  1  0  0  0
 49 64  1  0  0  0
 49123  1  0  0  0
 50 51  1  0  0  0
 50124  1  0  0  0
 50125  1  0  0  0
 51 52  1  0  0  0
 51126  1  0  0  0
 51127  1  0  0  0
 52128  1  0  0  0
 52129  1  0  0  0
 53 54  1  0  0  0
 54 55  2  0  0  0
 54130  1  0  0  0
 55 57  1  0  0  0
 55131  1  0  0  0
 56 69  2  0  0  0
 57 58  2  0  0  0
 57132  1  0  0  0
 58133  1  0  0  0
 59 60  1  0  0  0
 59 61  1  0  0  0
 59 62  1  0  0  0
 60134  1  0  0  0
 60135  1  0  0  0
 60136  1  0  0  0
 61137  1  0  0  0
 61138  1  0  0  0
 61139  1  0  0  0
 62140  1  0  0  0
 62141  1  0  0  0
 62142  1  0  0  0
 63 65  1  0  0  0
 63143  1  0  0  0
 63144  1  0  0  0
 63145  1  0  0  0
 64146  1  0  0  0
 65147  1  0  0  0
 68 82  1  0  0  0
 71 72  2  0  0  0
 71 86  1  0  0  0
 71148  1  0  0  0
 72 79  1  0  0  0
 72 87  1  0  0  0
 73 83  1  0  0  0
 73 86  1  0  0  0
 73 87  2  0  0  0
 74149  1  0  0  0
 74150  1  0  0  0
 74151  1  0  0  0
 74 83  1  0  0  0
 75 83  1  0  0  0
 75152  1  0  0  0
 75153  1  0  0  0
 75154  1  0  0  0
 76155  1  0  0  0
 76156  1  0  0  0
 76157  1  0  0  0
 76 84  1  0  0  0
 77158  1  0  0  0
 77159  1  0  0  0
 77160  1  0  0  0
 77 85  1  0  0  0
 78 85  1  0  0  0
 78161  1  0  0  0
 78162  1  0  0  0
 78163  1  0  0  0
 79 88  1  0  0  0
 79164  1  0  0  0
 79165  1  0  0  0
 80 81  1  0  0  0
 80 84  1  0  0  0
 80166  1  0  0  0
 80167  1  0  0  0
 81 86  1  0  0  0
 81168  1  0  0  0
 81169  1  0  0  0
 82 85  1  0  0  0
 82170  1  0  0  0
 82171  1  0  0  0
 83172  1  0  0  0
 84 85  1  0  0  0
 84173  1  0  0  0
 87174  1  0  0  0
 88175  1  0  0  0
M  CHG  1  87   1
M  ISO  4   1 100  68 101  82 101  88 100
M  END
> <chiral flag>
0

> <version>
0

> <s_m_source_file>
/data/baiqing/PycharmProjects/Reinvent-master-3.2/result/LINK_invent/BTK/process_docking_weight1_custom_sum_contain_oxygen_bond_distance_aromatic_linkinvent_7_9_3/rearranged_h_0096.sdf

> <i_m_source_file_index>
51

> <r_mmod_Potential_Energy-OPLS-2005>
-38.4204292297363

> <r_mmod_Stretch_Energy-OPLS-2005>
63.2282066345215

> <r_mmod_Bend_Energy-OPLS-2005>
169.588256835938

> <r_mmod_Torsional_Energy-OPLS-2005>
286.889984130859

> <r_mmod_Improper_Torsional_Energy-OPLS-2005>
5.40551280975342

> <r_mmod_Van_der_Waal_Energy-OPLS-2005>
120.911811828613

> <r_mmod_Electrostatic_Energy-OPLS-2005>
-331.099853515625

> <r_mmod_Solvation_Energy-OPLS-2005>
-384.4697265625

> <b_mmod_Minimization_Converged-OPLS-2005>
0

> <r_mmod_RMS_Derivative-OPLS-2005>
8.18693447113037

$$$$
51
                    3D
 Structure written by MMmdl.
159167  0  0  1  0            999 V2000
  -30.5155  -15.1431   20.4021 C   0  0  0  0  0  0
  -30.4339  -12.7230   19.5319 C   0  0  0  0  0  0
  -29.5343  -12.5501   18.2863 C   0  0  0  0  0  0
  -28.0773  -12.3013   18.7169 C   0  0  0  0  0  0
  -27.6165  -13.2747   19.8330 C   0  0  2  0  0  0
  -28.6536  -13.4068   20.9720 C   0  0  0  0  0  0
  -25.2376  -13.8292   20.5737 C   0  0  0  0  0  0
  -24.1692  -13.0477   20.9192 C   0  0  0  0  0  0
  -24.6367  -11.6980   20.8752 C   0  0  0  0  0  0
  -23.9089  -10.4304   21.0424 C   0  0  0  0  0  0
  -24.3636   -9.4179   21.9185 C   0  0  0  0  0  0
  -23.6242   -8.2236   22.0815 C   0  0  0  0  0  0
  -22.4211   -8.0314   21.3604 C   0  0  0  0  0  0
  -21.9850   -9.0304   20.4699 C   0  0  0  0  0  0
  -22.7269  -10.2142   20.3061 C   0  0  0  0  0  0
  -21.6834   -6.0705   22.5297 C   0  0  0  0  0  0
  -21.4052   -6.5606   23.8233 C   0  0  0  0  0  0
  -21.3647   -5.6746   24.9184 C   0  0  0  0  0  0
  -21.6027   -4.2999   24.7225 C   0  0  0  0  0  0
  -21.8827   -3.8101   23.4329 C   0  0  0  0  0  0
  -21.9175   -4.6934   22.3393 C   0  0  0  0  0  0
  -22.7690  -13.5238   21.1817 C   0  0  0  0  0  0
  -22.1626   -4.2145   21.0952 F   0  0  0  0  0  0
  -21.5598   -3.4480   25.7703 F   0  0  0  0  0  0
  -29.9045  -13.8711   20.3491 N   0  0  0  0  0  0
  -26.2807  -12.9565   20.3212 N   0  0  0  0  0  0
  -25.9300  -11.6676   20.5720 N   0  0  0  0  0  0
  -22.0261  -12.8320   22.0391 N   0  0  0  0  0  0
  -25.4077  -15.2032   20.4230 N   0  0  0  0  0  0
  -31.7271  -15.1187   20.1281 O   0  0  0  0  0  0
  -21.6605   -6.8892   21.4271 O   0  0  0  0  0  0
  -22.3385  -14.5520   20.6615 O   0  0  0  0  0  0
  -24.6521  -31.8292   23.1804 C   0  0  0  0  0  0
  -25.9207  -32.4650   23.8218 C   0  0  1  0  0  0
  -27.2263  -27.0086   20.1787 C   0  0  0  0  0  0
  -25.5910  -33.8451   24.2082 N   0  0  0  0  0  0
  -23.4650  -30.4444   21.5254 C   0  0  2  0  0  0
  -24.9150  -28.8310   20.1303 C   0  0  0  0  0  0
  -22.7568  -29.4489   22.4814 C   0  0  0  0  0  0
  -18.0313  -28.1480   22.8432 C   0  0  0  0  0  0
  -24.1497  -36.7235   23.2634 C   0  0  0  0  0  0
  -26.0307  -30.6601   21.3991 C   0  0  0  0  0  0
  -26.1006  -29.2560   20.7454 C   0  0  0  0  0  0
  -27.2588  -28.3660   20.7365 C   0  0  0  0  0  0
  -26.0054  -26.6990   19.5427 C   0  0  0  0  0  0
  -24.8853  -27.5673   19.5196 C   0  0  0  0  0  0
  -23.7003  -29.7545   20.1539 C   0  0  0  0  0  0
  -25.4125  -36.2975   24.0267 C   0  0  1  0  0  0
  -20.5920  -28.3774   23.1225 C   0  0  2  0  0  0
  -20.6799  -26.9469   22.5406 C   0  0  0  0  0  0
  -19.5798  -26.6413   21.5196 C   0  0  0  0  0  0
  -18.1970  -26.8020   22.1592 C   0  0  0  0  0  0
  -19.1573  -28.8946   23.2839 C   0  0  0  0  0  0
  -18.9508  -30.1530   23.8881 C   0  0  0  0  0  0
  -17.6503  -30.6663   24.0568 C   0  0  0  0  0  0
  -25.9080  -34.9363   23.4994 C   0  0  0  0  0  0
  -16.5397  -29.9153   23.6375 C   0  0  0  0  0  0
  -16.7293  -28.6609   23.0349 C   0  0  0  0  0  0
  -26.4458  -31.6646   25.0768 C   0  0  0  0  0  0
  -25.3593  -31.3959   26.1449 C   0  0  0  0  0  0
  -27.0294  -30.3002   24.6537 C   0  0  0  0  0  0
  -27.5941  -32.4459   25.7615 C   0  0  0  0  0  0
  -27.5581  -37.1738   24.8415 C   0  0  0  0  0  0
  -21.4268  -29.3074   22.3528 N   0  0  0  0  0  0
  -26.4265  -37.3708   23.9435 N   0  0  0  0  0  0
  -24.7369  -31.0006   22.0887 N   0  0  0  0  0  0
  -23.4152  -28.8026   23.3003 O   0  0  0  0  0  0
  -28.2942  -26.0016   20.1342 O   0  0  0  0  0  0
  -26.5682  -34.8860   22.4596 O   0  0  0  0  0  0
  -23.5607  -32.1231   23.6915 O   0  0  0  0  0  0
  -29.6425  -17.3080   21.6789 C   0  0  0  0  0  0
  -29.9000  -17.5165   19.3475 C   0  0  0  0  0  0
  -29.8093  -18.9518   21.6874 C   0  0  0  0  0  0
  -29.1787  -19.0272   19.3949 C   0  0  0  0  0  0
  -27.1643  -22.4020   19.5035 C   0  0  0  0  0  0
  -29.6566  -21.8880   22.2380 C   0  0  0  0  0  0
  -28.2762  -24.4932   20.6982 C   0  0  0  0  0  0
  -28.5306  -22.8705   20.0460 C   0  0  1  0  0  0
  -29.3812  -21.4975   20.7617 C   0  0  2  0  0  0
  -29.8204  -16.4371   20.4437 N   0  0  0  0  0  0
  -29.1051  -19.8675   20.6758 N   0  3  0  0  0  0
  -31.4663  -12.8731   19.2211 H   0  0  0  0  0  0
  -30.4529  -11.8088   20.1253 H   0  0  0  0  0  0
  -29.8972  -11.7298   17.6683 H   0  0  0  0  0  0
  -29.5968  -13.4423   17.6629 H   0  0  0  0  0  0
  -28.0100  -11.2717   19.0802 H   0  0  0  0  0  0
  -27.4100  -12.3759   17.8598 H   0  0  0  0  0  0
  -27.5589  -14.2545   19.3560 H   0  0  0  0  0  0
  -28.7904  -12.4542   21.4800 H   0  0  0  0  0  0
  -28.3257  -14.1292   21.7230 H   0  0  0  0  0  0
  -25.2817   -9.5559   22.4734 H   0  0  0  0  0  0
  -23.9909   -7.4594   22.7518 H   0  0  0  0  0  0
  -21.0760   -8.8849   19.9013 H   0  0  0  0  0  0
  -22.3768  -10.9660   19.6114 H   0  0  0  0  0  0
  -21.2147   -7.6116   23.9771 H   0  0  0  0  0  0
  -21.1424   -6.0437   25.9097 H   0  0  0  0  0  0
  -22.0619   -2.7567   23.2827 H   0  0  0  0  0  0
  -22.3799  -12.0013   22.4902 H   0  0  0  0  0  0
  -21.0973  -13.1549   22.2695 H   0  0  0  0  0  0
  -24.6483  -15.8628   20.5560 H   0  0  0  0  0  0
  -26.2676  -15.6340   20.1135 H   0  0  0  0  0  0
  -26.7254  -32.5166   23.0912 H   0  0  0  0  0  0
  -24.9928  -33.9556   25.0153 H   0  0  0  0  0  0
  -22.7794  -31.2769   21.3567 H   0  0  0  0  0  0
  -23.3769  -35.9551   23.3201 H   0  0  0  0  0  0
  -24.3602  -36.9005   22.2071 H   0  0  0  0  0  0
  -23.7228  -37.6379   23.6782 H   0  0  0  0  0  0
  -26.2046  -31.4077   20.6227 H   0  0  0  0  0  0
  -26.8907  -30.7052   22.0550 H   0  0  0  0  0  0
  -28.1756  -28.6963   21.2048 H   0  0  0  0  0  0
  -25.8986  -25.7309   19.0683 H   0  0  0  0  0  0
  -23.9693  -27.2331   19.0480 H   0  0  0  0  0  0
  -23.8683  -30.5243   19.4018 H   0  0  0  0  0  0
  -22.8060  -29.2201   19.8229 H   0  0  0  0  0  0
  -25.1326  -36.1737   25.0743 H   0  0  0  0  0  0
  -21.0023  -28.3406   24.1352 H   0  0  0  0  0  0
  -20.5737  -26.2356   23.3612 H   0  0  0  0  0  0
  -21.6657  -26.7505   22.1197 H   0  0  0  0  0  0
  -19.6962  -25.6298   21.1309 H   0  0  0  0  0  0
  -19.6805  -27.3134   20.6667 H   0  0  0  0  0  0
  -17.4206  -26.6701   21.4030 H   0  0  0  0  0  0
  -18.0445  -26.0245   22.9084 H   0  0  0  0  0  0
  -19.7972  -30.7346   24.2272 H   0  0  0  0  0  0
  -17.5078  -31.6358   24.5143 H   0  0  0  0  0  0
  -15.5405  -30.3058   23.7792 H   0  0  0  0  0  0
  -15.8678  -28.0931   22.7087 H   0  0  0  0  0  0
  -24.5633  -30.7462   25.7816 H   0  0  0  0  0  0
  -24.8914  -32.3180   26.4896 H   0  0  0  0  0  0
  -25.7763  -30.9091   27.0261 H   0  0  0  0  0  0
  -26.2909  -29.6795   24.1435 H   0  0  0  0  0  0
  -27.3642  -29.7314   25.5233 H   0  0  0  0  0  0
  -27.8968  -30.4205   24.0041 H   0  0  0  0  0  0
  -27.2422  -33.3693   26.2254 H   0  0  0  0  0  0
  -28.3740  -32.7161   25.0484 H   0  0  0  0  0  0
  -28.0627  -31.8576   26.5530 H   0  0  0  0  0  0
  -28.2466  -38.0162   24.7565 H   0  0  0  0  0  0
  -28.1197  -36.2669   24.6082 H   0  0  0  0  0  0
  -27.2309  -37.1173   25.8816 H   0  0  0  0  0  0
  -20.9481  -29.8722   21.6639 H   0  0  0  0  0  0
  -26.0083  -38.2731   24.1608 H   0  0  0  0  0  0
  -28.6573  -17.0669   22.0851 H   0  0  0  0  0  0
  -30.3427  -16.9370   22.4336 H   0  0  0  0  0  0
  -30.9599  -17.6716   19.1363 H   0  0  0  0  0  0
  -29.5096  -17.0274   18.4515 H   0  0  0  0  0  0
  -30.8772  -19.1760   21.6369 H   0  0  0  0  0  0
  -29.4821  -19.2702   22.6788 H   0  0  0  0  0  0
  -28.1378  -18.8828   19.1027 H   0  0  0  0  0  0
  -29.5899  -19.6489   18.6006 H   0  0  0  0  0  0
  -26.6644  -23.2238   18.9843 H   0  0  0  0  0  0
  -26.5067  -22.0787   20.3131 H   0  0  0  0  0  0
  -27.2552  -21.5815   18.7890 H   0  0  0  0  0  0
  -30.0605  -22.8992   22.2996 H   0  0  0  0  0  0
  -30.4130  -21.2674   22.7273 H   0  0  0  0  0  0
  -28.7416  -21.8445   22.8288 H   0  0  0  0  0  0
  -29.0242  -24.5984   21.4843 H   0  0  0  0  0  0
  -27.3481  -24.4248   21.2650 H   0  0  0  0  0  0
  -29.1327  -23.0573   19.1523 H   0  0  0  0  0  0
  -30.3652  -21.5654   20.2997 H   0  0  0  0  0  0
  -28.1332  -19.8009   20.9422 H   0  0  0  0  0  0
  1 25  1  0  0  0
  1 30  2  0  0  0
  1 80  1  0  0  0
  2  3  1  0  0  0
  2 25  1  0  0  0
  2 82  1  0  0  0
  2 83  1  0  0  0
  3  4  1  0  0  0
  3 84  1  0  0  0
  3 85  1  0  0  0
  4  5  1  0  0  0
  4 86  1  0  0  0
  4 87  1  0  0  0
  5  6  1  0  0  0
  5 26  1  0  0  0
  5 88  1  0  0  0
  6 25  1  0  0  0
  6 89  1  0  0  0
  6 90  1  0  0  0
  7  8  2  0  0  0
  7 26  1  0  0  0
  7 29  1  0  0  0
  8  9  1  0  0  0
  8 22  1  0  0  0
  9 10  1  0  0  0
  9 27  2  0  0  0
 10 11  2  0  0  0
 10 15  1  0  0  0
 11 12  1  0  0  0
 11 91  1  0  0  0
 12 13  2  0  0  0
 12 92  1  0  0  0
 13 14  1  0  0  0
 13 31  1  0  0  0
 14 15  2  0  0  0
 14 93  1  0  0  0
 15 94  1  0  0  0
 16 17  2  0  0  0
 16 21  1  0  0  0
 16 31  1  0  0  0
 17 18  1  0  0  0
 17 95  1  0  0  0
 18 19  2  0  0  0
 18 96  1  0  0  0
 19 20  1  0  0  0
 19 24  1  0  0  0
 20 21  2  0  0  0
 20 97  1  0  0  0
 21 23  1  0  0  0
 22 28  1  0  0  0
 22 32  2  0  0  0
 26 27  1  0  0  0
 28 98  1  0  0  0
 28 99  1  0  0  0
 29100  1  0  0  0
 29101  1  0  0  0
 33 34  1  0  0  0
 33 66  1  0  0  0
 33 70  2  0  0  0
 34 36  1  0  0  0
 34 59  1  0  0  0
 34102  1  0  0  0
 35 44  2  0  0  0
 35 45  1  0  0  0
 35 68  1  0  0  0
 36 56  1  0  0  0
 36103  1  0  0  0
 37 39  1  0  0  0
 37 47  1  0  0  0
 37 66  1  0  0  0
 37104  1  0  0  0
 38 43  2  0  0  0
 38 46  1  0  0  0
 38 47  1  0  0  0
 39 64  1  0  0  0
 39 67  2  0  0  0
 40 52  1  0  0  0
 40 53  2  0  0  0
 40 58  1  0  0  0
 41105  1  0  0  0
 41106  1  0  0  0
 41107  1  0  0  0
 41 48  1  0  0  0
 42 43  1  0  0  0
 42 66  1  0  0  0
 42108  1  0  0  0
 42109  1  0  0  0
 43 44  1  0  0  0
 44110  1  0  0  0
 45 46  2  0  0  0
 45111  1  0  0  0
 46112  1  0  0  0
 47113  1  0  0  0
 47114  1  0  0  0
 48 56  1  0  0  0
 48 65  1  0  0  0
 48115  1  0  0  0
 49 50  1  0  0  0
 49 53  1  0  0  0
 49 64  1  0  0  0
 49116  1  0  0  0
 50 51  1  0  0  0
 50117  1  0  0  0
 50118  1  0  0  0
 51 52  1  0  0  0
 51119  1  0  0  0
 51120  1  0  0  0
 52121  1  0  0  0
 52122  1  0  0  0
 53 54  1  0  0  0
 54 55  2  0  0  0
 54123  1  0  0  0
 55 57  1  0  0  0
 55124  1  0  0  0
 56 69  2  0  0  0
 57 58  2  0  0  0
 57125  1  0  0  0
 58126  1  0  0  0
 59 60  1  0  0  0
 59 61  1  0  0  0
 59 62  1  0  0  0
 60127  1  0  0  0
 60128  1  0  0  0
 60129  1  0  0  0
 61130  1  0  0  0
 61131  1  0  0  0
 61132  1  0  0  0
 62133  1  0  0  0
 62134  1  0  0  0
 62135  1  0  0  0
 63 65  1  0  0  0
 63136  1  0  0  0
 63137  1  0  0  0
 63138  1  0  0  0
 64139  1  0  0  0
 65140  1  0  0  0
 68 77  1  0  0  0
 71 73  1  0  0  0
 71 80  1  0  0  0
 71141  1  0  0  0
 71142  1  0  0  0
 72 74  1  0  0  0
 72 80  1  0  0  0
 72143  1  0  0  0
 72144  1  0  0  0
 73145  1  0  0  0
 73146  1  0  0  0
 73 81  1  0  0  0
 74 81  1  0  0  0
 74147  1  0  0  0
 74148  1  0  0  0
 75149  1  0  0  0
 75150  1  0  0  0
 75151  1  0  0  0
 75 78  1  0  0  0
 76152  1  0  0  0
 76153  1  0  0  0
 76154  1  0  0  0
 76 79  1  0  0  0
 77 78  1  0  0  0
 77155  1  0  0  0
 77156  1  0  0  0
 78 79  1  0  0  0
 78157  1  0  0  0
 79 81  1  0  0  0
 79158  1  0  0  0
 81159  1  0  0  0
M  CHG  1  81   1
M  ISO  4   1 100  68 101  77 101  80 100
M  END
> <chiral flag>
0

> <version>
0

> <s_m_source_file>
/data/baiqing/PycharmProjects/Reinvent-master-3.2/result/LINK_invent/BTK/process_docking_weight1_custom_sum_contain_oxygen_bond_distance_aromatic_linkinvent_7_9_3/rearranged_h_0096.sdf

> <i_m_source_file_index>
52

> <r_mmod_Potential_Energy-OPLS-2005>
1154.42138671875

> <r_mmod_Stretch_Energy-OPLS-2005>
431.872985839844

> <r_mmod_Bend_Energy-OPLS-2005>
447.159393310547

> <r_mmod_Torsional_Energy-OPLS-2005>
451.992095947266

> <r_mmod_Improper_Torsional_Energy-OPLS-2005>
10.7736148834229

> <r_mmod_Van_der_Waal_Energy-OPLS-2005>
114.766296386719

> <r_mmod_Electrostatic_Energy-OPLS-2005>
-193.219589233398

> <r_mmod_Solvation_Energy-OPLS-2005>
-438.2568359375

> <b_mmod_Minimization_Converged-OPLS-2005>
0

> <r_mmod_RMS_Derivative-OPLS-2005>
8.13355827331543

$$$$
52
                    3D
 Structure written by MMmdl.
185193  0  0  1  0            999 V2000
  -30.7457  -14.4379   20.5315 C   0  0  0  0  0  0
  -30.4079  -12.2694   19.4289 C   0  0  0  0  0  0
  -29.5021  -12.4945   18.2028 C   0  0  0  0  0  0
  -28.0164  -12.4009   18.5999 C   0  0  0  0  0  0
  -27.6682  -13.2248   19.8731 C   0  0  2  0  0  0
  -28.7130  -13.0150   20.9950 C   0  0  0  0  0  0
  -25.2595  -13.8238   20.5665 C   0  0  0  0  0  0
  -24.1834  -13.0441   20.9129 C   0  0  0  0  0  0
  -24.6432  -11.6941   20.8675 C   0  0  0  0  0  0
  -23.9098  -10.4310   21.0372 C   0  0  0  0  0  0
  -24.3628   -9.4244   21.9159 C   0  0  0  0  0  0
  -23.6305   -8.2269   22.0771 C   0  0  0  0  0  0
  -22.4297   -8.0303   21.3555 C   0  0  0  0  0  0
  -21.9916   -9.0291   20.4688 C   0  0  0  0  0  0
  -22.7258  -10.2158   20.3076 C   0  0  0  0  0  0
  -21.6896   -6.0700   22.5281 C   0  0  0  0  0  0
  -21.4029   -6.5609   23.8210 C   0  0  0  0  0  0
  -21.3656   -5.6769   24.9154 C   0  0  0  0  0  0
  -21.6033   -4.3037   24.7218 C   0  0  0  0  0  0
  -21.8817   -3.8116   23.4354 C   0  0  0  0  0  0
  -21.9213   -4.6906   22.3410 C   0  0  0  0  0  0
  -22.7855  -13.5259   21.1705 C   0  0  0  0  0  0
  -22.1660   -4.2086   21.0976 F   0  0  0  0  0  0
  -21.5639   -3.4552   25.7741 F   0  0  0  0  0  0
  -30.0484  -13.2738   20.4404 N   0  0  0  0  0  0
  -26.3067  -12.9452   20.3346 N   0  0  0  0  0  0
  -25.9387  -11.6594   20.5710 N   0  0  0  0  0  0
  -22.0440  -12.8345   22.0332 N   0  0  0  0  0  0
  -25.4210  -15.1954   20.4073 N   0  0  0  0  0  0
  -31.8783  -14.5697   20.0700 O   0  0  0  0  0  0
  -21.6662   -6.8889   21.4286 O   0  0  0  0  0  0
  -22.3591  -14.5546   20.6514 O   0  0  0  0  0  0
  -24.6176  -31.8696   23.2188 C   0  0  0  0  0  0
  -25.9053  -32.4842   23.8480 C   0  0  1  0  0  0
  -27.2095  -27.4303   20.0769 C   0  0  0  0  0  0
  -25.5941  -33.8647   24.2424 N   0  0  0  0  0  0
  -23.4003  -30.5041   21.5583 C   0  0  2  0  0  0
  -24.8355  -28.9590   20.1312 C   0  0  0  0  0  0
  -22.7367  -29.4739   22.5013 C   0  0  0  0  0  0
  -18.0291  -28.1364   22.8527 C   0  0  0  0  0  0
  -24.1494  -36.7289   23.2632 C   0  0  0  0  0  0
  -25.9326  -30.8208   21.3779 C   0  0  0  0  0  0
  -26.0013  -29.4579   20.7212 C   0  0  0  0  0  0
  -27.1936  -28.6977   20.7026 C   0  0  0  0  0  0
  -26.0213  -26.9530   19.4789 C   0  0  0  0  0  0
  -24.8338  -27.6954   19.5199 C   0  0  0  0  0  0
  -23.6138  -29.8423   20.1719 C   0  0  0  0  0  0
  -25.4102  -36.3150   24.0395 C   0  0  1  0  0  0
  -20.5869  -28.3682   23.1282 C   0  0  2  0  0  0
  -20.6788  -26.9428   22.5382 C   0  0  0  0  0  0
  -19.5756  -26.6387   21.5196 C   0  0  0  0  0  0
  -18.1941  -26.7938   22.1612 C   0  0  0  0  0  0
  -19.1531  -28.8834   23.2919 C   0  0  0  0  0  0
  -18.9466  -30.1448   23.8947 C   0  0  0  0  0  0
  -17.6467  -30.6580   24.0595 C   0  0  0  0  0  0
  -25.9010  -34.9507   23.5189 C   0  0  0  0  0  0
  -16.5361  -29.9073   23.6346 C   0  0  0  0  0  0
  -16.7283  -28.6461   23.0399 C   0  0  0  0  0  0
  -26.4549  -31.6600   25.0788 C   0  0  0  0  0  0
  -25.3854  -31.3658   26.1574 C   0  0  0  0  0  0
  -27.0399  -30.3065   24.6125 C   0  0  0  0  0  0
  -27.6181  -32.4287   25.7491 C   0  0  0  0  0  0
  -27.5607  -37.1805   24.8492 C   0  0  0  0  0  0
  -21.4107  -29.3057   22.3687 N   0  0  0  0  0  0
  -26.4310  -37.3809   23.9457 N   0  0  0  0  0  0
  -24.6688  -31.0802   22.1078 N   0  0  0  0  0  0
  -23.4135  -28.8232   23.3036 O   0  0  0  0  0  0
  -28.3697  -26.6871   20.0593 O   0  0  0  0  0  0
  -26.5506  -34.8930   22.4719 O   0  0  0  0  0  0
  -23.5354  -32.1452   23.7518 O   0  0  0  0  0  0
  -30.8469  -20.2533   22.2104 C   0  0  0  0  0  0
  -30.8660  -19.8126   23.5497 C   0  0  0  0  0  0
  -30.6070  -19.3449   21.1534 C   0  0  0  0  0  0
  -30.4980  -18.4615   23.7746 C   0  0  0  0  0  0
  -30.3927  -17.9836   21.4883 C   0  0  0  0  0  0
  -30.2785  -17.8728   25.1518 C   0  0  0  0  0  0
  -34.8431  -19.7052   26.1811 C   0  0  0  0  0  0
  -34.0178  -19.5969   23.8206 C   0  0  0  0  0  0
  -28.2865  -22.7526   16.2817 C   0  0  0  0  0  0
  -31.2873  -20.8045   24.6680 C   0  0  0  0  0  0
  -30.6840  -19.8710   19.7162 C   0  0  0  0  0  0
  -30.3388  -16.8756   20.4264 C   0  0  0  0  0  0
  -29.3665  -20.4985   19.2057 C   0  0  0  0  0  0
  -32.4103  -20.3460   25.6578 C   0  0  0  0  0  0
  -28.3850  -24.5772   18.7305 C   0  0  0  0  0  0
  -29.5439  -21.5782   18.0977 C   0  0  0  0  0  0
  -27.6745  -23.1908   18.6446 C   0  0  0  0  0  0
  -28.1998  -25.2594   20.1023 C   0  0  0  0  0  0
  -33.8799  -20.3375   25.1536 C   0  0  0  0  0  0
  -30.3066  -17.5743   22.7692 N   0  0  0  0  0  0
  -30.0415  -15.5120   20.9128 N   0  0  0  0  0  0
  -28.2654  -22.2232   17.6704 N   0  3  1  0  0  0
  -31.4568  -12.3151   19.1329 H   0  0  0  0  0  0
  -30.2670  -11.2687   19.8327 H   0  0  0  0  0  0
  -29.7234  -11.7624   17.4252 H   0  0  0  0  0  0
  -29.7099  -13.4739   17.7680 H   0  0  0  0  0  0
  -27.7889  -11.3486   18.7602 H   0  0  0  0  0  0
  -27.3916  -12.7206   17.7652 H   0  0  0  0  0  0
  -27.7077  -14.2765   19.5859 H   0  0  0  0  0  0
  -28.6672  -11.9945   21.3809 H   0  0  0  0  0  0
  -28.5011  -13.6649   21.8459 H   0  0  0  0  0  0
  -25.2747   -9.5704   22.4736 H   0  0  0  0  0  0
  -23.9971   -7.4689   22.7546 H   0  0  0  0  0  0
  -21.0821   -8.8831   19.9068 H   0  0  0  0  0  0
  -22.3704  -10.9661   19.6181 H   0  0  0  0  0  0
  -21.2023   -7.6120   23.9695 H   0  0  0  0  0  0
  -21.1487   -6.0484   25.9045 H   0  0  0  0  0  0
  -22.0609   -2.7576   23.2874 H   0  0  0  0  0  0
  -22.3989  -12.0061   22.4857 H   0  0  0  0  0  0
  -21.1085  -13.1470   22.2459 H   0  0  0  0  0  0
  -24.6395  -15.8326   20.5226 H   0  0  0  0  0  0
  -26.2774  -15.6617   20.1303 H   0  0  0  0  0  0
  -26.7086  -32.5597   23.1213 H   0  0  0  0  0  0
  -25.0526  -33.9853   25.0856 H   0  0  0  0  0  0
  -22.7004  -31.3327   21.4223 H   0  0  0  0  0  0
  -23.3827  -35.9548   23.3304 H   0  0  0  0  0  0
  -24.3597  -36.8833   22.2032 H   0  0  0  0  0  0
  -23.7128  -37.6475   23.6575 H   0  0  0  0  0  0
  -26.0540  -31.5780   20.6039 H   0  0  0  0  0  0
  -26.8184  -30.8762   21.9992 H   0  0  0  0  0  0
  -28.0890  -29.0803   21.1717 H   0  0  0  0  0  0
  -26.0010  -26.0008   18.9663 H   0  0  0  0  0  0
  -23.9314  -27.3068   19.0683 H   0  0  0  0  0  0
  -23.7557  -30.6209   19.4248 H   0  0  0  0  0  0
  -22.7340  -29.2851   19.8521 H   0  0  0  0  0  0
  -25.1248  -36.2099   25.0883 H   0  0  0  0  0  0
  -21.0031  -28.3257   24.1369 H   0  0  0  0  0  0
  -20.5734  -26.2301   23.3568 H   0  0  0  0  0  0
  -21.6665  -26.7506   22.1165 H   0  0  0  0  0  0
  -19.6927  -25.6288   21.1225 H   0  0  0  0  0  0
  -19.6680  -27.3208   20.6724 H   0  0  0  0  0  0
  -17.4240  -26.6771   21.3982 H   0  0  0  0  0  0
  -18.0334  -26.0015   22.8926 H   0  0  0  0  0  0
  -19.7950  -30.7262   24.2329 H   0  0  0  0  0  0
  -17.5030  -31.6303   24.5157 H   0  0  0  0  0  0
  -15.5372  -30.3008   23.7618 H   0  0  0  0  0  0
  -15.8694  -28.0786   22.7103 H   0  0  0  0  0  0
  -24.6116  -30.6868   25.7969 H   0  0  0  0  0  0
  -24.8968  -32.2771   26.5011 H   0  0  0  0  0  0
  -25.8300  -30.8920   27.0329 H   0  0  0  0  0  0
  -26.2888  -29.6758   24.1348 H   0  0  0  0  0  0
  -27.4398  -29.7388   25.4537 H   0  0  0  0  0  0
  -27.8650  -30.4469   23.9139 H   0  0  0  0  0  0
  -27.2920  -33.3632   26.2065 H   0  0  0  0  0  0
  -28.3996  -32.6709   25.0275 H   0  0  0  0  0  0
  -28.0860  -31.8388   26.5384 H   0  0  0  0  0  0
  -28.2669  -38.0065   24.7604 H   0  0  0  0  0  0
  -28.1064  -36.2632   24.6287 H   0  0  0  0  0  0
  -27.2347  -37.1435   25.8889 H   0  0  0  0  0  0
  -20.9217  -29.8814   21.6972 H   0  0  0  0  0  0
  -26.0266  -38.2911   24.1451 H   0  0  0  0  0  0
  -31.0681  -21.2793   21.9683 H   0  0  0  0  0  0
  -29.9946  -18.6337   25.8789 H   0  0  0  0  0  0
  -31.1813  -17.3635   25.4865 H   0  0  0  0  0  0
  -29.4908  -17.1231   25.1280 H   0  0  0  0  0  0
  -35.8694  -19.6791   25.8088 H   0  0  0  0  0  0
  -34.5507  -18.6767   26.4078 H   0  0  0  0  0  0
  -34.8783  -20.2667   27.1200 H   0  0  0  0  0  0
  -35.0546  -19.3868   23.5683 H   0  0  0  0  0  0
  -33.6000  -20.1774   22.9972 H   0  0  0  0  0  0
  -33.4848  -18.6495   23.8679 H   0  0  0  0  0  0
  -28.9392  -23.6230   16.1558 H   0  0  0  0  0  0
  -27.2684  -23.0199   15.9901 H   0  0  0  0  0  0
  -28.6372  -22.0051   15.5713 H   0  0  0  0  0  0
  -30.4021  -21.0627   25.2524 H   0  0  0  0  0  0
  -31.6018  -21.7454   24.2057 H   0  0  0  0  0  0
  -30.9871  -19.0675   19.0448 H   0  0  0  0  0  0
  -31.4847  -20.6136   19.6674 H   0  0  0  0  0  0
  -31.3072  -16.9033   19.9204 H   0  0  0  0  0  0
  -29.6107  -17.1063   19.6490 H   0  0  0  0  0  0
  -28.8280  -20.8997   20.0626 H   0  0  0  0  0  0
  -28.7361  -19.6951   18.8232 H   0  0  0  0  0  0
  -32.1736  -19.3725   26.0778 H   0  0  0  0  0  0
  -32.3937  -21.0131   26.5229 H   0  0  0  0  0  0
  -27.9953  -25.2242   17.9439 H   0  0  0  0  0  0
  -29.4536  -24.5127   18.5309 H   0  0  0  0  0  0
  -29.9618  -21.0691   17.2281 H   0  0  0  0  0  0
  -30.2733  -22.3325   18.3967 H   0  0  0  0  0  0
  -27.6388  -22.7163   19.6229 H   0  0  0  0  0  0
  -26.6252  -23.3563   18.3704 H   0  0  0  0  0  0
  -28.9410  -24.8568   20.7932 H   0  0  0  0  0  0
  -27.2413  -24.9802   20.5461 H   0  0  0  0  0  0
  -34.2203  -21.3647   25.0060 H   0  0  0  0  0  0
  -29.1427  -15.3580   21.3384 H   0  0  0  0  0  0
  -27.6155  -21.4519   17.6251 H   0  0  0  0  0  0
  1 25  1  0  0  0
  1 30  2  0  0  0
  1 91  1  0  0  0
  2  3  1  0  0  0
  2 25  1  0  0  0
  2 93  1  0  0  0
  2 94  1  0  0  0
  3  4  1  0  0  0
  3 95  1  0  0  0
  3 96  1  0  0  0
  4  5  1  0  0  0
  4 97  1  0  0  0
  4 98  1  0  0  0
  5  6  1  0  0  0
  5 26  1  0  0  0
  5 99  1  0  0  0
  6 25  1  0  0  0
  6100  1  0  0  0
  6101  1  0  0  0
  7  8  2  0  0  0
  7 26  1  0  0  0
  7 29  1  0  0  0
  8  9  1  0  0  0
  8 22  1  0  0  0
  9 10  1  0  0  0
  9 27  2  0  0  0
 10 11  2  0  0  0
 10 15  1  0  0  0
 11 12  1  0  0  0
 11102  1  0  0  0
 12 13  2  0  0  0
 12103  1  0  0  0
 13 14  1  0  0  0
 13 31  1  0  0  0
 14 15  2  0  0  0
 14104  1  0  0  0
 15105  1  0  0  0
 16 17  2  0  0  0
 16 21  1  0  0  0
 16 31  1  0  0  0
 17 18  1  0  0  0
 17106  1  0  0  0
 18 19  2  0  0  0
 18107  1  0  0  0
 19 20  1  0  0  0
 19 24  1  0  0  0
 20 21  2  0  0  0
 20108  1  0  0  0
 21 23  1  0  0  0
 22 28  1  0  0  0
 22 32  2  0  0  0
 26 27  1  0  0  0
 28109  1  0  0  0
 28110  1  0  0  0
 29111  1  0  0  0
 29112  1  0  0  0
 33 34  1  0  0  0
 33 66  1  0  0  0
 33 70  2  0  0  0
 34 36  1  0  0  0
 34 59  1  0  0  0
 34113  1  0  0  0
 35 44  2  0  0  0
 35 45  1  0  0  0
 35 68  1  0  0  0
 36 56  1  0  0  0
 36114  1  0  0  0
 37 39  1  0  0  0
 37 47  1  0  0  0
 37 66  1  0  0  0
 37115  1  0  0  0
 38 43  2  0  0  0
 38 46  1  0  0  0
 38 47  1  0  0  0
 39 64  1  0  0  0
 39 67  2  0  0  0
 40 52  1  0  0  0
 40 53  2  0  0  0
 40 58  1  0  0  0
 41116  1  0  0  0
 41117  1  0  0  0
 41118  1  0  0  0
 41 48  1  0  0  0
 42 43  1  0  0  0
 42 66  1  0  0  0
 42119  1  0  0  0
 42120  1  0  0  0
 43 44  1  0  0  0
 44121  1  0  0  0
 45 46  2  0  0  0
 45122  1  0  0  0
 46123  1  0  0  0
 47124  1  0  0  0
 47125  1  0  0  0
 48 56  1  0  0  0
 48 65  1  0  0  0
 48126  1  0  0  0
 49 50  1  0  0  0
 49 53  1  0  0  0
 49 64  1  0  0  0
 49127  1  0  0  0
 50 51  1  0  0  0
 50128  1  0  0  0
 50129  1  0  0  0
 51 52  1  0  0  0
 51130  1  0  0  0
 51131  1  0  0  0
 52132  1  0  0  0
 52133  1  0  0  0
 53 54  1  0  0  0
 54 55  2  0  0  0
 54134  1  0  0  0
 55 57  1  0  0  0
 55135  1  0  0  0
 56 69  2  0  0  0
 57 58  2  0  0  0
 57136  1  0  0  0
 58137  1  0  0  0
 59 60  1  0  0  0
 59 61  1  0  0  0
 59 62  1  0  0  0
 60138  1  0  0  0
 60139  1  0  0  0
 60140  1  0  0  0
 61141  1  0  0  0
 61142  1  0  0  0
 61143  1  0  0  0
 62144  1  0  0  0
 62145  1  0  0  0
 62146  1  0  0  0
 63 65  1  0  0  0
 63147  1  0  0  0
 63148  1  0  0  0
 63149  1  0  0  0
 64150  1  0  0  0
 65151  1  0  0  0
 68 88  1  0  0  0
 71 72  2  0  0  0
 71 73  1  0  0  0
 71152  1  0  0  0
 72 74  1  0  0  0
 72 80  1  0  0  0
 73 75  2  0  0  0
 73 81  1  0  0  0
 74 76  1  0  0  0
 74 90  2  0  0  0
 75 82  1  0  0  0
 75 90  1  0  0  0
 76153  1  0  0  0
 76154  1  0  0  0
 76155  1  0  0  0
 77156  1  0  0  0
 77157  1  0  0  0
 77158  1  0  0  0
 77 89  1  0  0  0
 78 89  1  0  0  0
 78159  1  0  0  0
 78160  1  0  0  0
 78161  1  0  0  0
 79162  1  0  0  0
 79163  1  0  0  0
 79164  1  0  0  0
 79 92  1  0  0  0
 80 84  1  0  0  0
 80165  1  0  0  0
 80166  1  0  0  0
 81 83  1  0  0  0
 81167  1  0  0  0
 81168  1  0  0  0
 82 91  1  0  0  0
 82169  1  0  0  0
 82170  1  0  0  0
 83 86  1  0  0  0
 83171  1  0  0  0
 83172  1  0  0  0
 84 89  1  0  0  0
 84173  1  0  0  0
 84174  1  0  0  0
 85 87  1  0  0  0
 85 88  1  0  0  0
 85175  1  0  0  0
 85176  1  0  0  0
 86 92  1  0  0  0
 86177  1  0  0  0
 86178  1  0  0  0
 87 92  1  0  0  0
 87179  1  0  0  0
 87180  1  0  0  0
 88181  1  0  0  0
 88182  1  0  0  0
 89183  1  0  0  0
 91184  1  0  0  0
 92185  1  0  0  0
M  CHG  1  92   1
M  ISO  4   1 100  68 101  88 101  91 100
M  END
> <chiral flag>
0

> <version>
0

> <s_m_source_file>
/data/baiqing/PycharmProjects/Reinvent-master-3.2/result/LINK_invent/BTK/process_docking_weight1_custom_sum_contain_oxygen_bond_distance_aromatic_linkinvent_7_9_3/rearranged_h_0096.sdf

> <i_m_source_file_index>
53

> <r_mmod_Potential_Energy-OPLS-2005>
-382.134155273438

> <r_mmod_Stretch_Energy-OPLS-2005>
45.2778472900391

> <r_mmod_Bend_Energy-OPLS-2005>
119.412300109863

> <r_mmod_Torsional_Energy-OPLS-2005>
246.000930786133

> <r_mmod_Improper_Torsional_Energy-OPLS-2005>
7.15891742706299

> <r_mmod_Van_der_Waal_Energy-OPLS-2005>
164.684448242188

> <r_mmod_Electrostatic_Energy-OPLS-2005>
-507.531494140625

> <r_mmod_Solvation_Energy-OPLS-2005>
-472.263031005859

> <b_mmod_Minimization_Converged-OPLS-2005>
0

> <r_mmod_RMS_Derivative-OPLS-2005>
9.29429149627686

$$$$
53
                    3D
 Structure written by MMmdl.
172180  0  0  1  0            999 V2000
  -30.5213  -14.9897   20.4268 C   0  0  0  0  0  0
  -30.4437  -12.6182   19.5236 C   0  0  0  0  0  0
  -29.5282  -12.5284   18.2774 C   0  0  0  0  0  0
  -28.0663  -12.2881   18.6922 C   0  0  0  0  0  0
  -27.6282  -13.2353   19.8395 C   0  0  2  0  0  0
  -28.6575  -13.2875   20.9908 C   0  0  0  0  0  0
  -25.2486  -13.8159   20.5643 C   0  0  0  0  0  0
  -24.1791  -13.0438   20.9191 C   0  0  0  0  0  0
  -24.6382  -11.6927   20.8726 C   0  0  0  0  0  0
  -23.9078  -10.4302   21.0392 C   0  0  0  0  0  0
  -24.3622   -9.4214   21.9185 C   0  0  0  0  0  0
  -23.6305   -8.2257   22.0742 C   0  0  0  0  0  0
  -22.4293   -8.0275   21.3528 C   0  0  0  0  0  0
  -21.9941   -9.0235   20.4610 C   0  0  0  0  0  0
  -22.7246  -10.2142   20.3029 C   0  0  0  0  0  0
  -21.6871   -6.0745   22.5275 C   0  0  0  0  0  0
  -21.4007   -6.5646   23.8205 C   0  0  0  0  0  0
  -21.3653   -5.6797   24.9164 C   0  0  0  0  0  0
  -21.6049   -4.3052   24.7219 C   0  0  0  0  0  0
  -21.8816   -3.8145   23.4327 C   0  0  0  0  0  0
  -21.9205   -4.6991   22.3402 C   0  0  0  0  0  0
  -22.7827  -13.5265   21.1830 C   0  0  0  0  0  0
  -22.1670   -4.2176   21.0973 F   0  0  0  0  0  0
  -21.5649   -3.4531   25.7721 F   0  0  0  0  0  0
  -29.9372  -13.7191   20.4046 N   0  0  0  0  0  0
  -26.2868  -12.9373   20.3168 N   0  0  0  0  0  0
  -25.9315  -11.6510   20.5681 N   0  0  0  0  0  0
  -22.0462  -12.8246   22.0377 N   0  0  0  0  0  0
  -25.4248  -15.1867   20.4023 N   0  0  0  0  0  0
  -31.7142  -15.0419   20.1011 O   0  0  0  0  0  0
  -21.6653   -6.8876   21.4231 O   0  0  0  0  0  0
  -22.3520  -14.5579   20.6678 O   0  0  0  0  0  0
  -24.6492  -31.8425   23.1880 C   0  0  0  0  0  0
  -25.9247  -32.4667   23.8286 C   0  0  1  0  0  0
  -27.2149  -27.0998   20.1430 C   0  0  0  0  0  0
  -25.6029  -33.8491   24.2194 N   0  0  0  0  0  0
  -23.4517  -30.4603   21.5342 C   0  0  2  0  0  0
  -24.8983  -28.8747   20.1106 C   0  0  0  0  0  0
  -22.7582  -29.4546   22.4884 C   0  0  0  0  0  0
  -18.0319  -28.1413   22.8494 C   0  0  0  0  0  0
  -24.1478  -36.7173   23.2665 C   0  0  0  0  0  0
  -26.0126  -30.6984   21.3920 C   0  0  0  0  0  0
  -26.0792  -29.3066   20.7294 C   0  0  0  0  0  0
  -27.2362  -28.4371   20.7198 C   0  0  0  0  0  0
  -26.0122  -26.7737   19.4872 C   0  0  0  0  0  0
  -24.8815  -27.6229   19.4739 C   0  0  0  0  0  0
  -23.6734  -29.7801   20.1567 C   0  0  0  0  0  0
  -25.4115  -36.2970   24.0325 C   0  0  1  0  0  0
  -20.5935  -28.3710   23.1220 C   0  0  2  0  0  0
  -20.6775  -26.9396   22.5398 C   0  0  0  0  0  0
  -19.5740  -26.6355   21.5240 C   0  0  0  0  0  0
  -18.1915  -26.7967   22.1620 C   0  0  0  0  0  0
  -19.1577  -28.8876   23.2849 C   0  0  0  0  0  0
  -18.9484  -30.1499   23.8843 C   0  0  0  0  0  0
  -17.6496  -30.6620   24.0542 C   0  0  0  0  0  0
  -25.9068  -34.9373   23.5019 C   0  0  0  0  0  0
  -16.5362  -29.9061   23.6385 C   0  0  0  0  0  0
  -16.7274  -28.6516   23.0409 C   0  0  0  0  0  0
  -26.4589  -31.6588   25.0742 C   0  0  0  0  0  0
  -25.3779  -31.3804   26.1423 C   0  0  0  0  0  0
  -27.0515  -30.3000   24.6395 C   0  0  0  0  0  0
  -27.6093  -32.4426   25.7502 C   0  0  0  0  0  0
  -27.5545  -37.1718   24.8477 C   0  0  0  0  0  0
  -21.4266  -29.3053   22.3619 N   0  0  0  0  0  0
  -26.4229  -37.3714   23.9445 N   0  0  0  0  0  0
  -24.7244  -31.0253   22.0914 N   0  0  0  0  0  0
  -23.4211  -28.8099   23.3058 O   0  0  0  0  0  0
  -28.2765  -26.1125   20.1400 O   0  0  0  0  0  0
  -26.5623  -34.8885   22.4566 O   0  0  0  0  0  0
  -23.5583  -32.1365   23.7040 O   0  0  0  0  0  0
  -28.9698  -20.2957   19.6137 C   0  0  0  0  0  0
  -29.0183  -21.6318   20.2812 C   0  0  0  0  0  0
  -29.4911  -19.1697   20.3275 C   0  0  0  0  0  0
  -29.4541  -21.1993   21.5183 C   0  0  0  0  0  0
  -29.6215  -22.0481   22.7410 C   0  0  0  0  0  0
  -32.8007  -19.4233   21.0204 C   0  0  0  0  0  0
  -29.3909  -17.3846   18.4321 C   0  0  0  0  0  0
  -29.8894  -18.3020   23.4962 C   0  0  0  0  0  0
  -28.2386  -23.1846   18.3064 C   0  0  0  0  0  0
  -30.3282  -23.7013   19.5496 C   0  0  0  0  0  0
  -32.0496  -18.6455   22.1227 C   0  0  0  0  0  0
  -28.0799  -24.5772   20.4495 C   0  0  0  0  0  0
  -29.9115  -17.6116   19.8606 C   0  0  2  0  0  0
  -30.6960  -19.2448   22.5907 C   0  0  1  0  0  0
  -28.8641  -23.2357   19.7181 C   0  0  0  0  0  0
  -29.8824  -19.8300   21.5087 N   0  0  0  0  0  0
  -29.7551  -16.1948   20.5743 N   0  0  0  0  0  0
  -31.4704  -12.7997   19.2036 H   0  0  0  0  0  0
  -30.4646  -11.6698   20.0623 H   0  0  0  0  0  0
  -29.8709  -11.7288   17.6205 H   0  0  0  0  0  0
  -29.5969  -13.4490   17.6956 H   0  0  0  0  0  0
  -27.9829  -11.2471   19.0097 H   0  0  0  0  0  0
  -27.4009  -12.3899   17.8321 H   0  0  0  0  0  0
  -27.5896  -14.2298   19.3964 H   0  0  0  0  0  0
  -28.7494  -12.3114   21.4706 H   0  0  0  0  0  0
  -28.3231  -13.9848   21.7622 H   0  0  0  0  0  0
  -25.2774   -9.5759   22.4739 H   0  0  0  0  0  0
  -24.0047   -7.4667   22.7473 H   0  0  0  0  0  0
  -21.0888   -8.8697   19.8895 H   0  0  0  0  0  0
  -22.3660  -10.9660   19.6114 H   0  0  0  0  0  0
  -21.1957   -7.6136   23.9729 H   0  0  0  0  0  0
  -21.1494   -6.0500   25.9065 H   0  0  0  0  0  0
  -22.0605   -2.7621   23.2809 H   0  0  0  0  0  0
  -22.4107  -11.9931   22.4791 H   0  0  0  0  0  0
  -21.1044  -13.1172   22.2468 H   0  0  0  0  0  0
  -24.6663  -15.8475   20.5277 H   0  0  0  0  0  0
  -26.2689  -15.6111   20.0419 H   0  0  0  0  0  0
  -26.7304  -32.5241   23.0996 H   0  0  0  0  0  0
  -25.0358  -33.9691   25.0465 H   0  0  0  0  0  0
  -22.7596  -31.2884   21.3725 H   0  0  0  0  0  0
  -23.3802  -35.9437   23.3255 H   0  0  0  0  0  0
  -24.3582  -36.8890   22.2098 H   0  0  0  0  0  0
  -23.7171  -37.6315   23.6749 H   0  0  0  0  0  0
  -26.1976  -31.4588   20.6307 H   0  0  0  0  0  0
  -26.8726  -30.7307   22.0478 H   0  0  0  0  0  0
  -28.1412  -28.7659   21.2069 H   0  0  0  0  0  0
  -25.9347  -25.8269   18.9734 H   0  0  0  0  0  0
  -23.9827  -27.2957   18.9708 H   0  0  0  0  0  0
  -23.7930  -30.5509   19.3958 H   0  0  0  0  0  0
  -22.7887  -29.2158   19.8514 H   0  0  0  0  0  0
  -25.1303  -36.1735   25.0817 H   0  0  0  0  0  0
  -21.0037  -28.3260   24.1342 H   0  0  0  0  0  0
  -20.5726  -26.2322   23.3645 H   0  0  0  0  0  0
  -21.6617  -26.7434   22.1142 H   0  0  0  0  0  0
  -19.6898  -25.6264   21.1303 H   0  0  0  0  0  0
  -19.6669  -27.3117   20.6750 H   0  0  0  0  0  0
  -17.4200  -26.6800   21.3973 H   0  0  0  0  0  0
  -18.0193  -26.0102   22.8989 H   0  0  0  0  0  0
  -19.7969  -30.7354   24.2136 H   0  0  0  0  0  0
  -17.5025  -31.6296   24.5141 H   0  0  0  0  0  0
  -15.5367  -30.2931   23.7819 H   0  0  0  0  0  0
  -15.8677  -28.0789   22.7186 H   0  0  0  0  0  0
  -24.5922  -30.7197   25.7737 H   0  0  0  0  0  0
  -24.9031  -32.2997   26.4839 H   0  0  0  0  0  0
  -25.8032  -30.8969   27.0219 H   0  0  0  0  0  0
  -26.3173  -29.6676   24.1383 H   0  0  0  0  0  0
  -27.4138  -29.7333   25.4995 H   0  0  0  0  0  0
  -27.9051  -30.4310   23.9740 H   0  0  0  0  0  0
  -27.2690  -33.3831   26.1852 H   0  0  0  0  0  0
  -28.3966  -32.6860   25.0343 H   0  0  0  0  0  0
  -28.0662  -31.8730   26.5610 H   0  0  0  0  0  0
  -28.2497  -38.0088   24.7556 H   0  0  0  0  0  0
  -28.1098  -36.2595   24.6190 H   0  0  0  0  0  0
  -27.2269  -37.1178   25.8891 H   0  0  0  0  0  0
  -20.9487  -29.8748   21.6767 H   0  0  0  0  0  0
  -26.0068  -38.2751   24.1535 H   0  0  0  0  0  0
  -28.6584  -20.1802   18.5861 H   0  0  0  0  0  0
  -28.9803  -22.9223   22.6989 H   0  0  0  0  0  0
  -30.6502  -22.3902   22.8513 H   0  0  0  0  0  0
  -29.3228  -21.5113   23.6404 H   0  0  0  0  0  0
  -33.7857  -18.9885   20.8463 H   0  0  0  0  0  0
  -32.9460  -20.4721   21.2816 H   0  0  0  0  0  0
  -32.2753  -19.4038   20.0664 H   0  0  0  0  0  0
  -29.7577  -18.1596   17.7612 H   0  0  0  0  0  0
  -28.3020  -17.3976   18.3862 H   0  0  0  0  0  0
  -29.7268  -16.4335   18.0217 H   0  0  0  0  0  0
  -30.4832  -17.9765   24.3487 H   0  0  0  0  0  0
  -29.5694  -17.4114   22.9651 H   0  0  0  0  0  0
  -29.0022  -18.7915   23.8972 H   0  0  0  0  0  0
  -28.7585  -22.5044   17.6269 H   0  0  0  0  0  0
  -28.2640  -24.1707   17.8370 H   0  0  0  0  0  0
  -27.1914  -22.8835   18.3497 H   0  0  0  0  0  0
  -30.8849  -23.0566   18.8672 H   0  0  0  0  0  0
  -30.8681  -23.7129   20.4990 H   0  0  0  0  0  0
  -30.3793  -24.7058   19.1258 H   0  0  0  0  0  0
  -32.7068  -18.5804   22.9906 H   0  0  0  0  0  0
  -31.9060  -17.6156   21.8078 H   0  0  0  0  0  0
  -28.3446  -24.5401   21.5018 H   0  0  0  0  0  0
  -27.0070  -24.3718   20.4532 H   0  0  0  0  0  0
  -30.9866  -17.6524   19.7222 H   0  0  0  0  0  0
  -31.0066  -20.0595   23.2396 H   0  0  0  0  0  0
  -28.8421  -16.0438   20.9746 H   0  0  0  0  0  0
  1 25  1  0  0  0
  1 30  2  0  0  0
  1 87  1  0  0  0
  2  3  1  0  0  0
  2 25  1  0  0  0
  2 88  1  0  0  0
  2 89  1  0  0  0
  3  4  1  0  0  0
  3 90  1  0  0  0
  3 91  1  0  0  0
  4  5  1  0  0  0
  4 92  1  0  0  0
  4 93  1  0  0  0
  5  6  1  0  0  0
  5 26  1  0  0  0
  5 94  1  0  0  0
  6 25  1  0  0  0
  6 95  1  0  0  0
  6 96  1  0  0  0
  7  8  2  0  0  0
  7 26  1  0  0  0
  7 29  1  0  0  0
  8  9  1  0  0  0
  8 22  1  0  0  0
  9 10  1  0  0  0
  9 27  2  0  0  0
 10 11  2  0  0  0
 10 15  1  0  0  0
 11 12  1  0  0  0
 11 97  1  0  0  0
 12 13  2  0  0  0
 12 98  1  0  0  0
 13 14  1  0  0  0
 13 31  1  0  0  0
 14 15  2  0  0  0
 14 99  1  0  0  0
 15100  1  0  0  0
 16 17  2  0  0  0
 16 21  1  0  0  0
 16 31  1  0  0  0
 17 18  1  0  0  0
 17101  1  0  0  0
 18 19  2  0  0  0
 18102  1  0  0  0
 19 20  1  0  0  0
 19 24  1  0  0  0
 20 21  2  0  0  0
 20103  1  0  0  0
 21 23  1  0  0  0
 22 28  1  0  0  0
 22 32  2  0  0  0
 26 27  1  0  0  0
 28104  1  0  0  0
 28105  1  0  0  0
 29106  1  0  0  0
 29107  1  0  0  0
 33 34  1  0  0  0
 33 66  1  0  0  0
 33 70  2  0  0  0
 34 36  1  0  0  0
 34 59  1  0  0  0
 34108  1  0  0  0
 35 44  2  0  0  0
 35 45  1  0  0  0
 35 68  1  0  0  0
 36 56  1  0  0  0
 36109  1  0  0  0
 37 39  1  0  0  0
 37 47  1  0  0  0
 37 66  1  0  0  0
 37110  1  0  0  0
 38 43  2  0  0  0
 38 46  1  0  0  0
 38 47  1  0  0  0
 39 64  1  0  0  0
 39 67  2  0  0  0
 40 52  1  0  0  0
 40 53  2  0  0  0
 40 58  1  0  0  0
 41111  1  0  0  0
 41112  1  0  0  0
 41113  1  0  0  0
 41 48  1  0  0  0
 42 43  1  0  0  0
 42 66  1  0  0  0
 42114  1  0  0  0
 42115  1  0  0  0
 43 44  1  0  0  0
 44116  1  0  0  0
 45 46  2  0  0  0
 45117  1  0  0  0
 46118  1  0  0  0
 47119  1  0  0  0
 47120  1  0  0  0
 48 56  1  0  0  0
 48 65  1  0  0  0
 48121  1  0  0  0
 49 50  1  0  0  0
 49 53  1  0  0  0
 49 64  1  0  0  0
 49122  1  0  0  0
 50 51  1  0  0  0
 50123  1  0  0  0
 50124  1  0  0  0
 51 52  1  0  0  0
 51125  1  0  0  0
 51126  1  0  0  0
 52127  1  0  0  0
 52128  1  0  0  0
 53 54  1  0  0  0
 54 55  2  0  0  0
 54129  1  0  0  0
 55 57  1  0  0  0
 55130  1  0  0  0
 56 69  2  0  0  0
 57 58  2  0  0  0
 57131  1  0  0  0
 58132  1  0  0  0
 59 60  1  0  0  0
 59 61  1  0  0  0
 59 62  1  0  0  0
 60133  1  0  0  0
 60134  1  0  0  0
 60135  1  0  0  0
 61136  1  0  0  0
 61137  1  0  0  0
 61138  1  0  0  0
 62139  1  0  0  0
 62140  1  0  0  0
 62141  1  0  0  0
 63 65  1  0  0  0
 63142  1  0  0  0
 63143  1  0  0  0
 63144  1  0  0  0
 64145  1  0  0  0
 65146  1  0  0  0
 68 82  1  0  0  0
 71 72  1  0  0  0
 71 73  2  0  0  0
 71147  1  0  0  0
 72 74  2  0  0  0
 72 85  1  0  0  0
 73 83  1  0  0  0
 73 86  1  0  0  0
 74 75  1  0  0  0
 74 86  1  0  0  0
 75148  1  0  0  0
 75149  1  0  0  0
 75150  1  0  0  0
 76 81  1  0  0  0
 76151  1  0  0  0
 76152  1  0  0  0
 76153  1  0  0  0
 77154  1  0  0  0
 77155  1  0  0  0
 77156  1  0  0  0
 77 83  1  0  0  0
 78157  1  0  0  0
 78158  1  0  0  0
 78159  1  0  0  0
 78 84  1  0  0  0
 79160  1  0  0  0
 79161  1  0  0  0
 79162  1  0  0  0
 79 85  1  0  0  0
 80 85  1  0  0  0
 80163  1  0  0  0
 80164  1  0  0  0
 80165  1  0  0  0
 81 84  1  0  0  0
 81166  1  0  0  0
 81167  1  0  0  0
 82 85  1  0  0  0
 82168  1  0  0  0
 82169  1  0  0  0
 83 87  1  0  0  0
 83170  1  0  0  0
 84 86  1  0  0  0
 84171  1  0  0  0
 87172  1  0  0  0
M  ISO  4   1 100  68 101  82 101  87 100
M  END
> <chiral flag>
0

> <version>
0

> <s_m_source_file>
/data/baiqing/PycharmProjects/Reinvent-master-3.2/result/LINK_invent/BTK/process_docking_weight1_custom_sum_contain_oxygen_bond_distance_aromatic_linkinvent_7_9_3/rearranged_h_0096.sdf

> <i_m_source_file_index>
54

> <r_mmod_Potential_Energy-OPLS-2005>
609.883666992188

> <r_mmod_Stretch_Energy-OPLS-2005>
320.989501953125

> <r_mmod_Bend_Energy-OPLS-2005>
323.546844482422

> <r_mmod_Torsional_Energy-OPLS-2005>
278.081268310547

> <r_mmod_Improper_Torsional_Energy-OPLS-2005>
9.80691242218018

> <r_mmod_Van_der_Waal_Energy-OPLS-2005>
103.074981689453

> <r_mmod_Electrostatic_Energy-OPLS-2005>
-450.506683349609

> <r_mmod_Solvation_Energy-OPLS-2005>
-193.522598266602

> <b_mmod_Minimization_Converged-OPLS-2005>
0

> <r_mmod_RMS_Derivative-OPLS-2005>
6.4345498085022

$$$$
54
                    3D
 Structure written by MMmdl.
179187  0  0  1  0            999 V2000
  -30.7531  -14.3960   20.6720 C   0  0  0  0  0  0
  -30.4106  -12.2912   19.4279 C   0  0  0  0  0  0
  -29.4981  -12.5283   18.2079 C   0  0  0  0  0  0
  -28.0159  -12.3950   18.6014 C   0  0  0  0  0  0
  -27.6596  -13.2128   19.8688 C   0  0  2  0  0  0
  -28.6852  -12.9586   20.9939 C   0  0  0  0  0  0
  -25.2550  -13.8173   20.5623 C   0  0  0  0  0  0
  -24.1821  -13.0439   20.9184 C   0  0  0  0  0  0
  -24.6398  -11.6910   20.8738 C   0  0  0  0  0  0
  -23.9084  -10.4280   21.0429 C   0  0  0  0  0  0
  -24.3649   -9.4193   21.9195 C   0  0  0  0  0  0
  -23.6338   -8.2215   22.0752 C   0  0  0  0  0  0
  -22.4309   -8.0266   21.3543 C   0  0  0  0  0  0
  -21.9937   -9.0246   20.4641 C   0  0  0  0  0  0
  -22.7273  -10.2114   20.3064 C   0  0  0  0  0  0
  -21.6842   -6.0747   22.5283 C   0  0  0  0  0  0
  -21.3988   -6.5643   23.8228 C   0  0  0  0  0  0
  -21.3674   -5.6794   24.9190 C   0  0  0  0  0  0
  -21.6062   -4.3064   24.7226 C   0  0  0  0  0  0
  -21.8820   -3.8153   23.4341 C   0  0  0  0  0  0
  -21.9184   -4.6977   22.3407 C   0  0  0  0  0  0
  -22.7828  -13.5229   21.1864 C   0  0  0  0  0  0
  -22.1657   -4.2156   21.0978 F   0  0  0  0  0  0
  -21.5668   -3.4551   25.7746 F   0  0  0  0  0  0
  -30.0374  -13.2507   20.4815 N   0  0  0  0  0  0
  -26.2990  -12.9348   20.3261 N   0  0  0  0  0  0
  -25.9304  -11.6515   20.5679 N   0  0  0  0  0  0
  -22.0438  -12.8256   22.0417 N   0  0  0  0  0  0
  -25.4230  -15.1883   20.4034 N   0  0  0  0  0  0
  -31.7712  -14.6358   20.0147 O   0  0  0  0  0  0
  -21.6652   -6.8883   21.4247 O   0  0  0  0  0  0
  -22.3520  -14.5547   20.6719 O   0  0  0  0  0  0
  -24.6095  -31.8693   23.2129 C   0  0  0  0  0  0
  -25.9004  -32.4833   23.8407 C   0  0  1  0  0  0
  -27.2419  -27.4742   20.0782 C   0  0  0  0  0  0
  -25.5880  -33.8639   24.2348 N   0  0  0  0  0  0
  -23.3965  -30.4930   21.5520 C   0  0  2  0  0  0
  -24.8450  -28.9565   20.1225 C   0  0  0  0  0  0
  -22.7388  -29.4664   22.5018 C   0  0  0  0  0  0
  -18.0255  -28.1367   22.8495 C   0  0  0  0  0  0
  -24.1476  -36.7327   23.2638 C   0  0  0  0  0  0
  -25.9221  -30.8421   21.3628 C   0  0  0  0  0  0
  -26.0011  -29.4757   20.7189 C   0  0  0  0  0  0
  -27.2020  -28.7353   20.7084 C   0  0  0  0  0  0
  -26.0688  -26.9491   19.4987 C   0  0  0  0  0  0
  -24.8696  -27.6882   19.5147 C   0  0  0  0  0  0
  -23.6044  -29.8217   20.1679 C   0  0  0  0  0  0
  -25.4099  -36.3130   24.0351 C   0  0  1  0  0  0
  -20.5848  -28.3641   23.1356 C   0  0  2  0  0  0
  -20.6738  -26.9381   22.5451 C   0  0  0  0  0  0
  -19.5740  -26.6384   21.5222 C   0  0  0  0  0  0
  -18.1905  -26.7921   22.1609 C   0  0  0  0  0  0
  -19.1507  -28.8815   23.2918 C   0  0  0  0  0  0
  -18.9438  -30.1425   23.8922 C   0  0  0  0  0  0
  -17.6446  -30.6571   24.0558 C   0  0  0  0  0  0
  -25.9021  -34.9497   23.5148 C   0  0  0  0  0  0
  -16.5340  -29.9087   23.6320 C   0  0  0  0  0  0
  -16.7240  -28.6510   23.0329 C   0  0  0  0  0  0
  -26.4456  -31.6607   25.0718 C   0  0  0  0  0  0
  -25.3766  -31.3713   26.1502 C   0  0  0  0  0  0
  -27.0265  -30.3044   24.6070 C   0  0  0  0  0  0
  -27.6061  -32.4307   25.7460 C   0  0  0  0  0  0
  -27.5595  -37.1801   24.8458 C   0  0  0  0  0  0
  -21.4118  -29.3023   22.3767 N   0  0  0  0  0  0
  -26.4276  -37.3831   23.9429 N   0  0  0  0  0  0
  -24.6609  -31.0835   22.1010 N   0  0  0  0  0  0
  -23.4178  -28.8209   23.3045 O   0  0  0  0  0  0
  -28.4149  -26.7712   19.9977 O   0  0  0  0  0  0
  -26.5599  -34.8947   22.4712 O   0  0  0  0  0  0
  -23.5298  -32.1443   23.7549 O   0  0  0  0  0  0
  -30.3873  -21.5623   21.0881 C   0  0  0  0  0  0
  -31.3532  -22.1762   21.9305 C   0  0  0  0  0  0
  -29.8974  -22.2964   19.9721 C   0  0  0  0  0  0
  -31.8157  -23.4698   21.5942 C   0  0  0  0  0  0
  -30.3954  -23.6094   19.7478 C   0  0  0  0  0  0
  -31.8953  -21.4512   23.1649 C   0  0  0  0  0  0
  -28.8975  -21.6443   19.0137 C   0  0  0  0  0  0
  -34.3107  -23.8571   21.7878 C   0  0  0  0  0  0
  -32.5669  -17.2377   21.2406 C   0  0  0  0  0  0
  -30.1551  -15.1486   22.9376 C   0  0  0  0  0  0
  -29.9623  -20.1069   21.3451 C   0  0  0  0  0  0
  -32.9226  -24.1899   22.3578 C   0  0  0  0  0  0
  -29.9893  -24.4596   18.5363 C   0  0  0  0  0  0
  -30.9767  -19.1155   20.7325 C   0  0  0  0  0  0
  -30.2657  -25.9868   18.6065 C   0  0  0  0  0  0
  -30.0234  -16.7355   21.0349 C   0  0  0  0  0  0
  -29.0042  -26.8536   18.7038 C   0  0  0  0  0  0
  -31.1298  -17.7510   21.4532 C   0  0  1  0  0  0
  -31.3620  -24.1392   20.5216 N   0  0  0  0  0  0
  -30.2095  -15.3378   21.4838 N   0  0  0  0  0  0
  -31.4599  -12.3709   19.1392 H   0  0  0  0  0  0
  -30.2919  -11.2700   19.7968 H   0  0  0  0  0  0
  -29.7425  -11.8180   17.4162 H   0  0  0  0  0  0
  -29.6819  -13.5222   17.7966 H   0  0  0  0  0  0
  -27.8142  -11.3374   18.7747 H   0  0  0  0  0  0
  -27.3783  -12.6925   17.7672 H   0  0  0  0  0  0
  -27.7136  -14.2679   19.6002 H   0  0  0  0  0  0
  -28.6401  -11.9170   21.3179 H   0  0  0  0  0  0
  -28.4029  -13.5455   21.8664 H   0  0  0  0  0  0
  -25.2782   -9.5694   22.4785 H   0  0  0  0  0  0
  -24.0068   -7.4598   22.7452 H   0  0  0  0  0  0
  -21.0871   -8.8779   19.8929 H   0  0  0  0  0  0
  -22.3759  -10.9673   19.6179 H   0  0  0  0  0  0
  -21.1939   -7.6138   23.9768 H   0  0  0  0  0  0
  -21.1517   -6.0490   25.9109 H   0  0  0  0  0  0
  -22.0586   -2.7618   23.2829 H   0  0  0  0  0  0
  -22.4060  -11.9935   22.4835 H   0  0  0  0  0  0
  -21.1027  -13.1244   22.2554 H   0  0  0  0  0  0
  -24.6603  -15.8429   20.5402 H   0  0  0  0  0  0
  -26.2846  -15.6341   20.1141 H   0  0  0  0  0  0
  -26.7077  -32.5562   23.1188 H   0  0  0  0  0  0
  -25.0030  -33.9802   25.0479 H   0  0  0  0  0  0
  -22.6841  -31.3090   21.4139 H   0  0  0  0  0  0
  -23.3763  -35.9628   23.3261 H   0  0  0  0  0  0
  -24.3589  -36.8970   22.2060 H   0  0  0  0  0  0
  -23.7188  -37.6503   23.6673 H   0  0  0  0  0  0
  -26.0280  -31.6024   20.5885 H   0  0  0  0  0  0
  -26.8134  -30.9030   21.9755 H   0  0  0  0  0  0
  -28.0988  -29.1382   21.1572 H   0  0  0  0  0  0
  -26.0883  -25.9780   19.0252 H   0  0  0  0  0  0
  -23.9816  -27.2806   19.0527 H   0  0  0  0  0  0
  -23.7135  -30.5963   19.4082 H   0  0  0  0  0  0
  -22.7294  -29.2402   19.8697 H   0  0  0  0  0  0
  -25.1267  -36.2003   25.0843 H   0  0  0  0  0  0
  -20.9923  -28.3176   24.1483 H   0  0  0  0  0  0
  -20.5614  -26.2240   23.3623 H   0  0  0  0  0  0
  -21.6602  -26.7414   22.1247 H   0  0  0  0  0  0
  -19.6893  -25.6305   21.1221 H   0  0  0  0  0  0
  -19.6706  -27.3213   20.6772 H   0  0  0  0  0  0
  -17.4197  -26.6698   21.3980 H   0  0  0  0  0  0
  -18.0271  -26.0046   22.8981 H   0  0  0  0  0  0
  -19.7913  -30.7222   24.2310 H   0  0  0  0  0  0
  -17.5005  -31.6254   24.5159 H   0  0  0  0  0  0
  -15.5338  -30.2993   23.7652 H   0  0  0  0  0  0
  -15.8629  -28.0848   22.7026 H   0  0  0  0  0  0
  -24.5944  -30.7027   25.7882 H   0  0  0  0  0  0
  -24.8946  -32.2868   26.4945 H   0  0  0  0  0  0
  -25.8156  -30.8923   27.0266 H   0  0  0  0  0  0
  -26.2772  -29.6807   24.1177 H   0  0  0  0  0  0
  -27.4093  -29.7272   25.4498 H   0  0  0  0  0  0
  -27.8588  -30.4347   23.9152 H   0  0  0  0  0  0
  -27.2702  -33.3606   26.2063 H   0  0  0  0  0  0
  -28.3852  -32.6864   25.0267 H   0  0  0  0  0  0
  -28.0752  -31.8416   26.5351 H   0  0  0  0  0  0
  -28.2595  -38.0114   24.7542 H   0  0  0  0  0  0
  -28.1105  -36.2663   24.6213 H   0  0  0  0  0  0
  -27.2343  -37.1347   25.8862 H   0  0  0  0  0  0
  -20.9267  -29.8771   21.7019 H   0  0  0  0  0  0
  -26.0181  -38.2899   24.1471 H   0  0  0  0  0  0
  -32.0418  -20.3865   22.9942 H   0  0  0  0  0  0
  -31.1961  -21.5706   23.9934 H   0  0  0  0  0  0
  -32.8653  -21.8209   23.4897 H   0  0  0  0  0  0
  -29.3560  -20.7791   18.5344 H   0  0  0  0  0  0
  -28.5403  -22.2833   18.2103 H   0  0  0  0  0  0
  -28.0142  -21.3038   19.5536 H   0  0  0  0  0  0
  -35.1060  -24.3417   22.3526 H   0  0  0  0  0  0
  -34.3940  -24.1857   20.7522 H   0  0  0  0  0  0
  -34.4895  -22.7820   21.8089 H   0  0  0  0  0  0
  -33.3029  -17.9721   21.5647 H   0  0  0  0  0  0
  -32.7655  -17.0280   20.1893 H   0  0  0  0  0  0
  -32.7620  -16.3339   21.8179 H   0  0  0  0  0  0
  -29.3261  -15.7042   23.3798 H   0  0  0  0  0  0
  -31.0755  -15.5082   23.3939 H   0  0  0  0  0  0
  -30.0481  -14.1013   23.2262 H   0  0  0  0  0  0
  -28.9621  -19.8976   20.9718 H   0  0  0  0  0  0
  -29.8682  -19.9493   22.4195 H   0  0  0  0  0  0
  -32.8768  -23.9693   23.4227 H   0  0  0  0  0  0
  -32.7584  -25.2672   22.2957 H   0  0  0  0  0  0
  -28.9225  -24.3391   18.3584 H   0  0  0  0  0  0
  -30.4913  -24.0437   17.6613 H   0  0  0  0  0  0
  -31.9482  -19.6118   20.7652 H   0  0  0  0  0  0
  -30.7770  -18.9816   19.6685 H   0  0  0  0  0  0
  -30.7624  -26.2619   17.6745 H   0  0  0  0  0  0
  -30.9744  -26.2779   19.3807 H   0  0  0  0  0  0
  -29.9104  -16.7382   19.9488 H   0  0  0  0  0  0
  -29.0627  -17.0807   21.4217 H   0  0  0  0  0  0
  -28.2965  -26.5680   17.9223 H   0  0  0  0  0  0
  -29.2741  -27.8938   18.5124 H   0  0  0  0  0  0
  -31.0382  -17.9253   22.5263 H   0  0  0  0  0  0
  1 25  1  0  0  0
  1 30  2  0  0  0
  1 90  1  0  0  0
  2  3  1  0  0  0
  2 25  1  0  0  0
  2 91  1  0  0  0
  2 92  1  0  0  0
  3  4  1  0  0  0
  3 93  1  0  0  0
  3 94  1  0  0  0
  4  5  1  0  0  0
  4 95  1  0  0  0
  4 96  1  0  0  0
  5  6  1  0  0  0
  5 26  1  0  0  0
  5 97  1  0  0  0
  6 25  1  0  0  0
  6 98  1  0  0  0
  6 99  1  0  0  0
  7  8  2  0  0  0
  7 26  1  0  0  0
  7 29  1  0  0  0
  8  9  1  0  0  0
  8 22  1  0  0  0
  9 10  1  0  0  0
  9 27  2  0  0  0
 10 11  2  0  0  0
 10 15  1  0  0  0
 11 12  1  0  0  0
 11100  1  0  0  0
 12 13  2  0  0  0
 12101  1  0  0  0
 13 14  1  0  0  0
 13 31  1  0  0  0
 14 15  2  0  0  0
 14102  1  0  0  0
 15103  1  0  0  0
 16 17  2  0  0  0
 16 21  1  0  0  0
 16 31  1  0  0  0
 17 18  1  0  0  0
 17104  1  0  0  0
 18 19  2  0  0  0
 18105  1  0  0  0
 19 20  1  0  0  0
 19 24  1  0  0  0
 20 21  2  0  0  0
 20106  1  0  0  0
 21 23  1  0  0  0
 22 28  1  0  0  0
 22 32  2  0  0  0
 26 27  1  0  0  0
 28107  1  0  0  0
 28108  1  0  0  0
 29109  1  0  0  0
 29110  1  0  0  0
 33 34  1  0  0  0
 33 66  1  0  0  0
 33 70  2  0  0  0
 34 36  1  0  0  0
 34 59  1  0  0  0
 34111  1  0  0  0
 35 44  2  0  0  0
 35 45  1  0  0  0
 35 68  1  0  0  0
 36 56  1  0  0  0
 36112  1  0  0  0
 37 39  1  0  0  0
 37 47  1  0  0  0
 37 66  1  0  0  0
 37113  1  0  0  0
 38 43  2  0  0  0
 38 46  1  0  0  0
 38 47  1  0  0  0
 39 64  1  0  0  0
 39 67  2  0  0  0
 40 52  1  0  0  0
 40 53  2  0  0  0
 40 58  1  0  0  0
 41114  1  0  0  0
 41115  1  0  0  0
 41116  1  0  0  0
 41 48  1  0  0  0
 42 43  1  0  0  0
 42 66  1  0  0  0
 42117  1  0  0  0
 42118  1  0  0  0
 43 44  1  0  0  0
 44119  1  0  0  0
 45 46  2  0  0  0
 45120  1  0  0  0
 46121  1  0  0  0
 47122  1  0  0  0
 47123  1  0  0  0
 48 56  1  0  0  0
 48 65  1  0  0  0
 48124  1  0  0  0
 49 50  1  0  0  0
 49 53  1  0  0  0
 49 64  1  0  0  0
 49125  1  0  0  0
 50 51  1  0  0  0
 50126  1  0  0  0
 50127  1  0  0  0
 51 52  1  0  0  0
 51128  1  0  0  0
 51129  1  0  0  0
 52130  1  0  0  0
 52131  1  0  0  0
 53 54  1  0  0  0
 54 55  2  0  0  0
 54132  1  0  0  0
 55 57  1  0  0  0
 55133  1  0  0  0
 56 69  2  0  0  0
 57 58  2  0  0  0
 57134  1  0  0  0
 58135  1  0  0  0
 59 60  1  0  0  0
 59 61  1  0  0  0
 59 62  1  0  0  0
 60136  1  0  0  0
 60137  1  0  0  0
 60138  1  0  0  0
 61139  1  0  0  0
 61140  1  0  0  0
 61141  1  0  0  0
 62142  1  0  0  0
 62143  1  0  0  0
 62144  1  0  0  0
 63 65  1  0  0  0
 63145  1  0  0  0
 63146  1  0  0  0
 63147  1  0  0  0
 64148  1  0  0  0
 65149  1  0  0  0
 68 87  1  0  0  0
 71 72  2  0  0  0
 71 73  1  0  0  0
 71 81  1  0  0  0
 72 74  1  0  0  0
 72 76  1  0  0  0
 73 75  2  0  0  0
 73 77  1  0  0  0
 74 82  1  0  0  0
 74 89  2  0  0  0
 75 83  1  0  0  0
 75 89  1  0  0  0
 76150  1  0  0  0
 76151  1  0  0  0
 76152  1  0  0  0
 77153  1  0  0  0
 77154  1  0  0  0
 77155  1  0  0  0
 78 82  1  0  0  0
 78156  1  0  0  0
 78157  1  0  0  0
 78158  1  0  0  0
 79159  1  0  0  0
 79160  1  0  0  0
 79161  1  0  0  0
 79 88  1  0  0  0
 80 90  1  0  0  0
 80162  1  0  0  0
 80163  1  0  0  0
 80164  1  0  0  0
 81 84  1  0  0  0
 81165  1  0  0  0
 81166  1  0  0  0
 82167  1  0  0  0
 82168  1  0  0  0
 83 85  1  0  0  0
 83169  1  0  0  0
 83170  1  0  0  0
 84 88  1  0  0  0
 84171  1  0  0  0
 84172  1  0  0  0
 85 87  1  0  0  0
 85173  1  0  0  0
 85174  1  0  0  0
 86 88  1  0  0  0
 86 90  1  0  0  0
 86175  1  0  0  0
 86176  1  0  0  0
 87177  1  0  0  0
 87178  1  0  0  0
 88179  1  0  0  0
M  ISO  4   1 100  68 101  87 101  90 100
M  END
> <chiral flag>
0

> <version>
0

> <s_m_source_file>
/data/baiqing/PycharmProjects/Reinvent-master-3.2/result/LINK_invent/BTK/process_docking_weight1_custom_sum_contain_oxygen_bond_distance_aromatic_linkinvent_7_9_3/rearranged_h_0096.sdf

> <i_m_source_file_index>
55

> <r_mmod_Potential_Energy-OPLS-2005>
-54.799560546875

> <r_mmod_Stretch_Energy-OPLS-2005>
41.9651489257812

> <r_mmod_Bend_Energy-OPLS-2005>
108.733489990234

> <r_mmod_Torsional_Energy-OPLS-2005>
327.976684570312

> <r_mmod_Improper_Torsional_Energy-OPLS-2005>
5.27729845046997

> <r_mmod_Van_der_Waal_Energy-OPLS-2005>
171.722900390625

> <r_mmod_Electrostatic_Energy-OPLS-2005>
-512.032653808594

> <r_mmod_Solvation_Energy-OPLS-2005>
-205.818130493164

> <b_mmod_Minimization_Converged-OPLS-2005>
0

> <r_mmod_RMS_Derivative-OPLS-2005>
3.65936493873596

$$$$
55
                    3D
 Structure written by MMmdl.
172180  0  0  1  0            999 V2000
  -30.6735  -14.5523   20.5727 C   0  0  0  0  0  0
  -30.4480  -12.3641   19.4358 C   0  0  0  0  0  0
  -29.5082  -12.4948   18.2188 C   0  0  0  0  0  0
  -28.0347  -12.3292   18.6348 C   0  0  0  0  0  0
  -27.6591  -13.1965   19.8645 C   0  0  2  0  0  0
  -28.7030  -13.0181   20.9926 C   0  0  0  0  0  0
  -25.2618  -13.8140   20.5664 C   0  0  0  0  0  0
  -24.1862  -13.0456   20.9200 C   0  0  0  0  0  0
  -24.6386  -11.6912   20.8752 C   0  0  0  0  0  0
  -23.9049  -10.4309   21.0405 C   0  0  0  0  0  0
  -24.3624   -9.4225   21.9165 C   0  0  0  0  0  0
  -23.6297   -8.2250   22.0734 C   0  0  0  0  0  0
  -22.4276   -8.0275   21.3527 C   0  0  0  0  0  0
  -21.9897   -9.0262   20.4654 C   0  0  0  0  0  0
  -22.7219  -10.2160   20.3057 C   0  0  0  0  0  0
  -21.6853   -6.0735   22.5264 C   0  0  0  0  0  0
  -21.4012   -6.5636   23.8202 C   0  0  0  0  0  0
  -21.3658   -5.6787   24.9163 C   0  0  0  0  0  0
  -21.6030   -4.3042   24.7225 C   0  0  0  0  0  0
  -21.8819   -3.8152   23.4348 C   0  0  0  0  0  0
  -21.9208   -4.6958   22.3402 C   0  0  0  0  0  0
  -22.7887  -13.5268   21.1816 C   0  0  0  0  0  0
  -22.1659   -4.2150   21.0971 F   0  0  0  0  0  0
  -21.5630   -3.4523   25.7726 F   0  0  0  0  0  0
  -30.0322  -13.3503   20.4485 N   0  0  0  0  0  0
  -26.3007  -12.9271   20.3297 N   0  0  0  0  0  0
  -25.9294  -11.6453   20.5752 N   0  0  0  0  0  0
  -22.0501  -12.8331   22.0412 N   0  0  0  0  0  0
  -25.4370  -15.1841   20.4060 N   0  0  0  0  0  0
  -31.7881  -14.7642   20.0912 O   0  0  0  0  0  0
  -21.6615   -6.8875   21.4226 O   0  0  0  0  0  0
  -22.3581  -14.5539   20.6600 O   0  0  0  0  0  0
  -24.6072  -31.8694   23.2092 C   0  0  0  0  0  0
  -25.8946  -32.4835   23.8412 C   0  0  1  0  0  0
  -27.2292  -27.4130   20.0858 C   0  0  0  0  0  0
  -25.5811  -33.8641   24.2308 N   0  0  0  0  0  0
  -23.3993  -30.4832   21.5545 C   0  0  2  0  0  0
  -24.8469  -28.9491   20.1180 C   0  0  0  0  0  0
  -22.7395  -29.4587   22.5049 C   0  0  0  0  0  0
  -18.0248  -28.1332   22.8502 C   0  0  0  0  0  0
  -24.1499  -36.7313   23.2646 C   0  0  0  0  0  0
  -25.9331  -30.8143   21.3811 C   0  0  0  0  0  0
  -26.0062  -29.4509   20.7192 C   0  0  0  0  0  0
  -27.1948  -28.6860   20.7049 C   0  0  0  0  0  0
  -26.0448  -26.9246   19.4856 C   0  0  0  0  0  0
  -24.8618  -27.6877   19.5022 C   0  0  0  0  0  0
  -23.6069  -29.8110   20.1710 C   0  0  0  0  0  0
  -25.4130  -36.3122   24.0334 C   0  0  1  0  0  0
  -20.5831  -28.3593   23.1359 C   0  0  2  0  0  0
  -20.6709  -26.9335   22.5446 C   0  0  0  0  0  0
  -19.5711  -26.6352   21.5210 C   0  0  0  0  0  0
  -18.1882  -26.7891   22.1599 C   0  0  0  0  0  0
  -19.1495  -28.8790   23.2917 C   0  0  0  0  0  0
  -18.9423  -30.1391   23.8930 C   0  0  0  0  0  0
  -17.6424  -30.6560   24.0538 C   0  0  0  0  0  0
  -25.9040  -34.9477   23.5146 C   0  0  0  0  0  0
  -16.5317  -29.9055   23.6312 C   0  0  0  0  0  0
  -16.7223  -28.6449   23.0383 C   0  0  0  0  0  0
  -26.4387  -31.6637   25.0754 C   0  0  0  0  0  0
  -25.3631  -31.3789   26.1499 C   0  0  0  0  0  0
  -27.0144  -30.3027   24.6186 C   0  0  0  0  0  0
  -27.6003  -32.4368   25.7450 C   0  0  0  0  0  0
  -27.5614  -37.1799   24.8443 C   0  0  0  0  0  0
  -21.4119  -29.2971   22.3799 N   0  0  0  0  0  0
  -26.4321  -37.3793   23.9397 N   0  0  0  0  0  0
  -24.6636  -31.0721   22.1048 N   0  0  0  0  0  0
  -23.4173  -28.8125   23.3083 O   0  0  0  0  0  0
  -28.4231  -26.7121   20.1076 O   0  0  0  0  0  0
  -26.5623  -34.8902   22.4713 O   0  0  0  0  0  0
  -23.5246  -32.1485   23.7461 O   0  0  0  0  0  0
  -28.2104  -21.1714   21.1099 C   0  0  0  0  0  0
  -28.3098  -19.7586   21.2013 C   0  0  0  0  0  0
  -29.0938  -21.6011   20.1606 C   0  0  0  0  0  0
  -29.2569  -19.3150   20.3188 C   0  0  0  0  0  0
  -26.7576  -16.8583   17.3735 C   0  0  0  0  0  0
  -30.5864  -20.3369   17.3466 C   0  0  0  0  0  0
  -32.1913  -19.7210   19.2686 C   0  0  0  0  0  0
  -29.2661  -22.9908   19.5611 C   0  0  0  0  0  0
  -27.7051  -17.8081   18.1271 C   0  0  0  0  0  0
  -28.6030  -24.2070   20.2713 C   0  0  0  0  0  0
  -28.3746  -17.1239   19.3334 C   0  0  0  0  0  0
  -30.1927  -17.0163   21.1597 C   0  0  0  0  0  0
  -28.6019  -25.4802   19.3792 C   0  0  0  0  0  0
  -29.5816  -17.8528   19.9710 C   0  0  2  0  0  0
  -30.9758  -20.5512   18.8161 C   0  0  0  0  0  0
  -29.8280  -20.4725   19.7406 N   0  0  0  0  0  0
  -29.9445  -15.5447   21.1272 N   0  0  0  0  0  0
  -31.4775  -12.5131   19.1126 H   0  0  0  0  0  0
  -30.4067  -11.3577   19.8521 H   0  0  0  0  0  0
  -29.7794  -11.7479   17.4709 H   0  0  0  0  0  0
  -29.6469  -13.4681   17.7486 H   0  0  0  0  0  0
  -27.8878  -11.2749   18.8725 H   0  0  0  0  0  0
  -27.3787  -12.5445   17.7894 H   0  0  0  0  0  0
  -27.6920  -14.2335   19.5382 H   0  0  0  0  0  0
  -28.7027  -11.9854   21.3473 H   0  0  0  0  0  0
  -28.4424  -13.6295   21.8588 H   0  0  0  0  0  0
  -25.2766   -9.5702   22.4735 H   0  0  0  0  0  0
  -24.0004   -7.4646   22.7453 H   0  0  0  0  0  0
  -21.0799   -8.8780   19.8999 H   0  0  0  0  0  0
  -22.3624  -10.9693   19.6186 H   0  0  0  0  0  0
  -21.1955   -7.6142   23.9715 H   0  0  0  0  0  0
  -21.1484   -6.0505   25.9076 H   0  0  0  0  0  0
  -22.0607   -2.7605   23.2837 H   0  0  0  0  0  0
  -22.4051  -12.0024   22.4904 H   0  0  0  0  0  0
  -21.1122  -13.1424   22.2537 H   0  0  0  0  0  0
  -24.6722  -15.8452   20.4860 H   0  0  0  0  0  0
  -26.2663  -15.5962   20.0020 H   0  0  0  0  0  0
  -26.6986  -32.5504   23.1147 H   0  0  0  0  0  0
  -24.9886  -33.9862   25.0393 H   0  0  0  0  0  0
  -22.6858  -31.2977   21.4132 H   0  0  0  0  0  0
  -23.3786  -35.9623   23.3312 H   0  0  0  0  0  0
  -24.3598  -36.8928   22.2063 H   0  0  0  0  0  0
  -23.7226  -37.6498   23.6676 H   0  0  0  0  0  0
  -26.0760  -31.5892   20.6267 H   0  0  0  0  0  0
  -26.8082  -30.8476   22.0196 H   0  0  0  0  0  0
  -28.0915  -29.0658   21.1749 H   0  0  0  0  0  0
  -25.9913  -25.9593   19.0049 H   0  0  0  0  0  0
  -23.9655  -27.3024   19.0357 H   0  0  0  0  0  0
  -23.6988  -30.5798   19.4026 H   0  0  0  0  0  0
  -22.7380  -29.2151   19.8902 H   0  0  0  0  0  0
  -25.1327  -36.2010   25.0833 H   0  0  0  0  0  0
  -20.9895  -28.3108   24.1485 H   0  0  0  0  0  0
  -20.5545  -26.2195   23.3614 H   0  0  0  0  0  0
  -21.6584  -26.7347   22.1269 H   0  0  0  0  0  0
  -19.6867  -25.6277   21.1203 H   0  0  0  0  0  0
  -19.6668  -27.3182   20.6757 H   0  0  0  0  0  0
  -17.4168  -26.6679   21.3971 H   0  0  0  0  0  0
  -18.0236  -26.0013   22.8959 H   0  0  0  0  0  0
  -19.7902  -30.7179   24.2336 H   0  0  0  0  0  0
  -17.4985  -31.6256   24.5110 H   0  0  0  0  0  0
  -15.5310  -30.2970   23.7625 H   0  0  0  0  0  0
  -15.8609  -28.0741   22.7163 H   0  0  0  0  0  0
  -24.5918  -30.6972   25.7883 H   0  0  0  0  0  0
  -24.8656  -32.2932   26.4755 H   0  0  0  0  0  0
  -25.7977  -30.9171   27.0373 H   0  0  0  0  0  0
  -26.2665  -29.6909   24.1118 H   0  0  0  0  0  0
  -27.3674  -29.7178   25.4690 H   0  0  0  0  0  0
  -27.8649  -30.4264   23.9475 H   0  0  0  0  0  0
  -27.2635  -33.3639   26.2110 H   0  0  0  0  0  0
  -28.3709  -32.6999   25.0187 H   0  0  0  0  0  0
  -28.0795  -31.8461   26.5272 H   0  0  0  0  0  0
  -28.2647  -38.0081   24.7472 H   0  0  0  0  0  0
  -28.1093  -36.2612   24.6287 H   0  0  0  0  0  0
  -27.2338  -37.1467   25.8846 H   0  0  0  0  0  0
  -20.9282  -29.8727   21.7057 H   0  0  0  0  0  0
  -26.0232  -38.2877   24.1398 H   0  0  0  0  0  0
  -27.5145  -21.8010   21.6464 H   0  0  0  0  0  0
  -27.6954  -19.1193   21.8199 H   0  0  0  0  0  0
  -26.1692  -17.4008   16.6327 H   0  0  0  0  0  0
  -26.0580  -16.3602   18.0422 H   0  0  0  0  0  0
  -27.3215  -16.0840   16.8465 H   0  0  0  0  0  0
  -31.4415  -20.5048   16.6907 H   0  0  0  0  0  0
  -29.8078  -21.0370   17.0362 H   0  0  0  0  0  0
  -30.2330  -19.3251   17.1750 H   0  0  0  0  0  0
  -33.1152  -20.1919   18.9338 H   0  0  0  0  0  0
  -32.1954  -18.7146   18.8554 H   0  0  0  0  0  0
  -32.2418  -19.6479   20.3561 H   0  0  0  0  0  0
  -28.8831  -22.9395   18.5428 H   0  0  0  0  0  0
  -30.3198  -23.2439   19.4618 H   0  0  0  0  0  0
  -27.1748  -18.7000   18.4617 H   0  0  0  0  0  0
  -28.4576  -18.1536   17.4231 H   0  0  0  0  0  0
  -29.1480  -24.4089   21.1956 H   0  0  0  0  0  0
  -27.5763  -23.9814   20.5581 H   0  0  0  0  0  0
  -28.7156  -16.1483   18.9926 H   0  0  0  0  0  0
  -27.6190  -16.9490   20.0998 H   0  0  0  0  0  0
  -29.7536  -17.3716   22.0944 H   0  0  0  0  0  0
  -31.2599  -17.2213   21.2524 H   0  0  0  0  0  0
  -27.9212  -25.3554   18.5393 H   0  0  0  0  0  0
  -29.5820  -25.5733   18.9078 H   0  0  0  0  0  0
  -30.3220  -17.8379   19.1791 H   0  0  0  0  0  0
  -31.3539  -21.5671   18.8735 H   0  0  0  0  0  0
  -29.0659  -15.2482   21.5239 H   0  0  0  0  0  0
  1 25  1  0  0  0
  1 30  2  0  0  0
  1 87  1  0  0  0
  2  3  1  0  0  0
  2 25  1  0  0  0
  2 88  1  0  0  0
  2 89  1  0  0  0
  3  4  1  0  0  0
  3 90  1  0  0  0
  3 91  1  0  0  0
  4  5  1  0  0  0
  4 92  1  0  0  0
  4 93  1  0  0  0
  5  6  1  0  0  0
  5 26  1  0  0  0
  5 94  1  0  0  0
  6 25  1  0  0  0
  6 95  1  0  0  0
  6 96  1  0  0  0
  7  8  2  0  0  0
  7 26  1  0  0  0
  7 29  1  0  0  0
  8  9  1  0  0  0
  8 22  1  0  0  0
  9 10  1  0  0  0
  9 27  2  0  0  0
 10 11  2  0  0  0
 10 15  1  0  0  0
 11 12  1  0  0  0
 11 97  1  0  0  0
 12 13  2  0  0  0
 12 98  1  0  0  0
 13 14  1  0  0  0
 13 31  1  0  0  0
 14 15  2  0  0  0
 14 99  1  0  0  0
 15100  1  0  0  0
 16 17  2  0  0  0
 16 21  1  0  0  0
 16 31  1  0  0  0
 17 18  1  0  0  0
 17101  1  0  0  0
 18 19  2  0  0  0
 18102  1  0  0  0
 19 20  1  0  0  0
 19 24  1  0  0  0
 20 21  2  0  0  0
 20103  1  0  0  0
 21 23  1  0  0  0
 22 28  1  0  0  0
 22 32  2  0  0  0
 26 27  1  0  0  0
 28104  1  0  0  0
 28105  1  0  0  0
 29106  1  0  0  0
 29107  1  0  0  0
 33 34  1  0  0  0
 33 66  1  0  0  0
 33 70  2  0  0  0
 34 36  1  0  0  0
 34 59  1  0  0  0
 34108  1  0  0  0
 35 44  2  0  0  0
 35 45  1  0  0  0
 35 68  1  0  0  0
 36 56  1  0  0  0
 36109  1  0  0  0
 37 39  1  0  0  0
 37 47  1  0  0  0
 37 66  1  0  0  0
 37110  1  0  0  0
 38 43  2  0  0  0
 38 46  1  0  0  0
 38 47  1  0  0  0
 39 64  1  0  0  0
 39 67  2  0  0  0
 40 52  1  0  0  0
 40 53  2  0  0  0
 40 58  1  0  0  0
 41111  1  0  0  0
 41112  1  0  0  0
 41113  1  0  0  0
 41 48  1  0  0  0
 42 43  1  0  0  0
 42 66  1  0  0  0
 42114  1  0  0  0
 42115  1  0  0  0
 43 44  1  0  0  0
 44116  1  0  0  0
 45 46  2  0  0  0
 45117  1  0  0  0
 46118  1  0  0  0
 47119  1  0  0  0
 47120  1  0  0  0
 48 56  1  0  0  0
 48 65  1  0  0  0
 48121  1  0  0  0
 49 50  1  0  0  0
 49 53  1  0  0  0
 49 64  1  0  0  0
 49122  1  0  0  0
 50 51  1  0  0  0
 50123  1  0  0  0
 50124  1  0  0  0
 51 52  1  0  0  0
 51125  1  0  0  0
 51126  1  0  0  0
 52127  1  0  0  0
 52128  1  0  0  0
 53 54  1  0  0  0
 54 55  2  0  0  0
 54129  1  0  0  0
 55 57  1  0  0  0
 55130  1  0  0  0
 56 69  2  0  0  0
 57 58  2  0  0  0
 57131  1  0  0  0
 58132  1  0  0  0
 59 60  1  0  0  0
 59 61  1  0  0  0
 59 62  1  0  0  0
 60133  1  0  0  0
 60134  1  0  0  0
 60135  1  0  0  0
 61136  1  0  0  0
 61137  1  0  0  0
 61138  1  0  0  0
 62139  1  0  0  0
 62140  1  0  0  0
 62141  1  0  0  0
 63 65  1  0  0  0
 63142  1  0  0  0
 63143  1  0  0  0
 63144  1  0  0  0
 64145  1  0  0  0
 65146  1  0  0  0
 68 83  1  0  0  0
 71 72  1  0  0  0
 71 73  2  0  0  0
 71147  1  0  0  0
 72 74  2  0  0  0
 72148  1  0  0  0
 73 78  1  0  0  0
 73 86  1  0  0  0
 74 84  1  0  0  0
 74 86  1  0  0  0
 75 79  1  0  0  0
 75149  1  0  0  0
 75150  1  0  0  0
 75151  1  0  0  0
 76152  1  0  0  0
 76153  1  0  0  0
 76154  1  0  0  0
 76 85  1  0  0  0
 77 85  1  0  0  0
 77155  1  0  0  0
 77156  1  0  0  0
 77157  1  0  0  0
 78 80  1  0  0  0
 78158  1  0  0  0
 78159  1  0  0  0
 79 81  1  0  0  0
 79160  1  0  0  0
 79161  1  0  0  0
 80 83  1  0  0  0
 80162  1  0  0  0
 80163  1  0  0  0
 81164  1  0  0  0
 81165  1  0  0  0
 81 84  1  0  0  0
 82 84  1  0  0  0
 82 87  1  0  0  0
 82166  1  0  0  0
 82167  1  0  0  0
 83168  1  0  0  0
 83169  1  0  0  0
 84170  1  0  0  0
 85 86  1  0  0  0
 85171  1  0  0  0
 87172  1  0  0  0
M  ISO  4   1 100  68 101  83 101  87 100
M  END
> <chiral flag>
0

> <version>
0

> <s_m_source_file>
/data/baiqing/PycharmProjects/Reinvent-master-3.2/result/LINK_invent/BTK/process_docking_weight1_custom_sum_contain_oxygen_bond_distance_aromatic_linkinvent_7_9_3/rearranged_h_0096.sdf

> <i_m_source_file_index>
56

> <r_mmod_Potential_Energy-OPLS-2005>
-45.1387214660645

> <r_mmod_Stretch_Energy-OPLS-2005>
50.4593276977539

> <r_mmod_Bend_Energy-OPLS-2005>
131.500671386719

> <r_mmod_Torsional_Energy-OPLS-2005>
250.793014526367

> <r_mmod_Improper_Torsional_Energy-OPLS-2005>
4.08187389373779

> <r_mmod_Van_der_Waal_Energy-OPLS-2005>
120.681129455566

> <r_mmod_Electrostatic_Energy-OPLS-2005>
-428.675262451172

> <r_mmod_Solvation_Energy-OPLS-2005>
-195.408813476562

> <b_mmod_Minimization_Converged-OPLS-2005>
0

> <r_mmod_RMS_Derivative-OPLS-2005>
5.40340137481689

$$$$
56
                    3D
 Structure written by MMmdl.
154162  0  0  1  0            999 V2000
  -30.5092  -15.0331   20.4821 C   0  0  0  0  0  0
  -30.4346  -12.6439   19.5611 C   0  0  0  0  0  0
  -29.5392  -12.5534   18.3004 C   0  0  0  0  0  0
  -28.0759  -12.3082   18.7008 C   0  0  0  0  0  0
  -27.6238  -13.2527   19.8410 C   0  0  2  0  0  0
  -28.6475  -13.3223   20.9960 C   0  0  0  0  0  0
  -25.2427  -13.8209   20.5671 C   0  0  0  0  0  0
  -24.1747  -13.0429   20.9191 C   0  0  0  0  0  0
  -24.6349  -11.6919   20.8708 C   0  0  0  0  0  0
  -23.9021  -10.4275   21.0355 C   0  0  0  0  0  0
  -24.3590   -9.4226   21.9154 C   0  0  0  0  0  0
  -23.6276   -8.2266   22.0741 C   0  0  0  0  0  0
  -22.4264   -8.0256   21.3534 C   0  0  0  0  0  0
  -21.9874   -9.0204   20.4639 C   0  0  0  0  0  0
  -22.7169  -10.2096   20.3029 C   0  0  0  0  0  0
  -21.6858   -6.0701   22.5265 C   0  0  0  0  0  0
  -21.4013   -6.5615   23.8194 C   0  0  0  0  0  0
  -21.3681   -5.6784   24.9169 C   0  0  0  0  0  0
  -21.6085   -4.3041   24.7222 C   0  0  0  0  0  0
  -21.8815   -3.8117   23.4343 C   0  0  0  0  0  0
  -21.9210   -4.6944   22.3393 C   0  0  0  0  0  0
  -22.7782  -13.5225   21.1870 C   0  0  0  0  0  0
  -22.1667   -4.2133   21.0971 F   0  0  0  0  0  0
  -21.5652   -3.4529   25.7731 F   0  0  0  0  0  0
  -29.9236  -13.7581   20.4257 N   0  0  0  0  0  0
  -26.2844  -12.9445   20.3217 N   0  0  0  0  0  0
  -25.9283  -11.6560   20.5661 N   0  0  0  0  0  0
  -22.0452  -12.8215   22.0451 N   0  0  0  0  0  0
  -25.4083  -15.1927   20.4019 N   0  0  0  0  0  0
  -31.6975  -15.0852   20.1402 O   0  0  0  0  0  0
  -21.6659   -6.8834   21.4215 O   0  0  0  0  0  0
  -22.3483  -14.5524   20.6701 O   0  0  0  0  0  0
  -24.6383  -31.8450   23.1877 C   0  0  0  0  0  0
  -25.9156  -32.4712   23.8289 C   0  0  1  0  0  0
  -27.2022  -27.0939   20.2231 C   0  0  0  0  0  0
  -25.5942  -33.8520   24.2221 N   0  0  0  0  0  0
  -23.4461  -30.4595   21.5335 C   0  0  2  0  0  0
  -24.9027  -28.8785   20.1175 C   0  0  0  0  0  0
  -22.7582  -29.4508   22.4874 C   0  0  0  0  0  0
  -18.0302  -28.1373   22.8493 C   0  0  0  0  0  0
  -24.1480  -36.7234   23.2642 C   0  0  0  0  0  0
  -26.0017  -30.7107   21.3910 C   0  0  0  0  0  0
  -26.0746  -29.3102   20.7524 C   0  0  0  0  0  0
  -27.2271  -28.4385   20.7805 C   0  0  0  0  0  0
  -26.0243  -26.7771   19.5164 C   0  0  0  0  0  0
  -24.8944  -27.6316   19.4719 C   0  0  0  0  0  0
  -23.6786  -29.7846   20.1550 C   0  0  0  0  0  0
  -25.4122  -36.3043   24.0322 C   0  0  1  0  0  0
  -20.5925  -28.3669   23.1257 C   0  0  2  0  0  0
  -20.6802  -26.9378   22.5394 C   0  0  0  0  0  0
  -19.5774  -26.6367   21.5203 C   0  0  0  0  0  0
  -18.1942  -26.7910   22.1596 C   0  0  0  0  0  0
  -19.1572  -28.8834   23.2871 C   0  0  0  0  0  0
  -18.9462  -30.1441   23.8892 C   0  0  0  0  0  0
  -17.6463  -30.6572   24.0527 C   0  0  0  0  0  0
  -25.9062  -34.9421   23.5069 C   0  0  0  0  0  0
  -16.5356  -29.9045   23.6333 C   0  0  0  0  0  0
  -16.7280  -28.6445   23.0376 C   0  0  0  0  0  0
  -26.4556  -31.6565   25.0680 C   0  0  0  0  0  0
  -25.3754  -31.3715   26.1350 C   0  0  0  0  0  0
  -27.0468  -30.2996   24.6208 C   0  0  0  0  0  0
  -27.6152  -32.4311   25.7433 C   0  0  0  0  0  0
  -27.5593  -37.1741   24.8487 C   0  0  0  0  0  0
  -21.4270  -29.3010   22.3651 N   0  0  0  0  0  0
  -26.4292  -37.3752   23.9439 N   0  0  0  0  0  0
  -24.7164  -31.0280   22.0935 N   0  0  0  0  0  0
  -23.4238  -28.8069   23.3007 O   0  0  0  0  0  0
  -28.2781  -26.1301   20.2255 O   0  0  0  0  0  0
  -26.5643  -34.8896   22.4636 O   0  0  0  0  0  0
  -23.5476  -32.1367   23.7057 O   0  0  0  0  0  0
  -28.8589  -20.3435   20.0837 C   0  0  0  0  0  0
  -29.2425  -21.2680   22.0057 C   0  0  0  0  0  0
  -28.7272  -21.6567   20.7883 C   0  0  0  0  0  0
  -29.4649  -19.2616   20.7908 C   0  0  0  0  0  0
  -26.5674  -22.9612   20.2220 C   0  0  0  0  0  0
  -30.4661  -19.3689   23.1272 C   0  0  0  0  0  0
  -30.1089  -17.7692   20.3595 C   0  0  0  0  0  0
  -28.3188  -24.7097   20.9060 C   0  0  0  0  0  0
  -28.0916  -23.1421   20.2772 C   0  0  1  0  0  0
  -29.7273  -19.9293   22.0042 N   0  0  0  0  0  0
  -29.7661  -16.2439   20.7262 N   0  0  0  0  0  0
  -31.4692  -12.8107   19.2653 H   0  0  0  0  0  0
  -30.4262  -11.6939   20.1025 H   0  0  0  0  0  0
  -29.8875  -11.7566   17.6436 H   0  0  0  0  0  0
  -29.6091  -13.4763   17.7243 H   0  0  0  0  0  0
  -27.9900  -11.2683   19.0213 H   0  0  0  0  0  0
  -27.4245  -12.4204   17.8332 H   0  0  0  0  0  0
  -27.5697  -14.2404   19.3861 H   0  0  0  0  0  0
  -28.7460  -12.3592   21.4930 H   0  0  0  0  0  0
  -28.3145  -14.0295   21.7567 H   0  0  0  0  0  0
  -25.2717   -9.5764   22.4736 H   0  0  0  0  0  0
  -24.0015   -7.4683   22.7453 H   0  0  0  0  0  0
  -21.0826   -8.8661   19.8932 H   0  0  0  0  0  0
  -22.3559  -10.9619   19.6157 H   0  0  0  0  0  0
  -21.1949   -7.6113   23.9691 H   0  0  0  0  0  0
  -21.1524   -6.0507   25.9084 H   0  0  0  0  0  0
  -22.0570   -2.7574   23.2842 H   0  0  0  0  0  0
  -22.4027  -11.9866   22.4860 H   0  0  0  0  0  0
  -21.1063  -13.1211   22.2589 H   0  0  0  0  0  0
  -24.6368  -15.8429   20.4989 H   0  0  0  0  0  0
  -26.2539  -15.6312   20.0594 H   0  0  0  0  0  0
  -26.7179  -32.5360   23.0993 H   0  0  0  0  0  0
  -25.0212  -33.9689   25.0438 H   0  0  0  0  0  0
  -22.7405  -31.2769   21.3765 H   0  0  0  0  0  0
  -23.3801  -35.9511   23.3272 H   0  0  0  0  0  0
  -24.3591  -36.8876   22.2074 H   0  0  0  0  0  0
  -23.7120  -37.6371   23.6679 H   0  0  0  0  0  0
  -26.1454  -31.4543   20.6063 H   0  0  0  0  0  0
  -26.8781  -30.7875   22.0204 H   0  0  0  0  0  0
  -28.1295  -28.7702   21.2728 H   0  0  0  0  0  0
  -25.9733  -25.8394   18.9831 H   0  0  0  0  0  0
  -24.0103  -27.3189   18.9348 H   0  0  0  0  0  0
  -23.8116  -30.5586   19.3989 H   0  0  0  0  0  0
  -22.7914  -29.2272   19.8540 H   0  0  0  0  0  0
  -25.1279  -36.1925   25.0809 H   0  0  0  0  0  0
  -21.0022  -28.3223   24.1371 H   0  0  0  0  0  0
  -20.5681  -26.2280   23.3595 H   0  0  0  0  0  0
  -21.6662  -26.7342   22.1182 H   0  0  0  0  0  0
  -19.6943  -25.6276   21.1226 H   0  0  0  0  0  0
  -19.6729  -27.3186   20.6741 H   0  0  0  0  0  0
  -17.4220  -26.6668   21.3993 H   0  0  0  0  0  0
  -18.0300  -26.0046   22.8967 H   0  0  0  0  0  0
  -19.7946  -30.7270   24.2261 H   0  0  0  0  0  0
  -17.4986  -31.6259   24.5109 H   0  0  0  0  0  0
  -15.5347  -30.2914   23.7660 H   0  0  0  0  0  0
  -15.8675  -28.0721   22.7139 H   0  0  0  0  0  0
  -24.5920  -30.7119   25.7571 H   0  0  0  0  0  0
  -24.8961  -32.2897   26.4768 H   0  0  0  0  0  0
  -25.7971  -30.8813   27.0125 H   0  0  0  0  0  0
  -26.3093  -29.6668   24.1243 H   0  0  0  0  0  0
  -27.4222  -29.7298   25.4716 H   0  0  0  0  0  0
  -27.8921  -30.4316   23.9449 H   0  0  0  0  0  0
  -27.2841  -33.3642   26.2003 H   0  0  0  0  0  0
  -28.3956  -32.6808   25.0231 H   0  0  0  0  0  0
  -28.0862  -31.8441   26.5329 H   0  0  0  0  0  0
  -28.2561  -38.0084   24.7580 H   0  0  0  0  0  0
  -28.1113  -36.2600   24.6245 H   0  0  0  0  0  0
  -27.2322  -37.1305   25.8889 H   0  0  0  0  0  0
  -20.9467  -29.8715   21.6836 H   0  0  0  0  0  0
  -26.0185  -38.2805   24.1520 H   0  0  0  0  0  0
  -28.5559  -20.2348   19.0520 H   0  0  0  0  0  0
  -29.3459  -21.8638   22.9055 H   0  0  0  0  0  0
  -26.2949  -22.0706   19.6589 H   0  0  0  0  0  0
  -26.0770  -23.8122   19.7546 H   0  0  0  0  0  0
  -26.1511  -22.8593   21.2251 H   0  0  0  0  0  0
  -30.6584  -20.1373   23.8805 H   0  0  0  0  0  0
  -31.4331  -19.0018   22.7814 H   0  0  0  0  0  0
  -29.9112  -18.5575   23.5987 H   0  0  0  0  0  0
  -31.1809  -17.8523   20.5526 H   0  0  0  0  0  0
  -30.0546  -17.7608   19.2704 H   0  0  0  0  0  0
  -29.3503  -24.6692   21.2546 H   0  0  0  0  0  0
  -27.7433  -24.7964   21.8297 H   0  0  0  0  0  0
  -28.4375  -23.2216   19.2498 H   0  0  0  0  0  0
  -28.8153  -16.0861   21.0269 H   0  0  0  0  0  0
  1 25  1  0  0  0
  1 30  2  0  0  0
  1 81  1  0  0  0
  2  3  1  0  0  0
  2 25  1  0  0  0
  2 82  1  0  0  0
  2 83  1  0  0  0
  3  4  1  0  0  0
  3 84  1  0  0  0
  3 85  1  0  0  0
  4  5  1  0  0  0
  4 86  1  0  0  0
  4 87  1  0  0  0
  5  6  1  0  0  0
  5 26  1  0  0  0
  5 88  1  0  0  0
  6 25  1  0  0  0
  6 89  1  0  0  0
  6 90  1  0  0  0
  7  8  2  0  0  0
  7 26  1  0  0  0
  7 29  1  0  0  0
  8  9  1  0  0  0
  8 22  1  0  0  0
  9 10  1  0  0  0
  9 27  2  0  0  0
 10 11  2  0  0  0
 10 15  1  0  0  0
 11 12  1  0  0  0
 11 91  1  0  0  0
 12 13  2  0  0  0
 12 92  1  0  0  0
 13 14  1  0  0  0
 13 31  1  0  0  0
 14 15  2  0  0  0
 14 93  1  0  0  0
 15 94  1  0  0  0
 16 17  2  0  0  0
 16 21  1  0  0  0
 16 31  1  0  0  0
 17 18  1  0  0  0
 17 95  1  0  0  0
 18 19  2  0  0  0
 18 96  1  0  0  0
 19 20  1  0  0  0
 19 24  1  0  0  0
 20 21  2  0  0  0
 20 97  1  0  0  0
 21 23  1  0  0  0
 22 28  1  0  0  0
 22 32  2  0  0  0
 26 27  1  0  0  0
 28 98  1  0  0  0
 28 99  1  0  0  0
 29100  1  0  0  0
 29101  1  0  0  0
 33 34  1  0  0  0
 33 66  1  0  0  0
 33 70  2  0  0  0
 34 36  1  0  0  0
 34 59  1  0  0  0
 34102  1  0  0  0
 35 44  2  0  0  0
 35 45  1  0  0  0
 35 68  1  0  0  0
 36 56  1  0  0  0
 36103  1  0  0  0
 37 39  1  0  0  0
 37 47  1  0  0  0
 37 66  1  0  0  0
 37104  1  0  0  0
 38 43  2  0  0  0
 38 46  1  0  0  0
 38 47  1  0  0  0
 39 64  1  0  0  0
 39 67  2  0  0  0
 40 52  1  0  0  0
 40 53  2  0  0  0
 40 58  1  0  0  0
 41105  1  0  0  0
 41106  1  0  0  0
 41107  1  0  0  0
 41 48  1  0  0  0
 42 43  1  0  0  0
 42 66  1  0  0  0
 42108  1  0  0  0
 42109  1  0  0  0
 43 44  1  0  0  0
 44110  1  0  0  0
 45 46  2  0  0  0
 45111  1  0  0  0
 46112  1  0  0  0
 47113  1  0  0  0
 47114  1  0  0  0
 48 56  1  0  0  0
 48 65  1  0  0  0
 48115  1  0  0  0
 49 50  1  0  0  0
 49 53  1  0  0  0
 49 64  1  0  0  0
 49116  1  0  0  0
 50 51  1  0  0  0
 50117  1  0  0  0
 50118  1  0  0  0
 51 52  1  0  0  0
 51119  1  0  0  0
 51120  1  0  0  0
 52121  1  0  0  0
 52122  1  0  0  0
 53 54  1  0  0  0
 54 55  2  0  0  0
 54123  1  0  0  0
 55 57  1  0  0  0
 55124  1  0  0  0
 56 69  2  0  0  0
 57 58  2  0  0  0
 57125  1  0  0  0
 58126  1  0  0  0
 59 60  1  0  0  0
 59 61  1  0  0  0
 59 62  1  0  0  0
 60127  1  0  0  0
 60128  1  0  0  0
 60129  1  0  0  0
 61130  1  0  0  0
 61131  1  0  0  0
 61132  1  0  0  0
 62133  1  0  0  0
 62134  1  0  0  0
 62135  1  0  0  0
 63 65  1  0  0  0
 63136  1  0  0  0
 63137  1  0  0  0
 63138  1  0  0  0
 64139  1  0  0  0
 65140  1  0  0  0
 68 78  1  0  0  0
 71 73  1  0  0  0
 71 74  2  0  0  0
 71141  1  0  0  0
 72 73  2  0  0  0
 72 80  1  0  0  0
 72142  1  0  0  0
 73 79  1  0  0  0
 74 77  1  0  0  0
 74 80  1  0  0  0
 75143  1  0  0  0
 75144  1  0  0  0
 75145  1  0  0  0
 75 79  1  0  0  0
 76 80  1  0  0  0
 76146  1  0  0  0
 76147  1  0  0  0
 76148  1  0  0  0
 77 81  1  0  0  0
 77149  1  0  0  0
 77150  1  0  0  0
 78 79  1  0  0  0
 78151  1  0  0  0
 78152  1  0  0  0
 79153  1  0  0  0
 81154  1  0  0  0
M  ISO  4   1 100  68 101  78 101  81 100
M  END
> <chiral flag>
0

> <version>
0

> <s_m_source_file>
/data/baiqing/PycharmProjects/Reinvent-master-3.2/result/LINK_invent/BTK/process_docking_weight1_custom_sum_contain_oxygen_bond_distance_aromatic_linkinvent_7_9_3/rearranged_h_0096.sdf

> <i_m_source_file_index>
57

> <r_mmod_Potential_Energy-OPLS-2005>
601.445251464844

> <r_mmod_Stretch_Energy-OPLS-2005>
310.031585693359

> <r_mmod_Bend_Energy-OPLS-2005>
329.908538818359

> <r_mmod_Torsional_Energy-OPLS-2005>
237.646224975586

> <r_mmod_Improper_Torsional_Energy-OPLS-2005>
6.45264959335327

> <r_mmod_Van_der_Waal_Energy-OPLS-2005>
104.403388977051

> <r_mmod_Electrostatic_Energy-OPLS-2005>
-410.361663818359

> <r_mmod_Solvation_Energy-OPLS-2005>
-214.124496459961

> <b_mmod_Minimization_Converged-OPLS-2005>
0

> <r_mmod_RMS_Derivative-OPLS-2005>
5.91820907592773

$$$$
57
                    3D
 Structure written by MMmdl.
165173  0  0  1  0            999 V2000
  -30.5496  -14.7777   20.4887 C   0  0  0  0  0  0
  -30.4541  -12.4733   19.4860 C   0  0  0  0  0  0
  -29.5250  -12.5301   18.2494 C   0  0  0  0  0  0
  -28.0484  -12.3438   18.6550 C   0  0  0  0  0  0
  -27.6551  -13.2234   19.8700 C   0  0  2  0  0  0
  -28.6962  -13.1115   21.0076 C   0  0  0  0  0  0
  -25.2580  -13.8179   20.5715 C   0  0  0  0  0  0
  -24.1837  -13.0419   20.9181 C   0  0  0  0  0  0
  -24.6412  -11.6893   20.8702 C   0  0  0  0  0  0
  -23.9075  -10.4272   21.0388 C   0  0  0  0  0  0
  -24.3612   -9.4198   21.9182 C   0  0  0  0  0  0
  -23.6276   -8.2237   22.0761 C   0  0  0  0  0  0
  -22.4262   -8.0275   21.3541 C   0  0  0  0  0  0
  -21.9914   -9.0246   20.4629 C   0  0  0  0  0  0
  -22.7249  -10.2126   20.3042 C   0  0  0  0  0  0
  -21.6860   -6.0733   22.5274 C   0  0  0  0  0  0
  -21.4014   -6.5648   23.8215 C   0  0  0  0  0  0
  -21.3664   -5.6791   24.9172 C   0  0  0  0  0  0
  -21.6033   -4.3053   24.7214 C   0  0  0  0  0  0
  -21.8829   -3.8155   23.4340 C   0  0  0  0  0  0
  -21.9192   -4.6960   22.3390 C   0  0  0  0  0  0
  -22.7869  -13.5226   21.1834 C   0  0  0  0  0  0
  -22.1669   -4.2155   21.0975 F   0  0  0  0  0  0
  -21.5621   -3.4537   25.7732 F   0  0  0  0  0  0
  -30.0012  -13.5089   20.4486 N   0  0  0  0  0  0
  -26.3011  -12.9355   20.3344 N   0  0  0  0  0  0
  -25.9354  -11.6499   20.5737 N   0  0  0  0  0  0
  -22.0500  -12.8181   22.0363 N   0  0  0  0  0  0
  -25.4281  -15.1880   20.4217 N   0  0  0  0  0  0
  -31.6847  -14.9747   20.0398 O   0  0  0  0  0  0
  -21.6636   -6.8870   21.4237 O   0  0  0  0  0  0
  -22.3567  -14.5539   20.6715 O   0  0  0  0  0  0
  -24.6331  -31.8584   23.2061 C   0  0  0  0  0  0
  -25.9171  -32.4782   23.8384 C   0  0  1  0  0  0
  -27.2125  -27.2596   20.1200 C   0  0  0  0  0  0
  -25.5987  -33.8595   24.2292 N   0  0  0  0  0  0
  -23.4320  -30.4763   21.5562 C   0  0  2  0  0  0
  -24.8770  -28.9298   20.1173 C   0  0  0  0  0  0
  -22.7525  -29.4547   22.5004 C   0  0  0  0  0  0
  -18.0264  -28.1350   22.8458 C   0  0  0  0  0  0
  -24.1507  -36.7259   23.2634 C   0  0  0  0  0  0
  -25.9798  -30.7617   21.3976 C   0  0  0  0  0  0
  -26.0500  -29.3816   20.7407 C   0  0  0  0  0  0
  -27.2182  -28.5529   20.7489 C   0  0  0  0  0  0
  -26.0500  -26.9216   19.3991 C   0  0  0  0  0  0
  -24.8756  -27.6972   19.4474 C   0  0  0  0  0  0
  -23.6505  -29.8210   20.1687 C   0  0  0  0  0  0
  -25.4142  -36.3079   24.0306 C   0  0  1  0  0  0
  -20.5859  -28.3664   23.1264 C   0  0  2  0  0  0
  -20.6787  -26.9399   22.5362 C   0  0  0  0  0  0
  -19.5752  -26.6373   21.5155 C   0  0  0  0  0  0
  -18.1921  -26.7911   22.1563 C   0  0  0  0  0  0
  -19.1518  -28.8826   23.2844 C   0  0  0  0  0  0
  -18.9467  -30.1419   23.8877 C   0  0  0  0  0  0
  -17.6478  -30.6593   24.0508 C   0  0  0  0  0  0
  -25.9084  -34.9458   23.5086 C   0  0  0  0  0  0
  -16.5353  -29.9078   23.6338 C   0  0  0  0  0  0
  -16.7255  -28.6470   23.0386 C   0  0  0  0  0  0
  -26.4497  -31.6640   25.0804 C   0  0  0  0  0  0
  -25.3644  -31.3716   26.1452 C   0  0  0  0  0  0
  -27.0431  -30.3110   24.6282 C   0  0  0  0  0  0
  -27.6054  -32.4401   25.7563 C   0  0  0  0  0  0
  -27.5582  -37.1792   24.8476 C   0  0  0  0  0  0
  -21.4231  -29.3016   22.3698 N   0  0  0  0  0  0
  -26.4311  -37.3775   23.9381 N   0  0  0  0  0  0
  -24.7017  -31.0513   22.1073 N   0  0  0  0  0  0
  -23.4193  -28.8076   23.3126 O   0  0  0  0  0  0
  -28.2762  -26.3301   20.1059 O   0  0  0  0  0  0
  -26.5656  -34.8931   22.4655 O   0  0  0  0  0  0
  -23.5467  -32.1430   23.7334 O   0  0  0  0  0  0
  -27.7024  -20.7197   20.3950 C   0  0  0  0  0  0
  -29.1665  -22.6083   20.8020 C   0  0  0  0  0  0
  -29.0004  -21.1559   20.7013 C   0  0  0  0  0  0
  -26.6022  -21.6150   20.2993 C   0  0  0  0  0  0
  -28.1003  -23.5902   20.6527 C   0  0  0  0  0  0
  -26.8001  -23.0263   20.4329 C   0  0  0  0  0  0
  -25.5706  -23.9215   20.4330 C   0  0  0  0  0  0
  -24.9691  -19.6303   20.7198 C   0  0  0  0  0  0
  -31.4515  -20.7313   21.3574 C   0  0  0  0  0  0
  -25.1857  -21.0246   20.1123 C   0  0  0  0  0  0
  -28.2891  -25.1542   21.0468 C   0  0  0  0  0  0
  -30.3622  -18.5504   20.5357 C   0  0  0  0  0  0
  -29.3639  -17.2941   20.6405 C   0  0  0  0  0  0
  -30.0807  -20.0515   21.1668 C   0  0  2  0  0  0
  -29.7073  -15.8035   20.9032 N   0  0  0  0  0  0
  -31.4943  -12.6184   19.1871 H   0  0  0  0  0  0
  -30.4152  -11.4820   19.9424 H   0  0  0  0  0  0
  -29.8099  -11.7653   17.5265 H   0  0  0  0  0  0
  -29.6515  -13.4885   17.7427 H   0  0  0  0  0  0
  -27.9070  -11.2916   18.9044 H   0  0  0  0  0  0
  -27.3925  -12.5454   17.8077 H   0  0  0  0  0  0
  -27.6632  -14.2543   19.5157 H   0  0  0  0  0  0
  -28.7387  -12.0906   21.3884 H   0  0  0  0  0  0
  -28.4171  -13.7323   21.8605 H   0  0  0  0  0  0
  -25.2754   -9.5690   22.4761 H   0  0  0  0  0  0
  -23.9981   -7.4655   22.7509 H   0  0  0  0  0  0
  -21.0849   -8.8741   19.8942 H   0  0  0  0  0  0
  -22.3687  -10.9648   19.6143 H   0  0  0  0  0  0
  -21.2022   -7.6154   23.9712 H   0  0  0  0  0  0
  -21.1477   -6.0524   25.9072 H   0  0  0  0  0  0
  -22.0604   -2.7611   23.2830 H   0  0  0  0  0  0
  -22.4102  -11.9795   22.4662 H   0  0  0  0  0  0
  -21.1134  -13.1216   22.2597 H   0  0  0  0  0  0
  -24.6585  -15.8358   20.5451 H   0  0  0  0  0  0
  -26.2787  -15.6357   20.1078 H   0  0  0  0  0  0
  -26.7230  -32.5426   23.1124 H   0  0  0  0  0  0
  -25.0162  -33.9722   25.0448 H   0  0  0  0  0  0
  -22.7299  -31.2969   21.4150 H   0  0  0  0  0  0
  -23.3813  -35.9559   23.3326 H   0  0  0  0  0  0
  -24.3561  -36.8887   22.2044 H   0  0  0  0  0  0
  -23.7224  -37.6439   23.6665 H   0  0  0  0  0  0
  -26.1260  -31.5323   20.6373 H   0  0  0  0  0  0
  -26.8514  -30.7982   22.0413 H   0  0  0  0  0  0
  -28.1175  -28.8782   21.2577 H   0  0  0  0  0  0
  -26.0343  -26.0132   18.8142 H   0  0  0  0  0  0
  -23.9836  -27.3500   18.9437 H   0  0  0  0  0  0
  -23.7828  -30.6092   19.4257 H   0  0  0  0  0  0
  -22.7658  -29.2630   19.8556 H   0  0  0  0  0  0
  -25.1322  -36.1938   25.0797 H   0  0  0  0  0  0
  -20.9871  -28.3248   24.1405 H   0  0  0  0  0  0
  -20.5759  -26.2241   23.3558 H   0  0  0  0  0  0
  -21.6662  -26.7500   22.1095 H   0  0  0  0  0  0
  -19.6960  -25.6281   21.1200 H   0  0  0  0  0  0
  -19.6728  -27.3186   20.6691 H   0  0  0  0  0  0
  -17.4199  -26.6635   21.3958 H   0  0  0  0  0  0
  -18.0328  -26.0043   22.8943 H   0  0  0  0  0  0
  -19.7963  -30.7158   24.2311 H   0  0  0  0  0  0
  -17.5071  -31.6292   24.5090 H   0  0  0  0  0  0
  -15.5369  -30.2985   23.7712 H   0  0  0  0  0  0
  -15.8626  -28.0776   22.7207 H   0  0  0  0  0  0
  -24.5864  -30.7065   25.7670 H   0  0  0  0  0  0
  -24.8724  -32.2834   26.4861 H   0  0  0  0  0  0
  -25.7860  -30.8848   27.0253 H   0  0  0  0  0  0
  -26.3089  -29.6832   24.1233 H   0  0  0  0  0  0
  -27.4094  -29.7375   25.4802 H   0  0  0  0  0  0
  -27.8934  -30.4484   23.9598 H   0  0  0  0  0  0
  -27.2732  -33.3796   26.1988 H   0  0  0  0  0  0
  -28.3909  -32.6824   25.0392 H   0  0  0  0  0  0
  -28.0673  -31.8606   26.5566 H   0  0  0  0  0  0
  -28.2595  -38.0108   24.7591 H   0  0  0  0  0  0
  -28.1088  -36.2634   24.6285 H   0  0  0  0  0  0
  -27.2242  -37.1395   25.8862 H   0  0  0  0  0  0
  -20.9484  -29.8740   21.6859 H   0  0  0  0  0  0
  -26.0218  -38.2829   24.1452 H   0  0  0  0  0  0
  -27.5414  -19.6546   20.3357 H   0  0  0  0  0  0
  -30.1298  -22.9973   21.1009 H   0  0  0  0  0  0
  -25.7787  -24.9262   20.7623 H   0  0  0  0  0  0
  -24.8320  -23.5957   21.1615 H   0  0  0  0  0  0
  -25.1164  -23.9437   19.4412 H   0  0  0  0  0  0
  -23.9146  -19.3512   20.6852 H   0  0  0  0  0  0
  -25.2815  -19.6125   21.7639 H   0  0  0  0  0  0
  -25.5260  -18.8612   20.1871 H   0  0  0  0  0  0
  -31.4152  -21.4865   22.1428 H   0  0  0  0  0  0
  -31.7876  -21.2052   20.4346 H   0  0  0  0  0  0
  -32.2261  -20.0293   21.6616 H   0  0  0  0  0  0
  -24.9463  -21.0096   19.0485 H   0  0  0  0  0  0
  -24.4171  -21.6339   20.5838 H   0  0  0  0  0  0
  -29.2609  -25.2234   21.5361 H   0  0  0  0  0  0
  -27.5965  -25.3719   21.8609 H   0  0  0  0  0  0
  -30.6973  -18.6522   19.5016 H   0  0  0  0  0  0
  -31.2449  -18.1841   21.0600 H   0  0  0  0  0  0
  -28.7336  -17.3143   19.7501 H   0  0  0  0  0  0
  -28.6814  -17.5499   21.4498 H   0  0  0  0  0  0
  -29.7406  -19.8257   22.1763 H   0  0  0  0  0  0
  -28.9217  -15.3758   21.3737 H   0  0  0  0  0  0
  1 25  1  0  0  0
  1 30  2  0  0  0
  1 85  1  0  0  0
  2  3  1  0  0  0
  2 25  1  0  0  0
  2 86  1  0  0  0
  2 87  1  0  0  0
  3  4  1  0  0  0
  3 88  1  0  0  0
  3 89  1  0  0  0
  4  5  1  0  0  0
  4 90  1  0  0  0
  4 91  1  0  0  0
  5  6  1  0  0  0
  5 26  1  0  0  0
  5 92  1  0  0  0
  6 25  1  0  0  0
  6 93  1  0  0  0
  6 94  1  0  0  0
  7  8  2  0  0  0
  7 26  1  0  0  0
  7 29  1  0  0  0
  8  9  1  0  0  0
  8 22  1  0  0  0
  9 10  1  0  0  0
  9 27  2  0  0  0
 10 11  2  0  0  0
 10 15  1  0  0  0
 11 12  1  0  0  0
 11 95  1  0  0  0
 12 13  2  0  0  0
 12 96  1  0  0  0
 13 14  1  0  0  0
 13 31  1  0  0  0
 14 15  2  0  0  0
 14 97  1  0  0  0
 15 98  1  0  0  0
 16 17  2  0  0  0
 16 21  1  0  0  0
 16 31  1  0  0  0
 17 18  1  0  0  0
 17 99  1  0  0  0
 18 19  2  0  0  0
 18100  1  0  0  0
 19 20  1  0  0  0
 19 24  1  0  0  0
 20 21  2  0  0  0
 20101  1  0  0  0
 21 23  1  0  0  0
 22 28  1  0  0  0
 22 32  2  0  0  0
 26 27  1  0  0  0
 28102  1  0  0  0
 28103  1  0  0  0
 29104  1  0  0  0
 29105  1  0  0  0
 33 34  1  0  0  0
 33 66  1  0  0  0
 33 70  2  0  0  0
 34 36  1  0  0  0
 34 59  1  0  0  0
 34106  1  0  0  0
 35 44  2  0  0  0
 35 45  1  0  0  0
 35 68  1  0  0  0
 36 56  1  0  0  0
 36107  1  0  0  0
 37 39  1  0  0  0
 37 47  1  0  0  0
 37 66  1  0  0  0
 37108  1  0  0  0
 38 43  2  0  0  0
 38 46  1  0  0  0
 38 47  1  0  0  0
 39 64  1  0  0  0
 39 67  2  0  0  0
 40 52  1  0  0  0
 40 53  2  0  0  0
 40 58  1  0  0  0
 41109  1  0  0  0
 41110  1  0  0  0
 41111  1  0  0  0
 41 48  1  0  0  0
 42 43  1  0  0  0
 42 66  1  0  0  0
 42112  1  0  0  0
 42113  1  0  0  0
 43 44  1  0  0  0
 44114  1  0  0  0
 45 46  2  0  0  0
 45115  1  0  0  0
 46116  1  0  0  0
 47117  1  0  0  0
 47118  1  0  0  0
 48 56  1  0  0  0
 48 65  1  0  0  0
 48119  1  0  0  0
 49 50  1  0  0  0
 49 53  1  0  0  0
 49 64  1  0  0  0
 49120  1  0  0  0
 50 51  1  0  0  0
 50121  1  0  0  0
 50122  1  0  0  0
 51 52  1  0  0  0
 51123  1  0  0  0
 51124  1  0  0  0
 52125  1  0  0  0
 52126  1  0  0  0
 53 54  1  0  0  0
 54 55  2  0  0  0
 54127  1  0  0  0
 55 57  1  0  0  0
 55128  1  0  0  0
 56 69  2  0  0  0
 57 58  2  0  0  0
 57129  1  0  0  0
 58130  1  0  0  0
 59 60  1  0  0  0
 59 61  1  0  0  0
 59 62  1  0  0  0
 60131  1  0  0  0
 60132  1  0  0  0
 60133  1  0  0  0
 61134  1  0  0  0
 61135  1  0  0  0
 61136  1  0  0  0
 62137  1  0  0  0
 62138  1  0  0  0
 62139  1  0  0  0
 63 65  1  0  0  0
 63140  1  0  0  0
 63141  1  0  0  0
 63142  1  0  0  0
 64143  1  0  0  0
 65144  1  0  0  0
 68 81  1  0  0  0
 71 73  2  0  0  0
 71 74  1  0  0  0
 71145  1  0  0  0
 72 73  1  0  0  0
 72 75  2  0  0  0
 72146  1  0  0  0
 73 84  1  0  0  0
 74 76  2  0  0  0
 74 80  1  0  0  0
 75 76  1  0  0  0
 75 81  1  0  0  0
 76 77  1  0  0  0
 77147  1  0  0  0
 77148  1  0  0  0
 77149  1  0  0  0
 78 80  1  0  0  0
 78150  1  0  0  0
 78151  1  0  0  0
 78152  1  0  0  0
 79153  1  0  0  0
 79154  1  0  0  0
 79155  1  0  0  0
 79 84  1  0  0  0
 80156  1  0  0  0
 80157  1  0  0  0
 81158  1  0  0  0
 81159  1  0  0  0
 82 83  1  0  0  0
 82 84  1  0  0  0
 82160  1  0  0  0
 82161  1  0  0  0
 83 85  1  0  0  0
 83162  1  0  0  0
 83163  1  0  0  0
 84164  1  0  0  0
 85165  1  0  0  0
M  ISO  4   1 100  68 101  81 101  85 100
M  END
> <chiral flag>
0

> <version>
0

> <s_m_source_file>
/data/baiqing/PycharmProjects/Reinvent-master-3.2/result/LINK_invent/BTK/process_docking_weight1_custom_sum_contain_oxygen_bond_distance_aromatic_linkinvent_7_9_3/rearranged_h_0096.sdf

> <i_m_source_file_index>
58

> <r_mmod_Potential_Energy-OPLS-2005>
370.896392822266

> <r_mmod_Stretch_Energy-OPLS-2005>
155.677490234375

> <r_mmod_Bend_Energy-OPLS-2005>
268.439300537109

> <r_mmod_Torsional_Energy-OPLS-2005>
271.965911865234

> <r_mmod_Improper_Torsional_Energy-OPLS-2005>
8.69573211669922

> <r_mmod_Van_der_Waal_Energy-OPLS-2005>
148.628280639648

> <r_mmod_Electrostatic_Energy-OPLS-2005>
-373.082275390625

> <r_mmod_Solvation_Energy-OPLS-2005>
-206.739166259766

> <b_mmod_Minimization_Converged-OPLS-2005>
0

> <r_mmod_RMS_Derivative-OPLS-2005>
5.36361742019653

$$$$
58
                    3D
 Structure written by MMmdl.
161169  0  0  1  0            999 V2000
  -30.6226  -14.7491   20.4580 C   0  0  0  0  0  0
  -30.4283  -12.4443   19.5140 C   0  0  0  0  0  0
  -29.5230  -12.4747   18.2621 C   0  0  0  0  0  0
  -28.0456  -12.3113   18.6661 C   0  0  0  0  0  0
  -27.6414  -13.2321   19.8486 C   0  0  2  0  0  0
  -28.6755  -13.1968   20.9966 C   0  0  0  0  0  0
  -25.2509  -13.8218   20.5700 C   0  0  0  0  0  0
  -24.1795  -13.0451   20.9228 C   0  0  0  0  0  0
  -24.6373  -11.6939   20.8746 C   0  0  0  0  0  0
  -23.9057  -10.4310   21.0406 C   0  0  0  0  0  0
  -24.3609   -9.4221   21.9174 C   0  0  0  0  0  0
  -23.6295   -8.2245   22.0741 C   0  0  0  0  0  0
  -22.4284   -8.0279   21.3527 C   0  0  0  0  0  0
  -21.9916   -9.0251   20.4626 C   0  0  0  0  0  0
  -22.7237  -10.2139   20.3043 C   0  0  0  0  0  0
  -21.6860   -6.0739   22.5286 C   0  0  0  0  0  0
  -21.4012   -6.5643   23.8218 C   0  0  0  0  0  0
  -21.3659   -5.6801   24.9177 C   0  0  0  0  0  0
  -21.6049   -4.3062   24.7235 C   0  0  0  0  0  0
  -21.8816   -3.8151   23.4356 C   0  0  0  0  0  0
  -21.9191   -4.6967   22.3408 C   0  0  0  0  0  0
  -22.7821  -13.5220   21.1908 C   0  0  0  0  0  0
  -22.1664   -4.2152   21.0983 F   0  0  0  0  0  0
  -21.5624   -3.4542   25.7740 F   0  0  0  0  0  0
  -29.9850  -13.5277   20.4245 N   0  0  0  0  0  0
  -26.2915  -12.9421   20.3244 N   0  0  0  0  0  0
  -25.9296  -11.6573   20.5739 N   0  0  0  0  0  0
  -22.0467  -12.8185   22.0450 N   0  0  0  0  0  0
  -25.4230  -15.1935   20.4134 N   0  0  0  0  0  0
  -31.7989  -14.8248   20.0904 O   0  0  0  0  0  0
  -21.6647   -6.8878   21.4240 O   0  0  0  0  0  0
  -22.3500  -14.5527   20.6774 O   0  0  0  0  0  0
  -24.6287  -31.8582   23.1994 C   0  0  0  0  0  0
  -25.9128  -32.4761   23.8336 C   0  0  1  0  0  0
  -27.2125  -27.2802   20.1480 C   0  0  0  0  0  0
  -25.5942  -33.8559   24.2272 N   0  0  0  0  0  0
  -23.4259  -30.4783   21.5401 C   0  0  2  0  0  0
  -24.8758  -28.9330   20.1074 C   0  0  0  0  0  0
  -22.7497  -29.4595   22.4894 C   0  0  0  0  0  0
  -18.0297  -28.1373   22.8485 C   0  0  0  0  0  0
  -24.1495  -36.7279   23.2645 C   0  0  0  0  0  0
  -25.9672  -30.7817   21.3743 C   0  0  0  0  0  0
  -26.0432  -29.4045   20.7213 C   0  0  0  0  0  0
  -27.2180  -28.5887   20.7348 C   0  0  0  0  0  0
  -26.0403  -26.8882   19.4711 C   0  0  0  0  0  0
  -24.8777  -27.6811   19.4696 C   0  0  0  0  0  0
  -23.6449  -29.8153   20.1551 C   0  0  0  0  0  0
  -25.4124  -36.3072   24.0328 C   0  0  1  0  0  0
  -20.5899  -28.3694   23.1254 C   0  0  2  0  0  0
  -20.6790  -26.9408   22.5405 C   0  0  0  0  0  0
  -19.5763  -26.6376   21.5200 C   0  0  0  0  0  0
  -18.1936  -26.7921   22.1618 C   0  0  0  0  0  0
  -19.1555  -28.8852   23.2870 C   0  0  0  0  0  0
  -18.9476  -30.1453   23.8887 C   0  0  0  0  0  0
  -17.6479  -30.6582   24.0557 C   0  0  0  0  0  0
  -25.9066  -34.9436   23.5094 C   0  0  0  0  0  0
  -16.5358  -29.9081   23.6336 C   0  0  0  0  0  0
  -16.7285  -28.6494   23.0353 C   0  0  0  0  0  0
  -26.4504  -31.6574   25.0701 C   0  0  0  0  0  0
  -25.3731  -31.3733   26.1422 C   0  0  0  0  0  0
  -27.0326  -30.3003   24.6137 C   0  0  0  0  0  0
  -27.6091  -32.4295   25.7443 C   0  0  0  0  0  0
  -27.5575  -37.1790   24.8477 C   0  0  0  0  0  0
  -21.4209  -29.3042   22.3645 N   0  0  0  0  0  0
  -26.4284  -37.3783   23.9426 N   0  0  0  0  0  0
  -24.6915  -31.0567   22.0956 N   0  0  0  0  0  0
  -23.4201  -28.8117   23.2976 O   0  0  0  0  0  0
  -28.2852  -26.3679   20.2103 O   0  0  0  0  0  0
  -26.5633  -34.8905   22.4660 O   0  0  0  0  0  0
  -23.5457  -32.1357   23.7330 O   0  0  0  0  0  0
  -29.0187  -19.7035   20.0134 C   0  0  0  0  0  0
  -29.8006  -20.7148   21.8019 C   0  0  0  0  0  0
  -29.8001  -18.7271   20.6473 C   0  0  0  0  0  0
  -30.2798  -19.4201   21.8254 C   0  0  0  0  0  0
  -31.4998  -17.4654   22.9907 C   0  0  0  0  0  0
  -26.7056  -24.7319   21.4531 C   0  0  0  0  0  0
  -30.2044  -17.2836   20.0715 C   0  0  0  0  0  0
  -28.8292  -23.6839   20.2768 C   0  0  0  0  0  0
  -28.1826  -22.2047   20.4653 C   0  0  0  0  0  0
  -31.1934  -18.9616   22.9507 C   0  0  2  0  0  0
  -28.1155  -25.0208   20.8779 C   0  0  1  0  0  0
  -29.0098  -20.9450   20.6995 N   0  0  0  0  0  0
  -29.8832  -15.9086   20.6625 N   0  0  0  0  0  0
  -30.6619  -19.3227   24.2123 O   0  0  0  0  0  0
  -31.4751  -12.5451   19.2244 H   0  0  0  0  0  0
  -30.3559  -11.4807   20.0204 H   0  0  0  0  0  0
  -29.8095  -11.6731   17.5790 H   0  0  0  0  0  0
  -29.6641  -13.4092   17.7173 H   0  0  0  0  0  0
  -27.9065  -11.2689   18.9552 H   0  0  0  0  0  0
  -27.3939  -12.4760   17.8071 H   0  0  0  0  0  0
  -27.6306  -14.2449   19.4456 H   0  0  0  0  0  0
  -28.6994  -12.2180   21.4758 H   0  0  0  0  0  0
  -28.4027  -13.9119   21.7739 H   0  0  0  0  0  0
  -25.2744   -9.5723   22.4754 H   0  0  0  0  0  0
  -24.0026   -7.4641   22.7456 H   0  0  0  0  0  0
  -21.0853   -8.8746   19.8923 H   0  0  0  0  0  0
  -22.3673  -10.9667   19.6156 H   0  0  0  0  0  0
  -21.1996   -7.6149   23.9722 H   0  0  0  0  0  0
  -21.1488   -6.0523   25.9080 H   0  0  0  0  0  0
  -22.0590   -2.7611   23.2854 H   0  0  0  0  0  0
  -22.4122  -11.9866   22.4856 H   0  0  0  0  0  0
  -21.1054  -13.1169   22.2619 H   0  0  0  0  0  0
  -24.6623  -15.8532   20.5374 H   0  0  0  0  0  0
  -26.2698  -15.6293   20.0709 H   0  0  0  0  0  0
  -26.7183  -32.5409   23.1078 H   0  0  0  0  0  0
  -25.0119  -33.9715   25.0431 H   0  0  0  0  0  0
  -22.7220  -31.2999   21.3934 H   0  0  0  0  0  0
  -23.3750  -35.9623   23.3327 H   0  0  0  0  0  0
  -24.3603  -36.8888   22.2064 H   0  0  0  0  0  0
  -23.7245  -37.6480   23.6664 H   0  0  0  0  0  0
  -26.0989  -31.5405   20.6010 H   0  0  0  0  0  0
  -26.8471  -30.8378   22.0014 H   0  0  0  0  0  0
  -28.1084  -28.9410   21.2373 H   0  0  0  0  0  0
  -26.0106  -25.9256   18.9792 H   0  0  0  0  0  0
  -23.9859  -27.3163   18.9780 H   0  0  0  0  0  0
  -23.7708  -30.5921   19.3996 H   0  0  0  0  0  0
  -22.7650  -29.2505   19.8488 H   0  0  0  0  0  0
  -25.1309  -36.1913   25.0823 H   0  0  0  0  0  0
  -21.0009  -28.3249   24.1368 H   0  0  0  0  0  0
  -20.5706  -26.2282   23.3601 H   0  0  0  0  0  0
  -21.6642  -26.7434   22.1171 H   0  0  0  0  0  0
  -19.6934  -25.6300   21.1227 H   0  0  0  0  0  0
  -19.6692  -27.3188   20.6727 H   0  0  0  0  0  0
  -17.4213  -26.6680   21.4002 H   0  0  0  0  0  0
  -18.0319  -26.0044   22.8995 H   0  0  0  0  0  0
  -19.7957  -30.7280   24.2211 H   0  0  0  0  0  0
  -17.5038  -31.6263   24.5171 H   0  0  0  0  0  0
  -15.5366  -30.2997   23.7674 H   0  0  0  0  0  0
  -15.8665  -28.0839   22.7058 H   0  0  0  0  0  0
  -24.5922  -30.7065   25.7743 H   0  0  0  0  0  0
  -24.8895  -32.2902   26.4812 H   0  0  0  0  0  0
  -25.8034  -30.8939   27.0221 H   0  0  0  0  0  0
  -26.2880  -29.6756   24.1187 H   0  0  0  0  0  0
  -27.4059  -29.7262   25.4631 H   0  0  0  0  0  0
  -27.8761  -30.4310   23.9352 H   0  0  0  0  0  0
  -27.2755  -33.3626   26.2003 H   0  0  0  0  0  0
  -28.3885  -32.6811   25.0224 H   0  0  0  0  0  0
  -28.0774  -31.8431   26.5360 H   0  0  0  0  0  0
  -28.2592  -38.0088   24.7513 H   0  0  0  0  0  0
  -28.1051  -36.2609   24.6303 H   0  0  0  0  0  0
  -27.2294  -37.1438   25.8879 H   0  0  0  0  0  0
  -20.9383  -29.8797   21.6874 H   0  0  0  0  0  0
  -26.0154  -38.2845   24.1440 H   0  0  0  0  0  0
  -28.4559  -19.6245   19.0915 H   0  0  0  0  0  0
  -29.9465  -21.5053   22.5277 H   0  0  0  0  0  0
  -30.5898  -16.8751   23.0918 H   0  0  0  0  0  0
  -32.1497  -17.2215   23.8324 H   0  0  0  0  0  0
  -32.0333  -17.1473   22.0958 H   0  0  0  0  0  0
  -26.7437  -23.9887   22.2468 H   0  0  0  0  0  0
  -26.0155  -24.3635   20.6934 H   0  0  0  0  0  0
  -26.2633  -25.6063   21.9279 H   0  0  0  0  0  0
  -31.2853  -17.3289   19.9347 H   0  0  0  0  0  0
  -29.8173  -17.2544   19.0532 H   0  0  0  0  0  0
  -28.9611  -23.8415   19.2052 H   0  0  0  0  0  0
  -29.8470  -23.6547   20.6716 H   0  0  0  0  0  0
  -27.5218  -22.0154   19.6185 H   0  0  0  0  0  0
  -27.5133  -22.2282   21.3211 H   0  0  0  0  0  0
  -32.1354  -19.5002   22.8358 H   0  0  0  0  0  0
  -28.6856  -25.2016   21.7902 H   0  0  0  0  0  0
  -28.9390  -15.7804   20.9937 H   0  0  0  0  0  0
  -31.3279  -19.1366   24.8679 H   0  0  0  0  0  0
  1 25  1  0  0  0
  1 30  2  0  0  0
  1 83  1  0  0  0
  2  3  1  0  0  0
  2 25  1  0  0  0
  2 85  1  0  0  0
  2 86  1  0  0  0
  3  4  1  0  0  0
  3 87  1  0  0  0
  3 88  1  0  0  0
  4  5  1  0  0  0
  4 89  1  0  0  0
  4 90  1  0  0  0
  5  6  1  0  0  0
  5 26  1  0  0  0
  5 91  1  0  0  0
  6 25  1  0  0  0
  6 92  1  0  0  0
  6 93  1  0  0  0
  7  8  2  0  0  0
  7 26  1  0  0  0
  7 29  1  0  0  0
  8  9  1  0  0  0
  8 22  1  0  0  0
  9 10  1  0  0  0
  9 27  2  0  0  0
 10 11  2  0  0  0
 10 15  1  0  0  0
 11 12  1  0  0  0
 11 94  1  0  0  0
 12 13  2  0  0  0
 12 95  1  0  0  0
 13 14  1  0  0  0
 13 31  1  0  0  0
 14 15  2  0  0  0
 14 96  1  0  0  0
 15 97  1  0  0  0
 16 17  2  0  0  0
 16 21  1  0  0  0
 16 31  1  0  0  0
 17 18  1  0  0  0
 17 98  1  0  0  0
 18 19  2  0  0  0
 18 99  1  0  0  0
 19 20  1  0  0  0
 19 24  1  0  0  0
 20 21  2  0  0  0
 20100  1  0  0  0
 21 23  1  0  0  0
 22 28  1  0  0  0
 22 32  2  0  0  0
 26 27  1  0  0  0
 28101  1  0  0  0
 28102  1  0  0  0
 29103  1  0  0  0
 29104  1  0  0  0
 33 34  1  0  0  0
 33 66  1  0  0  0
 33 70  2  0  0  0
 34 36  1  0  0  0
 34 59  1  0  0  0
 34105  1  0  0  0
 35 44  2  0  0  0
 35 45  1  0  0  0
 35 68  1  0  0  0
 36 56  1  0  0  0
 36106  1  0  0  0
 37 39  1  0  0  0
 37 47  1  0  0  0
 37 66  1  0  0  0
 37107  1  0  0  0
 38 43  2  0  0  0
 38 46  1  0  0  0
 38 47  1  0  0  0
 39 64  1  0  0  0
 39 67  2  0  0  0
 40 52  1  0  0  0
 40 53  2  0  0  0
 40 58  1  0  0  0
 41108  1  0  0  0
 41109  1  0  0  0
 41110  1  0  0  0
 41 48  1  0  0  0
 42 43  1  0  0  0
 42 66  1  0  0  0
 42111  1  0  0  0
 42112  1  0  0  0
 43 44  1  0  0  0
 44113  1  0  0  0
 45 46  2  0  0  0
 45114  1  0  0  0
 46115  1  0  0  0
 47116  1  0  0  0
 47117  1  0  0  0
 48 56  1  0  0  0
 48 65  1  0  0  0
 48118  1  0  0  0
 49 50  1  0  0  0
 49 53  1  0  0  0
 49 64  1  0  0  0
 49119  1  0  0  0
 50 51  1  0  0  0
 50120  1  0  0  0
 50121  1  0  0  0
 51 52  1  0  0  0
 51122  1  0  0  0
 51123  1  0  0  0
 52124  1  0  0  0
 52125  1  0  0  0
 53 54  1  0  0  0
 54 55  2  0  0  0
 54126  1  0  0  0
 55 57  1  0  0  0
 55127  1  0  0  0
 56 69  2  0  0  0
 57 58  2  0  0  0
 57128  1  0  0  0
 58129  1  0  0  0
 59 60  1  0  0  0
 59 61  1  0  0  0
 59 62  1  0  0  0
 60130  1  0  0  0
 60131  1  0  0  0
 60132  1  0  0  0
 61133  1  0  0  0
 61134  1  0  0  0
 61135  1  0  0  0
 62136  1  0  0  0
 62137  1  0  0  0
 62138  1  0  0  0
 63 65  1  0  0  0
 63139  1  0  0  0
 63140  1  0  0  0
 63141  1  0  0  0
 64142  1  0  0  0
 65143  1  0  0  0
 68 81  1  0  0  0
 71 73  2  0  0  0
 71 82  1  0  0  0
 71144  1  0  0  0
 72 74  2  0  0  0
 72 82  1  0  0  0
 72145  1  0  0  0
 73 74  1  0  0  0
 73 77  1  0  0  0
 74 80  1  0  0  0
 75146  1  0  0  0
 75147  1  0  0  0
 75148  1  0  0  0
 75 80  1  0  0  0
 76149  1  0  0  0
 76150  1  0  0  0
 76151  1  0  0  0
 76 81  1  0  0  0
 77 83  1  0  0  0
 77152  1  0  0  0
 77153  1  0  0  0
 78 79  1  0  0  0
 78 81  1  0  0  0
 78154  1  0  0  0
 78155  1  0  0  0
 79 82  1  0  0  0
 79156  1  0  0  0
 79157  1  0  0  0
 80 84  1  0  0  0
 80158  1  0  0  0
 81159  1  0  0  0
 83160  1  0  0  0
 84161  1  0  0  0
M  ISO  4   1 100  68 101  81 101  83 100
M  END
> <chiral flag>
0

> <version>
0

> <s_m_source_file>
/data/baiqing/PycharmProjects/Reinvent-master-3.2/result/LINK_invent/BTK/process_docking_weight1_custom_sum_contain_oxygen_bond_distance_aromatic_linkinvent_7_9_3/rearranged_h_0096.sdf

> <i_m_source_file_index>
59

> <r_mmod_Potential_Energy-OPLS-2005>
122.917114257812

> <r_mmod_Stretch_Energy-OPLS-2005>
122.587615966797

> <r_mmod_Bend_Energy-OPLS-2005>
202.451507568359

> <r_mmod_Torsional_Energy-OPLS-2005>
270.776794433594

> <r_mmod_Improper_Torsional_Energy-OPLS-2005>
8.48654651641846

> <r_mmod_Van_der_Waal_Energy-OPLS-2005>
124.339485168457

> <r_mmod_Electrostatic_Energy-OPLS-2005>
-462.525207519531

> <r_mmod_Solvation_Energy-OPLS-2005>
-229.717132568359

> <b_mmod_Minimization_Converged-OPLS-2005>
0

> <r_mmod_RMS_Derivative-OPLS-2005>
3.27825331687927

$$$$
59
                    3D
 Structure written by MMmdl.
175183  0  0  1  0            999 V2000
  -30.7434  -14.4320   20.5871 C   0  0  0  0  0  0
  -30.4129  -12.2962   19.4072 C   0  0  0  0  0  0
  -29.4847  -12.5068   18.1958 C   0  0  0  0  0  0
  -28.0081  -12.3687   18.6148 C   0  0  0  0  0  0
  -27.6602  -13.2031   19.8769 C   0  0  2  0  0  0
  -28.7066  -12.9916   20.9926 C   0  0  0  0  0  0
  -25.2560  -13.8123   20.5714 C   0  0  0  0  0  0
  -24.1823  -13.0404   20.9207 C   0  0  0  0  0  0
  -24.6387  -11.6876   20.8746 C   0  0  0  0  0  0
  -23.9061  -10.4270   21.0415 C   0  0  0  0  0  0
  -24.3612   -9.4190   21.9194 C   0  0  0  0  0  0
  -23.6286   -8.2227   22.0759 C   0  0  0  0  0  0
  -22.4272   -8.0270   21.3540 C   0  0  0  0  0  0
  -21.9904   -9.0249   20.4646 C   0  0  0  0  0  0
  -22.7236  -10.2126   20.3060 C   0  0  0  0  0  0
  -21.6845   -6.0734   22.5283 C   0  0  0  0  0  0
  -21.4008   -6.5639   23.8220 C   0  0  0  0  0  0
  -21.3660   -5.6791   24.9180 C   0  0  0  0  0  0
  -21.6043   -4.3052   24.7226 C   0  0  0  0  0  0
  -21.8820   -3.8147   23.4348 C   0  0  0  0  0  0
  -21.9190   -4.6964   22.3405 C   0  0  0  0  0  0
  -22.7846  -13.5212   21.1853 C   0  0  0  0  0  0
  -22.1660   -4.2148   21.0983 F   0  0  0  0  0  0
  -21.5633   -3.4539   25.7743 F   0  0  0  0  0  0
  -30.0350  -13.2837   20.4281 N   0  0  0  0  0  0
  -26.3015  -12.9308   20.3398 N   0  0  0  0  0  0
  -25.9313  -11.6465   20.5790 N   0  0  0  0  0  0
  -22.0477  -12.8212   22.0409 N   0  0  0  0  0  0
  -25.4187  -15.1834   20.4147 N   0  0  0  0  0  0
  -31.8700  -14.5938   20.1144 O   0  0  0  0  0  0
  -21.6625   -6.8873   21.4244 O   0  0  0  0  0  0
  -22.3539  -14.5525   20.6708 O   0  0  0  0  0  0
  -24.6114  -31.8694   23.2126 C   0  0  0  0  0  0
  -25.9017  -32.4825   23.8406 C   0  0  1  0  0  0
  -27.2340  -27.4544   20.0915 C   0  0  0  0  0  0
  -25.5872  -33.8621   24.2332 N   0  0  0  0  0  0
  -23.3982  -30.4940   21.5528 C   0  0  2  0  0  0
  -24.8444  -28.9679   20.1134 C   0  0  0  0  0  0
  -22.7396  -29.4660   22.4998 C   0  0  0  0  0  0
  -18.0266  -28.1397   22.8490 C   0  0  0  0  0  0
  -24.1486  -36.7331   23.2636 C   0  0  0  0  0  0
  -25.9264  -30.8435   21.3614 C   0  0  0  0  0  0
  -26.0039  -29.4809   20.7064 C   0  0  0  0  0  0
  -27.2013  -28.7330   20.6887 C   0  0  0  0  0  0
  -26.0523  -26.9535   19.4929 C   0  0  0  0  0  0
  -24.8633  -27.7032   19.5026 C   0  0  0  0  0  0
  -23.6045  -29.8294   20.1660 C   0  0  0  0  0  0
  -25.4099  -36.3112   24.0343 C   0  0  1  0  0  0
  -20.5855  -28.3670   23.1337 C   0  0  2  0  0  0
  -20.6769  -26.9410   22.5425 C   0  0  0  0  0  0
  -19.5752  -26.6399   21.5224 C   0  0  0  0  0  0
  -18.1924  -26.7941   22.1628 C   0  0  0  0  0  0
  -19.1516  -28.8850   23.2913 C   0  0  0  0  0  0
  -18.9441  -30.1461   23.8921 C   0  0  0  0  0  0
  -17.6441  -30.6597   24.0575 C   0  0  0  0  0  0
  -25.9020  -34.9477   23.5134 C   0  0  0  0  0  0
  -16.5336  -29.9095   23.6333 C   0  0  0  0  0  0
  -16.7251  -28.6522   23.0337 C   0  0  0  0  0  0
  -26.4448  -31.6605   25.0721 C   0  0  0  0  0  0
  -25.3720  -31.3714   26.1477 C   0  0  0  0  0  0
  -27.0278  -30.3042   24.6087 C   0  0  0  0  0  0
  -27.6028  -32.4324   25.7479 C   0  0  0  0  0  0
  -27.5585  -37.1809   24.8459 C   0  0  0  0  0  0
  -21.4124  -29.3038   22.3744 N   0  0  0  0  0  0
  -26.4292  -37.3793   23.9407 N   0  0  0  0  0  0
  -24.6640  -31.0828   22.1005 N   0  0  0  0  0  0
  -23.4177  -28.8190   23.3023 O   0  0  0  0  0  0
  -28.4135  -26.7397   20.1279 O   0  0  0  0  0  0
  -26.5592  -34.8929   22.4701 O   0  0  0  0  0  0
  -23.5314  -32.1431   23.7540 O   0  0  0  0  0  0
  -30.2175  -19.9565   20.6001 C   0  0  0  0  0  0
  -30.2881  -18.6917   20.0853 C   0  0  0  0  0  0
  -29.3208  -18.6133   19.0309 C   0  0  0  0  0  0
  -28.6891  -19.8351   18.9630 C   0  0  0  0  0  0
  -27.5846  -20.3413   18.0794 C   0  0  0  0  0  0
  -29.2705  -17.6576   16.6739 C   0  0  0  0  0  0
  -27.6706  -16.8024   18.4667 C   0  0  0  0  0  0
  -25.9163  -23.2627   22.4258 C   0  0  0  0  0  0
  -31.2638  -17.6269   20.5459 C   0  0  0  0  0  0
  -27.9008  -22.1650   21.3437 C   0  0  0  0  0  0
  -27.7123  -24.7677   21.4548 C   0  0  0  0  0  0
  -28.9025  -22.0563   20.1818 C   0  0  0  0  0  0
  -30.7408  -16.6886   21.6658 C   0  0  0  0  0  0
  -28.3351  -25.3093   20.1422 C   0  0  0  0  0  0
  -29.0528  -17.3919   18.1714 C   0  0  0  0  0  0
  -26.9815  -23.4080   21.3238 C   0  0  2  0  0  0
  -29.2567  -20.6674   19.9159 N   0  0  0  0  0  0
  -30.1172  -15.4315   21.2255 N   0  0  0  0  0  0
  -31.4577  -12.3804   19.1018 H   0  0  0  0  0  0
  -30.3010  -11.2864   19.8049 H   0  0  0  0  0  0
  -29.7184  -11.7861   17.4107 H   0  0  0  0  0  0
  -29.6547  -13.4955   17.7659 H   0  0  0  0  0  0
  -27.8173  -11.3122   18.8074 H   0  0  0  0  0  0
  -27.3545  -12.6489   17.7877 H   0  0  0  0  0  0
  -27.7045  -14.2491   19.5856 H   0  0  0  0  0  0
  -28.6816  -11.9601   21.3460 H   0  0  0  0  0  0
  -28.4743  -13.6036   21.8648 H   0  0  0  0  0  0
  -25.2758   -9.5667   22.4768 H   0  0  0  0  0  0
  -23.9996   -7.4617   22.7479 H   0  0  0  0  0  0
  -21.0833   -8.8768   19.8949 H   0  0  0  0  0  0
  -22.3700  -10.9668   19.6169 H   0  0  0  0  0  0
  -21.1992   -7.6146   23.9721 H   0  0  0  0  0  0
  -21.1483   -6.0521   25.9084 H   0  0  0  0  0  0
  -22.0596   -2.7608   23.2849 H   0  0  0  0  0  0
  -22.4072  -11.9869   22.4799 H   0  0  0  0  0  0
  -21.1099  -13.1255   22.2612 H   0  0  0  0  0  0
  -24.6432  -15.8291   20.5154 H   0  0  0  0  0  0
  -26.2601  -15.6250   20.0698 H   0  0  0  0  0  0
  -26.7087  -32.5548   23.1182 H   0  0  0  0  0  0
  -24.9991  -33.9792   25.0447 H   0  0  0  0  0  0
  -22.6853  -31.3099   21.4167 H   0  0  0  0  0  0
  -23.3741  -35.9672   23.3301 H   0  0  0  0  0  0
  -24.3571  -36.8947   22.2049 H   0  0  0  0  0  0
  -23.7267  -37.6545   23.6652 H   0  0  0  0  0  0
  -26.0377  -31.6124   20.5950 H   0  0  0  0  0  0
  -26.8161  -30.8967   21.9775 H   0  0  0  0  0  0
  -28.0969  -29.1240   21.1512 H   0  0  0  0  0  0
  -26.0210  -25.9893   19.0095 H   0  0  0  0  0  0
  -23.9736  -27.3015   19.0382 H   0  0  0  0  0  0
  -23.7106  -30.6063   19.4078 H   0  0  0  0  0  0
  -22.7294  -29.2475   19.8699 H   0  0  0  0  0  0
  -25.1275  -36.1980   25.0837 H   0  0  0  0  0  0
  -20.9961  -28.3244   24.1454 H   0  0  0  0  0  0
  -20.5725  -26.2262   23.3595 H   0  0  0  0  0  0
  -21.6635  -26.7486   22.1192 H   0  0  0  0  0  0
  -19.6930  -25.6317   21.1242 H   0  0  0  0  0  0
  -19.6721  -27.3232   20.6772 H   0  0  0  0  0  0
  -17.4202  -26.6689   21.4019 H   0  0  0  0  0  0
  -18.0315  -26.0089   22.9030 H   0  0  0  0  0  0
  -19.7916  -30.7272   24.2310 H   0  0  0  0  0  0
  -17.4995  -31.6283   24.5171 H   0  0  0  0  0  0
  -15.5343  -30.3005   23.7671 H   0  0  0  0  0  0
  -15.8641  -28.0869   22.7026 H   0  0  0  0  0  0
  -24.5868  -30.7089   25.7816 H   0  0  0  0  0  0
  -24.8931  -32.2871   26.4946 H   0  0  0  0  0  0
  -25.8064  -30.8856   27.0225 H   0  0  0  0  0  0
  -26.2821  -29.6811   24.1123 H   0  0  0  0  0  0
  -27.4044  -29.7262   25.4542 H   0  0  0  0  0  0
  -27.8655  -30.4363   23.9234 H   0  0  0  0  0  0
  -27.2639  -33.3611   26.2085 H   0  0  0  0  0  0
  -28.3804  -32.6917   25.0281 H   0  0  0  0  0  0
  -28.0725  -31.8436   26.5369 H   0  0  0  0  0  0
  -28.2592  -38.0116   24.7494 H   0  0  0  0  0  0
  -28.1102  -36.2645   24.6292 H   0  0  0  0  0  0
  -27.2302  -37.1459   25.8864 H   0  0  0  0  0  0
  -20.9285  -29.8732   21.6938 H   0  0  0  0  0  0
  -26.0195  -38.2879   24.1390 H   0  0  0  0  0  0
  -30.7790  -20.4260   21.3985 H   0  0  0  0  0  0
  -27.1124  -19.5499   17.5031 H   0  0  0  0  0  0
  -27.9645  -21.0768   17.3700 H   0  0  0  0  0  0
  -26.7969  -20.8153   18.6653 H   0  0  0  0  0  0
  -30.2827  -18.0144   16.4839 H   0  0  0  0  0  0
  -28.5816  -18.4009   16.2782 H   0  0  0  0  0  0
  -29.1292  -16.7448   16.0947 H   0  0  0  0  0  0
  -27.5857  -16.5895   19.5314 H   0  0  0  0  0  0
  -27.5106  -15.8751   17.9158 H   0  0  0  0  0  0
  -26.8605  -17.4803   18.2051 H   0  0  0  0  0  0
  -25.3337  -22.3497   22.2979 H   0  0  0  0  0  0
  -25.2109  -24.0946   22.4098 H   0  0  0  0  0  0
  -26.3655  -23.2244   23.4193 H   0  0  0  0  0  0
  -32.1312  -18.1603   20.9393 H   0  0  0  0  0  0
  -31.6474  -17.0819   19.6845 H   0  0  0  0  0  0
  -28.4366  -22.0966   22.2924 H   0  0  0  0  0  0
  -27.2589  -21.2833   21.3151 H   0  0  0  0  0  0
  -26.9840  -25.4960   21.8115 H   0  0  0  0  0  0
  -28.4682  -24.7281   22.2405 H   0  0  0  0  0  0
  -29.8107  -22.6157   20.4078 H   0  0  0  0  0  0
  -28.4932  -22.4979   19.2742 H   0  0  0  0  0  0
  -30.0612  -17.2273   22.3267 H   0  0  0  0  0  0
  -31.5887  -16.4036   22.2905 H   0  0  0  0  0  0
  -27.8208  -24.9335   19.2576 H   0  0  0  0  0  0
  -29.3528  -24.9309   20.0528 H   0  0  0  0  0  0
  -29.7776  -16.6305   18.4566 H   0  0  0  0  0  0
  -26.4348  -23.4110   20.3789 H   0  0  0  0  0  0
  -29.1711  -15.2557   21.5289 H   0  0  0  0  0  0
  1 25  1  0  0  0
  1 30  2  0  0  0
  1 88  1  0  0  0
  2  3  1  0  0  0
  2 25  1  0  0  0
  2 89  1  0  0  0
  2 90  1  0  0  0
  3  4  1  0  0  0
  3 91  1  0  0  0
  3 92  1  0  0  0
  4  5  1  0  0  0
  4 93  1  0  0  0
  4 94  1  0  0  0
  5  6  1  0  0  0
  5 26  1  0  0  0
  5 95  1  0  0  0
  6 25  1  0  0  0
  6 96  1  0  0  0
  6 97  1  0  0  0
  7  8  2  0  0  0
  7 26  1  0  0  0
  7 29  1  0  0  0
  8  9  1  0  0  0
  8 22  1  0  0  0
  9 10  1  0  0  0
  9 27  2  0  0  0
 10 11  2  0  0  0
 10 15  1  0  0  0
 11 12  1  0  0  0
 11 98  1  0  0  0
 12 13  2  0  0  0
 12 99  1  0  0  0
 13 14  1  0  0  0
 13 31  1  0  0  0
 14 15  2  0  0  0
 14100  1  0  0  0
 15101  1  0  0  0
 16 17  2  0  0  0
 16 21  1  0  0  0
 16 31  1  0  0  0
 17 18  1  0  0  0
 17102  1  0  0  0
 18 19  2  0  0  0
 18103  1  0  0  0
 19 20  1  0  0  0
 19 24  1  0  0  0
 20 21  2  0  0  0
 20104  1  0  0  0
 21 23  1  0  0  0
 22 28  1  0  0  0
 22 32  2  0  0  0
 26 27  1  0  0  0
 28105  1  0  0  0
 28106  1  0  0  0
 29107  1  0  0  0
 29108  1  0  0  0
 33 34  1  0  0  0
 33 66  1  0  0  0
 33 70  2  0  0  0
 34 36  1  0  0  0
 34 59  1  0  0  0
 34109  1  0  0  0
 35 44  2  0  0  0
 35 45  1  0  0  0
 35 68  1  0  0  0
 36 56  1  0  0  0
 36110  1  0  0  0
 37 39  1  0  0  0
 37 47  1  0  0  0
 37 66  1  0  0  0
 37111  1  0  0  0
 38 43  2  0  0  0
 38 46  1  0  0  0
 38 47  1  0  0  0
 39 64  1  0  0  0
 39 67  2  0  0  0
 40 52  1  0  0  0
 40 53  2  0  0  0
 40 58  1  0  0  0
 41112  1  0  0  0
 41113  1  0  0  0
 41114  1  0  0  0
 41 48  1  0  0  0
 42 43  1  0  0  0
 42 66  1  0  0  0
 42115  1  0  0  0
 42116  1  0  0  0
 43 44  1  0  0  0
 44117  1  0  0  0
 45 46  2  0  0  0
 45118  1  0  0  0
 46119  1  0  0  0
 47120  1  0  0  0
 47121  1  0  0  0
 48 56  1  0  0  0
 48 65  1  0  0  0
 48122  1  0  0  0
 49 50  1  0  0  0
 49 53  1  0  0  0
 49 64  1  0  0  0
 49123  1  0  0  0
 50 51  1  0  0  0
 50124  1  0  0  0
 50125  1  0  0  0
 51 52  1  0  0  0
 51126  1  0  0  0
 51127  1  0  0  0
 52128  1  0  0  0
 52129  1  0  0  0
 53 54  1  0  0  0
 54 55  2  0  0  0
 54130  1  0  0  0
 55 57  1  0  0  0
 55131  1  0  0  0
 56 69  2  0  0  0
 57 58  2  0  0  0
 57132  1  0  0  0
 58133  1  0  0  0
 59 60  1  0  0  0
 59 61  1  0  0  0
 59 62  1  0  0  0
 60134  1  0  0  0
 60135  1  0  0  0
 60136  1  0  0  0
 61137  1  0  0  0
 61138  1  0  0  0
 61139  1  0  0  0
 62140  1  0  0  0
 62141  1  0  0  0
 62142  1  0  0  0
 63 65  1  0  0  0
 63143  1  0  0  0
 63144  1  0  0  0
 63145  1  0  0  0
 64146  1  0  0  0
 65147  1  0  0  0
 68 84  1  0  0  0
 71 72  2  0  0  0
 71 87  1  0  0  0
 71148  1  0  0  0
 72 73  1  0  0  0
 72 79  1  0  0  0
 73 74  2  0  0  0
 73 85  1  0  0  0
 74 75  1  0  0  0
 74 87  1  0  0  0
 75149  1  0  0  0
 75150  1  0  0  0
 75151  1  0  0  0
 76152  1  0  0  0
 76153  1  0  0  0
 76154  1  0  0  0
 76 85  1  0  0  0
 77 85  1  0  0  0
 77155  1  0  0  0
 77156  1  0  0  0
 77157  1  0  0  0
 78158  1  0  0  0
 78159  1  0  0  0
 78160  1  0  0  0
 78 86  1  0  0  0
 79 83  1  0  0  0
 79161  1  0  0  0
 79162  1  0  0  0
 80 82  1  0  0  0
 80 86  1  0  0  0
 80163  1  0  0  0
 80164  1  0  0  0
 81 84  1  0  0  0
 81 86  1  0  0  0
 81165  1  0  0  0
 81166  1  0  0  0
 82 87  1  0  0  0
 82167  1  0  0  0
 82168  1  0  0  0
 83 88  1  0  0  0
 83169  1  0  0  0
 83170  1  0  0  0
 84171  1  0  0  0
 84172  1  0  0  0
 85173  1  0  0  0
 86174  1  0  0  0
 88175  1  0  0  0
M  ISO  4   1 100  68 101  84 101  88 100
M  END
> <chiral flag>
0

> <version>
0

> <s_m_source_file>
/data/baiqing/PycharmProjects/Reinvent-master-3.2/result/LINK_invent/BTK/process_docking_weight1_custom_sum_contain_oxygen_bond_distance_aromatic_linkinvent_7_9_3/rearranged_h_0096.sdf

> <i_m_source_file_index>
60

> <r_mmod_Potential_Energy-OPLS-2005>
-101.266883850098

> <r_mmod_Stretch_Energy-OPLS-2005>
33.9543418884277

> <r_mmod_Bend_Energy-OPLS-2005>
109.477661132812

> <r_mmod_Torsional_Energy-OPLS-2005>
234.72526550293

> <r_mmod_Improper_Torsional_Energy-OPLS-2005>
2.42743062973022

> <r_mmod_Van_der_Waal_Energy-OPLS-2005>
120.031860351562

> <r_mmod_Electrostatic_Energy-OPLS-2005>
-417.311614990234

> <r_mmod_Solvation_Energy-OPLS-2005>
-196.530715942383

> <b_mmod_Minimization_Converged-OPLS-2005>
0

> <r_mmod_RMS_Derivative-OPLS-2005>
1.81465089321136

$$$$
60
                    3D
 Structure written by MMmdl.
175183  0  0  1  0            999 V2000
  -30.7556  -14.4025   20.6233 C   0  0  0  0  0  0
  -30.4077  -12.2900   19.4002 C   0  0  0  0  0  0
  -29.4767  -12.5081   18.1935 C   0  0  0  0  0  0
  -28.0033  -12.3529   18.6136 C   0  0  0  0  0  0
  -27.6579  -13.1818   19.8771 C   0  0  2  0  0  0
  -28.7028  -12.9674   20.9935 C   0  0  0  0  0  0
  -25.2566  -13.8067   20.5711 C   0  0  0  0  0  0
  -24.1807  -13.0383   20.9197 C   0  0  0  0  0  0
  -24.6342  -11.6849   20.8763 C   0  0  0  0  0  0
  -23.9010  -10.4259   21.0416 C   0  0  0  0  0  0
  -24.3576   -9.4184   21.9188 C   0  0  0  0  0  0
  -23.6269   -8.2220   22.0753 C   0  0  0  0  0  0
  -22.4252   -8.0258   21.3543 C   0  0  0  0  0  0
  -21.9878   -9.0220   20.4642 C   0  0  0  0  0  0
  -22.7192  -10.2104   20.3052 C   0  0  0  0  0  0
  -21.6838   -6.0721   22.5279 C   0  0  0  0  0  0
  -21.4005   -6.5630   23.8211 C   0  0  0  0  0  0
  -21.3661   -5.6788   24.9178 C   0  0  0  0  0  0
  -21.6046   -4.3050   24.7230 C   0  0  0  0  0  0
  -21.8822   -3.8137   23.4350 C   0  0  0  0  0  0
  -21.9191   -4.6954   22.3405 C   0  0  0  0  0  0
  -22.7838  -13.5212   21.1862 C   0  0  0  0  0  0
  -22.1661   -4.2138   21.0985 F   0  0  0  0  0  0
  -21.5634   -3.4537   25.7744 F   0  0  0  0  0  0
  -30.0351  -13.2649   20.4363 N   0  0  0  0  0  0
  -26.2994  -12.9212   20.3403 N   0  0  0  0  0  0
  -25.9258  -11.6395   20.5784 N   0  0  0  0  0  0
  -22.0466  -12.8214   22.0410 N   0  0  0  0  0  0
  -25.4242  -15.1786   20.4156 N   0  0  0  0  0  0
  -31.8440  -14.6025   20.0781 O   0  0  0  0  0  0
  -21.6623   -6.8854   21.4237 O   0  0  0  0  0  0
  -22.3541  -14.5529   20.6706 O   0  0  0  0  0  0
  -24.6156  -31.8677   23.2101 C   0  0  0  0  0  0
  -25.9049  -32.4820   23.8398 C   0  0  1  0  0  0
  -27.2446  -27.4458   20.0869 C   0  0  0  0  0  0
  -25.5877  -33.8612   24.2347 N   0  0  0  0  0  0
  -23.4022  -30.4896   21.5528 C   0  0  2  0  0  0
  -24.8457  -28.9550   20.1196 C   0  0  0  0  0  0
  -22.7439  -29.4644   22.5024 C   0  0  0  0  0  0
  -18.0271  -28.1360   22.8498 C   0  0  0  0  0  0
  -24.1484  -36.7312   23.2636 C   0  0  0  0  0  0
  -25.9293  -30.8370   21.3603 C   0  0  0  0  0  0
  -26.0049  -29.4723   20.7071 C   0  0  0  0  0  0
  -27.2020  -28.7257   20.6845 C   0  0  0  0  0  0
  -26.0587  -26.9324   19.5074 C   0  0  0  0  0  0
  -24.8656  -27.6838   19.5191 C   0  0  0  0  0  0
  -23.6076  -29.8200   20.1685 C   0  0  0  0  0  0
  -25.4094  -36.3095   24.0341 C   0  0  1  0  0  0
  -20.5871  -28.3635   23.1334 C   0  0  2  0  0  0
  -20.6760  -26.9373   22.5428 C   0  0  0  0  0  0
  -19.5741  -26.6366   21.5221 C   0  0  0  0  0  0
  -18.1909  -26.7908   22.1618 C   0  0  0  0  0  0
  -19.1530  -28.8821   23.2896 C   0  0  0  0  0  0
  -18.9459  -30.1440   23.8893 C   0  0  0  0  0  0
  -17.6459  -30.6563   24.0567 C   0  0  0  0  0  0
  -25.9012  -34.9460   23.5141 C   0  0  0  0  0  0
  -16.5345  -29.9063   23.6330 C   0  0  0  0  0  0
  -16.7262  -28.6479   23.0349 C   0  0  0  0  0  0
  -26.4502  -31.6583   25.0707 C   0  0  0  0  0  0
  -25.3785  -31.3656   26.1471 C   0  0  0  0  0  0
  -27.0369  -30.3032   24.6058 C   0  0  0  0  0  0
  -27.6073  -32.4313   25.7467 C   0  0  0  0  0  0
  -27.5589  -37.1795   24.8464 C   0  0  0  0  0  0
  -21.4173  -29.3000   22.3759 N   0  0  0  0  0  0
  -26.4292  -37.3779   23.9416 N   0  0  0  0  0  0
  -24.6677  -31.0778   22.1001 N   0  0  0  0  0  0
  -23.4223  -28.8200   23.3076 O   0  0  0  0  0  0
  -28.4610  -26.7882   20.0978 O   0  0  0  0  0  0
  -26.5594  -34.8908   22.4716 O   0  0  0  0  0  0
  -23.5358  -32.1434   23.7491 O   0  0  0  0  0  0
  -30.1211  -19.7947   21.3684 C   0  0  0  0  0  0
  -30.2558  -18.6399   20.6513 C   0  0  0  0  0  0
  -29.2655  -18.6759   19.6182 C   0  0  0  0  0  0
  -28.5290  -19.8271   19.7927 C   0  0  0  0  0  0
  -27.3390  -20.3529   19.0430 C   0  0  0  0  0  0
  -29.0607  -18.1661   17.1240 C   0  0  0  0  0  0
  -27.8370  -16.7683   18.8544 C   0  0  0  0  0  0
  -27.2429  -24.5206   21.6698 C   0  0  0  0  0  0
  -29.7331  -24.8284   21.8969 C   0  0  0  0  0  0
  -31.3080  -17.5792   20.9171 C   0  0  0  0  0  0
  -28.8553  -22.9989   20.3914 C   0  0  0  0  0  0
  -28.6491  -21.8286   21.3840 C   0  0  0  0  0  0
  -30.9092  -16.5025   21.9607 C   0  0  0  0  0  0
  -28.5914  -25.4124   19.7180 C   0  0  0  0  0  0
  -29.0748  -17.6088   18.5556 C   0  0  0  0  0  0
  -28.5953  -24.4357   20.9310 C   0  0  0  0  0  0
  -29.0823  -20.5384   20.8505 N   0  0  0  0  0  0
  -30.2119  -15.3207   21.4350 N   0  0  0  0  0  0
  -31.4519  -12.3742   19.0943 H   0  0  0  0  0  0
  -30.2964  -11.2765   19.7878 H   0  0  0  0  0  0
  -29.7134  -11.7979   17.4009 H   0  0  0  0  0  0
  -29.6372  -13.5023   17.7738 H   0  0  0  0  0  0
  -27.8206  -11.2946   18.8042 H   0  0  0  0  0  0
  -27.3433  -12.6293   17.7906 H   0  0  0  0  0  0
  -27.7031  -14.2205   19.5809 H   0  0  0  0  0  0
  -28.6788  -11.9316   21.3360 H   0  0  0  0  0  0
  -28.4576  -13.5656   21.8717 H   0  0  0  0  0  0
  -25.2712   -9.5677   22.4766 H   0  0  0  0  0  0
  -23.9980   -7.4612   22.7469 H   0  0  0  0  0  0
  -21.0812   -8.8731   19.8943 H   0  0  0  0  0  0
  -22.3646  -10.9645   19.6169 H   0  0  0  0  0  0
  -21.1990   -7.6138   23.9712 H   0  0  0  0  0  0
  -21.1483   -6.0519   25.9082 H   0  0  0  0  0  0
  -22.0601   -2.7599   23.2855 H   0  0  0  0  0  0
  -22.4065  -11.9865   22.4791 H   0  0  0  0  0  0
  -21.1087  -13.1248   22.2613 H   0  0  0  0  0  0
  -24.6541  -15.8289   20.5259 H   0  0  0  0  0  0
  -26.2737  -15.6197   20.0882 H   0  0  0  0  0  0
  -26.7123  -32.5570   23.1168 H   0  0  0  0  0  0
  -25.0036  -33.9775   25.0499 H   0  0  0  0  0  0
  -22.6870  -31.3028   21.4138 H   0  0  0  0  0  0
  -23.3728  -35.9671   23.3309 H   0  0  0  0  0  0
  -24.3572  -36.8925   22.2053 H   0  0  0  0  0  0
  -23.7273  -37.6522   23.6664 H   0  0  0  0  0  0
  -26.0405  -31.6034   20.5921 H   0  0  0  0  0  0
  -26.8198  -30.8905   21.9759 H   0  0  0  0  0  0
  -28.1029  -29.1274   21.1266 H   0  0  0  0  0  0
  -26.0196  -25.9630   19.0361 H   0  0  0  0  0  0
  -23.9719  -27.2791   19.0633 H   0  0  0  0  0  0
  -23.7109  -30.5949   19.4070 H   0  0  0  0  0  0
  -22.7343  -29.2321   19.8802 H   0  0  0  0  0  0
  -25.1271  -36.1952   25.0835 H   0  0  0  0  0  0
  -20.9944  -28.3200   24.1465 H   0  0  0  0  0  0
  -20.5693  -26.2227   23.3606 H   0  0  0  0  0  0
  -21.6623  -26.7432   22.1222 H   0  0  0  0  0  0
  -19.6905  -25.6289   21.1227 H   0  0  0  0  0  0
  -19.6693  -27.3205   20.6782 H   0  0  0  0  0  0
  -17.4198  -26.6691   21.3989 H   0  0  0  0  0  0
  -18.0268  -26.0045   22.9010 H   0  0  0  0  0  0
  -19.7947  -30.7246   24.2255 H   0  0  0  0  0  0
  -17.5012  -31.6249   24.5170 H   0  0  0  0  0  0
  -15.5338  -30.2955   23.7648 H   0  0  0  0  0  0
  -15.8665  -28.0793   22.7055 H   0  0  0  0  0  0
  -24.5938  -30.7019   25.7808 H   0  0  0  0  0  0
  -24.8989  -32.2793   26.4986 H   0  0  0  0  0  0
  -25.8149  -30.8781   27.0199 H   0  0  0  0  0  0
  -26.2907  -29.6689   24.1244 H   0  0  0  0  0  0
  -27.4327  -29.7335   25.4482 H   0  0  0  0  0  0
  -27.8645  -30.4364   23.9081 H   0  0  0  0  0  0
  -27.2691  -33.3607   26.2071 H   0  0  0  0  0  0
  -28.3860  -32.6899   25.0271 H   0  0  0  0  0  0
  -28.0775  -31.8429   26.5363 H   0  0  0  0  0  0
  -28.2593  -38.0109   24.7507 H   0  0  0  0  0  0
  -28.1102  -36.2630   24.6286 H   0  0  0  0  0  0
  -27.2300  -37.1429   25.8867 H   0  0  0  0  0  0
  -20.9331  -29.8699   21.6963 H   0  0  0  0  0  0
  -26.0174  -38.2854   24.1420 H   0  0  0  0  0  0
  -30.6905  -20.1575   22.2142 H   0  0  0  0  0  0
  -26.7164  -19.5483   18.6583 H   0  0  0  0  0  0
  -27.6524  -20.9593   18.1944 H   0  0  0  0  0  0
  -26.6945  -20.9665   19.6715 H   0  0  0  0  0  0
  -29.9495  -18.7666   16.9273 H   0  0  0  0  0  0
  -28.1871  -18.7873   16.9303 H   0  0  0  0  0  0
  -29.0455  -17.3531   16.3958 H   0  0  0  0  0  0
  -27.9230  -16.3523   19.8573 H   0  0  0  0  0  0
  -27.7365  -15.9527   18.1375 H   0  0  0  0  0  0
  -26.9177  -17.3497   18.8220 H   0  0  0  0  0  0
  -27.1861  -23.8338   22.5144 H   0  0  0  0  0  0
  -26.4079  -24.3026   21.0032 H   0  0  0  0  0  0
  -27.0874  -25.5179   22.0814 H   0  0  0  0  0  0
  -29.7491  -24.1966   22.7850 H   0  0  0  0  0  0
  -29.6365  -25.8601   22.2375 H   0  0  0  0  0  0
  -30.7070  -24.7401   21.4150 H   0  0  0  0  0  0
  -32.1790  -18.1081   21.3065 H   0  0  0  0  0  0
  -31.6574  -17.1436   19.9816 H   0  0  0  0  0  0
  -28.2124  -22.8336   19.5297 H   0  0  0  0  0  0
  -29.8720  -22.9472   19.9989 H   0  0  0  0  0  0
  -27.6009  -21.7377   21.6673 H   0  0  0  0  0  0
  -29.1957  -22.0158   22.3079 H   0  0  0  0  0  0
  -30.3267  -16.9483   22.7676 H   0  0  0  0  0  0
  -31.8226  -16.1348   22.4323 H   0  0  0  0  0  0
  -27.8752  -25.1040   18.9603 H   0  0  0  0  0  0
  -29.5554  -25.3348   19.2136 H   0  0  0  0  0  0
  -29.9287  -16.9344   18.6106 H   0  0  0  0  0  0
  -29.3105  -15.1003   21.8328 H   0  0  0  0  0  0
  1 25  1  0  0  0
  1 30  2  0  0  0
  1 88  1  0  0  0
  2  3  1  0  0  0
  2 25  1  0  0  0
  2 89  1  0  0  0
  2 90  1  0  0  0
  3  4  1  0  0  0
  3 91  1  0  0  0
  3 92  1  0  0  0
  4  5  1  0  0  0
  4 93  1  0  0  0
  4 94  1  0  0  0
  5  6  1  0  0  0
  5 26  1  0  0  0
  5 95  1  0  0  0
  6 25  1  0  0  0
  6 96  1  0  0  0
  6 97  1  0  0  0
  7  8  2  0  0  0
  7 26  1  0  0  0
  7 29  1  0  0  0
  8  9  1  0  0  0
  8 22  1  0  0  0
  9 10  1  0  0  0
  9 27  2  0  0  0
 10 11  2  0  0  0
 10 15  1  0  0  0
 11 12  1  0  0  0
 11 98  1  0  0  0
 12 13  2  0  0  0
 12 99  1  0  0  0
 13 14  1  0  0  0
 13 31  1  0  0  0
 14 15  2  0  0  0
 14100  1  0  0  0
 15101  1  0  0  0
 16 17  2  0  0  0
 16 21  1  0  0  0
 16 31  1  0  0  0
 17 18  1  0  0  0
 17102  1  0  0  0
 18 19  2  0  0  0
 18103  1  0  0  0
 19 20  1  0  0  0
 19 24  1  0  0  0
 20 21  2  0  0  0
 20104  1  0  0  0
 21 23  1  0  0  0
 22 28  1  0  0  0
 22 32  2  0  0  0
 26 27  1  0  0  0
 28105  1  0  0  0
 28106  1  0  0  0
 29107  1  0  0  0
 29108  1  0  0  0
 33 34  1  0  0  0
 33 66  1  0  0  0
 33 70  2  0  0  0
 34 36  1  0  0  0
 34 59  1  0  0  0
 34109  1  0  0  0
 35 44  2  0  0  0
 35 45  1  0  0  0
 35 68  1  0  0  0
 36 56  1  0  0  0
 36110  1  0  0  0
 37 39  1  0  0  0
 37 47  1  0  0  0
 37 66  1  0  0  0
 37111  1  0  0  0
 38 43  2  0  0  0
 38 46  1  0  0  0
 38 47  1  0  0  0
 39 64  1  0  0  0
 39 67  2  0  0  0
 40 52  1  0  0  0
 40 53  2  0  0  0
 40 58  1  0  0  0
 41112  1  0  0  0
 41113  1  0  0  0
 41114  1  0  0  0
 41 48  1  0  0  0
 42 43  1  0  0  0
 42 66  1  0  0  0
 42115  1  0  0  0
 42116  1  0  0  0
 43 44  1  0  0  0
 44117  1  0  0  0
 45 46  2  0  0  0
 45118  1  0  0  0
 46119  1  0  0  0
 47120  1  0  0  0
 47121  1  0  0  0
 48 56  1  0  0  0
 48 65  1  0  0  0
 48122  1  0  0  0
 49 50  1  0  0  0
 49 53  1  0  0  0
 49 64  1  0  0  0
 49123  1  0  0  0
 50 51  1  0  0  0
 50124  1  0  0  0
 50125  1  0  0  0
 51 52  1  0  0  0
 51126  1  0  0  0
 51127  1  0  0  0
 52128  1  0  0  0
 52129  1  0  0  0
 53 54  1  0  0  0
 54 55  2  0  0  0
 54130  1  0  0  0
 55 57  1  0  0  0
 55131  1  0  0  0
 56 69  2  0  0  0
 57 58  2  0  0  0
 57132  1  0  0  0
 58133  1  0  0  0
 59 60  1  0  0  0
 59 61  1  0  0  0
 59 62  1  0  0  0
 60134  1  0  0  0
 60135  1  0  0  0
 60136  1  0  0  0
 61137  1  0  0  0
 61138  1  0  0  0
 61139  1  0  0  0
 62140  1  0  0  0
 62141  1  0  0  0
 62142  1  0  0  0
 63 65  1  0  0  0
 63143  1  0  0  0
 63144  1  0  0  0
 63145  1  0  0  0
 64146  1  0  0  0
 65147  1  0  0  0
 68 84  1  0  0  0
 71 72  2  0  0  0
 71 87  1  0  0  0
 71148  1  0  0  0
 72 73  1  0  0  0
 72 80  1  0  0  0
 73 74  2  0  0  0
 73 85  1  0  0  0
 74 75  1  0  0  0
 74 87  1  0  0  0
 75149  1  0  0  0
 75150  1  0  0  0
 75151  1  0  0  0
 76152  1  0  0  0
 76153  1  0  0  0
 76154  1  0  0  0
 76 85  1  0  0  0
 77 85  1  0  0  0
 77155  1  0  0  0
 77156  1  0  0  0
 77157  1  0  0  0
 78158  1  0  0  0
 78159  1  0  0  0
 78160  1  0  0  0
 78 86  1  0  0  0
 79 86  1  0  0  0
 79161  1  0  0  0
 79162  1  0  0  0
 79163  1  0  0  0
 80 83  1  0  0  0
 80164  1  0  0  0
 80165  1  0  0  0
 81 82  1  0  0  0
 81 86  1  0  0  0
 81166  1  0  0  0
 81167  1  0  0  0
 82 87  1  0  0  0
 82168  1  0  0  0
 82169  1  0  0  0
 83 88  1  0  0  0
 83170  1  0  0  0
 83171  1  0  0  0
 84 86  1  0  0  0
 84172  1  0  0  0
 84173  1  0  0  0
 85174  1  0  0  0
 88175  1  0  0  0
M  ISO  4   1 100  68 101  84 101  88 100
M  END
> <chiral flag>
0

> <version>
0

> <s_m_source_file>
/data/baiqing/PycharmProjects/Reinvent-master-3.2/result/LINK_invent/BTK/process_docking_weight1_custom_sum_contain_oxygen_bond_distance_aromatic_linkinvent_7_9_3/rearranged_h_0096.sdf

> <i_m_source_file_index>
61

> <r_mmod_Potential_Energy-OPLS-2005>
-114.440567016602

> <r_mmod_Stretch_Energy-OPLS-2005>
35.8216018676758

> <r_mmod_Bend_Energy-OPLS-2005>
123.14315032959

> <r_mmod_Torsional_Energy-OPLS-2005>
220.684539794922

> <r_mmod_Improper_Torsional_Energy-OPLS-2005>
2.03254914283752

> <r_mmod_Van_der_Waal_Energy-OPLS-2005>
123.897384643555

> <r_mmod_Electrostatic_Energy-OPLS-2005>
-436.512451171875

> <r_mmod_Solvation_Energy-OPLS-2005>
-193.870758056641

> <b_mmod_Minimization_Converged-OPLS-2005>
0

> <r_mmod_RMS_Derivative-OPLS-2005>
2.37249565124512

$$$$
61
                    3D
 Structure written by MMmdl.
169177  0  0  1  0            999 V2000
  -30.6512  -14.4382   20.5818 C   0  0  0  0  0  0
  -30.4325  -12.2946   19.3870 C   0  0  0  0  0  0
  -29.4919  -12.4811   18.1733 C   0  0  0  0  0  0
  -28.0041  -12.3746   18.5905 C   0  0  0  0  0  0
  -27.6517  -13.1982   19.8651 C   0  0  2  0  0  0
  -28.7011  -12.9368   20.9636 C   0  0  0  0  0  0
  -25.2527  -13.8138   20.5754 C   0  0  0  0  0  0
  -24.1782  -13.0420   20.9241 C   0  0  0  0  0  0
  -24.6361  -11.6835   20.8672 C   0  0  0  0  0  0
  -23.9083  -10.4202   21.0308 C   0  0  0  0  0  0
  -24.3617   -9.4131   21.9102 C   0  0  0  0  0  0
  -23.6258   -8.2234   22.0760 C   0  0  0  0  0  0
  -22.4229   -8.0260   21.3594 C   0  0  0  0  0  0
  -21.9872   -9.0201   20.4617 C   0  0  0  0  0  0
  -22.7285  -10.2032   20.2961 C   0  0  0  0  0  0
  -21.6839   -6.0708   22.5311 C   0  0  0  0  0  0
  -21.3968   -6.5577   23.8241 C   0  0  0  0  0  0
  -21.3656   -5.6733   24.9159 C   0  0  0  0  0  0
  -21.6053   -4.3014   24.7234 C   0  0  0  0  0  0
  -21.8840   -3.8146   23.4339 C   0  0  0  0  0  0
  -21.9160   -4.6940   22.3391 C   0  0  0  0  0  0
  -22.7799  -13.5233   21.1987 C   0  0  0  0  0  0
  -22.1636   -4.2123   21.0976 F   0  0  0  0  0  0
  -21.5616   -3.4495   25.7740 F   0  0  0  0  0  0
  -30.0149  -13.2586   20.4018 N   0  0  0  0  0  0
  -26.2946  -12.9277   20.3333 N   0  0  0  0  0  0
  -25.9271  -11.6412   20.5755 N   0  0  0  0  0  0
  -22.0522  -12.8002   22.0382 N   0  0  0  0  0  0
  -25.3986  -15.1921   20.4152 N   0  0  0  0  0  0
  -31.8286  -14.6371   20.2877 O   0  0  0  0  0  0
  -21.6608   -6.8879   21.4293 O   0  0  0  0  0  0
  -22.3467  -14.5554   20.6883 O   0  0  0  0  0  0
  -24.6103  -31.8743   23.2191 C   0  0  0  0  0  0
  -25.9021  -32.4880   23.8472 C   0  0  1  0  0  0
  -27.2472  -27.4903   20.0637 C   0  0  0  0  0  0
  -25.5941  -33.8669   24.2403 N   0  0  0  0  0  0
  -23.3959  -30.4987   21.5567 C   0  0  2  0  0  0
  -24.8477  -28.9736   20.1184 C   0  0  0  0  0  0
  -22.7375  -29.4677   22.5015 C   0  0  0  0  0  0
  -18.0251  -28.1363   22.8485 C   0  0  0  0  0  0
  -24.1450  -36.7296   23.2623 C   0  0  0  0  0  0
  -25.9207  -30.8478   21.3728 C   0  0  0  0  0  0
  -26.0054  -29.4905   20.7078 C   0  0  0  0  0  0
  -27.2097  -28.7624   20.6786 C   0  0  0  0  0  0
  -26.0695  -26.9793   19.4681 C   0  0  0  0  0  0
  -24.8685  -27.7164   19.4926 C   0  0  0  0  0  0
  -23.6020  -29.8336   20.1699 C   0  0  0  0  0  0
  -25.4078  -36.3126   24.0336 C   0  0  1  0  0  0
  -20.5835  -28.3667   23.1301 C   0  0  2  0  0  0
  -20.6774  -26.9401   22.5421 C   0  0  0  0  0  0
  -19.5760  -26.6355   21.5220 C   0  0  0  0  0  0
  -18.1910  -26.7922   22.1594 C   0  0  0  0  0  0
  -19.1504  -28.8832   23.2899 C   0  0  0  0  0  0
  -18.9438  -30.1450   23.8891 C   0  0  0  0  0  0
  -17.6462  -30.6603   24.0543 C   0  0  0  0  0  0
  -25.8988  -34.9542   23.5127 C   0  0  0  0  0  0
  -16.5336  -29.9087   23.6359 C   0  0  0  0  0  0
  -16.7253  -28.6494   23.0371 C   0  0  0  0  0  0
  -26.4464  -31.6660   25.0819 C   0  0  0  0  0  0
  -25.3722  -31.3812   26.1579 C   0  0  0  0  0  0
  -27.0297  -30.3096   24.6210 C   0  0  0  0  0  0
  -27.6018  -32.4416   25.7593 C   0  0  0  0  0  0
  -27.5555  -37.1801   24.8455 C   0  0  0  0  0  0
  -21.4112  -29.3072   22.3735 N   0  0  0  0  0  0
  -26.4263  -37.3823   23.9413 N   0  0  0  0  0  0
  -24.6582  -31.0846   22.1050 N   0  0  0  0  0  0
  -23.4175  -28.8196   23.3012 O   0  0  0  0  0  0
  -28.4209  -26.7767   20.0687 O   0  0  0  0  0  0
  -26.5488  -34.8924   22.4646 O   0  0  0  0  0  0
  -23.5307  -32.1487   23.7615 O   0  0  0  0  0  0
  -27.9730  -17.8596   22.2275 C   0  0  0  0  0  0
  -29.3535  -18.7186   20.6974 C   0  0  0  0  0  0
  -29.2451  -17.6910   21.5805 C   0  0  0  0  0  0
  -27.3284  -18.9376   21.6627 C   0  0  0  0  0  0
  -25.0859  -18.8093   22.9326 C   0  0  0  0  0  0
  -25.1167  -19.3542   20.4982 C   0  0  0  0  0  0
  -30.2657  -16.5971   21.7431 C   0  0  0  0  0  0
  -29.2378  -21.6919   19.9222 C   0  0  0  0  0  0
  -28.0410  -20.7187   19.9527 C   0  0  0  0  0  0
  -29.7385  -22.2177   21.2923 C   0  0  0  0  0  0
  -29.5682  -24.7011   20.7689 C   0  0  0  0  0  0
  -28.2599  -25.3877   20.3416 C   0  0  0  0  0  0
  -25.9146  -19.4678   21.8159 C   0  0  0  0  0  0
  -28.2362  -19.5263   20.7798 N   0  0  0  0  0  0
  -29.8328  -15.4193   21.0024 N   0  0  0  0  0  0
  -29.2273  -23.5609   21.6576 N   0  3  0  0  0  0
  -31.4806  -12.4236   19.0952 H   0  0  0  0  0  0
  -30.3485  -11.2777   19.7860 H   0  0  0  0  0  0
  -29.7211  -11.7298   17.4102 H   0  0  0  0  0  0
  -29.6777  -13.4539   17.7116 H   0  0  0  0  0  0
  -27.7801  -11.3211   18.7710 H   0  0  0  0  0  0
  -27.3638  -12.6783   17.7614 H   0  0  0  0  0  0
  -27.6954  -14.2550   19.5985 H   0  0  0  0  0  0
  -28.6859  -11.8874   21.2585 H   0  0  0  0  0  0
  -28.4880  -13.4965   21.8750 H   0  0  0  0  0  0
  -25.2770   -9.5550   22.4714 H   0  0  0  0  0  0
  -23.9876   -7.4608   22.7512 H   0  0  0  0  0  0
  -21.0861   -8.8795   19.8861 H   0  0  0  0  0  0
  -22.3885  -10.9566   19.6031 H   0  0  0  0  0  0
  -21.1996   -7.6111   23.9752 H   0  0  0  0  0  0
  -21.1480   -6.0437   25.9074 H   0  0  0  0  0  0
  -22.0631   -2.7631   23.2847 H   0  0  0  0  0  0
  -22.4251  -11.9675   22.4658 H   0  0  0  0  0  0
  -21.1088  -13.0880   22.2743 H   0  0  0  0  0  0
  -24.6040  -15.8089   20.5526 H   0  0  0  0  0  0
  -26.2440  -15.6855   20.1490 H   0  0  0  0  0  0
  -26.7095  -32.5589   23.1235 H   0  0  0  0  0  0
  -25.0474  -33.9913   25.0801 H   0  0  0  0  0  0
  -22.6858  -31.3165   21.4227 H   0  0  0  0  0  0
  -23.3755  -35.9573   23.3317 H   0  0  0  0  0  0
  -24.3554  -36.8890   22.2027 H   0  0  0  0  0  0
  -23.7160  -37.6488   23.6635 H   0  0  0  0  0  0
  -26.0482  -31.6260   20.6227 H   0  0  0  0  0  0
  -26.8011  -30.8890   21.9972 H   0  0  0  0  0  0
  -28.1096  -29.1589   21.1335 H   0  0  0  0  0  0
  -26.0691  -26.0343   18.9466 H   0  0  0  0  0  0
  -23.9830  -27.3238   19.0178 H   0  0  0  0  0  0
  -23.6928  -30.6142   19.4136 H   0  0  0  0  0  0
  -22.7300  -29.2481   19.8782 H   0  0  0  0  0  0
  -25.1245  -36.2008   25.0831 H   0  0  0  0  0  0
  -20.9924  -28.3232   24.1421 H   0  0  0  0  0  0
  -20.5694  -26.2256   23.3610 H   0  0  0  0  0  0
  -21.6628  -26.7465   22.1186 H   0  0  0  0  0  0
  -19.6913  -25.6246   21.1295 H   0  0  0  0  0  0
  -19.6708  -27.3128   20.6720 H   0  0  0  0  0  0
  -17.4193  -26.6689   21.3991 H   0  0  0  0  0  0
  -18.0284  -26.0061   22.8972 H   0  0  0  0  0  0
  -19.7914  -30.7267   24.2245 H   0  0  0  0  0  0
  -17.5002  -31.6287   24.5135 H   0  0  0  0  0  0
  -15.5332  -30.2963   23.7746 H   0  0  0  0  0  0
  -15.8628  -28.0825   22.7093 H   0  0  0  0  0  0
  -24.5926  -30.7081   25.7996 H   0  0  0  0  0  0
  -24.8857  -32.2978   26.4939 H   0  0  0  0  0  0
  -25.8093  -30.9123   27.0401 H   0  0  0  0  0  0
  -26.2872  -29.6940   24.1102 H   0  0  0  0  0  0
  -27.3890  -29.7289   25.4721 H   0  0  0  0  0  0
  -27.8799  -30.4455   23.9511 H   0  0  0  0  0  0
  -27.2644  -33.3774   26.2069 H   0  0  0  0  0  0
  -28.3896  -32.6886   25.0469 H   0  0  0  0  0  0
  -28.0579  -31.8600   26.5611 H   0  0  0  0  0  0
  -28.2565  -38.0115   24.7566 H   0  0  0  0  0  0
  -28.1067  -36.2655   24.6216 H   0  0  0  0  0  0
  -27.2281  -37.1373   25.8861 H   0  0  0  0  0  0
  -20.9232  -29.8803   21.6984 H   0  0  0  0  0  0
  -26.0159  -38.2885   24.1482 H   0  0  0  0  0  0
  -27.5534  -17.2126   22.9861 H   0  0  0  0  0  0
  -30.1522  -18.9318   19.9982 H   0  0  0  0  0  0
  -25.5523  -18.9181   23.9124 H   0  0  0  0  0  0
  -24.9286  -17.7440   22.7385 H   0  0  0  0  0  0
  -24.0996  -19.2783   22.9863 H   0  0  0  0  0  0
  -24.8063  -18.3268   20.2938 H   0  0  0  0  0  0
  -25.6774  -19.6889   19.6284 H   0  0  0  0  0  0
  -24.2198  -19.9701   20.5524 H   0  0  0  0  0  0
  -30.3394  -16.3177   22.7923 H   0  0  0  0  0  0
  -31.2373  -16.9727   21.4077 H   0  0  0  0  0  0
  -28.9836  -22.5096   19.2494 H   0  0  0  0  0  0
  -30.0700  -21.1855   19.4335 H   0  0  0  0  0  0
  -27.8422  -20.3670   18.9380 H   0  0  0  0  0  0
  -27.1551  -21.2572   20.2851 H   0  0  0  0  0  0
  -30.8301  -22.2397   21.2992 H   0  0  0  0  0  0
  -29.4457  -21.5270   22.0885 H   0  0  0  0  0  0
  -30.1865  -25.3962   21.3426 H   0  0  0  0  0  0
  -30.1656  -24.3988   19.9031 H   0  0  0  0  0  0
  -27.5426  -25.3035   21.1635 H   0  0  0  0  0  0
  -27.8391  -24.8630   19.4808 H   0  0  0  0  0  0
  -25.9936  -20.5265   22.0749 H   0  0  0  0  0  0
  -28.8467  -15.2160   21.0174 H   0  0  0  0  0  0
  -29.5807  -23.7819   22.5770 H   0  0  0  0  0  0
  -28.2248  -23.5102   21.7353 H   0  0  0  0  0  0
  1 25  1  0  0  0
  1 30  2  0  0  0
  1 85  1  0  0  0
  2  3  1  0  0  0
  2 25  1  0  0  0
  2 87  1  0  0  0
  2 88  1  0  0  0
  3  4  1  0  0  0
  3 89  1  0  0  0
  3 90  1  0  0  0
  4  5  1  0  0  0
  4 91  1  0  0  0
  4 92  1  0  0  0
  5  6  1  0  0  0
  5 26  1  0  0  0
  5 93  1  0  0  0
  6 25  1  0  0  0
  6 94  1  0  0  0
  6 95  1  0  0  0
  7  8  2  0  0  0
  7 26  1  0  0  0
  7 29  1  0  0  0
  8  9  1  0  0  0
  8 22  1  0  0  0
  9 10  1  0  0  0
  9 27  2  0  0  0
 10 11  2  0  0  0
 10 15  1  0  0  0
 11 12  1  0  0  0
 11 96  1  0  0  0
 12 13  2  0  0  0
 12 97  1  0  0  0
 13 14  1  0  0  0
 13 31  1  0  0  0
 14 15  2  0  0  0
 14 98  1  0  0  0
 15 99  1  0  0  0
 16 17  2  0  0  0
 16 21  1  0  0  0
 16 31  1  0  0  0
 17 18  1  0  0  0
 17100  1  0  0  0
 18 19  2  0  0  0
 18101  1  0  0  0
 19 20  1  0  0  0
 19 24  1  0  0  0
 20 21  2  0  0  0
 20102  1  0  0  0
 21 23  1  0  0  0
 22 28  1  0  0  0
 22 32  2  0  0  0
 26 27  1  0  0  0
 28103  1  0  0  0
 28104  1  0  0  0
 29105  1  0  0  0
 29106  1  0  0  0
 33 34  1  0  0  0
 33 66  1  0  0  0
 33 70  2  0  0  0
 34 36  1  0  0  0
 34 59  1  0  0  0
 34107  1  0  0  0
 35 44  2  0  0  0
 35 45  1  0  0  0
 35 68  1  0  0  0
 36 56  1  0  0  0
 36108  1  0  0  0
 37 39  1  0  0  0
 37 47  1  0  0  0
 37 66  1  0  0  0
 37109  1  0  0  0
 38 43  2  0  0  0
 38 46  1  0  0  0
 38 47  1  0  0  0
 39 64  1  0  0  0
 39 67  2  0  0  0
 40 52  1  0  0  0
 40 53  2  0  0  0
 40 58  1  0  0  0
 41110  1  0  0  0
 41111  1  0  0  0
 41112  1  0  0  0
 41 48  1  0  0  0
 42 43  1  0  0  0
 42 66  1  0  0  0
 42113  1  0  0  0
 42114  1  0  0  0
 43 44  1  0  0  0
 44115  1  0  0  0
 45 46  2  0  0  0
 45116  1  0  0  0
 46117  1  0  0  0
 47118  1  0  0  0
 47119  1  0  0  0
 48 56  1  0  0  0
 48 65  1  0  0  0
 48120  1  0  0  0
 49 50  1  0  0  0
 49 53  1  0  0  0
 49 64  1  0  0  0
 49121  1  0  0  0
 50 51  1  0  0  0
 50122  1  0  0  0
 50123  1  0  0  0
 51 52  1  0  0  0
 51124  1  0  0  0
 51125  1  0  0  0
 52126  1  0  0  0
 52127  1  0  0  0
 53 54  1  0  0  0
 54 55  2  0  0  0
 54128  1  0  0  0
 55 57  1  0  0  0
 55129  1  0  0  0
 56 69  2  0  0  0
 57 58  2  0  0  0
 57130  1  0  0  0
 58131  1  0  0  0
 59 60  1  0  0  0
 59 61  1  0  0  0
 59 62  1  0  0  0
 60132  1  0  0  0
 60133  1  0  0  0
 60134  1  0  0  0
 61135  1  0  0  0
 61136  1  0  0  0
 61137  1  0  0  0
 62138  1  0  0  0
 62139  1  0  0  0
 62140  1  0  0  0
 63 65  1  0  0  0
 63141  1  0  0  0
 63142  1  0  0  0
 63143  1  0  0  0
 64144  1  0  0  0
 65145  1  0  0  0
 68 82  1  0  0  0
 71 73  1  0  0  0
 71 74  2  0  0  0
 71146  1  0  0  0
 72 73  2  0  0  0
 72 84  1  0  0  0
 72147  1  0  0  0
 73 77  1  0  0  0
 74 83  1  0  0  0
 74 84  1  0  0  0
 75148  1  0  0  0
 75149  1  0  0  0
 75150  1  0  0  0
 75 83  1  0  0  0
 76 83  1  0  0  0
 76151  1  0  0  0
 76152  1  0  0  0
 76153  1  0  0  0
 77 85  1  0  0  0
 77154  1  0  0  0
 77155  1  0  0  0
 78 79  1  0  0  0
 78 80  1  0  0  0
 78156  1  0  0  0
 78157  1  0  0  0
 79 84  1  0  0  0
 79158  1  0  0  0
 79159  1  0  0  0
 80 86  1  0  0  0
 80160  1  0  0  0
 80161  1  0  0  0
 81 82  1  0  0  0
 81 86  1  0  0  0
 81162  1  0  0  0
 81163  1  0  0  0
 82164  1  0  0  0
 82165  1  0  0  0
 83166  1  0  0  0
 85167  1  0  0  0
 86168  1  0  0  0
 86169  1  0  0  0
M  CHG  1  86   1
M  ISO  4   1 100  68 101  82 101  85 100
M  END
> <chiral flag>
0

> <version>
0

> <s_m_source_file>
/data/baiqing/PycharmProjects/Reinvent-master-3.2/result/LINK_invent/BTK/process_docking_weight1_custom_sum_contain_oxygen_bond_distance_aromatic_linkinvent_7_9_3/rearranged_h_0096.sdf

> <i_m_source_file_index>
62

> <r_mmod_Potential_Energy-OPLS-2005>
-233.068603515625

> <r_mmod_Stretch_Energy-OPLS-2005>
33.5736274719238

> <r_mmod_Bend_Energy-OPLS-2005>
101.010704040527

> <r_mmod_Torsional_Energy-OPLS-2005>
271.256713867188

> <r_mmod_Improper_Torsional_Energy-OPLS-2005>
3.68047523498535

> <r_mmod_Van_der_Waal_Energy-OPLS-2005>
133.133209228516

> <r_mmod_Electrostatic_Energy-OPLS-2005>
-344.131774902344

> <r_mmod_Solvation_Energy-OPLS-2005>
-448.850494384766

> <b_mmod_Minimization_Converged-OPLS-2005>
0

> <r_mmod_RMS_Derivative-OPLS-2005>
15.3281736373901

$$$$
62
                    3D
 Structure written by MMmdl.
175183  0  0  1  0            999 V2000
  -30.5676  -14.7417   20.5204 C   0  0  0  0  0  0
  -30.4367  -12.4539   19.4738 C   0  0  0  0  0  0
  -29.5004  -12.5305   18.2434 C   0  0  0  0  0  0
  -28.0237  -12.3530   18.6466 C   0  0  0  0  0  0
  -27.6421  -13.2272   19.8718 C   0  0  2  0  0  0
  -28.6892  -13.0879   21.0015 C   0  0  0  0  0  0
  -25.2348  -13.8095   20.5373 C   0  0  0  0  0  0
  -24.1737  -13.0405   20.9176 C   0  0  0  0  0  0
  -24.6381  -11.6905   20.8828 C   0  0  0  0  0  0
  -23.9053  -10.4278   21.0431 C   0  0  0  0  0  0
  -24.3593   -9.4179   21.9201 C   0  0  0  0  0  0
  -23.6257   -8.2223   22.0754 C   0  0  0  0  0  0
  -22.4241   -8.0262   21.3514 C   0  0  0  0  0  0
  -21.9898   -9.0257   20.4632 C   0  0  0  0  0  0
  -22.7228  -10.2151   20.3066 C   0  0  0  0  0  0
  -21.6831   -6.0754   22.5291 C   0  0  0  0  0  0
  -21.4015   -6.5666   23.8222 C   0  0  0  0  0  0
  -21.3663   -5.6813   24.9182 C   0  0  0  0  0  0
  -21.6031   -4.3076   24.7215 C   0  0  0  0  0  0
  -21.8808   -3.8164   23.4331 C   0  0  0  0  0  0
  -21.9196   -4.6978   22.3401 C   0  0  0  0  0  0
  -22.7775  -13.5194   21.1837 C   0  0  0  0  0  0
  -22.1666   -4.2182   21.0975 F   0  0  0  0  0  0
  -21.5588   -3.4555   25.7703 F   0  0  0  0  0  0
  -29.9973  -13.4838   20.4471 N   0  0  0  0  0  0
  -26.2897  -12.9382   20.3341 N   0  0  0  0  0  0
  -25.9332  -11.6535   20.5932 N   0  0  0  0  0  0
  -22.0480  -12.8217   22.0448 N   0  0  0  0  0  0
  -25.3739  -15.1731   20.3074 N   0  0  0  0  0  0
  -31.7050  -14.9379   20.0822 O   0  0  0  0  0  0
  -21.6589   -6.8874   21.4236 O   0  0  0  0  0  0
  -22.3435  -14.5469   20.6638 O   0  0  0  0  0  0
  -24.6320  -31.8553   23.1958 C   0  0  0  0  0  0
  -25.9146  -32.4741   23.8287 C   0  0  1  0  0  0
  -27.2176  -27.2621   20.1025 C   0  0  0  0  0  0
  -25.5964  -33.8545   24.2203 N   0  0  0  0  0  0
  -23.4281  -30.4778   21.5459 C   0  0  2  0  0  0
  -24.8682  -28.9244   20.1154 C   0  0  0  0  0  0
  -22.7525  -29.4599   22.4953 C   0  0  0  0  0  0
  -18.0308  -28.1383   22.8509 C   0  0  0  0  0  0
  -24.1510  -36.7283   23.2628 C   0  0  0  0  0  0
  -25.9753  -30.7672   21.3742 C   0  0  0  0  0  0
  -26.0460  -29.3903   20.7137 C   0  0  0  0  0  0
  -27.2241  -28.5747   20.6916 C   0  0  0  0  0  0
  -26.0066  -26.8648   19.4904 C   0  0  0  0  0  0
  -24.8519  -27.6679   19.4977 C   0  0  0  0  0  0
  -23.6415  -29.8127   20.1635 C   0  0  0  0  0  0
  -25.4138  -36.3058   24.0297 C   0  0  1  0  0  0
  -20.5917  -28.3705   23.1295 C   0  0  2  0  0  0
  -20.6806  -26.9423   22.5432 C   0  0  0  0  0  0
  -19.5772  -26.6387   21.5247 C   0  0  0  0  0  0
  -18.1951  -26.7929   22.1651 C   0  0  0  0  0  0
  -19.1560  -28.8857   23.2896 C   0  0  0  0  0  0
  -18.9467  -30.1471   23.8881 C   0  0  0  0  0  0
  -17.6462  -30.6595   24.0559 C   0  0  0  0  0  0
  -25.9082  -34.9433   23.5056 C   0  0  0  0  0  0
  -16.5358  -29.9085   23.6337 C   0  0  0  0  0  0
  -16.7301  -28.6510   23.0351 C   0  0  0  0  0  0
  -26.4482  -31.6563   25.0683 C   0  0  0  0  0  0
  -25.3687  -31.3754   26.1399 C   0  0  0  0  0  0
  -27.0280  -30.2961   24.6160 C   0  0  0  0  0  0
  -27.6051  -32.4279   25.7453 C   0  0  0  0  0  0
  -27.5600  -37.1783   24.8430 C   0  0  0  0  0  0
  -21.4234  -29.3049   22.3682 N   0  0  0  0  0  0
  -26.4293  -37.3772   23.9402 N   0  0  0  0  0  0
  -24.6987  -31.0510   22.0953 N   0  0  0  0  0  0
  -23.4221  -28.8155   23.3068 O   0  0  0  0  0  0
  -28.3183  -26.3681   20.1241 O   0  0  0  0  0  0
  -26.5666  -34.8912   22.4631 O   0  0  0  0  0  0
  -23.5472  -32.1368   23.7272 O   0  0  0  0  0  0
  -30.1712  -18.2080   20.3945 C   0  0  0  0  0  0
  -29.3325  -19.4185   20.4616 C   0  0  0  0  0  0
  -28.1049  -18.9329   20.8723 C   0  0  0  0  0  0
  -29.4764  -17.0970   20.8766 C   0  0  0  0  0  0
  -24.2850  -21.0005   23.6106 C   0  0  0  0  0  0
  -24.8344  -22.0804   21.3914 C   0  0  0  0  0  0
  -30.0224  -23.8132   18.7770 C   0  0  0  0  0  0
  -30.1498  -24.1542   21.2530 C   0  0  0  0  0  0
  -27.2699  -16.8476   22.0714 C   0  0  0  0  0  0
  -29.7183  -20.9342   20.0966 C   0  0  0  0  0  0
  -26.7464  -19.5960   20.8872 C   0  0  0  0  0  0
  -28.7320  -22.2178   20.3060 C   0  0  0  0  0  0
  -26.2482  -20.1191   22.2502 C   0  0  0  0  0  0
  -28.0585  -24.8871   20.0054 C   0  0  0  0  0  0
  -24.8428  -20.7673   22.1961 C   0  0  0  0  0  0
  -29.2238  -23.7597   20.0933 C   0  0  0  0  0  0
  -28.2499  -17.6014   21.2939 N   0  0  0  0  0  0
  -29.7699  -15.7311   21.0751 N   0  0  0  0  0  0
  -31.4708  -12.6075   19.1701 H   0  0  0  0  0  0
  -30.4001  -11.4590   19.9241 H   0  0  0  0  0  0
  -29.7789  -11.7746   17.5062 H   0  0  0  0  0  0
  -29.6201  -13.4960   17.7510 H   0  0  0  0  0  0
  -27.8624  -11.2971   18.8695 H   0  0  0  0  0  0
  -27.3685  -12.5786   17.8045 H   0  0  0  0  0  0
  -27.6545  -14.2650   19.5384 H   0  0  0  0  0  0
  -28.7271  -12.0572   21.3545 H   0  0  0  0  0  0
  -28.4158  -13.6767   21.8778 H   0  0  0  0  0  0
  -25.2740   -9.5662   22.4787 H   0  0  0  0  0  0
  -23.9956   -7.4624   22.7498 H   0  0  0  0  0  0
  -21.0832   -8.8778   19.8940 H   0  0  0  0  0  0
  -22.3657  -10.9697   19.6178 H   0  0  0  0  0  0
  -21.2006   -7.6179   23.9737 H   0  0  0  0  0  0
  -21.1488   -6.0539   25.9085 H   0  0  0  0  0  0
  -22.0559   -2.7623   23.2812 H   0  0  0  0  0  0
  -22.4100  -11.9884   22.4828 H   0  0  0  0  0  0
  -21.1069  -13.1194   22.2608 H   0  0  0  0  0  0
  -24.5804  -15.7997   20.3527 H   0  0  0  0  0  0
  -26.1717  -15.5852   19.8401 H   0  0  0  0  0  0
  -26.7223  -32.5359   23.1035 H   0  0  0  0  0  0
  -25.0052  -33.9663   25.0304 H   0  0  0  0  0  0
  -22.7242  -31.3007   21.4036 H   0  0  0  0  0  0
  -23.3774  -35.9610   23.3224 H   0  0  0  0  0  0
  -24.3609  -36.8970   22.2055 H   0  0  0  0  0  0
  -23.7243  -37.6457   23.6689 H   0  0  0  0  0  0
  -26.1167  -31.5296   20.6058 H   0  0  0  0  0  0
  -26.8523  -30.8081   22.0088 H   0  0  0  0  0  0
  -28.1295  -28.9371   21.1577 H   0  0  0  0  0  0
  -25.9070  -25.9112   18.9996 H   0  0  0  0  0  0
  -23.9485  -27.2989   19.0319 H   0  0  0  0  0  0
  -23.7696  -30.5903   19.4102 H   0  0  0  0  0  0
  -22.7569  -29.2511   19.8573 H   0  0  0  0  0  0
  -25.1328  -36.1888   25.0786 H   0  0  0  0  0  0
  -20.9998  -28.3282   24.1423 H   0  0  0  0  0  0
  -20.5762  -26.2314   23.3642 H   0  0  0  0  0  0
  -21.6656  -26.7489   22.1174 H   0  0  0  0  0  0
  -19.6928  -25.6302   21.1265 H   0  0  0  0  0  0
  -19.6693  -27.3212   20.6786 H   0  0  0  0  0  0
  -17.4239  -26.6730   21.4029 H   0  0  0  0  0  0
  -18.0309  -26.0061   22.9029 H   0  0  0  0  0  0
  -19.7926  -30.7319   24.2228 H   0  0  0  0  0  0
  -17.4998  -31.6259   24.5186 H   0  0  0  0  0  0
  -15.5347  -30.2975   23.7643 H   0  0  0  0  0  0
  -15.8722  -28.0835   22.7021 H   0  0  0  0  0  0
  -24.5858  -30.7108   25.7727 H   0  0  0  0  0  0
  -24.8879  -32.2941   26.4772 H   0  0  0  0  0  0
  -25.7967  -30.8956   27.0207 H   0  0  0  0  0  0
  -26.2829  -29.6751   24.1165 H   0  0  0  0  0  0
  -27.3926  -29.7188   25.4665 H   0  0  0  0  0  0
  -27.8736  -30.4211   23.9390 H   0  0  0  0  0  0
  -27.2680  -33.3614   26.1971 H   0  0  0  0  0  0
  -28.3882  -32.6770   25.0278 H   0  0  0  0  0  0
  -28.0669  -31.8412   26.5402 H   0  0  0  0  0  0
  -28.2557  -38.0145   24.7567 H   0  0  0  0  0  0
  -28.1156  -36.2674   24.6139 H   0  0  0  0  0  0
  -27.2318  -37.1272   25.8829 H   0  0  0  0  0  0
  -20.9439  -29.8765   21.6865 H   0  0  0  0  0  0
  -26.0158  -38.2831   24.1439 H   0  0  0  0  0  0
  -31.1955  -18.1711   20.0486 H   0  0  0  0  0  0
  -23.2765  -21.4155   23.5800 H   0  0  0  0  0  0
  -24.9117  -21.6928   24.1749 H   0  0  0  0  0  0
  -24.2307  -20.0668   24.1734 H   0  0  0  0  0  0
  -23.8350  -22.5175   21.3475 H   0  0  0  0  0  0
  -25.1578  -21.9379   20.3596 H   0  0  0  0  0  0
  -25.4991  -22.8160   21.8434 H   0  0  0  0  0  0
  -30.9182  -23.1944   18.8238 H   0  0  0  0  0  0
  -30.3436  -24.8286   18.5426 H   0  0  0  0  0  0
  -29.4234  -23.4608   17.9359 H   0  0  0  0  0  0
  -30.9738  -23.4523   21.3720 H   0  0  0  0  0  0
  -29.6073  -24.1954   22.1971 H   0  0  0  0  0  0
  -30.5837  -25.1403   21.0852 H   0  0  0  0  0  0
  -27.4680  -17.0117   23.1299 H   0  0  0  0  0  0
  -27.3421  -15.7806   21.8752 H   0  0  0  0  0  0
  -26.2500  -17.1682   21.8663 H   0  0  0  0  0  0
  -30.0035  -20.9198   19.0444 H   0  0  0  0  0  0
  -30.6401  -21.1441   20.6391 H   0  0  0  0  0  0
  -26.0112  -18.8949   20.4931 H   0  0  0  0  0  0
  -26.7287  -20.3856   20.1416 H   0  0  0  0  0  0
  -28.3131  -22.1557   21.3106 H   0  0  0  0  0  0
  -27.8889  -22.0902   19.6305 H   0  0  0  0  0  0
  -26.9719  -20.8211   22.6594 H   0  0  0  0  0  0
  -26.2125  -19.2894   22.9549 H   0  0  0  0  0  0
  -27.3029  -24.6351   20.7514 H   0  0  0  0  0  0
  -27.5847  -24.7091   19.0395 H   0  0  0  0  0  0
  -24.1634  -20.0695   21.7021 H   0  0  0  0  0  0
  -29.0222  -15.2714   21.5688 H   0  0  0  0  0  0
  1 25  1  0  0  0
  1 30  2  0  0  0
  1 88  1  0  0  0
  2  3  1  0  0  0
  2 25  1  0  0  0
  2 89  1  0  0  0
  2 90  1  0  0  0
  3  4  1  0  0  0
  3 91  1  0  0  0
  3 92  1  0  0  0
  4  5  1  0  0  0
  4 93  1  0  0  0
  4 94  1  0  0  0
  5  6  1  0  0  0
  5 26  1  0  0  0
  5 95  1  0  0  0
  6 25  1  0  0  0
  6 96  1  0  0  0
  6 97  1  0  0  0
  7  8  2  0  0  0
  7 26  1  0  0  0
  7 29  1  0  0  0
  8  9  1  0  0  0
  8 22  1  0  0  0
  9 10  1  0  0  0
  9 27  2  0  0  0
 10 11  2  0  0  0
 10 15  1  0  0  0
 11 12  1  0  0  0
 11 98  1  0  0  0
 12 13  2  0  0  0
 12 99  1  0  0  0
 13 14  1  0  0  0
 13 31  1  0  0  0
 14 15  2  0  0  0
 14100  1  0  0  0
 15101  1  0  0  0
 16 17  2  0  0  0
 16 21  1  0  0  0
 16 31  1  0  0  0
 17 18  1  0  0  0
 17102  1  0  0  0
 18 19  2  0  0  0
 18103  1  0  0  0
 19 20  1  0  0  0
 19 24  1  0  0  0
 20 21  2  0  0  0
 20104  1  0  0  0
 21 23  1  0  0  0
 22 28  1  0  0  0
 22 32  2  0  0  0
 26 27  1  0  0  0
 28105  1  0  0  0
 28106  1  0  0  0
 29107  1  0  0  0
 29108  1  0  0  0
 33 34  1  0  0  0
 33 66  1  0  0  0
 33 70  2  0  0  0
 34 36  1  0  0  0
 34 59  1  0  0  0
 34109  1  0  0  0
 35 44  2  0  0  0
 35 45  1  0  0  0
 35 68  1  0  0  0
 36 56  1  0  0  0
 36110  1  0  0  0
 37 39  1  0  0  0
 37 47  1  0  0  0
 37 66  1  0  0  0
 37111  1  0  0  0
 38 43  2  0  0  0
 38 46  1  0  0  0
 38 47  1  0  0  0
 39 64  1  0  0  0
 39 67  2  0  0  0
 40 52  1  0  0  0
 40 53  2  0  0  0
 40 58  1  0  0  0
 41112  1  0  0  0
 41113  1  0  0  0
 41114  1  0  0  0
 41 48  1  0  0  0
 42 43  1  0  0  0
 42 66  1  0  0  0
 42115  1  0  0  0
 42116  1  0  0  0
 43 44  1  0  0  0
 44117  1  0  0  0
 45 46  2  0  0  0
 45118  1  0  0  0
 46119  1  0  0  0
 47120  1  0  0  0
 47121  1  0  0  0
 48 56  1  0  0  0
 48 65  1  0  0  0
 48122  1  0  0  0
 49 50  1  0  0  0
 49 53  1  0  0  0
 49 64  1  0  0  0
 49123  1  0  0  0
 50 51  1  0  0  0
 50124  1  0  0  0
 50125  1  0  0  0
 51 52  1  0  0  0
 51126  1  0  0  0
 51127  1  0  0  0
 52128  1  0  0  0
 52129  1  0  0  0
 53 54  1  0  0  0
 54 55  2  0  0  0
 54130  1  0  0  0
 55 57  1  0  0  0
 55131  1  0  0  0
 56 69  2  0  0  0
 57 58  2  0  0  0
 57132  1  0  0  0
 58133  1  0  0  0
 59 60  1  0  0  0
 59 61  1  0  0  0
 59 62  1  0  0  0
 60134  1  0  0  0
 60135  1  0  0  0
 60136  1  0  0  0
 61137  1  0  0  0
 61138  1  0  0  0
 61139  1  0  0  0
 62140  1  0  0  0
 62141  1  0  0  0
 62142  1  0  0  0
 63 65  1  0  0  0
 63143  1  0  0  0
 63144  1  0  0  0
 63145  1  0  0  0
 64146  1  0  0  0
 65147  1  0  0  0
 68 84  1  0  0  0
 71 72  1  0  0  0
 71 74  2  0  0  0
 71148  1  0  0  0
 72 73  2  0  0  0
 72 80  1  0  0  0
 73 81  1  0  0  0
 73 87  1  0  0  0
 74 87  1  0  0  0
 74 88  1  0  0  0
 75149  1  0  0  0
 75150  1  0  0  0
 75151  1  0  0  0
 75 85  1  0  0  0
 76 85  1  0  0  0
 76152  1  0  0  0
 76153  1  0  0  0
 76154  1  0  0  0
 77155  1  0  0  0
 77156  1  0  0  0
 77157  1  0  0  0
 77 86  1  0  0  0
 78 86  1  0  0  0
 78158  1  0  0  0
 78159  1  0  0  0
 78160  1  0  0  0
 79 87  1  0  0  0
 79161  1  0  0  0
 79162  1  0  0  0
 79163  1  0  0  0
 80 82  1  0  0  0
 80164  1  0  0  0
 80165  1  0  0  0
 81 83  1  0  0  0
 81166  1  0  0  0
 81167  1  0  0  0
 82 86  1  0  0  0
 82168  1  0  0  0
 82169  1  0  0  0
 83 85  1  0  0  0
 83170  1  0  0  0
 83171  1  0  0  0
 84 86  1  0  0  0
 84172  1  0  0  0
 84173  1  0  0  0
 85174  1  0  0  0
 88175  1  0  0  0
M  ISO  4   1 100  68 101  84 101  88 100
M  END
> <chiral flag>
0

> <version>
0

> <s_m_source_file>
/data/baiqing/PycharmProjects/Reinvent-master-3.2/result/LINK_invent/BTK/process_docking_weight1_custom_sum_contain_oxygen_bond_distance_aromatic_linkinvent_7_9_3/rearranged_h_0096.sdf

> <i_m_source_file_index>
63

> <r_mmod_Potential_Energy-OPLS-2005>
209.058776855469

> <r_mmod_Stretch_Energy-OPLS-2005>
130.0986328125

> <r_mmod_Bend_Energy-OPLS-2005>
214.757720947266

> <r_mmod_Torsional_Energy-OPLS-2005>
252.587326049805

> <r_mmod_Improper_Torsional_Energy-OPLS-2005>
4.48000383377075

> <r_mmod_Van_der_Waal_Energy-OPLS-2005>
116.499053955078

> <r_mmod_Electrostatic_Energy-OPLS-2005>
-396.2998046875

> <r_mmod_Solvation_Energy-OPLS-2005>
-196.284255981445

> <b_mmod_Minimization_Converged-OPLS-2005>
0

> <r_mmod_RMS_Derivative-OPLS-2005>
4.99163484573364

$$$$
63
                    3D
 Structure written by MMmdl.
171179  0  0  1  0            999 V2000
  -29.4122  -15.6195   20.7357 C   0  0  0  0  0  0
  -30.2828  -13.2156   19.6984 C   0  0  0  0  0  0
  -29.5252  -12.7346   18.4116 C   0  0  0  0  0  0
  -28.0875  -12.2845   18.7397 C   0  0  0  0  0  0
  -27.4968  -13.2161   19.8170 C   0  0  2  0  0  0
  -28.3761  -13.3289   21.0525 C   0  0  0  0  0  0
  -25.1847  -13.8040   20.5552 C   0  0  0  0  0  0
  -24.1309  -13.0312   20.9302 C   0  0  0  0  0  0
  -24.5912  -11.6784   20.8782 C   0  0  0  0  0  0
  -23.8765  -10.4194   21.0492 C   0  0  0  0  0  0
  -24.3456   -9.4152   21.9227 C   0  0  0  0  0  0
  -23.6207   -8.2156   22.0766 C   0  0  0  0  0  0
  -22.4192   -8.0186   21.3552 C   0  0  0  0  0  0
  -21.9762   -9.0127   20.4656 C   0  0  0  0  0  0
  -22.7011  -10.2028   20.3084 C   0  0  0  0  0  0
  -21.6820   -6.0690   22.5293 C   0  0  0  0  0  0
  -21.3991   -6.5620   23.8220 C   0  0  0  0  0  0
  -21.3646   -5.6783   24.9185 C   0  0  0  0  0  0
  -21.6037   -4.3047   24.7245 C   0  0  0  0  0  0
  -21.8826   -3.8127   23.4374 C   0  0  0  0  0  0
  -21.9181   -4.6927   22.3419 C   0  0  0  0  0  0
  -22.7437  -13.5158   21.2035 C   0  0  0  0  0  0
  -22.1658   -4.2133   21.0994 F   0  0  0  0  0  0
  -21.5624   -3.4527   25.7756 F   0  0  0  0  0  0
  -29.4113  -14.1744   20.5516 N   0  0  0  0  0  0
  -26.1842  -12.9046   20.2576 N   0  0  0  0  0  0
  -25.8663  -11.6276   20.5388 N   0  0  0  0  0  0
  -22.0100  -12.8170   22.0597 N   0  0  0  0  0  0
  -25.3747  -15.1788   20.4057 N   0  0  0  0  0  0
  -30.6271  -15.9109   20.4984 O   0  0  0  0  0  0
  -21.6591   -6.8790   21.4242 O   0  0  0  0  0  0
  -22.3231  -14.5515   20.6883 O   0  0  0  0  0  0
  -24.6272  -31.9177   23.2327 C   0  0  0  0  0  0
  -25.9174  -32.5079   23.8674 C   0  0  1  0  0  0
  -27.0979  -27.5163   19.9833 C   0  0  0  0  0  0
  -25.6084  -33.8842   24.2605 N   0  0  0  0  0  0
  -23.4422  -30.5372   21.5845 C   0  0  2  0  0  0
  -24.9090  -29.2028   19.9488 C   0  0  0  0  0  0
  -22.9703  -29.4535   22.5691 C   0  0  0  0  0  0
  -18.3217  -27.6030   22.6737 C   0  0  0  0  0  0
  -24.1481  -36.7367   23.2610 C   0  0  0  0  0  0
  -25.9682  -30.8572   21.4450 C   0  0  0  0  0  0
  -26.0225  -29.5407   20.7199 C   0  0  0  0  0  0
  -27.1330  -28.6677   20.7961 C   0  0  0  0  0  0
  -26.2308  -27.4674   18.8974 C   0  0  0  0  0  0
  -25.0572  -28.2277   18.9554 C   0  0  0  0  0  0
  -23.6336  -29.9897   20.1430 C   0  0  0  0  0  0
  -25.4104  -36.3236   24.0352 C   0  0  1  0  0  0
  -21.1991  -28.0684   23.4690 C   0  0  2  0  0  0
  -22.1958  -26.4231   23.0251 C   0  0  0  0  0  0
  -19.8110  -24.7969   21.3928 C   0  0  0  0  0  0
  -18.3072  -26.0529   21.7533 C   0  0  0  0  0  0
  -19.4795  -28.3900   23.3431 C   0  0  0  0  0  0
  -19.1324  -29.6970   23.8883 C   0  0  0  0  0  0
  -17.8365  -30.2661   23.9306 C   0  0  0  0  0  0
  -25.9063  -34.9618   23.5231 C   0  0  0  0  0  0
  -16.7677  -29.5195   23.4275 C   0  0  0  0  0  0
  -17.0247  -28.2502   22.8278 C   0  0  0  0  0  0
  -26.4478  -31.6707   25.0946 C   0  0  0  0  0  0
  -25.3664  -31.3789   26.1600 C   0  0  0  0  0  0
  -27.0329  -30.3137   24.6388 C   0  0  0  0  0  0
  -27.6048  -32.4339   25.7778 C   0  0  0  0  0  0
  -27.5599  -37.1857   24.8454 C   0  0  0  0  0  0
  -21.6907  -29.1778   22.6457 N   0  0  0  0  0  0
  -26.4306  -37.3899   23.9423 N   0  0  0  0  0  0
  -24.6902  -31.1477   22.1171 N   0  0  0  0  0  0
  -23.7611  -28.8903   23.3186 O   0  0  0  0  0  0
  -27.4760  -26.2938   20.4145 O   0  0  0  0  0  0
  -26.5507  -34.8994   22.4707 O   0  0  0  0  0  0
  -23.5442  -32.1881   23.7721 O   0  0  0  0  0  0
  -20.1652  -25.7557   23.2996 C   0  0  0  0  0  0
  -22.4144  -24.4397   21.2370 C   0  0  0  0  0  0
  -20.7147  -26.7578   21.4704 C   0  0  0  0  0  0
  -21.0901  -24.2670   23.4319 C   0  0  0  0  0  0
  -21.9208  -25.8226   20.7547 C   0  0  0  0  0  0
  -22.2308  -23.5517   22.4299 C   0  0  0  0  0  0
  -20.1971  -27.8878   20.5293 C   0  0  0  0  0  0
  -20.8028  -23.4903   24.6982 C   0  0  0  0  0  0
  -25.8088  -21.7103   22.9053 C   0  0  0  0  0  0
  -23.2060  -26.2851   20.0263 C   0  0  0  0  0  0
  -23.1792  -21.8149   22.2451 C   0  0  0  0  0  0
  -24.6746  -25.9462   20.7808 C   0  0  0  0  0  0
  -27.3127  -18.2077   21.5622 C   0  0  0  0  0  0
  -25.5648  -19.3270   21.5540 C   0  0  0  0  0  0
  -26.2413  -25.4039   20.5856 C   0  0  0  0  0  0
  -28.1202  -16.5720   21.0638 N   0  0  0  0  0  0
  -24.7778  -20.8604   22.2772 N   0  3  1  0  0  0
  -31.2040  -13.7197   19.4065 H   0  0  0  0  0  0
  -30.6045  -12.3592   20.2950 H   0  0  0  0  0  0
  -30.0765  -11.9389   17.9097 H   0  0  0  0  0  0
  -29.4814  -13.5675   17.7080 H   0  0  0  0  0  0
  -28.1098  -11.2595   19.1104 H   0  0  0  0  0  0
  -27.4716  -12.2804   17.8395 H   0  0  0  0  0  0
  -27.4062  -14.1806   19.3145 H   0  0  0  0  0  0
  -28.7084  -12.3595   21.4269 H   0  0  0  0  0  0
  -27.8591  -13.8223   21.8782 H   0  0  0  0  0  0
  -25.2597   -9.5689   22.4792 H   0  0  0  0  0  0
  -23.9951   -7.4546   22.7457 H   0  0  0  0  0  0
  -21.0703   -8.8602   19.8967 H   0  0  0  0  0  0
  -22.3448  -10.9570   19.6209 H   0  0  0  0  0  0
  -21.1989   -7.6129   23.9719 H   0  0  0  0  0  0
  -21.1455   -6.0515   25.9089 H   0  0  0  0  0  0
  -22.0620   -2.7593   23.2871 H   0  0  0  0  0  0
  -22.3686  -11.9798   22.4948 H   0  0  0  0  0  0
  -21.0760  -13.1283   22.2865 H   0  0  0  0  0  0
  -24.5315  -15.7406   20.4328 H   0  0  0  0  0  0
  -26.0032  -15.4966   19.6781 H   0  0  0  0  0  0
  -26.7278  -32.5800   23.1472 H   0  0  0  0  0  0
  -25.0370  -34.0067   25.0844 H   0  0  0  0  0  0
  -22.6638  -31.2964   21.5434 H   0  0  0  0  0  0
  -23.3793  -35.9646   23.3289 H   0  0  0  0  0  0
  -24.3578  -36.8956   22.2020 H   0  0  0  0  0  0
  -23.7188  -37.6569   23.6584 H   0  0  0  0  0  0
  -26.1609  -31.6499   20.7219 H   0  0  0  0  0  0
  -26.8278  -30.8381   22.1022 H   0  0  0  0  0  0
  -27.8790  -28.7862   21.5684 H   0  0  0  0  0  0
  -26.2745  -26.6524   18.1939 H   0  0  0  0  0  0
  -24.2772  -28.0460   18.2327 H   0  0  0  0  0  0
  -23.6731  -30.8272   19.4486 H   0  0  0  0  0  0
  -22.7591  -29.4257   19.8373 H   0  0  0  0  0  0
  -25.1261  -36.2148   25.0846 H   0  0  0  0  0  0
  -21.4576  -28.3014   24.5054 H   0  0  0  0  0  0
  -22.5250  -26.0390   24.0015 H   0  0  0  0  0  0
  -23.1658  -26.6316   22.6005 H   0  0  0  0  0  0
  -19.5254  -23.7901   21.7205 H   0  0  0  0  0  0
  -19.8881  -24.6834   20.3062 H   0  0  0  0  0  0
  -17.8222  -26.2683   20.7993 H   0  0  0  0  0  0
  -17.5584  -25.4498   22.2697 H   0  0  0  0  0  0
  -19.9301  -30.2809   24.3309 H   0  0  0  0  0  0
  -17.6712  -31.2438   24.3662 H   0  0  0  0  0  0
  -15.7583  -29.9064   23.4623 H   0  0  0  0  0  0
  -16.1738  -27.7245   22.4204 H   0  0  0  0  0  0
  -24.5828  -30.7207   25.7843 H   0  0  0  0  0  0
  -24.8859  -32.2937   26.5077 H   0  0  0  0  0  0
  -25.7912  -30.8883   27.0370 H   0  0  0  0  0  0
  -26.2920  -29.6934   24.1344 H   0  0  0  0  0  0
  -27.3940  -29.7355   25.4909 H   0  0  0  0  0  0
  -27.8866  -30.4449   23.9736 H   0  0  0  0  0  0
  -27.2683  -33.3572   26.2509 H   0  0  0  0  0  0
  -28.3859  -32.6994   25.0642 H   0  0  0  0  0  0
  -28.0715  -31.8350   26.5615 H   0  0  0  0  0  0
  -28.2613  -38.0167   24.7595 H   0  0  0  0  0  0
  -28.1119  -36.2727   24.6183 H   0  0  0  0  0  0
  -27.2318  -37.1384   25.8850 H   0  0  0  0  0  0
  -21.0278  -29.6431   22.0403 H   0  0  0  0  0  0
  -26.0229  -38.2981   24.1467 H   0  0  0  0  0  0
  -19.4439  -25.9976   24.0640 H   0  0  0  0  0  0
  -23.1547  -23.9909   20.5865 H   0  0  0  0  0  0
  -19.4938  -27.4682   19.8135 H   0  0  0  0  0  0
  -21.0138  -28.2345   19.9101 H   0  0  0  0  0  0
  -19.7368  -28.7801   20.9418 H   0  0  0  0  0  0
  -19.8533  -23.7897   25.1379 H   0  0  0  0  0  0
  -21.5871  -23.6790   25.4326 H   0  0  0  0  0  0
  -20.7627  -22.4204   24.5031 H   0  0  0  0  0  0
  -25.3554  -22.3270   23.6842 H   0  0  0  0  0  0
  -26.3041  -22.3657   22.1928 H   0  0  0  0  0  0
  -26.5629  -21.0968   23.3994 H   0  0  0  0  0  0
  -23.0481  -27.3468   20.0197 H   0  0  0  0  0  0
  -23.1103  -25.9444   18.9882 H   0  0  0  0  0  0
  -22.8223  -21.5245   21.2561 H   0  0  0  0  0  0
  -22.5795  -21.1993   22.9198 H   0  0  0  0  0  0
  -24.8626  -26.8840   21.2980 H   0  0  0  0  0  0
  -24.8272  -25.8793   19.7250 H   0  0  0  0  0  0
  -27.5132  -18.1642   22.6327 H   0  0  0  0  0  0
  -28.0497  -18.9195   21.1935 H   0  0  0  0  0  0
  -24.8004  -18.5800   21.7716 H   0  0  0  0  0  0
  -25.4223  -19.5214   20.4906 H   0  0  0  0  0  0
  -26.3088  -24.6065   19.8374 H   0  0  0  0  0  0
  -26.4489  -24.8751   21.5160 H   0  0  0  0  0  0
  -27.3469  -15.9194   21.0828 H   0  0  0  0  0  0
  -24.4973  -20.3628   23.1108 H   0  0  0  0  0  0
  1 25  1  0  0  0
  1 30  2  0  0  0
  1 86  1  0  0  0
  2  3  1  0  0  0
  2 25  1  0  0  0
  2 88  1  0  0  0
  2 89  1  0  0  0
  3  4  1  0  0  0
  3 90  1  0  0  0
  3 91  1  0  0  0
  4  5  1  0  0  0
  4 92  1  0  0  0
  4 93  1  0  0  0
  5  6  1  0  0  0
  5 26  1  0  0  0
  5 94  1  0  0  0
  6 25  1  0  0  0
  6 95  1  0  0  0
  6 96  1  0  0  0
  7  8  2  0  0  0
  7 26  1  0  0  0
  7 29  1  0  0  0
  8  9  1  0  0  0
  8 22  1  0  0  0
  9 10  1  0  0  0
  9 27  2  0  0  0
 10 11  2  0  0  0
 10 15  1  0  0  0
 11 12  1  0  0  0
 11 97  1  0  0  0
 12 13  2  0  0  0
 12 98  1  0  0  0
 13 14  1  0  0  0
 13 31  1  0  0  0
 14 15  2  0  0  0
 14 99  1  0  0  0
 15100  1  0  0  0
 16 17  2  0  0  0
 16 21  1  0  0  0
 16 31  1  0  0  0
 17 18  1  0  0  0
 17101  1  0  0  0
 18 19  2  0  0  0
 18102  1  0  0  0
 19 20  1  0  0  0
 19 24  1  0  0  0
 20 21  2  0  0  0
 20103  1  0  0  0
 21 23  1  0  0  0
 22 28  1  0  0  0
 22 32  2  0  0  0
 26 27  1  0  0  0
 28104  1  0  0  0
 28105  1  0  0  0
 29106  1  0  0  0
 29107  1  0  0  0
 33 34  1  0  0  0
 33 66  1  0  0  0
 33 70  2  0  0  0
 34 36  1  0  0  0
 34 59  1  0  0  0
 34108  1  0  0  0
 35 44  2  0  0  0
 35 45  1  0  0  0
 35 68  1  0  0  0
 36 56  1  0  0  0
 36109  1  0  0  0
 37 39  1  0  0  0
 37 47  1  0  0  0
 37 66  1  0  0  0
 37110  1  0  0  0
 38 43  2  0  0  0
 38 46  1  0  0  0
 38 47  1  0  0  0
 39 64  1  0  0  0
 39 67  2  0  0  0
 40 52  1  0  0  0
 40 53  2  0  0  0
 40 58  1  0  0  0
 41111  1  0  0  0
 41112  1  0  0  0
 41113  1  0  0  0
 41 48  1  0  0  0
 42 43  1  0  0  0
 42 66  1  0  0  0
 42114  1  0  0  0
 42115  1  0  0  0
 43 44  1  0  0  0
 44116  1  0  0  0
 45 46  2  0  0  0
 45117  1  0  0  0
 46118  1  0  0  0
 47119  1  0  0  0
 47120  1  0  0  0
 48 56  1  0  0  0
 48 65  1  0  0  0
 48121  1  0  0  0
 49 50  1  0  0  0
 49 53  1  0  0  0
 49 64  1  0  0  0
 49122  1  0  0  0
 50 51  1  0  0  0
 50123  1  0  0  0
 50124  1  0  0  0
 51 52  1  0  0  0
 51125  1  0  0  0
 51126  1  0  0  0
 52127  1  0  0  0
 52128  1  0  0  0
 53 54  1  0  0  0
 54 55  2  0  0  0
 54129  1  0  0  0
 55 57  1  0  0  0
 55130  1  0  0  0
 56 69  2  0  0  0
 57 58  2  0  0  0
 57131  1  0  0  0
 58132  1  0  0  0
 59 60  1  0  0  0
 59 61  1  0  0  0
 59 62  1  0  0  0
 60133  1  0  0  0
 60134  1  0  0  0
 60135  1  0  0  0
 61136  1  0  0  0
 61137  1  0  0  0
 61138  1  0  0  0
 62139  1  0  0  0
 62140  1  0  0  0
 62141  1  0  0  0
 63 65  1  0  0  0
 63142  1  0  0  0
 63143  1  0  0  0
 63144  1  0  0  0
 64145  1  0  0  0
 65146  1  0  0  0
 68 85  1  0  0  0
 71 73  2  0  0  0
 71 74  1  0  0  0
 71147  1  0  0  0
 72 75  2  0  0  0
 72 76  1  0  0  0
 72148  1  0  0  0
 73 75  1  0  0  0
 73 77  1  0  0  0
 74 76  2  0  0  0
 74 78  1  0  0  0
 75 80  1  0  0  0
 76 81  1  0  0  0
 77149  1  0  0  0
 77150  1  0  0  0
 77151  1  0  0  0
 78152  1  0  0  0
 78153  1  0  0  0
 78154  1  0  0  0
 79155  1  0  0  0
 79156  1  0  0  0
 79157  1  0  0  0
 79 87  1  0  0  0
 80 82  1  0  0  0
 80158  1  0  0  0
 80159  1  0  0  0
 81 87  1  0  0  0
 81160  1  0  0  0
 81161  1  0  0  0
 82 85  1  0  0  0
 82162  1  0  0  0
 82163  1  0  0  0
 83 84  1  0  0  0
 83 86  1  0  0  0
 83164  1  0  0  0
 83165  1  0  0  0
 84 87  1  0  0  0
 84166  1  0  0  0
 84167  1  0  0  0
 85168  1  0  0  0
 85169  1  0  0  0
 86170  1  0  0  0
 87171  1  0  0  0
M  CHG  1  87   1
M  ISO  4   1 100  68 101  85 101  86 100
M  END
> <chiral flag>
0

> <version>
0

> <s_m_source_file>
/data/baiqing/PycharmProjects/Reinvent-master-3.2/result/LINK_invent/BTK/process_docking_weight1_custom_sum_contain_oxygen_bond_distance_aromatic_linkinvent_7_9_3/rearranged_h_0096.sdf

> <i_m_source_file_index>
64

> <r_mmod_Potential_Energy-OPLS-2005>
13695.0927734375

> <r_mmod_Stretch_Energy-OPLS-2005>
7771.59423828125

> <r_mmod_Bend_Energy-OPLS-2005>
1449.10827636719

> <r_mmod_Torsional_Energy-OPLS-2005>
420.678985595703

> <r_mmod_Improper_Torsional_Energy-OPLS-2005>
24.4451770782471

> <r_mmod_Van_der_Waal_Energy-OPLS-2005>
2614.70068359375

> <r_mmod_Electrostatic_Energy-OPLS-2005>
-313.577087402344

> <r_mmod_Solvation_Energy-OPLS-2005>
-459.377868652344

> <b_mmod_Minimization_Converged-OPLS-2005>
0

> <r_mmod_RMS_Derivative-OPLS-2005>
14.430775642395

$$$$
64
                    3D
 Structure written by MMmdl.
178186  0  0  1  0            999 V2000
  -30.6852  -14.5508   20.5743 C   0  0  0  0  0  0
  -30.4245  -12.3556   19.4406 C   0  0  0  0  0  0
  -29.4923  -12.4973   18.2185 C   0  0  0  0  0  0
  -28.0178  -12.3446   18.6356 C   0  0  0  0  0  0
  -27.6540  -13.2118   19.8692 C   0  0  2  0  0  0
  -28.6957  -13.0386   20.9967 C   0  0  0  0  0  0
  -25.2560  -13.8182   20.5707 C   0  0  0  0  0  0
  -24.1814  -13.0451   20.9194 C   0  0  0  0  0  0
  -24.6370  -11.6921   20.8733 C   0  0  0  0  0  0
  -23.9034  -10.4299   21.0405 C   0  0  0  0  0  0
  -24.3595   -9.4222   21.9178 C   0  0  0  0  0  0
  -23.6285   -8.2246   22.0748 C   0  0  0  0  0  0
  -22.4268   -8.0277   21.3548 C   0  0  0  0  0  0
  -21.9897   -9.0240   20.4635 C   0  0  0  0  0  0
  -22.7205  -10.2130   20.3051 C   0  0  0  0  0  0
  -21.6850   -6.0730   22.5280 C   0  0  0  0  0  0
  -21.4006   -6.5634   23.8211 C   0  0  0  0  0  0
  -21.3659   -5.6796   24.9173 C   0  0  0  0  0  0
  -21.6046   -4.3055   24.7232 C   0  0  0  0  0  0
  -21.8819   -3.8143   23.4354 C   0  0  0  0  0  0
  -21.9190   -4.6959   22.3406 C   0  0  0  0  0  0
  -22.7842  -13.5253   21.1851 C   0  0  0  0  0  0
  -22.1661   -4.2144   21.0986 F   0  0  0  0  0  0
  -21.5633   -3.4538   25.7746 F   0  0  0  0  0  0
  -30.0199  -13.3615   20.4424 N   0  0  0  0  0  0
  -26.2981  -12.9350   20.3350 N   0  0  0  0  0  0
  -25.9302  -11.6505   20.5773 N   0  0  0  0  0  0
  -22.0483  -12.8238   22.0411 N   0  0  0  0  0  0
  -25.4306  -15.1887   20.4131 N   0  0  0  0  0  0
  -31.7744  -14.7510   20.0287 O   0  0  0  0  0  0
  -21.6641   -6.8875   21.4243 O   0  0  0  0  0  0
  -22.3518  -14.5547   20.6700 O   0  0  0  0  0  0
  -24.6246  -31.8580   23.2043 C   0  0  0  0  0  0
  -25.9097  -32.4757   23.8361 C   0  0  1  0  0  0
  -27.2348  -27.3516   20.1032 C   0  0  0  0  0  0
  -25.5911  -33.8557   24.2283 N   0  0  0  0  0  0
  -23.4152  -30.4822   21.5454 C   0  0  2  0  0  0
  -24.8613  -28.9405   20.1119 C   0  0  0  0  0  0
  -22.7430  -29.4615   22.4933 C   0  0  0  0  0  0
  -18.0258  -28.1367   22.8455 C   0  0  0  0  0  0
  -24.1472  -36.7308   23.2636 C   0  0  0  0  0  0
  -25.9519  -30.8027   21.3667 C   0  0  0  0  0  0
  -26.0274  -29.4308   20.7112 C   0  0  0  0  0  0
  -27.2132  -28.6472   20.6985 C   0  0  0  0  0  0
  -26.0345  -26.8899   19.5139 C   0  0  0  0  0  0
  -24.8651  -27.6730   19.5094 C   0  0  0  0  0  0
  -23.6277  -29.8156   20.1602 C   0  0  0  0  0  0
  -25.4088  -36.3068   24.0323 C   0  0  1  0  0  0
  -20.5852  -28.3660   23.1265 C   0  0  2  0  0  0
  -20.6751  -26.9382   22.5393 C   0  0  0  0  0  0
  -19.5744  -26.6372   21.5174 C   0  0  0  0  0  0
  -18.1915  -26.7909   22.1582 C   0  0  0  0  0  0
  -19.1514  -28.8824   23.2860 C   0  0  0  0  0  0
  -18.9447  -30.1420   23.8888 C   0  0  0  0  0  0
  -17.6453  -30.6573   24.0543 C   0  0  0  0  0  0
  -25.9025  -34.9425   23.5107 C   0  0  0  0  0  0
  -16.5336  -29.9085   23.6312 C   0  0  0  0  0  0
  -16.7249  -28.6498   23.0337 C   0  0  0  0  0  0
  -26.4503  -31.6574   25.0721 C   0  0  0  0  0  0
  -25.3743  -31.3702   26.1457 C   0  0  0  0  0  0
  -27.0366  -30.2991   24.6186 C   0  0  0  0  0  0
  -27.6055  -32.4314   25.7500 C   0  0  0  0  0  0
  -27.5559  -37.1798   24.8449 C   0  0  0  0  0  0
  -21.4150  -29.3032   22.3669 N   0  0  0  0  0  0
  -26.4267  -37.3757   23.9402 N   0  0  0  0  0  0
  -24.6824  -31.0632   22.0970 N   0  0  0  0  0  0
  -23.4150  -28.8142   23.3002 O   0  0  0  0  0  0
  -28.4012  -26.5818   20.1456 O   0  0  0  0  0  0
  -26.5583  -34.8886   22.4669 O   0  0  0  0  0  0
  -23.5412  -32.1376   23.7383 O   0  0  0  0  0  0
  -27.2408  -20.9071   21.3764 C   0  0  0  0  0  0
  -26.7255  -19.9695   22.3044 C   0  0  0  0  0  0
  -28.4295  -20.4655   20.8732 C   0  0  0  0  0  0
  -27.5958  -18.9115   22.3093 C   0  0  0  0  0  0
  -27.5180  -17.6597   23.1318 C   0  0  0  0  0  0
  -24.1671  -18.2213   22.0299 C   0  0  0  0  0  0
  -25.3332  -21.5920   23.6387 C   0  0  0  0  0  0
  -29.5648  -20.4145   18.6357 C   0  0  0  0  0  0
  -30.4573  -15.5923   22.6951 C   0  0  0  0  0  0
  -24.2067  -19.7232   22.3414 C   0  0  0  0  0  0
  -28.6697  -23.9660   20.2850 C   0  0  0  0  0  0
  -28.7369  -22.6624   19.3944 C   0  0  0  0  0  0
  -29.8276  -18.2380   21.3038 C   0  0  0  0  0  0
  -29.5571  -16.8146   20.6370 C   0  0  0  0  0  0
  -28.5345  -25.3017   19.4455 C   0  0  0  0  0  0
  -25.4621  -20.1482   23.1261 C   0  0  1  0  0  0
  -29.3044  -21.2573   19.9002 C   0  0  1  0  0  0
  -28.6612  -19.1729   21.4360 N   0  0  0  0  0  0
  -30.0692  -15.5455   21.2825 N   0  0  0  0  0  0
  -31.4659  -12.4668   19.1339 H   0  0  0  0  0  0
  -30.3488  -11.3550   19.8692 H   0  0  0  0  0  0
  -29.7430  -11.7475   17.4666 H   0  0  0  0  0  0
  -29.6405  -13.4690   17.7461 H   0  0  0  0  0  0
  -27.8475  -11.2924   18.8641 H   0  0  0  0  0  0
  -27.3593  -12.5799   17.7986 H   0  0  0  0  0  0
  -27.6850  -14.2511   19.5417 H   0  0  0  0  0  0
  -28.6898  -12.0127   21.3676 H   0  0  0  0  0  0
  -28.4368  -13.6636   21.8532 H   0  0  0  0  0  0
  -25.2740   -9.5711   22.4748 H   0  0  0  0  0  0
  -23.9999   -7.4648   22.7476 H   0  0  0  0  0  0
  -21.0827   -8.8741   19.8945 H   0  0  0  0  0  0
  -22.3648  -10.9664   19.6158 H   0  0  0  0  0  0
  -21.1990   -7.6143   23.9713 H   0  0  0  0  0  0
  -21.1481   -6.0524   25.9080 H   0  0  0  0  0  0
  -22.0599   -2.7606   23.2856 H   0  0  0  0  0  0
  -22.4103  -11.9898   22.4793 H   0  0  0  0  0  0
  -21.1105  -13.1261   22.2627 H   0  0  0  0  0  0
  -24.6760  -15.8501   20.5537 H   0  0  0  0  0  0
  -26.2943  -15.6267   20.1211 H   0  0  0  0  0  0
  -26.7165  -32.5444   23.1114 H   0  0  0  0  0  0
  -25.0028  -33.9695   25.0403 H   0  0  0  0  0  0
  -22.7087  -31.3015   21.4015 H   0  0  0  0  0  0
  -23.3707  -35.9670   23.3293 H   0  0  0  0  0  0
  -24.3576  -36.8956   22.2059 H   0  0  0  0  0  0
  -23.7272  -37.6524   23.6676 H   0  0  0  0  0  0
  -26.0696  -31.5669   20.5978 H   0  0  0  0  0  0
  -26.8380  -30.8612   21.9861 H   0  0  0  0  0  0
  -28.1145  -29.0264   21.1603 H   0  0  0  0  0  0
  -25.9534  -25.9105   19.0718 H   0  0  0  0  0  0
  -23.9656  -27.2849   19.0524 H   0  0  0  0  0  0
  -23.7389  -30.5919   19.4016 H   0  0  0  0  0  0
  -22.7514  -29.2384   19.8591 H   0  0  0  0  0  0
  -25.1277  -36.1917   25.0816 H   0  0  0  0  0  0
  -20.9914  -28.3253   24.1402 H   0  0  0  0  0  0
  -20.5617  -26.2274   23.3589 H   0  0  0  0  0  0
  -21.6633  -26.7406   22.1210 H   0  0  0  0  0  0
  -19.6905  -25.6284   21.1216 H   0  0  0  0  0  0
  -19.6701  -27.3156   20.6672 H   0  0  0  0  0  0
  -17.4172  -26.6580   21.4004 H   0  0  0  0  0  0
  -18.0363  -26.0063   22.8996 H   0  0  0  0  0  0
  -19.7939  -30.7200   24.2288 H   0  0  0  0  0  0
  -17.5034  -31.6265   24.5137 H   0  0  0  0  0  0
  -15.5353  -30.2992   23.7665 H   0  0  0  0  0  0
  -15.8630  -28.0831   22.7063 H   0  0  0  0  0  0
  -24.5906  -30.7058   25.7803 H   0  0  0  0  0  0
  -24.8930  -32.2860   26.4889 H   0  0  0  0  0  0
  -25.8078  -30.8884   27.0227 H   0  0  0  0  0  0
  -26.2944  -29.6706   24.1243 H   0  0  0  0  0  0
  -27.4101  -29.7288   25.4710 H   0  0  0  0  0  0
  -27.8794  -30.4280   23.9386 H   0  0  0  0  0  0
  -27.2654  -33.3607   26.2076 H   0  0  0  0  0  0
  -28.3871  -32.6889   25.0343 H   0  0  0  0  0  0
  -28.0707  -31.8439   26.5430 H   0  0  0  0  0  0
  -28.2561  -38.0101   24.7505 H   0  0  0  0  0  0
  -28.1077  -36.2646   24.6274 H   0  0  0  0  0  0
  -27.2276  -37.1445   25.8846 H   0  0  0  0  0  0
  -20.9303  -29.8821   21.6946 H   0  0  0  0  0  0
  -26.0147  -38.2824   24.1439 H   0  0  0  0  0  0
  -26.7853  -21.8572   21.1325 H   0  0  0  0  0  0
  -26.5931  -17.5994   23.7004 H   0  0  0  0  0  0
  -28.3275  -17.6323   23.8587 H   0  0  0  0  0  0
  -27.5504  -16.7614   22.5162 H   0  0  0  0  0  0
  -23.2348  -17.9450   21.5382 H   0  0  0  0  0  0
  -24.2479  -17.6319   22.9446 H   0  0  0  0  0  0
  -24.9878  -17.9345   21.3727 H   0  0  0  0  0  0
  -26.2205  -21.8871   24.1998 H   0  0  0  0  0  0
  -24.4750  -21.6987   24.3042 H   0  0  0  0  0  0
  -25.2038  -22.3013   22.8211 H   0  0  0  0  0  0
  -30.0524  -19.4670   18.8460 H   0  0  0  0  0  0
  -30.2068  -20.9398   17.9301 H   0  0  0  0  0  0
  -28.6283  -20.1869   18.1246 H   0  0  0  0  0  0
  -29.7250  -16.1062   23.3063 H   0  0  0  0  0  0
  -31.4220  -16.0880   22.8140 H   0  0  0  0  0  0
  -30.5506  -14.5905   23.1216 H   0  0  0  0  0  0
  -23.3186  -19.9761   22.9214 H   0  0  0  0  0  0
  -24.1381  -20.2948   21.4146 H   0  0  0  0  0  0
  -29.5718  -24.0301   20.8945 H   0  0  0  0  0  0
  -27.8373  -23.8884   20.9842 H   0  0  0  0  0  0
  -29.3673  -22.9486   18.5516 H   0  0  0  0  0  0
  -27.7536  -22.5000   18.9502 H   0  0  0  0  0  0
  -30.6336  -18.7445   20.7776 H   0  0  0  0  0  0
  -30.2325  -18.1219   22.3058 H   0  0  0  0  0  0
  -29.9417  -16.8618   19.6167 H   0  0  0  0  0  0
  -28.4845  -16.6828   20.4982 H   0  0  0  0  0  0
  -27.8018  -25.1708   18.6539 H   0  0  0  0  0  0
  -29.4692  -25.4019   18.8927 H   0  0  0  0  0  0
  -25.5401  -19.5189   24.0132 H   0  0  0  0  0  0
  -30.2649  -21.4404   20.3834 H   0  0  0  0  0  0
  1 25  1  0  0  0
  1 30  2  0  0  0
  1 89  1  0  0  0
  2  3  1  0  0  0
  2 25  1  0  0  0
  2 90  1  0  0  0
  2 91  1  0  0  0
  3  4  1  0  0  0
  3 92  1  0  0  0
  3 93  1  0  0  0
  4  5  1  0  0  0
  4 94  1  0  0  0
  4 95  1  0  0  0
  5  6  1  0  0  0
  5 26  1  0  0  0
  5 96  1  0  0  0
  6 25  1  0  0  0
  6 97  1  0  0  0
  6 98  1  0  0  0
  7  8  2  0  0  0
  7 26  1  0  0  0
  7 29  1  0  0  0
  8  9  1  0  0  0
  8 22  1  0  0  0
  9 10  1  0  0  0
  9 27  2  0  0  0
 10 11  2  0  0  0
 10 15  1  0  0  0
 11 12  1  0  0  0
 11 99  1  0  0  0
 12 13  2  0  0  0
 12100  1  0  0  0
 13 14  1  0  0  0
 13 31  1  0  0  0
 14 15  2  0  0  0
 14101  1  0  0  0
 15102  1  0  0  0
 16 17  2  0  0  0
 16 21  1  0  0  0
 16 31  1  0  0  0
 17 18  1  0  0  0
 17103  1  0  0  0
 18 19  2  0  0  0
 18104  1  0  0  0
 19 20  1  0  0  0
 19 24  1  0  0  0
 20 21  2  0  0  0
 20105  1  0  0  0
 21 23  1  0  0  0
 22 28  1  0  0  0
 22 32  2  0  0  0
 26 27  1  0  0  0
 28106  1  0  0  0
 28107  1  0  0  0
 29108  1  0  0  0
 29109  1  0  0  0
 33 34  1  0  0  0
 33 66  1  0  0  0
 33 70  2  0  0  0
 34 36  1  0  0  0
 34 59  1  0  0  0
 34110  1  0  0  0
 35 44  2  0  0  0
 35 45  1  0  0  0
 35 68  1  0  0  0
 36 56  1  0  0  0
 36111  1  0  0  0
 37 39  1  0  0  0
 37 47  1  0  0  0
 37 66  1  0  0  0
 37112  1  0  0  0
 38 43  2  0  0  0
 38 46  1  0  0  0
 38 47  1  0  0  0
 39 64  1  0  0  0
 39 67  2  0  0  0
 40 52  1  0  0  0
 40 53  2  0  0  0
 40 58  1  0  0  0
 41113  1  0  0  0
 41114  1  0  0  0
 41115  1  0  0  0
 41 48  1  0  0  0
 42 43  1  0  0  0
 42 66  1  0  0  0
 42116  1  0  0  0
 42117  1  0  0  0
 43 44  1  0  0  0
 44118  1  0  0  0
 45 46  2  0  0  0
 45119  1  0  0  0
 46120  1  0  0  0
 47121  1  0  0  0
 47122  1  0  0  0
 48 56  1  0  0  0
 48 65  1  0  0  0
 48123  1  0  0  0
 49 50  1  0  0  0
 49 53  1  0  0  0
 49 64  1  0  0  0
 49124  1  0  0  0
 50 51  1  0  0  0
 50125  1  0  0  0
 50126  1  0  0  0
 51 52  1  0  0  0
 51127  1  0  0  0
 51128  1  0  0  0
 52129  1  0  0  0
 52130  1  0  0  0
 53 54  1  0  0  0
 54 55  2  0  0  0
 54131  1  0  0  0
 55 57  1  0  0  0
 55132  1  0  0  0
 56 69  2  0  0  0
 57 58  2  0  0  0
 57133  1  0  0  0
 58134  1  0  0  0
 59 60  1  0  0  0
 59 61  1  0  0  0
 59 62  1  0  0  0
 60135  1  0  0  0
 60136  1  0  0  0
 60137  1  0  0  0
 61138  1  0  0  0
 61139  1  0  0  0
 61140  1  0  0  0
 62141  1  0  0  0
 62142  1  0  0  0
 62143  1  0  0  0
 63 65  1  0  0  0
 63144  1  0  0  0
 63145  1  0  0  0
 63146  1  0  0  0
 64147  1  0  0  0
 65148  1  0  0  0
 68 85  1  0  0  0
 71 72  1  0  0  0
 71 73  2  0  0  0
 71149  1  0  0  0
 72 74  2  0  0  0
 72 86  1  0  0  0
 73 87  1  0  0  0
 73 88  1  0  0  0
 74 75  1  0  0  0
 74 88  1  0  0  0
 75150  1  0  0  0
 75151  1  0  0  0
 75152  1  0  0  0
 76 80  1  0  0  0
 76153  1  0  0  0
 76154  1  0  0  0
 76155  1  0  0  0
 77156  1  0  0  0
 77157  1  0  0  0
 77158  1  0  0  0
 77 86  1  0  0  0
 78159  1  0  0  0
 78160  1  0  0  0
 78161  1  0  0  0
 78 87  1  0  0  0
 79 89  1  0  0  0
 79162  1  0  0  0
 79163  1  0  0  0
 79164  1  0  0  0
 80 86  1  0  0  0
 80165  1  0  0  0
 80166  1  0  0  0
 81 82  1  0  0  0
 81 85  1  0  0  0
 81167  1  0  0  0
 81168  1  0  0  0
 82 87  1  0  0  0
 82169  1  0  0  0
 82170  1  0  0  0
 83 84  1  0  0  0
 83 88  1  0  0  0
 83171  1  0  0  0
 83172  1  0  0  0
 84 89  1  0  0  0
 84173  1  0  0  0
 84174  1  0  0  0
 85175  1  0  0  0
 85176  1  0  0  0
 86177  1  0  0  0
 87178  1  0  0  0
M  ISO  4   1 100  68 101  85 101  89 100
M  END
> <chiral flag>
0

> <version>
0

> <s_m_source_file>
/data/baiqing/PycharmProjects/Reinvent-master-3.2/result/LINK_invent/BTK/process_docking_weight1_custom_sum_contain_oxygen_bond_distance_aromatic_linkinvent_7_9_3/rearranged_h_0096.sdf

> <i_m_source_file_index>
65

> <r_mmod_Potential_Energy-OPLS-2005>
170.467834472656

> <r_mmod_Stretch_Energy-OPLS-2005>
76.2466659545898

> <r_mmod_Bend_Energy-OPLS-2005>
170.365219116211

> <r_mmod_Torsional_Energy-OPLS-2005>
318.918884277344

> <r_mmod_Improper_Torsional_Energy-OPLS-2005>
4.0201301574707

> <r_mmod_Van_der_Waal_Energy-OPLS-2005>
118.76993560791

> <r_mmod_Electrostatic_Energy-OPLS-2005>
-364.351226806641

> <r_mmod_Solvation_Energy-OPLS-2005>
-181.063293457031

> <b_mmod_Minimization_Converged-OPLS-2005>
0

> <r_mmod_RMS_Derivative-OPLS-2005>
2.26779532432556

$$$$
65
                    3D
 Structure written by MMmdl.
176184  0  0  1  0            999 V2000
  -30.6871  -14.5079   20.4813 C   0  0  0  0  0  0
  -30.4362  -12.3048   19.4271 C   0  0  0  0  0  0
  -29.4954  -12.4748   18.2159 C   0  0  0  0  0  0
  -28.0183  -12.3300   18.6357 C   0  0  0  0  0  0
  -27.6591  -13.1813   19.8843 C   0  0  2  0  0  0
  -28.7136  -13.0210   21.0043 C   0  0  0  0  0  0
  -25.2566  -13.7987   20.5783 C   0  0  0  0  0  0
  -24.1804  -13.0315   20.9197 C   0  0  0  0  0  0
  -24.6384  -11.6806   20.8789 C   0  0  0  0  0  0
  -23.9061  -10.4226   21.0420 C   0  0  0  0  0  0
  -24.3628   -9.4139   21.9191 C   0  0  0  0  0  0
  -23.6267   -8.2200   22.0771 C   0  0  0  0  0  0
  -22.4255   -8.0265   21.3549 C   0  0  0  0  0  0
  -21.9890   -9.0238   20.4652 C   0  0  0  0  0  0
  -22.7246  -10.2088   20.3042 C   0  0  0  0  0  0
  -21.6815   -6.0736   22.5279 C   0  0  0  0  0  0
  -21.3995   -6.5637   23.8215 C   0  0  0  0  0  0
  -21.3661   -5.6776   24.9172 C   0  0  0  0  0  0
  -21.6038   -4.3036   24.7203 C   0  0  0  0  0  0
  -21.8817   -3.8154   23.4316 C   0  0  0  0  0  0
  -21.9182   -4.6978   22.3394 C   0  0  0  0  0  0
  -22.7833  -13.5160   21.1858 C   0  0  0  0  0  0
  -22.1646   -4.2179   21.0959 F   0  0  0  0  0  0
  -21.5660   -3.4515   25.7714 F   0  0  0  0  0  0
  -30.0452  -13.3105   20.4282 N   0  0  0  0  0  0
  -26.3034  -12.9167   20.3483 N   0  0  0  0  0  0
  -25.9319  -11.6368   20.5866 N   0  0  0  0  0  0
  -22.0462  -12.8158   22.0397 N   0  0  0  0  0  0
  -25.4129  -15.1690   20.4348 N   0  0  0  0  0  0
  -31.8385  -14.6824   20.0707 O   0  0  0  0  0  0
  -21.6596   -6.8886   21.4243 O   0  0  0  0  0  0
  -22.3576  -14.5534   20.6767 O   0  0  0  0  0  0
  -24.6103  -31.8693   23.2108 C   0  0  0  0  0  0
  -25.9004  -32.4827   23.8408 C   0  0  1  0  0  0
  -27.2533  -27.4631   20.0868 C   0  0  0  0  0  0
  -25.5880  -33.8641   24.2358 N   0  0  0  0  0  0
  -23.3995  -30.4850   21.5480 C   0  0  2  0  0  0
  -24.8533  -28.9534   20.1061 C   0  0  0  0  0  0
  -22.7423  -29.4616   22.5003 C   0  0  0  0  0  0
  -18.0275  -28.1365   22.8492 C   0  0  0  0  0  0
  -24.1496  -36.7328   23.2630 C   0  0  0  0  0  0
  -25.9274  -30.8388   21.3611 C   0  0  0  0  0  0
  -26.0048  -29.4740   20.7106 C   0  0  0  0  0  0
  -27.2026  -28.7304   20.7062 C   0  0  0  0  0  0
  -26.0853  -26.9411   19.4911 C   0  0  0  0  0  0
  -24.8848  -27.6842   19.4972 C   0  0  0  0  0  0
  -23.6079  -29.8125   20.1638 C   0  0  0  0  0  0
  -25.4115  -36.3137   24.0335 C   0  0  1  0  0  0
  -20.5861  -28.3667   23.1324 C   0  0  2  0  0  0
  -20.6795  -26.9404   22.5421 C   0  0  0  0  0  0
  -19.5760  -26.6384   21.5223 C   0  0  0  0  0  0
  -18.1930  -26.7914   22.1623 C   0  0  0  0  0  0
  -19.1518  -28.8826   23.2905 C   0  0  0  0  0  0
  -18.9443  -30.1434   23.8900 C   0  0  0  0  0  0
  -17.6441  -30.6577   24.0541 C   0  0  0  0  0  0
  -25.9036  -34.9482   23.5151 C   0  0  0  0  0  0
  -16.5336  -29.9069   23.6325 C   0  0  0  0  0  0
  -16.7246  -28.6484   23.0351 C   0  0  0  0  0  0
  -26.4464  -31.6599   25.0716 C   0  0  0  0  0  0
  -25.3741  -31.3696   26.1467 C   0  0  0  0  0  0
  -27.0259  -30.3030   24.6066 C   0  0  0  0  0  0
  -27.6031  -32.4319   25.7472 C   0  0  0  0  0  0
  -27.5599  -37.1820   24.8467 C   0  0  0  0  0  0
  -21.4162  -29.3009   22.3735 N   0  0  0  0  0  0
  -26.4317  -37.3800   23.9399 N   0  0  0  0  0  0
  -24.6644  -31.0789   22.0984 N   0  0  0  0  0  0
  -23.4216  -28.8179   23.3033 O   0  0  0  0  0  0
  -28.4179  -26.7367   20.1560 O   0  0  0  0  0  0
  -26.5616  -34.8905   22.4720 O   0  0  0  0  0  0
  -23.5288  -32.1459   23.7496 O   0  0  0  0  0  0
  -28.6822  -23.0629   19.2557 C   0  0  0  0  0  0
  -30.1009  -23.4974   17.3516 C   0  0  0  0  0  0
  -29.6085  -23.8941   18.6072 C   0  0  0  0  0  0
  -28.2093  -21.9259   18.5715 C   0  0  0  0  0  0
  -28.7236  -21.6367   17.2837 C   0  0  0  0  0  0
  -28.1408  -20.5437   16.4011 C   0  0  0  0  0  0
  -25.8678  -19.1195   19.5433 C   0  0  0  0  0  0
  -26.9379  -20.3873   21.4640 C   0  0  0  0  0  0
  -27.9228  -16.8811   18.9117 C   0  0  0  0  0  0
  -27.8071  -17.2014   21.5065 C   0  0  0  0  0  0
  -30.0397  -25.2154   19.2197 C   0  0  0  0  0  0
  -26.9904  -21.2181   19.1246 C   0  0  0  0  0  0
  -28.4981  -19.1269   19.9143 C   0  0  0  0  0  0
  -29.9786  -16.9651   20.3462 C   0  0  0  0  0  0
  -29.0375  -26.3602   18.9342 C   0  0  0  0  0  0
  -27.1205  -19.9213   19.9987 C   0  0  0  0  0  0
  -28.5333  -17.5627   20.1716 C   0  0  0  0  0  0
  -29.6850  -22.3870   16.7086 N   0  0  0  0  0  0
  -29.8880  -15.5464   20.7642 N   0  0  0  0  0  0
  -31.4745  -12.4130   19.1080 H   0  0  0  0  0  0
  -30.3609  -11.2989   19.8429 H   0  0  0  0  0  0
  -29.7382  -11.7402   17.4441 H   0  0  0  0  0  0
  -29.6506  -13.4560   17.7655 H   0  0  0  0  0  0
  -27.8353  -11.2750   18.8441 H   0  0  0  0  0  0
  -27.3616  -12.5938   17.8073 H   0  0  0  0  0  0
  -27.6719  -14.2150   19.5735 H   0  0  0  0  0  0
  -28.6988  -12.0100   21.4112 H   0  0  0  0  0  0
  -28.4835  -13.6751   21.8482 H   0  0  0  0  0  0
  -25.2810   -9.5566   22.4715 H   0  0  0  0  0  0
  -23.9992   -7.4560   22.7446 H   0  0  0  0  0  0
  -21.0846   -8.8733   19.8924 H   0  0  0  0  0  0
  -22.3766  -10.9614   19.6108 H   0  0  0  0  0  0
  -21.1966   -7.6139   23.9711 H   0  0  0  0  0  0
  -21.1496   -6.0513   25.9072 H   0  0  0  0  0  0
  -22.0614   -2.7620   23.2777 H   0  0  0  0  0  0
  -22.4120  -11.9846   22.4811 H   0  0  0  0  0  0
  -21.1050  -13.1140   22.2606 H   0  0  0  0  0  0
  -24.6443  -15.8065   20.5978 H   0  0  0  0  0  0
  -26.2795  -15.6339   20.2015 H   0  0  0  0  0  0
  -26.7072  -32.5533   23.1165 H   0  0  0  0  0  0
  -25.0031  -33.9841   25.0512 H   0  0  0  0  0  0
  -22.6827  -31.2973   21.4126 H   0  0  0  0  0  0
  -23.3770  -35.9653   23.3326 H   0  0  0  0  0  0
  -24.3579  -36.8921   22.2040 H   0  0  0  0  0  0
  -23.7263  -37.6541   23.6626 H   0  0  0  0  0  0
  -26.0334  -31.6021   20.5883 H   0  0  0  0  0  0
  -26.8200  -30.8973   21.9743 H   0  0  0  0  0  0
  -28.0860  -29.1217   21.1858 H   0  0  0  0  0  0
  -26.0959  -25.9517   19.0526 H   0  0  0  0  0  0
  -23.9939  -27.2691   19.0473 H   0  0  0  0  0  0
  -23.6956  -30.5871   19.4016 H   0  0  0  0  0  0
  -22.7379  -29.2175   19.8815 H   0  0  0  0  0  0
  -25.1301  -36.1997   25.0829 H   0  0  0  0  0  0
  -20.9927  -28.3212   24.1453 H   0  0  0  0  0  0
  -20.5743  -26.2262   23.3609 H   0  0  0  0  0  0
  -21.6660  -26.7494   22.1163 H   0  0  0  0  0  0
  -19.6944  -25.6309   21.1227 H   0  0  0  0  0  0
  -19.6669  -27.3218   20.6772 H   0  0  0  0  0  0
  -17.4224  -26.6658   21.3998 H   0  0  0  0  0  0
  -18.0282  -26.0036   22.8998 H   0  0  0  0  0  0
  -19.7910  -30.7243   24.2262 H   0  0  0  0  0  0
  -17.5002  -31.6230   24.5171 H   0  0  0  0  0  0
  -15.5341  -30.2981   23.7643 H   0  0  0  0  0  0
  -15.8656  -28.0805   22.7101 H   0  0  0  0  0  0
  -24.5876  -30.7091   25.7817 H   0  0  0  0  0  0
  -24.8967  -32.2846   26.4955 H   0  0  0  0  0  0
  -25.8084  -30.8817   27.0197 H   0  0  0  0  0  0
  -26.2777  -29.6809   24.1130 H   0  0  0  0  0  0
  -27.4069  -29.7212   25.4481 H   0  0  0  0  0  0
  -27.8603  -30.4379   23.9178 H   0  0  0  0  0  0
  -27.2649  -33.3588   26.2099 H   0  0  0  0  0  0
  -28.3790  -32.6951   25.0283 H   0  0  0  0  0  0
  -28.0756  -31.8430   26.5336 H   0  0  0  0  0  0
  -28.2638  -38.0102   24.7498 H   0  0  0  0  0  0
  -28.1079  -36.2635   24.6315 H   0  0  0  0  0  0
  -27.2293  -37.1482   25.8863 H   0  0  0  0  0  0
  -20.9360  -29.8661   21.6883 H   0  0  0  0  0  0
  -26.0219  -38.2882   24.1382 H   0  0  0  0  0  0
  -28.2702  -23.3541   20.2144 H   0  0  0  0  0  0
  -30.8240  -24.1042   16.8267 H   0  0  0  0  0  0
  -27.1365  -20.8241   16.0776 H   0  0  0  0  0  0
  -28.0602  -19.5951   16.9319 H   0  0  0  0  0  0
  -28.7398  -20.3898   15.5030 H   0  0  0  0  0  0
  -24.9627  -19.7126   19.6889 H   0  0  0  0  0  0
  -25.6703  -18.2024   20.0806 H   0  0  0  0  0  0
  -25.9250  -18.8638   18.4817 H   0  0  0  0  0  0
  -25.9422  -20.7844   21.6497 H   0  0  0  0  0  0
  -27.6373  -21.1825   21.7129 H   0  0  0  0  0  0
  -27.1094  -19.6091   22.1998 H   0  0  0  0  0  0
  -26.8503  -16.7223   18.9666 H   0  0  0  0  0  0
  -28.3881  -15.9313   18.6657 H   0  0  0  0  0  0
  -28.0797  -17.4823   18.0179 H   0  0  0  0  0  0
  -26.8030  -17.5870   21.6059 H   0  0  0  0  0  0
  -28.3616  -17.5955   22.3583 H   0  0  0  0  0  0
  -27.6843  -16.1344   21.6779 H   0  0  0  0  0  0
  -31.0323  -25.4648   18.8370 H   0  0  0  0  0  0
  -30.1634  -25.0822   20.2968 H   0  0  0  0  0  0
  -26.3547  -21.0449   18.2589 H   0  0  0  0  0  0
  -26.4144  -21.9707   19.6653 H   0  0  0  0  0  0
  -29.1944  -19.6019   20.6073 H   0  0  0  0  0  0
  -28.9593  -19.3188   18.9483 H   0  0  0  0  0  0
  -30.5398  -17.5133   21.1063 H   0  0  0  0  0  0
  -30.5505  -17.0624   19.4223 H   0  0  0  0  0  0
  -28.3103  -26.0739   18.1700 H   0  0  0  0  0  0
  -29.5743  -27.2287   18.5482 H   0  0  0  0  0  0
  -28.9789  -15.2863   21.1124 H   0  0  0  0  0  0
  1 25  1  0  0  0
  1 30  2  0  0  0
  1 89  1  0  0  0
  2  3  1  0  0  0
  2 25  1  0  0  0
  2 90  1  0  0  0
  2 91  1  0  0  0
  3  4  1  0  0  0
  3 92  1  0  0  0
  3 93  1  0  0  0
  4  5  1  0  0  0
  4 94  1  0  0  0
  4 95  1  0  0  0
  5  6  1  0  0  0
  5 26  1  0  0  0
  5 96  1  0  0  0
  6 25  1  0  0  0
  6 97  1  0  0  0
  6 98  1  0  0  0
  7  8  2  0  0  0
  7 26  1  0  0  0
  7 29  1  0  0  0
  8  9  1  0  0  0
  8 22  1  0  0  0
  9 10  1  0  0  0
  9 27  2  0  0  0
 10 11  2  0  0  0
 10 15  1  0  0  0
 11 12  1  0  0  0
 11 99  1  0  0  0
 12 13  2  0  0  0
 12100  1  0  0  0
 13 14  1  0  0  0
 13 31  1  0  0  0
 14 15  2  0  0  0
 14101  1  0  0  0
 15102  1  0  0  0
 16 17  2  0  0  0
 16 21  1  0  0  0
 16 31  1  0  0  0
 17 18  1  0  0  0
 17103  1  0  0  0
 18 19  2  0  0  0
 18104  1  0  0  0
 19 20  1  0  0  0
 19 24  1  0  0  0
 20 21  2  0  0  0
 20105  1  0  0  0
 21 23  1  0  0  0
 22 28  1  0  0  0
 22 32  2  0  0  0
 26 27  1  0  0  0
 28106  1  0  0  0
 28107  1  0  0  0
 29108  1  0  0  0
 29109  1  0  0  0
 33 34  1  0  0  0
 33 66  1  0  0  0
 33 70  2  0  0  0
 34 36  1  0  0  0
 34 59  1  0  0  0
 34110  1  0  0  0
 35 44  2  0  0  0
 35 45  1  0  0  0
 35 68  1  0  0  0
 36 56  1  0  0  0
 36111  1  0  0  0
 37 39  1  0  0  0
 37 47  1  0  0  0
 37 66  1  0  0  0
 37112  1  0  0  0
 38 43  2  0  0  0
 38 46  1  0  0  0
 38 47  1  0  0  0
 39 64  1  0  0  0
 39 67  2  0  0  0
 40 52  1  0  0  0
 40 53  2  0  0  0
 40 58  1  0  0  0
 41113  1  0  0  0
 41114  1  0  0  0
 41115  1  0  0  0
 41 48  1  0  0  0
 42 43  1  0  0  0
 42 66  1  0  0  0
 42116  1  0  0  0
 42117  1  0  0  0
 43 44  1  0  0  0
 44118  1  0  0  0
 45 46  2  0  0  0
 45119  1  0  0  0
 46120  1  0  0  0
 47121  1  0  0  0
 47122  1  0  0  0
 48 56  1  0  0  0
 48 65  1  0  0  0
 48123  1  0  0  0
 49 50  1  0  0  0
 49 53  1  0  0  0
 49 64  1  0  0  0
 49124  1  0  0  0
 50 51  1  0  0  0
 50125  1  0  0  0
 50126  1  0  0  0
 51 52  1  0  0  0
 51127  1  0  0  0
 51128  1  0  0  0
 52129  1  0  0  0
 52130  1  0  0  0
 53 54  1  0  0  0
 54 55  2  0  0  0
 54131  1  0  0  0
 55 57  1  0  0  0
 55132  1  0  0  0
 56 69  2  0  0  0
 57 58  2  0  0  0
 57133  1  0  0  0
 58134  1  0  0  0
 59 60  1  0  0  0
 59 61  1  0  0  0
 59 62  1  0  0  0
 60135  1  0  0  0
 60136  1  0  0  0
 60137  1  0  0  0
 61138  1  0  0  0
 61139  1  0  0  0
 61140  1  0  0  0
 62141  1  0  0  0
 62142  1  0  0  0
 62143  1  0  0  0
 63 65  1  0  0  0
 63144  1  0  0  0
 63145  1  0  0  0
 63146  1  0  0  0
 64147  1  0  0  0
 65148  1  0  0  0
 68 85  1  0  0  0
 71 73  2  0  0  0
 71 74  1  0  0  0
 71149  1  0  0  0
 72 73  1  0  0  0
 72 88  2  0  0  0
 72150  1  0  0  0
 73 81  1  0  0  0
 74 75  2  0  0  0
 74 82  1  0  0  0
 75 76  1  0  0  0
 75 88  1  0  0  0
 76151  1  0  0  0
 76152  1  0  0  0
 76153  1  0  0  0
 77154  1  0  0  0
 77155  1  0  0  0
 77156  1  0  0  0
 77 86  1  0  0  0
 78 86  1  0  0  0
 78157  1  0  0  0
 78158  1  0  0  0
 78159  1  0  0  0
 79160  1  0  0  0
 79161  1  0  0  0
 79162  1  0  0  0
 79 87  1  0  0  0
 80 87  1  0  0  0
 80163  1  0  0  0
 80164  1  0  0  0
 80165  1  0  0  0
 81 85  1  0  0  0
 81166  1  0  0  0
 81167  1  0  0  0
 82 86  1  0  0  0
 82168  1  0  0  0
 82169  1  0  0  0
 83 86  1  0  0  0
 83 87  1  0  0  0
 83170  1  0  0  0
 83171  1  0  0  0
 84 87  1  0  0  0
 84 89  1  0  0  0
 84172  1  0  0  0
 84173  1  0  0  0
 85174  1  0  0  0
 85175  1  0  0  0
 89176  1  0  0  0
M  ISO  4   1 100  68 101  85 101  89 100
M  END
> <chiral flag>
0

> <version>
0

> <s_m_source_file>
/data/baiqing/PycharmProjects/Reinvent-master-3.2/result/LINK_invent/BTK/process_docking_weight1_custom_sum_contain_oxygen_bond_distance_aromatic_linkinvent_7_9_3/rearranged_h_0096.sdf

> <i_m_source_file_index>
66

> <r_mmod_Potential_Energy-OPLS-2005>
-144.837585449219

> <r_mmod_Stretch_Energy-OPLS-2005>
49.6027717590332

> <r_mmod_Bend_Energy-OPLS-2005>
145.596618652344

> <r_mmod_Torsional_Energy-OPLS-2005>
284.175170898438

> <r_mmod_Improper_Torsional_Energy-OPLS-2005>
8.91906929016113

> <r_mmod_Van_der_Waal_Energy-OPLS-2005>
177.292373657227

> <r_mmod_Electrostatic_Energy-OPLS-2005>
-620.299377441406

> <r_mmod_Solvation_Energy-OPLS-2005>
-208.093902587891

> <b_mmod_Minimization_Converged-OPLS-2005>
0

> <r_mmod_RMS_Derivative-OPLS-2005>
5.54309940338135

$$$$
66
                    3D
 Structure written by MMmdl.
166174  0  0  1  0            999 V2000
  -30.5171  -15.0535   20.3950 C   0  0  0  0  0  0
  -30.4344  -12.6521   19.5301 C   0  0  0  0  0  0
  -29.5263  -12.5376   18.2794 C   0  0  0  0  0  0
  -28.0600  -12.3134   18.6890 C   0  0  0  0  0  0
  -27.6219  -13.2602   19.8373 C   0  0  2  0  0  0
  -28.6604  -13.3362   20.9799 C   0  0  0  0  0  0
  -25.2420  -13.8223   20.5751 C   0  0  0  0  0  0
  -24.1753  -13.0434   20.9253 C   0  0  0  0  0  0
  -24.6373  -11.6922   20.8753 C   0  0  0  0  0  0
  -23.9062  -10.4288   21.0386 C   0  0  0  0  0  0
  -24.3620   -9.4214   21.9167 C   0  0  0  0  0  0
  -23.6298   -8.2247   22.0753 C   0  0  0  0  0  0
  -22.4277   -8.0281   21.3549 C   0  0  0  0  0  0
  -21.9909   -9.0242   20.4640 C   0  0  0  0  0  0
  -22.7233  -10.2124   20.3042 C   0  0  0  0  0  0
  -21.6856   -6.0734   22.5283 C   0  0  0  0  0  0
  -21.4009   -6.5637   23.8211 C   0  0  0  0  0  0
  -21.3662   -5.6792   24.9172 C   0  0  0  0  0  0
  -21.6069   -4.3054   24.7215 C   0  0  0  0  0  0
  -21.8816   -3.8145   23.4328 C   0  0  0  0  0  0
  -21.9192   -4.6967   22.3392 C   0  0  0  0  0  0
  -22.7774  -13.5204   21.1882 C   0  0  0  0  0  0
  -22.1664   -4.2164   21.0965 F   0  0  0  0  0  0
  -21.5641   -3.4522   25.7716 F   0  0  0  0  0  0
  -29.9281  -13.7782   20.3813 N   0  0  0  0  0  0
  -26.2847  -12.9484   20.3255 N   0  0  0  0  0  0
  -25.9312  -11.6596   20.5741 N   0  0  0  0  0  0
  -22.0445  -12.8186   22.0454 N   0  0  0  0  0  0
  -25.4041  -15.1950   20.4149 N   0  0  0  0  0  0
  -31.7152  -15.0844   20.0874 O   0  0  0  0  0  0
  -21.6664   -6.8867   21.4243 O   0  0  0  0  0  0
  -22.3450  -14.5492   20.6712 O   0  0  0  0  0  0
  -24.6478  -31.8385   23.1829 C   0  0  0  0  0  0
  -25.9247  -32.4641   23.8228 C   0  0  1  0  0  0
  -27.2261  -27.0969   20.1628 C   0  0  0  0  0  0
  -25.5988  -33.8450   24.2166 N   0  0  0  0  0  0
  -23.4522  -30.4564   21.5302 C   0  0  2  0  0  0
  -24.9047  -28.8698   20.1128 C   0  0  0  0  0  0
  -22.7580  -29.4539   22.4871 C   0  0  0  0  0  0
  -18.0303  -28.1380   22.8473 C   0  0  0  0  0  0
  -24.1504  -36.7231   23.2642 C   0  0  0  0  0  0
  -26.0103  -30.7009   21.3871 C   0  0  0  0  0  0
  -26.0845  -29.3085   20.7273 C   0  0  0  0  0  0
  -27.2471  -28.4434   20.7248 C   0  0  0  0  0  0
  -26.0182  -26.7644   19.5152 C   0  0  0  0  0  0
  -24.8880  -27.6127   19.4872 C   0  0  0  0  0  0
  -23.6800  -29.7730   20.1552 C   0  0  0  0  0  0
  -25.4140  -36.3000   24.0310 C   0  0  1  0  0  0
  -20.5912  -28.3725   23.1218 C   0  0  2  0  0  0
  -20.6800  -26.9433   22.5399 C   0  0  0  0  0  0
  -19.5784  -26.6380   21.5202 C   0  0  0  0  0  0
  -18.1961  -26.7912   22.1607 C   0  0  0  0  0  0
  -19.1563  -28.8871   23.2821 C   0  0  0  0  0  0
  -18.9479  -30.1472   23.8850 C   0  0  0  0  0  0
  -17.6481  -30.6577   24.0559 C   0  0  0  0  0  0
  -25.9105  -34.9380   23.5056 C   0  0  0  0  0  0
  -16.5368  -29.9073   23.6342 C   0  0  0  0  0  0
  -16.7289  -28.6479   23.0369 C   0  0  0  0  0  0
  -26.4569  -31.6484   25.0670 C   0  0  0  0  0  0
  -25.3761  -31.3664   26.1371 C   0  0  0  0  0  0
  -27.0454  -30.2865   24.6286 C   0  0  0  0  0  0
  -27.6086  -32.4256   25.7458 C   0  0  0  0  0  0
  -27.5585  -37.1770   24.8466 C   0  0  0  0  0  0
  -21.4269  -29.3032   22.3581 N   0  0  0  0  0  0
  -26.4297  -37.3723   23.9408 N   0  0  0  0  0  0
  -24.7230  -31.0218   22.0869 N   0  0  0  0  0  0
  -23.4198  -28.8139   23.3076 O   0  0  0  0  0  0
  -28.2887  -26.1083   20.1719 O   0  0  0  0  0  0
  -26.5700  -34.8883   22.4646 O   0  0  0  0  0  0
  -23.5596  -32.1290   23.7021 O   0  0  0  0  0  0
  -28.8376  -20.4090   19.8346 C   0  0  0  0  0  0
  -29.6497  -19.3343   20.3457 C   0  0  0  0  0  0
  -30.2761  -21.4496   21.1144 C   0  0  0  0  0  0
  -30.8743  -22.2398   24.8562 C   0  0  0  0  0  0
  -29.4433  -24.3039   24.6311 C   0  0  0  0  0  0
  -28.2443  -23.0963   18.3351 C   0  0  0  0  0  0
  -30.0352  -17.7479   19.9181 C   0  0  0  0  0  0
  -31.2931  -22.4112   21.6946 C   0  0  0  0  0  0
  -30.8233  -23.5266   22.6532 C   0  0  0  0  0  0
  -28.0879  -24.5661   20.4602 C   0  0  0  0  0  0
  -30.0217  -23.0806   23.8940 C   0  0  0  0  0  0
  -28.8862  -23.2431   19.7239 C   0  0  1  0  0  0
  -29.2364  -21.7298   20.2824 N   0  0  0  0  0  0
  -30.4686  -20.0942   21.1675 N   0  3  0  0  0  0
  -29.7739  -16.2846   20.5234 N   0  0  0  0  0  0
  -31.4671  -12.8060   19.2167 H   0  0  0  0  0  0
  -30.4392  -11.7154   20.0903 H   0  0  0  0  0  0
  -29.8602  -11.7234   17.6356 H   0  0  0  0  0  0
  -29.6057  -13.4475   17.6834 H   0  0  0  0  0  0
  -27.9692  -11.2746   19.0085 H   0  0  0  0  0  0
  -27.3994  -12.4282   17.8276 H   0  0  0  0  0  0
  -27.5666  -14.2518   19.3856 H   0  0  0  0  0  0
  -28.7713  -12.3701   21.4764 H   0  0  0  0  0  0
  -28.3373  -14.0464   21.7434 H   0  0  0  0  0  0
  -25.2763   -9.5719   22.4753 H   0  0  0  0  0  0
  -24.0033   -7.4639   22.7458 H   0  0  0  0  0  0
  -21.0863   -8.8720   19.8929 H   0  0  0  0  0  0
  -22.3660  -10.9659   19.6155 H   0  0  0  0  0  0
  -21.1998   -7.6141   23.9718 H   0  0  0  0  0  0
  -21.1504   -6.0521   25.9086 H   0  0  0  0  0  0
  -22.0594   -2.7605   23.2822 H   0  0  0  0  0  0
  -22.4053  -11.9837   22.4833 H   0  0  0  0  0  0
  -21.1051  -13.1192   22.2628 H   0  0  0  0  0  0
  -24.6270  -15.8393   20.5202 H   0  0  0  0  0  0
  -26.2335  -15.6397   20.0459 H   0  0  0  0  0  0
  -26.7305  -32.5250   23.0940 H   0  0  0  0  0  0
  -25.0084  -33.9528   25.0277 H   0  0  0  0  0  0
  -22.7542  -31.2805   21.3685 H   0  0  0  0  0  0
  -23.3771  -35.9551   23.3260 H   0  0  0  0  0  0
  -24.3604  -36.8925   22.2071 H   0  0  0  0  0  0
  -23.7238  -37.6407   23.6709 H   0  0  0  0  0  0
  -26.1746  -31.4551   20.6164 H   0  0  0  0  0  0
  -26.8756  -30.7461   22.0373 H   0  0  0  0  0  0
  -28.1478  -28.7921   21.2110 H   0  0  0  0  0  0
  -25.9282  -25.8026   19.0339 H   0  0  0  0  0  0
  -23.9935  -27.2642   18.9912 H   0  0  0  0  0  0
  -23.8064  -30.5398   19.3907 H   0  0  0  0  0  0
  -22.7953  -29.2082   19.8573 H   0  0  0  0  0  0
  -25.1312  -36.1832   25.0797 H   0  0  0  0  0  0
  -20.9968  -28.3325   24.1349 H   0  0  0  0  0  0
  -20.5708  -26.2346   23.3625 H   0  0  0  0  0  0
  -21.6674  -26.7470   22.1192 H   0  0  0  0  0  0
  -19.6976  -25.6290   21.1248 H   0  0  0  0  0  0
  -19.6716  -27.3182   20.6726 H   0  0  0  0  0  0
  -17.4243  -26.6654   21.3999 H   0  0  0  0  0  0
  -18.0367  -26.0043   22.8990 H   0  0  0  0  0  0
  -19.7971  -30.7303   24.2173 H   0  0  0  0  0  0
  -17.5045  -31.6258   24.5181 H   0  0  0  0  0  0
  -15.5372  -30.2976   23.7686 H   0  0  0  0  0  0
  -15.8677  -28.0793   22.7111 H   0  0  0  0  0  0
  -24.5949  -30.6995   25.7700 H   0  0  0  0  0  0
  -24.8951  -32.2842   26.4758 H   0  0  0  0  0  0
  -25.8074  -30.8870   27.0170 H   0  0  0  0  0  0
  -26.3091  -29.6528   24.1335 H   0  0  0  0  0  0
  -27.4091  -29.7202   25.4871 H   0  0  0  0  0  0
  -27.8975  -30.4048   23.9589 H   0  0  0  0  0  0
  -27.2664  -33.3579   26.1945 H   0  0  0  0  0  0
  -28.3944  -32.6778   25.0323 H   0  0  0  0  0  0
  -28.0688  -31.8444   26.5456 H   0  0  0  0  0  0
  -28.2577  -38.0091   24.7552 H   0  0  0  0  0  0
  -28.1113  -36.2634   24.6247 H   0  0  0  0  0  0
  -27.2314  -37.1353   25.8869 H   0  0  0  0  0  0
  -20.9512  -29.8654   21.6664 H   0  0  0  0  0  0
  -26.0160  -38.2791   24.1403 H   0  0  0  0  0  0
  -28.0818  -20.3358   19.0650 H   0  0  0  0  0  0
  -30.2954  -21.9282   25.7275 H   0  0  0  0  0  0
  -31.7397  -22.7995   25.2149 H   0  0  0  0  0  0
  -31.2393  -21.3320   24.3755 H   0  0  0  0  0  0
  -28.9013  -24.0111   25.5330 H   0  0  0  0  0  0
  -28.7476  -24.8546   23.9976 H   0  0  0  0  0  0
  -30.2266  -25.0008   24.9326 H   0  0  0  0  0  0
  -28.1679  -24.0703   17.8523 H   0  0  0  0  0  0
  -27.2394  -22.6761   18.4064 H   0  0  0  0  0  0
  -28.8286  -22.4577   17.6713 H   0  0  0  0  0  0
  -31.1173  -17.7655   19.7827 H   0  0  0  0  0  0
  -29.6619  -17.6453   18.8981 H   0  0  0  0  0  0
  -31.7991  -22.8637   20.8412 H   0  0  0  0  0  0
  -32.0497  -21.8043   22.1922 H   0  0  0  0  0  0
  -30.2648  -24.2671   22.0905 H   0  0  0  0  0  0
  -31.7130  -24.0598   22.9911 H   0  0  0  0  0  0
  -28.2303  -24.4733   21.5334 H   0  0  0  0  0  0
  -27.0235  -24.3624   20.3513 H   0  0  0  0  0  0
  -29.1807  -22.4654   23.5711 H   0  0  0  0  0  0
  -29.8771  -23.6551   19.5334 H   0  0  0  0  0  0
  -31.2509  -19.6849   21.6676 H   0  0  0  0  0  0
  -28.8201  -16.1521   20.8246 H   0  0  0  0  0  0
  1 25  1  0  0  0
  1 30  2  0  0  0
  1 85  1  0  0  0
  2  3  1  0  0  0
  2 25  1  0  0  0
  2 86  1  0  0  0
  2 87  1  0  0  0
  3  4  1  0  0  0
  3 88  1  0  0  0
  3 89  1  0  0  0
  4  5  1  0  0  0
  4 90  1  0  0  0
  4 91  1  0  0  0
  5  6  1  0  0  0
  5 26  1  0  0  0
  5 92  1  0  0  0
  6 25  1  0  0  0
  6 93  1  0  0  0
  6 94  1  0  0  0
  7  8  2  0  0  0
  7 26  1  0  0  0
  7 29  1  0  0  0
  8  9  1  0  0  0
  8 22  1  0  0  0
  9 10  1  0  0  0
  9 27  2  0  0  0
 10 11  2  0  0  0
 10 15  1  0  0  0
 11 12  1  0  0  0
 11 95  1  0  0  0
 12 13  2  0  0  0
 12 96  1  0  0  0
 13 14  1  0  0  0
 13 31  1  0  0  0
 14 15  2  0  0  0
 14 97  1  0  0  0
 15 98  1  0  0  0
 16 17  2  0  0  0
 16 21  1  0  0  0
 16 31  1  0  0  0
 17 18  1  0  0  0
 17 99  1  0  0  0
 18 19  2  0  0  0
 18100  1  0  0  0
 19 20  1  0  0  0
 19 24  1  0  0  0
 20 21  2  0  0  0
 20101  1  0  0  0
 21 23  1  0  0  0
 22 28  1  0  0  0
 22 32  2  0  0  0
 26 27  1  0  0  0
 28102  1  0  0  0
 28103  1  0  0  0
 29104  1  0  0  0
 29105  1  0  0  0
 33 34  1  0  0  0
 33 66  1  0  0  0
 33 70  2  0  0  0
 34 36  1  0  0  0
 34 59  1  0  0  0
 34106  1  0  0  0
 35 44  2  0  0  0
 35 45  1  0  0  0
 35 68  1  0  0  0
 36 56  1  0  0  0
 36107  1  0  0  0
 37 39  1  0  0  0
 37 47  1  0  0  0
 37 66  1  0  0  0
 37108  1  0  0  0
 38 43  2  0  0  0
 38 46  1  0  0  0
 38 47  1  0  0  0
 39 64  1  0  0  0
 39 67  2  0  0  0
 40 52  1  0  0  0
 40 53  2  0  0  0
 40 58  1  0  0  0
 41109  1  0  0  0
 41110  1  0  0  0
 41111  1  0  0  0
 41 48  1  0  0  0
 42 43  1  0  0  0
 42 66  1  0  0  0
 42112  1  0  0  0
 42113  1  0  0  0
 43 44  1  0  0  0
 44114  1  0  0  0
 45 46  2  0  0  0
 45115  1  0  0  0
 46116  1  0  0  0
 47117  1  0  0  0
 47118  1  0  0  0
 48 56  1  0  0  0
 48 65  1  0  0  0
 48119  1  0  0  0
 49 50  1  0  0  0
 49 53  1  0  0  0
 49 64  1  0  0  0
 49120  1  0  0  0
 50 51  1  0  0  0
 50121  1  0  0  0
 50122  1  0  0  0
 51 52  1  0  0  0
 51123  1  0  0  0
 51124  1  0  0  0
 52125  1  0  0  0
 52126  1  0  0  0
 53 54  1  0  0  0
 54 55  2  0  0  0
 54127  1  0  0  0
 55 57  1  0  0  0
 55128  1  0  0  0
 56 69  2  0  0  0
 57 58  2  0  0  0
 57129  1  0  0  0
 58130  1  0  0  0
 59 60  1  0  0  0
 59 61  1  0  0  0
 59 62  1  0  0  0
 60131  1  0  0  0
 60132  1  0  0  0
 60133  1  0  0  0
 61134  1  0  0  0
 61135  1  0  0  0
 61136  1  0  0  0
 62137  1  0  0  0
 62138  1  0  0  0
 62139  1  0  0  0
 63 65  1  0  0  0
 63140  1  0  0  0
 63141  1  0  0  0
 63142  1  0  0  0
 64143  1  0  0  0
 65144  1  0  0  0
 68 80  1  0  0  0
 71 72  2  0  0  0
 71 83  1  0  0  0
 71145  1  0  0  0
 72 77  1  0  0  0
 72 84  1  0  0  0
 73 78  1  0  0  0
 73 83  1  0  0  0
 73 84  2  0  0  0
 74146  1  0  0  0
 74147  1  0  0  0
 74148  1  0  0  0
 74 81  1  0  0  0
 75 81  1  0  0  0
 75149  1  0  0  0
 75150  1  0  0  0
 75151  1  0  0  0
 76152  1  0  0  0
 76153  1  0  0  0
 76154  1  0  0  0
 76 82  1  0  0  0
 77 85  1  0  0  0
 77155  1  0  0  0
 77156  1  0  0  0
 78 79  1  0  0  0
 78157  1  0  0  0
 78158  1  0  0  0
 79 81  1  0  0  0
 79159  1  0  0  0
 79160  1  0  0  0
 80 82  1  0  0  0
 80161  1  0  0  0
 80162  1  0  0  0
 81163  1  0  0  0
 82 83  1  0  0  0
 82164  1  0  0  0
 84165  1  0  0  0
 85166  1  0  0  0
M  CHG  1  84   1
M  ISO  4   1 100  68 101  80 101  85 100
M  END
> <chiral flag>
0

> <version>
0

> <s_m_source_file>
/data/baiqing/PycharmProjects/Reinvent-master-3.2/result/LINK_invent/BTK/process_docking_weight1_custom_sum_contain_oxygen_bond_distance_aromatic_linkinvent_7_9_3/rearranged_h_0096.sdf

> <i_m_source_file_index>
67

> <r_mmod_Potential_Energy-OPLS-2005>
608.988342285156

> <r_mmod_Stretch_Energy-OPLS-2005>
332.606475830078

> <r_mmod_Bend_Energy-OPLS-2005>
336.018615722656

> <r_mmod_Torsional_Energy-OPLS-2005>
283.406982421875

> <r_mmod_Improper_Torsional_Energy-OPLS-2005>
12.8218860626221

> <r_mmod_Van_der_Waal_Energy-OPLS-2005>
102.773239135742

> <r_mmod_Electrostatic_Energy-OPLS-2005>
-282.818328857422

> <r_mmod_Solvation_Energy-OPLS-2005>
-421.995422363281

> <b_mmod_Minimization_Converged-OPLS-2005>
0

> <r_mmod_RMS_Derivative-OPLS-2005>
3.39917492866516

$$$$
67
                    3D
 Structure written by MMmdl.
162169  0  0  1  0            999 V2000
  -30.6948  -14.4252   20.5484 C   0  0  0  0  0  0
  -30.4222  -12.2754   19.3939 C   0  0  0  0  0  0
  -29.4865  -12.4983   18.1848 C   0  0  0  0  0  0
  -28.0052  -12.3765   18.6016 C   0  0  0  0  0  0
  -27.6620  -13.1984   19.8736 C   0  0  2  0  0  0
  -28.7078  -12.9415   20.9824 C   0  0  0  0  0  0
  -25.2592  -13.8143   20.5666 C   0  0  0  0  0  0
  -24.1790  -13.0442   20.9116 C   0  0  0  0  0  0
  -24.6320  -11.6913   20.8687 C   0  0  0  0  0  0
  -23.8978  -10.4296   21.0358 C   0  0  0  0  0  0
  -24.3562   -9.4224   21.9123 C   0  0  0  0  0  0
  -23.6257   -8.2253   22.0725 C   0  0  0  0  0  0
  -22.4234   -8.0273   21.3524 C   0  0  0  0  0  0
  -21.9839   -9.0223   20.4611 C   0  0  0  0  0  0
  -22.7158  -10.2111   20.3004 C   0  0  0  0  0  0
  -21.6864   -6.0685   22.5254 C   0  0  0  0  0  0
  -21.4028   -6.5599   23.8179 C   0  0  0  0  0  0
  -21.3668   -5.6767   24.9148 C   0  0  0  0  0  0
  -21.6050   -4.3027   24.7216 C   0  0  0  0  0  0
  -21.8829   -3.8105   23.4343 C   0  0  0  0  0  0
  -21.9193   -4.6909   22.3394 C   0  0  0  0  0  0
  -22.7819  -13.5276   21.1812 C   0  0  0  0  0  0
  -22.1667   -4.2094   21.0972 F   0  0  0  0  0  0
  -21.5641   -3.4521   25.7737 F   0  0  0  0  0  0
  -30.0384  -13.2434   20.4287 N   0  0  0  0  0  0
  -26.3014  -12.9290   20.3368 N   0  0  0  0  0  0
  -25.9259  -11.6456   20.5751 N   0  0  0  0  0  0
  -22.0451  -12.8250   22.0377 N   0  0  0  0  0  0
  -25.4325  -15.1860   20.4168 N   0  0  0  0  0  0
  -31.8308  -14.6299   20.1147 O   0  0  0  0  0  0
  -21.6649   -6.8839   21.4215 O   0  0  0  0  0  0
  -22.3503  -14.5570   20.6666 O   0  0  0  0  0  0
  -24.6131  -31.8680   23.2105 C   0  0  0  0  0  0
  -25.9009  -32.4830   23.8401 C   0  0  1  0  0  0
  -27.2339  -27.4322   20.0864 C   0  0  0  0  0  0
  -25.5875  -33.8642   24.2344 N   0  0  0  0  0  0
  -23.4007  -30.4937   21.5514 C   0  0  2  0  0  0
  -24.8423  -28.9546   20.1182 C   0  0  0  0  0  0
  -22.7420  -29.4638   22.4983 C   0  0  0  0  0  0
  -18.0305  -28.1339   22.8480 C   0  0  0  0  0  0
  -24.1478  -36.7321   23.2638 C   0  0  0  0  0  0
  -25.9282  -30.8322   21.3615 C   0  0  0  0  0  0
  -26.0018  -29.4654   20.7105 C   0  0  0  0  0  0
  -27.1964  -28.7118   20.6876 C   0  0  0  0  0  0
  -26.0472  -26.9234   19.5100 C   0  0  0  0  0  0
  -24.8600  -27.6833   19.5173 C   0  0  0  0  0  0
  -23.6080  -29.8259   20.1654 C   0  0  0  0  0  0
  -25.4102  -36.3135   24.0342 C   0  0  1  0  0  0
  -20.5881  -28.3641   23.1341 C   0  0  2  0  0  0
  -20.6801  -26.9373   22.5447 C   0  0  0  0  0  0
  -19.5807  -26.6314   21.5244 C   0  0  0  0  0  0
  -18.1973  -26.7882   22.1608 C   0  0  0  0  0  0
  -19.1541  -28.8802   23.2913 C   0  0  0  0  0  0
  -18.9464  -30.1427   23.8897 C   0  0  0  0  0  0
  -17.6459  -30.6555   24.0531 C   0  0  0  0  0  0
  -25.9028  -34.9492   23.5136 C   0  0  0  0  0  0
  -16.5364  -29.9052   23.6284 C   0  0  0  0  0  0
  -16.7294  -28.6457   23.0336 C   0  0  0  0  0  0
  -26.4460  -31.6612   25.0727 C   0  0  0  0  0  0
  -25.3731  -31.3694   26.1476 C   0  0  0  0  0  0
  -27.0276  -30.3061   24.6071 C   0  0  0  0  0  0
  -27.6070  -32.4303   25.7476 C   0  0  0  0  0  0
  -27.5583  -37.1818   24.8468 C   0  0  0  0  0  0
  -21.4146  -29.3020   22.3744 N   0  0  0  0  0  0
  -26.4301  -37.3802   23.9413 N   0  0  0  0  0  0
  -24.6654  -31.0792   22.0986 N   0  0  0  0  0  0
  -23.4219  -28.8152   23.2970 O   0  0  0  0  0  0
  -28.4403  -26.7599   20.0812 O   0  0  0  0  0  0
  -26.5600  -34.8935   22.4711 O   0  0  0  0  0  0
  -23.5324  -32.1430   23.7522 O   0  0  0  0  0  0
  -27.5919  -20.3301   22.5358 C   0  0  0  0  0  0
  -29.0206  -23.0597   20.6891 C   0  0  0  0  0  0
  -28.5745  -21.9990   19.6601 C   0  0  0  0  0  0
  -28.2055  -24.3793   20.7313 C   0  0  0  0  0  0
  -30.2731  -16.8563   20.9076 C   0  0  0  0  0  0
  -27.4974  -20.9727   20.1157 C   0  0  0  0  0  0
  -29.1902  -19.2289   20.9609 C   0  0  0  0  0  0
  -28.5558  -25.4034   19.6237 C   0  0  0  0  0  0
  -28.9788  -17.7005   20.8229 C   0  0  1  0  0  0
  -29.9351  -15.4316   20.9890 N   0  0  0  0  0  0
  -27.8902  -19.9432   21.1329 N   0  3  1  0  0  0
  -28.0917  -17.2258   21.8257 O   0  0  0  0  0  0
  -31.4676  -12.3765   19.0920 H   0  0  0  0  0  0
  -30.3201  -11.2596   19.7785 H   0  0  0  0  0  0
  -29.7138  -11.7812   17.3932 H   0  0  0  0  0  0
  -29.6611  -13.4876   17.7565 H   0  0  0  0  0  0
  -27.7953  -11.3212   18.7767 H   0  0  0  0  0  0
  -27.3573  -12.6785   17.7781 H   0  0  0  0  0  0
  -27.7107  -14.2514   19.5962 H   0  0  0  0  0  0
  -28.6754  -11.8934   21.2827 H   0  0  0  0  0  0
  -28.4862  -13.5164   21.8841 H   0  0  0  0  0  0
  -25.2695   -9.5735   22.4690 H   0  0  0  0  0  0
  -23.9969   -7.4659   22.7461 H   0  0  0  0  0  0
  -21.0750   -8.8716   19.8937 H   0  0  0  0  0  0
  -22.3569  -10.9628   19.6126 H   0  0  0  0  0  0
  -21.2047   -7.6112   23.9676 H   0  0  0  0  0  0
  -21.1474   -6.0488   25.9046 H   0  0  0  0  0  0
  -22.0604   -2.7563   23.2853 H   0  0  0  0  0  0
  -22.4086  -11.9969   22.4851 H   0  0  0  0  0  0
  -21.1095  -13.1316   22.2650 H   0  0  0  0  0  0
  -24.6718  -15.8447   20.5335 H   0  0  0  0  0  0
  -26.3258  -15.6357   20.2600 H   0  0  0  0  0  0
  -26.7082  -32.5562   23.1177 H   0  0  0  0  0  0
  -25.0027  -33.9790   25.0491 H   0  0  0  0  0  0
  -22.6852  -31.3074   21.4139 H   0  0  0  0  0  0
  -23.3741  -35.9645   23.3321 H   0  0  0  0  0  0
  -24.3572  -36.8923   22.2046 H   0  0  0  0  0  0
  -23.7219  -37.6534   23.6630 H   0  0  0  0  0  0
  -26.0353  -31.5934   20.5892 H   0  0  0  0  0  0
  -26.8217  -30.8913   21.9711 H   0  0  0  0  0  0
  -28.0983  -29.1107   21.1306 H   0  0  0  0  0  0
  -26.0175  -25.9485   19.0483 H   0  0  0  0  0  0
  -23.9632  -27.2824   19.0651 H   0  0  0  0  0  0
  -23.7201  -30.6010   19.4071 H   0  0  0  0  0  0
  -22.7317  -29.2470   19.8671 H   0  0  0  0  0  0
  -25.1272  -36.2017   25.0831 H   0  0  0  0  0  0
  -20.9996  -28.3204   24.1455 H   0  0  0  0  0  0
  -21.6677  -26.7429   22.1247 H   0  0  0  0  0  0
  -20.5719  -26.2246   23.3645 H   0  0  0  0  0  0
  -19.6991  -25.6186   21.1382 H   0  0  0  0  0  0
  -19.6781  -27.3043   20.6717 H   0  0  0  0  0  0
  -17.4265  -26.6651   21.3976 H   0  0  0  0  0  0
  -18.0366  -26.0009   22.8993 H   0  0  0  0  0  0
  -19.7950  -30.7234   24.2260 H   0  0  0  0  0  0
  -17.5015  -31.6250   24.5119 H   0  0  0  0  0  0
  -15.5354  -30.2962   23.7586 H   0  0  0  0  0  0
  -15.8698  -28.0770   22.7046 H   0  0  0  0  0  0
  -24.5917  -30.7030   25.7798 H   0  0  0  0  0  0
  -24.8896  -32.2832   26.4939 H   0  0  0  0  0  0
  -25.8090  -30.8850   27.0225 H   0  0  0  0  0  0
  -26.2798  -29.6849   24.1128 H   0  0  0  0  0  0
  -27.4069  -29.7269   25.4507 H   0  0  0  0  0  0
  -27.8626  -30.4406   23.9190 H   0  0  0  0  0  0
  -27.2738  -33.3599   26.2100 H   0  0  0  0  0  0
  -28.3854  -32.6875   25.0276 H   0  0  0  0  0  0
  -28.0764  -31.8392   26.5352 H   0  0  0  0  0  0
  -28.2620  -38.0100   24.7511 H   0  0  0  0  0  0
  -28.1064  -36.2638   24.6302 H   0  0  0  0  0  0
  -27.2299  -37.1475   25.8870 H   0  0  0  0  0  0
  -20.9284  -29.8828   21.7059 H   0  0  0  0  0  0
  -26.0205  -38.2885   24.1420 H   0  0  0  0  0  0
  -26.6076  -20.7903   22.6278 H   0  0  0  0  0  0
  -28.3263  -21.0178   22.9508 H   0  0  0  0  0  0
  -27.5865  -19.4480   23.1744 H   0  0  0  0  0  0
  -30.0656  -23.3084   20.4961 H   0  0  0  0  0  0
  -29.0320  -22.6170   21.6814 H   0  0  0  0  0  0
  -29.4529  -21.4793   19.2851 H   0  0  0  0  0  0
  -28.1942  -22.5142   18.7766 H   0  0  0  0  0  0
  -27.1335  -24.1839   20.7466 H   0  0  0  0  0  0
  -28.4288  -24.8460   21.6908 H   0  0  0  0  0  0
  -30.8984  -17.0557   20.0319 H   0  0  0  0  0  0
  -30.8682  -17.1270   21.7823 H   0  0  0  0  0  0
  -27.1713  -20.4190   19.2343 H   0  0  0  0  0  0
  -26.6108  -21.5120   20.4550 H   0  0  0  0  0  0
  -29.7209  -19.5606   20.0719 H   0  0  0  0  0  0
  -29.8504  -19.4516   21.8002 H   0  0  0  0  0  0
  -28.0127  -25.2067   18.6997 H   0  0  0  0  0  0
  -29.6073  -25.2889   19.3580 H   0  0  0  0  0  0
  -28.5068  -17.5145   19.8558 H   0  0  0  0  0  0
  -28.9799  -15.2066   21.2354 H   0  0  0  0  0  0
  -27.2392  -19.1840   20.9824 H   0  0  0  0  0  0
  -28.6046  -17.0418   22.6084 H   0  0  0  0  0  0
  1 25  1  0  0  0
  1 30  2  0  0  0
  1 80  1  0  0  0
  2  3  1  0  0  0
  2 25  1  0  0  0
  2 83  1  0  0  0
  2 84  1  0  0  0
  3  4  1  0  0  0
  3 85  1  0  0  0
  3 86  1  0  0  0
  4  5  1  0  0  0
  4 87  1  0  0  0
  4 88  1  0  0  0
  5  6  1  0  0  0
  5 26  1  0  0  0
  5 89  1  0  0  0
  6 25  1  0  0  0
  6 90  1  0  0  0
  6 91  1  0  0  0
  7  8  2  0  0  0
  7 26  1  0  0  0
  7 29  1  0  0  0
  8  9  1  0  0  0
  8 22  1  0  0  0
  9 10  1  0  0  0
  9 27  2  0  0  0
 10 11  2  0  0  0
 10 15  1  0  0  0
 11 12  1  0  0  0
 11 92  1  0  0  0
 12 13  2  0  0  0
 12 93  1  0  0  0
 13 14  1  0  0  0
 13 31  1  0  0  0
 14 15  2  0  0  0
 14 94  1  0  0  0
 15 95  1  0  0  0
 16 17  2  0  0  0
 16 21  1  0  0  0
 16 31  1  0  0  0
 17 18  1  0  0  0
 17 96  1  0  0  0
 18 19  2  0  0  0
 18 97  1  0  0  0
 19 20  1  0  0  0
 19 24  1  0  0  0
 20 21  2  0  0  0
 20 98  1  0  0  0
 21 23  1  0  0  0
 22 28  1  0  0  0
 22 32  2  0  0  0
 26 27  1  0  0  0
 28 99  1  0  0  0
 28100  1  0  0  0
 29101  1  0  0  0
 29102  1  0  0  0
 33 34  1  0  0  0
 33 66  1  0  0  0
 33 70  2  0  0  0
 34 36  1  0  0  0
 34 59  1  0  0  0
 34103  1  0  0  0
 35 44  2  0  0  0
 35 45  1  0  0  0
 35 68  1  0  0  0
 36 56  1  0  0  0
 36104  1  0  0  0
 37 39  1  0  0  0
 37 47  1  0  0  0
 37 66  1  0  0  0
 37105  1  0  0  0
 38 43  2  0  0  0
 38 46  1  0  0  0
 38 47  1  0  0  0
 39 64  1  0  0  0
 39 67  2  0  0  0
 40 52  1  0  0  0
 40 53  2  0  0  0
 40 58  1  0  0  0
 41106  1  0  0  0
 41107  1  0  0  0
 41108  1  0  0  0
 41 48  1  0  0  0
 42 43  1  0  0  0
 42 66  1  0  0  0
 42109  1  0  0  0
 42110  1  0  0  0
 43 44  1  0  0  0
 44111  1  0  0  0
 45 46  2  0  0  0
 45112  1  0  0  0
 46113  1  0  0  0
 47114  1  0  0  0
 47115  1  0  0  0
 48 56  1  0  0  0
 48 65  1  0  0  0
 48116  1  0  0  0
 49 50  1  0  0  0
 49 53  1  0  0  0
 49 64  1  0  0  0
 49117  1  0  0  0
 50 51  1  0  0  0
 50118  1  0  0  0
 50119  1  0  0  0
 51 52  1  0  0  0
 51120  1  0  0  0
 51121  1  0  0  0
 52122  1  0  0  0
 52123  1  0  0  0
 53 54  1  0  0  0
 54 55  2  0  0  0
 54124  1  0  0  0
 55 57  1  0  0  0
 55125  1  0  0  0
 56 69  2  0  0  0
 57 58  2  0  0  0
 57126  1  0  0  0
 58127  1  0  0  0
 59 60  1  0  0  0
 59 61  1  0  0  0
 59 62  1  0  0  0
 60128  1  0  0  0
 60129  1  0  0  0
 60130  1  0  0  0
 61131  1  0  0  0
 61132  1  0  0  0
 61133  1  0  0  0
 62134  1  0  0  0
 62135  1  0  0  0
 62136  1  0  0  0
 63 65  1  0  0  0
 63137  1  0  0  0
 63138  1  0  0  0
 63139  1  0  0  0
 64140  1  0  0  0
 65141  1  0  0  0
 68 78  1  0  0  0
 71142  1  0  0  0
 71143  1  0  0  0
 71144  1  0  0  0
 71 81  1  0  0  0
 72 73  1  0  0  0
 72 74  1  0  0  0
 72145  1  0  0  0
 72146  1  0  0  0
 73 76  1  0  0  0
 73147  1  0  0  0
 73148  1  0  0  0
 74 78  1  0  0  0
 74149  1  0  0  0
 74150  1  0  0  0
 75 79  1  0  0  0
 75 80  1  0  0  0
 75151  1  0  0  0
 75152  1  0  0  0
 76 81  1  0  0  0
 76153  1  0  0  0
 76154  1  0  0  0
 77 79  1  0  0  0
 77 81  1  0  0  0
 77155  1  0  0  0
 77156  1  0  0  0
 78157  1  0  0  0
 78158  1  0  0  0
 79 82  1  0  0  0
 79159  1  0  0  0
 80160  1  0  0  0
 81161  1  0  0  0
 82162  1  0  0  0
M  CHG  1  81   1
M  ISO  4   1 100  68 101  78 101  80 100
M  END
> <chiral flag>
0

> <version>
0

> <s_m_source_file>
/data/baiqing/PycharmProjects/Reinvent-master-3.2/result/LINK_invent/BTK/process_docking_weight1_custom_sum_contain_oxygen_bond_distance_aromatic_linkinvent_7_9_3/rearranged_h_0096.sdf

> <i_m_source_file_index>
68

> <r_mmod_Potential_Energy-OPLS-2005>
-235.772277832031

> <r_mmod_Stretch_Energy-OPLS-2005>
36.4485321044922

> <r_mmod_Bend_Energy-OPLS-2005>
122.114082336426

> <r_mmod_Torsional_Energy-OPLS-2005>
258.158203125

> <r_mmod_Improper_Torsional_Energy-OPLS-2005>
4.8757438659668

> <r_mmod_Van_der_Waal_Energy-OPLS-2005>
138.496856689453

> <r_mmod_Electrostatic_Energy-OPLS-2005>
-351.636383056641

> <r_mmod_Solvation_Energy-OPLS-2005>
-456.067413330078

> <b_mmod_Minimization_Converged-OPLS-2005>
0

> <r_mmod_RMS_Derivative-OPLS-2005>
3.97386169433594

$$$$
68
                    3D
 Structure written by MMmdl.
174182  0  0  1  0            999 V2000
  -30.7599  -14.4639   20.6157 C   0  0  0  0  0  0
  -30.4110  -12.3237   19.4240 C   0  0  0  0  0  0
  -29.4849  -12.4851   18.2039 C   0  0  0  0  0  0
  -28.0140  -12.3105   18.6230 C   0  0  0  0  0  0
  -27.6461  -13.1823   19.8471 C   0  0  2  0  0  0
  -28.6900  -13.0377   20.9821 C   0  0  0  0  0  0
  -25.2578  -13.8097   20.5651 C   0  0  0  0  0  0
  -24.1823  -13.0407   20.9196 C   0  0  0  0  0  0
  -24.6348  -11.6867   20.8754 C   0  0  0  0  0  0
  -23.9016  -10.4272   21.0428 C   0  0  0  0  0  0
  -24.3585   -9.4191   21.9197 C   0  0  0  0  0  0
  -23.6271   -8.2223   22.0758 C   0  0  0  0  0  0
  -22.4255   -8.0264   21.3544 C   0  0  0  0  0  0
  -21.9884   -9.0235   20.4647 C   0  0  0  0  0  0
  -22.7201  -10.2118   20.3063 C   0  0  0  0  0  0
  -21.6843   -6.0725   22.5280 C   0  0  0  0  0  0
  -21.4007   -6.5634   23.8212 C   0  0  0  0  0  0
  -21.3657   -5.6789   24.9178 C   0  0  0  0  0  0
  -21.6045   -4.3052   24.7229 C   0  0  0  0  0  0
  -21.8820   -3.8142   23.4351 C   0  0  0  0  0  0
  -21.9190   -4.6955   22.3407 C   0  0  0  0  0  0
  -22.7857  -13.5233   21.1865 C   0  0  0  0  0  0
  -22.1660   -4.2140   21.0982 F   0  0  0  0  0  0
  -21.5631   -3.4538   25.7744 F   0  0  0  0  0  0
  -30.0234  -13.3294   20.4309 N   0  0  0  0  0  0
  -26.2940  -12.9198   20.3236 N   0  0  0  0  0  0
  -25.9250  -11.6396   20.5739 N   0  0  0  0  0  0
  -22.0491  -12.8230   22.0418 N   0  0  0  0  0  0
  -25.4325  -15.1811   20.4049 N   0  0  0  0  0  0
  -31.8813  -14.5956   20.1164 O   0  0  0  0  0  0
  -21.6624   -6.8862   21.4238 O   0  0  0  0  0  0
  -22.3560  -14.5547   20.6716 O   0  0  0  0  0  0
  -24.6135  -31.8693   23.2115 C   0  0  0  0  0  0
  -25.9035  -32.4830   23.8403 C   0  0  1  0  0  0
  -27.2380  -27.4468   20.0876 C   0  0  0  0  0  0
  -25.5889  -33.8630   24.2327 N   0  0  0  0  0  0
  -23.3995  -30.4930   21.5530 C   0  0  2  0  0  0
  -24.8437  -28.9604   20.1177 C   0  0  0  0  0  0
  -22.7397  -29.4663   22.5010 C   0  0  0  0  0  0
  -18.0267  -28.1372   22.8489 C   0  0  0  0  0  0
  -24.1484  -36.7327   23.2634 C   0  0  0  0  0  0
  -25.9271  -30.8386   21.3612 C   0  0  0  0  0  0
  -26.0037  -29.4739   20.7091 C   0  0  0  0  0  0
  -27.2005  -28.7247   20.6898 C   0  0  0  0  0  0
  -26.0506  -26.9407   19.5042 C   0  0  0  0  0  0
  -24.8611  -27.6921   19.5151 C   0  0  0  0  0  0
  -23.6055  -29.8255   20.1673 C   0  0  0  0  0  0
  -25.4104  -36.3120   24.0334 C   0  0  1  0  0  0
  -20.5854  -28.3656   23.1327 C   0  0  2  0  0  0
  -20.6761  -26.9397   22.5420 C   0  0  0  0  0  0
  -19.5738  -26.6383   21.5212 C   0  0  0  0  0  0
  -18.1914  -26.7921   22.1617 C   0  0  0  0  0  0
  -19.1516  -28.8829   23.2905 C   0  0  0  0  0  0
  -18.9448  -30.1440   23.8909 C   0  0  0  0  0  0
  -17.6451  -30.6581   24.0563 C   0  0  0  0  0  0
  -25.9034  -34.9485   23.5131 C   0  0  0  0  0  0
  -16.5341  -29.9086   23.6322 C   0  0  0  0  0  0
  -16.7258  -28.6505   23.0337 C   0  0  0  0  0  0
  -26.4465  -31.6601   25.0727 C   0  0  0  0  0  0
  -25.3731  -31.3707   26.1476 C   0  0  0  0  0  0
  -27.0300  -30.3047   24.6095 C   0  0  0  0  0  0
  -27.6040  -32.4323   25.7484 C   0  0  0  0  0  0
  -27.5589  -37.1810   24.8454 C   0  0  0  0  0  0
  -21.4127  -29.3024   22.3739 N   0  0  0  0  0  0
  -26.4287  -37.3807   23.9417 N   0  0  0  0  0  0
  -24.6653  -31.0805   22.1009 N   0  0  0  0  0  0
  -23.4176  -28.8208   23.3049 O   0  0  0  0  0  0
  -28.4371  -26.7579   20.0962 O   0  0  0  0  0  0
  -26.5605  -34.8933   22.4698 O   0  0  0  0  0  0
  -23.5333  -32.1440   23.7522 O   0  0  0  0  0  0
  -29.8541  -20.2535   19.3630 C   0  0  0  0  0  0
  -29.1497  -18.8251   21.1914 C   0  0  0  0  0  0
  -29.3158  -20.1208   20.6560 C   0  0  0  0  0  0
  -30.1805  -19.1225   18.5907 C   0  0  0  0  0  0
  -29.4505  -17.6668   20.4347 C   0  0  0  0  0  0
  -29.9385  -17.8173   19.1025 C   0  0  0  0  0  0
  -30.1662  -16.6073   18.2008 C   0  0  0  0  0  0
  -32.2941  -19.1685   17.1801 C   0  0  0  0  0  0
  -28.3290  -23.7767   23.2038 C   0  0  0  0  0  0
  -31.1806  -16.0752   22.3811 C   0  0  0  0  0  0
  -28.8085  -21.3402   21.4277 C   0  0  0  0  0  0
  -30.7744  -19.3719   17.2068 C   0  0  0  0  0  0
  -29.1295  -16.2976   21.0637 C   0  0  0  0  0  0
  -29.6630  -22.6341   21.3356 C   0  0  0  0  0  0
  -27.8981  -24.4425   20.7729 C   0  0  0  0  0  0
  -28.4730  -25.3855   19.6900 C   0  0  0  0  0  0
  -28.9409  -23.9281   21.8004 C   0  0  1  0  0  0
  -30.2679  -15.4293   21.4339 N   0  0  0  0  0  0
  -31.4539  -12.4110   19.1141 H   0  0  0  0  0  0
  -30.3154  -11.3220   19.8457 H   0  0  0  0  0  0
  -29.7414  -11.7515   17.4384 H   0  0  0  0  0  0
  -29.6308  -13.4650   17.7485 H   0  0  0  0  0  0
  -27.8566  -11.2568   18.8566 H   0  0  0  0  0  0
  -27.3527  -12.5376   17.7857 H   0  0  0  0  0  0
  -27.6482  -14.1929   19.4566 H   0  0  0  0  0  0
  -28.6780  -12.0224   21.3803 H   0  0  0  0  0  0
  -28.4341  -13.6820   21.8238 H   0  0  0  0  0  0
  -25.2730   -9.5671   22.4770 H   0  0  0  0  0  0
  -23.9984   -7.4612   22.7473 H   0  0  0  0  0  0
  -21.0820   -8.8746   19.8949 H   0  0  0  0  0  0
  -22.3660  -10.9658   19.6174 H   0  0  0  0  0  0
  -21.1996   -7.6142   23.9711 H   0  0  0  0  0  0
  -21.1481   -6.0522   25.9078 H   0  0  0  0  0  0
  -22.0603   -2.7604   23.2853 H   0  0  0  0  0  0
  -22.4089  -11.9874   22.4786 H   0  0  0  0  0  0
  -21.1115  -13.1272   22.2634 H   0  0  0  0  0  0
  -24.6649  -15.8344   20.5173 H   0  0  0  0  0  0
  -26.2751  -15.6199   20.0578 H   0  0  0  0  0  0
  -26.7107  -32.5548   23.1169 H   0  0  0  0  0  0
  -25.0010  -33.9786   25.0453 H   0  0  0  0  0  0
  -22.6876  -31.3097   21.4161 H   0  0  0  0  0  0
  -23.3745  -35.9658   23.3282 H   0  0  0  0  0  0
  -24.3574  -36.8967   22.2051 H   0  0  0  0  0  0
  -23.7228  -37.6523   23.6662 H   0  0  0  0  0  0
  -26.0353  -31.6043   20.5924 H   0  0  0  0  0  0
  -26.8170  -30.8935   21.9768 H   0  0  0  0  0  0
  -28.0987  -29.1224   21.1413 H   0  0  0  0  0  0
  -26.0110  -25.9690   19.0369 H   0  0  0  0  0  0
  -23.9661  -27.2878   19.0618 H   0  0  0  0  0  0
  -23.7133  -30.5994   19.4066 H   0  0  0  0  0  0
  -22.7297  -29.2438   19.8735 H   0  0  0  0  0  0
  -25.1275  -36.1984   25.0824 H   0  0  0  0  0  0
  -20.9940  -28.3222   24.1450 H   0  0  0  0  0  0
  -20.5671  -26.2261   23.3602 H   0  0  0  0  0  0
  -21.6635  -26.7449   22.1213 H   0  0  0  0  0  0
  -19.6899  -25.6299   21.1229 H   0  0  0  0  0  0
  -19.6678  -27.3202   20.6750 H   0  0  0  0  0  0
  -17.4191  -26.6671   21.4014 H   0  0  0  0  0  0
  -18.0310  -26.0057   22.9004 H   0  0  0  0  0  0
  -19.7926  -30.7250   24.2279 H   0  0  0  0  0  0
  -17.5009  -31.6261   24.5169 H   0  0  0  0  0  0
  -15.5341  -30.2992   23.7641 H   0  0  0  0  0  0
  -15.8656  -28.0837   22.7031 H   0  0  0  0  0  0
  -24.5875  -30.7091   25.7799 H   0  0  0  0  0  0
  -24.8955  -32.2873   26.4954 H   0  0  0  0  0  0
  -25.8080  -30.8834   27.0211 H   0  0  0  0  0  0
  -26.2847  -29.6802   24.1152 H   0  0  0  0  0  0
  -27.4079  -29.7285   25.4551 H   0  0  0  0  0  0
  -27.8675  -30.4369   23.9239 H   0  0  0  0  0  0
  -27.2652  -33.3607   26.2092 H   0  0  0  0  0  0
  -28.3828  -32.6910   25.0298 H   0  0  0  0  0  0
  -28.0728  -31.8431   26.5375 H   0  0  0  0  0  0
  -28.2583  -38.0134   24.7556 H   0  0  0  0  0  0
  -28.1113  -36.2671   24.6211 H   0  0  0  0  0  0
  -27.2315  -37.1381   25.8858 H   0  0  0  0  0  0
  -20.9286  -29.8754   21.6968 H   0  0  0  0  0  0
  -26.0179  -38.2880   24.1447 H   0  0  0  0  0  0
  -29.9898  -21.2316   18.9267 H   0  0  0  0  0  0
  -28.7298  -18.7178   22.1822 H   0  0  0  0  0  0
  -29.8966  -16.8060   17.1662 H   0  0  0  0  0  0
  -29.5508  -15.7576   18.4800 H   0  0  0  0  0  0
  -31.2132  -16.3065   18.2210 H   0  0  0  0  0  0
  -32.6940  -19.3712   16.1863 H   0  0  0  0  0  0
  -32.5692  -18.1482   17.4460 H   0  0  0  0  0  0
  -32.7915  -19.8406   17.8803 H   0  0  0  0  0  0
  -29.0648  -23.4035   23.9167 H   0  0  0  0  0  0
  -27.4823  -23.0898   23.2049 H   0  0  0  0  0  0
  -27.9706  -24.7361   23.5791 H   0  0  0  0  0  0
  -30.6328  -16.6295   23.1436 H   0  0  0  0  0  0
  -31.8424  -16.7726   21.8651 H   0  0  0  0  0  0
  -31.7993  -15.3380   22.8955 H   0  0  0  0  0  0
  -28.6953  -21.0671   22.4772 H   0  0  0  0  0  0
  -27.7994  -21.5318   21.0652 H   0  0  0  0  0  0
  -30.5592  -20.3974   16.9028 H   0  0  0  0  0  0
  -30.2881  -18.7607   16.4488 H   0  0  0  0  0  0
  -28.4481  -15.8023   20.3900 H   0  0  0  0  0  0
  -28.5331  -16.4473   21.9649 H   0  0  0  0  0  0
  -30.0006  -22.8133   20.3175 H   0  0  0  0  0  0
  -30.5735  -22.4901   21.9188 H   0  0  0  0  0  0
  -27.4240  -23.5959   20.2774 H   0  0  0  0  0  0
  -27.0833  -24.9508   21.2892 H   0  0  0  0  0  0
  -27.9734  -25.2449   18.7318 H   0  0  0  0  0  0
  -29.5117  -25.1212   19.4906 H   0  0  0  0  0  0
  -29.7051  -24.7021   21.8927 H   0  0  0  0  0  0
  1 25  1  0  0  0
  1 30  2  0  0  0
  1 88  1  0  0  0
  2  3  1  0  0  0
  2 25  1  0  0  0
  2 89  1  0  0  0
  2 90  1  0  0  0
  3  4  1  0  0  0
  3 91  1  0  0  0
  3 92  1  0  0  0
  4  5  1  0  0  0
  4 93  1  0  0  0
  4 94  1  0  0  0
  5  6  1  0  0  0
  5 26  1  0  0  0
  5 95  1  0  0  0
  6 25  1  0  0  0
  6 96  1  0  0  0
  6 97  1  0  0  0
  7  8  2  0  0  0
  7 26  1  0  0  0
  7 29  1  0  0  0
  8  9  1  0  0  0
  8 22  1  0  0  0
  9 10  1  0  0  0
  9 27  2  0  0  0
 10 11  2  0  0  0
 10 15  1  0  0  0
 11 12  1  0  0  0
 11 98  1  0  0  0
 12 13  2  0  0  0
 12 99  1  0  0  0
 13 14  1  0  0  0
 13 31  1  0  0  0
 14 15  2  0  0  0
 14100  1  0  0  0
 15101  1  0  0  0
 16 17  2  0  0  0
 16 21  1  0  0  0
 16 31  1  0  0  0
 17 18  1  0  0  0
 17102  1  0  0  0
 18 19  2  0  0  0
 18103  1  0  0  0
 19 20  1  0  0  0
 19 24  1  0  0  0
 20 21  2  0  0  0
 20104  1  0  0  0
 21 23  1  0  0  0
 22 28  1  0  0  0
 22 32  2  0  0  0
 26 27  1  0  0  0
 28105  1  0  0  0
 28106  1  0  0  0
 29107  1  0  0  0
 29108  1  0  0  0
 33 34  1  0  0  0
 33 66  1  0  0  0
 33 70  2  0  0  0
 34 36  1  0  0  0
 34 59  1  0  0  0
 34109  1  0  0  0
 35 44  2  0  0  0
 35 45  1  0  0  0
 35 68  1  0  0  0
 36 56  1  0  0  0
 36110  1  0  0  0
 37 39  1  0  0  0
 37 47  1  0  0  0
 37 66  1  0  0  0
 37111  1  0  0  0
 38 43  2  0  0  0
 38 46  1  0  0  0
 38 47  1  0  0  0
 39 64  1  0  0  0
 39 67  2  0  0  0
 40 52  1  0  0  0
 40 53  2  0  0  0
 40 58  1  0  0  0
 41112  1  0  0  0
 41113  1  0  0  0
 41114  1  0  0  0
 41 48  1  0  0  0
 42 43  1  0  0  0
 42 66  1  0  0  0
 42115  1  0  0  0
 42116  1  0  0  0
 43 44  1  0  0  0
 44117  1  0  0  0
 45 46  2  0  0  0
 45118  1  0  0  0
 46119  1  0  0  0
 47120  1  0  0  0
 47121  1  0  0  0
 48 56  1  0  0  0
 48 65  1  0  0  0
 48122  1  0  0  0
 49 50  1  0  0  0
 49 53  1  0  0  0
 49 64  1  0  0  0
 49123  1  0  0  0
 50 51  1  0  0  0
 50124  1  0  0  0
 50125  1  0  0  0
 51 52  1  0  0  0
 51126  1  0  0  0
 51127  1  0  0  0
 52128  1  0  0  0
 52129  1  0  0  0
 53 54  1  0  0  0
 54 55  2  0  0  0
 54130  1  0  0  0
 55 57  1  0  0  0
 55131  1  0  0  0
 56 69  2  0  0  0
 57 58  2  0  0  0
 57132  1  0  0  0
 58133  1  0  0  0
 59 60  1  0  0  0
 59 61  1  0  0  0
 59 62  1  0  0  0
 60134  1  0  0  0
 60135  1  0  0  0
 60136  1  0  0  0
 61137  1  0  0  0
 61138  1  0  0  0
 61139  1  0  0  0
 62140  1  0  0  0
 62141  1  0  0  0
 62142  1  0  0  0
 63 65  1  0  0  0
 63143  1  0  0  0
 63144  1  0  0  0
 63145  1  0  0  0
 64146  1  0  0  0
 65147  1  0  0  0
 68 86  1  0  0  0
 71 73  2  0  0  0
 71 74  1  0  0  0
 71148  1  0  0  0
 72 73  1  0  0  0
 72 75  2  0  0  0
 72149  1  0  0  0
 73 81  1  0  0  0
 74 76  2  0  0  0
 74 82  1  0  0  0
 75 76  1  0  0  0
 75 83  1  0  0  0
 76 77  1  0  0  0
 77150  1  0  0  0
 77151  1  0  0  0
 77152  1  0  0  0
 78 82  1  0  0  0
 78153  1  0  0  0
 78154  1  0  0  0
 78155  1  0  0  0
 79156  1  0  0  0
 79157  1  0  0  0
 79158  1  0  0  0
 79 87  1  0  0  0
 80 88  1  0  0  0
 80159  1  0  0  0
 80160  1  0  0  0
 80161  1  0  0  0
 81 84  1  0  0  0
 81162  1  0  0  0
 81163  1  0  0  0
 82164  1  0  0  0
 82165  1  0  0  0
 83 88  1  0  0  0
 83166  1  0  0  0
 83167  1  0  0  0
 84 87  1  0  0  0
 84168  1  0  0  0
 84169  1  0  0  0
 85 86  1  0  0  0
 85 87  1  0  0  0
 85170  1  0  0  0
 85171  1  0  0  0
 86172  1  0  0  0
 86173  1  0  0  0
 87174  1  0  0  0
M  ISO  4   1 100  68 101  86 101  88 100
M  END
> <chiral flag>
0

> <version>
0

> <s_m_source_file>
/data/baiqing/PycharmProjects/Reinvent-master-3.2/result/LINK_invent/BTK/process_docking_weight1_custom_sum_contain_oxygen_bond_distance_aromatic_linkinvent_7_9_3/rearranged_h_0096.sdf

> <i_m_source_file_index>
69

> <r_mmod_Potential_Energy-OPLS-2005>
101.79940032959

> <r_mmod_Stretch_Energy-OPLS-2005>
41.7079582214355

> <r_mmod_Bend_Energy-OPLS-2005>
115.33130645752

> <r_mmod_Torsional_Energy-OPLS-2005>
276.900054931641

> <r_mmod_Improper_Torsional_Energy-OPLS-2005>
4.5612964630127

> <r_mmod_Van_der_Waal_Energy-OPLS-2005>
160.422897338867

> <r_mmod_Electrostatic_Energy-OPLS-2005>
-327.383483886719

> <r_mmod_Solvation_Energy-OPLS-2005>
-185.045043945312

> <b_mmod_Minimization_Converged-OPLS-2005>
0

> <r_mmod_RMS_Derivative-OPLS-2005>
0.67663300037384

$$$$
69
                    3D
 Structure written by MMmdl.
176184  0  0  1  0            999 V2000
  -30.9195  -13.9333   20.4551 C   0  0  0  0  0  0
  -31.1251  -11.8000   18.9586 C   0  0  0  0  0  0
  -29.8086  -12.3646   17.5830 C   0  0  0  0  0  0
  -28.2332  -13.4074   18.1310 C   0  0  0  0  0  0
  -27.8717  -13.8803   20.0128 C   0  0  2  0  0  0
  -29.0001  -13.2713   21.4195 C   0  0  0  0  0  0
  -25.8589  -14.2082   20.9908 C   0  0  0  0  0  0
  -24.1203  -13.4367   20.8124 C   0  0  0  0  0  0
  -24.0192  -12.1510   20.5087 C   0  0  0  0  0  0
  -23.6545  -10.7043   20.9882 C   0  0  0  0  0  0
  -24.1976   -9.7099   21.8952 C   0  0  0  0  0  0
  -23.6032   -8.4216   22.0671 C   0  0  0  0  0  0
  -22.4309   -8.0849   21.3508 C   0  0  0  0  0  0
  -21.9328   -9.0154   20.4334 C   0  0  0  0  0  0
  -22.5385  -10.2666   20.2519 C   0  0  0  0  0  0
  -21.7349   -6.0864   22.5286 C   0  0  0  0  0  0
  -21.4389   -6.5770   23.8184 C   0  0  0  0  0  0
  -21.3735   -5.6882   24.9123 C   0  0  0  0  0  0
  -21.6012   -4.3116   24.7202 C   0  0  0  0  0  0
  -21.8800   -3.8193   23.4326 C   0  0  0  0  0  0
  -21.9365   -4.7030   22.3410 C   0  0  0  0  0  0
  -22.5181  -13.7646   21.0938 C   0  0  0  0  0  0
  -22.1762   -4.2151   21.0990 F   0  0  0  0  0  0
  -21.5482   -3.4599   25.7706 F   0  0  0  0  0  0
  -30.5961  -12.7145   20.5912 N   0  0  0  0  0  0
  -26.6734  -13.8110   20.8466 N   0  0  0  0  0  0
  -24.8606  -13.3673   20.7726 N   0  0  0  0  0  0
  -21.8744  -12.9893   21.9789 N   0  0  0  0  0  0
  -26.6152  -15.4402   21.3918 N   0  0  0  0  0  0
  -31.8715  -14.5850   20.0260 O   0  0  0  0  0  0
  -21.7441   -6.8913   21.4171 O   0  0  0  0  0  0
  -21.9628  -14.7010   20.5406 O   0  0  0  0  0  0
  -24.6946  -31.7927   23.1538 C   0  0  0  0  0  0
  -25.9537  -32.4370   23.8024 C   0  0  1  0  0  0
  -26.7118  -26.4414   20.2308 C   0  0  0  0  0  0
  -25.6119  -33.8233   24.1878 N   0  0  0  0  0  0
  -23.4964  -30.4332   21.5146 C   0  0  2  0  0  0
  -24.8539  -28.7723   20.0752 C   0  0  0  0  0  0
  -22.7686  -29.4366   22.4597 C   0  0  0  0  0  0
  -18.0319  -28.1416   22.8436 C   0  0  0  0  0  0
  -24.1499  -36.7112   23.2644 C   0  0  0  0  0  0
  -26.0805  -30.4186   21.4539 C   0  0  0  0  0  0
  -26.0427  -28.9792   20.7816 C   0  0  0  0  0  0
  -26.9958  -27.8234   20.8343 C   0  0  0  0  0  0
  -25.6237  -26.5368   19.3775 C   0  0  0  0  0  0
  -24.7065  -27.5983   19.3343 C   0  0  0  0  0  0
  -23.7276  -29.7965   20.1212 C   0  0  0  0  0  0
  -25.4159  -36.2840   24.0252 C   0  0  1  0  0  0
  -20.5953  -28.3804   23.1073 C   0  0  2  0  0  0
  -20.6799  -26.9466   22.5352 C   0  0  0  0  0  0
  -19.5780  -26.6370   21.5173 C   0  0  0  0  0  0
  -18.1958  -26.7940   22.1588 C   0  0  0  0  0  0
  -19.1587  -28.8923   23.2751 C   0  0  0  0  0  0
  -18.9509  -30.1493   23.8822 C   0  0  0  0  0  0
  -17.6511  -30.6609   24.0548 C   0  0  0  0  0  0
  -25.9172  -34.9243   23.4885 C   0  0  0  0  0  0
  -16.5392  -29.9103   23.6348 C   0  0  0  0  0  0
  -16.7299  -28.6515   23.0371 C   0  0  0  0  0  0
  -26.4656  -31.6501   25.0734 C   0  0  0  0  0  0
  -25.3681  -31.3954   26.1328 C   0  0  0  0  0  0
  -27.0648  -30.2811   24.6849 C   0  0  0  0  0  0
  -27.6039  -32.4421   25.7580 C   0  0  0  0  0  0
  -27.5555  -37.1717   24.8449 C   0  0  0  0  0  0
  -21.4339  -29.3076   22.3371 N   0  0  0  0  0  0
  -26.4250  -37.3633   23.9404 N   0  0  0  0  0  0
  -24.7881  -30.9219   22.0884 N   0  0  0  0  0  0
  -23.4141  -28.7889   23.2876 O   0  0  0  0  0  0
  -27.2236  -24.9657   20.2782 O   0  0  0  0  0  0
  -26.5788  -34.8851   22.4492 O   0  0  0  0  0  0
  -23.5970  -32.1182   23.6411 O   0  0  0  0  0  0
  -24.3898  -15.2148   22.3015 C   0  0  0  0  0  0
  -25.3850  -14.1275   18.7551 C   0  0  0  0  0  0
  -24.5411  -15.7560   20.1281 C   0  0  0  0  0  0
  -25.2566  -13.3062   22.9919 C   0  0  0  0  0  0
  -26.1738  -12.0886   19.5512 C   0  0  0  0  0  0
  -25.8730   -8.8699   19.2330 C   0  0  0  0  0  0
  -26.9146  -12.9692   24.8255 C   0  0  0  0  0  0
  -24.6131  -11.8648   24.9551 C   0  0  0  0  0  0
  -27.1759  -10.7509   17.5498 C   0  0  0  0  0  0
  -24.8185  -17.6581   19.7539 C   0  0  0  0  0  0
  -27.0720   -9.7144   19.7224 C   0  0  0  0  0  0
  -25.5008  -19.4760   20.4160 C   0  0  0  0  0  0
  -26.0006  -21.3990   19.8879 C   0  0  0  0  0  0
  -28.8366  -11.6360   19.6786 C   0  0  0  0  0  0
  -26.4336  -23.3030   20.5246 C   0  0  0  0  0  0
  -25.4235  -13.0714   24.4744 C   0  0  0  0  0  0
  -27.3169  -11.1407   19.0763 C   0  0  2  0  0  0
  -26.1055  -11.8349   21.7357 N   0  0  0  0  0  0
  -30.0786  -13.5191   19.5834 N   0  0  0  0  0  0
  -32.1150  -12.1481   18.6560 H   0  0  0  0  0  0
  -31.2585  -10.7240   19.0841 H   0  0  0  0  0  0
  -29.5530  -11.4922   16.9822 H   0  0  0  0  0  0
  -30.3466  -12.9842   16.8655 H   0  0  0  0  0  0
  -28.4900  -14.3852   17.7208 H   0  0  0  0  0  0
  -27.3628  -13.2985   17.5063 H   0  0  0  0  0  0
  -28.1601  -14.9288   19.8565 H   0  0  0  0  0  0
  -28.5674  -12.5213   22.0781 H   0  0  0  0  0  0
  -29.1694  -14.0937   22.1219 H   0  0  0  0  0  0
  -25.0742   -9.8945   22.4884 H   0  0  0  0  0  0
  -24.0467   -7.7169   22.7573 H   0  0  0  0  0  0
  -21.0530   -8.7676   19.8519 H   0  0  0  0  0  0
  -22.0870  -10.9376   19.5315 H   0  0  0  0  0  0
  -21.2602   -7.6310   23.9717 H   0  0  0  0  0  0
  -21.1492   -6.0610   25.9006 H   0  0  0  0  0  0
  -22.0460   -2.7626   23.2824 H   0  0  0  0  0  0
  -22.3641  -12.2422   22.4455 H   0  0  0  0  0  0
  -20.9010  -13.1584   22.1883 H   0  0  0  0  0  0
  -25.8076  -15.8395   21.8695 H   0  0  0  0  0  0
  -26.7790  -16.0074   20.5734 H   0  0  0  0  0  0
  -26.7593  -32.4691   23.0680 H   0  0  0  0  0  0
  -25.0231  -33.9266   25.0008 H   0  0  0  0  0  0
  -22.8327  -31.2854   21.3569 H   0  0  0  0  0  0
  -23.3789  -35.9408   23.3209 H   0  0  0  0  0  0
  -24.3567  -36.8887   22.2077 H   0  0  0  0  0  0
  -23.7222  -37.6243   23.6801 H   0  0  0  0  0  0
  -26.3582  -31.1308   20.6749 H   0  0  0  0  0  0
  -26.9162  -30.4227   22.1394 H   0  0  0  0  0  0
  -27.8726  -27.9278   21.4582 H   0  0  0  0  0  0
  -25.3699  -25.6541   18.8077 H   0  0  0  0  0  0
  -23.8181  -27.4638   18.7307 H   0  0  0  0  0  0
  -23.9721  -30.5802   19.4029 H   0  0  0  0  0  0
  -22.8065  -29.3421   19.7533 H   0  0  0  0  0  0
  -25.1370  -36.1572   25.0739 H   0  0  0  0  0  0
  -21.0070  -28.3448   24.1183 H   0  0  0  0  0  0
  -20.5644  -26.2451   23.3623 H   0  0  0  0  0  0
  -21.6663  -26.7397   22.1183 H   0  0  0  0  0  0
  -19.6954  -25.6253   21.1280 H   0  0  0  0  0  0
  -19.6715  -27.3104   20.6642 H   0  0  0  0  0  0
  -17.4215  -26.6630   21.4009 H   0  0  0  0  0  0
  -18.0387  -26.0100   22.9011 H   0  0  0  0  0  0
  -19.7995  -30.7307   24.2162 H   0  0  0  0  0  0
  -17.5080  -31.6286   24.5169 H   0  0  0  0  0  0
  -15.5398  -30.3005   23.7733 H   0  0  0  0  0  0
  -15.8674  -28.0826   22.7156 H   0  0  0  0  0  0
  -24.5817  -30.7346   25.7671 H   0  0  0  0  0  0
  -24.8955  -32.3256   26.4497 H   0  0  0  0  0  0
  -25.7817  -30.9287   27.0272 H   0  0  0  0  0  0
  -26.3411  -29.6266   24.1985 H   0  0  0  0  0  0
  -27.4100  -29.7455   25.5702 H   0  0  0  0  0  0
  -27.9388  -30.3875   24.0414 H   0  0  0  0  0  0
  -27.2513  -33.3787   26.1906 H   0  0  0  0  0  0
  -28.4010  -32.6865   25.0551 H   0  0  0  0  0  0
  -28.0528  -31.8739   26.5733 H   0  0  0  0  0  0
  -28.2482  -38.0097   24.7553 H   0  0  0  0  0  0
  -28.1139  -36.2614   24.6203 H   0  0  0  0  0  0
  -27.2274  -37.1262   25.8849 H   0  0  0  0  0  0
  -20.9579  -29.8843   21.6572 H   0  0  0  0  0  0
  -26.0047  -38.2659   24.1456 H   0  0  0  0  0  0
  -24.0967  -15.9562   23.0344 H   0  0  0  0  0  0
  -25.6107  -14.4184   17.7423 H   0  0  0  0  0  0
  -25.6226   -8.0980   19.9601 H   0  0  0  0  0  0
  -26.1000   -8.3535   18.2987 H   0  0  0  0  0  0
  -24.9810   -9.4716   19.0684 H   0  0  0  0  0  0
  -27.4502  -13.8592   24.4934 H   0  0  0  0  0  0
  -27.3772  -12.1113   24.3353 H   0  0  0  0  0  0
  -27.0669  -12.8711   25.8995 H   0  0  0  0  0  0
  -23.5486  -12.0111   24.7645 H   0  0  0  0  0  0
  -24.7471  -11.7068   26.0254 H   0  0  0  0  0  0
  -24.9228  -10.9543   24.4459 H   0  0  0  0  0  0
  -26.1606  -10.4365   17.3091 H   0  0  0  0  0  0
  -27.8377   -9.9228   17.2963 H   0  0  0  0  0  0
  -27.3640  -11.4878   16.7829 H   0  0  0  0  0  0
  -23.8126  -17.9194   19.4189 H   0  0  0  0  0  0
  -25.3671  -17.5616   18.8173 H   0  0  0  0  0  0
  -27.9409   -9.0746   19.5617 H   0  0  0  0  0  0
  -27.0088   -9.7786   20.8048 H   0  0  0  0  0  0
  -26.4117  -19.1712   20.9312 H   0  0  0  0  0  0
  -24.8075  -19.6586   21.2367 H   0  0  0  0  0  0
  -25.1783  -21.6270   19.2093 H   0  0  0  0  0  0
  -26.8356  -21.2160   19.2105 H   0  0  0  0  0  0
  -29.2452  -10.7289   19.2365 H   0  0  0  0  0  0
  -28.8424  -11.1326   20.6507 H   0  0  0  0  0  0
  -27.0067  -23.0426   21.4156 H   0  0  0  0  0  0
  -25.4745  -23.6206   20.9341 H   0  0  0  0  0  0
  -25.0258  -13.9587   24.9668 H   0  0  0  0  0  0
  -30.0462  -14.0155   18.7087 H   0  0  0  0  0  0
  1 25  1  0  0  0
  1 30  2  0  0  0
  1 89  1  0  0  0
  2  3  1  0  0  0
  2 25  1  0  0  0
  2 90  1  0  0  0
  2 91  1  0  0  0
  3  4  1  0  0  0
  3 92  1  0  0  0
  3 93  1  0  0  0
  4  5  1  0  0  0
  4 94  1  0  0  0
  4 95  1  0  0  0
  5  6  1  0  0  0
  5 26  1  0  0  0
  5 96  1  0  0  0
  6 25  1  0  0  0
  6 97  1  0  0  0
  6 98  1  0  0  0
  7  8  2  0  0  0
  7 26  1  0  0  0
  7 29  1  0  0  0
  8  9  1  0  0  0
  8 22  1  0  0  0
  9 10  1  0  0  0
  9 27  2  0  0  0
 10 11  2  0  0  0
 10 15  1  0  0  0
 11 12  1  0  0  0
 11 99  1  0  0  0
 12 13  2  0  0  0
 12100  1  0  0  0
 13 14  1  0  0  0
 13 31  1  0  0  0
 14 15  2  0  0  0
 14101  1  0  0  0
 15102  1  0  0  0
 16 17  2  0  0  0
 16 21  1  0  0  0
 16 31  1  0  0  0
 17 18  1  0  0  0
 17103  1  0  0  0
 18 19  2  0  0  0
 18104  1  0  0  0
 19 20  1  0  0  0
 19 24  1  0  0  0
 20 21  2  0  0  0
 20105  1  0  0  0
 21 23  1  0  0  0
 22 28  1  0  0  0
 22 32  2  0  0  0
 26 27  1  0  0  0
 28106  1  0  0  0
 28107  1  0  0  0
 29108  1  0  0  0
 29109  1  0  0  0
 33 34  1  0  0  0
 33 66  1  0  0  0
 33 70  2  0  0  0
 34 36  1  0  0  0
 34 59  1  0  0  0
 34110  1  0  0  0
 35 44  2  0  0  0
 35 45  1  0  0  0
 35 68  1  0  0  0
 36 56  1  0  0  0
 36111  1  0  0  0
 37 39  1  0  0  0
 37 47  1  0  0  0
 37 66  1  0  0  0
 37112  1  0  0  0
 38 43  2  0  0  0
 38 46  1  0  0  0
 38 47  1  0  0  0
 39 64  1  0  0  0
 39 67  2  0  0  0
 40 52  1  0  0  0
 40 53  2  0  0  0
 40 58  1  0  0  0
 41113  1  0  0  0
 41114  1  0  0  0
 41115  1  0  0  0
 41 48  1  0  0  0
 42 43  1  0  0  0
 42 66  1  0  0  0
 42116  1  0  0  0
 42117  1  0  0  0
 43 44  1  0  0  0
 44118  1  0  0  0
 45 46  2  0  0  0
 45119  1  0  0  0
 46120  1  0  0  0
 47121  1  0  0  0
 47122  1  0  0  0
 48 56  1  0  0  0
 48 65  1  0  0  0
 48123  1  0  0  0
 49 50  1  0  0  0
 49 53  1  0  0  0
 49 64  1  0  0  0
 49124  1  0  0  0
 50 51  1  0  0  0
 50125  1  0  0  0
 50126  1  0  0  0
 51 52  1  0  0  0
 51127  1  0  0  0
 51128  1  0  0  0
 52129  1  0  0  0
 52130  1  0  0  0
 53 54  1  0  0  0
 54 55  2  0  0  0
 54131  1  0  0  0
 55 57  1  0  0  0
 55132  1  0  0  0
 56 69  2  0  0  0
 57 58  2  0  0  0
 57133  1  0  0  0
 58134  1  0  0  0
 59 60  1  0  0  0
 59 61  1  0  0  0
 59 62  1  0  0  0
 60135  1  0  0  0
 60136  1  0  0  0
 60137  1  0  0  0
 61138  1  0  0  0
 61139  1  0  0  0
 61140  1  0  0  0
 62141  1  0  0  0
 62142  1  0  0  0
 62143  1  0  0  0
 63 65  1  0  0  0
 63144  1  0  0  0
 63145  1  0  0  0
 63146  1  0  0  0
 64147  1  0  0  0
 65148  1  0  0  0
 68 85  1  0  0  0
 71 73  2  0  0  0
 71 74  1  0  0  0
 71149  1  0  0  0
 72 73  1  0  0  0
 72 75  2  0  0  0
 72150  1  0  0  0
 73 80  1  0  0  0
 74 86  1  0  0  0
 74 88  2  0  0  0
 75 87  1  0  0  0
 75 88  1  0  0  0
 76 81  1  0  0  0
 76151  1  0  0  0
 76152  1  0  0  0
 76153  1  0  0  0
 77154  1  0  0  0
 77155  1  0  0  0
 77156  1  0  0  0
 77 86  1  0  0  0
 78 86  1  0  0  0
 78157  1  0  0  0
 78158  1  0  0  0
 78159  1  0  0  0
 79160  1  0  0  0
 79161  1  0  0  0
 79162  1  0  0  0
 79 87  1  0  0  0
 80 82  1  0  0  0
 80163  1  0  0  0
 80164  1  0  0  0
 81 87  1  0  0  0
 81165  1  0  0  0
 81166  1  0  0  0
 82 83  1  0  0  0
 82167  1  0  0  0
 82168  1  0  0  0
 83 85  1  0  0  0
 83169  1  0  0  0
 83170  1  0  0  0
 84 87  1  0  0  0
 84 89  1  0  0  0
 84171  1  0  0  0
 84172  1  0  0  0
 85173  1  0  0  0
 85174  1  0  0  0
 86175  1  0  0  0
 89176  1  0  0  0
M  ISO  4   1 100  68 101  85 101  89 100
M  END
> <chiral flag>
0

> <version>
0

> <s_m_source_file>
/data/baiqing/PycharmProjects/Reinvent-master-3.2/result/LINK_invent/BTK/process_docking_weight1_custom_sum_contain_oxygen_bond_distance_aromatic_linkinvent_7_9_3/rearranged_h_0096.sdf

> <i_m_source_file_index>
70

> <r_mmod_Potential_Energy-OPLS-2005>
25420.830078125

> <r_mmod_Stretch_Energy-OPLS-2005>
14365.392578125

> <r_mmod_Bend_Energy-OPLS-2005>
2928.8212890625

> <r_mmod_Torsional_Energy-OPLS-2005>
587.344055175781

> <r_mmod_Improper_Torsional_Energy-OPLS-2005>
127.977401733398

> <r_mmod_Van_der_Waal_Energy-OPLS-2005>
5867.94189453125

> <r_mmod_Electrostatic_Energy-OPLS-2005>
-520.595581054688

> <r_mmod_Solvation_Energy-OPLS-2005>
-203.838745117188

> <b_mmod_Minimization_Converged-OPLS-2005>
0

> <r_mmod_RMS_Derivative-OPLS-2005>
7.38054418563843

$$$$
70
                    3D
 Structure written by MMmdl.
167174  0  0  1  0            999 V2000
  -30.5099  -14.9724   20.3423 C   0  0  0  0  0  0
  -30.4466  -12.5938   19.4687 C   0  0  0  0  0  0
  -29.5158  -12.5577   18.2354 C   0  0  0  0  0  0
  -28.0518  -12.3468   18.6567 C   0  0  0  0  0  0
  -27.6358  -13.2590   19.8420 C   0  0  2  0  0  0
  -28.6973  -13.2565   20.9690 C   0  0  0  0  0  0
  -25.2456  -13.8242   20.5627 C   0  0  0  0  0  0
  -24.1831  -13.0407   20.9259 C   0  0  0  0  0  0
  -24.6479  -11.6904   20.8724 C   0  0  0  0  0  0
  -23.9130  -10.4263   21.0332 C   0  0  0  0  0  0
  -24.3659   -9.4200   21.9149 C   0  0  0  0  0  0
  -23.6339   -8.2239   22.0742 C   0  0  0  0  0  0
  -22.4336   -8.0259   21.3513 C   0  0  0  0  0  0
  -21.9921   -9.0223   20.4607 C   0  0  0  0  0  0
  -22.7253  -10.2103   20.3017 C   0  0  0  0  0  0
  -21.6904   -6.0730   22.5293 C   0  0  0  0  0  0
  -21.4017   -6.5624   23.8211 C   0  0  0  0  0  0
  -21.3653   -5.6795   24.9187 C   0  0  0  0  0  0
  -21.6055   -4.3062   24.7268 C   0  0  0  0  0  0
  -21.8819   -3.8137   23.4393 C   0  0  0  0  0  0
  -21.9214   -4.6949   22.3424 C   0  0  0  0  0  0
  -22.7826  -13.5102   21.1906 C   0  0  0  0  0  0
  -22.1685   -4.2104   21.1019 F   0  0  0  0  0  0
  -21.5630   -3.4558   25.7796 F   0  0  0  0  0  0
  -29.9655  -13.6858   20.3694 N   0  0  0  0  0  0
  -26.2944  -12.9470   20.3295 N   0  0  0  0  0  0
  -25.9424  -11.6569   20.5710 N   0  0  0  0  0  0
  -22.0540  -12.8060   22.0502 N   0  0  0  0  0  0
  -25.3931  -15.1962   20.3738 N   0  0  0  0  0  0
  -31.6850  -15.0748   19.9881 O   0  0  0  0  0  0
  -21.6690   -6.8878   21.4244 O   0  0  0  0  0  0
  -22.3402  -14.5364   20.6711 O   0  0  0  0  0  0
  -24.6442  -31.8418   23.1928 C   0  0  0  0  0  0
  -25.9162  -32.4741   23.8346 C   0  0  1  0  0  0
  -27.2414  -27.1350   20.1400 C   0  0  0  0  0  0
  -25.5872  -33.8552   24.2228 N   0  0  0  0  0  0
  -23.4510  -30.4571   21.5403 C   0  0  2  0  0  0
  -24.9061  -28.8886   20.1250 C   0  0  0  0  0  0
  -22.7558  -29.4513   22.4938 C   0  0  0  0  0  0
  -18.0258  -28.1378   22.8491 C   0  0  0  0  0  0
  -24.1477  -36.7310   23.2634 C   0  0  0  0  0  0
  -26.0110  -30.7308   21.3763 C   0  0  0  0  0  0
  -26.0926  -29.3375   20.7188 C   0  0  0  0  0  0
  -27.2620  -28.4871   20.6884 C   0  0  0  0  0  0
  -26.0052  -26.7822   19.5538 C   0  0  0  0  0  0
  -24.8758  -27.6277   19.5277 C   0  0  0  0  0  0
  -23.6796  -29.7846   20.1643 C   0  0  0  0  0  0
  -25.4116  -36.3089   24.0295 C   0  0  1  0  0  0
  -20.5877  -28.3709   23.1271 C   0  0  2  0  0  0
  -20.6749  -26.9403   22.5430 C   0  0  0  0  0  0
  -19.5741  -26.6361   21.5224 C   0  0  0  0  0  0
  -18.1914  -26.7927   22.1624 C   0  0  0  0  0  0
  -19.1519  -28.8870   23.2878 C   0  0  0  0  0  0
  -18.9426  -30.1466   23.8926 C   0  0  0  0  0  0
  -17.6423  -30.6584   24.0536 C   0  0  0  0  0  0
  -25.9057  -34.9433   23.5075 C   0  0  0  0  0  0
  -16.5313  -29.9059   23.6341 C   0  0  0  0  0  0
  -16.7243  -28.6458   23.0401 C   0  0  0  0  0  0
  -26.4447  -31.6597   25.0781 C   0  0  0  0  0  0
  -25.3626  -31.3740   26.1453 C   0  0  0  0  0  0
  -27.0231  -30.2984   24.6326 C   0  0  0  0  0  0
  -27.5988  -32.4312   25.7627 C   0  0  0  0  0  0
  -27.5593  -37.1820   24.8439 C   0  0  0  0  0  0
  -21.4257  -29.3036   22.3675 N   0  0  0  0  0  0
  -26.4300  -37.3804   23.9390 N   0  0  0  0  0  0
  -24.7233  -31.0317   22.0933 N   0  0  0  0  0  0
  -23.4228  -28.7999   23.3034 O   0  0  0  0  0  0
  -28.3210  -26.1656   20.1877 O   0  0  0  0  0  0
  -26.5699  -34.8888   22.4708 O   0  0  0  0  0  0
  -23.5536  -32.1197   23.7147 O   0  0  0  0  0  0
  -31.6420  -19.4791   23.9791 C   0  0  0  0  0  0
  -31.7066  -18.7355   18.1861 C   0  0  0  0  0  0
  -28.1172  -24.5753   18.3324 C   0  0  0  0  0  0
  -31.3029  -19.9098   22.5435 C   0  0  0  0  0  0
  -31.5588  -18.9257   19.7146 C   0  0  0  0  0  0
  -30.2084  -19.0390   21.8774 C   0  0  0  0  0  0
  -29.4242  -17.5656   19.9074 C   0  0  0  0  0  0
  -29.2605  -23.3877   20.2667 C   0  0  0  0  0  0
  -29.5565  -20.6002   19.7250 C   0  0  0  0  0  0
  -28.1704  -24.6325   19.8747 C   0  0  1  0  0  0
  -30.1113  -19.0622   20.3188 C   0  0  2  0  0  0
  -29.6695  -16.1053   20.5241 N   0  0  0  0  0  0
  -28.9081  -21.8401   20.5049 N   0  3  0  0  0  0
  -31.4699  -12.7594   19.1373 H   0  0  0  0  0  0
  -30.4538  -11.6316   19.9792 H   0  0  0  0  0  0
  -29.8134  -11.7803   17.5276 H   0  0  0  0  0  0
  -29.6009  -13.5030   17.7021 H   0  0  0  0  0  0
  -27.9333  -11.3003   18.9274 H   0  0  0  0  0  0
  -27.3917  -12.5151   17.8032 H   0  0  0  0  0  0
  -27.5961  -14.2703   19.4344 H   0  0  0  0  0  0
  -28.8092  -12.2600   21.4012 H   0  0  0  0  0  0
  -28.4064  -13.9167   21.7872 H   0  0  0  0  0  0
  -25.2814   -9.5724   22.4685 H   0  0  0  0  0  0
  -24.0083   -7.4632   22.7437 H   0  0  0  0  0  0
  -21.0885   -8.8707   19.8865 H   0  0  0  0  0  0
  -22.3701  -10.9629   19.6113 H   0  0  0  0  0  0
  -21.1998   -7.6121   23.9705 H   0  0  0  0  0  0
  -21.1454   -6.0540   25.9082 H   0  0  0  0  0  0
  -22.0587   -2.7588   23.2961 H   0  0  0  0  0  0
  -22.4270  -11.9796   22.4915 H   0  0  0  0  0  0
  -21.1049  -13.0873   22.2577 H   0  0  0  0  0  0
  -24.5757  -15.7979   20.3793 H   0  0  0  0  0  0
  -26.1647  -15.6033   19.8575 H   0  0  0  0  0  0
  -26.7246  -32.5363   23.1122 H   0  0  0  0  0  0
  -24.9889  -33.9716   25.0260 H   0  0  0  0  0  0
  -22.7561  -31.2851   21.3844 H   0  0  0  0  0  0
  -23.3766  -35.9611   23.3231 H   0  0  0  0  0  0
  -24.3582  -36.9045   22.2071 H   0  0  0  0  0  0
  -23.7184  -37.6448   23.6734 H   0  0  0  0  0  0
  -26.1457  -31.4840   20.5977 H   0  0  0  0  0  0
  -26.8901  -30.8069   22.0067 H   0  0  0  0  0  0
  -28.1823  -28.8525   21.1240 H   0  0  0  0  0  0
  -25.8445  -25.8029   19.1397 H   0  0  0  0  0  0
  -23.9638  -27.2786   19.0664 H   0  0  0  0  0  0
  -23.8009  -30.5533   19.4014 H   0  0  0  0  0  0
  -22.8024  -29.2068   19.8642 H   0  0  0  0  0  0
  -25.1306  -36.1961   25.0800 H   0  0  0  0  0  0
  -20.9954  -28.3254   24.1395 H   0  0  0  0  0  0
  -20.5644  -26.2283   23.3626 H   0  0  0  0  0  0
  -21.6609  -26.7385   22.1235 H   0  0  0  0  0  0
  -19.6886  -25.6257   21.1302 H   0  0  0  0  0  0
  -19.6709  -27.3138   20.6732 H   0  0  0  0  0  0
  -17.4184  -26.6662   21.4029 H   0  0  0  0  0  0
  -18.0311  -26.0052   22.9010 H   0  0  0  0  0  0
  -19.7890  -30.7264   24.2335 H   0  0  0  0  0  0
  -17.4945  -31.6294   24.5072 H   0  0  0  0  0  0
  -15.5324  -30.2958   23.7634 H   0  0  0  0  0  0
  -15.8632  -28.0740   22.7192 H   0  0  0  0  0  0
  -24.5948  -30.6940   25.7781 H   0  0  0  0  0  0
  -24.8634  -32.2856   26.4736 H   0  0  0  0  0  0
  -25.7910  -30.9075   27.0345 H   0  0  0  0  0  0
  -26.2778  -29.6847   24.1279 H   0  0  0  0  0  0
  -27.3704  -29.7199   25.4906 H   0  0  0  0  0  0
  -27.8774  -30.4179   23.9674 H   0  0  0  0  0  0
  -27.2585  -33.3623   26.2196 H   0  0  0  0  0  0
  -28.3862  -32.6866   25.0516 H   0  0  0  0  0  0
  -28.0573  -31.8430   26.5594 H   0  0  0  0  0  0
  -28.2530  -38.0190   24.7574 H   0  0  0  0  0  0
  -28.1168  -36.2728   24.6167 H   0  0  0  0  0  0
  -27.2323  -37.1351   25.8840 H   0  0  0  0  0  0
  -20.9439  -29.8793   21.6907 H   0  0  0  0  0  0
  -26.0162  -38.2854   24.1492 H   0  0  0  0  0  0
  -32.4059  -20.1497   24.3803 H   0  0  0  0  0  0
  -32.0533  -18.4653   23.9956 H   0  0  0  0  0  0
  -30.7828  -19.5019   24.6481 H   0  0  0  0  0  0
  -32.7637  -18.7951   17.9109 H   0  0  0  0  0  0
  -31.1829  -19.4944   17.5960 H   0  0  0  0  0  0
  -31.3663  -17.7480   17.8683 H   0  0  0  0  0  0
  -27.9989  -23.5473   17.9909 H   0  0  0  0  0  0
  -29.0460  -24.9617   17.9087 H   0  0  0  0  0  0
  -27.3173  -25.1519   17.8775 H   0  0  0  0  0  0
  -32.2438  -19.8229   22.0020 H   0  0  0  0  0  0
  -31.0485  -20.9719   22.5200 H   0  0  0  0  0  0
  -32.1382  -19.8256   19.9177 H   0  0  0  0  0  0
  -32.0992  -18.1175   20.2152 H   0  0  0  0  0  0
  -29.2333  -19.2508   22.3143 H   0  0  0  0  0  0
  -30.4161  -18.0118   22.1829 H   0  0  0  0  0  0
  -29.4210  -17.4435   18.8247 H   0  0  0  0  0  0
  -28.3654  -17.7263   20.1148 H   0  0  0  0  0  0
  -29.7379  -23.7109   21.1930 H   0  0  0  0  0  0
  -30.0706  -23.4196   19.5340 H   0  0  0  0  0  0
  -28.9137  -20.4148   18.8639 H   0  0  0  0  0  0
  -30.4211  -21.0757   19.2665 H   0  0  0  0  0  0
  -27.2120  -24.3352   20.3036 H   0  0  0  0  0  0
  -28.8172  -15.7795   20.9616 H   0  0  0  0  0  0
  -27.9078  -21.7498   20.4227 H   0  0  0  0  0  0
  -29.0979  -21.6796   21.4838 H   0  0  0  0  0  0
  1 25  1  0  0  0
  1 30  2  0  0  0
  1 82  1  0  0  0
  2  3  1  0  0  0
  2 25  1  0  0  0
  2 84  1  0  0  0
  2 85  1  0  0  0
  3  4  1  0  0  0
  3 86  1  0  0  0
  3 87  1  0  0  0
  4  5  1  0  0  0
  4 88  1  0  0  0
  4 89  1  0  0  0
  5  6  1  0  0  0
  5 26  1  0  0  0
  5 90  1  0  0  0
  6 25  1  0  0  0
  6 91  1  0  0  0
  6 92  1  0  0  0
  7  8  2  0  0  0
  7 26  1  0  0  0
  7 29  1  0  0  0
  8  9  1  0  0  0
  8 22  1  0  0  0
  9 10  1  0  0  0
  9 27  2  0  0  0
 10 11  2  0  0  0
 10 15  1  0  0  0
 11 12  1  0  0  0
 11 93  1  0  0  0
 12 13  2  0  0  0
 12 94  1  0  0  0
 13 14  1  0  0  0
 13 31  1  0  0  0
 14 15  2  0  0  0
 14 95  1  0  0  0
 15 96  1  0  0  0
 16 17  2  0  0  0
 16 21  1  0  0  0
 16 31  1  0  0  0
 17 18  1  0  0  0
 17 97  1  0  0  0
 18 19  2  0  0  0
 18 98  1  0  0  0
 19 20  1  0  0  0
 19 24  1  0  0  0
 20 21  2  0  0  0
 20 99  1  0  0  0
 21 23  1  0  0  0
 22 28  1  0  0  0
 22 32  2  0  0  0
 26 27  1  0  0  0
 28100  1  0  0  0
 28101  1  0  0  0
 29102  1  0  0  0
 29103  1  0  0  0
 33 34  1  0  0  0
 33 66  1  0  0  0
 33 70  2  0  0  0
 34 36  1  0  0  0
 34 59  1  0  0  0
 34104  1  0  0  0
 35 44  2  0  0  0
 35 45  1  0  0  0
 35 68  1  0  0  0
 36 56  1  0  0  0
 36105  1  0  0  0
 37 39  1  0  0  0
 37 47  1  0  0  0
 37 66  1  0  0  0
 37106  1  0  0  0
 38 43  2  0  0  0
 38 46  1  0  0  0
 38 47  1  0  0  0
 39 64  1  0  0  0
 39 67  2  0  0  0
 40 52  1  0  0  0
 40 53  2  0  0  0
 40 58  1  0  0  0
 41107  1  0  0  0
 41108  1  0  0  0
 41109  1  0  0  0
 41 48  1  0  0  0
 42 43  1  0  0  0
 42 66  1  0  0  0
 42110  1  0  0  0
 42111  1  0  0  0
 43 44  1  0  0  0
 44112  1  0  0  0
 45 46  2  0  0  0
 45113  1  0  0  0
 46114  1  0  0  0
 47115  1  0  0  0
 47116  1  0  0  0
 48 56  1  0  0  0
 48 65  1  0  0  0
 48117  1  0  0  0
 49 50  1  0  0  0
 49 53  1  0  0  0
 49 64  1  0  0  0
 49118  1  0  0  0
 50 51  1  0  0  0
 50119  1  0  0  0
 50120  1  0  0  0
 51 52  1  0  0  0
 51121  1  0  0  0
 51122  1  0  0  0
 52123  1  0  0  0
 52124  1  0  0  0
 53 54  1  0  0  0
 54 55  2  0  0  0
 54125  1  0  0  0
 55 57  1  0  0  0
 55126  1  0  0  0
 56 69  2  0  0  0
 57 58  2  0  0  0
 57127  1  0  0  0
 58128  1  0  0  0
 59 60  1  0  0  0
 59 61  1  0  0  0
 59 62  1  0  0  0
 60129  1  0  0  0
 60130  1  0  0  0
 60131  1  0  0  0
 61132  1  0  0  0
 61133  1  0  0  0
 61134  1  0  0  0
 62135  1  0  0  0
 62136  1  0  0  0
 62137  1  0  0  0
 63 65  1  0  0  0
 63138  1  0  0  0
 63139  1  0  0  0
 63140  1  0  0  0
 64141  1  0  0  0
 65142  1  0  0  0
 68 80  1  0  0  0
 71 74  1  0  0  0
 71143  1  0  0  0
 71144  1  0  0  0
 71145  1  0  0  0
 72 75  1  0  0  0
 72146  1  0  0  0
 72147  1  0  0  0
 72148  1  0  0  0
 73149  1  0  0  0
 73150  1  0  0  0
 73151  1  0  0  0
 73 80  1  0  0  0
 74 76  1  0  0  0
 74152  1  0  0  0
 74153  1  0  0  0
 75154  1  0  0  0
 75155  1  0  0  0
 75 81  1  0  0  0
 76 81  1  0  0  0
 76156  1  0  0  0
 76157  1  0  0  0
 77 81  1  0  0  0
 77 82  1  0  0  0
 77158  1  0  0  0
 77159  1  0  0  0
 78 80  1  0  0  0
 78 83  1  0  0  0
 78160  1  0  0  0
 78161  1  0  0  0
 79 81  1  0  0  0
 79 83  1  0  0  0
 79162  1  0  0  0
 79163  1  0  0  0
 80164  1  0  0  0
 82165  1  0  0  0
 83166  1  0  0  0
 83167  1  0  0  0
M  CHG  1  83   1
M  ISO  4   1 100  68 101  80 101  82 100
M  END
> <chiral flag>
0

> <version>
0

> <s_m_source_file>
/data/baiqing/PycharmProjects/Reinvent-master-3.2/result/LINK_invent/BTK/process_docking_weight1_custom_sum_contain_oxygen_bond_distance_aromatic_linkinvent_7_9_3/rearranged_h_0096.sdf

> <i_m_source_file_index>
71

> <r_mmod_Potential_Energy-OPLS-2005>
591.429138183594

> <r_mmod_Stretch_Energy-OPLS-2005>
326.981414794922

> <r_mmod_Bend_Energy-OPLS-2005>
363.583129882812

> <r_mmod_Torsional_Energy-OPLS-2005>
293.416473388672

> <r_mmod_Improper_Torsional_Energy-OPLS-2005>
7.70148849487305

> <r_mmod_Van_der_Waal_Energy-OPLS-2005>
121.78401184082

> <r_mmod_Electrostatic_Energy-OPLS-2005>
-276.089813232422

> <r_mmod_Solvation_Energy-OPLS-2005>
-446.214538574219

> <b_mmod_Minimization_Converged-OPLS-2005>
0

> <r_mmod_RMS_Derivative-OPLS-2005>
8.07624244689941

$$$$
71
                    3D
 Structure written by MMmdl.
161169  0  0  1  0            999 V2000
  -30.5847  -14.8984   20.4762 C   0  0  0  0  0  0
  -30.4446  -12.5641   19.5163 C   0  0  0  0  0  0
  -29.5351  -12.5500   18.2680 C   0  0  0  0  0  0
  -28.0660  -12.3374   18.6813 C   0  0  0  0  0  0
  -27.6397  -13.2521   19.8601 C   0  0  2  0  0  0
  -28.6819  -13.2566   21.0010 C   0  0  0  0  0  0
  -25.2485  -13.8236   20.5734 C   0  0  0  0  0  0
  -24.1774  -13.0447   20.9216 C   0  0  0  0  0  0
  -24.6407  -11.6930   20.8744 C   0  0  0  0  0  0
  -23.9072  -10.4297   21.0397 C   0  0  0  0  0  0
  -24.3617   -9.4228   21.9177 C   0  0  0  0  0  0
  -23.6302   -8.2259   22.0746 C   0  0  0  0  0  0
  -22.4294   -8.0281   21.3526 C   0  0  0  0  0  0
  -21.9919   -9.0265   20.4637 C   0  0  0  0  0  0
  -22.7242  -10.2148   20.3057 C   0  0  0  0  0  0
  -21.6863   -6.0726   22.5280 C   0  0  0  0  0  0
  -21.4018   -6.5629   23.8204 C   0  0  0  0  0  0
  -21.3667   -5.6781   24.9168 C   0  0  0  0  0  0
  -21.6059   -4.3045   24.7226 C   0  0  0  0  0  0
  -21.8823   -3.8134   23.4348 C   0  0  0  0  0  0
  -21.9195   -4.6952   22.3399 C   0  0  0  0  0  0
  -22.7813  -13.5211   21.1865 C   0  0  0  0  0  0
  -22.1664   -4.2133   21.0981 F   0  0  0  0  0  0
  -21.5636   -3.4540   25.7742 F   0  0  0  0  0  0
  -29.9635  -13.6551   20.4083 N   0  0  0  0  0  0
  -26.2942  -12.9465   20.3357 N   0  0  0  0  0  0
  -25.9344  -11.6594   20.5759 N   0  0  0  0  0  0
  -22.0443  -12.8213   22.0440 N   0  0  0  0  0  0
  -25.4165  -15.1948   20.4123 N   0  0  0  0  0  0
  -31.7790  -14.9588   20.1703 O   0  0  0  0  0  0
  -21.6661   -6.8892   21.4241 O   0  0  0  0  0  0
  -22.3494  -14.5505   20.6701 O   0  0  0  0  0  0
  -24.6385  -31.8476   23.1899 C   0  0  0  0  0  0
  -25.9178  -32.4725   23.8253 C   0  0  1  0  0  0
  -27.2208  -27.1620   20.1699 C   0  0  0  0  0  0
  -25.5955  -33.8531   24.2208 N   0  0  0  0  0  0
  -23.4396  -30.4649   21.5350 C   0  0  2  0  0  0
  -24.8870  -28.8810   20.1205 C   0  0  0  0  0  0
  -22.7544  -29.4570   22.4900 C   0  0  0  0  0  0
  -18.0300  -28.1412   22.8468 C   0  0  0  0  0  0
  -24.1499  -36.7281   23.2636 C   0  0  0  0  0  0
  -25.9870  -30.7245   21.3854 C   0  0  0  0  0  0
  -26.0564  -29.3290   20.7516 C   0  0  0  0  0  0
  -27.2219  -28.4820   20.7631 C   0  0  0  0  0  0
  -26.0413  -26.8182   19.4814 C   0  0  0  0  0  0
  -24.8917  -27.6369   19.4670 C   0  0  0  0  0  0
  -23.6623  -29.7834   20.1568 C   0  0  0  0  0  0
  -25.4126  -36.3070   24.0331 C   0  0  1  0  0  0
  -20.5902  -28.3750   23.1247 C   0  0  2  0  0  0
  -20.6787  -26.9463   22.5392 C   0  0  0  0  0  0
  -19.5766  -26.6423   21.5202 C   0  0  0  0  0  0
  -18.1943  -26.7948   22.1614 C   0  0  0  0  0  0
  -19.1550  -28.8884   23.2865 C   0  0  0  0  0  0
  -18.9475  -30.1480   23.8892 C   0  0  0  0  0  0
  -17.6468  -30.6589   24.0571 C   0  0  0  0  0  0
  -25.9059  -34.9440   23.5084 C   0  0  0  0  0  0
  -16.5370  -29.9094   23.6310 C   0  0  0  0  0  0
  -16.7286  -28.6513   23.0345 C   0  0  0  0  0  0
  -26.4513  -31.6561   25.0667 C   0  0  0  0  0  0
  -25.3693  -31.3729   26.1361 C   0  0  0  0  0  0
  -27.0356  -30.2973   24.6176 C   0  0  0  0  0  0
  -27.6070  -32.4280   25.7451 C   0  0  0  0  0  0
  -27.5586  -37.1803   24.8460 C   0  0  0  0  0  0
  -21.4235  -29.3095   22.3640 N   0  0  0  0  0  0
  -26.4299  -37.3776   23.9407 N   0  0  0  0  0  0
  -24.7076  -31.0340   22.0922 N   0  0  0  0  0  0
  -23.4185  -28.8137   23.3063 O   0  0  0  0  0  0
  -28.3364  -26.2693   20.1156 O   0  0  0  0  0  0
  -26.5654  -34.8926   22.4666 O   0  0  0  0  0  0
  -23.5518  -32.1363   23.7131 O   0  0  0  0  0  0
  -29.5852  -21.1783   19.2839 C   0  0  0  0  0  0
  -30.0233  -19.8131   19.4440 C   0  0  0  0  0  0
  -28.7360  -21.8775   20.2110 C   0  0  0  0  0  0
  -29.6579  -19.0019   20.5540 C   0  0  0  0  0  0
  -28.4707  -21.0000   21.3335 C   0  0  0  0  0  0
  -27.6305  -21.4975   22.4919 C   0  0  0  0  0  0
  -27.3520  -22.7094   17.4054 C   0  0  0  0  0  0
  -26.5105  -23.2229   20.1501 C   0  0  0  0  0  0
  -30.3763  -17.5534   20.8682 C   0  0  0  0  0  0
  -28.1567  -23.6445   18.3412 C   0  0  0  0  0  0
  -28.4241  -24.8079   20.6256 C   0  0  0  0  0  0
  -28.0273  -23.3630   19.8685 C   0  0  2  0  0  0
  -28.9012  -19.6744   21.4874 N   0  0  0  0  0  0
  -29.8541  -16.0855   20.7096 N   0  0  0  0  0  0
  -31.4853  -12.7029   19.2227 H   0  0  0  0  0  0
  -30.4071  -11.6025   20.0295 H   0  0  0  0  0  0
  -29.8525  -11.7751   17.5689 H   0  0  0  0  0  0
  -29.6369  -13.5000   17.7367 H   0  0  0  0  0  0
  -27.9574  -11.2915   18.9681 H   0  0  0  0  0  0
  -27.4075  -12.4938   17.8270 H   0  0  0  0  0  0
  -27.6147  -14.2653   19.4576 H   0  0  0  0  0  0
  -28.7623  -12.2737   21.4680 H   0  0  0  0  0  0
  -28.3952  -13.9522   21.7945 H   0  0  0  0  0  0
  -25.2769   -9.5721   22.4754 H   0  0  0  0  0  0
  -24.0015   -7.4669   22.7469 H   0  0  0  0  0  0
  -21.0858   -8.8802   19.8955 H   0  0  0  0  0  0
  -22.3701  -10.9691   19.6180 H   0  0  0  0  0  0
  -21.2005   -7.6141   23.9711 H   0  0  0  0  0  0
  -21.1483   -6.0506   25.9072 H   0  0  0  0  0  0
  -22.0588   -2.7601   23.2853 H   0  0  0  0  0  0
  -22.4053  -11.9892   22.4842 H   0  0  0  0  0  0
  -21.1064  -13.1231   22.2623 H   0  0  0  0  0  0
  -24.6493  -15.8497   20.5197 H   0  0  0  0  0  0
  -26.2504  -15.6257   20.0362 H   0  0  0  0  0  0
  -26.7240  -32.5339   23.0983 H   0  0  0  0  0  0
  -25.0082  -33.9620   25.0347 H   0  0  0  0  0  0
  -22.7410  -31.2893   21.3821 H   0  0  0  0  0  0
  -23.3764  -35.9594   23.3268 H   0  0  0  0  0  0
  -24.3588  -36.8935   22.2044 H   0  0  0  0  0  0
  -23.7228  -37.6478   23.6667 H   0  0  0  0  0  0
  -26.1218  -31.4614   20.5920 H   0  0  0  0  0  0
  -26.8679  -30.7912   22.0140 H   0  0  0  0  0  0
  -28.1179  -28.8214   21.2638 H   0  0  0  0  0  0
  -26.0110  -25.9079   18.9091 H   0  0  0  0  0  0
  -24.0166  -27.3016   18.9279 H   0  0  0  0  0  0
  -23.7893  -30.5506   19.3919 H   0  0  0  0  0  0
  -22.7763  -29.2189   19.8561 H   0  0  0  0  0  0
  -25.1302  -36.1907   25.0819 H   0  0  0  0  0  0
  -20.9997  -28.3343   24.1366 H   0  0  0  0  0  0
  -20.5693  -26.2377   23.3624 H   0  0  0  0  0  0
  -21.6660  -26.7493   22.1201 H   0  0  0  0  0  0
  -19.6672  -27.3237   20.6733 H   0  0  0  0  0  0
  -19.6948  -25.6336   21.1219 H   0  0  0  0  0  0
  -17.4229  -26.6703   21.4012 H   0  0  0  0  0  0
  -18.0357  -26.0074   22.9005 H   0  0  0  0  0  0
  -19.7949  -30.7289   24.2289 H   0  0  0  0  0  0
  -17.5021  -31.6261   24.5196 H   0  0  0  0  0  0
  -15.5368  -30.3004   23.7617 H   0  0  0  0  0  0
  -15.8705  -28.0830   22.7056 H   0  0  0  0  0  0
  -24.5916  -30.7045   25.7681 H   0  0  0  0  0  0
  -24.8818  -32.2884   26.4700 H   0  0  0  0  0  0
  -25.7953  -30.8965   27.0201 H   0  0  0  0  0  0
  -26.2954  -29.6746   24.1158 H   0  0  0  0  0  0
  -27.4006  -29.7211   25.4691 H   0  0  0  0  0  0
  -27.8838  -30.4268   23.9454 H   0  0  0  0  0  0
  -27.2730  -33.3624   26.1977 H   0  0  0  0  0  0
  -28.3910  -32.6771   25.0284 H   0  0  0  0  0  0
  -28.0712  -31.8421   26.5403 H   0  0  0  0  0  0
  -28.2611  -38.0104   24.7538 H   0  0  0  0  0  0
  -28.1090  -36.2640   24.6253 H   0  0  0  0  0  0
  -27.2308  -37.1413   25.8870 H   0  0  0  0  0  0
  -20.9476  -29.8814   21.6825 H   0  0  0  0  0  0
  -26.0176  -38.2856   24.1396 H   0  0  0  0  0  0
  -29.9049  -21.6680   18.3800 H   0  0  0  0  0  0
  -30.6801  -19.3929   18.6918 H   0  0  0  0  0  0
  -26.5778  -21.4007   22.2393 H   0  0  0  0  0  0
  -27.8568  -22.5401   22.7147 H   0  0  0  0  0  0
  -27.7871  -20.9232   23.4026 H   0  0  0  0  0  0
  -26.2768  -22.8614   17.5084 H   0  0  0  0  0  0
  -27.5385  -21.6538   17.5948 H   0  0  0  0  0  0
  -27.5949  -22.9058   16.3616 H   0  0  0  0  0  0
  -26.1256  -22.2587   19.8182 H   0  0  0  0  0  0
  -25.9291  -23.9805   19.6368 H   0  0  0  0  0  0
  -26.2641  -23.3458   21.2041 H   0  0  0  0  0  0
  -30.7060  -17.6190   21.9048 H   0  0  0  0  0  0
  -31.3106  -17.5792   20.3083 H   0  0  0  0  0  0
  -27.8201  -24.6583   18.1348 H   0  0  0  0  0  0
  -29.2043  -23.6617   18.0488 H   0  0  0  0  0  0
  -27.9975  -24.8072   21.6287 H   0  0  0  0  0  0
  -29.4931  -24.7109   20.8134 H   0  0  0  0  0  0
  -28.8724  -15.9611   20.8993 H   0  0  0  0  0  0
  1 25  1  0  0  0
  1 30  2  0  0  0
  1 84  1  0  0  0
  2  3  1  0  0  0
  2 25  1  0  0  0
  2 85  1  0  0  0
  2 86  1  0  0  0
  3  4  1  0  0  0
  3 87  1  0  0  0
  3 88  1  0  0  0
  4  5  1  0  0  0
  4 89  1  0  0  0
  4 90  1  0  0  0
  5  6  1  0  0  0
  5 26  1  0  0  0
  5 91  1  0  0  0
  6 25  1  0  0  0
  6 92  1  0  0  0
  6 93  1  0  0  0
  7  8  2  0  0  0
  7 26  1  0  0  0
  7 29  1  0  0  0
  8  9  1  0  0  0
  8 22  1  0  0  0
  9 10  1  0  0  0
  9 27  2  0  0  0
 10 11  2  0  0  0
 10 15  1  0  0  0
 11 12  1  0  0  0
 11 94  1  0  0  0
 12 13  2  0  0  0
 12 95  1  0  0  0
 13 14  1  0  0  0
 13 31  1  0  0  0
 14 15  2  0  0  0
 14 96  1  0  0  0
 15 97  1  0  0  0
 16 17  2  0  0  0
 16 21  1  0  0  0
 16 31  1  0  0  0
 17 18  1  0  0  0
 17 98  1  0  0  0
 18 19  2  0  0  0
 18 99  1  0  0  0
 19 20  1  0  0  0
 19 24  1  0  0  0
 20 21  2  0  0  0
 20100  1  0  0  0
 21 23  1  0  0  0
 22 28  1  0  0  0
 22 32  2  0  0  0
 26 27  1  0  0  0
 28101  1  0  0  0
 28102  1  0  0  0
 29103  1  0  0  0
 29104  1  0  0  0
 33 34  1  0  0  0
 33 66  1  0  0  0
 33 70  2  0  0  0
 34 36  1  0  0  0
 34 59  1  0  0  0
 34105  1  0  0  0
 35 44  2  0  0  0
 35 45  1  0  0  0
 35 68  1  0  0  0
 36 56  1  0  0  0
 36106  1  0  0  0
 37 39  1  0  0  0
 37 47  1  0  0  0
 37 66  1  0  0  0
 37107  1  0  0  0
 38 43  2  0  0  0
 38 46  1  0  0  0
 38 47  1  0  0  0
 39 64  1  0  0  0
 39 67  2  0  0  0
 40 52  1  0  0  0
 40 53  2  0  0  0
 40 58  1  0  0  0
 41108  1  0  0  0
 41109  1  0  0  0
 41110  1  0  0  0
 41 48  1  0  0  0
 42 43  1  0  0  0
 42 66  1  0  0  0
 42111  1  0  0  0
 42112  1  0  0  0
 43 44  1  0  0  0
 44113  1  0  0  0
 45 46  2  0  0  0
 45114  1  0  0  0
 46115  1  0  0  0
 47116  1  0  0  0
 47117  1  0  0  0
 48 56  1  0  0  0
 48 65  1  0  0  0
 48118  1  0  0  0
 49 50  1  0  0  0
 49 53  1  0  0  0
 49 64  1  0  0  0
 49119  1  0  0  0
 50 51  1  0  0  0
 50120  1  0  0  0
 50121  1  0  0  0
 51 52  1  0  0  0
 51122  1  0  0  0
 51123  1  0  0  0
 52124  1  0  0  0
 52125  1  0  0  0
 53 54  1  0  0  0
 54 55  2  0  0  0
 54126  1  0  0  0
 55 57  1  0  0  0
 55127  1  0  0  0
 56 69  2  0  0  0
 57 58  2  0  0  0
 57128  1  0  0  0
 58129  1  0  0  0
 59 60  1  0  0  0
 59 61  1  0  0  0
 59 62  1  0  0  0
 60130  1  0  0  0
 60131  1  0  0  0
 60132  1  0  0  0
 61133  1  0  0  0
 61134  1  0  0  0
 61135  1  0  0  0
 62136  1  0  0  0
 62137  1  0  0  0
 62138  1  0  0  0
 63 65  1  0  0  0
 63139  1  0  0  0
 63140  1  0  0  0
 63141  1  0  0  0
 64142  1  0  0  0
 65143  1  0  0  0
 68 81  1  0  0  0
 71 72  2  0  0  0
 71 73  1  0  0  0
 71144  1  0  0  0
 72 74  1  0  0  0
 72145  1  0  0  0
 73 75  2  0  0  0
 73 82  1  0  0  0
 74 79  1  0  0  0
 74 83  2  0  0  0
 75 76  1  0  0  0
 75 83  1  0  0  0
 76146  1  0  0  0
 76147  1  0  0  0
 76148  1  0  0  0
 77 80  1  0  0  0
 77149  1  0  0  0
 77150  1  0  0  0
 77151  1  0  0  0
 78152  1  0  0  0
 78153  1  0  0  0
 78154  1  0  0  0
 78 82  1  0  0  0
 79 84  1  0  0  0
 79155  1  0  0  0
 79156  1  0  0  0
 80 82  1  0  0  0
 80157  1  0  0  0
 80158  1  0  0  0
 81 82  1  0  0  0
 81159  1  0  0  0
 81160  1  0  0  0
 84161  1  0  0  0
M  ISO  4   1 100  68 101  81 101  84 100
M  END
> <chiral flag>
0

> <version>
0

> <s_m_source_file>
/data/baiqing/PycharmProjects/Reinvent-master-3.2/result/LINK_invent/BTK/process_docking_weight1_custom_sum_contain_oxygen_bond_distance_aromatic_linkinvent_7_9_3/rearranged_h_0096.sdf

> <i_m_source_file_index>
72

> <r_mmod_Potential_Energy-OPLS-2005>
218.26252746582

> <r_mmod_Stretch_Energy-OPLS-2005>
226.105056762695

> <r_mmod_Bend_Energy-OPLS-2005>
289.157684326172

> <r_mmod_Torsional_Energy-OPLS-2005>
248.250427246094

> <r_mmod_Improper_Torsional_Energy-OPLS-2005>
7.29454851150513

> <r_mmod_Van_der_Waal_Energy-OPLS-2005>
145.946853637695

> <r_mmod_Electrostatic_Energy-OPLS-2005>
-635.384155273438

> <r_mmod_Solvation_Energy-OPLS-2005>
-214.886505126953

> <b_mmod_Minimization_Converged-OPLS-2005>
0

> <r_mmod_RMS_Derivative-OPLS-2005>
5.14444971084595

$$$$
72
                    3D
 Structure written by MMmdl.
167175  0  0  1  0            999 V2000
  -30.5364  -14.9514   20.3975 C   0  0  0  0  0  0
  -30.4384  -12.5861   19.4957 C   0  0  0  0  0  0
  -29.5204  -12.5168   18.2546 C   0  0  0  0  0  0
  -28.0521  -12.3118   18.6723 C   0  0  0  0  0  0
  -27.6295  -13.2466   19.8368 C   0  0  2  0  0  0
  -28.6724  -13.2792   20.9740 C   0  0  0  0  0  0
  -25.2466  -13.8212   20.5707 C   0  0  0  0  0  0
  -24.1785  -13.0436   20.9215 C   0  0  0  0  0  0
  -24.6401  -11.6920   20.8747 C   0  0  0  0  0  0
  -23.9086  -10.4289   21.0397 C   0  0  0  0  0  0
  -24.3633   -9.4213   21.9184 C   0  0  0  0  0  0
  -23.6308   -8.2245   22.0759 C   0  0  0  0  0  0
  -22.4290   -8.0280   21.3545 C   0  0  0  0  0  0
  -21.9925   -9.0250   20.4647 C   0  0  0  0  0  0
  -22.7254  -10.2130   20.3051 C   0  0  0  0  0  0
  -21.6859   -6.0737   22.5280 C   0  0  0  0  0  0
  -21.4017   -6.5645   23.8211 C   0  0  0  0  0  0
  -21.3660   -5.6796   24.9171 C   0  0  0  0  0  0
  -21.6044   -4.3056   24.7224 C   0  0  0  0  0  0
  -21.8822   -3.8153   23.4341 C   0  0  0  0  0  0
  -21.9198   -4.6966   22.3399 C   0  0  0  0  0  0
  -22.7810  -13.5207   21.1867 C   0  0  0  0  0  0
  -22.1664   -4.2155   21.0972 F   0  0  0  0  0  0
  -21.5630   -3.4542   25.7733 F   0  0  0  0  0  0
  -29.9450  -13.6898   20.3696 N   0  0  0  0  0  0
  -26.2889  -12.9443   20.3239 N   0  0  0  0  0  0
  -25.9331  -11.6571   20.5737 N   0  0  0  0  0  0
  -22.0470  -12.8180   22.0419 N   0  0  0  0  0  0
  -25.4122  -15.1935   20.4123 N   0  0  0  0  0  0
  -31.7397  -15.0109   20.1248 O   0  0  0  0  0  0
  -21.6646   -6.8884   21.4242 O   0  0  0  0  0  0
  -22.3490  -14.5520   20.6728 O   0  0  0  0  0  0
  -24.6471  -31.8433   23.1859 C   0  0  0  0  0  0
  -25.9239  -32.4688   23.8239 C   0  0  1  0  0  0
  -27.2037  -27.1136   20.1530 C   0  0  0  0  0  0
  -25.5988  -33.8484   24.2169 N   0  0  0  0  0  0
  -23.4515  -30.4669   21.5307 C   0  0  2  0  0  0
  -24.8965  -28.8938   20.1083 C   0  0  0  0  0  0
  -22.7596  -29.4562   22.4804 C   0  0  0  0  0  0
  -18.0321  -28.1430   22.8503 C   0  0  0  0  0  0
  -24.1472  -36.7223   23.2647 C   0  0  0  0  0  0
  -26.0095  -30.7115   21.3883 C   0  0  0  0  0  0
  -26.0766  -29.3211   20.7304 C   0  0  0  0  0  0
  -27.2330  -28.4495   20.7323 C   0  0  0  0  0  0
  -25.9942  -26.7980   19.4920 C   0  0  0  0  0  0
  -24.8709  -27.6468   19.4714 C   0  0  0  0  0  0
  -23.6793  -29.8038   20.1478 C   0  0  0  0  0  0
  -25.4106  -36.3012   24.0323 C   0  0  1  0  0  0
  -20.5942  -28.3748   23.1230 C   0  0  2  0  0  0
  -20.6804  -26.9451   22.5405 C   0  0  0  0  0  0
  -19.5761  -26.6406   21.5230 C   0  0  0  0  0  0
  -18.1940  -26.7977   22.1636 C   0  0  0  0  0  0
  -19.1584  -28.8897   23.2860 C   0  0  0  0  0  0
  -18.9505  -30.1496   23.8890 C   0  0  0  0  0  0
  -17.6502  -30.6621   24.0580 C   0  0  0  0  0  0
  -25.9075  -34.9406   23.5047 C   0  0  0  0  0  0
  -16.5383  -29.9132   23.6358 C   0  0  0  0  0  0
  -16.7304  -28.6548   23.0375 C   0  0  0  0  0  0
  -26.4552  -31.6560   25.0695 C   0  0  0  0  0  0
  -25.3730  -31.3786   26.1391 C   0  0  0  0  0  0
  -27.0421  -30.2951   24.6296 C   0  0  0  0  0  0
  -27.6062  -32.4335   25.7509 C   0  0  0  0  0  0
  -27.5552  -37.1778   24.8479 C   0  0  0  0  0  0
  -21.4279  -29.3081   22.3586 N   0  0  0  0  0  0
  -26.4252  -37.3745   23.9433 N   0  0  0  0  0  0
  -24.7226  -31.0303   22.0889 N   0  0  0  0  0  0
  -23.4242  -28.8105   23.2952 O   0  0  0  0  0  0
  -28.2389  -26.1020   20.2102 O   0  0  0  0  0  0
  -26.5641  -34.8934   22.4622 O   0  0  0  0  0  0
  -23.5591  -32.1289   23.7094 O   0  0  0  0  0  0
  -28.5529  -21.8186   20.3513 C   0  0  0  0  0  0
  -29.5039  -20.6673   20.2309 C   0  0  0  0  0  0
  -28.9068  -23.2647   20.1845 C   0  0  0  0  0  0
  -30.8127  -21.1278   19.9092 C   0  0  0  0  0  0
  -30.2776  -23.4481   19.9266 C   0  0  0  0  0  0
  -30.8870  -24.8267   19.7629 C   0  0  0  0  0  0
  -32.7910  -19.9499   20.9803 C   0  0  0  0  0  0
  -25.4685  -21.0931   22.6352 C   0  0  0  0  0  0
  -27.1088  -21.4982   20.7054 C   0  0  0  0  0  0
  -29.1559  -19.0384   20.4653 C   0  0  0  0  0  0
  -27.8835  -24.5736   20.1928 C   0  0  0  0  0  0
  -32.0096  -20.2190   19.6866 C   0  0  0  0  0  0
  -26.8816  -21.5262   22.2250 C   0  0  0  0  0  0
  -30.1348  -17.6624   20.2307 C   0  0  0  0  0  0
  -31.1591  -22.4327   19.7971 N   0  0  0  0  0  0
  -29.7642  -16.1455   20.5060 N   0  0  0  0  0  0
  -31.4704  -12.7460   19.1796 H   0  0  0  0  0  0
  -30.4389  -11.6379   20.0340 H   0  0  0  0  0  0
  -29.8352  -11.7068   17.5959 H   0  0  0  0  0  0
  -29.6146  -13.4369   17.6767 H   0  0  0  0  0  0
  -27.9401  -11.2701   18.9762 H   0  0  0  0  0  0
  -27.3927  -12.4492   17.8145 H   0  0  0  0  0  0
  -27.5923  -14.2473   19.4063 H   0  0  0  0  0  0
  -28.7629  -12.3059   21.4584 H   0  0  0  0  0  0
  -28.3748  -13.9879   21.7484 H   0  0  0  0  0  0
  -25.2777   -9.5694   22.4760 H   0  0  0  0  0  0
  -24.0016   -7.4646   22.7487 H   0  0  0  0  0  0
  -21.0859   -8.8771   19.8958 H   0  0  0  0  0  0
  -22.3714  -10.9665   19.6157 H   0  0  0  0  0  0
  -21.2003   -7.6155   23.9715 H   0  0  0  0  0  0
  -21.1480   -6.0523   25.9073 H   0  0  0  0  0  0
  -22.0601   -2.7617   23.2835 H   0  0  0  0  0  0
  -22.4107  -11.9825   22.4763 H   0  0  0  0  0  0
  -21.1094  -13.1200   22.2660 H   0  0  0  0  0  0
  -24.6394  -15.8404   20.5258 H   0  0  0  0  0  0
  -26.2463  -15.6374   20.0519 H   0  0  0  0  0  0
  -26.7316  -32.5290   23.0977 H   0  0  0  0  0  0
  -25.0196  -33.9580   25.0357 H   0  0  0  0  0  0
  -22.7555  -31.2938   21.3783 H   0  0  0  0  0  0
  -23.3748  -35.9541   23.3291 H   0  0  0  0  0  0
  -24.3561  -36.8863   22.2066 H   0  0  0  0  0  0
  -23.7222  -37.6419   23.6686 H   0  0  0  0  0  0
  -26.1725  -31.4645   20.6158 H   0  0  0  0  0  0
  -26.8784  -30.7567   22.0327 H   0  0  0  0  0  0
  -28.1321  -28.7754   21.2375 H   0  0  0  0  0  0
  -25.8709  -25.8535   18.9885 H   0  0  0  0  0  0
  -23.9730  -27.3178   18.9656 H   0  0  0  0  0  0
  -23.8293  -30.5823   19.3976 H   0  0  0  0  0  0
  -22.7914  -29.2569   19.8252 H   0  0  0  0  0  0
  -25.1295  -36.1810   25.0812 H   0  0  0  0  0  0
  -21.0043  -28.3345   24.1339 H   0  0  0  0  0  0
  -20.5720  -26.2356   23.3626 H   0  0  0  0  0  0
  -21.6665  -26.7468   22.1178 H   0  0  0  0  0  0
  -19.6912  -25.6313   21.1265 H   0  0  0  0  0  0
  -19.6697  -27.3226   20.6767 H   0  0  0  0  0  0
  -17.4217  -26.6749   21.4026 H   0  0  0  0  0  0
  -18.0304  -26.0125   22.9025 H   0  0  0  0  0  0
  -19.7978  -30.7320   24.2237 H   0  0  0  0  0  0
  -17.5067  -31.6303   24.5193 H   0  0  0  0  0  0
  -15.5390  -30.3039   23.7698 H   0  0  0  0  0  0
  -15.8696  -28.0877   22.7092 H   0  0  0  0  0  0
  -24.5937  -30.7088   25.7752 H   0  0  0  0  0  0
  -24.8891  -32.2984   26.4686 H   0  0  0  0  0  0
  -25.8021  -30.9090   27.0243 H   0  0  0  0  0  0
  -26.3054  -29.6687   24.1268 H   0  0  0  0  0  0
  -27.3994  -29.7250   25.4876 H   0  0  0  0  0  0
  -27.8972  -30.4188   23.9649 H   0  0  0  0  0  0
  -27.2636  -33.3672   26.1978 H   0  0  0  0  0  0
  -28.3955  -32.6827   25.0405 H   0  0  0  0  0  0
  -28.0625  -31.8518   26.5527 H   0  0  0  0  0  0
  -28.2574  -38.0070   24.7512 H   0  0  0  0  0  0
  -28.1035  -36.2606   24.6296 H   0  0  0  0  0  0
  -27.2274  -37.1409   25.8883 H   0  0  0  0  0  0
  -20.9471  -29.8816   21.6802 H   0  0  0  0  0  0
  -26.0097  -38.2795   24.1462 H   0  0  0  0  0  0
  -30.6592  -25.4513   20.6263 H   0  0  0  0  0  0
  -30.5037  -25.3125   18.8662 H   0  0  0  0  0  0
  -31.9722  -24.7746   19.6775 H   0  0  0  0  0  0
  -32.1395  -19.5879   21.7750 H   0  0  0  0  0  0
  -33.2730  -20.8595   21.3397 H   0  0  0  0  0  0
  -33.5662  -19.2042   20.8130 H   0  0  0  0  0  0
  -24.7053  -21.7129   22.1618 H   0  0  0  0  0  0
  -25.3407  -21.1742   23.7147 H   0  0  0  0  0  0
  -25.2783  -20.0560   22.3585 H   0  0  0  0  0  0
  -26.8336  -20.5246   20.3028 H   0  0  0  0  0  0
  -26.4435  -22.2051   20.2090 H   0  0  0  0  0  0
  -28.2689  -18.8535   19.8596 H   0  0  0  0  0  0
  -28.7996  -18.9800   21.4942 H   0  0  0  0  0  0
  -27.1884  -24.4170   21.0188 H   0  0  0  0  0  0
  -27.3056  -24.3971   19.2889 H   0  0  0  0  0  0
  -32.6885  -20.6983   18.9787 H   0  0  0  0  0  0
  -31.7221  -19.3135   19.1699 H   0  0  0  0  0  0
  -27.6069  -20.8694   22.7078 H   0  0  0  0  0  0
  -27.0828  -22.5285   22.6066 H   0  0  0  0  0  0
  -31.0650  -17.8089   20.7743 H   0  0  0  0  0  0
  -30.3987  -17.6526   19.1739 H   0  0  0  0  0  0
  -28.7878  -15.9829   20.7009 H   0  0  0  0  0  0
  1 25  1  0  0  0
  1 30  2  0  0  0
  1 86  1  0  0  0
  2  3  1  0  0  0
  2 25  1  0  0  0
  2 87  1  0  0  0
  2 88  1  0  0  0
  3  4  1  0  0  0
  3 89  1  0  0  0
  3 90  1  0  0  0
  4  5  1  0  0  0
  4 91  1  0  0  0
  4 92  1  0  0  0
  5  6  1  0  0  0
  5 26  1  0  0  0
  5 93  1  0  0  0
  6 25  1  0  0  0
  6 94  1  0  0  0
  6 95  1  0  0  0
  7  8  2  0  0  0
  7 26  1  0  0  0
  7 29  1  0  0  0
  8  9  1  0  0  0
  8 22  1  0  0  0
  9 10  1  0  0  0
  9 27  2  0  0  0
 10 11  2  0  0  0
 10 15  1  0  0  0
 11 12  1  0  0  0
 11 96  1  0  0  0
 12 13  2  0  0  0
 12 97  1  0  0  0
 13 14  1  0  0  0
 13 31  1  0  0  0
 14 15  2  0  0  0
 14 98  1  0  0  0
 15 99  1  0  0  0
 16 17  2  0  0  0
 16 21  1  0  0  0
 16 31  1  0  0  0
 17 18  1  0  0  0
 17100  1  0  0  0
 18 19  2  0  0  0
 18101  1  0  0  0
 19 20  1  0  0  0
 19 24  1  0  0  0
 20 21  2  0  0  0
 20102  1  0  0  0
 21 23  1  0  0  0
 22 28  1  0  0  0
 22 32  2  0  0  0
 26 27  1  0  0  0
 28103  1  0  0  0
 28104  1  0  0  0
 29105  1  0  0  0
 29106  1  0  0  0
 33 34  1  0  0  0
 33 66  1  0  0  0
 33 70  2  0  0  0
 34 36  1  0  0  0
 34 59  1  0  0  0
 34107  1  0  0  0
 35 44  2  0  0  0
 35 45  1  0  0  0
 35 68  1  0  0  0
 36 56  1  0  0  0
 36108  1  0  0  0
 37 39  1  0  0  0
 37 47  1  0  0  0
 37 66  1  0  0  0
 37109  1  0  0  0
 38 43  2  0  0  0
 38 46  1  0  0  0
 38 47  1  0  0  0
 39 64  1  0  0  0
 39 67  2  0  0  0
 40 52  1  0  0  0
 40 53  2  0  0  0
 40 58  1  0  0  0
 41110  1  0  0  0
 41111  1  0  0  0
 41112  1  0  0  0
 41 48  1  0  0  0
 42 43  1  0  0  0
 42 66  1  0  0  0
 42113  1  0  0  0
 42114  1  0  0  0
 43 44  1  0  0  0
 44115  1  0  0  0
 45 46  2  0  0  0
 45116  1  0  0  0
 46117  1  0  0  0
 47118  1  0  0  0
 47119  1  0  0  0
 48 56  1  0  0  0
 48 65  1  0  0  0
 48120  1  0  0  0
 49 50  1  0  0  0
 49 53  1  0  0  0
 49 64  1  0  0  0
 49121  1  0  0  0
 50 51  1  0  0  0
 50122  1  0  0  0
 50123  1  0  0  0
 51 52  1  0  0  0
 51124  1  0  0  0
 51125  1  0  0  0
 52126  1  0  0  0
 52127  1  0  0  0
 53 54  1  0  0  0
 54 55  2  0  0  0
 54128  1  0  0  0
 55 57  1  0  0  0
 55129  1  0  0  0
 56 69  2  0  0  0
 57 58  2  0  0  0
 57130  1  0  0  0
 58131  1  0  0  0
 59 60  1  0  0  0
 59 61  1  0  0  0
 59 62  1  0  0  0
 60132  1  0  0  0
 60133  1  0  0  0
 60134  1  0  0  0
 61135  1  0  0  0
 61136  1  0  0  0
 61137  1  0  0  0
 62138  1  0  0  0
 62139  1  0  0  0
 62140  1  0  0  0
 63 65  1  0  0  0
 63141  1  0  0  0
 63142  1  0  0  0
 63143  1  0  0  0
 64144  1  0  0  0
 65145  1  0  0  0
 68 81  1  0  0  0
 71 72  2  0  0  0
 71 73  1  0  0  0
 71 79  1  0  0  0
 72 74  1  0  0  0
 72 80  1  0  0  0
 73 75  2  0  0  0
 73 81  1  0  0  0
 74 82  1  0  0  0
 74 85  2  0  0  0
 75 76  1  0  0  0
 75 85  1  0  0  0
 76146  1  0  0  0
 76147  1  0  0  0
 76148  1  0  0  0
 77 82  1  0  0  0
 77149  1  0  0  0
 77150  1  0  0  0
 77151  1  0  0  0
 78 83  1  0  0  0
 78152  1  0  0  0
 78153  1  0  0  0
 78154  1  0  0  0
 79 83  1  0  0  0
 79155  1  0  0  0
 79156  1  0  0  0
 80 84  1  0  0  0
 80157  1  0  0  0
 80158  1  0  0  0
 81159  1  0  0  0
 81160  1  0  0  0
 82161  1  0  0  0
 82162  1  0  0  0
 83163  1  0  0  0
 83164  1  0  0  0
 84 86  1  0  0  0
 84165  1  0  0  0
 84166  1  0  0  0
 86167  1  0  0  0
M  ISO  4   1 100  68 101  81 101  86 100
M  END
> <chiral flag>
0

> <version>
0

> <s_m_source_file>
/data/baiqing/PycharmProjects/Reinvent-master-3.2/result/LINK_invent/BTK/process_docking_weight1_custom_sum_contain_oxygen_bond_distance_aromatic_linkinvent_7_9_3/rearranged_h_0096.sdf

> <i_m_source_file_index>
73

> <r_mmod_Potential_Energy-OPLS-2005>
345.074859619141

> <r_mmod_Stretch_Energy-OPLS-2005>
286.260833740234

> <r_mmod_Bend_Energy-OPLS-2005>
264.451446533203

> <r_mmod_Torsional_Energy-OPLS-2005>
208.049285888672

> <r_mmod_Improper_Torsional_Energy-OPLS-2005>
5.09232950210571

> <r_mmod_Van_der_Waal_Energy-OPLS-2005>
135.784484863281

> <r_mmod_Electrostatic_Energy-OPLS-2005>
-538.316711425781

> <r_mmod_Solvation_Energy-OPLS-2005>
-221.505966186523

> <b_mmod_Minimization_Converged-OPLS-2005>
0

> <r_mmod_RMS_Derivative-OPLS-2005>
2.37753200531006

$$$$
73
                    3D
 Structure written by MMmdl.
163171  0  0  1  0            999 V2000
  -30.6939  -14.5395   20.5160 C   0  0  0  0  0  0
  -30.4369  -12.3386   19.4294 C   0  0  0  0  0  0
  -29.5011  -12.4947   18.2127 C   0  0  0  0  0  0
  -28.0246  -12.3498   18.6316 C   0  0  0  0  0  0
  -27.6618  -13.2145   19.8680 C   0  0  2  0  0  0
  -28.7135  -13.0459   20.9896 C   0  0  0  0  0  0
  -25.2599  -13.8178   20.5695 C   0  0  0  0  0  0
  -24.1854  -13.0456   20.9199 C   0  0  0  0  0  0
  -24.6408  -11.6927   20.8764 C   0  0  0  0  0  0
  -23.9069  -10.4304   21.0420 C   0  0  0  0  0  0
  -24.3617   -9.4218   21.9196 C   0  0  0  0  0  0
  -23.6288   -8.2250   22.0756 C   0  0  0  0  0  0
  -22.4275   -8.0279   21.3541 C   0  0  0  0  0  0
  -21.9916   -9.0271   20.4650 C   0  0  0  0  0  0
  -22.7244  -10.2147   20.3069 C   0  0  0  0  0  0
  -21.6853   -6.0739   22.5269 C   0  0  0  0  0  0
  -21.4007   -6.5642   23.8213 C   0  0  0  0  0  0
  -21.3656   -5.6787   24.9178 C   0  0  0  0  0  0
  -21.6055   -4.3051   24.7221 C   0  0  0  0  0  0
  -21.8815   -3.8149   23.4346 C   0  0  0  0  0  0
  -21.9189   -4.6965   22.3401 C   0  0  0  0  0  0
  -22.7869  -13.5249   21.1854 C   0  0  0  0  0  0
  -22.1664   -4.2143   21.0980 F   0  0  0  0  0  0
  -21.5636   -3.4538   25.7746 F   0  0  0  0  0  0
  -30.0369  -13.3496   20.4187 N   0  0  0  0  0  0
  -26.3052  -12.9367   20.3387 N   0  0  0  0  0  0
  -25.9338  -11.6520   20.5806 N   0  0  0  0  0  0
  -22.0484  -12.8237   22.0381 N   0  0  0  0  0  0
  -25.4348  -15.1903   20.4091 N   0  0  0  0  0  0
  -31.8526  -14.6980   20.1271 O   0  0  0  0  0  0
  -21.6639   -6.8882   21.4234 O   0  0  0  0  0  0
  -22.3557  -14.5556   20.6693 O   0  0  0  0  0  0
  -24.6182  -31.8617   23.2046 C   0  0  0  0  0  0
  -25.9051  -32.4790   23.8363 C   0  0  1  0  0  0
  -27.2324  -27.3903   20.1081 C   0  0  0  0  0  0
  -25.5860  -33.8582   24.2281 N   0  0  0  0  0  0
  -23.4133  -30.4821   21.5424 C   0  0  2  0  0  0
  -24.8607  -28.9412   20.1125 C   0  0  0  0  0  0
  -22.7461  -29.4592   22.4937 C   0  0  0  0  0  0
  -18.0282  -28.1392   22.8460 C   0  0  0  0  0  0
  -24.1488  -36.7324   23.2645 C   0  0  0  0  0  0
  -25.9454  -30.8121   21.3692 C   0  0  0  0  0  0
  -26.0225  -29.4435   20.7175 C   0  0  0  0  0  0
  -27.2147  -28.6758   20.7077 C   0  0  0  0  0  0
  -26.0596  -26.9157   19.4902 C   0  0  0  0  0  0
  -24.8768  -27.6789   19.4924 C   0  0  0  0  0  0
  -23.6263  -29.8147   20.1570 C   0  0  0  0  0  0
  -25.4103  -36.3077   24.0313 C   0  0  1  0  0  0
  -20.5871  -28.3667   23.1286 C   0  0  2  0  0  0
  -20.6767  -26.9397   22.5408 C   0  0  0  0  0  0
  -19.5752  -26.6375   21.5196 C   0  0  0  0  0  0
  -18.1943  -26.7927   22.1607 C   0  0  0  0  0  0
  -19.1524  -28.8857   23.2873 C   0  0  0  0  0  0
  -18.9459  -30.1449   23.8894 C   0  0  0  0  0  0
  -17.6469  -30.6587   24.0573 C   0  0  0  0  0  0
  -25.9022  -34.9444   23.5111 C   0  0  0  0  0  0
  -16.5350  -29.9082   23.6334 C   0  0  0  0  0  0
  -16.7274  -28.6514   23.0329 C   0  0  0  0  0  0
  -26.4456  -31.6605   25.0725 C   0  0  0  0  0  0
  -25.3723  -31.3694   26.1490 C   0  0  0  0  0  0
  -27.0335  -30.3059   24.6125 C   0  0  0  0  0  0
  -27.6008  -32.4357   25.7484 C   0  0  0  0  0  0
  -27.5583  -37.1782   24.8443 C   0  0  0  0  0  0
  -21.4168  -29.3014   22.3690 N   0  0  0  0  0  0
  -26.4295  -37.3765   23.9398 N   0  0  0  0  0  0
  -24.6766  -31.0676   22.0971 N   0  0  0  0  0  0
  -23.4201  -28.8126   23.3003 O   0  0  0  0  0  0
  -28.3735  -26.6134   20.0885 O   0  0  0  0  0  0
  -26.5638  -34.8907   22.4713 O   0  0  0  0  0  0
  -23.5376  -32.1377   23.7425 O   0  0  0  0  0  0
  -29.1768  -23.1047   20.2895 C   0  0  0  0  0  0
  -28.8022  -21.8153   19.8456 C   0  0  0  0  0  0
  -28.1564  -24.0808   20.4314 C   0  0  0  0  0  0
  -26.6207  -22.5154   19.7553 C   0  0  0  0  0  0
  -25.1672  -22.1719   19.5095 C   0  0  0  0  0  0
  -31.4617  -18.1802   19.1691 C   0  0  0  0  0  0
  -29.0837  -17.4451   18.8823 C   0  0  0  0  0  0
  -29.7871  -20.6654   19.5509 C   0  0  0  0  0  0
  -28.3983  -25.4951   21.0113 C   0  0  0  0  0  0
  -29.6066  -19.3925   20.4429 C   0  0  0  0  0  0
  -30.3140  -17.0023   21.1052 C   0  0  0  0  0  0
  -30.1114  -18.0002   19.8992 C   0  0  0  0  0  0
  -27.5108  -21.5477   19.5771 N   0  0  0  0  0  0
  -26.8783  -23.7532   20.1601 N   0  0  0  0  0  0
  -29.9373  -15.5832   20.9089 N   0  0  0  0  0  0
  -31.4777  -12.4485   19.1205 H   0  0  0  0  0  0
  -30.3580  -11.3403   19.8613 H   0  0  0  0  0  0
  -29.7468  -11.7533   17.4512 H   0  0  0  0  0  0
  -29.6576  -13.4717   17.7525 H   0  0  0  0  0  0
  -27.8459  -11.2979   18.8550 H   0  0  0  0  0  0
  -27.3692  -12.5988   17.7970 H   0  0  0  0  0  0
  -27.6905  -14.2538   19.5383 H   0  0  0  0  0  0
  -28.7051  -12.0253   21.3772 H   0  0  0  0  0  0
  -28.4794  -13.6870   21.8424 H   0  0  0  0  0  0
  -25.2753   -9.5697   22.4783 H   0  0  0  0  0  0
  -24.0003   -7.4644   22.7474 H   0  0  0  0  0  0
  -21.0849   -8.8791   19.8953 H   0  0  0  0  0  0
  -22.3696  -10.9701   19.6187 H   0  0  0  0  0  0
  -21.1985   -7.6143   23.9708 H   0  0  0  0  0  0
  -21.1490   -6.0525   25.9079 H   0  0  0  0  0  0
  -22.0592   -2.7602   23.2849 H   0  0  0  0  0  0
  -22.4071  -11.9886   22.4772 H   0  0  0  0  0  0
  -21.1106  -13.1282   22.2579 H   0  0  0  0  0  0
  -24.6722  -15.8514   20.5089 H   0  0  0  0  0  0
  -26.2879  -15.6191   20.0733 H   0  0  0  0  0  0
  -26.7126  -32.5502   23.1125 H   0  0  0  0  0  0
  -24.9868  -33.9696   25.0334 H   0  0  0  0  0  0
  -22.7046  -31.3002   21.4011 H   0  0  0  0  0  0
  -23.3718  -35.9688   23.3276 H   0  0  0  0  0  0
  -24.3572  -36.8988   22.2071 H   0  0  0  0  0  0
  -23.7275  -37.6513   23.6723 H   0  0  0  0  0  0
  -26.0693  -31.5792   20.6041 H   0  0  0  0  0  0
  -26.8274  -30.8626   21.9947 H   0  0  0  0  0  0
  -28.1176  -29.0533   21.1662 H   0  0  0  0  0  0
  -26.0589  -25.9564   18.9932 H   0  0  0  0  0  0
  -23.9892  -27.2956   19.0044 H   0  0  0  0  0  0
  -23.7430  -30.5893   19.3986 H   0  0  0  0  0  0
  -22.7531  -29.2344   19.8556 H   0  0  0  0  0  0
  -25.1297  -36.1924   25.0796 H   0  0  0  0  0  0
  -20.9965  -28.3269   24.1404 H   0  0  0  0  0  0
  -20.5716  -26.2265   23.3607 H   0  0  0  0  0  0
  -21.6641  -26.7486   22.1189 H   0  0  0  0  0  0
  -19.6936  -25.6294   21.1223 H   0  0  0  0  0  0
  -19.6697  -27.3176   20.6735 H   0  0  0  0  0  0
  -17.4200  -26.6638   21.4006 H   0  0  0  0  0  0
  -18.0353  -26.0094   22.9043 H   0  0  0  0  0  0
  -19.7955  -30.7248   24.2243 H   0  0  0  0  0  0
  -17.5042  -31.6273   24.5208 H   0  0  0  0  0  0
  -15.5343  -30.3005   23.7686 H   0  0  0  0  0  0
  -15.8657  -28.0865   22.7001 H   0  0  0  0  0  0
  -24.5887  -30.7056   25.7821 H   0  0  0  0  0  0
  -24.8929  -32.2843   26.4987 H   0  0  0  0  0  0
  -25.8089  -30.8842   27.0231 H   0  0  0  0  0  0
  -26.2870  -29.6729   24.1318 H   0  0  0  0  0  0
  -27.4252  -29.7391   25.4575 H   0  0  0  0  0  0
  -27.8635  -30.4366   23.9174 H   0  0  0  0  0  0
  -27.2594  -33.3655   26.2048 H   0  0  0  0  0  0
  -28.3805  -32.6912   25.0300 H   0  0  0  0  0  0
  -28.0691  -31.8510   26.5409 H   0  0  0  0  0  0
  -28.2556  -38.0133   24.7568 H   0  0  0  0  0  0
  -28.1128  -36.2657   24.6193 H   0  0  0  0  0  0
  -27.2303  -37.1334   25.8846 H   0  0  0  0  0  0
  -20.9381  -29.8762   21.6892 H   0  0  0  0  0  0
  -26.0176  -38.2819   24.1436 H   0  0  0  0  0  0
  -30.2079  -23.3453   20.5111 H   0  0  0  0  0  0
  -25.0319  -21.1075   19.3179 H   0  0  0  0  0  0
  -24.7788  -22.7216   18.6529 H   0  0  0  0  0  0
  -24.5699  -22.4337   20.3834 H   0  0  0  0  0  0
  -31.3543  -18.7350   18.2357 H   0  0  0  0  0  0
  -31.9079  -17.2201   18.9092 H   0  0  0  0  0  0
  -32.1841  -18.7184   19.7846 H   0  0  0  0  0  0
  -28.8511  -18.1700   18.1003 H   0  0  0  0  0  0
  -28.1407  -17.1808   19.3640 H   0  0  0  0  0  0
  -29.4591  -16.5510   18.3815 H   0  0  0  0  0  0
  -30.8110  -21.0318   19.6432 H   0  0  0  0  0  0
  -29.6592  -20.4010   18.5003 H   0  0  0  0  0  0
  -29.3655  -25.5011   21.5164 H   0  0  0  0  0  0
  -27.6678  -25.6531   21.8077 H   0  0  0  0  0  0
  -28.5419  -19.2782   20.6508 H   0  0  0  0  0  0
  -30.0592  -19.6144   21.4111 H   0  0  0  0  0  0
  -29.6998  -17.3387   21.9422 H   0  0  0  0  0  0
  -31.3372  -17.0602   21.4820 H   0  0  0  0  0  0
  -28.9878  -15.3478   21.1536 H   0  0  0  0  0  0
  1 25  1  0  0  0
  1 30  2  0  0  0
  1 85  1  0  0  0
  2  3  1  0  0  0
  2 25  1  0  0  0
  2 86  1  0  0  0
  2 87  1  0  0  0
  3  4  1  0  0  0
  3 88  1  0  0  0
  3 89  1  0  0  0
  4  5  1  0  0  0
  4 90  1  0  0  0
  4 91  1  0  0  0
  5  6  1  0  0  0
  5 26  1  0  0  0
  5 92  1  0  0  0
  6 25  1  0  0  0
  6 93  1  0  0  0
  6 94  1  0  0  0
  7  8  2  0  0  0
  7 26  1  0  0  0
  7 29  1  0  0  0
  8  9  1  0  0  0
  8 22  1  0  0  0
  9 10  1  0  0  0
  9 27  2  0  0  0
 10 11  2  0  0  0
 10 15  1  0  0  0
 11 12  1  0  0  0
 11 95  1  0  0  0
 12 13  2  0  0  0
 12 96  1  0  0  0
 13 14  1  0  0  0
 13 31  1  0  0  0
 14 15  2  0  0  0
 14 97  1  0  0  0
 15 98  1  0  0  0
 16 17  2  0  0  0
 16 21  1  0  0  0
 16 31  1  0  0  0
 17 18  1  0  0  0
 17 99  1  0  0  0
 18 19  2  0  0  0
 18100  1  0  0  0
 19 20  1  0  0  0
 19 24  1  0  0  0
 20 21  2  0  0  0
 20101  1  0  0  0
 21 23  1  0  0  0
 22 28  1  0  0  0
 22 32  2  0  0  0
 26 27  1  0  0  0
 28102  1  0  0  0
 28103  1  0  0  0
 29104  1  0  0  0
 29105  1  0  0  0
 33 34  1  0  0  0
 33 66  1  0  0  0
 33 70  2  0  0  0
 34 36  1  0  0  0
 34 59  1  0  0  0
 34106  1  0  0  0
 35 44  2  0  0  0
 35 45  1  0  0  0
 35 68  1  0  0  0
 36 56  1  0  0  0
 36107  1  0  0  0
 37 39  1  0  0  0
 37 47  1  0  0  0
 37 66  1  0  0  0
 37108  1  0  0  0
 38 43  2  0  0  0
 38 46  1  0  0  0
 38 47  1  0  0  0
 39 64  1  0  0  0
 39 67  2  0  0  0
 40 52  1  0  0  0
 40 53  2  0  0  0
 40 58  1  0  0  0
 41109  1  0  0  0
 41110  1  0  0  0
 41111  1  0  0  0
 41 48  1  0  0  0
 42 43  1  0  0  0
 42 66  1  0  0  0
 42112  1  0  0  0
 42113  1  0  0  0
 43 44  1  0  0  0
 44114  1  0  0  0
 45 46  2  0  0  0
 45115  1  0  0  0
 46116  1  0  0  0
 47117  1  0  0  0
 47118  1  0  0  0
 48 56  1  0  0  0
 48 65  1  0  0  0
 48119  1  0  0  0
 49 50  1  0  0  0
 49 53  1  0  0  0
 49 64  1  0  0  0
 49120  1  0  0  0
 50 51  1  0  0  0
 50121  1  0  0  0
 50122  1  0  0  0
 51 52  1  0  0  0
 51123  1  0  0  0
 51124  1  0  0  0
 52125  1  0  0  0
 52126  1  0  0  0
 53 54  1  0  0  0
 54 55  2  0  0  0
 54127  1  0  0  0
 55 57  1  0  0  0
 55128  1  0  0  0
 56 69  2  0  0  0
 57 58  2  0  0  0
 57129  1  0  0  0
 58130  1  0  0  0
 59 60  1  0  0  0
 59 61  1  0  0  0
 59 62  1  0  0  0
 60131  1  0  0  0
 60132  1  0  0  0
 60133  1  0  0  0
 61134  1  0  0  0
 61135  1  0  0  0
 61136  1  0  0  0
 62137  1  0  0  0
 62138  1  0  0  0
 62139  1  0  0  0
 63 65  1  0  0  0
 63140  1  0  0  0
 63141  1  0  0  0
 63142  1  0  0  0
 64143  1  0  0  0
 65144  1  0  0  0
 68 79  1  0  0  0
 71 72  2  0  0  0
 71 73  1  0  0  0
 71145  1  0  0  0
 72 78  1  0  0  0
 72 83  1  0  0  0
 73 79  1  0  0  0
 73 84  2  0  0  0
 74 75  1  0  0  0
 74 83  2  0  0  0
 74 84  1  0  0  0
 75146  1  0  0  0
 75147  1  0  0  0
 75148  1  0  0  0
 76149  1  0  0  0
 76150  1  0  0  0
 76151  1  0  0  0
 76 82  1  0  0  0
 77 82  1  0  0  0
 77152  1  0  0  0
 77153  1  0  0  0
 77154  1  0  0  0
 78 80  1  0  0  0
 78155  1  0  0  0
 78156  1  0  0  0
 79157  1  0  0  0
 79158  1  0  0  0
 80 82  1  0  0  0
 80159  1  0  0  0
 80160  1  0  0  0
 81 82  1  0  0  0
 81 85  1  0  0  0
 81161  1  0  0  0
 81162  1  0  0  0
 85163  1  0  0  0
M  ISO  4   1 100  68 101  79 101  85 100
M  END
> <chiral flag>
0

> <version>
0

> <s_m_source_file>
/data/baiqing/PycharmProjects/Reinvent-master-3.2/result/LINK_invent/BTK/process_docking_weight1_custom_sum_contain_oxygen_bond_distance_aromatic_linkinvent_7_9_3/rearranged_h_0096.sdf

> <i_m_source_file_index>
74

> <r_mmod_Potential_Energy-OPLS-2005>
-466.192993164062

> <r_mmod_Stretch_Energy-OPLS-2005>
47.1863250732422

> <r_mmod_Bend_Energy-OPLS-2005>
115.276588439941

> <r_mmod_Torsional_Energy-OPLS-2005>
253.974472045898

> <r_mmod_Improper_Torsional_Energy-OPLS-2005>
4.12659597396851

> <r_mmod_Van_der_Waal_Energy-OPLS-2005>
148.692428588867

> <r_mmod_Electrostatic_Energy-OPLS-2005>
-836.676330566406

> <r_mmod_Solvation_Energy-OPLS-2005>
-222.088851928711

> <b_mmod_Minimization_Converged-OPLS-2005>
0

> <r_mmod_RMS_Derivative-OPLS-2005>
4.18797254562378

$$$$
74
                    3D
 Structure written by MMmdl.
169177  0  0  1  0            999 V2000
  -30.6490  -14.5698   20.5325 C   0  0  0  0  0  0
  -30.4342  -12.3575   19.4287 C   0  0  0  0  0  0
  -29.5029  -12.5062   18.2071 C   0  0  0  0  0  0
  -28.0250  -12.3521   18.6213 C   0  0  0  0  0  0
  -27.6562  -13.2100   19.8622 C   0  0  2  0  0  0
  -28.7006  -13.0276   20.9852 C   0  0  0  0  0  0
  -25.2584  -13.8163   20.5672 C   0  0  0  0  0  0
  -24.1841  -13.0440   20.9185 C   0  0  0  0  0  0
  -24.6387  -11.6904   20.8718 C   0  0  0  0  0  0
  -23.9045  -10.4299   21.0379 C   0  0  0  0  0  0
  -24.3604   -9.4220   21.9159 C   0  0  0  0  0  0
  -23.6291   -8.2250   22.0737 C   0  0  0  0  0  0
  -22.4275   -8.0275   21.3532 C   0  0  0  0  0  0
  -21.9900   -9.0238   20.4635 C   0  0  0  0  0  0
  -22.7213  -10.2128   20.3038 C   0  0  0  0  0  0
  -21.6857   -6.0723   22.5278 C   0  0  0  0  0  0
  -21.4010   -6.5630   23.8209 C   0  0  0  0  0  0
  -21.3672   -5.6784   24.9172 C   0  0  0  0  0  0
  -21.6051   -4.3048   24.7223 C   0  0  0  0  0  0
  -21.8826   -3.8141   23.4344 C   0  0  0  0  0  0
  -21.9198   -4.6953   22.3397 C   0  0  0  0  0  0
  -22.7863  -13.5232   21.1853 C   0  0  0  0  0  0
  -22.1663   -4.2137   21.0975 F   0  0  0  0  0  0
  -21.5637   -3.4533   25.7736 F   0  0  0  0  0  0
  -30.0201  -13.3622   20.4243 N   0  0  0  0  0  0
  -26.3004  -12.9326   20.3296 N   0  0  0  0  0  0
  -25.9315  -11.6485   20.5721 N   0  0  0  0  0  0
  -22.0497  -12.8230   22.0413 N   0  0  0  0  0  0
  -25.4326  -15.1886   20.4101 N   0  0  0  0  0  0
  -31.8017  -14.7405   20.1275 O   0  0  0  0  0  0
  -21.6650   -6.8864   21.4236 O   0  0  0  0  0  0
  -22.3535  -14.5534   20.6708 O   0  0  0  0  0  0
  -24.6197  -31.8620   23.2051 C   0  0  0  0  0  0
  -25.9056  -32.4803   23.8364 C   0  0  1  0  0  0
  -27.2367  -27.3564   20.0965 C   0  0  0  0  0  0
  -25.5888  -33.8604   24.2292 N   0  0  0  0  0  0
  -23.4128  -30.4825   21.5485 C   0  0  2  0  0  0
  -24.8597  -28.9352   20.1171 C   0  0  0  0  0  0
  -22.7441  -29.4625   22.4985 C   0  0  0  0  0  0
  -18.0285  -28.1373   22.8501 C   0  0  0  0  0  0
  -24.1494  -36.7284   23.2642 C   0  0  0  0  0  0
  -25.9490  -30.7996   21.3736 C   0  0  0  0  0  0
  -26.0242  -29.4296   20.7147 C   0  0  0  0  0  0
  -27.2108  -28.6495   20.6956 C   0  0  0  0  0  0
  -26.0434  -26.8928   19.4959 C   0  0  0  0  0  0
  -24.8678  -27.6718   19.5044 C   0  0  0  0  0  0
  -23.6250  -29.8083   20.1671 C   0  0  0  0  0  0
  -25.4127  -36.3100   24.0334 C   0  0  1  0  0  0
  -20.5875  -28.3657   23.1302 C   0  0  2  0  0  0
  -20.6764  -26.9389   22.5408 C   0  0  0  0  0  0
  -19.5750  -26.6375   21.5199 C   0  0  0  0  0  0
  -18.1935  -26.7923   22.1621 C   0  0  0  0  0  0
  -19.1533  -28.8835   23.2902 C   0  0  0  0  0  0
  -18.9454  -30.1443   23.8911 C   0  0  0  0  0  0
  -17.6454  -30.6581   24.0552 C   0  0  0  0  0  0
  -25.9039  -34.9463   23.5112 C   0  0  0  0  0  0
  -16.5347  -29.9073   23.6335 C   0  0  0  0  0  0
  -16.7270  -28.6486   23.0370 C   0  0  0  0  0  0
  -26.4461  -31.6618   25.0725 C   0  0  0  0  0  0
  -25.3690  -31.3726   26.1441 C   0  0  0  0  0  0
  -27.0298  -30.3068   24.6136 C   0  0  0  0  0  0
  -27.6057  -32.4331   25.7463 C   0  0  0  0  0  0
  -27.5596  -37.1808   24.8468 C   0  0  0  0  0  0
  -21.4164  -29.3019   22.3710 N   0  0  0  0  0  0
  -26.4318  -37.3789   23.9396 N   0  0  0  0  0  0
  -24.6792  -31.0635   22.1003 N   0  0  0  0  0  0
  -23.4178  -28.8169   23.3053 O   0  0  0  0  0  0
  -28.4177  -26.6129   20.1252 O   0  0  0  0  0  0
  -26.5606  -34.8909   22.4677 O   0  0  0  0  0  0
  -23.5371  -32.1403   23.7402 O   0  0  0  0  0  0
  -29.4042  -17.7871   18.9290 C   0  0  0  0  0  0
  -28.9165  -18.7530   18.0267 C   0  0  0  0  0  0
  -29.3030  -19.4521   20.7053 C   0  0  0  0  0  0
  -29.5998  -18.1107   20.2862 C   0  0  0  0  0  0
  -28.6018  -20.0636   18.4515 C   0  0  0  0  0  0
  -28.7935  -20.4404   19.8046 C   0  0  0  0  0  0
  -31.5805  -17.3266   21.6994 C   0  0  0  0  0  0
  -30.1535  -21.1728   15.9987 C   0  0  0  0  0  0
  -28.4163  -23.0151   15.8793 C   0  0  0  0  0  0
  -28.0251  -21.0482   17.4389 C   0  0  0  0  0  0
  -28.6809  -24.1598   20.8314 C   0  0  0  0  0  0
  -28.5253  -25.2180   19.6806 C   0  0  0  0  0  0
  -29.2952  -22.7384   20.5039 C   0  0  0  0  0  0
  -30.1283  -17.0374   21.2811 C   0  0  2  0  0  0
  -29.0819  -21.9583   16.7733 C   0  0  0  0  0  0
  -29.8677  -15.5949   20.9739 N   0  0  0  0  0  0
  -28.3396  -21.6970   20.2139 O   0  0  0  0  0  0
  -31.4767  -12.4743   19.1271 H   0  0  0  0  0  0
  -30.3554  -11.3529   19.8463 H   0  0  0  0  0  0
  -29.7562  -11.7675   17.4463 H   0  0  0  0  0  0
  -29.6555  -13.4832   17.7457 H   0  0  0  0  0  0
  -27.8519  -11.2978   18.8366 H   0  0  0  0  0  0
  -27.3736  -12.6000   17.7826 H   0  0  0  0  0  0
  -27.6851  -14.2523   19.5425 H   0  0  0  0  0  0
  -28.7002  -11.9962   21.3398 H   0  0  0  0  0  0
  -28.4523  -13.6338   21.8573 H   0  0  0  0  0  0
  -25.2743   -9.5722   22.4727 H   0  0  0  0  0  0
  -24.0022   -7.4649   22.7455 H   0  0  0  0  0  0
  -21.0829   -8.8738   19.8937 H   0  0  0  0  0  0
  -22.3647  -10.9657   19.6154 H   0  0  0  0  0  0
  -21.1987   -7.6136   23.9709 H   0  0  0  0  0  0
  -21.1491   -6.0508   25.9073 H   0  0  0  0  0  0
  -22.0593   -2.7599   23.2845 H   0  0  0  0  0  0
  -22.4116  -11.9909   22.4829 H   0  0  0  0  0  0
  -21.1102  -13.1238   22.2583 H   0  0  0  0  0  0
  -24.6669  -15.8453   20.5216 H   0  0  0  0  0  0
  -26.2799  -15.6245   20.0688 H   0  0  0  0  0  0
  -26.7105  -32.5472   23.1093 H   0  0  0  0  0  0
  -25.0050  -33.9759   25.0447 H   0  0  0  0  0  0
  -22.7060  -31.3024   21.4029 H   0  0  0  0  0  0
  -23.3780  -35.9593   23.3316 H   0  0  0  0  0  0
  -24.3580  -36.8889   22.2052 H   0  0  0  0  0  0
  -23.7219  -37.6482   23.6643 H   0  0  0  0  0  0
  -26.0728  -31.5679   20.6098 H   0  0  0  0  0  0
  -26.8328  -30.8484   21.9992 H   0  0  0  0  0  0
  -28.1105  -29.0292   21.1598 H   0  0  0  0  0  0
  -25.9820  -25.9271   19.0207 H   0  0  0  0  0  0
  -23.9694  -27.2888   19.0403 H   0  0  0  0  0  0
  -23.7337  -30.5757   19.4012 H   0  0  0  0  0  0
  -22.7501  -29.2257   19.8752 H   0  0  0  0  0  0
  -25.1322  -36.1969   25.0837 H   0  0  0  0  0  0
  -20.9968  -28.3187   24.1416 H   0  0  0  0  0  0
  -20.5643  -26.2253   23.3590 H   0  0  0  0  0  0
  -21.6635  -26.7416   22.1206 H   0  0  0  0  0  0
  -19.6903  -25.6279   21.1241 H   0  0  0  0  0  0
  -19.6690  -27.3170   20.6714 H   0  0  0  0  0  0
  -17.4202  -26.6678   21.4026 H   0  0  0  0  0  0
  -18.0340  -26.0051   22.9003 H   0  0  0  0  0  0
  -19.7922  -30.7263   24.2289 H   0  0  0  0  0  0
  -17.5002  -31.6268   24.5128 H   0  0  0  0  0  0
  -15.5347  -30.2973   23.7650 H   0  0  0  0  0  0
  -15.8673  -28.0791   22.7102 H   0  0  0  0  0  0
  -24.5863  -30.7100   25.7718 H   0  0  0  0  0  0
  -24.8866  -32.2874   26.4895 H   0  0  0  0  0  0
  -25.7986  -30.8849   27.0198 H   0  0  0  0  0  0
  -26.2849  -29.6843   24.1169 H   0  0  0  0  0  0
  -27.4036  -29.7307   25.4606 H   0  0  0  0  0  0
  -27.8693  -30.4402   23.9314 H   0  0  0  0  0  0
  -27.2727  -33.3638   26.2062 H   0  0  0  0  0  0
  -28.3836  -32.6889   25.0255 H   0  0  0  0  0  0
  -28.0754  -31.8444   26.5350 H   0  0  0  0  0  0
  -28.2636  -38.0090   24.7532 H   0  0  0  0  0  0
  -28.1087  -36.2632   24.6307 H   0  0  0  0  0  0
  -27.2298  -37.1451   25.8867 H   0  0  0  0  0  0
  -20.9345  -29.8696   21.6883 H   0  0  0  0  0  0
  -26.0215  -38.2872   24.1405 H   0  0  0  0  0  0
  -29.6260  -16.7927   18.5660 H   0  0  0  0  0  0
  -28.7756  -18.4746   16.9908 H   0  0  0  0  0  0
  -29.4328  -19.7161   21.7449 H   0  0  0  0  0  0
  -31.6703  -18.3227   22.1335 H   0  0  0  0  0  0
  -32.2575  -17.2842   20.8466 H   0  0  0  0  0  0
  -31.9309  -16.6153   22.4491 H   0  0  0  0  0  0
  -30.8888  -21.8442   15.5528 H   0  0  0  0  0  0
  -29.7160  -20.5785   15.1962 H   0  0  0  0  0  0
  -30.7017  -20.4961   16.6539 H   0  0  0  0  0  0
  -29.1556  -23.6923   15.4496 H   0  0  0  0  0  0
  -27.7109  -23.6227   16.4474 H   0  0  0  0  0  0
  -27.8696  -22.5577   15.0534 H   0  0  0  0  0  0
  -27.2735  -21.6637   17.9345 H   0  0  0  0  0  0
  -27.4791  -20.4960   16.6714 H   0  0  0  0  0  0
  -27.7383  -24.0470   21.3675 H   0  0  0  0  0  0
  -29.3585  -24.6164   21.5537 H   0  0  0  0  0  0
  -27.7644  -24.9045   18.9701 H   0  0  0  0  0  0
  -29.4501  -25.1872   19.1036 H   0  0  0  0  0  0
  -29.8506  -22.4041   21.3818 H   0  0  0  0  0  0
  -30.0361  -22.8196   19.7101 H   0  0  0  0  0  0
  -29.5282  -17.1954   22.1782 H   0  0  0  0  0  0
  -29.5954  -22.5026   17.5626 H   0  0  0  0  0  0
  -28.9304  -15.3007   21.2020 H   0  0  0  0  0  0
  1 25  1  0  0  0
  1 30  2  0  0  0
  1 86  1  0  0  0
  2  3  1  0  0  0
  2 25  1  0  0  0
  2 88  1  0  0  0
  2 89  1  0  0  0
  3  4  1  0  0  0
  3 90  1  0  0  0
  3 91  1  0  0  0
  4  5  1  0  0  0
  4 92  1  0  0  0
  4 93  1  0  0  0
  5  6  1  0  0  0
  5 26  1  0  0  0
  5 94  1  0  0  0
  6 25  1  0  0  0
  6 95  1  0  0  0
  6 96  1  0  0  0
  7  8  2  0  0  0
  7 26  1  0  0  0
  7 29  1  0  0  0
  8  9  1  0  0  0
  8 22  1  0  0  0
  9 10  1  0  0  0
  9 27  2  0  0  0
 10 11  2  0  0  0
 10 15  1  0  0  0
 11 12  1  0  0  0
 11 97  1  0  0  0
 12 13  2  0  0  0
 12 98  1  0  0  0
 13 14  1  0  0  0
 13 31  1  0  0  0
 14 15  2  0  0  0
 14 99  1  0  0  0
 15100  1  0  0  0
 16 17  2  0  0  0
 16 21  1  0  0  0
 16 31  1  0  0  0
 17 18  1  0  0  0
 17101  1  0  0  0
 18 19  2  0  0  0
 18102  1  0  0  0
 19 20  1  0  0  0
 19 24  1  0  0  0
 20 21  2  0  0  0
 20103  1  0  0  0
 21 23  1  0  0  0
 22 28  1  0  0  0
 22 32  2  0  0  0
 26 27  1  0  0  0
 28104  1  0  0  0
 28105  1  0  0  0
 29106  1  0  0  0
 29107  1  0  0  0
 33 34  1  0  0  0
 33 66  1  0  0  0
 33 70  2  0  0  0
 34 36  1  0  0  0
 34 59  1  0  0  0
 34108  1  0  0  0
 35 44  2  0  0  0
 35 45  1  0  0  0
 35 68  1  0  0  0
 36 56  1  0  0  0
 36109  1  0  0  0
 37 39  1  0  0  0
 37 47  1  0  0  0
 37 66  1  0  0  0
 37110  1  0  0  0
 38 43  2  0  0  0
 38 46  1  0  0  0
 38 47  1  0  0  0
 39 64  1  0  0  0
 39 67  2  0  0  0
 40 52  1  0  0  0
 40 53  2  0  0  0
 40 58  1  0  0  0
 41111  1  0  0  0
 41112  1  0  0  0
 41113  1  0  0  0
 41 48  1  0  0  0
 42 43  1  0  0  0
 42 66  1  0  0  0
 42114  1  0  0  0
 42115  1  0  0  0
 43 44  1  0  0  0
 44116  1  0  0  0
 45 46  2  0  0  0
 45117  1  0  0  0
 46118  1  0  0  0
 47119  1  0  0  0
 47120  1  0  0  0
 48 56  1  0  0  0
 48 65  1  0  0  0
 48121  1  0  0  0
 49 50  1  0  0  0
 49 53  1  0  0  0
 49 64  1  0  0  0
 49122  1  0  0  0
 50 51  1  0  0  0
 50123  1  0  0  0
 50124  1  0  0  0
 51 52  1  0  0  0
 51125  1  0  0  0
 51126  1  0  0  0
 52127  1  0  0  0
 52128  1  0  0  0
 53 54  1  0  0  0
 54 55  2  0  0  0
 54129  1  0  0  0
 55 57  1  0  0  0
 55130  1  0  0  0
 56 69  2  0  0  0
 57 58  2  0  0  0
 57131  1  0  0  0
 58132  1  0  0  0
 59 60  1  0  0  0
 59 61  1  0  0  0
 59 62  1  0  0  0
 60133  1  0  0  0
 60134  1  0  0  0
 60135  1  0  0  0
 61136  1  0  0  0
 61137  1  0  0  0
 61138  1  0  0  0
 62139  1  0  0  0
 62140  1  0  0  0
 62141  1  0  0  0
 63 65  1  0  0  0
 63142  1  0  0  0
 63143  1  0  0  0
 63144  1  0  0  0
 64145  1  0  0  0
 65146  1  0  0  0
 68 82  1  0  0  0
 71 72  2  0  0  0
 71 74  1  0  0  0
 71147  1  0  0  0
 72 75  1  0  0  0
 72148  1  0  0  0
 73 74  2  0  0  0
 73 76  1  0  0  0
 73149  1  0  0  0
 74 84  1  0  0  0
 75 76  2  0  0  0
 75 80  1  0  0  0
 76 87  1  0  0  0
 77150  1  0  0  0
 77151  1  0  0  0
 77152  1  0  0  0
 77 84  1  0  0  0
 78153  1  0  0  0
 78154  1  0  0  0
 78155  1  0  0  0
 78 85  1  0  0  0
 79 85  1  0  0  0
 79156  1  0  0  0
 79157  1  0  0  0
 79158  1  0  0  0
 80 85  1  0  0  0
 80159  1  0  0  0
 80160  1  0  0  0
 81 82  1  0  0  0
 81 83  1  0  0  0
 81161  1  0  0  0
 81162  1  0  0  0
 82163  1  0  0  0
 82164  1  0  0  0
 83 87  1  0  0  0
 83165  1  0  0  0
 83166  1  0  0  0
 84 86  1  0  0  0
 84167  1  0  0  0
 85168  1  0  0  0
 86169  1  0  0  0
M  ISO  4   1 100  68 101  82 101  86 100
M  END
> <chiral flag>
0

> <version>
0

> <s_m_source_file>
/data/baiqing/PycharmProjects/Reinvent-master-3.2/result/LINK_invent/BTK/process_docking_weight1_custom_sum_contain_oxygen_bond_distance_aromatic_linkinvent_7_9_3/rearranged_h_0096.sdf

> <i_m_source_file_index>
75

> <r_mmod_Potential_Energy-OPLS-2005>
-18.8706130981445

> <r_mmod_Stretch_Energy-OPLS-2005>
61.4653701782227

> <r_mmod_Bend_Energy-OPLS-2005>
146.930236816406

> <r_mmod_Torsional_Energy-OPLS-2005>
225.078170776367

> <r_mmod_Improper_Torsional_Energy-OPLS-2005>
3.95182609558105

> <r_mmod_Van_der_Waal_Energy-OPLS-2005>
134.485061645508

> <r_mmod_Electrostatic_Energy-OPLS-2005>
-416.617767333984

> <r_mmod_Solvation_Energy-OPLS-2005>
-202.594345092773

> <b_mmod_Minimization_Converged-OPLS-2005>
0

> <r_mmod_RMS_Derivative-OPLS-2005>
2.10061502456665

$$$$
75
                    3D
 Structure written by MMmdl.
178186  0  0  1  0            999 V2000
  -30.6827  -14.5653   20.5580 C   0  0  0  0  0  0
  -30.4226  -12.3579   19.4780 C   0  0  0  0  0  0
  -29.5130  -12.5263   18.2433 C   0  0  0  0  0  0
  -28.0421  -12.3390   18.6530 C   0  0  0  0  0  0
  -27.6613  -13.2134   19.8804 C   0  0  2  0  0  0
  -28.6976  -13.0515   21.0193 C   0  0  0  0  0  0
  -25.2628  -13.8142   20.5693 C   0  0  0  0  0  0
  -24.1817  -13.0422   20.9105 C   0  0  0  0  0  0
  -24.6363  -11.6893   20.8674 C   0  0  0  0  0  0
  -23.9024  -10.4272   21.0427 C   0  0  0  0  0  0
  -24.3581   -9.4176   21.9167 C   0  0  0  0  0  0
  -23.6244   -8.2207   22.0775 C   0  0  0  0  0  0
  -22.4219   -8.0251   21.3559 C   0  0  0  0  0  0
  -21.9835   -9.0232   20.4625 C   0  0  0  0  0  0
  -22.7192  -10.2111   20.3056 C   0  0  0  0  0  0
  -21.6844   -6.0714   22.5282 C   0  0  0  0  0  0
  -21.3996   -6.5612   23.8198 C   0  0  0  0  0  0
  -21.3665   -5.6758   24.9147 C   0  0  0  0  0  0
  -21.6052   -4.3044   24.7220 C   0  0  0  0  0  0
  -21.8794   -3.8138   23.4339 C   0  0  0  0  0  0
  -21.9133   -4.6927   22.3381 C   0  0  0  0  0  0
  -22.7850  -13.5296   21.1746 C   0  0  0  0  0  0
  -22.1610   -4.2122   21.0969 F   0  0  0  0  0  0
  -21.5668   -3.4530   25.7752 F   0  0  0  0  0  0
  -30.0238  -13.3697   20.4693 N   0  0  0  0  0  0
  -26.3008  -12.9282   20.3349 N   0  0  0  0  0  0
  -25.9315  -11.6409   20.5747 N   0  0  0  0  0  0
  -22.0411  -12.8348   22.0299 N   0  0  0  0  0  0
  -25.4372  -15.1872   20.4264 N   0  0  0  0  0  0
  -31.8023  -14.7285   20.0635 O   0  0  0  0  0  0
  -21.6606   -6.8856   21.4246 O   0  0  0  0  0  0
  -22.3535  -14.5530   20.6509 O   0  0  0  0  0  0
  -24.6172  -31.8607   23.2100 C   0  0  0  0  0  0
  -25.9035  -32.4787   23.8455 C   0  0  1  0  0  0
  -27.2437  -27.3547   20.1513 C   0  0  0  0  0  0
  -25.5921  -33.8612   24.2383 N   0  0  0  0  0  0
  -23.4182  -30.4792   21.5413 C   0  0  2  0  0  0
  -24.8808  -28.9347   20.1142 C   0  0  0  0  0  0
  -22.7424  -29.4599   22.4919 C   0  0  0  0  0  0
  -18.0258  -28.1377   22.8508 C   0  0  0  0  0  0
  -24.1439  -36.7290   23.2648 C   0  0  0  0  0  0
  -25.9550  -30.8066   21.3722 C   0  0  0  0  0  0
  -26.0383  -29.4345   20.7202 C   0  0  0  0  0  0
  -27.2365  -28.6639   20.7099 C   0  0  0  0  0  0
  -26.0674  -26.8826   19.5435 C   0  0  0  0  0  0
  -24.8970  -27.6640   19.5132 C   0  0  0  0  0  0
  -23.6401  -29.8008   20.1600 C   0  0  0  0  0  0
  -25.4051  -36.3096   24.0346 C   0  0  1  0  0  0
  -20.5858  -28.3685   23.1261 C   0  0  2  0  0  0
  -20.6707  -26.9399   22.5412 C   0  0  0  0  0  0
  -19.5699  -26.6375   21.5180 C   0  0  0  0  0  0
  -18.1885  -26.7945   22.1626 C   0  0  0  0  0  0
  -19.1513  -28.8836   23.2902 C   0  0  0  0  0  0
  -18.9449  -30.1457   23.8909 C   0  0  0  0  0  0
  -17.6452  -30.6589   24.0557 C   0  0  0  0  0  0
  -25.8998  -34.9463   23.5148 C   0  0  0  0  0  0
  -16.5329  -29.9103   23.6339 C   0  0  0  0  0  0
  -16.7246  -28.6507   23.0358 C   0  0  0  0  0  0
  -26.4467  -31.6610   25.0833 C   0  0  0  0  0  0
  -25.3797  -31.3737   26.1639 C   0  0  0  0  0  0
  -27.0279  -30.3012   24.6296 C   0  0  0  0  0  0
  -27.6023  -32.4408   25.7607 C   0  0  0  0  0  0
  -27.5521  -37.1802   24.8464 C   0  0  0  0  0  0
  -21.4132  -29.3057   22.3653 N   0  0  0  0  0  0
  -26.4220  -37.3802   23.9440 N   0  0  0  0  0  0
  -24.6801  -31.0697   22.0978 N   0  0  0  0  0  0
  -23.4143  -28.8081   23.2971 O   0  0  0  0  0  0
  -28.3687  -26.5338   20.1809 O   0  0  0  0  0  0
  -26.5540  -34.8916   22.4706 O   0  0  0  0  0  0
  -23.5338  -32.1366   23.7468 O   0  0  0  0  0  0
  -27.3782  -19.6380   17.3917 C   0  0  0  0  0  0
  -26.7295  -21.3430   18.9627 C   0  0  0  0  0  0
  -26.3562  -20.4018   17.9757 C   0  0  0  0  0  0
  -28.5964  -19.4711   18.0796 C   0  0  0  0  0  0
  -28.0040  -21.2857   19.5910 C   0  0  0  0  0  0
  -28.7880  -20.0907   19.3419 C   0  0  0  0  0  0
  -29.6787  -18.6038   17.4489 C   0  0  0  0  0  0
  -22.2716  -17.0902   15.4496 C   0  0  0  0  0  0
  -23.3885  -15.9069   17.3044 C   0  0  0  0  0  0
  -24.8880  -20.1705   17.5900 C   0  0  0  0  0  0
  -28.4094  -22.4758   20.5211 C   0  0  0  0  0  0
  -24.5211  -18.6619   17.4515 C   0  0  0  0  0  0
  -28.2994  -23.9470   19.8866 C   0  0  0  0  0  0
  -30.4125  -17.0559   21.1085 C   0  0  0  0  0  0
  -22.9901  -18.3981   17.4492 C   0  0  0  0  0  0
  -28.2550  -25.2181   20.8324 C   0  0  0  0  0  0
  -29.3095  -18.0473   20.5596 C   0  0  0  0  0  0
  -30.0102  -15.6103   21.1031 N   0  0  0  0  0  0
  -22.5618  -17.0714   16.9036 N   0  3  0  0  0  0
  -29.6489  -19.4566   20.2547 O   0  0  0  0  0  0
  -31.4766  -12.4309   19.2114 H   0  0  0  0  0  0
  -30.2944  -11.3693   19.9124 H   0  0  0  0  0  0
  -29.7965  -11.8222   17.4624 H   0  0  0  0  0  0
  -29.6595  -13.5187   17.8230 H   0  0  0  0  0  0
  -27.9105  -11.2831   18.8977 H   0  0  0  0  0  0
  -27.3796  -12.5401   17.8144 H   0  0  0  0  0  0
  -27.6990  -14.2556   19.5523 H   0  0  0  0  0  0
  -28.6993  -12.0268   21.3953 H   0  0  0  0  0  0
  -28.4476  -13.6646   21.8840 H   0  0  0  0  0  0
  -25.2725   -9.5642   22.4748 H   0  0  0  0  0  0
  -23.9893   -7.4646   22.7544 H   0  0  0  0  0  0
  -21.0734   -8.8747   19.9012 H   0  0  0  0  0  0
  -22.3595  -10.9641   19.6191 H   0  0  0  0  0  0
  -21.2003   -7.6143   23.9724 H   0  0  0  0  0  0
  -21.1551   -6.0490   25.9064 H   0  0  0  0  0  0
  -22.0564   -2.7612   23.2834 H   0  0  0  0  0  0
  -22.3985  -12.0077   22.4797 H   0  0  0  0  0  0
  -21.1017  -13.1443   22.2453 H   0  0  0  0  0  0
  -24.7274  -15.8494   20.7134 H   0  0  0  0  0  0
  -26.3184  -15.6287   20.2020 H   0  0  0  0  0  0
  -26.7134  -32.5460   23.1239 H   0  0  0  0  0  0
  -25.0165  -33.9852   25.0575 H   0  0  0  0  0  0
  -22.7158  -31.2995   21.3875 H   0  0  0  0  0  0
  -23.3722  -35.9612   23.3298 H   0  0  0  0  0  0
  -24.3496  -36.8914   22.2066 H   0  0  0  0  0  0
  -23.7175  -37.6488   23.6655 H   0  0  0  0  0  0
  -26.0695  -31.5698   20.5999 H   0  0  0  0  0  0
  -26.8414  -30.8717   21.9942 H   0  0  0  0  0  0
  -28.1327  -29.0591   21.1757 H   0  0  0  0  0  0
  -26.0482  -25.8937   19.1055 H   0  0  0  0  0  0
  -24.0057  -27.2699   19.0512 H   0  0  0  0  0  0
  -23.7820  -30.5758   19.4095 H   0  0  0  0  0  0
  -22.7689  -29.2194   19.8432 H   0  0  0  0  0  0
  -25.1212  -36.1956   25.0835 H   0  0  0  0  0  0
  -20.9965  -28.3249   24.1366 H   0  0  0  0  0  0
  -20.5524  -26.2288   23.3621 H   0  0  0  0  0  0
  -21.6568  -26.7381   22.1230 H   0  0  0  0  0  0
  -19.6850  -25.6267   21.1222 H   0  0  0  0  0  0
  -19.6624  -27.3172   20.6692 H   0  0  0  0  0  0
  -17.4139  -26.6699   21.4045 H   0  0  0  0  0  0
  -18.0327  -26.0065   22.9015 H   0  0  0  0  0  0
  -19.7896  -30.7285   24.2260 H   0  0  0  0  0  0
  -17.4980  -31.6263   24.5168 H   0  0  0  0  0  0
  -15.5320  -30.3001   23.7639 H   0  0  0  0  0  0
  -15.8642  -28.0823   22.7080 H   0  0  0  0  0  0
  -24.6024  -30.6961   25.8076 H   0  0  0  0  0  0
  -24.8931  -32.2889   26.5062 H   0  0  0  0  0  0
  -25.8257  -30.9039   27.0421 H   0  0  0  0  0  0
  -26.2830  -29.6854   24.1227 H   0  0  0  0  0  0
  -27.3789  -29.7204   25.4839 H   0  0  0  0  0  0
  -27.8799  -30.4252   23.9599 H   0  0  0  0  0  0
  -27.2586  -33.3753   26.2078 H   0  0  0  0  0  0
  -28.3875  -32.6905   25.0461 H   0  0  0  0  0  0
  -28.0633  -31.8634   26.5638 H   0  0  0  0  0  0
  -28.2537  -38.0108   24.7489 H   0  0  0  0  0  0
  -28.1018  -36.2624   24.6269 H   0  0  0  0  0  0
  -27.2267  -37.1440   25.8889 H   0  0  0  0  0  0
  -20.9291  -29.8846   21.6912 H   0  0  0  0  0  0
  -26.0079  -38.2845   24.1586 H   0  0  0  0  0  0
  -27.2096  -19.1041   16.4645 H   0  0  0  0  0  0
  -26.0101  -22.1016   19.2508 H   0  0  0  0  0  0
  -29.4291  -17.5462   17.5048 H   0  0  0  0  0  0
  -30.6537  -18.7618   17.9088 H   0  0  0  0  0  0
  -29.7759  -18.8517   16.3938 H   0  0  0  0  0  0
  -22.0065  -16.0944   15.0941 H   0  0  0  0  0  0
  -23.1045  -17.4564   14.8442 H   0  0  0  0  0  0
  -21.4105  -17.7329   15.2552 H   0  0  0  0  0  0
  -22.8845  -14.9710   17.0531 H   0  0  0  0  0  0
  -23.5449  -15.8979   18.3840 H   0  0  0  0  0  0
  -24.3556  -15.8992   16.7926 H   0  0  0  0  0  0
  -24.6601  -20.7059   16.6681 H   0  0  0  0  0  0
  -24.2597  -20.6009   18.3741 H   0  0  0  0  0  0
  -29.4434  -22.3061   20.8322 H   0  0  0  0  0  0
  -27.7954  -22.4152   21.4246 H   0  0  0  0  0  0
  -24.9489  -18.1007   18.2915 H   0  0  0  0  0  0
  -24.9933  -18.2533   16.5525 H   0  0  0  0  0  0
  -27.3954  -23.9954   19.2821 H   0  0  0  0  0  0
  -29.1237  -24.0881   19.1849 H   0  0  0  0  0  0
  -30.6585  -17.3120   22.1425 H   0  0  0  0  0  0
  -31.3442  -17.1787   20.5530 H   0  0  0  0  0  0
  -22.4832  -19.1935   16.8936 H   0  0  0  0  0  0
  -22.6072  -18.4849   18.4740 H   0  0  0  0  0  0
  -29.0929  -25.1792   21.5344 H   0  0  0  0  0  0
  -27.3537  -25.1742   21.4495 H   0  0  0  0  0  0
  -28.4948  -18.0667   21.2902 H   0  0  0  0  0  0
  -28.8908  -17.5595   19.6777 H   0  0  0  0  0  0
  -29.1369  -15.3823   21.5576 H   0  0  0  0  0  0
  -21.6662  -16.9082   17.3406 H   0  0  0  0  0  0
  1 25  1  0  0  0
  1 30  2  0  0  0
  1 88  1  0  0  0
  2  3  1  0  0  0
  2 25  1  0  0  0
  2 91  1  0  0  0
  2 92  1  0  0  0
  3  4  1  0  0  0
  3 93  1  0  0  0
  3 94  1  0  0  0
  4  5  1  0  0  0
  4 95  1  0  0  0
  4 96  1  0  0  0
  5  6  1  0  0  0
  5 26  1  0  0  0
  5 97  1  0  0  0
  6 25  1  0  0  0
  6 98  1  0  0  0
  6 99  1  0  0  0
  7  8  2  0  0  0
  7 26  1  0  0  0
  7 29  1  0  0  0
  8  9  1  0  0  0
  8 22  1  0  0  0
  9 10  1  0  0  0
  9 27  2  0  0  0
 10 11  2  0  0  0
 10 15  1  0  0  0
 11 12  1  0  0  0
 11100  1  0  0  0
 12 13  2  0  0  0
 12101  1  0  0  0
 13 14  1  0  0  0
 13 31  1  0  0  0
 14 15  2  0  0  0
 14102  1  0  0  0
 15103  1  0  0  0
 16 17  2  0  0  0
 16 21  1  0  0  0
 16 31  1  0  0  0
 17 18  1  0  0  0
 17104  1  0  0  0
 18 19  2  0  0  0
 18105  1  0  0  0
 19 20  1  0  0  0
 19 24  1  0  0  0
 20 21  2  0  0  0
 20106  1  0  0  0
 21 23  1  0  0  0
 22 28  1  0  0  0
 22 32  2  0  0  0
 26 27  1  0  0  0
 28107  1  0  0  0
 28108  1  0  0  0
 29109  1  0  0  0
 29110  1  0  0  0
 33 34  1  0  0  0
 33 66  1  0  0  0
 33 70  2  0  0  0
 34 36  1  0  0  0
 34 59  1  0  0  0
 34111  1  0  0  0
 35 44  2  0  0  0
 35 45  1  0  0  0
 35 68  1  0  0  0
 36 56  1  0  0  0
 36112  1  0  0  0
 37 39  1  0  0  0
 37 47  1  0  0  0
 37 66  1  0  0  0
 37113  1  0  0  0
 38 43  2  0  0  0
 38 46  1  0  0  0
 38 47  1  0  0  0
 39 64  1  0  0  0
 39 67  2  0  0  0
 40 52  1  0  0  0
 40 53  2  0  0  0
 40 58  1  0  0  0
 41114  1  0  0  0
 41115  1  0  0  0
 41116  1  0  0  0
 41 48  1  0  0  0
 42 43  1  0  0  0
 42 66  1  0  0  0
 42117  1  0  0  0
 42118  1  0  0  0
 43 44  1  0  0  0
 44119  1  0  0  0
 45 46  2  0  0  0
 45120  1  0  0  0
 46121  1  0  0  0
 47122  1  0  0  0
 47123  1  0  0  0
 48 56  1  0  0  0
 48 65  1  0  0  0
 48124  1  0  0  0
 49 50  1  0  0  0
 49 53  1  0  0  0
 49 64  1  0  0  0
 49125  1  0  0  0
 50 51  1  0  0  0
 50126  1  0  0  0
 50127  1  0  0  0
 51 52  1  0  0  0
 51128  1  0  0  0
 51129  1  0  0  0
 52130  1  0  0  0
 52131  1  0  0  0
 53 54  1  0  0  0
 54 55  2  0  0  0
 54132  1  0  0  0
 55 57  1  0  0  0
 55133  1  0  0  0
 56 69  2  0  0  0
 57 58  2  0  0  0
 57134  1  0  0  0
 58135  1  0  0  0
 59 60  1  0  0  0
 59 61  1  0  0  0
 59 62  1  0  0  0
 60136  1  0  0  0
 60137  1  0  0  0
 60138  1  0  0  0
 61139  1  0  0  0
 61140  1  0  0  0
 61141  1  0  0  0
 62142  1  0  0  0
 62143  1  0  0  0
 62144  1  0  0  0
 63 65  1  0  0  0
 63145  1  0  0  0
 63146  1  0  0  0
 63147  1  0  0  0
 64148  1  0  0  0
 65149  1  0  0  0
 68 86  1  0  0  0
 71 73  2  0  0  0
 71 74  1  0  0  0
 71150  1  0  0  0
 72 73  1  0  0  0
 72 75  2  0  0  0
 72151  1  0  0  0
 73 80  1  0  0  0
 74 76  2  0  0  0
 74 77  1  0  0  0
 75 76  1  0  0  0
 75 81  1  0  0  0
 76 90  1  0  0  0
 77152  1  0  0  0
 77153  1  0  0  0
 77154  1  0  0  0
 78155  1  0  0  0
 78156  1  0  0  0
 78157  1  0  0  0
 78 89  1  0  0  0
 79 89  1  0  0  0
 79158  1  0  0  0
 79159  1  0  0  0
 79160  1  0  0  0
 80 82  1  0  0  0
 80161  1  0  0  0
 80162  1  0  0  0
 81 83  1  0  0  0
 81163  1  0  0  0
 81164  1  0  0  0
 82 85  1  0  0  0
 82165  1  0  0  0
 82166  1  0  0  0
 83 86  1  0  0  0
 83167  1  0  0  0
 83168  1  0  0  0
 84 87  1  0  0  0
 84 88  1  0  0  0
 84169  1  0  0  0
 84170  1  0  0  0
 85 89  1  0  0  0
 85171  1  0  0  0
 85172  1  0  0  0
 86173  1  0  0  0
 86174  1  0  0  0
 87 90  1  0  0  0
 87175  1  0  0  0
 87176  1  0  0  0
 88177  1  0  0  0
 89178  1  0  0  0
M  CHG  1  89   1
M  ISO  4   1 100  68 101  86 101  88 100
M  END
> <chiral flag>
0

> <version>
0

> <s_m_source_file>
/data/baiqing/PycharmProjects/Reinvent-master-3.2/result/LINK_invent/BTK/process_docking_weight1_custom_sum_contain_oxygen_bond_distance_aromatic_linkinvent_7_9_3/rearranged_h_0096.sdf

> <i_m_source_file_index>
76

> <r_mmod_Potential_Energy-OPLS-2005>
-53.8210563659668

> <r_mmod_Stretch_Energy-OPLS-2005>
85.0743408203125

> <r_mmod_Bend_Energy-OPLS-2005>
139.458160400391

> <r_mmod_Torsional_Energy-OPLS-2005>
341.427917480469

> <r_mmod_Improper_Torsional_Energy-OPLS-2005>
3.43163704872131

> <r_mmod_Van_der_Waal_Energy-OPLS-2005>
137.681106567383

> <r_mmod_Electrostatic_Energy-OPLS-2005>
-350.397918701172

> <r_mmod_Solvation_Energy-OPLS-2005>
-443.190002441406

> <b_mmod_Minimization_Converged-OPLS-2005>
0

> <r_mmod_RMS_Derivative-OPLS-2005>
10.9997606277466

$$$$
76
                    3D
 Structure written by MMmdl.
183192  0  0  1  0            999 V2000
  -30.5170  -15.0443   20.4248 C   0  0  0  0  0  0
  -30.4427  -12.6644   19.4926 C   0  0  0  0  0  0
  -29.5234  -12.5615   18.2534 C   0  0  0  0  0  0
  -28.0602  -12.3269   18.6747 C   0  0  0  0  0  0
  -27.6225  -13.2590   19.8332 C   0  0  2  0  0  0
  -28.6693  -13.3302   20.9624 C   0  0  0  0  0  0
  -25.2425  -13.8230   20.5675 C   0  0  0  0  0  0
  -24.1777  -13.0431   20.9184 C   0  0  0  0  0  0
  -24.6405  -11.6909   20.8708 C   0  0  0  0  0  0
  -23.9094  -10.4279   21.0368 C   0  0  0  0  0  0
  -24.3642   -9.4205   21.9164 C   0  0  0  0  0  0
  -23.6313   -8.2241   22.0763 C   0  0  0  0  0  0
  -22.4307   -8.0255   21.3533 C   0  0  0  0  0  0
  -21.9926   -9.0234   20.4638 C   0  0  0  0  0  0
  -22.7245  -10.2114   20.3038 C   0  0  0  0  0  0
  -21.6869   -6.0703   22.5249 C   0  0  0  0  0  0
  -21.3991   -6.5602   23.8178 C   0  0  0  0  0  0
  -21.3686   -5.6765   24.9145 C   0  0  0  0  0  0
  -21.6089   -4.3028   24.7217 C   0  0  0  0  0  0
  -21.8815   -3.8112   23.4331 C   0  0  0  0  0  0
  -21.9183   -4.6926   22.3372 C   0  0  0  0  0  0
  -22.7796  -13.5177   21.1846 C   0  0  0  0  0  0
  -22.1655   -4.2100   21.0961 F   0  0  0  0  0  0
  -21.5687   -3.4520   25.7747 F   0  0  0  0  0  0
  -29.9214  -13.7777   20.3392 N   0  0  0  0  0  0
  -26.2866  -12.9469   20.3237 N   0  0  0  0  0  0
  -25.9341  -11.6591   20.5725 N   0  0  0  0  0  0
  -22.0461  -12.8167   22.0410 N   0  0  0  0  0  0
  -25.4100  -15.1970   20.4104 N   0  0  0  0  0  0
  -31.7418  -15.0683   20.2398 O   0  0  0  0  0  0
  -21.6657   -6.8852   21.4223 O   0  0  0  0  0  0
  -22.3455  -14.5458   20.6650 O   0  0  0  0  0  0
  -24.6440  -31.8408   23.1885 C   0  0  0  0  0  0
  -25.9193  -32.4673   23.8299 C   0  0  1  0  0  0
  -27.2157  -27.1056   20.2086 C   0  0  0  0  0  0
  -25.5936  -33.8481   24.2202 N   0  0  0  0  0  0
  -23.4536  -30.4570   21.5321 C   0  0  2  0  0  0
  -24.9071  -28.8750   20.1271 C   0  0  0  0  0  0
  -22.7588  -29.4501   22.4842 C   0  0  0  0  0  0
  -18.0300  -28.1367   22.8459 C   0  0  0  0  0  0
  -24.1493  -36.7240   23.2640 C   0  0  0  0  0  0
  -26.0088  -30.7130   21.3900 C   0  0  0  0  0  0
  -26.0833  -29.3168   20.7476 C   0  0  0  0  0  0
  -27.2427  -28.4502   20.7609 C   0  0  0  0  0  0
  -26.0157  -26.7616   19.5536 C   0  0  0  0  0  0
  -24.8860  -27.6119   19.5135 C   0  0  0  0  0  0
  -23.6848  -29.7797   20.1563 C   0  0  0  0  0  0
  -25.4132  -36.3003   24.0296 C   0  0  1  0  0  0
  -20.5919  -28.3709   23.1221 C   0  0  2  0  0  0
  -20.6790  -26.9402   22.5402 C   0  0  0  0  0  0
  -19.5767  -26.6364   21.5195 C   0  0  0  0  0  0
  -18.1945  -26.7919   22.1592 C   0  0  0  0  0  0
  -19.1552  -28.8865   23.2829 C   0  0  0  0  0  0
  -18.9460  -30.1461   23.8872 C   0  0  0  0  0  0
  -17.6463  -30.6577   24.0543 C   0  0  0  0  0  0
  -25.9064  -34.9381   23.5053 C   0  0  0  0  0  0
  -16.5355  -29.9054   23.6330 C   0  0  0  0  0  0
  -16.7289  -28.6466   23.0369 C   0  0  0  0  0  0
  -26.4546  -31.6579   25.0757 C   0  0  0  0  0  0
  -25.3731  -31.3738   26.1450 C   0  0  0  0  0  0
  -27.0431  -30.2985   24.6339 C   0  0  0  0  0  0
  -27.6078  -32.4379   25.7543 C   0  0  0  0  0  0
  -27.5577  -37.1760   24.8444 C   0  0  0  0  0  0
  -21.4265  -29.3045   22.3623 N   0  0  0  0  0  0
  -26.4282  -37.3729   23.9407 N   0  0  0  0  0  0
  -24.7204  -31.0241   22.0947 N   0  0  0  0  0  0
  -23.4215  -28.8027   23.2972 O   0  0  0  0  0  0
  -28.2759  -26.1275   20.1882 O   0  0  0  0  0  0
  -26.5624  -34.8864   22.4621 O   0  0  0  0  0  0
  -23.5552  -32.1309   23.7096 O   0  0  0  0  0  0
  -30.2032  -20.3268   22.0228 C   0  0  0  0  0  0
  -29.3735  -18.9939   20.2122 C   0  0  0  0  0  0
  -29.5306  -20.3826   20.7761 C   0  0  0  0  0  0
  -30.6917  -19.1139   22.5663 C   0  0  0  0  0  0
  -29.9191  -17.7234   20.8147 C   0  0  0  0  0  0
  -29.0603  -22.0307   16.4266 C   0  0  0  0  0  0
  -29.1893  -23.4955   16.8111 C   0  0  0  0  0  0
  -29.1195  -21.2797   17.7603 C   0  0  0  0  0  0
  -29.8791  -23.5020   18.1854 C   0  0  0  0  0  0
  -33.6550  -21.5853   17.7644 C   0  0  0  0  0  0
  -32.9040  -18.6684   23.7055 C   0  0  0  0  0  0
  -30.7140  -18.2140   24.9386 C   0  0  0  0  0  0
  -26.8460  -22.9311   19.6719 C   0  0  0  0  0  0
  -32.1502  -21.6495   17.4645 C   0  0  0  0  0  0
  -31.3479  -21.6489   18.7884 C   0  0  0  0  0  0
  -28.2497  -24.7633   20.9504 C   0  0  0  0  0  0
  -29.3191  -21.9503   20.1426 C   0  0  2  0  0  0
  -31.4382  -19.0900   23.8983 C   0  0  0  0  0  0
  -28.1151  -23.1032   20.5250 C   0  0  2  0  0  0
  -30.5812  -17.9032   21.9699 N   0  0  0  0  0  0
  -29.7310  -16.2537   20.3731 N   0  0  0  0  0  0
  -29.9072  -22.0954   18.7358 N   0  3  0  0  0  0
  -31.4698  -12.8496   19.1769 H   0  0  0  0  0  0
  -30.4610  -11.7260   20.0494 H   0  0  0  0  0  0
  -29.8579  -11.7616   17.5919 H   0  0  0  0  0  0
  -29.5956  -13.4852   17.6751 H   0  0  0  0  0  0
  -27.9696  -11.2863   18.9839 H   0  0  0  0  0  0
  -27.3999  -12.4550   17.8170 H   0  0  0  0  0  0
  -27.5698  -14.2544   19.3918 H   0  0  0  0  0  0
  -28.7953  -12.3643   21.4546 H   0  0  0  0  0  0
  -28.3552  -14.0325   21.7370 H   0  0  0  0  0  0
  -25.2796   -9.5675   22.4732 H   0  0  0  0  0  0
  -24.0005   -7.4637   22.7500 H   0  0  0  0  0  0
  -21.0859   -8.8736   19.8955 H   0  0  0  0  0  0
  -22.3695  -10.9647   19.6141 H   0  0  0  0  0  0
  -21.1950   -7.6112   23.9657 H   0  0  0  0  0  0
  -21.1554   -6.0507   25.9054 H   0  0  0  0  0  0
  -22.0588   -2.7572   23.2850 H   0  0  0  0  0  0
  -22.4093  -11.9861   22.4833 H   0  0  0  0  0  0
  -21.1078  -13.1180   22.2586 H   0  0  0  0  0  0
  -24.6501  -15.8547   20.5417 H   0  0  0  0  0  0
  -26.2606  -15.6401   20.0922 H   0  0  0  0  0  0
  -26.7260  -32.5279   23.1032 H   0  0  0  0  0  0
  -25.0163  -33.9660   25.0393 H   0  0  0  0  0  0
  -22.7598  -31.2835   21.3690 H   0  0  0  0  0  0
  -23.3762  -35.9550   23.3238 H   0  0  0  0  0  0
  -24.3612  -36.8956   22.2073 H   0  0  0  0  0  0
  -23.7232  -37.6397   23.6756 H   0  0  0  0  0  0
  -26.1583  -31.4681   20.6167 H   0  0  0  0  0  0
  -26.8809  -30.7774   22.0279 H   0  0  0  0  0  0
  -28.1527  -28.7905   21.2370 H   0  0  0  0  0  0
  -25.9372  -25.7947   19.0758 H   0  0  0  0  0  0
  -23.9886  -27.2710   19.0227 H   0  0  0  0  0  0
  -23.8239  -30.5478   19.3948 H   0  0  0  0  0  0
  -22.8040  -29.2148   19.8440 H   0  0  0  0  0  0
  -25.1311  -36.1843   25.0783 H   0  0  0  0  0  0
  -21.0007  -28.3272   24.1338 H   0  0  0  0  0  0
  -20.5672  -26.2293   23.3607 H   0  0  0  0  0  0
  -21.6644  -26.7396   22.1186 H   0  0  0  0  0  0
  -19.6931  -25.6259   21.1257 H   0  0  0  0  0  0
  -19.6719  -27.3149   20.6703 H   0  0  0  0  0  0
  -17.4212  -26.6663   21.3989 H   0  0  0  0  0  0
  -18.0328  -26.0072   22.8996 H   0  0  0  0  0  0
  -19.7947  -30.7269   24.2248 H   0  0  0  0  0  0
  -17.5013  -31.6273   24.5107 H   0  0  0  0  0  0
  -15.5355  -30.2943   23.7689 H   0  0  0  0  0  0
  -15.8671  -28.0764   22.7126 H   0  0  0  0  0  0
  -24.5922  -30.7078   25.7765 H   0  0  0  0  0  0
  -24.8893  -32.2890   26.4890 H   0  0  0  0  0  0
  -25.8034  -30.8921   27.0244 H   0  0  0  0  0  0
  -26.3059  -29.6689   24.1343 H   0  0  0  0  0  0
  -27.4052  -29.7308   25.4926 H   0  0  0  0  0  0
  -27.8963  -30.4229   23.9657 H   0  0  0  0  0  0
  -27.2673  -33.3718   26.2047 H   0  0  0  0  0  0
  -28.3936  -32.6907   25.0398 H   0  0  0  0  0  0
  -28.0694  -31.8551   26.5527 H   0  0  0  0  0  0
  -28.2499  -38.0142   24.7577 H   0  0  0  0  0  0
  -28.1167  -36.2676   24.6176 H   0  0  0  0  0  0
  -27.2296  -37.1258   25.8836 H   0  0  0  0  0  0
  -20.9507  -29.8788   21.6798 H   0  0  0  0  0  0
  -26.0119  -38.2759   24.1519 H   0  0  0  0  0  0
  -30.4019  -21.2380   22.5733 H   0  0  0  0  0  0
  -28.8535  -18.8862   19.2716 H   0  0  0  0  0  0
  -29.8883  -21.7314   15.7849 H   0  0  0  0  0  0
  -28.1387  -21.8338   15.8766 H   0  0  0  0  0  0
  -28.2008  -23.9503   16.8852 H   0  0  0  0  0  0
  -29.7376  -24.0708   16.0647 H   0  0  0  0  0  0
  -29.5201  -20.2744   17.6270 H   0  0  0  0  0  0
  -28.0990  -21.1485   18.1184 H   0  0  0  0  0  0
  -29.3744  -24.2388   18.7898 H   0  0  0  0  0  0
  -30.8808  -23.9275   18.1104 H   0  0  0  0  0  0
  -34.2422  -21.5568   16.8469 H   0  0  0  0  0  0
  -33.9073  -20.7070   18.3606 H   0  0  0  0  0  0
  -33.9753  -22.4650   18.3255 H   0  0  0  0  0  0
  -33.4104  -19.3371   23.0086 H   0  0  0  0  0  0
  -32.9769  -17.6566   23.3000 H   0  0  0  0  0  0
  -33.4525  -18.6909   24.6462 H   0  0  0  0  0  0
  -31.2497  -18.1786   25.8858 H   0  0  0  0  0  0
  -29.7146  -18.5996   25.1391 H   0  0  0  0  0  0
  -30.6114  -17.1865   24.5895 H   0  0  0  0  0  0
  -26.0778  -23.6348   19.9793 H   0  0  0  0  0  0
  -26.4232  -21.9315   19.7731 H   0  0  0  0  0  0
  -27.0273  -23.1184   18.6165 H   0  0  0  0  0  0
  -31.8564  -20.7998   16.8467 H   0  0  0  0  0  0
  -31.9686  -22.5377   16.8620 H   0  0  0  0  0  0
  -31.8748  -22.3016   19.4865 H   0  0  0  0  0  0
  -31.4474  -20.6465   19.2008 H   0  0  0  0  0  0
  -29.1389  -24.8106   21.5813 H   0  0  0  0  0  0
  -27.4415  -24.9178   21.6707 H   0  0  0  0  0  0
  -30.0927  -22.4503   20.7250 H   0  0  0  0  0  0
  -31.4503  -20.1058   24.2974 H   0  0  0  0  0  0
  -27.8164  -22.7134   21.5002 H   0  0  0  0  0  0
  -28.7728  -16.0616   20.1416 H   0  0  0  0  0  0
  1 25  1  0  0  0
  1 30  2  0  0  0
  1 91  1  0  0  0
  2  3  1  0  0  0
  2 25  1  0  0  0
  2 93  1  0  0  0
  2 94  1  0  0  0
  3  4  1  0  0  0
  3 95  1  0  0  0
  3 96  1  0  0  0
  4  5  1  0  0  0
  4 97  1  0  0  0
  4 98  1  0  0  0
  5  6  1  0  0  0
  5 26  1  0  0  0
  5 99  1  0  0  0
  6 25  1  0  0  0
  6100  1  0  0  0
  6101  1  0  0  0
  7  8  2  0  0  0
  7 26  1  0  0  0
  7 29  1  0  0  0
  8  9  1  0  0  0
  8 22  1  0  0  0
  9 10  1  0  0  0
  9 27  2  0  0  0
 10 11  2  0  0  0
 10 15  1  0  0  0
 11 12  1  0  0  0
 11102  1  0  0  0
 12 13  2  0  0  0
 12103  1  0  0  0
 13 14  1  0  0  0
 13 31  1  0  0  0
 14 15  2  0  0  0
 14104  1  0  0  0
 15105  1  0  0  0
 16 17  2  0  0  0
 16 21  1  0  0  0
 16 31  1  0  0  0
 17 18  1  0  0  0
 17106  1  0  0  0
 18 19  2  0  0  0
 18107  1  0  0  0
 19 20  1  0  0  0
 19 24  1  0  0  0
 20 21  2  0  0  0
 20108  1  0  0  0
 21 23  1  0  0  0
 22 28  1  0  0  0
 22 32  2  0  0  0
 26 27  1  0  0  0
 28109  1  0  0  0
 28110  1  0  0  0
 29111  1  0  0  0
 29112  1  0  0  0
 33 34  1  0  0  0
 33 66  1  0  0  0
 33 70  2  0  0  0
 34 36  1  0  0  0
 34 59  1  0  0  0
 34113  1  0  0  0
 35 44  2  0  0  0
 35 45  1  0  0  0
 35 68  1  0  0  0
 36 56  1  0  0  0
 36114  1  0  0  0
 37 39  1  0  0  0
 37 47  1  0  0  0
 37 66  1  0  0  0
 37115  1  0  0  0
 38 43  2  0  0  0
 38 46  1  0  0  0
 38 47  1  0  0  0
 39 64  1  0  0  0
 39 67  2  0  0  0
 40 52  1  0  0  0
 40 53  2  0  0  0
 40 58  1  0  0  0
 41116  1  0  0  0
 41117  1  0  0  0
 41118  1  0  0  0
 41 48  1  0  0  0
 42 43  1  0  0  0
 42 66  1  0  0  0
 42119  1  0  0  0
 42120  1  0  0  0
 43 44  1  0  0  0
 44121  1  0  0  0
 45 46  2  0  0  0
 45122  1  0  0  0
 46123  1  0  0  0
 47124  1  0  0  0
 47125  1  0  0  0
 48 56  1  0  0  0
 48 65  1  0  0  0
 48126  1  0  0  0
 49 50  1  0  0  0
 49 53  1  0  0  0
 49 64  1  0  0  0
 49127  1  0  0  0
 50 51  1  0  0  0
 50128  1  0  0  0
 50129  1  0  0  0
 51 52  1  0  0  0
 51130  1  0  0  0
 51131  1  0  0  0
 52132  1  0  0  0
 52133  1  0  0  0
 53 54  1  0  0  0
 54 55  2  0  0  0
 54134  1  0  0  0
 55 57  1  0  0  0
 55135  1  0  0  0
 56 69  2  0  0  0
 57 58  2  0  0  0
 57136  1  0  0  0
 58137  1  0  0  0
 59 60  1  0  0  0
 59 61  1  0  0  0
 59 62  1  0  0  0
 60138  1  0  0  0
 60139  1  0  0  0
 60140  1  0  0  0
 61141  1  0  0  0
 61142  1  0  0  0
 61143  1  0  0  0
 62144  1  0  0  0
 62145  1  0  0  0
 62146  1  0  0  0
 63 65  1  0  0  0
 63147  1  0  0  0
 63148  1  0  0  0
 63149  1  0  0  0
 64150  1  0  0  0
 65151  1  0  0  0
 68 86  1  0  0  0
 71 73  2  0  0  0
 71 74  1  0  0  0
 71152  1  0  0  0
 72 73  1  0  0  0
 72 75  2  0  0  0
 72153  1  0  0  0
 73 87  1  0  0  0
 74 88  1  0  0  0
 74 90  2  0  0  0
 75 90  1  0  0  0
 75 91  1  0  0  0
 76 77  1  0  0  0
 76 78  1  0  0  0
 76154  1  0  0  0
 76155  1  0  0  0
 77 79  1  0  0  0
 77156  1  0  0  0
 77157  1  0  0  0
 78 92  1  0  0  0
 78158  1  0  0  0
 78159  1  0  0  0
 79 92  1  0  0  0
 79160  1  0  0  0
 79161  1  0  0  0
 80 84  1  0  0  0
 80162  1  0  0  0
 80163  1  0  0  0
 80164  1  0  0  0
 81165  1  0  0  0
 81166  1  0  0  0
 81167  1  0  0  0
 81 88  1  0  0  0
 82 88  1  0  0  0
 82168  1  0  0  0
 82169  1  0  0  0
 82170  1  0  0  0
 83171  1  0  0  0
 83172  1  0  0  0
 83173  1  0  0  0
 83 89  1  0  0  0
 84 85  1  0  0  0
 84174  1  0  0  0
 84175  1  0  0  0
 85176  1  0  0  0
 85177  1  0  0  0
 85 92  1  0  0  0
 86 89  1  0  0  0
 86178  1  0  0  0
 86179  1  0  0  0
 87 89  1  0  0  0
 87 92  1  0  0  0
 87180  1  0  0  0
 88181  1  0  0  0
 89182  1  0  0  0
 91183  1  0  0  0
M  CHG  1  92   1
M  ISO  4   1 100  68 101  86 101  91 100
M  END
> <chiral flag>
0

> <version>
0

> <s_m_source_file>
/data/baiqing/PycharmProjects/Reinvent-master-3.2/result/LINK_invent/BTK/process_docking_weight1_custom_sum_contain_oxygen_bond_distance_aromatic_linkinvent_7_9_3/rearranged_h_0096.sdf

> <i_m_source_file_index>
77

> <r_mmod_Potential_Energy-OPLS-2005>
731.320617675781

> <r_mmod_Stretch_Energy-OPLS-2005>
337.794189453125

> <r_mmod_Bend_Energy-OPLS-2005>
397.238067626953

> <r_mmod_Torsional_Energy-OPLS-2005>
352.469909667969

> <r_mmod_Improper_Torsional_Energy-OPLS-2005>
10.9709529876709

> <r_mmod_Van_der_Waal_Energy-OPLS-2005>
146.074020385742

> <r_mmod_Electrostatic_Energy-OPLS-2005>
-373.310913085938

> <r_mmod_Solvation_Energy-OPLS-2005>
-382.123382568359

> <b_mmod_Minimization_Converged-OPLS-2005>
0

> <r_mmod_RMS_Derivative-OPLS-2005>
5.37852239608765

$$$$
77
                    3D
 Structure written by MMmdl.
178186  0  0  1  0            999 V2000
  -30.7163  -14.5457   20.4407 C   0  0  0  0  0  0
  -30.4347  -12.3168   19.4510 C   0  0  0  0  0  0
  -29.5013  -12.4178   18.2247 C   0  0  0  0  0  0
  -28.0142  -12.3210   18.6307 C   0  0  0  0  0  0
  -27.6457  -13.1870   19.8673 C   0  0  2  0  0  0
  -28.7102  -13.0402   20.9767 C   0  0  0  0  0  0
  -25.2538  -13.8060   20.5719 C   0  0  0  0  0  0
  -24.1773  -13.0352   20.9211 C   0  0  0  0  0  0
  -24.6331  -11.6834   20.8791 C   0  0  0  0  0  0
  -23.8986  -10.4253   21.0439 C   0  0  0  0  0  0
  -24.3555   -9.4181   21.9195 C   0  0  0  0  0  0
  -23.6249   -8.2206   22.0736 C   0  0  0  0  0  0
  -22.4242   -8.0255   21.3528 C   0  0  0  0  0  0
  -21.9874   -9.0221   20.4626 C   0  0  0  0  0  0
  -22.7180  -10.2115   20.3069 C   0  0  0  0  0  0
  -21.6851   -6.0715   22.5286 C   0  0  0  0  0  0
  -21.4016   -6.5613   23.8215 C   0  0  0  0  0  0
  -21.3669   -5.6773   24.9179 C   0  0  0  0  0  0
  -21.6052   -4.3036   24.7230 C   0  0  0  0  0  0
  -21.8811   -3.8133   23.4356 C   0  0  0  0  0  0
  -21.9177   -4.6936   22.3414 C   0  0  0  0  0  0
  -22.7814  -13.5189   21.1840 C   0  0  0  0  0  0
  -22.1637   -4.2123   21.0989 F   0  0  0  0  0  0
  -21.5645   -3.4523   25.7741 F   0  0  0  0  0  0
  -30.0287  -13.3605   20.4075 N   0  0  0  0  0  0
  -26.2952  -12.9174   20.3427 N   0  0  0  0  0  0
  -25.9253  -11.6366   20.5848 N   0  0  0  0  0  0
  -22.0438  -12.8245   22.0431 N   0  0  0  0  0  0
  -25.4190  -15.1772   20.4082 N   0  0  0  0  0  0
  -31.9231  -14.5550   20.1996 O   0  0  0  0  0  0
  -21.6622   -6.8842   21.4241 O   0  0  0  0  0  0
  -22.3534  -14.5496   20.6680 O   0  0  0  0  0  0
  -24.6126  -31.8715   23.2128 C   0  0  0  0  0  0
  -25.9046  -32.4846   23.8380 C   0  0  1  0  0  0
  -27.2129  -27.4592   20.0880 C   0  0  0  0  0  0
  -25.5905  -33.8631   24.2312 N   0  0  0  0  0  0
  -23.3939  -30.4986   21.5583 C   0  0  2  0  0  0
  -24.8351  -28.9720   20.1122 C   0  0  0  0  0  0
  -22.7371  -29.4674   22.5034 C   0  0  0  0  0  0
  -18.0256  -28.1356   22.8507 C   0  0  0  0  0  0
  -24.1487  -36.7299   23.2631 C   0  0  0  0  0  0
  -25.9206  -30.8427   21.3614 C   0  0  0  0  0  0
  -25.9956  -29.4809   20.7077 C   0  0  0  0  0  0
  -27.1909  -28.7306   20.6970 C   0  0  0  0  0  0
  -26.0394  -26.9637   19.4778 C   0  0  0  0  0  0
  -24.8493  -27.7102   19.4955 C   0  0  0  0  0  0
  -23.5971  -29.8374   20.1688 C   0  0  0  0  0  0
  -25.4111  -36.3120   24.0335 C   0  0  1  0  0  0
  -20.5841  -28.3647   23.1342 C   0  0  2  0  0  0
  -20.6750  -26.9387   22.5420 C   0  0  0  0  0  0
  -19.5732  -26.6381   21.5215 C   0  0  0  0  0  0
  -18.1917  -26.7907   22.1628 C   0  0  0  0  0  0
  -19.1500  -28.8819   23.2925 C   0  0  0  0  0  0
  -18.9427  -30.1439   23.8918 C   0  0  0  0  0  0
  -17.6429  -30.6579   24.0563 C   0  0  0  0  0  0
  -25.9040  -34.9485   23.5125 C   0  0  0  0  0  0
  -16.5319  -29.9074   23.6342 C   0  0  0  0  0  0
  -16.7244  -28.6484   23.0367 C   0  0  0  0  0  0
  -26.4455  -31.6633   25.0717 C   0  0  0  0  0  0
  -25.3687  -31.3749   26.1450 C   0  0  0  0  0  0
  -27.0288  -30.3085   24.6094 C   0  0  0  0  0  0
  -27.6043  -32.4331   25.7474 C   0  0  0  0  0  0
  -27.5579  -37.1817   24.8459 C   0  0  0  0  0  0
  -21.4106  -29.3022   22.3750 N   0  0  0  0  0  0
  -26.4293  -37.3809   23.9404 N   0  0  0  0  0  0
  -24.6617  -31.0819   22.1047 N   0  0  0  0  0  0
  -23.4158  -28.8215   23.3064 O   0  0  0  0  0  0
  -28.3617  -26.7079   20.0995 O   0  0  0  0  0  0
  -26.5596  -34.8922   22.4687 O   0  0  0  0  0  0
  -23.5328  -32.1486   23.7546 O   0  0  0  0  0  0
  -30.1801  -24.3886   21.8601 C   0  0  0  0  0  0
  -31.3162  -23.5622   21.8289 C   0  0  0  0  0  0
  -29.8010  -23.9347   19.4992 C   0  0  0  0  0  0
  -29.4277  -24.5853   20.6889 C   0  0  0  0  0  0
  -31.6908  -22.8947   20.6432 C   0  0  0  0  0  0
  -30.9007  -23.0498   19.4701 C   0  0  0  0  0  0
  -32.9520  -22.0456   20.6686 C   0  0  0  0  0  0
  -28.9143  -21.9347   17.0181 C   0  0  0  0  0  0
  -29.4543  -16.1583   18.9787 C   0  0  0  0  0  0
  -28.9256  -16.1118   21.5031 C   0  0  0  0  0  0
  -28.2856  -19.9319   18.9288 C   0  0  0  0  0  0
  -31.1935  -22.2867   18.1788 C   0  0  0  0  0  0
  -28.1790  -25.4352   20.7202 C   0  0  0  0  0  0
  -30.6460  -18.6078   20.5225 C   0  0  0  0  0  0
  -31.0887  -17.1139   20.6378 C   0  0  0  0  0  0
  -30.6452  -19.2382   19.0993 C   0  0  0  0  0  0
  -30.0910  -21.2651   17.7756 C   0  0  1  0  0  0
  -30.0203  -15.9665   20.4116 C   0  0  0  0  0  0
  -29.7065  -20.3884   18.9361 N   0  3  1  0  0  0
  -30.3749  -11.3315   19.9182 H   0  0  0  0  0  0
  -31.4704  -12.4201   19.1244 H   0  0  0  0  0  0
  -29.7389  -11.6183   17.5209 H   0  0  0  0  0  0
  -29.6907  -13.3454   17.6843 H   0  0  0  0  0  0
  -27.8107  -11.2720   18.8517 H   0  0  0  0  0  0
  -27.3784  -12.5839   17.7841 H   0  0  0  0  0  0
  -27.6243  -14.2176   19.5451 H   0  0  0  0  0  0
  -28.4794  -13.6382   21.8514 H   0  0  0  0  0  0
  -28.7071  -12.0181   21.3550 H   0  0  0  0  0  0
  -25.2700   -9.5657   22.4764 H   0  0  0  0  0  0
  -23.9977   -7.4592   22.7455 H   0  0  0  0  0  0
  -21.0813   -8.8729   19.8919 H   0  0  0  0  0  0
  -22.3639  -10.9647   19.6186 H   0  0  0  0  0  0
  -21.2015   -7.6119   23.9724 H   0  0  0  0  0  0
  -21.1503   -6.0490   25.9075 H   0  0  0  0  0  0
  -22.0588   -2.7586   23.2861 H   0  0  0  0  0  0
  -22.4041  -11.9925   22.4866 H   0  0  0  0  0  0
  -21.1055  -13.1305   22.2609 H   0  0  0  0  0  0
  -24.6498  -15.8247   20.5269 H   0  0  0  0  0  0
  -26.2711  -15.6259   20.0985 H   0  0  0  0  0  0
  -26.7109  -32.5561   23.1133 H   0  0  0  0  0  0
  -25.0014  -33.9776   25.0428 H   0  0  0  0  0  0
  -22.6855  -31.3184   21.4249 H   0  0  0  0  0  0
  -23.3753  -35.9632   23.3320 H   0  0  0  0  0  0
  -24.3564  -36.8886   22.2038 H   0  0  0  0  0  0
  -23.7228  -37.6508   23.6617 H   0  0  0  0  0  0
  -26.8132  -30.8992   21.9722 H   0  0  0  0  0  0
  -26.0204  -31.6085   20.5907 H   0  0  0  0  0  0
  -28.0811  -29.1152   21.1730 H   0  0  0  0  0  0
  -26.0362  -26.0039   18.9818 H   0  0  0  0  0  0
  -23.9586  -27.3144   19.0291 H   0  0  0  0  0  0
  -23.7036  -30.6170   19.4128 H   0  0  0  0  0  0
  -22.7199  -29.2606   19.8701 H   0  0  0  0  0  0
  -25.1284  -36.2000   25.0825 H   0  0  0  0  0  0
  -20.9931  -28.3185   24.1463 H   0  0  0  0  0  0
  -20.5670  -26.2229   23.3591 H   0  0  0  0  0  0
  -21.6630  -26.7460   22.1207 H   0  0  0  0  0  0
  -19.6904  -25.6302   21.1238 H   0  0  0  0  0  0
  -19.6682  -27.3205   20.6758 H   0  0  0  0  0  0
  -17.4194  -26.6673   21.4021 H   0  0  0  0  0  0
  -18.0320  -26.0013   22.8986 H   0  0  0  0  0  0
  -19.7892  -30.7264   24.2296 H   0  0  0  0  0  0
  -17.4973  -31.6276   24.5133 H   0  0  0  0  0  0
  -15.5326  -30.2988   23.7658 H   0  0  0  0  0  0
  -15.8632  -28.0820   22.7090 H   0  0  0  0  0  0
  -24.5834  -30.7156   25.7736 H   0  0  0  0  0  0
  -24.8909  -32.2921   26.4910 H   0  0  0  0  0  0
  -25.7996  -30.8859   27.0197 H   0  0  0  0  0  0
  -26.2839  -29.6844   24.1155 H   0  0  0  0  0  0
  -27.4062  -29.7340   25.4560 H   0  0  0  0  0  0
  -27.8660  -30.4399   23.9240 H   0  0  0  0  0  0
  -27.2678  -33.3599   26.2124 H   0  0  0  0  0  0
  -28.3821  -32.6951   25.0287 H   0  0  0  0  0  0
  -28.0754  -31.8412   26.5328 H   0  0  0  0  0  0
  -28.2619  -38.0095   24.7517 H   0  0  0  0  0  0
  -28.1050  -36.2632   24.6290 H   0  0  0  0  0  0
  -27.2276  -37.1486   25.8853 H   0  0  0  0  0  0
  -20.9269  -29.8722   21.6958 H   0  0  0  0  0  0
  -26.0194  -38.2887   24.1408 H   0  0  0  0  0  0
  -29.8816  -24.8715   22.7805 H   0  0  0  0  0  0
  -31.8922  -23.4385   22.7349 H   0  0  0  0  0  0
  -29.2137  -24.1106   18.6104 H   0  0  0  0  0  0
  -33.4579  -22.1197   21.6330 H   0  0  0  0  0  0
  -33.6583  -22.3823   19.9089 H   0  0  0  0  0  0
  -32.7321  -20.9943   20.4934 H   0  0  0  0  0  0
  -29.2771  -22.6549   16.2858 H   0  0  0  0  0  0
  -28.2207  -22.4627   17.6685 H   0  0  0  0  0  0
  -28.3340  -21.2007   16.4593 H   0  0  0  0  0  0
  -28.6852  -16.9265   18.9337 H   0  0  0  0  0  0
  -29.0209  -15.2662   18.5439 H   0  0  0  0  0  0
  -30.2484  -16.4047   18.2752 H   0  0  0  0  0  0
  -27.9724  -15.6961   21.1918 H   0  0  0  0  0  0
  -28.6945  -17.1360   21.7751 H   0  0  0  0  0  0
  -29.2209  -15.6333   22.4368 H   0  0  0  0  0  0
  -28.0462  -19.3027   19.7836 H   0  0  0  0  0  0
  -28.0632  -19.3456   18.0367 H   0  0  0  0  0  0
  -27.5800  -20.7602   18.9679 H   0  0  0  0  0  0
  -32.1480  -21.7669   18.2454 H   0  0  0  0  0  0
  -31.3409  -23.0112   17.3768 H   0  0  0  0  0  0
  -27.8587  -25.5702   21.7568 H   0  0  0  0  0  0
  -27.4018  -24.8464   20.2330 H   0  0  0  0  0  0
  -31.3518  -19.1956   21.1116 H   0  0  0  0  0  0
  -29.7039  -18.7716   21.0287 H   0  0  0  0  0  0
  -31.4943  -16.9766   21.6418 H   0  0  0  0  0  0
  -31.9428  -16.9913   19.9677 H   0  0  0  0  0  0
  -30.4121  -18.5207   18.3195 H   0  0  0  0  0  0
  -31.6672  -19.5466   18.8793 H   0  0  0  0  0  0
  -30.5316  -20.6150   17.0184 H   0  0  0  0  0  0
  -29.8127  -20.9791   19.7513 H   0  0  0  0  0  0
  1 25  1  0  0  0
  1 30  2  0  0  0
  1 88  1  0  0  0
  2  3  1  0  0  0
  2 25  1  0  0  0
  2 90  1  0  0  0
  2 91  1  0  0  0
  3  4  1  0  0  0
  3 92  1  0  0  0
  3 93  1  0  0  0
  4  5  1  0  0  0
  4 94  1  0  0  0
  4 95  1  0  0  0
  5  6  1  0  0  0
  5 26  1  0  0  0
  5 96  1  0  0  0
  6 25  1  0  0  0
  6 97  1  0  0  0
  6 98  1  0  0  0
  7  8  2  0  0  0
  7 26  1  0  0  0
  7 29  1  0  0  0
  8  9  1  0  0  0
  8 22  1  0  0  0
  9 10  1  0  0  0
  9 27  2  0  0  0
 10 11  2  0  0  0
 10 15  1  0  0  0
 11 12  1  0  0  0
 11 99  1  0  0  0
 12 13  2  0  0  0
 12100  1  0  0  0
 13 14  1  0  0  0
 13 31  1  0  0  0
 14 15  2  0  0  0
 14101  1  0  0  0
 15102  1  0  0  0
 16 17  2  0  0  0
 16 21  1  0  0  0
 16 31  1  0  0  0
 17 18  1  0  0  0
 17103  1  0  0  0
 18 19  2  0  0  0
 18104  1  0  0  0
 19 20  1  0  0  0
 19 24  1  0  0  0
 20 21  2  0  0  0
 20105  1  0  0  0
 21 23  1  0  0  0
 22 28  1  0  0  0
 22 32  2  0  0  0
 26 27  1  0  0  0
 28106  1  0  0  0
 28107  1  0  0  0
 29108  1  0  0  0
 29109  1  0  0  0
 33 34  1  0  0  0
 33 66  1  0  0  0
 33 70  2  0  0  0
 34 36  1  0  0  0
 34 59  1  0  0  0
 34110  1  0  0  0
 35 44  2  0  0  0
 35 45  1  0  0  0
 35 68  1  0  0  0
 36 56  1  0  0  0
 36111  1  0  0  0
 37 39  1  0  0  0
 37 47  1  0  0  0
 37 66  1  0  0  0
 37112  1  0  0  0
 38 43  2  0  0  0
 38 46  1  0  0  0
 38 47  1  0  0  0
 39 64  1  0  0  0
 39 67  2  0  0  0
 40 52  1  0  0  0
 40 53  2  0  0  0
 40 58  1  0  0  0
 41113  1  0  0  0
 41114  1  0  0  0
 41115  1  0  0  0
 41 48  1  0  0  0
 42 43  1  0  0  0
 42 66  1  0  0  0
 42116  1  0  0  0
 42117  1  0  0  0
 43 44  1  0  0  0
 44118  1  0  0  0
 45 46  2  0  0  0
 45119  1  0  0  0
 46120  1  0  0  0
 47121  1  0  0  0
 47122  1  0  0  0
 48 56  1  0  0  0
 48 65  1  0  0  0
 48123  1  0  0  0
 49 50  1  0  0  0
 49 53  1  0  0  0
 49 64  1  0  0  0
 49124  1  0  0  0
 50 51  1  0  0  0
 50125  1  0  0  0
 50126  1  0  0  0
 51 52  1  0  0  0
 51127  1  0  0  0
 51128  1  0  0  0
 52129  1  0  0  0
 52130  1  0  0  0
 53 54  1  0  0  0
 54 55  2  0  0  0
 54131  1  0  0  0
 55 57  1  0  0  0
 55132  1  0  0  0
 56 69  2  0  0  0
 57 58  2  0  0  0
 57133  1  0  0  0
 58134  1  0  0  0
 59 60  1  0  0  0
 59 61  1  0  0  0
 59 62  1  0  0  0
 60135  1  0  0  0
 60136  1  0  0  0
 60137  1  0  0  0
 61138  1  0  0  0
 61139  1  0  0  0
 61140  1  0  0  0
 62141  1  0  0  0
 62142  1  0  0  0
 62143  1  0  0  0
 63 65  1  0  0  0
 63144  1  0  0  0
 63145  1  0  0  0
 63146  1  0  0  0
 64147  1  0  0  0
 65148  1  0  0  0
 68 83  1  0  0  0
 71 72  2  0  0  0
 71 74  1  0  0  0
 71149  1  0  0  0
 72 75  1  0  0  0
 72150  1  0  0  0
 73 74  2  0  0  0
 73 76  1  0  0  0
 73151  1  0  0  0
 74 83  1  0  0  0
 75 76  2  0  0  0
 75 77  1  0  0  0
 76 82  1  0  0  0
 77152  1  0  0  0
 77153  1  0  0  0
 77154  1  0  0  0
 78155  1  0  0  0
 78156  1  0  0  0
 78157  1  0  0  0
 78 87  1  0  0  0
 79158  1  0  0  0
 79159  1  0  0  0
 79160  1  0  0  0
 79 88  1  0  0  0
 80 88  1  0  0  0
 80161  1  0  0  0
 80162  1  0  0  0
 80163  1  0  0  0
 81164  1  0  0  0
 81165  1  0  0  0
 81166  1  0  0  0
 81 89  1  0  0  0
 82 87  1  0  0  0
 82167  1  0  0  0
 82168  1  0  0  0
 83169  1  0  0  0
 83170  1  0  0  0
 84 85  1  0  0  0
 84 86  1  0  0  0
 84171  1  0  0  0
 84172  1  0  0  0
 85 88  1  0  0  0
 85173  1  0  0  0
 85174  1  0  0  0
 86 89  1  0  0  0
 86175  1  0  0  0
 86176  1  0  0  0
 87 89  1  0  0  0
 87177  1  0  0  0
 89178  1  0  0  0
M  CHG  1  89   1
M  ISO  4   1 100  68 101  83 101  88 100
M  END
> <chiral flag>
0

> <version>
0

> <s_m_source_file>
/data/baiqing/PycharmProjects/Reinvent-master-3.2/result/LINK_invent/BTK/process_docking_weight1_custom_sum_contain_oxygen_bond_distance_aromatic_linkinvent_7_9_3/rearranged_h_0096.sdf

> <i_m_source_file_index>
78

> <r_mmod_Potential_Energy-OPLS-2005>
66.1205062866211

> <r_mmod_Stretch_Energy-OPLS-2005>
48.4740905761719

> <r_mmod_Bend_Energy-OPLS-2005>
125.510925292969

> <r_mmod_Torsional_Energy-OPLS-2005>
284.788421630859

> <r_mmod_Improper_Torsional_Energy-OPLS-2005>
8.15225028991699

> <r_mmod_Van_der_Waal_Energy-OPLS-2005>
179.471694946289

> <r_mmod_Electrostatic_Energy-OPLS-2005>
-207.038818359375

> <r_mmod_Solvation_Energy-OPLS-2005>
-402.156402587891

> <b_mmod_Minimization_Converged-OPLS-2005>
0

> <r_mmod_RMS_Derivative-OPLS-2005>
4.11239194869995

$$$$
78
                    3D
 Structure written by MMmdl.
172180  0  0  1  0            999 V2000
  -30.5257  -14.6990   20.5258 C   0  0  0  0  0  0
  -30.4157  -12.4258   19.4710 C   0  0  0  0  0  0
  -29.5045  -12.5140   18.2267 C   0  0  0  0  0  0
  -28.0255  -12.3263   18.6239 C   0  0  0  0  0  0
  -27.6309  -13.2097   19.8412 C   0  0  2  0  0  0
  -28.6526  -13.0614   20.9831 C   0  0  0  0  0  0
  -25.2451  -13.8126   20.5609 C   0  0  0  0  0  0
  -24.1769  -13.0418   20.9153 C   0  0  0  0  0  0
  -24.6325  -11.6859   20.8715 C   0  0  0  0  0  0
  -23.9039  -10.4239   21.0405 C   0  0  0  0  0  0
  -24.3613   -9.4152   21.9174 C   0  0  0  0  0  0
  -23.6268   -8.2214   22.0765 C   0  0  0  0  0  0
  -22.4247   -8.0272   21.3568 C   0  0  0  0  0  0
  -21.9885   -9.0229   20.4661 C   0  0  0  0  0  0
  -22.7229  -10.2086   20.3031 C   0  0  0  0  0  0
  -21.6835   -6.0728   22.5282 C   0  0  0  0  0  0
  -21.4008   -6.5630   23.8218 C   0  0  0  0  0  0
  -21.3670   -5.6797   24.9198 C   0  0  0  0  0  0
  -21.6035   -4.3048   24.7249 C   0  0  0  0  0  0
  -21.8818   -3.8137   23.4368 C   0  0  0  0  0  0
  -21.9178   -4.6955   22.3420 C   0  0  0  0  0  0
  -22.7789  -13.5184   21.1910 C   0  0  0  0  0  0
  -22.1640   -4.2148   21.0992 F   0  0  0  0  0  0
  -21.5636   -3.4523   25.7749 F   0  0  0  0  0  0
  -29.9591  -13.4489   20.4420 N   0  0  0  0  0  0
  -26.2832  -12.9297   20.3118 N   0  0  0  0  0  0
  -25.9220  -11.6450   20.5628 N   0  0  0  0  0  0
  -22.0455  -12.8165   22.0452 N   0  0  0  0  0  0
  -25.4042  -15.1893   20.4061 N   0  0  0  0  0  0
  -31.6981  -14.8783   20.1613 O   0  0  0  0  0  0
  -21.6623   -6.8881   21.4253 O   0  0  0  0  0  0
  -22.3462  -14.5485   20.6753 O   0  0  0  0  0  0
  -24.6275  -31.8625   23.2027 C   0  0  0  0  0  0
  -25.9133  -32.4794   23.8341 C   0  0  1  0  0  0
  -27.2045  -27.2773   20.1258 C   0  0  0  0  0  0
  -25.5934  -33.8598   24.2263 N   0  0  0  0  0  0
  -23.4211  -30.4904   21.5437 C   0  0  2  0  0  0
  -24.8603  -28.9366   20.1125 C   0  0  0  0  0  0
  -22.7474  -29.4757   22.4964 C   0  0  0  0  0  0
  -18.0234  -28.1432   22.8496 C   0  0  0  0  0  0
  -24.1480  -36.7268   23.2650 C   0  0  0  0  0  0
  -25.9634  -30.7791   21.3806 C   0  0  0  0  0  0
  -26.0299  -29.4028   20.7222 C   0  0  0  0  0  0
  -27.2017  -28.5830   20.7212 C   0  0  0  0  0  0
  -26.0089  -26.8808   19.4837 C   0  0  0  0  0  0
  -24.8552  -27.6862   19.4817 C   0  0  0  0  0  0
  -23.6334  -29.8235   20.1615 C   0  0  0  0  0  0
  -25.4115  -36.3076   24.0325 C   0  0  1  0  0  0
  -20.5880  -28.3878   23.1320 C   0  0  2  0  0  0
  -20.6884  -26.9641   22.5359 C   0  0  0  0  0  0
  -19.5738  -26.6528   21.5327 C   0  0  0  0  0  0
  -18.1855  -26.8034   22.1613 C   0  0  0  0  0  0
  -19.1477  -28.8929   23.2896 C   0  0  0  0  0  0
  -18.9333  -30.1548   23.8884 C   0  0  0  0  0  0
  -17.6315  -30.6708   24.0448 C   0  0  0  0  0  0
  -25.9053  -34.9475   23.5097 C   0  0  0  0  0  0
  -16.5216  -29.9173   23.6244 C   0  0  0  0  0  0
  -16.7216  -28.6536   23.0407 C   0  0  0  0  0  0
  -26.4492  -31.6577   25.0688 C   0  0  0  0  0  0
  -25.3717  -31.3704   26.1390 C   0  0  0  0  0  0
  -27.0355  -30.3016   24.6158 C   0  0  0  0  0  0
  -27.6057  -32.4309   25.7435 C   0  0  0  0  0  0
  -27.5574  -37.1794   24.8477 C   0  0  0  0  0  0
  -21.4176  -29.3270   22.3744 N   0  0  0  0  0  0
  -26.4297  -37.3762   23.9415 N   0  0  0  0  0  0
  -24.6911  -31.0618   22.0983 N   0  0  0  0  0  0
  -23.4146  -28.8186   23.3008 O   0  0  0  0  0  0
  -28.3246  -26.4206   20.2214 O   0  0  0  0  0  0
  -26.5657  -34.8956   22.4671 O   0  0  0  0  0  0
  -23.5418  -32.1448   23.7309 O   0  0  0  0  0  0
  -27.3306  -19.9612   21.8003 C   0  0  0  0  0  0
  -27.6315  -17.7645   21.8831 C   0  0  0  0  0  0
  -28.5079  -19.7229   21.1356 C   0  0  0  0  0  0
  -28.7175  -18.2483   21.1871 C   0  0  0  0  0  0
  -21.1635  -19.9681   23.6988 C   0  0  0  0  0  0
  -22.3262  -21.5561   25.1974 C   0  0  0  0  0  0
  -29.3089  -20.9648   20.5825 C   0  0  0  0  0  0
  -29.8536  -17.2559   20.6670 C   0  0  0  0  0  0
  -28.5210  -22.2609   20.0177 C   0  0  0  0  0  0
  -28.5762  -23.7305   20.6881 C   0  0  0  0  0  0
  -24.5660  -19.7547   23.0751 C   0  0  0  0  0  0
  -25.6198  -18.6284   23.1382 C   0  0  0  0  0  0
  -23.5498  -19.6349   24.2136 C   0  0  0  0  0  0
  -28.3362  -25.0024   19.7264 C   0  0  0  0  0  0
  -26.8010  -18.7893   22.2845 N   0  0  0  0  0  0
  -29.6762  -15.7499   20.8396 N   0  0  0  0  0  0
  -22.4437  -20.6152   24.0613 N   0  3  0  0  0  0
  -31.4614  -12.5521   19.1987 H   0  0  0  0  0  0
  -30.3356  -11.4318   19.9131 H   0  0  0  0  0  0
  -29.7912  -11.7547   17.4976 H   0  0  0  0  0  0
  -29.6305  -13.4821   17.7286 H   0  0  0  0  0  0
  -27.8837  -11.2693   18.8650 H   0  0  0  0  0  0
  -27.3696  -12.5266   17.7720 H   0  0  0  0  0  0
  -27.6438  -14.2440   19.4891 H   0  0  0  0  0  0
  -28.6801  -12.0253   21.3319 H   0  0  0  0  0  0
  -28.3688  -13.6591   21.8489 H   0  0  0  0  0  0
  -25.2778   -9.5623   22.4730 H   0  0  0  0  0  0
  -23.9991   -7.4595   22.7441 H   0  0  0  0  0  0
  -21.0850   -8.8765   19.8934 H   0  0  0  0  0  0
  -22.3743  -10.9637   19.6124 H   0  0  0  0  0  0
  -21.1999   -7.6132   23.9751 H   0  0  0  0  0  0
  -21.1494   -6.0504   25.9113 H   0  0  0  0  0  0
  -22.0586   -2.7591   23.2865 H   0  0  0  0  0  0
  -22.4114  -11.9829   22.4844 H   0  0  0  0  0  0
  -21.1053  -13.1162   22.2685 H   0  0  0  0  0  0
  -24.6027  -15.8052   20.4852 H   0  0  0  0  0  0
  -26.2338  -15.6622   20.0740 H   0  0  0  0  0  0
  -26.7184  -32.5428   23.1066 H   0  0  0  0  0  0
  -24.9997  -33.9689   25.0357 H   0  0  0  0  0  0
  -22.7165  -31.3138   21.4042 H   0  0  0  0  0  0
  -23.3757  -35.9586   23.3315 H   0  0  0  0  0  0
  -24.3565  -36.8890   22.2060 H   0  0  0  0  0  0
  -23.7224  -37.6471   23.6667 H   0  0  0  0  0  0
  -26.1041  -31.5395   20.6107 H   0  0  0  0  0  0
  -26.8401  -30.8164   22.0162 H   0  0  0  0  0  0
  -28.0982  -28.9363   21.2166 H   0  0  0  0  0  0
  -25.9004  -25.9340   18.9837 H   0  0  0  0  0  0
  -23.9601  -27.3264   18.9914 H   0  0  0  0  0  0
  -23.7444  -30.5968   19.4054 H   0  0  0  0  0  0
  -22.7488  -29.2586   19.8663 H   0  0  0  0  0  0
  -25.1295  -36.1916   25.0821 H   0  0  0  0  0  0
  -20.9930  -28.3529   24.1493 H   0  0  0  0  0  0
  -20.6332  -26.2429   23.3475 H   0  0  0  0  0  0
  -21.6707  -26.8131   22.0864 H   0  0  0  0  0  0
  -19.6879  -25.6462   21.1308 H   0  0  0  0  0  0
  -19.6736  -27.3397   20.6876 H   0  0  0  0  0  0
  -17.4211  -26.7126   21.3866 H   0  0  0  0  0  0
  -17.9935  -26.0153   22.8882 H   0  0  0  0  0  0
  -19.7779  -30.7451   24.2245 H   0  0  0  0  0  0
  -17.4807  -31.6500   24.4843 H   0  0  0  0  0  0
  -15.5151  -30.3104   23.7440 H   0  0  0  0  0  0
  -15.8636  -28.0831   22.7176 H   0  0  0  0  0  0
  -24.5907  -30.7043   25.7681 H   0  0  0  0  0  0
  -24.8884  -32.2862   26.4820 H   0  0  0  0  0  0
  -25.8020  -30.8861   27.0173 H   0  0  0  0  0  0
  -26.2929  -29.6749   24.1211 H   0  0  0  0  0  0
  -27.4085  -29.7274   25.4652 H   0  0  0  0  0  0
  -27.8776  -30.4303   23.9358 H   0  0  0  0  0  0
  -27.2700  -33.3637   26.1997 H   0  0  0  0  0  0
  -28.3865  -32.6858   25.0244 H   0  0  0  0  0  0
  -28.0751  -31.8463   26.5362 H   0  0  0  0  0  0
  -28.2603  -38.0074   24.7514 H   0  0  0  0  0  0
  -28.1052  -36.2618   24.6312 H   0  0  0  0  0  0
  -27.2293  -37.1442   25.8878 H   0  0  0  0  0  0
  -20.9338  -29.9165   21.7128 H   0  0  0  0  0  0
  -26.0170  -38.2838   24.1431 H   0  0  0  0  0  0
  -26.8334  -20.9029   22.0007 H   0  0  0  0  0  0
  -27.3736  -16.7505   22.1769 H   0  0  0  0  0  0
  -20.3993  -20.7052   23.4590 H   0  0  0  0  0  0
  -20.7965  -19.3382   24.5084 H   0  0  0  0  0  0
  -21.2932  -19.3374   22.8148 H   0  0  0  0  0  0
  -21.5454  -22.2913   25.0119 H   0  0  0  0  0  0
  -23.2603  -22.1061   25.3385 H   0  0  0  0  0  0
  -22.0986  -21.0399   26.1268 H   0  0  0  0  0  0
  -29.9487  -20.5835   19.7863 H   0  0  0  0  0  0
  -29.9978  -21.2943   21.3651 H   0  0  0  0  0  0
  -30.7897  -17.5488   21.1497 H   0  0  0  0  0  0
  -29.9949  -17.4338   19.5978 H   0  0  0  0  0  0
  -27.4780  -21.9987   19.8206 H   0  0  0  0  0  0
  -28.9355  -22.4121   19.0216 H   0  0  0  0  0  0
  -29.5412  -23.8579   21.1762 H   0  0  0  0  0  0
  -27.8401  -23.7490   21.4958 H   0  0  0  0  0  0
  -24.0492  -19.7094   22.1158 H   0  0  0  0  0  0
  -25.0201  -20.7443   23.1520 H   0  0  0  0  0  0
  -25.9791  -18.5352   24.1635 H   0  0  0  0  0  0
  -25.1222  -17.6854   22.8940 H   0  0  0  0  0  0
  -24.0636  -19.7672   25.1722 H   0  0  0  0  0  0
  -23.1649  -18.6175   24.2274 H   0  0  0  0  0  0
  -27.4974  -24.7623   19.0829 H   0  0  0  0  0  0
  -29.1774  -24.9924   19.0358 H   0  0  0  0  0  0
  -28.7575  -15.4553   21.1336 H   0  0  0  0  0  0
  -22.6804  -21.1951   23.2707 H   0  0  0  0  0  0
  1 25  1  0  0  0
  1 30  2  0  0  0
  1 86  1  0  0  0
  2  3  1  0  0  0
  2 25  1  0  0  0
  2 88  1  0  0  0
  2 89  1  0  0  0
  3  4  1  0  0  0
  3 90  1  0  0  0
  3 91  1  0  0  0
  4  5  1  0  0  0
  4 92  1  0  0  0
  4 93  1  0  0  0
  5  6  1  0  0  0
  5 26  1  0  0  0
  5 94  1  0  0  0
  6 25  1  0  0  0
  6 95  1  0  0  0
  6 96  1  0  0  0
  7  8  2  0  0  0
  7 26  1  0  0  0
  7 29  1  0  0  0
  8  9  1  0  0  0
  8 22  1  0  0  0
  9 10  1  0  0  0
  9 27  2  0  0  0
 10 11  2  0  0  0
 10 15  1  0  0  0
 11 12  1  0  0  0
 11 97  1  0  0  0
 12 13  2  0  0  0
 12 98  1  0  0  0
 13 14  1  0  0  0
 13 31  1  0  0  0
 14 15  2  0  0  0
 14 99  1  0  0  0
 15100  1  0  0  0
 16 17  2  0  0  0
 16 21  1  0  0  0
 16 31  1  0  0  0
 17 18  1  0  0  0
 17101  1  0  0  0
 18 19  2  0  0  0
 18102  1  0  0  0
 19 20  1  0  0  0
 19 24  1  0  0  0
 20 21  2  0  0  0
 20103  1  0  0  0
 21 23  1  0  0  0
 22 28  1  0  0  0
 22 32  2  0  0  0
 26 27  1  0  0  0
 28104  1  0  0  0
 28105  1  0  0  0
 29106  1  0  0  0
 29107  1  0  0  0
 33 34  1  0  0  0
 33 66  1  0  0  0
 33 70  2  0  0  0
 34 36  1  0  0  0
 34 59  1  0  0  0
 34108  1  0  0  0
 35 44  2  0  0  0
 35 45  1  0  0  0
 35 68  1  0  0  0
 36 56  1  0  0  0
 36109  1  0  0  0
 37 39  1  0  0  0
 37 47  1  0  0  0
 37 66  1  0  0  0
 37110  1  0  0  0
 38 43  2  0  0  0
 38 46  1  0  0  0
 38 47  1  0  0  0
 39 64  1  0  0  0
 39 67  2  0  0  0
 40 52  1  0  0  0
 40 53  2  0  0  0
 40 58  1  0  0  0
 41111  1  0  0  0
 41112  1  0  0  0
 41113  1  0  0  0
 41 48  1  0  0  0
 42 43  1  0  0  0
 42 66  1  0  0  0
 42114  1  0  0  0
 42115  1  0  0  0
 43 44  1  0  0  0
 44116  1  0  0  0
 45 46  2  0  0  0
 45117  1  0  0  0
 46118  1  0  0  0
 47119  1  0  0  0
 47120  1  0  0  0
 48 56  1  0  0  0
 48 65  1  0  0  0
 48121  1  0  0  0
 49 50  1  0  0  0
 49 53  1  0  0  0
 49 64  1  0  0  0
 49122  1  0  0  0
 50 51  1  0  0  0
 50123  1  0  0  0
 50124  1  0  0  0
 51 52  1  0  0  0
 51125  1  0  0  0
 51126  1  0  0  0
 52127  1  0  0  0
 52128  1  0  0  0
 53 54  1  0  0  0
 54 55  2  0  0  0
 54129  1  0  0  0
 55 57  1  0  0  0
 55130  1  0  0  0
 56 69  2  0  0  0
 57 58  2  0  0  0
 57131  1  0  0  0
 58132  1  0  0  0
 59 60  1  0  0  0
 59 61  1  0  0  0
 59 62  1  0  0  0
 60133  1  0  0  0
 60134  1  0  0  0
 60135  1  0  0  0
 61136  1  0  0  0
 61137  1  0  0  0
 61138  1  0  0  0
 62139  1  0  0  0
 62140  1  0  0  0
 62141  1  0  0  0
 63 65  1  0  0  0
 63142  1  0  0  0
 63143  1  0  0  0
 63144  1  0  0  0
 64145  1  0  0  0
 65146  1  0  0  0
 68 84  1  0  0  0
 71 73  2  0  0  0
 71 85  1  0  0  0
 71147  1  0  0  0
 72 74  2  0  0  0
 72 85  1  0  0  0
 72148  1  0  0  0
 73 74  1  0  0  0
 73 77  1  0  0  0
 74 78  1  0  0  0
 75149  1  0  0  0
 75150  1  0  0  0
 75151  1  0  0  0
 75 87  1  0  0  0
 76 87  1  0  0  0
 76152  1  0  0  0
 76153  1  0  0  0
 76154  1  0  0  0
 77 79  1  0  0  0
 77155  1  0  0  0
 77156  1  0  0  0
 78 86  1  0  0  0
 78157  1  0  0  0
 78158  1  0  0  0
 79 80  1  0  0  0
 79159  1  0  0  0
 79160  1  0  0  0
 80 84  1  0  0  0
 80161  1  0  0  0
 80162  1  0  0  0
 81 82  1  0  0  0
 81 83  1  0  0  0
 81163  1  0  0  0
 81164  1  0  0  0
 82 85  1  0  0  0
 82165  1  0  0  0
 82166  1  0  0  0
 83 87  1  0  0  0
 83167  1  0  0  0
 83168  1  0  0  0
 84169  1  0  0  0
 84170  1  0  0  0
 86171  1  0  0  0
 87172  1  0  0  0
M  CHG  1  87   1
M  ISO  4   1 100  68 101  84 101  86 100
M  END
> <chiral flag>
0

> <version>
0

> <s_m_source_file>
/data/baiqing/PycharmProjects/Reinvent-master-3.2/result/LINK_invent/BTK/process_docking_weight1_custom_sum_contain_oxygen_bond_distance_aromatic_linkinvent_7_9_3/rearranged_h_0096.sdf

> <i_m_source_file_index>
79

> <r_mmod_Potential_Energy-OPLS-2005>
-24.2995624542236

> <r_mmod_Stretch_Energy-OPLS-2005>
120.172653198242

> <r_mmod_Bend_Energy-OPLS-2005>
192.815673828125

> <r_mmod_Torsional_Energy-OPLS-2005>
234.852813720703

> <r_mmod_Improper_Torsional_Energy-OPLS-2005>
5.03377056121826

> <r_mmod_Van_der_Waal_Energy-OPLS-2005>
118.139701843262

> <r_mmod_Electrostatic_Energy-OPLS-2005>
-298.166625976562

> <r_mmod_Solvation_Energy-OPLS-2005>
-470.148193359375

> <b_mmod_Minimization_Converged-OPLS-2005>
0

> <r_mmod_RMS_Derivative-OPLS-2005>
8.16359424591064

$$$$
79
                    3D
 Structure written by MMmdl.
176184  0  0  1  0            999 V2000
  -30.6711  -14.5260   20.6012 C   0  0  0  0  0  0
  -30.4318  -12.3491   19.4326 C   0  0  0  0  0  0
  -29.5012  -12.5219   18.2127 C   0  0  0  0  0  0
  -28.0222  -12.3684   18.6202 C   0  0  0  0  0  0
  -27.6601  -13.2070   19.8741 C   0  0  2  0  0  0
  -28.6968  -12.9851   20.9944 C   0  0  0  0  0  0
  -25.2585  -13.8150   20.5678 C   0  0  0  0  0  0
  -24.1834  -13.0426   20.9166 C   0  0  0  0  0  0
  -24.6386  -11.6893   20.8716 C   0  0  0  0  0  0
  -23.9052  -10.4284   21.0397 C   0  0  0  0  0  0
  -24.3602   -9.4207   21.9178 C   0  0  0  0  0  0
  -23.6282   -8.2237   22.0752 C   0  0  0  0  0  0
  -22.4273   -8.0267   21.3540 C   0  0  0  0  0  0
  -21.9904   -9.0240   20.4643 C   0  0  0  0  0  0
  -22.7221  -10.2124   20.3047 C   0  0  0  0  0  0
  -21.6851   -6.0731   22.5277 C   0  0  0  0  0  0
  -21.4014   -6.5634   23.8207 C   0  0  0  0  0  0
  -21.3663   -5.6791   24.9175 C   0  0  0  0  0  0
  -21.6045   -4.3052   24.7230 C   0  0  0  0  0  0
  -21.8823   -3.8143   23.4348 C   0  0  0  0  0  0
  -21.9192   -4.6959   22.3401 C   0  0  0  0  0  0
  -22.7864  -13.5229   21.1834 C   0  0  0  0  0  0
  -22.1662   -4.2142   21.0982 F   0  0  0  0  0  0
  -21.5631   -3.4537   25.7742 F   0  0  0  0  0  0
  -30.0241  -13.3293   20.4562 N   0  0  0  0  0  0
  -26.3011  -12.9315   20.3344 N   0  0  0  0  0  0
  -25.9307  -11.6473   20.5734 N   0  0  0  0  0  0
  -22.0504  -12.8222   22.0393 N   0  0  0  0  0  0
  -25.4323  -15.1870   20.4119 N   0  0  0  0  0  0
  -31.7675  -14.7399   20.0738 O   0  0  0  0  0  0
  -21.6636   -6.8870   21.4236 O   0  0  0  0  0  0
  -22.3548  -14.5537   20.6691 O   0  0  0  0  0  0
  -24.6192  -31.8639   23.2071 C   0  0  0  0  0  0
  -25.9067  -32.4798   23.8382 C   0  0  1  0  0  0
  -27.2298  -27.3851   20.1061 C   0  0  0  0  0  0
  -25.5908  -33.8602   24.2309 N   0  0  0  0  0  0
  -23.4107  -30.4861   21.5480 C   0  0  2  0  0  0
  -24.8580  -28.9430   20.1159 C   0  0  0  0  0  0
  -22.7434  -29.4636   22.4971 C   0  0  0  0  0  0
  -18.0274  -28.1367   22.8492 C   0  0  0  0  0  0
  -24.1489  -36.7311   23.2641 C   0  0  0  0  0  0
  -25.9439  -30.8097   21.3725 C   0  0  0  0  0  0
  -26.0206  -29.4392   20.7219 C   0  0  0  0  0  0
  -27.2103  -28.6650   20.7191 C   0  0  0  0  0  0
  -26.0550  -26.9186   19.4827 C   0  0  0  0  0  0
  -24.8719  -27.6820   19.4941 C   0  0  0  0  0  0
  -23.6230  -29.8168   20.1636 C   0  0  0  0  0  0
  -25.4111  -36.3101   24.0331 C   0  0  1  0  0  0
  -20.5867  -28.3665   23.1297 C   0  0  2  0  0  0
  -20.6759  -26.9393   22.5412 C   0  0  0  0  0  0
  -19.5739  -26.6375   21.5210 C   0  0  0  0  0  0
  -18.1915  -26.7913   22.1619 C   0  0  0  0  0  0
  -19.1524  -28.8834   23.2886 C   0  0  0  0  0  0
  -18.9458  -30.1441   23.8892 C   0  0  0  0  0  0
  -17.6460  -30.6575   24.0562 C   0  0  0  0  0  0
  -25.9044  -34.9464   23.5116 C   0  0  0  0  0  0
  -16.5349  -29.9077   23.6332 C   0  0  0  0  0  0
  -16.7264  -28.6490   23.0356 C   0  0  0  0  0  0
  -26.4477  -31.6593   25.0732 C   0  0  0  0  0  0
  -25.3724  -31.3703   26.1467 C   0  0  0  0  0  0
  -27.0336  -30.3032   24.6154 C   0  0  0  0  0  0
  -27.6041  -32.4332   25.7495 C   0  0  0  0  0  0
  -27.5578  -37.1804   24.8462 C   0  0  0  0  0  0
  -21.4155  -29.3030   22.3703 N   0  0  0  0  0  0
  -26.4293  -37.3785   23.9401 N   0  0  0  0  0  0
  -24.6761  -31.0691   22.1003 N   0  0  0  0  0  0
  -23.4178  -28.8189   23.3039 O   0  0  0  0  0  0
  -28.3621  -26.5885   20.0753 O   0  0  0  0  0  0
  -26.5607  -34.8917   22.4682 O   0  0  0  0  0  0
  -23.5373  -32.1426   23.7426 O   0  0  0  0  0  0
  -29.5502  -21.7760   18.5572 C   0  0  0  0  0  0
  -29.5382  -20.3250   20.4815 C   0  0  0  0  0  0
  -29.2446  -21.6077   19.9190 C   0  0  0  0  0  0
  -30.1788  -20.7669   17.7999 C   0  0  0  0  0  0
  -30.1807  -19.2745   19.7521 C   0  0  0  0  0  0
  -30.5366  -19.5125   18.3824 C   0  0  0  0  0  0
  -30.4800  -21.1096   16.3450 C   0  0  0  0  0  0
  -30.8403  -17.0805   17.4271 C   0  0  0  0  0  0
  -32.8662  -18.5894   17.8517 C   0  0  0  0  0  0
  -29.2180  -22.8417   22.1415 C   0  0  0  0  0  0
  -27.0843  -22.4532   20.8630 C   0  0  0  0  0  0
  -29.8599  -15.5901   22.6508 C   0  0  0  0  0  0
  -30.5665  -17.9693   20.5112 C   0  0  0  0  0  0
  -29.5293  -16.7954   20.5139 C   0  0  0  0  0  0
  -28.7361  -24.2161   20.0623 C   0  0  0  0  0  0
  -31.3646  -18.5201   17.5251 C   0  0  0  0  0  0
  -28.5852  -22.7782   20.7324 C   0  0  0  0  0  0
  -28.1509  -25.3403   20.8290 N   0  0  0  0  0  0
  -29.9626  -15.5352   21.1900 N   0  0  0  0  0  0
  -31.4743  -12.4699   19.1326 H   0  0  0  0  0  0
  -30.3567  -11.3361   19.8316 H   0  0  0  0  0  0
  -29.7522  -11.7940   17.4401 H   0  0  0  0  0  0
  -29.6574  -13.5058   17.7673 H   0  0  0  0  0  0
  -27.8410  -11.3113   18.8184 H   0  0  0  0  0  0
  -27.3709  -12.6368   17.7876 H   0  0  0  0  0  0
  -27.7045  -14.2560   19.5808 H   0  0  0  0  0  0
  -28.6901  -11.9432   21.3183 H   0  0  0  0  0  0
  -28.4267  -13.5592   21.8779 H   0  0  0  0  0  0
  -25.2751   -9.5687   22.4753 H   0  0  0  0  0  0
  -23.9994   -7.4638   22.7475 H   0  0  0  0  0  0
  -21.0834   -8.8754   19.8948 H   0  0  0  0  0  0
  -22.3677  -10.9659   19.6156 H   0  0  0  0  0  0
  -21.2006   -7.6147   23.9710 H   0  0  0  0  0  0
  -21.1483   -6.0523   25.9076 H   0  0  0  0  0  0
  -22.0600   -2.7604   23.2852 H   0  0  0  0  0  0
  -22.4120  -11.9881   22.4772 H   0  0  0  0  0  0
  -21.1120  -13.1246   22.2594 H   0  0  0  0  0  0
  -24.6710  -15.8461   20.5293 H   0  0  0  0  0  0
  -26.2962  -15.6258   20.1193 H   0  0  0  0  0  0
  -26.7136  -32.5483   23.1142 H   0  0  0  0  0  0
  -25.0061  -33.9765   25.0458 H   0  0  0  0  0  0
  -22.7007  -31.3028   21.4055 H   0  0  0  0  0  0
  -23.3747  -35.9646   23.3317 H   0  0  0  0  0  0
  -24.3577  -36.8930   22.2052 H   0  0  0  0  0  0
  -23.7250  -37.6519   23.6659 H   0  0  0  0  0  0
  -26.0668  -31.5714   20.6012 H   0  0  0  0  0  0
  -26.8279  -30.8615   21.9964 H   0  0  0  0  0  0
  -28.1089  -29.0395   21.1891 H   0  0  0  0  0  0
  -26.0567  -25.9570   18.9879 H   0  0  0  0  0  0
  -23.9818  -27.2953   19.0171 H   0  0  0  0  0  0
  -23.7345  -30.5916   19.4040 H   0  0  0  0  0  0
  -22.7445  -29.2395   19.8684 H   0  0  0  0  0  0
  -25.1291  -36.1965   25.0824 H   0  0  0  0  0  0
  -20.9949  -28.3235   24.1427 H   0  0  0  0  0  0
  -20.5659  -26.2274   23.3602 H   0  0  0  0  0  0
  -21.6626  -26.7420   22.1211 H   0  0  0  0  0  0
  -19.6898  -25.6292   21.1229 H   0  0  0  0  0  0
  -19.6684  -27.3189   20.6742 H   0  0  0  0  0  0
  -17.4192  -26.6679   21.4012 H   0  0  0  0  0  0
  -18.0304  -26.0043   22.8998 H   0  0  0  0  0  0
  -19.7939  -30.7254   24.2253 H   0  0  0  0  0  0
  -17.5023  -31.6257   24.5163 H   0  0  0  0  0  0
  -15.5348  -30.2980   23.7658 H   0  0  0  0  0  0
  -15.8664  -28.0812   22.7067 H   0  0  0  0  0  0
  -24.5922  -30.7025   25.7799 H   0  0  0  0  0  0
  -24.8882  -32.2853   26.4882 H   0  0  0  0  0  0
  -25.8072  -30.8902   27.0243 H   0  0  0  0  0  0
  -26.2902  -29.6760   24.1216 H   0  0  0  0  0  0
  -27.4109  -29.7306   25.4637 H   0  0  0  0  0  0
  -27.8732  -30.4360   23.9327 H   0  0  0  0  0  0
  -27.2660  -33.3645   26.2053 H   0  0  0  0  0  0
  -28.3847  -32.6872   25.0311 H   0  0  0  0  0  0
  -28.0703  -31.8468   26.5424 H   0  0  0  0  0  0
  -28.2593  -38.0107   24.7518 H   0  0  0  0  0  0
  -28.1086  -36.2634   24.6288 H   0  0  0  0  0  0
  -27.2295  -37.1453   25.8868 H   0  0  0  0  0  0
  -20.9315  -29.8770   21.6943 H   0  0  0  0  0  0
  -26.0189  -38.2865   24.1408 H   0  0  0  0  0  0
  -29.3178  -22.7062   18.0625 H   0  0  0  0  0  0
  -29.2904  -20.1391   21.5163 H   0  0  0  0  0  0
  -30.1556  -22.1179   16.0858 H   0  0  0  0  0  0
  -29.9592  -20.4273   15.6721 H   0  0  0  0  0  0
  -31.5514  -21.0581   16.1477 H   0  0  0  0  0  0
  -29.7637  -17.0581   17.2579 H   0  0  0  0  0  0
  -31.0813  -16.4830   18.2983 H   0  0  0  0  0  0
  -31.3061  -16.5673   16.5853 H   0  0  0  0  0  0
  -33.2446  -19.6011   17.7037 H   0  0  0  0  0  0
  -33.4393  -17.9303   17.1994 H   0  0  0  0  0  0
  -33.0940  -18.3081   18.8776 H   0  0  0  0  0  0
  -29.0409  -21.9372   22.7211 H   0  0  0  0  0  0
  -28.8109  -23.6596   22.7353 H   0  0  0  0  0  0
  -30.2958  -22.9931   22.0795 H   0  0  0  0  0  0
  -26.9265  -21.4870   21.3433 H   0  0  0  0  0  0
  -26.6046  -22.4131   19.8845 H   0  0  0  0  0  0
  -26.5536  -23.1965   21.4580 H   0  0  0  0  0  0
  -28.8211  -15.7177   22.9571 H   0  0  0  0  0  0
  -30.4336  -16.4278   23.0466 H   0  0  0  0  0  0
  -30.2369  -14.6843   23.1301 H   0  0  0  0  0  0
  -30.7645  -18.2509   21.5462 H   0  0  0  0  0  0
  -31.5238  -17.6000   20.1573 H   0  0  0  0  0  0
  -29.2228  -16.5470   19.4996 H   0  0  0  0  0  0
  -28.6133  -17.1453   20.9903 H   0  0  0  0  0  0
  -28.2571  -24.2208   19.0823 H   0  0  0  0  0  0
  -29.7947  -24.4257   19.9021 H   0  0  0  0  0  0
  -31.3042  -18.8257   16.4859 H   0  0  0  0  0  0
  -27.1442  -25.2209   20.8800 H   0  0  0  0  0  0
  1 25  1  0  0  0
  1 30  2  0  0  0
  1 89  1  0  0  0
  2  3  1  0  0  0
  2 25  1  0  0  0
  2 90  1  0  0  0
  2 91  1  0  0  0
  3  4  1  0  0  0
  3 92  1  0  0  0
  3 93  1  0  0  0
  4  5  1  0  0  0
  4 94  1  0  0  0
  4 95  1  0  0  0
  5  6  1  0  0  0
  5 26  1  0  0  0
  5 96  1  0  0  0
  6 25  1  0  0  0
  6 97  1  0  0  0
  6 98  1  0  0  0
  7  8  2  0  0  0
  7 26  1  0  0  0
  7 29  1  0  0  0
  8  9  1  0  0  0
  8 22  1  0  0  0
  9 10  1  0  0  0
  9 27  2  0  0  0
 10 11  2  0  0  0
 10 15  1  0  0  0
 11 12  1  0  0  0
 11 99  1  0  0  0
 12 13  2  0  0  0
 12100  1  0  0  0
 13 14  1  0  0  0
 13 31  1  0  0  0
 14 15  2  0  0  0
 14101  1  0  0  0
 15102  1  0  0  0
 16 17  2  0  0  0
 16 21  1  0  0  0
 16 31  1  0  0  0
 17 18  1  0  0  0
 17103  1  0  0  0
 18 19  2  0  0  0
 18104  1  0  0  0
 19 20  1  0  0  0
 19 24  1  0  0  0
 20 21  2  0  0  0
 20105  1  0  0  0
 21 23  1  0  0  0
 22 28  1  0  0  0
 22 32  2  0  0  0
 26 27  1  0  0  0
 28106  1  0  0  0
 28107  1  0  0  0
 29108  1  0  0  0
 29109  1  0  0  0
 33 34  1  0  0  0
 33 66  1  0  0  0
 33 70  2  0  0  0
 34 36  1  0  0  0
 34 59  1  0  0  0
 34110  1  0  0  0
 35 44  2  0  0  0
 35 45  1  0  0  0
 35 68  1  0  0  0
 36 56  1  0  0  0
 36111  1  0  0  0
 37 39  1  0  0  0
 37 47  1  0  0  0
 37 66  1  0  0  0
 37112  1  0  0  0
 38 43  2  0  0  0
 38 46  1  0  0  0
 38 47  1  0  0  0
 39 64  1  0  0  0
 39 67  2  0  0  0
 40 52  1  0  0  0
 40 53  2  0  0  0
 40 58  1  0  0  0
 41113  1  0  0  0
 41114  1  0  0  0
 41115  1  0  0  0
 41 48  1  0  0  0
 42 43  1  0  0  0
 42 66  1  0  0  0
 42116  1  0  0  0
 42117  1  0  0  0
 43 44  1  0  0  0
 44118  1  0  0  0
 45 46  2  0  0  0
 45119  1  0  0  0
 46120  1  0  0  0
 47121  1  0  0  0
 47122  1  0  0  0
 48 56  1  0  0  0
 48 65  1  0  0  0
 48123  1  0  0  0
 49 50  1  0  0  0
 49 53  1  0  0  0
 49 64  1  0  0  0
 49124  1  0  0  0
 50 51  1  0  0  0
 50125  1  0  0  0
 50126  1  0  0  0
 51 52  1  0  0  0
 51127  1  0  0  0
 51128  1  0  0  0
 52129  1  0  0  0
 52130  1  0  0  0
 53 54  1  0  0  0
 54 55  2  0  0  0
 54131  1  0  0  0
 55 57  1  0  0  0
 55132  1  0  0  0
 56 69  2  0  0  0
 57 58  2  0  0  0
 57133  1  0  0  0
 58134  1  0  0  0
 59 60  1  0  0  0
 59 61  1  0  0  0
 59 62  1  0  0  0
 60135  1  0  0  0
 60136  1  0  0  0
 60137  1  0  0  0
 61138  1  0  0  0
 61139  1  0  0  0
 61140  1  0  0  0
 62141  1  0  0  0
 62142  1  0  0  0
 62143  1  0  0  0
 63 65  1  0  0  0
 63144  1  0  0  0
 63145  1  0  0  0
 63146  1  0  0  0
 64147  1  0  0  0
 65148  1  0  0  0
 68 88  1  0  0  0
 71 73  2  0  0  0
 71 74  1  0  0  0
 71149  1  0  0  0
 72 73  1  0  0  0
 72 75  2  0  0  0
 72150  1  0  0  0
 73 87  1  0  0  0
 74 76  2  0  0  0
 74 77  1  0  0  0
 75 76  1  0  0  0
 75 83  1  0  0  0
 76 86  1  0  0  0
 77151  1  0  0  0
 77152  1  0  0  0
 77153  1  0  0  0
 78154  1  0  0  0
 78155  1  0  0  0
 78156  1  0  0  0
 78 86  1  0  0  0
 79 86  1  0  0  0
 79157  1  0  0  0
 79158  1  0  0  0
 79159  1  0  0  0
 80160  1  0  0  0
 80161  1  0  0  0
 80162  1  0  0  0
 80 87  1  0  0  0
 81 87  1  0  0  0
 81163  1  0  0  0
 81164  1  0  0  0
 81165  1  0  0  0
 82 89  1  0  0  0
 82166  1  0  0  0
 82167  1  0  0  0
 82168  1  0  0  0
 83 84  1  0  0  0
 83169  1  0  0  0
 83170  1  0  0  0
 84 89  1  0  0  0
 84171  1  0  0  0
 84172  1  0  0  0
 85 87  1  0  0  0
 85 88  1  0  0  0
 85173  1  0  0  0
 85174  1  0  0  0
 86175  1  0  0  0
 88176  1  0  0  0
M  ISO  4   1 100  68 101  88 101  89 100
M  END
> <chiral flag>
0

> <version>
0

> <s_m_source_file>
/data/baiqing/PycharmProjects/Reinvent-master-3.2/result/LINK_invent/BTK/process_docking_weight1_custom_sum_contain_oxygen_bond_distance_aromatic_linkinvent_7_9_3/rearranged_h_0096.sdf

> <i_m_source_file_index>
80

> <r_mmod_Potential_Energy-OPLS-2005>
130.068099975586

> <r_mmod_Stretch_Energy-OPLS-2005>
66.7853546142578

> <r_mmod_Bend_Energy-OPLS-2005>
123.889274597168

> <r_mmod_Torsional_Energy-OPLS-2005>
301.685729980469

> <r_mmod_Improper_Torsional_Energy-OPLS-2005>
5.08923292160034

> <r_mmod_Van_der_Waal_Energy-OPLS-2005>
154.275390625

> <r_mmod_Electrostatic_Energy-OPLS-2005>
-356.679534912109

> <r_mmod_Solvation_Energy-OPLS-2005>
-185.154754638672

> <b_mmod_Minimization_Converged-OPLS-2005>
0

> <r_mmod_RMS_Derivative-OPLS-2005>
1.2394984960556

$$$$
80
                    3D
 Structure written by MMmdl.
154162  0  0  1  0            999 V2000
  -30.5728  -15.0291   20.3876 C   0  0  0  0  0  0
  -30.4400  -12.6450   19.4983 C   0  0  0  0  0  0
  -29.5158  -12.4914   18.2668 C   0  0  0  0  0  0
  -28.0498  -12.2915   18.6866 C   0  0  0  0  0  0
  -27.6230  -13.2507   19.8261 C   0  0  2  0  0  0
  -28.6727  -13.3494   20.9561 C   0  0  0  0  0  0
  -25.2504  -13.8232   20.5774 C   0  0  0  0  0  0
  -24.1807  -13.0474   20.9241 C   0  0  0  0  0  0
  -24.6387  -11.6940   20.8734 C   0  0  0  0  0  0
  -23.9055  -10.4314   21.0370 C   0  0  0  0  0  0
  -24.3619   -9.4229   21.9154 C   0  0  0  0  0  0
  -23.6329   -8.2241   22.0707 C   0  0  0  0  0  0
  -22.4305   -8.0262   21.3494 C   0  0  0  0  0  0
  -21.9911   -9.0231   20.4600 C   0  0  0  0  0  0
  -22.7213  -10.2146   20.3028 C   0  0  0  0  0  0
  -21.6891   -6.0722   22.5285 C   0  0  0  0  0  0
  -21.4003   -6.5632   23.8200 C   0  0  0  0  0  0
  -21.3672   -5.6794   24.9169 C   0  0  0  0  0  0
  -21.6046   -4.3059   24.7235 C   0  0  0  0  0  0
  -21.8835   -3.8144   23.4356 C   0  0  0  0  0  0
  -21.9210   -4.6943   22.3412 C   0  0  0  0  0  0
  -22.7819  -13.5204   21.1929 C   0  0  0  0  0  0
  -22.1696   -4.2123   21.0987 F   0  0  0  0  0  0
  -21.5620   -3.4550   25.7754 F   0  0  0  0  0  0
  -29.9397  -13.7757   20.3422 N   0  0  0  0  0  0
  -26.2898  -12.9459   20.3277 N   0  0  0  0  0  0
  -25.9320  -11.6588   20.5723 N   0  0  0  0  0  0
  -22.0536  -12.8128   22.0459 N   0  0  0  0  0  0
  -25.4292  -15.1955   20.4235 N   0  0  0  0  0  0
  -31.7770  -15.0336   20.1259 O   0  0  0  0  0  0
  -21.6685   -6.8850   21.4233 O   0  0  0  0  0  0
  -22.3461  -14.5508   20.6774 O   0  0  0  0  0  0
  -24.6496  -31.8380   23.1801 C   0  0  0  0  0  0
  -25.9214  -32.4694   23.8232 C   0  0  1  0  0  0
  -27.2197  -27.0876   20.1470 C   0  0  0  0  0  0
  -25.5909  -33.8491   24.2167 N   0  0  0  0  0  0
  -23.4555  -30.4524   21.5328 C   0  0  2  0  0  0
  -24.9058  -28.8696   20.1160 C   0  0  0  0  0  0
  -22.7607  -29.4490   22.4886 C   0  0  0  0  0  0
  -18.0284  -28.1456   22.8451 C   0  0  0  0  0  0
  -24.1453  -36.7228   23.2643 C   0  0  0  0  0  0
  -26.0135  -30.7039   21.3754 C   0  0  0  0  0  0
  -26.0906  -29.3082   20.7177 C   0  0  0  0  0  0
  -27.2513  -28.4352   20.7070 C   0  0  0  0  0  0
  -25.9992  -26.7542   19.5186 C   0  0  0  0  0  0
  -24.8747  -27.6112   19.5027 C   0  0  0  0  0  0
  -23.6834  -29.7725   20.1570 C   0  0  0  0  0  0
  -25.4092  -36.3023   24.0321 C   0  0  1  0  0  0
  -20.5883  -28.3736   23.1250 C   0  0  2  0  0  0
  -20.6778  -26.9455   22.5424 C   0  0  0  0  0  0
  -19.5777  -26.6411   21.5217 C   0  0  0  0  0  0
  -18.1930  -26.7986   22.1606 C   0  0  0  0  0  0
  -19.1545  -28.8935   23.2808 C   0  0  0  0  0  0
  -18.9460  -30.1502   23.8868 C   0  0  0  0  0  0
  -17.6476  -30.6640   24.0584 C   0  0  0  0  0  0
  -25.9057  -34.9393   23.5074 C   0  0  0  0  0  0
  -16.5365  -29.9154   23.6386 C   0  0  0  0  0  0
  -16.7255  -28.6578   23.0370 C   0  0  0  0  0  0
  -26.4511  -31.6592   25.0717 C   0  0  0  0  0  0
  -25.3659  -31.3768   26.1399 C   0  0  0  0  0  0
  -27.0396  -30.3027   24.6254 C   0  0  0  0  0  0
  -27.6079  -32.4385   25.7448 C   0  0  0  0  0  0
  -27.5543  -37.1735   24.8475 C   0  0  0  0  0  0
  -21.4295  -29.3033   22.3657 N   0  0  0  0  0  0
  -26.4247  -37.3768   23.9443 N   0  0  0  0  0  0
  -24.7288  -31.0141   22.0892 N   0  0  0  0  0  0
  -23.4230  -28.8060   23.3077 O   0  0  0  0  0  0
  -28.2878  -26.1022   20.1718 O   0  0  0  0  0  0
  -26.5679  -34.8895   22.4669 O   0  0  0  0  0  0
  -23.5584  -32.1263   23.6952 O   0  0  0  0  0  0
  -29.6163  -20.5215   19.8031 C   0  0  0  0  0  0
  -29.6542  -19.2858   20.5263 C   0  0  0  0  0  0
  -29.1589  -19.7638   21.7966 C   0  0  0  0  0  0
  -28.9179  -21.1426   21.7768 C   0  0  0  0  0  0
  -28.9993  -18.9050   23.0373 C   0  0  0  0  0  0
  -28.5527  -21.9916   22.9577 C   0  0  0  0  0  0
  -30.2826  -17.7670   20.1105 C   0  0  0  0  0  0
  -29.1595  -23.2601   20.0552 C   0  0  0  0  0  0
  -28.0714  -24.5465   20.3783 C   0  0  0  0  0  0
  -29.1504  -21.7075   20.5131 N   0  0  0  0  0  0
  -29.8596  -16.2733   20.4950 N   0  0  0  0  0  0
  -31.4569  -12.8180   19.1443 H   0  0  0  0  0  0
  -30.4841  -11.7228   20.0791 H   0  0  0  0  0  0
  -29.8314  -11.6394   17.6639 H   0  0  0  0  0  0
  -29.5989  -13.3701   17.6312 H   0  0  0  0  0  0
  -27.9271  -11.2544   19.0031 H   0  0  0  0  0  0
  -27.3909  -12.4112   17.8262 H   0  0  0  0  0  0
  -27.5619  -14.2334   19.3589 H   0  0  0  0  0  0
  -28.7904  -12.3919   21.4645 H   0  0  0  0  0  0
  -28.3538  -14.0678   21.7136 H   0  0  0  0  0  0
  -25.2761   -9.5753   22.4718 H   0  0  0  0  0  0
  -24.0095   -7.4615   22.7378 H   0  0  0  0  0  0
  -21.0846   -8.8688   19.8875 H   0  0  0  0  0  0
  -22.3609  -10.9666   19.6133 H   0  0  0  0  0  0
  -21.1981   -7.6134   23.9687 H   0  0  0  0  0  0
  -21.1477   -6.0522   25.9057 H   0  0  0  0  0  0
  -22.0605   -2.7602   23.2884 H   0  0  0  0  0  0
  -22.4306  -11.9861   22.4879 H   0  0  0  0  0  0
  -21.1086  -13.0959   22.2623 H   0  0  0  0  0  0
  -24.6944  -15.8717   20.5869 H   0  0  0  0  0  0
  -26.2739  -15.6178   20.0670 H   0  0  0  0  0  0
  -26.7321  -32.5319   23.0989 H   0  0  0  0  0  0
  -25.0038  -33.9641   25.0290 H   0  0  0  0  0  0
  -22.7593  -31.2758   21.3693 H   0  0  0  0  0  0
  -23.3763  -35.9521   23.3305 H   0  0  0  0  0  0
  -24.3525  -36.8882   22.2064 H   0  0  0  0  0  0
  -23.7135  -37.6387   23.6699 H   0  0  0  0  0  0
  -26.1472  -31.4499   20.5898 H   0  0  0  0  0  0
  -26.8899  -30.7783   22.0054 H   0  0  0  0  0  0
  -28.1650  -28.7708   21.1804 H   0  0  0  0  0  0
  -25.8694  -25.7943   19.0368 H   0  0  0  0  0  0
  -23.9631  -27.2766   19.0291 H   0  0  0  0  0  0
  -23.8153  -30.5356   19.3912 H   0  0  0  0  0  0
  -22.8005  -29.2047   19.8593 H   0  0  0  0  0  0
  -25.1255  -36.1881   25.0818 H   0  0  0  0  0  0
  -20.9888  -28.3334   24.1391 H   0  0  0  0  0  0
  -20.5700  -26.2333   23.3624 H   0  0  0  0  0  0
  -21.6638  -26.7542   22.1184 H   0  0  0  0  0  0
  -19.6942  -25.6294   21.1300 H   0  0  0  0  0  0
  -19.6739  -27.3171   20.6718 H   0  0  0  0  0  0
  -17.4207  -26.6705   21.4013 H   0  0  0  0  0  0
  -18.0337  -26.0144   22.9026 H   0  0  0  0  0  0
  -19.7927  -30.7308   24.2238 H   0  0  0  0  0  0
  -17.5038  -31.6309   24.5184 H   0  0  0  0  0  0
  -15.5349  -30.3073   23.7700 H   0  0  0  0  0  0
  -15.8638  -28.0887   22.7143 H   0  0  0  0  0  0
  -24.5837  -30.7173   25.7637 H   0  0  0  0  0  0
  -24.8822  -32.2935   26.4809 H   0  0  0  0  0  0
  -25.7851  -30.8907   27.0212 H   0  0  0  0  0  0
  -26.3024  -29.6761   24.1262 H   0  0  0  0  0  0
  -27.4086  -29.7347   25.4783 H   0  0  0  0  0  0
  -27.8864  -30.4351   23.9526 H   0  0  0  0  0  0
  -27.2772  -33.3779   26.1897 H   0  0  0  0  0  0
  -28.3886  -32.6831   25.0227 H   0  0  0  0  0  0
  -28.0768  -31.8615   26.5426 H   0  0  0  0  0  0
  -28.2578  -38.0024   24.7581 H   0  0  0  0  0  0
  -28.1029  -36.2568   24.6256 H   0  0  0  0  0  0
  -27.2287  -37.1343   25.8888 H   0  0  0  0  0  0
  -20.9577  -29.8707   21.6748 H   0  0  0  0  0  0
  -26.0127  -38.2822   24.1578 H   0  0  0  0  0  0
  -29.9632  -20.6925   18.7921 H   0  0  0  0  0  0
  -28.5805  -17.9304   22.7989 H   0  0  0  0  0  0
  -28.3271  -19.3660   23.7628 H   0  0  0  0  0  0
  -29.9568  -18.7476   23.5358 H   0  0  0  0  0  0
  -28.7417  -23.0504   22.7951 H   0  0  0  0  0  0
  -29.1461  -21.7057   23.8292 H   0  0  0  0  0  0
  -27.5068  -21.8609   23.2345 H   0  0  0  0  0  0
  -31.3387  -17.8284   20.3830 H   0  0  0  0  0  0
  -30.3237  -17.7690   19.0213 H   0  0  0  0  0  0
  -30.1310  -23.6310   20.3683 H   0  0  0  0  0  0
  -29.2510  -23.2288   18.9700 H   0  0  0  0  0  0
  -27.8246  -24.4846   21.4343 H   0  0  0  0  0  0
  -27.1486  -24.2711   19.8743 H   0  0  0  0  0  0
  -28.8756  -16.1663   20.6761 H   0  0  0  0  0  0
  1 25  1  0  0  0
  1 30  2  0  0  0
  1 81  1  0  0  0
  2  3  1  0  0  0
  2 25  1  0  0  0
  2 82  1  0  0  0
  2 83  1  0  0  0
  3  4  1  0  0  0
  3 84  1  0  0  0
  3 85  1  0  0  0
  4  5  1  0  0  0
  4 86  1  0  0  0
  4 87  1  0  0  0
  5  6  1  0  0  0
  5 26  1  0  0  0
  5 88  1  0  0  0
  6 25  1  0  0  0
  6 89  1  0  0  0
  6 90  1  0  0  0
  7  8  2  0  0  0
  7 26  1  0  0  0
  7 29  1  0  0  0
  8  9  1  0  0  0
  8 22  1  0  0  0
  9 10  1  0  0  0
  9 27  2  0  0  0
 10 11  2  0  0  0
 10 15  1  0  0  0
 11 12  1  0  0  0
 11 91  1  0  0  0
 12 13  2  0  0  0
 12 92  1  0  0  0
 13 14  1  0  0  0
 13 31  1  0  0  0
 14 15  2  0  0  0
 14 93  1  0  0  0
 15 94  1  0  0  0
 16 17  2  0  0  0
 16 21  1  0  0  0
 16 31  1  0  0  0
 17 18  1  0  0  0
 17 95  1  0  0  0
 18 19  2  0  0  0
 18 96  1  0  0  0
 19 20  1  0  0  0
 19 24  1  0  0  0
 20 21  2  0  0  0
 20 97  1  0  0  0
 21 23  1  0  0  0
 22 28  1  0  0  0
 22 32  2  0  0  0
 26 27  1  0  0  0
 28 98  1  0  0  0
 28 99  1  0  0  0
 29100  1  0  0  0
 29101  1  0  0  0
 33 34  1  0  0  0
 33 66  1  0  0  0
 33 70  2  0  0  0
 34 36  1  0  0  0
 34 59  1  0  0  0
 34102  1  0  0  0
 35 44  2  0  0  0
 35 45  1  0  0  0
 35 68  1  0  0  0
 36 56  1  0  0  0
 36103  1  0  0  0
 37 39  1  0  0  0
 37 47  1  0  0  0
 37 66  1  0  0  0
 37104  1  0  0  0
 38 43  2  0  0  0
 38 46  1  0  0  0
 38 47  1  0  0  0
 39 64  1  0  0  0
 39 67  2  0  0  0
 40 52  1  0  0  0
 40 53  2  0  0  0
 40 58  1  0  0  0
 41105  1  0  0  0
 41106  1  0  0  0
 41107  1  0  0  0
 41 48  1  0  0  0
 42 43  1  0  0  0
 42 66  1  0  0  0
 42108  1  0  0  0
 42109  1  0  0  0
 43 44  1  0  0  0
 44110  1  0  0  0
 45 46  2  0  0  0
 45111  1  0  0  0
 46112  1  0  0  0
 47113  1  0  0  0
 47114  1  0  0  0
 48 56  1  0  0  0
 48 65  1  0  0  0
 48115  1  0  0  0
 49 50  1  0  0  0
 49 53  1  0  0  0
 49 64  1  0  0  0
 49116  1  0  0  0
 50 51  1  0  0  0
 50117  1  0  0  0
 50118  1  0  0  0
 51 52  1  0  0  0
 51119  1  0  0  0
 51120  1  0  0  0
 52121  1  0  0  0
 52122  1  0  0  0
 53 54  1  0  0  0
 54 55  2  0  0  0
 54123  1  0  0  0
 55 57  1  0  0  0
 55124  1  0  0  0
 56 69  2  0  0  0
 57 58  2  0  0  0
 57125  1  0  0  0
 58126  1  0  0  0
 59 60  1  0  0  0
 59 61  1  0  0  0
 59 62  1  0  0  0
 60127  1  0  0  0
 60128  1  0  0  0
 60129  1  0  0  0
 61130  1  0  0  0
 61131  1  0  0  0
 61132  1  0  0  0
 62133  1  0  0  0
 62134  1  0  0  0
 62135  1  0  0  0
 63 65  1  0  0  0
 63136  1  0  0  0
 63137  1  0  0  0
 63138  1  0  0  0
 64139  1  0  0  0
 65140  1  0  0  0
 68 79  1  0  0  0
 71 72  2  0  0  0
 71 80  1  0  0  0
 71141  1  0  0  0
 72 73  1  0  0  0
 72 77  1  0  0  0
 73 74  2  0  0  0
 73 75  1  0  0  0
 74 76  1  0  0  0
 74 80  1  0  0  0
 75142  1  0  0  0
 75143  1  0  0  0
 75144  1  0  0  0
 76145  1  0  0  0
 76146  1  0  0  0
 76147  1  0  0  0
 77 81  1  0  0  0
 77148  1  0  0  0
 77149  1  0  0  0
 78 79  1  0  0  0
 78 80  1  0  0  0
 78150  1  0  0  0
 78151  1  0  0  0
 79152  1  0  0  0
 79153  1  0  0  0
 81154  1  0  0  0
M  ISO  4   1 100  68 101  79 101  81 100
M  END
> <chiral flag>
0

> <version>
0

> <s_m_source_file>
/data/baiqing/PycharmProjects/Reinvent-master-3.2/result/LINK_invent/BTK/process_docking_weight1_custom_sum_contain_oxygen_bond_distance_aromatic_linkinvent_7_9_3/rearranged_h_0096.sdf

> <i_m_source_file_index>
81

> <r_mmod_Potential_Energy-OPLS-2005>
571.156127929688

> <r_mmod_Stretch_Energy-OPLS-2005>
317.641662597656

> <r_mmod_Bend_Energy-OPLS-2005>
306.248565673828

> <r_mmod_Torsional_Energy-OPLS-2005>
228.43669128418

> <r_mmod_Improper_Torsional_Energy-OPLS-2005>
7.90929651260376

> <r_mmod_Van_der_Waal_Energy-OPLS-2005>
108.675827026367

> <r_mmod_Electrostatic_Energy-OPLS-2005>
-419.404541015625

> <r_mmod_Solvation_Energy-OPLS-2005>
-218.867294311523

> <b_mmod_Minimization_Converged-OPLS-2005>
0

> <r_mmod_RMS_Derivative-OPLS-2005>
6.90276575088501

$$$$
81
                    3D
 Structure written by MMmdl.
170178  0  0  1  0            999 V2000
  -30.6357  -14.6922   20.5066 C   0  0  0  0  0  0
  -30.4283  -12.4312   19.4621 C   0  0  0  0  0  0
  -29.5064  -12.5088   18.2281 C   0  0  0  0  0  0
  -28.0322  -12.3365   18.6415 C   0  0  0  0  0  0
  -27.6428  -13.2284   19.8519 C   0  0  2  0  0  0
  -28.6859  -13.1331   20.9848 C   0  0  0  0  0  0
  -25.2514  -13.8197   20.5677 C   0  0  0  0  0  0
  -24.1798  -13.0449   20.9190 C   0  0  0  0  0  0
  -24.6387  -11.6925   20.8736 C   0  0  0  0  0  0
  -23.9071  -10.4305   21.0408 C   0  0  0  0  0  0
  -24.3626   -9.4222   21.9182 C   0  0  0  0  0  0
  -23.6298   -8.2257   22.0752 C   0  0  0  0  0  0
  -22.4279   -8.0286   21.3546 C   0  0  0  0  0  0
  -21.9918   -9.0258   20.4648 C   0  0  0  0  0  0
  -22.7245  -10.2141   20.3057 C   0  0  0  0  0  0
  -21.6856   -6.0735   22.5276 C   0  0  0  0  0  0
  -21.4026   -6.5639   23.8211 C   0  0  0  0  0  0
  -21.3664   -5.6790   24.9171 C   0  0  0  0  0  0
  -21.6046   -4.3052   24.7218 C   0  0  0  0  0  0
  -21.8817   -3.8141   23.4338 C   0  0  0  0  0  0
  -21.9197   -4.6963   22.3397 C   0  0  0  0  0  0
  -22.7820  -13.5232   21.1839 C   0  0  0  0  0  0
  -22.1653   -4.2153   21.0974 F   0  0  0  0  0  0
  -21.5633   -3.4530   25.7726 F   0  0  0  0  0  0
  -29.9899  -13.4827   20.4071 N   0  0  0  0  0  0
  -26.2934  -12.9398   20.3265 N   0  0  0  0  0  0
  -25.9315  -11.6543   20.5743 N   0  0  0  0  0  0
  -22.0458  -12.8243   22.0416 N   0  0  0  0  0  0
  -25.4213  -15.1928   20.4126 N   0  0  0  0  0  0
  -31.8146  -14.7761   20.1547 O   0  0  0  0  0  0
  -21.6643   -6.8880   21.4239 O   0  0  0  0  0  0
  -22.3509  -14.5524   20.6663 O   0  0  0  0  0  0
  -24.6277  -31.8565   23.1976 C   0  0  0  0  0  0
  -25.9116  -32.4759   23.8315 C   0  0  1  0  0  0
  -27.2289  -27.2970   20.1309 C   0  0  0  0  0  0
  -25.5923  -33.8558   24.2255 N   0  0  0  0  0  0
  -23.4228  -30.4777   21.5405 C   0  0  2  0  0  0
  -24.8710  -28.9189   20.1183 C   0  0  0  0  0  0
  -22.7475  -29.4620   22.4925 C   0  0  0  0  0  0
  -18.0280  -28.1382   22.8489 C   0  0  0  0  0  0
  -24.1490  -36.7289   23.2645 C   0  0  0  0  0  0
  -25.9646  -30.7827   21.3684 C   0  0  0  0  0  0
  -26.0416  -29.4040   20.7177 C   0  0  0  0  0  0
  -27.2265  -28.6072   20.7083 C   0  0  0  0  0  0
  -26.0376  -26.8582   19.5207 C   0  0  0  0  0  0
  -24.8719  -27.6510   19.5109 C   0  0  0  0  0  0
  -23.6398  -29.8034   20.1596 C   0  0  0  0  0  0
  -25.4116  -36.3070   24.0332 C   0  0  1  0  0  0
  -20.5889  -28.3693   23.1284 C   0  0  2  0  0  0
  -20.6775  -26.9417   22.5417 C   0  0  0  0  0  0
  -19.5753  -26.6382   21.5218 C   0  0  0  0  0  0
  -18.1927  -26.7925   22.1623 C   0  0  0  0  0  0
  -19.1539  -28.8849   23.2884 C   0  0  0  0  0  0
  -18.9461  -30.1453   23.8901 C   0  0  0  0  0  0
  -17.6464  -30.6585   24.0568 C   0  0  0  0  0  0
  -25.9051  -34.9443   23.5095 C   0  0  0  0  0  0
  -16.5351  -29.9087   23.6333 C   0  0  0  0  0  0
  -16.7274  -28.6505   23.0351 C   0  0  0  0  0  0
  -26.4492  -31.6573   25.0696 C   0  0  0  0  0  0
  -25.3726  -31.3735   26.1425 C   0  0  0  0  0  0
  -27.0328  -30.2987   24.6165 C   0  0  0  0  0  0
  -27.6040  -32.4313   25.7478 C   0  0  0  0  0  0
  -27.5580  -37.1799   24.8466 C   0  0  0  0  0  0
  -21.4189  -29.3041   22.3662 N   0  0  0  0  0  0
  -26.4290  -37.3772   23.9408 N   0  0  0  0  0  0
  -24.6908  -31.0558   22.0928 N   0  0  0  0  0  0
  -23.4184  -28.8176   23.3029 O   0  0  0  0  0  0
  -28.3446  -26.4477   20.0904 O   0  0  0  0  0  0
  -26.5630  -34.8921   22.4670 O   0  0  0  0  0  0
  -23.5438  -32.1375   23.7295 O   0  0  0  0  0  0
  -28.3702  -20.6721   19.2855 C   0  0  0  0  0  0
  -29.6219  -19.8158   21.1345 C   0  0  0  0  0  0
  -29.0261  -20.9707   20.4970 C   0  0  0  0  0  0
  -28.3292  -19.3405   18.8016 C   0  0  0  0  0  0
  -29.5496  -18.4840   20.5867 C   0  0  0  0  0  0
  -28.5763  -18.7354   16.3499 C   0  0  0  0  0  0
  -28.5217  -23.3568   23.5798 C   0  0  0  0  0  0
  -31.8031  -17.4904   21.2096 C   0  0  0  0  0  0
  -30.5477  -22.7437   21.4194 C   0  0  0  0  0  0
  -27.6085  -19.0263   17.5038 C   0  0  0  0  0  0
  -28.2300  -22.3578   22.4389 C   0  0  0  0  0  0
  -28.5261  -23.6968   20.2047 C   0  0  0  0  0  0
  -28.3121  -25.1682   20.8506 C   0  0  0  0  0  0
  -30.2831  -17.2385   21.2366 C   0  0  2  0  0  0
  -29.0603  -22.4487   21.1173 C   0  0  2  0  0  0
  -28.9033  -18.2782   19.4218 N   0  0  0  0  0  0
  -29.8977  -15.8060   20.8594 N   0  0  0  0  0  0
  -31.4701  -12.5469   19.1576 H   0  0  0  0  0  0
  -30.3627  -11.4464   19.9281 H   0  0  0  0  0  0
  -29.7835  -11.7443   17.5006 H   0  0  0  0  0  0
  -29.6387  -13.4703   17.7303 H   0  0  0  0  0  0
  -27.8832  -11.2859   18.8950 H   0  0  0  0  0  0
  -27.3767  -12.5389   17.7951 H   0  0  0  0  0  0
  -27.6469  -14.2567   19.4881 H   0  0  0  0  0  0
  -28.7114  -12.1252   21.4017 H   0  0  0  0  0  0
  -28.4231  -13.7940   21.8118 H   0  0  0  0  0  0
  -25.2778   -9.5697   22.4748 H   0  0  0  0  0  0
  -24.0008   -7.4657   22.7472 H   0  0  0  0  0  0
  -21.0843   -8.8777   19.8959 H   0  0  0  0  0  0
  -22.3699  -10.9675   19.6160 H   0  0  0  0  0  0
  -21.2014   -7.6147   23.9718 H   0  0  0  0  0  0
  -21.1491   -6.0515   25.9079 H   0  0  0  0  0  0
  -22.0592   -2.7603   23.2833 H   0  0  0  0  0  0
  -22.4065  -11.9925   22.4857 H   0  0  0  0  0  0
  -21.1067  -13.1274   22.2567 H   0  0  0  0  0  0
  -24.6538  -15.8435   20.5336 H   0  0  0  0  0  0
  -26.2661  -15.6400   20.0793 H   0  0  0  0  0  0
  -26.7191  -32.5425   23.1066 H   0  0  0  0  0  0
  -25.0040  -33.9691   25.0376 H   0  0  0  0  0  0
  -22.7193  -31.2991   21.3917 H   0  0  0  0  0  0
  -23.3745  -35.9626   23.3300 H   0  0  0  0  0  0
  -24.3582  -36.8916   22.2061 H   0  0  0  0  0  0
  -23.7251  -37.6495   23.6668 H   0  0  0  0  0  0
  -26.0960  -31.5431   20.5961 H   0  0  0  0  0  0
  -26.8451  -30.8357   21.9979 H   0  0  0  0  0  0
  -28.1319  -28.9831   21.1643 H   0  0  0  0  0  0
  -26.0131  -25.8856   19.0493 H   0  0  0  0  0  0
  -23.9753  -27.2729   19.0387 H   0  0  0  0  0  0
  -23.7602  -30.5752   19.3987 H   0  0  0  0  0  0
  -22.7587  -29.2325   19.8602 H   0  0  0  0  0  0
  -25.1298  -36.1910   25.0826 H   0  0  0  0  0  0
  -20.9987  -28.3267   24.1404 H   0  0  0  0  0  0
  -20.5666  -26.2310   23.3616 H   0  0  0  0  0  0
  -21.6642  -26.7428   22.1215 H   0  0  0  0  0  0
  -19.6913  -25.6289   21.1245 H   0  0  0  0  0  0
  -19.6687  -27.3192   20.6747 H   0  0  0  0  0  0
  -17.4202  -26.6682   21.4020 H   0  0  0  0  0  0
  -18.0314  -26.0059   22.9012 H   0  0  0  0  0  0
  -19.7945  -30.7267   24.2263 H   0  0  0  0  0  0
  -17.5023  -31.6265   24.5169 H   0  0  0  0  0  0
  -15.5356  -30.2994   23.7650 H   0  0  0  0  0  0
  -15.8673  -28.0828   22.7063 H   0  0  0  0  0  0
  -24.5884  -30.7099   25.7764 H   0  0  0  0  0  0
  -24.8937  -32.2916   26.4845 H   0  0  0  0  0  0
  -25.8042  -30.8916   27.0207 H   0  0  0  0  0  0
  -26.2900  -29.6739   24.1189 H   0  0  0  0  0  0
  -27.4018  -29.7243   25.4674 H   0  0  0  0  0  0
  -27.8775  -30.4262   23.9389 H   0  0  0  0  0  0
  -27.2631  -33.3615   26.2044 H   0  0  0  0  0  0
  -28.3856  -32.6879   25.0313 H   0  0  0  0  0  0
  -28.0697  -31.8450   26.5411 H   0  0  0  0  0  0
  -28.2595  -38.0099   24.7492 H   0  0  0  0  0  0
  -28.1074  -36.2621   24.6295 H   0  0  0  0  0  0
  -27.2299  -37.1456   25.8874 H   0  0  0  0  0  0
  -20.9356  -29.8765   21.6882 H   0  0  0  0  0  0
  -26.0163  -38.2849   24.1392 H   0  0  0  0  0  0
  -27.8875  -21.4552   18.7207 H   0  0  0  0  0  0
  -30.1505  -19.9476   22.0673 H   0  0  0  0  0  0
  -28.0272  -18.5336   15.4302 H   0  0  0  0  0  0
  -29.1951  -17.8640   16.5657 H   0  0  0  0  0  0
  -29.2392  -19.5835   16.1734 H   0  0  0  0  0  0
  -27.9763  -23.0629   24.4761 H   0  0  0  0  0  0
  -28.2089  -24.3736   23.3618 H   0  0  0  0  0  0
  -29.5751  -23.3796   23.8552 H   0  0  0  0  0  0
  -32.0510  -18.4512   21.6611 H   0  0  0  0  0  0
  -32.1797  -17.5011   20.1872 H   0  0  0  0  0  0
  -32.3529  -16.7347   21.7704 H   0  0  0  0  0  0
  -30.9721  -22.0382   22.1325 H   0  0  0  0  0  0
  -30.7014  -23.7386   21.8326 H   0  0  0  0  0  0
  -31.1433  -22.6817   20.5079 H   0  0  0  0  0  0
  -26.9607  -19.8611   17.2369 H   0  0  0  0  0  0
  -26.9485  -18.1725   17.6593 H   0  0  0  0  0  0
  -27.1669  -22.3723   22.1968 H   0  0  0  0  0  0
  -28.3922  -21.3791   22.8928 H   0  0  0  0  0  0
  -29.1977  -23.7961   19.3514 H   0  0  0  0  0  0
  -27.5641  -23.4178   19.7763 H   0  0  0  0  0  0
  -29.1108  -25.3159   21.5746 H   0  0  0  0  0  0
  -27.3928  -25.1420   21.4365 H   0  0  0  0  0  0
  -29.9958  -17.2966   22.2871 H   0  0  0  0  0  0
  -28.9132  -15.6225   20.9773 H   0  0  0  0  0  0
  1 25  1  0  0  0
  1 30  2  0  0  0
  1 87  1  0  0  0
  2  3  1  0  0  0
  2 25  1  0  0  0
  2 88  1  0  0  0
  2 89  1  0  0  0
  3  4  1  0  0  0
  3 90  1  0  0  0
  3 91  1  0  0  0
  4  5  1  0  0  0
  4 92  1  0  0  0
  4 93  1  0  0  0
  5  6  1  0  0  0
  5 26  1  0  0  0
  5 94  1  0  0  0
  6 25  1  0  0  0
  6 95  1  0  0  0
  6 96  1  0  0  0
  7  8  2  0  0  0
  7 26  1  0  0  0
  7 29  1  0  0  0
  8  9  1  0  0  0
  8 22  1  0  0  0
  9 10  1  0  0  0
  9 27  2  0  0  0
 10 11  2  0  0  0
 10 15  1  0  0  0
 11 12  1  0  0  0
 11 97  1  0  0  0
 12 13  2  0  0  0
 12 98  1  0  0  0
 13 14  1  0  0  0
 13 31  1  0  0  0
 14 15  2  0  0  0
 14 99  1  0  0  0
 15100  1  0  0  0
 16 17  2  0  0  0
 16 21  1  0  0  0
 16 31  1  0  0  0
 17 18  1  0  0  0
 17101  1  0  0  0
 18 19  2  0  0  0
 18102  1  0  0  0
 19 20  1  0  0  0
 19 24  1  0  0  0
 20 21  2  0  0  0
 20103  1  0  0  0
 21 23  1  0  0  0
 22 28  1  0  0  0
 22 32  2  0  0  0
 26 27  1  0  0  0
 28104  1  0  0  0
 28105  1  0  0  0
 29106  1  0  0  0
 29107  1  0  0  0
 33 34  1  0  0  0
 33 66  1  0  0  0
 33 70  2  0  0  0
 34 36  1  0  0  0
 34 59  1  0  0  0
 34108  1  0  0  0
 35 44  2  0  0  0
 35 45  1  0  0  0
 35 68  1  0  0  0
 36 56  1  0  0  0
 36109  1  0  0  0
 37 39  1  0  0  0
 37 47  1  0  0  0
 37 66  1  0  0  0
 37110  1  0  0  0
 38 43  2  0  0  0
 38 46  1  0  0  0
 38 47  1  0  0  0
 39 64  1  0  0  0
 39 67  2  0  0  0
 40 52  1  0  0  0
 40 53  2  0  0  0
 40 58  1  0  0  0
 41111  1  0  0  0
 41112  1  0  0  0
 41113  1  0  0  0
 41 48  1  0  0  0
 42 43  1  0  0  0
 42 66  1  0  0  0
 42114  1  0  0  0
 42115  1  0  0  0
 43 44  1  0  0  0
 44116  1  0  0  0
 45 46  2  0  0  0
 45117  1  0  0  0
 46118  1  0  0  0
 47119  1  0  0  0
 47120  1  0  0  0
 48 56  1  0  0  0
 48 65  1  0  0  0
 48121  1  0  0  0
 49 50  1  0  0  0
 49 53  1  0  0  0
 49 64  1  0  0  0
 49122  1  0  0  0
 50 51  1  0  0  0
 50123  1  0  0  0
 50124  1  0  0  0
 51 52  1  0  0  0
 51125  1  0  0  0
 51126  1  0  0  0
 52127  1  0  0  0
 52128  1  0  0  0
 53 54  1  0  0  0
 54 55  2  0  0  0
 54129  1  0  0  0
 55 57  1  0  0  0
 55130  1  0  0  0
 56 69  2  0  0  0
 57 58  2  0  0  0
 57131  1  0  0  0
 58132  1  0  0  0
 59 60  1  0  0  0
 59 61  1  0  0  0
 59 62  1  0  0  0
 60133  1  0  0  0
 60134  1  0  0  0
 60135  1  0  0  0
 61136  1  0  0  0
 61137  1  0  0  0
 61138  1  0  0  0
 62139  1  0  0  0
 62140  1  0  0  0
 62141  1  0  0  0
 63 65  1  0  0  0
 63142  1  0  0  0
 63143  1  0  0  0
 63144  1  0  0  0
 64145  1  0  0  0
 65146  1  0  0  0
 68 83  1  0  0  0
 71 73  2  0  0  0
 71 74  1  0  0  0
 71147  1  0  0  0
 72 73  1  0  0  0
 72 75  2  0  0  0
 72148  1  0  0  0
 73 85  1  0  0  0
 74 80  1  0  0  0
 74 86  2  0  0  0
 75 84  1  0  0  0
 75 86  1  0  0  0
 76 80  1  0  0  0
 76149  1  0  0  0
 76150  1  0  0  0
 76151  1  0  0  0
 77 81  1  0  0  0
 77152  1  0  0  0
 77153  1  0  0  0
 77154  1  0  0  0
 78155  1  0  0  0
 78156  1  0  0  0
 78157  1  0  0  0
 78 84  1  0  0  0
 79158  1  0  0  0
 79159  1  0  0  0
 79160  1  0  0  0
 79 85  1  0  0  0
 80161  1  0  0  0
 80162  1  0  0  0
 81 85  1  0  0  0
 81163  1  0  0  0
 81164  1  0  0  0
 82 83  1  0  0  0
 82 85  1  0  0  0
 82165  1  0  0  0
 82166  1  0  0  0
 83167  1  0  0  0
 83168  1  0  0  0
 84 87  1  0  0  0
 84169  1  0  0  0
 87170  1  0  0  0
M  ISO  4   1 100  68 101  83 101  87 100
M  END
> <chiral flag>
0

> <version>
0

> <s_m_source_file>
/data/baiqing/PycharmProjects/Reinvent-master-3.2/result/LINK_invent/BTK/process_docking_weight1_custom_sum_contain_oxygen_bond_distance_aromatic_linkinvent_7_9_3/rearranged_h_0096.sdf

> <i_m_source_file_index>
82

> <r_mmod_Potential_Energy-OPLS-2005>
-155.443344116211

> <r_mmod_Stretch_Energy-OPLS-2005>
113.772994995117

> <r_mmod_Bend_Energy-OPLS-2005>
177.819671630859

> <r_mmod_Torsional_Energy-OPLS-2005>
228.220306396484

> <r_mmod_Improper_Torsional_Energy-OPLS-2005>
3.3691508769989

> <r_mmod_Van_der_Waal_Energy-OPLS-2005>
146.035842895508

> <r_mmod_Electrostatic_Energy-OPLS-2005>
-684.541564941406

> <r_mmod_Solvation_Energy-OPLS-2005>
-200.909255981445

> <b_mmod_Minimization_Converged-OPLS-2005>
0

> <r_mmod_RMS_Derivative-OPLS-2005>
1.90893316268921

$$$$
82
                    3D
 Structure written by MMmdl.
181189  0  0  1  0            999 V2000
  -30.6221  -14.7161   20.4779 C   0  0  0  0  0  0
  -30.4382  -12.4442   19.4650 C   0  0  0  0  0  0
  -29.5156  -12.5202   18.2306 C   0  0  0  0  0  0
  -28.0392  -12.3433   18.6384 C   0  0  0  0  0  0
  -27.6468  -13.2294   19.8520 C   0  0  2  0  0  0
  -28.6928  -13.1436   20.9864 C   0  0  0  0  0  0
  -25.2545  -13.8189   20.5679 C   0  0  0  0  0  0
  -24.1823  -13.0445   20.9222 C   0  0  0  0  0  0
  -24.6397  -11.6913   20.8745 C   0  0  0  0  0  0
  -23.9060  -10.4288   21.0390 C   0  0  0  0  0  0
  -24.3614   -9.4210   21.9179 C   0  0  0  0  0  0
  -23.6296   -8.2246   22.0737 C   0  0  0  0  0  0
  -22.4279   -8.0269   21.3526 C   0  0  0  0  0  0
  -21.9908   -9.0239   20.4629 C   0  0  0  0  0  0
  -22.7230  -10.2119   20.3040 C   0  0  0  0  0  0
  -21.6850   -6.0710   22.5268 C   0  0  0  0  0  0
  -21.4021   -6.5622   23.8197 C   0  0  0  0  0  0
  -21.3665   -5.6781   24.9175 C   0  0  0  0  0  0
  -21.6042   -4.3045   24.7225 C   0  0  0  0  0  0
  -21.8831   -3.8121   23.4365 C   0  0  0  0  0  0
  -21.9201   -4.6935   22.3413 C   0  0  0  0  0  0
  -22.7847  -13.5229   21.1863 C   0  0  0  0  0  0
  -22.1663   -4.2121   21.0994 F   0  0  0  0  0  0
  -21.5633   -3.4529   25.7745 F   0  0  0  0  0  0
  -29.9961  -13.4948   20.4095 N   0  0  0  0  0  0
  -26.2960  -12.9382   20.3270 N   0  0  0  0  0  0
  -25.9331  -11.6526   20.5735 N   0  0  0  0  0  0
  -22.0475  -12.8222   22.0400 N   0  0  0  0  0  0
  -25.4282  -15.1916   20.4031 N   0  0  0  0  0  0
  -31.8029  -14.8271   20.1427 O   0  0  0  0  0  0
  -21.6655   -6.8858   21.4226 O   0  0  0  0  0  0
  -22.3541  -14.5527   20.6690 O   0  0  0  0  0  0
  -24.6308  -31.8578   23.2003 C   0  0  0  0  0  0
  -25.9134  -32.4773   23.8346 C   0  0  1  0  0  0
  -27.2103  -27.2746   20.1207 C   0  0  0  0  0  0
  -25.5936  -33.8575   24.2278 N   0  0  0  0  0  0
  -23.4260  -30.4823   21.5460 C   0  0  2  0  0  0
  -24.8696  -28.9353   20.1101 C   0  0  0  0  0  0
  -22.7508  -29.4619   22.4946 C   0  0  0  0  0  0
  -18.0284  -28.1393   22.8486 C   0  0  0  0  0  0
  -24.1486  -36.7293   23.2640 C   0  0  0  0  0  0
  -25.9722  -30.7747   21.3775 C   0  0  0  0  0  0
  -26.0428  -29.3992   20.7186 C   0  0  0  0  0  0
  -27.2188  -28.5836   20.7082 C   0  0  0  0  0  0
  -26.0137  -26.8821   19.4772 C   0  0  0  0  0  0
  -24.8600  -27.6860   19.4758 C   0  0  0  0  0  0
  -23.6406  -29.8212   20.1603 C   0  0  0  0  0  0
  -25.4115  -36.3091   24.0327 C   0  0  1  0  0  0
  -20.5892  -28.3700   23.1279 C   0  0  2  0  0  0
  -20.6785  -26.9421   22.5417 C   0  0  0  0  0  0
  -19.5756  -26.6390   21.5223 C   0  0  0  0  0  0
  -18.1930  -26.7943   22.1623 C   0  0  0  0  0  0
  -19.1540  -28.8864   23.2878 C   0  0  0  0  0  0
  -18.9463  -30.1462   23.8898 C   0  0  0  0  0  0
  -17.6459  -30.6592   24.0560 C   0  0  0  0  0  0
  -25.9058  -34.9454   23.5108 C   0  0  0  0  0  0
  -16.5351  -29.9092   23.6327 C   0  0  0  0  0  0
  -16.7265  -28.6513   23.0353 C   0  0  0  0  0  0
  -26.4489  -31.6586   25.0733 C   0  0  0  0  0  0
  -25.3692  -31.3710   26.1434 C   0  0  0  0  0  0
  -27.0341  -30.3007   24.6207 C   0  0  0  0  0  0
  -27.6044  -32.4317   25.7518 C   0  0  0  0  0  0
  -27.5578  -37.1812   24.8459 C   0  0  0  0  0  0
  -21.4219  -29.3049   22.3686 N   0  0  0  0  0  0
  -26.4292  -37.3787   23.9401 N   0  0  0  0  0  0
  -24.6958  -31.0553   22.0975 N   0  0  0  0  0  0
  -23.4216  -28.8150   23.3038 O   0  0  0  0  0  0
  -28.3104  -26.3895   20.1514 O   0  0  0  0  0  0
  -26.5641  -34.8922   22.4685 O   0  0  0  0  0  0
  -23.5455  -32.1397   23.7300 O   0  0  0  0  0  0
  -30.4196  -21.5681   18.3870 C   0  0  0  0  0  0
  -29.6147  -21.1387   19.4823 C   0  0  0  0  0  0
  -30.7818  -20.5189   17.6072 C   0  0  0  0  0  0
  -29.6721  -19.7091   19.4466 C   0  0  0  0  0  0
  -33.0436  -20.1491   16.5511 C   0  0  0  0  0  0
  -31.4665  -21.8528   15.5627 C   0  0  0  0  0  0
  -30.4445  -24.2374   20.9577 C   0  0  0  0  0  0
  -26.9283  -19.4501   21.0201 C   0  0  0  0  0  0
  -30.3643  -18.0570   17.5795 C   0  0  0  0  0  0
  -28.8910  -22.2520   20.3630 C   0  0  0  0  0  0
  -30.2653  -17.3105   20.6395 C   0  0  0  0  0  0
  -28.0968  -17.8861   22.6342 C   0  0  0  0  0  0
  -28.0514  -24.9222   20.3486 C   0  0  0  0  0  0
  -31.5702  -20.5166   16.3184 C   0  0  0  0  0  0
  -29.1646  -18.4664   20.2918 C   0  0  1  0  0  0
  -29.2148  -23.8360   20.1275 C   0  0  1  0  0  0
  -28.3057  -18.9344   21.5098 C   0  0  1  0  0  0
  -30.2721  -19.3811   18.2090 N   0  0  0  0  0  0
  -29.8514  -15.8399   20.7198 N   0  0  0  0  0  0
  -27.4298  -18.4600   23.8216 N   0  3  0  0  0  0
  -31.4782  -12.5764   19.1630 H   0  0  0  0  0  0
  -30.3806  -11.4609   19.9327 H   0  0  0  0  0  0
  -29.8001  -11.7661   17.4967 H   0  0  0  0  0  0
  -29.6481  -13.4854   17.7390 H   0  0  0  0  0  0
  -27.8872  -11.2905   18.8782 H   0  0  0  0  0  0
  -27.3880  -12.5581   17.7909 H   0  0  0  0  0  0
  -27.6446  -14.2575   19.4874 H   0  0  0  0  0  0
  -28.7272  -12.1386   21.4097 H   0  0  0  0  0  0
  -28.4337  -13.8138   21.8075 H   0  0  0  0  0  0
  -25.2757   -9.5697   22.4759 H   0  0  0  0  0  0
  -23.9988   -7.4645   22.7453 H   0  0  0  0  0  0
  -21.0832   -8.8745   19.8958 H   0  0  0  0  0  0
  -22.3658  -10.9652   19.6147 H   0  0  0  0  0  0
  -21.2012   -7.6125   23.9684 H   0  0  0  0  0  0
  -21.1482   -6.0525   25.9068 H   0  0  0  0  0  0
  -22.0616   -2.7580   23.2881 H   0  0  0  0  0  0
  -22.4057  -11.9886   22.4839 H   0  0  0  0  0  0
  -21.1072  -13.1214   22.2526 H   0  0  0  0  0  0
  -24.6463  -15.8339   20.4584 H   0  0  0  0  0  0
  -26.2394  -15.5978   19.9577 H   0  0  0  0  0  0
  -26.7217  -32.5425   23.1104 H   0  0  0  0  0  0
  -25.0035  -33.9711   25.0390 H   0  0  0  0  0  0
  -22.7207  -31.3038   21.4051 H   0  0  0  0  0  0
  -23.3758  -35.9614   23.3298 H   0  0  0  0  0  0
  -24.3579  -36.8920   22.2055 H   0  0  0  0  0  0
  -23.7220  -37.6484   23.6667 H   0  0  0  0  0  0
  -26.1096  -31.5352   20.6078 H   0  0  0  0  0  0
  -26.8514  -30.8240   22.0082 H   0  0  0  0  0  0
  -28.1215  -28.9373   21.1856 H   0  0  0  0  0  0
  -25.9347  -25.9428   18.9545 H   0  0  0  0  0  0
  -23.9663  -27.3349   18.9792 H   0  0  0  0  0  0
  -23.7629  -30.6003   19.4068 H   0  0  0  0  0  0
  -22.7582  -29.2536   19.8580 H   0  0  0  0  0  0
  -25.1297  -36.1951   25.0821 H   0  0  0  0  0  0
  -20.9961  -28.3272   24.1407 H   0  0  0  0  0  0
  -20.5698  -26.2306   23.3619 H   0  0  0  0  0  0
  -21.6649  -26.7463   22.1196 H   0  0  0  0  0  0
  -19.6918  -25.6298   21.1257 H   0  0  0  0  0  0
  -19.6697  -27.3196   20.6750 H   0  0  0  0  0  0
  -17.4210  -26.6690   21.4016 H   0  0  0  0  0  0
  -18.0315  -26.0081   22.9011 H   0  0  0  0  0  0
  -19.7933  -30.7285   24.2275 H   0  0  0  0  0  0
  -17.5005  -31.6269   24.5158 H   0  0  0  0  0  0
  -15.5349  -30.2997   23.7644 H   0  0  0  0  0  0
  -15.8666  -28.0824   22.7075 H   0  0  0  0  0  0
  -24.5905  -30.7034   25.7730 H   0  0  0  0  0  0
  -24.8834  -32.2858   26.4832 H   0  0  0  0  0  0
  -25.7985  -30.8897   27.0230 H   0  0  0  0  0  0
  -26.2930  -29.6770   24.1199 H   0  0  0  0  0  0
  -27.3994  -29.7256   25.4724 H   0  0  0  0  0  0
  -27.8815  -30.4295   23.9473 H   0  0  0  0  0  0
  -27.2666  -33.3624   26.2085 H   0  0  0  0  0  0
  -28.3863  -32.6862   25.0353 H   0  0  0  0  0  0
  -28.0706  -31.8447   26.5440 H   0  0  0  0  0  0
  -28.2593  -38.0114   24.7524 H   0  0  0  0  0  0
  -28.1087  -36.2650   24.6277 H   0  0  0  0  0  0
  -27.2304  -37.1437   25.8865 H   0  0  0  0  0  0
  -20.9412  -29.8767   21.6884 H   0  0  0  0  0  0
  -26.0179  -38.2866   24.1398 H   0  0  0  0  0  0
  -30.6707  -22.5839   18.1269 H   0  0  0  0  0  0
  -33.1446  -19.1685   17.0152 H   0  0  0  0  0  0
  -33.5357  -20.8736   17.2006 H   0  0  0  0  0  0
  -33.5956  -20.1207   15.6110 H   0  0  0  0  0  0
  -30.4259  -22.1059   15.3557 H   0  0  0  0  0  0
  -31.9856  -21.8063   14.6046 H   0  0  0  0  0  0
  -31.9023  -22.6755   16.1297 H   0  0  0  0  0  0
  -31.2847  -23.5689   20.7675 H   0  0  0  0  0  0
  -30.2271  -24.2027   22.0263 H   0  0  0  0  0  0
  -30.7692  -25.2511   20.7214 H   0  0  0  0  0  0
  -26.4297  -20.0668   21.7673 H   0  0  0  0  0  0
  -26.2603  -18.6241   20.7717 H   0  0  0  0  0  0
  -27.0119  -20.0540   20.1184 H   0  0  0  0  0  0
  -30.1010  -18.1165   16.5253 H   0  0  0  0  0  0
  -29.6682  -17.3381   18.0037 H   0  0  0  0  0  0
  -31.3775  -17.6650   17.6639 H   0  0  0  0  0  0
  -29.0316  -22.0115   21.4161 H   0  0  0  0  0  0
  -27.8253  -22.1265   20.1832 H   0  0  0  0  0  0
  -30.7781  -17.5831   21.5620 H   0  0  0  0  0  0
  -31.0742  -17.3534   19.9150 H   0  0  0  0  0  0
  -29.0444  -17.4760   22.9805 H   0  0  0  0  0  0
  -27.5059  -17.0448   22.2687 H   0  0  0  0  0  0
  -27.6572  -24.8020   21.3584 H   0  0  0  0  0  0
  -27.2527  -24.5852   19.6949 H   0  0  0  0  0  0
  -31.1550  -19.7741   15.6400 H   0  0  0  0  0  0
  -28.4463  -17.9531   19.6521 H   0  0  0  0  0  0
  -29.4585  -23.9771   19.0784 H   0  0  0  0  0  0
  -28.8488  -19.7626   21.9632 H   0  0  0  0  0  0
  -28.8859  -15.6525   20.9381 H   0  0  0  0  0  0
  -26.5358  -18.8491   23.5821 H   0  0  0  0  0  0
  -27.9943  -19.1776   24.2404 H   0  0  0  0  0  0
  -27.2779  -17.7462   24.5121 H   0  0  0  0  0  0
  1 25  1  0  0  0
  1 30  2  0  0  0
  1 89  1  0  0  0
  2  3  1  0  0  0
  2 25  1  0  0  0
  2 91  1  0  0  0
  2 92  1  0  0  0
  3  4  1  0  0  0
  3 93  1  0  0  0
  3 94  1  0  0  0
  4  5  1  0  0  0
  4 95  1  0  0  0
  4 96  1  0  0  0
  5  6  1  0  0  0
  5 26  1  0  0  0
  5 97  1  0  0  0
  6 25  1  0  0  0
  6 98  1  0  0  0
  6 99  1  0  0  0
  7  8  2  0  0  0
  7 26  1  0  0  0
  7 29  1  0  0  0
  8  9  1  0  0  0
  8 22  1  0  0  0
  9 10  1  0  0  0
  9 27  2  0  0  0
 10 11  2  0  0  0
 10 15  1  0  0  0
 11 12  1  0  0  0
 11100  1  0  0  0
 12 13  2  0  0  0
 12101  1  0  0  0
 13 14  1  0  0  0
 13 31  1  0  0  0
 14 15  2  0  0  0
 14102  1  0  0  0
 15103  1  0  0  0
 16 17  2  0  0  0
 16 21  1  0  0  0
 16 31  1  0  0  0
 17 18  1  0  0  0
 17104  1  0  0  0
 18 19  2  0  0  0
 18105  1  0  0  0
 19 20  1  0  0  0
 19 24  1  0  0  0
 20 21  2  0  0  0
 20106  1  0  0  0
 21 23  1  0  0  0
 22 28  1  0  0  0
 22 32  2  0  0  0
 26 27  1  0  0  0
 28107  1  0  0  0
 28108  1  0  0  0
 29109  1  0  0  0
 29110  1  0  0  0
 33 34  1  0  0  0
 33 66  1  0  0  0
 33 70  2  0  0  0
 34 36  1  0  0  0
 34 59  1  0  0  0
 34111  1  0  0  0
 35 44  2  0  0  0
 35 45  1  0  0  0
 35 68  1  0  0  0
 36 56  1  0  0  0
 36112  1  0  0  0
 37 39  1  0  0  0
 37 47  1  0  0  0
 37 66  1  0  0  0
 37113  1  0  0  0
 38 43  2  0  0  0
 38 46  1  0  0  0
 38 47  1  0  0  0
 39 64  1  0  0  0
 39 67  2  0  0  0
 40 52  1  0  0  0
 40 53  2  0  0  0
 40 58  1  0  0  0
 41114  1  0  0  0
 41115  1  0  0  0
 41116  1  0  0  0
 41 48  1  0  0  0
 42 43  1  0  0  0
 42 66  1  0  0  0
 42117  1  0  0  0
 42118  1  0  0  0
 43 44  1  0  0  0
 44119  1  0  0  0
 45 46  2  0  0  0
 45120  1  0  0  0
 46121  1  0  0  0
 47122  1  0  0  0
 47123  1  0  0  0
 48 56  1  0  0  0
 48 65  1  0  0  0
 48124  1  0  0  0
 49 50  1  0  0  0
 49 53  1  0  0  0
 49 64  1  0  0  0
 49125  1  0  0  0
 50 51  1  0  0  0
 50126  1  0  0  0
 50127  1  0  0  0
 51 52  1  0  0  0
 51128  1  0  0  0
 51129  1  0  0  0
 52130  1  0  0  0
 52131  1  0  0  0
 53 54  1  0  0  0
 54 55  2  0  0  0
 54132  1  0  0  0
 55 57  1  0  0  0
 55133  1  0  0  0
 56 69  2  0  0  0
 57 58  2  0  0  0
 57134  1  0  0  0
 58135  1  0  0  0
 59 60  1  0  0  0
 59 61  1  0  0  0
 59 62  1  0  0  0
 60136  1  0  0  0
 60137  1  0  0  0
 60138  1  0  0  0
 61139  1  0  0  0
 61140  1  0  0  0
 61141  1  0  0  0
 62142  1  0  0  0
 62143  1  0  0  0
 62144  1  0  0  0
 63 65  1  0  0  0
 63145  1  0  0  0
 63146  1  0  0  0
 63147  1  0  0  0
 64148  1  0  0  0
 65149  1  0  0  0
 68 83  1  0  0  0
 71 72  1  0  0  0
 71 73  2  0  0  0
 71150  1  0  0  0
 72 74  2  0  0  0
 72 80  1  0  0  0
 73 84  1  0  0  0
 73 88  1  0  0  0
 74 85  1  0  0  0
 74 88  1  0  0  0
 75151  1  0  0  0
 75152  1  0  0  0
 75153  1  0  0  0
 75 84  1  0  0  0
 76 84  1  0  0  0
 76154  1  0  0  0
 76155  1  0  0  0
 76156  1  0  0  0
 77157  1  0  0  0
 77158  1  0  0  0
 77159  1  0  0  0
 77 86  1  0  0  0
 78160  1  0  0  0
 78161  1  0  0  0
 78162  1  0  0  0
 78 87  1  0  0  0
 79 88  1  0  0  0
 79163  1  0  0  0
 79164  1  0  0  0
 79165  1  0  0  0
 80 86  1  0  0  0
 80166  1  0  0  0
 80167  1  0  0  0
 81 89  1  0  0  0
 81168  1  0  0  0
 81169  1  0  0  0
 81 85  1  0  0  0
 82 87  1  0  0  0
 82 90  1  0  0  0
 82170  1  0  0  0
 82171  1  0  0  0
 83 86  1  0  0  0
 83172  1  0  0  0
 83173  1  0  0  0
 84174  1  0  0  0
 85 87  1  0  0  0
 85175  1  0  0  0
 86176  1  0  0  0
 87177  1  0  0  0
 89178  1  0  0  0
 90179  1  0  0  0
 90180  1  0  0  0
 90181  1  0  0  0
M  CHG  1  90   1
M  ISO  4   1 100  68 101  83 101  89 100
M  END
> <chiral flag>
0

> <version>
0

> <s_m_source_file>
/data/baiqing/PycharmProjects/Reinvent-master-3.2/result/LINK_invent/BTK/process_docking_weight1_custom_sum_contain_oxygen_bond_distance_aromatic_linkinvent_7_9_3/rearranged_h_0096.sdf

> <i_m_source_file_index>
83

> <r_mmod_Potential_Energy-OPLS-2005>
-91.9457778930664

> <r_mmod_Stretch_Energy-OPLS-2005>
135.977447509766

> <r_mmod_Bend_Energy-OPLS-2005>
182.342086791992

> <r_mmod_Torsional_Energy-OPLS-2005>
265.177825927734

> <r_mmod_Improper_Torsional_Energy-OPLS-2005>
5.7047233581543

> <r_mmod_Van_der_Waal_Energy-OPLS-2005>
128.873397827148

> <r_mmod_Electrostatic_Energy-OPLS-2005>
-370.226715087891

> <r_mmod_Solvation_Energy-OPLS-2005>
-514.035705566406

> <b_mmod_Minimization_Converged-OPLS-2005>
0

> <r_mmod_RMS_Derivative-OPLS-2005>
2.45996332168579

$$$$
83
                    3D
 Structure written by MMmdl.
174182  0  0  1  0            999 V2000
  -30.7386  -14.5896   20.4694 C   0  0  0  0  0  0
  -30.4135  -12.3655   19.4391 C   0  0  0  0  0  0
  -29.4860  -12.4618   18.2143 C   0  0  0  0  0  0
  -28.0163  -12.2839   18.6406 C   0  0  0  0  0  0
  -27.6333  -13.1817   19.8437 C   0  0  2  0  0  0
  -28.6972  -13.1467   20.9688 C   0  0  0  0  0  0
  -25.2525  -13.8035   20.5729 C   0  0  0  0  0  0
  -24.1776  -13.0356   20.9258 C   0  0  0  0  0  0
  -24.6326  -11.6812   20.8829 C   0  0  0  0  0  0
  -23.8998  -10.4220   21.0493 C   0  0  0  0  0  0
  -24.3557   -9.4127   21.9255 C   0  0  0  0  0  0
  -23.6244   -8.2158   22.0786 C   0  0  0  0  0  0
  -22.4239   -8.0217   21.3553 C   0  0  0  0  0  0
  -21.9864   -9.0195   20.4680 C   0  0  0  0  0  0
  -22.7186  -10.2078   20.3125 C   0  0  0  0  0  0
  -21.6824   -6.0702   22.5275 C   0  0  0  0  0  0
  -21.4001   -6.5626   23.8205 C   0  0  0  0  0  0
  -21.3643   -5.6783   24.9172 C   0  0  0  0  0  0
  -21.6042   -4.3049   24.7235 C   0  0  0  0  0  0
  -21.8832   -3.8133   23.4358 C   0  0  0  0  0  0
  -21.9198   -4.6945   22.3411 C   0  0  0  0  0  0
  -22.7810  -13.5215   21.1858 C   0  0  0  0  0  0
  -22.1691   -4.2134   21.0989 F   0  0  0  0  0  0
  -21.5615   -3.4537   25.7747 F   0  0  0  0  0  0
  -30.0114  -13.4333   20.3736 N   0  0  0  0  0  0
  -26.2902  -12.9137   20.3350 N   0  0  0  0  0  0
  -25.9247  -11.6335   20.5869 N   0  0  0  0  0  0
  -22.0406  -12.8256   22.0433 N   0  0  0  0  0  0
  -25.4197  -15.1745   20.4066 N   0  0  0  0  0  0
  -31.9398  -14.6043   20.1924 O   0  0  0  0  0  0
  -21.6594   -6.8827   21.4235 O   0  0  0  0  0  0
  -22.3523  -14.5517   20.6654 O   0  0  0  0  0  0
  -24.6212  -31.8658   23.2093 C   0  0  0  0  0  0
  -25.9087  -32.4812   23.8406 C   0  0  1  0  0  0
  -27.2332  -27.4040   20.0848 C   0  0  0  0  0  0
  -25.5925  -33.8612   24.2327 N   0  0  0  0  0  0
  -23.4098  -30.4919   21.5519 C   0  0  2  0  0  0
  -24.8518  -28.9572   20.1163 C   0  0  0  0  0  0
  -22.7455  -29.4649   22.4971 C   0  0  0  0  0  0
  -18.0280  -28.1385   22.8487 C   0  0  0  0  0  0
  -24.1485  -36.7321   23.2636 C   0  0  0  0  0  0
  -25.9444  -30.8221   21.3666 C   0  0  0  0  0  0
  -26.0192  -29.4570   20.7069 C   0  0  0  0  0  0
  -27.2123  -28.6914   20.6817 C   0  0  0  0  0  0
  -26.0348  -26.9289   19.4945 C   0  0  0  0  0  0
  -24.8564  -27.6936   19.5088 C   0  0  0  0  0  0
  -23.6192  -29.8307   20.1653 C   0  0  0  0  0  0
  -25.4104  -36.3108   24.0334 C   0  0  1  0  0  0
  -20.5880  -28.3682   23.1296 C   0  0  2  0  0  0
  -20.6768  -26.9412   22.5409 C   0  0  0  0  0  0
  -19.5735  -26.6386   21.5213 C   0  0  0  0  0  0
  -18.1917  -26.7928   22.1627 C   0  0  0  0  0  0
  -19.1535  -28.8847   23.2890 C   0  0  0  0  0  0
  -18.9457  -30.1448   23.8905 C   0  0  0  0  0  0
  -17.6457  -30.6582   24.0567 C   0  0  0  0  0  0
  -25.9037  -34.9472   23.5123 C   0  0  0  0  0  0
  -16.5348  -29.9087   23.6320 C   0  0  0  0  0  0
  -16.7271  -28.6507   23.0341 C   0  0  0  0  0  0
  -26.4491  -31.6608   25.0754 C   0  0  0  0  0  0
  -25.3751  -31.3741   26.1504 C   0  0  0  0  0  0
  -27.0316  -30.3039   24.6159 C   0  0  0  0  0  0
  -27.6052  -32.4345   25.7522 C   0  0  0  0  0  0
  -27.5575  -37.1820   24.8466 C   0  0  0  0  0  0
  -21.4180  -29.3047   22.3715 N   0  0  0  0  0  0
  -26.4291  -37.3790   23.9402 N   0  0  0  0  0  0
  -24.6771  -31.0746   22.1002 N   0  0  0  0  0  0
  -23.4209  -28.8171   23.3006 O   0  0  0  0  0  0
  -28.3971  -26.6427   20.0946 O   0  0  0  0  0  0
  -26.5596  -34.8924   22.4681 O   0  0  0  0  0  0
  -23.5397  -32.1415   23.7471 O   0  0  0  0  0  0
  -30.4686  -19.4304   20.9172 C   0  0  0  0  0  0
  -29.1865  -20.7590   22.4827 C   0  0  0  0  0  0
  -29.9715  -20.6918   21.3184 C   0  0  0  0  0  0
  -30.1876  -18.2523   21.6608 C   0  0  0  0  0  0
  -28.8694  -19.6196   23.2673 C   0  0  0  0  0  0
  -29.3559  -18.3420   22.8176 C   0  0  0  0  0  0
  -29.0524  -17.0486   23.5691 C   0  0  0  0  0  0
  -27.9472  -21.3305   24.9923 C   0  0  0  0  0  0
  -28.6700  -19.1587   25.8103 C   0  0  0  0  0  0
  -26.5740  -19.3933   24.3512 C   0  0  0  0  0  0
  -28.9841  -16.2154   19.8943 C   0  0  0  0  0  0
  -30.9004  -16.9288   21.2506 C   0  0  0  0  0  0
  -30.3548  -22.0008   20.5972 C   0  0  0  0  0  0
  -29.5072  -24.3588   20.1922 C   0  0  0  0  0  0
  -28.2483  -25.2167   19.8834 C   0  0  0  0  0  0
  -28.0360  -19.8398   24.5727 C   0  0  0  0  0  0
  -30.1052  -15.7784   20.7329 N   0  0  0  0  0  0
  -29.1987  -22.8957   20.3133 N   0  3  0  0  0  0
  -31.4545  -12.4472   19.1213 H   0  0  0  0  0  0
  -30.3235  -11.3922   19.9229 H   0  0  0  0  0  0
  -29.7509  -11.6988   17.4800 H   0  0  0  0  0  0
  -29.6166  -13.4268   17.7219 H   0  0  0  0  0  0
  -27.8735  -11.2350   18.8996 H   0  0  0  0  0  0
  -27.3524  -12.4821   17.7978 H   0  0  0  0  0  0
  -27.5793  -14.1713   19.4192 H   0  0  0  0  0  0
  -28.7150  -12.1738   21.4588 H   0  0  0  0  0  0
  -28.4562  -13.8749   21.7441 H   0  0  0  0  0  0
  -25.2692   -9.5593   22.4846 H   0  0  0  0  0  0
  -23.9956   -7.4539   22.7491 H   0  0  0  0  0  0
  -21.0806   -8.8694   19.8988 H   0  0  0  0  0  0
  -22.3647  -10.9613   19.6241 H   0  0  0  0  0  0
  -21.1996   -7.6131   23.9704 H   0  0  0  0  0  0
  -21.1455   -6.0518   25.9066 H   0  0  0  0  0  0
  -22.0640   -2.7604   23.2860 H   0  0  0  0  0  0
  -22.3945  -11.9911   22.4870 H   0  0  0  0  0  0
  -21.1021  -13.1328   22.2560 H   0  0  0  0  0  0
  -24.6516  -15.8258   20.5239 H   0  0  0  0  0  0
  -26.2678  -15.6139   20.0730 H   0  0  0  0  0  0
  -26.7161  -32.5500   23.1171 H   0  0  0  0  0  0
  -25.0105  -33.9768   25.0495 H   0  0  0  0  0  0
  -22.6993  -31.3099   21.4149 H   0  0  0  0  0  0
  -23.3727  -35.9677   23.3332 H   0  0  0  0  0  0
  -24.3572  -36.8905   22.2044 H   0  0  0  0  0  0
  -23.7268  -37.6548   23.6631 H   0  0  0  0  0  0
  -26.0659  -31.5882   20.6005 H   0  0  0  0  0  0
  -26.8304  -30.8694   21.9889 H   0  0  0  0  0  0
  -28.1158  -29.0787   21.1319 H   0  0  0  0  0  0
  -25.9734  -25.9632   19.0161 H   0  0  0  0  0  0
  -23.9569  -27.3019   19.0526 H   0  0  0  0  0  0
  -23.7392  -30.6092   19.4114 H   0  0  0  0  0  0
  -22.7402  -29.2603   19.8614 H   0  0  0  0  0  0
  -25.1280  -36.1974   25.0828 H   0  0  0  0  0  0
  -20.9969  -28.3252   24.1420 H   0  0  0  0  0  0
  -20.5671  -26.2294   23.3610 H   0  0  0  0  0  0
  -21.6634  -26.7444   22.1197 H   0  0  0  0  0  0
  -19.6892  -25.6300   21.1232 H   0  0  0  0  0  0
  -19.6666  -27.3204   20.6748 H   0  0  0  0  0  0
  -17.4193  -26.6684   21.4031 H   0  0  0  0  0  0
  -18.0314  -26.0072   22.9023 H   0  0  0  0  0  0
  -19.7934  -30.7259   24.2284 H   0  0  0  0  0  0
  -17.5013  -31.6257   24.5181 H   0  0  0  0  0  0
  -15.5350  -30.2989   23.7631 H   0  0  0  0  0  0
  -15.8677  -28.0824   22.7044 H   0  0  0  0  0  0
  -24.5894  -30.7117   25.7860 H   0  0  0  0  0  0
  -24.8978  -32.2910   26.4972 H   0  0  0  0  0  0
  -25.8095  -30.8899   27.0260 H   0  0  0  0  0  0
  -26.2870  -29.6816   24.1182 H   0  0  0  0  0  0
  -27.4036  -29.7267   25.4638 H   0  0  0  0  0  0
  -27.8735  -30.4346   23.9353 H   0  0  0  0  0  0
  -27.2644  -33.3622   26.2134 H   0  0  0  0  0  0
  -28.3842  -32.6954   25.0347 H   0  0  0  0  0  0
  -28.0750  -31.8466   26.5419 H   0  0  0  0  0  0
  -28.2613  -38.0095   24.7476 H   0  0  0  0  0  0
  -28.1044  -36.2625   24.6329 H   0  0  0  0  0  0
  -27.2292  -37.1527   25.8871 H   0  0  0  0  0  0
  -20.9352  -29.8811   21.6968 H   0  0  0  0  0  0
  -26.0181  -38.2874   24.1375 H   0  0  0  0  0  0
  -31.1173  -19.3711   20.0533 H   0  0  0  0  0  0
  -28.8584  -21.7432   22.7720 H   0  0  0  0  0  0
  -28.9942  -16.1825   22.9201 H   0  0  0  0  0  0
  -28.0860  -17.0555   24.0567 H   0  0  0  0  0  0
  -29.8259  -16.8548   24.3127 H   0  0  0  0  0  0
  -28.9350  -21.7773   25.1170 H   0  0  0  0  0  0
  -27.4263  -21.4450   25.9432 H   0  0  0  0  0  0
  -27.3798  -21.9332   24.2831 H   0  0  0  0  0  0
  -29.7234  -19.4239   25.8975 H   0  0  0  0  0  0
  -28.5971  -18.0781   25.8324 H   0  0  0  0  0  0
  -28.1839  -19.4797   26.7315 H   0  0  0  0  0  0
  -26.1162  -19.9601   23.5394 H   0  0  0  0  0  0
  -25.9639  -19.5553   25.2411 H   0  0  0  0  0  0
  -26.4709  -18.3463   24.0864 H   0  0  0  0  0  0
  -28.0524  -16.0982   20.4433 H   0  0  0  0  0  0
  -28.9457  -15.6643   18.9553 H   0  0  0  0  0  0
  -29.0486  -17.2597   19.5928 H   0  0  0  0  0  0
  -31.6552  -17.1744   20.5008 H   0  0  0  0  0  0
  -31.4716  -16.5838   22.1145 H   0  0  0  0  0  0
  -30.8772  -21.7896   19.6633 H   0  0  0  0  0  0
  -31.0700  -22.5252   21.2340 H   0  0  0  0  0  0
  -29.9463  -24.6996   21.1295 H   0  0  0  0  0  0
  -30.2597  -24.5156   19.4162 H   0  0  0  0  0  0
  -27.4393  -24.8628   20.5250 H   0  0  0  0  0  0
  -27.9524  -25.0305   18.8503 H   0  0  0  0  0  0
  -28.5432  -22.7701   21.0673 H   0  0  0  0  0  0
  -28.7535  -22.5546   19.4754 H   0  0  0  0  0  0
  1 25  1  0  0  0
  1 30  2  0  0  0
  1 87  1  0  0  0
  2  3  1  0  0  0
  2 25  1  0  0  0
  2 89  1  0  0  0
  2 90  1  0  0  0
  3  4  1  0  0  0
  3 91  1  0  0  0
  3 92  1  0  0  0
  4  5  1  0  0  0
  4 93  1  0  0  0
  4 94  1  0  0  0
  5  6  1  0  0  0
  5 26  1  0  0  0
  5 95  1  0  0  0
  6 25  1  0  0  0
  6 96  1  0  0  0
  6 97  1  0  0  0
  7  8  2  0  0  0
  7 26  1  0  0  0
  7 29  1  0  0  0
  8  9  1  0  0  0
  8 22  1  0  0  0
  9 10  1  0  0  0
  9 27  2  0  0  0
 10 11  2  0  0  0
 10 15  1  0  0  0
 11 12  1  0  0  0
 11 98  1  0  0  0
 12 13  2  0  0  0
 12 99  1  0  0  0
 13 14  1  0  0  0
 13 31  1  0  0  0
 14 15  2  0  0  0
 14100  1  0  0  0
 15101  1  0  0  0
 16 17  2  0  0  0
 16 21  1  0  0  0
 16 31  1  0  0  0
 17 18  1  0  0  0
 17102  1  0  0  0
 18 19  2  0  0  0
 18103  1  0  0  0
 19 20  1  0  0  0
 19 24  1  0  0  0
 20 21  2  0  0  0
 20104  1  0  0  0
 21 23  1  0  0  0
 22 28  1  0  0  0
 22 32  2  0  0  0
 26 27  1  0  0  0
 28105  1  0  0  0
 28106  1  0  0  0
 29107  1  0  0  0
 29108  1  0  0  0
 33 34  1  0  0  0
 33 66  1  0  0  0
 33 70  2  0  0  0
 34 36  1  0  0  0
 34 59  1  0  0  0
 34109  1  0  0  0
 35 44  2  0  0  0
 35 45  1  0  0  0
 35 68  1  0  0  0
 36 56  1  0  0  0
 36110  1  0  0  0
 37 39  1  0  0  0
 37 47  1  0  0  0
 37 66  1  0  0  0
 37111  1  0  0  0
 38 43  2  0  0  0
 38 46  1  0  0  0
 38 47  1  0  0  0
 39 64  1  0  0  0
 39 67  2  0  0  0
 40 52  1  0  0  0
 40 53  2  0  0  0
 40 58  1  0  0  0
 41112  1  0  0  0
 41113  1  0  0  0
 41114  1  0  0  0
 41 48  1  0  0  0
 42 43  1  0  0  0
 42 66  1  0  0  0
 42115  1  0  0  0
 42116  1  0  0  0
 43 44  1  0  0  0
 44117  1  0  0  0
 45 46  2  0  0  0
 45118  1  0  0  0
 46119  1  0  0  0
 47120  1  0  0  0
 47121  1  0  0  0
 48 56  1  0  0  0
 48 65  1  0  0  0
 48122  1  0  0  0
 49 50  1  0  0  0
 49 53  1  0  0  0
 49 64  1  0  0  0
 49123  1  0  0  0
 50 51  1  0  0  0
 50124  1  0  0  0
 50125  1  0  0  0
 51 52  1  0  0  0
 51126  1  0  0  0
 51127  1  0  0  0
 52128  1  0  0  0
 52129  1  0  0  0
 53 54  1  0  0  0
 54 55  2  0  0  0
 54130  1  0  0  0
 55 57  1  0  0  0
 55131  1  0  0  0
 56 69  2  0  0  0
 57 58  2  0  0  0
 57132  1  0  0  0
 58133  1  0  0  0
 59 60  1  0  0  0
 59 61  1  0  0  0
 59 62  1  0  0  0
 60134  1  0  0  0
 60135  1  0  0  0
 60136  1  0  0  0
 61137  1  0  0  0
 61138  1  0  0  0
 61139  1  0  0  0
 62140  1  0  0  0
 62141  1  0  0  0
 62142  1  0  0  0
 63 65  1  0  0  0
 63143  1  0  0  0
 63144  1  0  0  0
 63145  1  0  0  0
 64146  1  0  0  0
 65147  1  0  0  0
 68 85  1  0  0  0
 71 73  2  0  0  0
 71 74  1  0  0  0
 71148  1  0  0  0
 72 73  1  0  0  0
 72 75  2  0  0  0
 72149  1  0  0  0
 73 83  1  0  0  0
 74 76  2  0  0  0
 74 82  1  0  0  0
 75 76  1  0  0  0
 75 86  1  0  0  0
 76 77  1  0  0  0
 77150  1  0  0  0
 77151  1  0  0  0
 77152  1  0  0  0
 78153  1  0  0  0
 78154  1  0  0  0
 78155  1  0  0  0
 78 86  1  0  0  0
 79 86  1  0  0  0
 79156  1  0  0  0
 79157  1  0  0  0
 79158  1  0  0  0
 80 86  1  0  0  0
 80159  1  0  0  0
 80160  1  0  0  0
 80161  1  0  0  0
 81 87  1  0  0  0
 81162  1  0  0  0
 81163  1  0  0  0
 81164  1  0  0  0
 82 87  1  0  0  0
 82165  1  0  0  0
 82166  1  0  0  0
 83 88  1  0  0  0
 83167  1  0  0  0
 83168  1  0  0  0
 84 85  1  0  0  0
 84 88  1  0  0  0
 84169  1  0  0  0
 84170  1  0  0  0
 85171  1  0  0  0
 85172  1  0  0  0
 88173  1  0  0  0
 88174  1  0  0  0
M  CHG  1  88   1
M  ISO  4   1 100  68 101  85 101  87 100
M  END
> <chiral flag>
0

> <version>
0

> <s_m_source_file>
/data/baiqing/PycharmProjects/Reinvent-master-3.2/result/LINK_invent/BTK/process_docking_weight1_custom_sum_contain_oxygen_bond_distance_aromatic_linkinvent_7_9_3/rearranged_h_0096.sdf

> <i_m_source_file_index>
84

> <r_mmod_Potential_Energy-OPLS-2005>
-25.9418487548828

> <r_mmod_Stretch_Energy-OPLS-2005>
59.4656562805176

> <r_mmod_Bend_Energy-OPLS-2005>
133.965774536133

> <r_mmod_Torsional_Energy-OPLS-2005>
265.686676025391

> <r_mmod_Improper_Torsional_Energy-OPLS-2005>
6.16698932647705

> <r_mmod_Van_der_Waal_Energy-OPLS-2005>
187.068283081055

> <r_mmod_Electrostatic_Energy-OPLS-2005>
-287.912841796875

> <r_mmod_Solvation_Energy-OPLS-2005>
-429.058685302734

> <b_mmod_Minimization_Converged-OPLS-2005>
0

> <r_mmod_RMS_Derivative-OPLS-2005>
2.45133781433105

$$$$
84
                    3D
 Structure written by MMmdl.
157165  0  0  1  0            999 V2000
  -30.6176  -14.7243   20.4578 C   0  0  0  0  0  0
  -30.4286  -12.4374   19.4875 C   0  0  0  0  0  0
  -29.5123  -12.5095   18.2453 C   0  0  0  0  0  0
  -28.0348  -12.3439   18.6491 C   0  0  0  0  0  0
  -27.6444  -13.2336   19.8596 C   0  0  2  0  0  0
  -28.6856  -13.1552   20.9991 C   0  0  0  0  0  0
  -25.2502  -13.8205   20.5699 C   0  0  0  0  0  0
  -24.1790  -13.0444   20.9199 C   0  0  0  0  0  0
  -24.6387  -11.6924   20.8745 C   0  0  0  0  0  0
  -23.9068  -10.4296   21.0402 C   0  0  0  0  0  0
  -24.3619   -9.4213   21.9182 C   0  0  0  0  0  0
  -23.6294   -8.2247   22.0755 C   0  0  0  0  0  0
  -22.4277   -8.0282   21.3544 C   0  0  0  0  0  0
  -21.9910   -9.0255   20.4646 C   0  0  0  0  0  0
  -22.7240  -10.2134   20.3053 C   0  0  0  0  0  0
  -21.6857   -6.0732   22.5276 C   0  0  0  0  0  0
  -21.4017   -6.5637   23.8209 C   0  0  0  0  0  0
  -21.3661   -5.6791   24.9170 C   0  0  0  0  0  0
  -21.6043   -4.3052   24.7222 C   0  0  0  0  0  0
  -21.8821   -3.8144   23.4343 C   0  0  0  0  0  0
  -21.9192   -4.6958   22.3399 C   0  0  0  0  0  0
  -22.7810  -13.5224   21.1855 C   0  0  0  0  0  0
  -22.1661   -4.2143   21.0976 F   0  0  0  0  0  0
  -21.5627   -3.4539   25.7735 F   0  0  0  0  0  0
  -29.9938  -13.4975   20.4272 N   0  0  0  0  0  0
  -26.2941  -12.9420   20.3315 N   0  0  0  0  0  0
  -25.9324  -11.6557   20.5766 N   0  0  0  0  0  0
  -22.0464  -12.8211   22.0416 N   0  0  0  0  0  0
  -25.4189  -15.1925   20.4119 N   0  0  0  0  0  0
  -31.7929  -14.8210   20.0941 O   0  0  0  0  0  0
  -21.6643   -6.8875   21.4240 O   0  0  0  0  0  0
  -22.3489  -14.5528   20.6702 O   0  0  0  0  0  0
  -24.6299  -31.8552   23.1994 C   0  0  0  0  0  0
  -25.9128  -32.4749   23.8337 C   0  0  1  0  0  0
  -27.2123  -27.2681   20.1426 C   0  0  0  0  0  0
  -25.5927  -33.8552   24.2257 N   0  0  0  0  0  0
  -23.4263  -30.4783   21.5407 C   0  0  2  0  0  0
  -24.8764  -28.9313   20.1023 C   0  0  0  0  0  0
  -22.7500  -29.4596   22.4904 C   0  0  0  0  0  0
  -18.0293  -28.1385   22.8484 C   0  0  0  0  0  0
  -24.1493  -36.7287   23.2643 C   0  0  0  0  0  0
  -25.9719  -30.7702   21.3806 C   0  0  0  0  0  0
  -26.0447  -29.3944   20.7238 C   0  0  0  0  0  0
  -27.2168  -28.5730   20.7375 C   0  0  0  0  0  0
  -26.0432  -26.8939   19.4475 C   0  0  0  0  0  0
  -24.8813  -27.6885   19.4502 C   0  0  0  0  0  0
  -23.6441  -29.8139   20.1554 C   0  0  0  0  0  0
  -25.4118  -36.3066   24.0330 C   0  0  1  0  0  0
  -20.5899  -28.3697   23.1269 C   0  0  2  0  0  0
  -20.6777  -26.9414   22.5406 C   0  0  0  0  0  0
  -19.5753  -26.6381   21.5210 C   0  0  0  0  0  0
  -18.1936  -26.7927   22.1624 C   0  0  0  0  0  0
  -19.1549  -28.8861   23.2869 C   0  0  0  0  0  0
  -18.9467  -30.1458   23.8883 C   0  0  0  0  0  0
  -17.6467  -30.6583   24.0570 C   0  0  0  0  0  0
  -25.9060  -34.9439   23.5101 C   0  0  0  0  0  0
  -16.5358  -29.9081   23.6332 C   0  0  0  0  0  0
  -16.7281  -28.6503   23.0351 C   0  0  0  0  0  0
  -26.4494  -31.6570   25.0725 C   0  0  0  0  0  0
  -25.3720  -31.3723   26.1452 C   0  0  0  0  0  0
  -27.0337  -30.2984   24.6211 C   0  0  0  0  0  0
  -27.6044  -32.4316   25.7491 C   0  0  0  0  0  0
  -27.5572  -37.1798   24.8466 C   0  0  0  0  0  0
  -21.4208  -29.3043   22.3651 N   0  0  0  0  0  0
  -26.4288  -37.3767   23.9413 N   0  0  0  0  0  0
  -24.6947  -31.0531   22.0958 N   0  0  0  0  0  0
  -23.4204  -28.8152   23.3009 O   0  0  0  0  0  0
  -28.2766  -26.3400   20.2095 O   0  0  0  0  0  0
  -26.5641  -34.8921   22.4672 O   0  0  0  0  0  0
  -23.5453  -32.1365   23.7293 O   0  0  0  0  0  0
  -30.2506  -19.2074   21.7449 C   0  0  0  0  0  0
  -28.9951  -19.7007   20.0023 C   0  0  0  0  0  0
  -29.7258  -18.6374   20.5458 C   0  0  0  0  0  0
  -29.8506  -20.5216   21.8799 C   0  0  0  0  0  0
  -30.1311  -21.4837   22.9910 C   0  0  0  0  0  0
  -26.6482  -24.7015   21.3665 C   0  0  0  0  0  0
  -30.0405  -17.1999   19.9351 C   0  0  0  0  0  0
  -28.8271  -23.6385   20.3304 C   0  0  0  0  0  0
  -28.2276  -22.1651   20.6754 C   0  0  0  0  0  0
  -28.0920  -24.9924   20.8846 C   0  0  1  0  0  0
  -29.0460  -20.8759   20.7999 N   0  0  0  0  0  0
  -29.8489  -15.8623   20.6433 N   0  0  0  0  0  0
  -31.4727  -12.5487   19.1905 H   0  0  0  0  0  0
  -30.3591  -11.4581   19.9634 H   0  0  0  0  0  0
  -29.7914  -11.7401   17.5243 H   0  0  0  0  0  0
  -29.6497  -13.4673   17.7411 H   0  0  0  0  0  0
  -27.8760  -11.2935   18.8948 H   0  0  0  0  0  0
  -27.3848  -12.5575   17.7999 H   0  0  0  0  0  0
  -27.6444  -14.2589   19.4902 H   0  0  0  0  0  0
  -28.7101  -12.1554   21.4341 H   0  0  0  0  0  0
  -28.4235  -13.8349   21.8114 H   0  0  0  0  0  0
  -25.2766   -9.5683   22.4756 H   0  0  0  0  0  0
  -23.9998   -7.4638   22.7477 H   0  0  0  0  0  0
  -21.0841   -8.8773   19.8952 H   0  0  0  0  0  0
  -22.3700  -10.9669   19.6156 H   0  0  0  0  0  0
  -21.2019   -7.6147   23.9708 H   0  0  0  0  0  0
  -21.1479   -6.0523   25.9071 H   0  0  0  0  0  0
  -22.0600   -2.7607   23.2847 H   0  0  0  0  0  0
  -22.4096  -11.9880   22.4803 H   0  0  0  0  0  0
  -21.1077  -13.1216   22.2628 H   0  0  0  0  0  0
  -24.6519  -15.8460   20.5258 H   0  0  0  0  0  0
  -26.2654  -15.6340   20.0775 H   0  0  0  0  0  0
  -26.7200  -32.5416   23.1084 H   0  0  0  0  0  0
  -25.0066  -33.9692   25.0397 H   0  0  0  0  0  0
  -22.7233  -31.3013   21.3944 H   0  0  0  0  0  0
  -23.3752  -35.9622   23.3306 H   0  0  0  0  0  0
  -24.3582  -36.8906   22.2056 H   0  0  0  0  0  0
  -23.7257  -37.6492   23.6668 H   0  0  0  0  0  0
  -26.1148  -31.5295   20.6104 H   0  0  0  0  0  0
  -26.8488  -30.8198   22.0148 H   0  0  0  0  0  0
  -28.1050  -28.9136   21.2494 H   0  0  0  0  0  0
  -26.0127  -25.9430   18.9357 H   0  0  0  0  0  0
  -23.9942  -27.3357   18.9430 H   0  0  0  0  0  0
  -23.7634  -30.5913   19.4004 H   0  0  0  0  0  0
  -22.7630  -29.2459   19.8500 H   0  0  0  0  0  0
  -25.1301  -36.1907   25.0822 H   0  0  0  0  0  0
  -21.0003  -28.3277   24.1384 H   0  0  0  0  0  0
  -20.5677  -26.2300   23.3609 H   0  0  0  0  0  0
  -21.6648  -26.7443   22.1201 H   0  0  0  0  0  0
  -19.6922  -25.6291   21.1243 H   0  0  0  0  0  0
  -19.6690  -27.3193   20.6744 H   0  0  0  0  0  0
  -17.4204  -26.6672   21.4026 H   0  0  0  0  0  0
  -18.0327  -26.0069   22.9024 H   0  0  0  0  0  0
  -19.7948  -30.7282   24.2225 H   0  0  0  0  0  0
  -17.5033  -31.6259   24.5179 H   0  0  0  0  0  0
  -15.5364  -30.2991   23.7659 H   0  0  0  0  0  0
  -15.8681  -28.0830   22.7058 H   0  0  0  0  0  0
  -24.5911  -30.7038   25.7808 H   0  0  0  0  0  0
  -24.8895  -32.2891   26.4850 H   0  0  0  0  0  0
  -25.8050  -30.8935   27.0244 H   0  0  0  0  0  0
  -26.2910  -29.6748   24.1221 H   0  0  0  0  0  0
  -27.3999  -29.7219   25.4718 H   0  0  0  0  0  0
  -27.8805  -30.4267   23.9469 H   0  0  0  0  0  0
  -27.2632  -33.3630   26.2023 H   0  0  0  0  0  0
  -28.3864  -32.6860   25.0321 H   0  0  0  0  0  0
  -28.0704  -31.8475   26.5437 H   0  0  0  0  0  0
  -28.2587  -38.0097   24.7504 H   0  0  0  0  0  0
  -28.1070  -36.2623   24.6298 H   0  0  0  0  0  0
  -27.2293  -37.1453   25.8871 H   0  0  0  0  0  0
  -20.9393  -29.8769   21.6862 H   0  0  0  0  0  0
  -26.0162  -38.2841   24.1403 H   0  0  0  0  0  0
  -30.8900  -18.6943   22.4509 H   0  0  0  0  0  0
  -28.4124  -19.7215   19.0897 H   0  0  0  0  0  0
  -30.8570  -21.0711   23.6919 H   0  0  0  0  0  0
  -29.2247  -21.7081   23.5544 H   0  0  0  0  0  0
  -30.5348  -22.4230   22.6135 H   0  0  0  0  0  0
  -26.1729  -25.5725   21.8185 H   0  0  0  0  0  0
  -26.0140  -24.3394   20.5577 H   0  0  0  0  0  0
  -26.6274  -23.9538   22.1562 H   0  0  0  0  0  0
  -31.0792  -17.2563   19.6074 H   0  0  0  0  0  0
  -29.4667  -17.1291   19.0104 H   0  0  0  0  0  0
  -28.8818  -23.7084   19.2443 H   0  0  0  0  0  0
  -29.8653  -23.6715   20.6601 H   0  0  0  0  0  0
  -27.4195  -21.9668   19.9706 H   0  0  0  0  0  0
  -27.7265  -22.2339   21.6373 H   0  0  0  0  0  0
  -28.6139  -25.1762   21.8242 H   0  0  0  0  0  0
  -28.9179  -15.6940   20.9927 H   0  0  0  0  0  0
  1 25  1  0  0  0
  1 30  2  0  0  0
  1 82  1  0  0  0
  2  3  1  0  0  0
  2 25  1  0  0  0
  2 83  1  0  0  0
  2 84  1  0  0  0
  3  4  1  0  0  0
  3 85  1  0  0  0
  3 86  1  0  0  0
  4  5  1  0  0  0
  4 87  1  0  0  0
  4 88  1  0  0  0
  5  6  1  0  0  0
  5 26  1  0  0  0
  5 89  1  0  0  0
  6 25  1  0  0  0
  6 90  1  0  0  0
  6 91  1  0  0  0
  7  8  2  0  0  0
  7 26  1  0  0  0
  7 29  1  0  0  0
  8  9  1  0  0  0
  8 22  1  0  0  0
  9 10  1  0  0  0
  9 27  2  0  0  0
 10 11  2  0  0  0
 10 15  1  0  0  0
 11 12  1  0  0  0
 11 92  1  0  0  0
 12 13  2  0  0  0
 12 93  1  0  0  0
 13 14  1  0  0  0
 13 31  1  0  0  0
 14 15  2  0  0  0
 14 94  1  0  0  0
 15 95  1  0  0  0
 16 17  2  0  0  0
 16 21  1  0  0  0
 16 31  1  0  0  0
 17 18  1  0  0  0
 17 96  1  0  0  0
 18 19  2  0  0  0
 18 97  1  0  0  0
 19 20  1  0  0  0
 19 24  1  0  0  0
 20 21  2  0  0  0
 20 98  1  0  0  0
 21 23  1  0  0  0
 22 28  1  0  0  0
 22 32  2  0  0  0
 26 27  1  0  0  0
 28 99  1  0  0  0
 28100  1  0  0  0
 29101  1  0  0  0
 29102  1  0  0  0
 33 34  1  0  0  0
 33 66  1  0  0  0
 33 70  2  0  0  0
 34 36  1  0  0  0
 34 59  1  0  0  0
 34103  1  0  0  0
 35 44  2  0  0  0
 35 45  1  0  0  0
 35 68  1  0  0  0
 36 56  1  0  0  0
 36104  1  0  0  0
 37 39  1  0  0  0
 37 47  1  0  0  0
 37 66  1  0  0  0
 37105  1  0  0  0
 38 43  2  0  0  0
 38 46  1  0  0  0
 38 47  1  0  0  0
 39 64  1  0  0  0
 39 67  2  0  0  0
 40 52  1  0  0  0
 40 53  2  0  0  0
 40 58  1  0  0  0
 41106  1  0  0  0
 41107  1  0  0  0
 41108  1  0  0  0
 41 48  1  0  0  0
 42 43  1  0  0  0
 42 66  1  0  0  0
 42109  1  0  0  0
 42110  1  0  0  0
 43 44  1  0  0  0
 44111  1  0  0  0
 45 46  2  0  0  0
 45112  1  0  0  0
 46113  1  0  0  0
 47114  1  0  0  0
 47115  1  0  0  0
 48 56  1  0  0  0
 48 65  1  0  0  0
 48116  1  0  0  0
 49 50  1  0  0  0
 49 53  1  0  0  0
 49 64  1  0  0  0
 49117  1  0  0  0
 50 51  1  0  0  0
 50118  1  0  0  0
 50119  1  0  0  0
 51 52  1  0  0  0
 51120  1  0  0  0
 51121  1  0  0  0
 52122  1  0  0  0
 52123  1  0  0  0
 53 54  1  0  0  0
 54 55  2  0  0  0
 54124  1  0  0  0
 55 57  1  0  0  0
 55125  1  0  0  0
 56 69  2  0  0  0
 57 58  2  0  0  0
 57126  1  0  0  0
 58127  1  0  0  0
 59 60  1  0  0  0
 59 61  1  0  0  0
 59 62  1  0  0  0
 60128  1  0  0  0
 60129  1  0  0  0
 60130  1  0  0  0
 61131  1  0  0  0
 61132  1  0  0  0
 61133  1  0  0  0
 62134  1  0  0  0
 62135  1  0  0  0
 62136  1  0  0  0
 63 65  1  0  0  0
 63137  1  0  0  0
 63138  1  0  0  0
 63139  1  0  0  0
 64140  1  0  0  0
 65141  1  0  0  0
 68 80  1  0  0  0
 71 73  1  0  0  0
 71 74  2  0  0  0
 71142  1  0  0  0
 72 73  2  0  0  0
 72 81  1  0  0  0
 72143  1  0  0  0
 73 77  1  0  0  0
 74 75  1  0  0  0
 74 81  1  0  0  0
 75144  1  0  0  0
 75145  1  0  0  0
 75146  1  0  0  0
 76147  1  0  0  0
 76148  1  0  0  0
 76149  1  0  0  0
 76 80  1  0  0  0
 77 82  1  0  0  0
 77150  1  0  0  0
 77151  1  0  0  0
 78 79  1  0  0  0
 78 80  1  0  0  0
 78152  1  0  0  0
 78153  1  0  0  0
 79 81  1  0  0  0
 79154  1  0  0  0
 79155  1  0  0  0
 80156  1  0  0  0
 82157  1  0  0  0
M  ISO  4   1 100  68 101  80 101  82 100
M  END
> <chiral flag>
0

> <version>
0

> <s_m_source_file>
/data/baiqing/PycharmProjects/Reinvent-master-3.2/result/LINK_invent/BTK/process_docking_weight1_custom_sum_contain_oxygen_bond_distance_aromatic_linkinvent_7_9_3/rearranged_h_0096.sdf

> <i_m_source_file_index>
85

> <r_mmod_Potential_Energy-OPLS-2005>
154.646667480469

> <r_mmod_Stretch_Energy-OPLS-2005>
122.280303955078

> <r_mmod_Bend_Energy-OPLS-2005>
188.020065307617

> <r_mmod_Torsional_Energy-OPLS-2005>
269.820220947266

> <r_mmod_Improper_Torsional_Energy-OPLS-2005>
9.47101593017578

> <r_mmod_Van_der_Waal_Energy-OPLS-2005>
124.198104858398

> <r_mmod_Electrostatic_Energy-OPLS-2005>
-428.853576660156

> <r_mmod_Solvation_Energy-OPLS-2005>
-213.265686035156

> <b_mmod_Minimization_Converged-OPLS-2005>
0

> <r_mmod_RMS_Derivative-OPLS-2005>
1.29303240776062

$$$$
85
                    3D
 Structure written by MMmdl.
180188  0  0  1  0            999 V2000
  -30.5408  -14.9706   20.4032 C   0  0  0  0  0  0
  -30.4382  -12.6014   19.5004 C   0  0  0  0  0  0
  -29.5165  -12.5337   18.2595 C   0  0  0  0  0  0
  -28.0533  -12.3128   18.6844 C   0  0  0  0  0  0
  -27.6295  -13.2510   19.8456 C   0  0  2  0  0  0
  -28.6769  -13.2897   20.9793 C   0  0  0  0  0  0
  -25.2449  -13.8219   20.5746 C   0  0  0  0  0  0
  -24.1765  -13.0428   20.9263 C   0  0  0  0  0  0
  -24.6379  -11.6916   20.8782 C   0  0  0  0  0  0
  -23.9066  -10.4272   21.0421 C   0  0  0  0  0  0
  -24.3629   -9.4193   21.9182 C   0  0  0  0  0  0
  -23.6300   -8.2225   22.0746 C   0  0  0  0  0  0
  -22.4289   -8.0251   21.3541 C   0  0  0  0  0  0
  -21.9917   -9.0233   20.4647 C   0  0  0  0  0  0
  -22.7241  -10.2114   20.3059 C   0  0  0  0  0  0
  -21.6844   -6.0726   22.5282 C   0  0  0  0  0  0
  -21.4006   -6.5637   23.8204 C   0  0  0  0  0  0
  -21.3663   -5.6795   24.9170 C   0  0  0  0  0  0
  -21.6050   -4.3057   24.7236 C   0  0  0  0  0  0
  -21.8812   -3.8152   23.4349 C   0  0  0  0  0  0
  -21.9194   -4.6958   22.3409 C   0  0  0  0  0  0
  -22.7777  -13.5193   21.1911 C   0  0  0  0  0  0
  -22.1658   -4.2142   21.0974 F   0  0  0  0  0  0
  -21.5638   -3.4545   25.7748 F   0  0  0  0  0  0
  -29.9483  -13.7072   20.3757 N   0  0  0  0  0  0
  -26.2889  -12.9461   20.3323 N   0  0  0  0  0  0
  -25.9322  -11.6592   20.5798 N   0  0  0  0  0  0
  -22.0457  -12.8143   22.0461 N   0  0  0  0  0  0
  -25.4107  -15.1943   20.4135 N   0  0  0  0  0  0
  -31.7401  -15.0270   20.1124 O   0  0  0  0  0  0
  -21.6652   -6.8861   21.4230 O   0  0  0  0  0  0
  -22.3442  -14.5513   20.6773 O   0  0  0  0  0  0
  -24.6501  -31.8389   23.1872 C   0  0  0  0  0  0
  -25.9258  -32.4660   23.8261 C   0  0  1  0  0  0
  -27.1915  -27.0813   20.1358 C   0  0  0  0  0  0
  -25.6026  -33.8473   24.2198 N   0  0  0  0  0  0
  -23.4547  -30.4642   21.5326 C   0  0  2  0  0  0
  -24.9026  -28.9015   20.1034 C   0  0  0  0  0  0
  -22.7599  -29.4503   22.4811 C   0  0  0  0  0  0
  -18.0314  -28.1335   22.8464 C   0  0  0  0  0  0
  -24.1522  -36.7238   23.2635 C   0  0  0  0  0  0
  -26.0167  -30.6914   21.4020 C   0  0  0  0  0  0
  -26.0818  -29.2996   20.7444 C   0  0  0  0  0  0
  -27.2254  -28.4046   20.7561 C   0  0  0  0  0  0
  -26.0080  -26.8517   19.3957 C   0  0  0  0  0  0
  -24.8837  -27.6921   19.4096 C   0  0  0  0  0  0
  -23.6841  -29.8056   20.1494 C   0  0  0  0  0  0
  -25.4151  -36.3008   24.0308 C   0  0  1  0  0  0
  -20.5930  -28.3679   23.1183 C   0  0  2  0  0  0
  -20.6814  -26.9395   22.5341 C   0  0  0  0  0  0
  -19.5783  -26.6356   21.5163 C   0  0  0  0  0  0
  -18.1967  -26.7875   22.1595 C   0  0  0  0  0  0
  -19.1570  -28.8829   23.2818 C   0  0  0  0  0  0
  -18.9503  -30.1435   23.8845 C   0  0  0  0  0  0
  -17.6499  -30.6559   24.0544 C   0  0  0  0  0  0
  -25.9095  -34.9370   23.5050 C   0  0  0  0  0  0
  -16.5389  -29.9044   23.6334 C   0  0  0  0  0  0
  -16.7295  -28.6446   23.0372 C   0  0  0  0  0  0
  -26.4577  -31.6533   25.0712 C   0  0  0  0  0  0
  -25.3773  -31.3649   26.1413 C   0  0  0  0  0  0
  -27.0460  -30.2930   24.6322 C   0  0  0  0  0  0
  -27.6126  -32.4306   25.7457 C   0  0  0  0  0  0
  -27.5583  -37.1777   24.8462 C   0  0  0  0  0  0
  -21.4276  -29.3037   22.3579 N   0  0  0  0  0  0
  -26.4290  -37.3748   23.9413 N   0  0  0  0  0  0
  -24.7269  -31.0215   22.0931 N   0  0  0  0  0  0
  -23.4231  -28.8039   23.2959 O   0  0  0  0  0  0
  -28.1799  -26.0112   20.2559 O   0  0  0  0  0  0
  -26.5650  -34.8879   22.4608 O   0  0  0  0  0  0
  -23.5596  -32.1278   23.7046 O   0  0  0  0  0  0
  -28.7011  -21.7613   20.2987 C   0  0  0  0  0  0
  -29.7017  -23.4918   21.6527 C   0  0  0  0  0  0
  -28.8006  -23.2143   20.6242 C   0  0  0  0  0  0
  -29.3787  -20.6239   20.9795 C   0  0  0  0  0  0
  -30.3441  -22.4679   22.4002 C   0  0  0  0  0  0
  -30.1466  -21.0576   22.1246 C   0  0  0  0  0  0
  -31.5021  -18.8840   22.7910 C   0  0  0  0  0  0
  -29.4615  -19.6428   24.1389 C   0  0  0  0  0  0
  -27.7994  -24.1976   18.5329 C   0  0  0  0  0  0
  -26.5233  -24.1758   20.7868 C   0  0  0  0  0  0
  -33.6869  -24.3702   24.8516 C   0  0  0  0  0  0
  -32.0573  -26.0294   25.6353 C   0  0  0  0  0  0
  -29.0602  -19.0015   20.6952 C   0  0  0  0  0  0
  -31.2070  -22.9145   23.5960 C   0  0  0  0  0  0
  -30.0613  -17.7017   20.2335 C   0  0  0  0  0  0
  -31.4061  -24.4259   23.8664 C   0  0  0  0  0  0
  -30.6232  -20.0599   23.2195 C   0  0  0  0  0  0
  -27.8682  -24.4599   20.0554 C   0  0  0  0  0  0
  -29.7684  -16.1637   20.5357 N   0  0  0  0  0  0
  -32.2513  -24.6763   25.0654 N   0  3  0  0  0  0
  -31.4715  -12.7547   19.1876 H   0  0  0  0  0  0
  -30.4314  -11.6543   20.0419 H   0  0  0  0  0  0
  -29.8354  -11.7324   17.5904 H   0  0  0  0  0  0
  -29.5922  -13.4610   17.6897 H   0  0  0  0  0  0
  -27.9577  -11.2745   19.0040 H   0  0  0  0  0  0
  -27.3820  -12.4346   17.8348 H   0  0  0  0  0  0
  -27.5861  -14.2502   19.4129 H   0  0  0  0  0  0
  -28.7669  -12.3159   21.4633 H   0  0  0  0  0  0
  -28.3812  -13.9976   21.7554 H   0  0  0  0  0  0
  -25.2766   -9.5668   22.4768 H   0  0  0  0  0  0
  -24.0021   -7.4606   22.7450 H   0  0  0  0  0  0
  -21.0858   -8.8744   19.8936 H   0  0  0  0  0  0
  -22.3699  -10.9658   19.6180 H   0  0  0  0  0  0
  -21.1983   -7.6142   23.9711 H   0  0  0  0  0  0
  -21.1497   -6.0525   25.9069 H   0  0  0  0  0  0
  -22.0599   -2.7610   23.2871 H   0  0  0  0  0  0
  -22.4125  -11.9806   22.4811 H   0  0  0  0  0  0
  -21.1063  -13.1112   22.2692 H   0  0  0  0  0  0
  -24.6425  -15.8496   20.5112 H   0  0  0  0  0  0
  -26.2517  -15.6244   20.0531 H   0  0  0  0  0  0
  -26.7302  -32.5255   23.0940 H   0  0  0  0  0  0
  -25.0288  -33.9616   25.0425 H   0  0  0  0  0  0
  -22.7614  -31.2927   21.3748 H   0  0  0  0  0  0
  -23.3818  -35.9538   23.3234 H   0  0  0  0  0  0
  -24.3605  -36.8938   22.2065 H   0  0  0  0  0  0
  -23.7251  -37.6408   23.6697 H   0  0  0  0  0  0
  -26.1849  -31.4389   20.6262 H   0  0  0  0  0  0
  -26.8841  -30.7363   22.0468 H   0  0  0  0  0  0
  -28.1127  -28.6927   21.3019 H   0  0  0  0  0  0
  -25.8674  -25.9610   18.8135 H   0  0  0  0  0  0
  -23.9993  -27.3972   18.8607 H   0  0  0  0  0  0
  -23.8293  -30.5806   19.3952 H   0  0  0  0  0  0
  -22.8007  -29.2485   19.8324 H   0  0  0  0  0  0
  -25.1338  -36.1822   25.0802 H   0  0  0  0  0  0
  -21.0023  -28.3256   24.1299 H   0  0  0  0  0  0
  -20.5704  -26.2297   23.3561 H   0  0  0  0  0  0
  -21.6686  -26.7389   22.1144 H   0  0  0  0  0  0
  -19.6978  -25.6267   21.1203 H   0  0  0  0  0  0
  -19.6721  -27.3166   20.6691 H   0  0  0  0  0  0
  -17.4240  -26.6605   21.4003 H   0  0  0  0  0  0
  -18.0396  -25.9970   22.8954 H   0  0  0  0  0  0
  -19.7987  -30.7251   24.2185 H   0  0  0  0  0  0
  -17.5063  -31.6233   24.5158 H   0  0  0  0  0  0
  -15.5397  -30.2961   23.7646 H   0  0  0  0  0  0
  -15.8688  -28.0759   22.7125 H   0  0  0  0  0  0
  -24.6009  -30.6938   25.7697 H   0  0  0  0  0  0
  -24.8902  -32.2778   26.4841 H   0  0  0  0  0  0
  -25.8102  -30.8814   27.0183 H   0  0  0  0  0  0
  -26.3065  -29.6642   24.1348 H   0  0  0  0  0  0
  -27.4075  -29.7246   25.4902 H   0  0  0  0  0  0
  -27.8969  -30.4164   23.9623 H   0  0  0  0  0  0
  -27.2773  -33.3682   26.1892 H   0  0  0  0  0  0
  -28.3965  -32.6754   25.0275 H   0  0  0  0  0  0
  -28.0743  -31.8517   26.5466 H   0  0  0  0  0  0
  -28.2562  -38.0116   24.7578 H   0  0  0  0  0  0
  -28.1125  -36.2651   24.6203 H   0  0  0  0  0  0
  -27.2276  -37.1307   25.8856 H   0  0  0  0  0  0
  -20.9489  -29.8842   21.6844 H   0  0  0  0  0  0
  -26.0146  -38.2791   24.1499 H   0  0  0  0  0  0
  -27.9946  -21.4975   19.5246 H   0  0  0  0  0  0
  -29.8074  -24.5342   21.9113 H   0  0  0  0  0  0
  -32.1360  -19.1454   21.9417 H   0  0  0  0  0  0
  -30.9093  -17.9963   22.5868 H   0  0  0  0  0  0
  -32.1649  -18.5897   23.6057 H   0  0  0  0  0  0
  -28.9561  -20.5221   24.5391 H   0  0  0  0  0  0
  -29.8157  -19.0572   24.9869 H   0  0  0  0  0  0
  -28.7105  -19.0440   23.6290 H   0  0  0  0  0  0
  -27.1998  -23.3159   18.3078 H   0  0  0  0  0  0
  -28.7961  -24.0090   18.1336 H   0  0  0  0  0  0
  -27.4071  -25.0158   17.9396 H   0  0  0  0  0  0
  -26.3048  -23.1080   20.8194 H   0  0  0  0  0  0
  -25.6263  -24.6100   20.3561 H   0  0  0  0  0  0
  -26.5781  -24.5240   21.8195 H   0  0  0  0  0  0
  -34.2643  -24.5578   25.7576 H   0  0  0  0  0  0
  -34.1104  -24.9762   24.0492 H   0  0  0  0  0  0
  -33.8419  -23.3224   24.5974 H   0  0  0  0  0  0
  -32.6358  -26.1503   26.5518 H   0  0  0  0  0  0
  -31.0131  -26.2014   25.8975 H   0  0  0  0  0  0
  -32.3650  -26.8104   24.9402 H   0  0  0  0  0  0
  -28.2836  -19.0269   19.9304 H   0  0  0  0  0  0
  -28.5098  -18.6545   21.5640 H   0  0  0  0  0  0
  -32.1841  -22.4593   23.4475 H   0  0  0  0  0  0
  -30.7674  -22.4923   24.4999 H   0  0  0  0  0  0
  -31.0977  -17.8889   20.4901 H   0  0  0  0  0  0
  -30.1162  -17.7616   19.1456 H   0  0  0  0  0  0
  -30.4287  -24.8772   24.0377 H   0  0  0  0  0  0
  -31.8428  -24.9292   23.0032 H   0  0  0  0  0  0
  -31.3186  -20.5442   23.8908 H   0  0  0  0  0  0
  -28.8064  -15.9763   20.7761 H   0  0  0  0  0  0
  -31.9281  -24.0463   25.7838 H   0  0  0  0  0  0
  1 25  1  0  0  0
  1 30  2  0  0  0
  1 89  1  0  0  0
  2  3  1  0  0  0
  2 25  1  0  0  0
  2 91  1  0  0  0
  2 92  1  0  0  0
  3  4  1  0  0  0
  3 93  1  0  0  0
  3 94  1  0  0  0
  4  5  1  0  0  0
  4 95  1  0  0  0
  4 96  1  0  0  0
  5  6  1  0  0  0
  5 26  1  0  0  0
  5 97  1  0  0  0
  6 25  1  0  0  0
  6 98  1  0  0  0
  6 99  1  0  0  0
  7  8  2  0  0  0
  7 26  1  0  0  0
  7 29  1  0  0  0
  8  9  1  0  0  0
  8 22  1  0  0  0
  9 10  1  0  0  0
  9 27  2  0  0  0
 10 11  2  0  0  0
 10 15  1  0  0  0
 11 12  1  0  0  0
 11100  1  0  0  0
 12 13  2  0  0  0
 12101  1  0  0  0
 13 14  1  0  0  0
 13 31  1  0  0  0
 14 15  2  0  0  0
 14102  1  0  0  0
 15103  1  0  0  0
 16 17  2  0  0  0
 16 21  1  0  0  0
 16 31  1  0  0  0
 17 18  1  0  0  0
 17104  1  0  0  0
 18 19  2  0  0  0
 18105  1  0  0  0
 19 20  1  0  0  0
 19 24  1  0  0  0
 20 21  2  0  0  0
 20106  1  0  0  0
 21 23  1  0  0  0
 22 28  1  0  0  0
 22 32  2  0  0  0
 26 27  1  0  0  0
 28107  1  0  0  0
 28108  1  0  0  0
 29109  1  0  0  0
 29110  1  0  0  0
 33 34  1  0  0  0
 33 66  1  0  0  0
 33 70  2  0  0  0
 34 36  1  0  0  0
 34 59  1  0  0  0
 34111  1  0  0  0
 35 44  2  0  0  0
 35 45  1  0  0  0
 35 68  1  0  0  0
 36 56  1  0  0  0
 36112  1  0  0  0
 37 39  1  0  0  0
 37 47  1  0  0  0
 37 66  1  0  0  0
 37113  1  0  0  0
 38 43  2  0  0  0
 38 46  1  0  0  0
 38 47  1  0  0  0
 39 64  1  0  0  0
 39 67  2  0  0  0
 40 52  1  0  0  0
 40 53  2  0  0  0
 40 58  1  0  0  0
 41114  1  0  0  0
 41115  1  0  0  0
 41116  1  0  0  0
 41 48  1  0  0  0
 42 43  1  0  0  0
 42 66  1  0  0  0
 42117  1  0  0  0
 42118  1  0  0  0
 43 44  1  0  0  0
 44119  1  0  0  0
 45 46  2  0  0  0
 45120  1  0  0  0
 46121  1  0  0  0
 47122  1  0  0  0
 47123  1  0  0  0
 48 56  1  0  0  0
 48 65  1  0  0  0
 48124  1  0  0  0
 49 50  1  0  0  0
 49 53  1  0  0  0
 49 64  1  0  0  0
 49125  1  0  0  0
 50 51  1  0  0  0
 50126  1  0  0  0
 50127  1  0  0  0
 51 52  1  0  0  0
 51128  1  0  0  0
 51129  1  0  0  0
 52130  1  0  0  0
 52131  1  0  0  0
 53 54  1  0  0  0
 54 55  2  0  0  0
 54132  1  0  0  0
 55 57  1  0  0  0
 55133  1  0  0  0
 56 69  2  0  0  0
 57 58  2  0  0  0
 57134  1  0  0  0
 58135  1  0  0  0
 59 60  1  0  0  0
 59 61  1  0  0  0
 59 62  1  0  0  0
 60136  1  0  0  0
 60137  1  0  0  0
 60138  1  0  0  0
 61139  1  0  0  0
 61140  1  0  0  0
 61141  1  0  0  0
 62142  1  0  0  0
 62143  1  0  0  0
 62144  1  0  0  0
 63 65  1  0  0  0
 63145  1  0  0  0
 63146  1  0  0  0
 63147  1  0  0  0
 64148  1  0  0  0
 65149  1  0  0  0
 68 88  1  0  0  0
 71 73  2  0  0  0
 71 74  1  0  0  0
 71150  1  0  0  0
 72 73  1  0  0  0
 72 75  2  0  0  0
 72151  1  0  0  0
 73 88  1  0  0  0
 74 76  2  0  0  0
 74 83  1  0  0  0
 75 76  1  0  0  0
 75 84  1  0  0  0
 76 87  1  0  0  0
 77152  1  0  0  0
 77153  1  0  0  0
 77154  1  0  0  0
 77 87  1  0  0  0
 78 87  1  0  0  0
 78155  1  0  0  0
 78156  1  0  0  0
 78157  1  0  0  0
 79158  1  0  0  0
 79159  1  0  0  0
 79160  1  0  0  0
 79 88  1  0  0  0
 80 88  1  0  0  0
 80161  1  0  0  0
 80162  1  0  0  0
 80163  1  0  0  0
 81164  1  0  0  0
 81165  1  0  0  0
 81166  1  0  0  0
 81 90  1  0  0  0
 82 90  1  0  0  0
 82167  1  0  0  0
 82168  1  0  0  0
 82169  1  0  0  0
 83 85  1  0  0  0
 83170  1  0  0  0
 83171  1  0  0  0
 84 86  1  0  0  0
 84172  1  0  0  0
 84173  1  0  0  0
 85 89  1  0  0  0
 85174  1  0  0  0
 85175  1  0  0  0
 86 90  1  0  0  0
 86176  1  0  0  0
 86177  1  0  0  0
 87178  1  0  0  0
 89179  1  0  0  0
 90180  1  0  0  0
M  CHG  1  90   1
M  ISO  4   1 100  68 101  88 101  89 100
M  END
> <chiral flag>
0

> <version>
0

> <s_m_source_file>
/data/baiqing/PycharmProjects/Reinvent-master-3.2/result/LINK_invent/BTK/process_docking_weight1_custom_sum_contain_oxygen_bond_distance_aromatic_linkinvent_7_9_3/rearranged_h_0096.sdf

> <i_m_source_file_index>
86

> <r_mmod_Potential_Energy-OPLS-2005>
526.757995605469

> <r_mmod_Stretch_Energy-OPLS-2005>
314.696472167969

> <r_mmod_Bend_Energy-OPLS-2005>
304.7138671875

> <r_mmod_Torsional_Energy-OPLS-2005>
251.094085693359

> <r_mmod_Improper_Torsional_Energy-OPLS-2005>
8.51512050628662

> <r_mmod_Van_der_Waal_Energy-OPLS-2005>
171.704696655273

> <r_mmod_Electrostatic_Energy-OPLS-2005>
-319.920166015625

> <r_mmod_Solvation_Energy-OPLS-2005>
-440.402984619141

> <b_mmod_Minimization_Converged-OPLS-2005>
0

> <r_mmod_RMS_Derivative-OPLS-2005>
3.83184885978699

$$$$
86
                    3D
 Structure written by MMmdl.
187195  0  0  1  0            999 V2000
  -30.7019  -14.4667   20.3988 C   0  0  0  0  0  0
  -30.4143  -12.2592   19.4198 C   0  0  0  0  0  0
  -29.4850  -12.4332   18.1996 C   0  0  0  0  0  0
  -28.0036  -12.3351   18.6177 C   0  0  0  0  0  0
  -27.6528  -13.2029   19.8580 C   0  0  2  0  0  0
  -28.7097  -13.0453   20.9767 C   0  0  0  0  0  0
  -25.2608  -13.8160   20.5741 C   0  0  0  0  0  0
  -24.1838  -13.0425   20.9181 C   0  0  0  0  0  0
  -24.6392  -11.6898   20.8728 C   0  0  0  0  0  0
  -23.9062  -10.4289   21.0387 C   0  0  0  0  0  0
  -24.3619   -9.4213   21.9168 C   0  0  0  0  0  0
  -23.6294   -8.2249   22.0738 C   0  0  0  0  0  0
  -22.4270   -8.0282   21.3535 C   0  0  0  0  0  0
  -21.9896   -9.0262   20.4640 C   0  0  0  0  0  0
  -22.7233  -10.2133   20.3036 C   0  0  0  0  0  0
  -21.6858   -6.0729   22.5279 C   0  0  0  0  0  0
  -21.4024   -6.5642   23.8200 C   0  0  0  0  0  0
  -21.3665   -5.6800   24.9171 C   0  0  0  0  0  0
  -21.6050   -4.3066   24.7222 C   0  0  0  0  0  0
  -21.8826   -3.8149   23.4352 C   0  0  0  0  0  0
  -21.9197   -4.6957   22.3390 C   0  0  0  0  0  0
  -22.7872  -13.5239   21.1841 C   0  0  0  0  0  0
  -22.1643   -4.2137   21.0969 F   0  0  0  0  0  0
  -21.5630   -3.4553   25.7744 F   0  0  0  0  0  0
  -30.0318  -13.2902   20.3886 N   0  0  0  0  0  0
  -26.3014  -12.9308   20.3361 N   0  0  0  0  0  0
  -25.9312  -11.6471   20.5782 N   0  0  0  0  0  0
  -22.0508  -12.8227   22.0399 N   0  0  0  0  0  0
  -25.4351  -15.1878   20.4308 N   0  0  0  0  0  0
  -31.9312  -14.5266   20.3184 O   0  0  0  0  0  0
  -21.6633   -6.8870   21.4237 O   0  0  0  0  0  0
  -22.3558  -14.5535   20.6675 O   0  0  0  0  0  0
  -24.6100  -31.8703   23.2099 C   0  0  0  0  0  0
  -25.8983  -32.4853   23.8426 C   0  0  1  0  0  0
  -27.2435  -27.4618   20.0981 C   0  0  0  0  0  0
  -25.5829  -33.8660   24.2368 N   0  0  0  0  0  0
  -23.4030  -30.4871   21.5500 C   0  0  2  0  0  0
  -24.8528  -28.9485   20.1223 C   0  0  0  0  0  0
  -22.7412  -29.4638   22.5015 C   0  0  0  0  0  0
  -18.0271  -28.1374   22.8494 C   0  0  0  0  0  0
  -24.1471  -36.7339   23.2648 C   0  0  0  0  0  0
  -25.9274  -30.8382   21.3633 C   0  0  0  0  0  0
  -26.0083  -29.4711   20.7193 C   0  0  0  0  0  0
  -27.2087  -28.7309   20.7104 C   0  0  0  0  0  0
  -26.0772  -26.9402   19.5028 C   0  0  0  0  0  0
  -24.8787  -27.6795   19.5150 C   0  0  0  0  0  0
  -23.6148  -29.8120   20.1666 C   0  0  0  0  0  0
  -25.4089  -36.3165   24.0366 C   0  0  1  0  0  0
  -20.5864  -28.3645   23.1331 C   0  0  2  0  0  0
  -20.6766  -26.9380   22.5426 C   0  0  0  0  0  0
  -19.5745  -26.6366   21.5223 C   0  0  0  0  0  0
  -18.1924  -26.7920   22.1633 C   0  0  0  0  0  0
  -19.1522  -28.8827   23.2915 C   0  0  0  0  0  0
  -18.9453  -30.1447   23.8910 C   0  0  0  0  0  0
  -17.6453  -30.6586   24.0559 C   0  0  0  0  0  0
  -25.9002  -34.9510   23.5179 C   0  0  0  0  0  0
  -16.5346  -29.9084   23.6319 C   0  0  0  0  0  0
  -16.7259  -28.6505   23.0329 C   0  0  0  0  0  0
  -26.4420  -31.6619   25.0749 C   0  0  0  0  0  0
  -25.3680  -31.3705   26.1487 C   0  0  0  0  0  0
  -27.0248  -30.3084   24.6088 C   0  0  0  0  0  0
  -27.6025  -32.4306   25.7485 C   0  0  0  0  0  0
  -27.5596  -37.1825   24.8471 C   0  0  0  0  0  0
  -21.4145  -29.3019   22.3748 N   0  0  0  0  0  0
  -26.4304  -37.3828   23.9416 N   0  0  0  0  0  0
  -24.6657  -31.0780   22.1015 N   0  0  0  0  0  0
  -23.4182  -28.8169   23.3053 O   0  0  0  0  0  0
  -28.4015  -26.7294   20.0686 O   0  0  0  0  0  0
  -26.5583  -34.8946   22.4757 O   0  0  0  0  0  0
  -23.5290  -32.1429   23.7492 O   0  0  0  0  0  0
  -25.7540  -19.8677   20.2608 C   0  0  0  0  0  0
  -26.3980  -19.8455   21.5352 C   0  0  0  0  0  0
  -26.3428  -18.9069   19.4749 C   0  0  0  0  0  0
  -27.4107  -18.9177   21.4701 C   0  0  0  0  0  0
  -24.6479  -20.8216   19.8448 C   0  0  0  0  0  0
  -28.4564  -18.6032   22.4994 C   0  0  0  0  0  0
  -25.7109  -20.0215   23.9980 C   0  0  0  0  0  0
  -26.7546  -19.5646   17.0704 C   0  0  0  0  0  0
  -24.5833  -18.3904   17.6700 C   0  0  0  0  0  0
  -29.6823  -26.2051   21.9979 C   0  0  0  0  0  0
  -30.5527  -15.9556   18.5020 C   0  0  0  0  0  0
  -28.7111  -24.3694   20.4585 C   0  0  0  0  0  0
  -28.2921  -17.3064   19.6314 C   0  0  0  0  0  0
  -29.2155  -16.4352   20.5372 C   0  0  0  0  0  0
  -28.6879  -23.1826   21.4482 C   0  0  0  0  0  0
  -27.1580  -21.8403   22.8827 C   0  0  0  0  0  0
  -26.0618  -20.7724   22.7010 C   0  0  1  0  0  0
  -26.0726  -18.5657   18.0179 C   0  0  0  0  0  0
  -28.5097  -25.7571   21.1078 C   0  0  2  0  0  0
  -27.3734  -18.3081   20.2122 N   0  0  0  0  0  0
  -30.0040  -15.4483   19.7757 N   0  0  0  0  0  0
  -27.3339  -22.6152   21.6351 N   0  3  0  0  0  0
  -31.4599  -12.3361   19.1132 H   0  0  0  0  0  0
  -30.3043  -11.2659   19.8565 H   0  0  0  0  0  0
  -29.7108  -11.6727   17.4516 H   0  0  0  0  0  0
  -29.6663  -13.3920   17.7175 H   0  0  0  0  0  0
  -27.8014  -11.2875   18.8381 H   0  0  0  0  0  0
  -27.3507  -12.5989   17.7833 H   0  0  0  0  0  0
  -27.6695  -14.2359   19.5202 H   0  0  0  0  0  0
  -28.6814  -12.0420   21.4004 H   0  0  0  0  0  0
  -28.5187  -13.7317   21.8027 H   0  0  0  0  0  0
  -25.2750   -9.5706   22.4765 H   0  0  0  0  0  0
  -24.0034   -7.4646   22.7451 H   0  0  0  0  0  0
  -21.0829   -8.8780   19.8937 H   0  0  0  0  0  0
  -22.3683  -10.9683   19.6148 H   0  0  0  0  0  0
  -21.2004   -7.6147   23.9706 H   0  0  0  0  0  0
  -21.1473   -6.0522   25.9073 H   0  0  0  0  0  0
  -22.0596   -2.7615   23.2846 H   0  0  0  0  0  0
  -22.4123  -11.9872   22.4752 H   0  0  0  0  0  0
  -21.1110  -13.1211   22.2560 H   0  0  0  0  0  0
  -24.6925  -15.8541   20.6155 H   0  0  0  0  0  0
  -26.3172  -15.6354   20.2271 H   0  0  0  0  0  0
  -26.7057  -32.5571   23.1201 H   0  0  0  0  0  0
  -24.9954  -33.9832   25.0496 H   0  0  0  0  0  0
  -22.6928  -31.3032   21.4038 H   0  0  0  0  0  0
  -23.3754  -35.9654   23.3330 H   0  0  0  0  0  0
  -24.3576  -36.8918   22.2058 H   0  0  0  0  0  0
  -23.7175  -37.6543   23.6621 H   0  0  0  0  0  0
  -26.0271  -31.5909   20.5803 H   0  0  0  0  0  0
  -26.8219  -30.9083   21.9724 H   0  0  0  0  0  0
  -28.1031  -29.1270   21.1745 H   0  0  0  0  0  0
  -26.0979  -25.9664   19.0335 H   0  0  0  0  0  0
  -23.9909  -27.2663   19.0564 H   0  0  0  0  0  0
  -23.7333  -30.5806   19.4027 H   0  0  0  0  0  0
  -22.7437  -29.2275   19.8663 H   0  0  0  0  0  0
  -25.1259  -36.2082   25.0862 H   0  0  0  0  0  0
  -20.9947  -28.3188   24.1456 H   0  0  0  0  0  0
  -20.5655  -26.2252   23.3613 H   0  0  0  0  0  0
  -21.6638  -26.7408   22.1225 H   0  0  0  0  0  0
  -19.6891  -25.6274   21.1250 H   0  0  0  0  0  0
  -19.6689  -27.3185   20.6760 H   0  0  0  0  0  0
  -17.4197  -26.6664   21.4031 H   0  0  0  0  0  0
  -18.0312  -26.0073   22.9037 H   0  0  0  0  0  0
  -19.7927  -30.7265   24.2281 H   0  0  0  0  0  0
  -17.5000  -31.6258   24.5176 H   0  0  0  0  0  0
  -15.5346  -30.2979   23.7649 H   0  0  0  0  0  0
  -15.8663  -28.0832   22.7016 H   0  0  0  0  0  0
  -24.5874  -30.7039   25.7810 H   0  0  0  0  0  0
  -24.8831  -32.2840   26.4939 H   0  0  0  0  0  0
  -25.8018  -30.8877   27.0246 H   0  0  0  0  0  0
  -26.2810  -29.6877   24.1086 H   0  0  0  0  0  0
  -27.3983  -29.7288   25.4530 H   0  0  0  0  0  0
  -27.8641  -30.4461   23.9274 H   0  0  0  0  0  0
  -27.2711  -33.3605   26.2107 H   0  0  0  0  0  0
  -28.3802  -32.6839   25.0278 H   0  0  0  0  0  0
  -28.0712  -31.8381   26.5342 H   0  0  0  0  0  0
  -28.2632  -38.0111   24.7541 H   0  0  0  0  0  0
  -28.1079  -36.2649   24.6277 H   0  0  0  0  0  0
  -27.2323  -37.1458   25.8879 H   0  0  0  0  0  0
  -20.9307  -29.8790   21.7009 H   0  0  0  0  0  0
  -26.0229  -38.2934   24.1386 H   0  0  0  0  0  0
  -24.7077  -21.7784   20.3608 H   0  0  0  0  0  0
  -23.6678  -20.3900   20.0497 H   0  0  0  0  0  0
  -24.7074  -21.0602   18.7849 H   0  0  0  0  0  0
  -28.3805  -19.2205   23.3867 H   0  0  0  0  0  0
  -29.4524  -18.8013   22.1073 H   0  0  0  0  0  0
  -28.3890  -17.5714   22.8443 H   0  0  0  0  0  0
  -24.8968  -19.3168   23.8274 H   0  0  0  0  0  0
  -25.3729  -20.7211   24.7623 H   0  0  0  0  0  0
  -26.5411  -19.4623   24.4224 H   0  0  0  0  0  0
  -27.8296  -19.5952   17.2478 H   0  0  0  0  0  0
  -26.3682  -20.5772   17.1903 H   0  0  0  0  0  0
  -26.6075  -19.2779   16.0294 H   0  0  0  0  0  0
  -24.1163  -17.6496   18.3187 H   0  0  0  0  0  0
  -24.4682  -18.0401   16.6443 H   0  0  0  0  0  0
  -24.0029  -19.3060   17.7488 H   0  0  0  0  0  0
  -29.8352  -25.5468   22.8531 H   0  0  0  0  0  0
  -29.5065  -27.2061   22.3929 H   0  0  0  0  0  0
  -30.6168  -26.2337   21.4353 H   0  0  0  0  0  0
  -29.7620  -16.0948   17.7665 H   0  0  0  0  0  0
  -31.2594  -15.2674   18.0315 H   0  0  0  0  0  0
  -31.0720  -16.9044   18.6501 H   0  0  0  0  0  0
  -27.9578  -24.2041   19.6868 H   0  0  0  0  0  0
  -29.6660  -24.3739   19.9298 H   0  0  0  0  0  0
  -27.6964  -16.5859   19.0770 H   0  0  0  0  0  0
  -28.8839  -17.8593   18.9028 H   0  0  0  0  0  0
  -28.6238  -15.9285   21.3004 H   0  0  0  0  0  0
  -29.9561  -17.0438   21.0488 H   0  0  0  0  0  0
  -29.1095  -23.4730   22.4105 H   0  0  0  0  0  0
  -29.3280  -22.3841   21.0697 H   0  0  0  0  0  0
  -28.1012  -21.3679   23.1498 H   0  0  0  0  0  0
  -26.9176  -22.5150   23.7055 H   0  0  0  0  0  0
  -25.1448  -21.3030   22.4498 H   0  0  0  0  0  0
  -26.4974  -17.5990   17.7648 H   0  0  0  0  0  0
  -27.6012  -25.7278   21.7137 H   0  0  0  0  0  0
  -27.1483  -21.9750   20.8725 H   0  0  0  0  0  0
  -26.6373  -23.3429   21.6153 H   0  0  0  0  0  0
  1 25  1  0  0  0
  1 30  2  0  0  0
  1 91  1  0  0  0
  2  3  1  0  0  0
  2 25  1  0  0  0
  2 93  1  0  0  0
  2 94  1  0  0  0
  3  4  1  0  0  0
  3 95  1  0  0  0
  3 96  1  0  0  0
  4  5  1  0  0  0
  4 97  1  0  0  0
  4 98  1  0  0  0
  5  6  1  0  0  0
  5 26  1  0  0  0
  5 99  1  0  0  0
  6 25  1  0  0  0
  6100  1  0  0  0
  6101  1  0  0  0
  7  8  2  0  0  0
  7 26  1  0  0  0
  7 29  1  0  0  0
  8  9  1  0  0  0
  8 22  1  0  0  0
  9 10  1  0  0  0
  9 27  2  0  0  0
 10 11  2  0  0  0
 10 15  1  0  0  0
 11 12  1  0  0  0
 11102  1  0  0  0
 12 13  2  0  0  0
 12103  1  0  0  0
 13 14  1  0  0  0
 13 31  1  0  0  0
 14 15  2  0  0  0
 14104  1  0  0  0
 15105  1  0  0  0
 16 17  2  0  0  0
 16 21  1  0  0  0
 16 31  1  0  0  0
 17 18  1  0  0  0
 17106  1  0  0  0
 18 19  2  0  0  0
 18107  1  0  0  0
 19 20  1  0  0  0
 19 24  1  0  0  0
 20 21  2  0  0  0
 20108  1  0  0  0
 21 23  1  0  0  0
 22 28  1  0  0  0
 22 32  2  0  0  0
 26 27  1  0  0  0
 28109  1  0  0  0
 28110  1  0  0  0
 29111  1  0  0  0
 29112  1  0  0  0
 33 34  1  0  0  0
 33 66  1  0  0  0
 33 70  2  0  0  0
 34 36  1  0  0  0
 34 59  1  0  0  0
 34113  1  0  0  0
 35 44  2  0  0  0
 35 45  1  0  0  0
 35 68  1  0  0  0
 36 56  1  0  0  0
 36114  1  0  0  0
 37 39  1  0  0  0
 37 47  1  0  0  0
 37 66  1  0  0  0
 37115  1  0  0  0
 38 43  2  0  0  0
 38 46  1  0  0  0
 38 47  1  0  0  0
 39 64  1  0  0  0
 39 67  2  0  0  0
 40 52  1  0  0  0
 40 53  2  0  0  0
 40 58  1  0  0  0
 41116  1  0  0  0
 41117  1  0  0  0
 41118  1  0  0  0
 41 48  1  0  0  0
 42 43  1  0  0  0
 42 66  1  0  0  0
 42119  1  0  0  0
 42120  1  0  0  0
 43 44  1  0  0  0
 44121  1  0  0  0
 45 46  2  0  0  0
 45122  1  0  0  0
 46123  1  0  0  0
 47124  1  0  0  0
 47125  1  0  0  0
 48 56  1  0  0  0
 48 65  1  0  0  0
 48126  1  0  0  0
 49 50  1  0  0  0
 49 53  1  0  0  0
 49 64  1  0  0  0
 49127  1  0  0  0
 50 51  1  0  0  0
 50128  1  0  0  0
 50129  1  0  0  0
 51 52  1  0  0  0
 51130  1  0  0  0
 51131  1  0  0  0
 52132  1  0  0  0
 52133  1  0  0  0
 53 54  1  0  0  0
 54 55  2  0  0  0
 54134  1  0  0  0
 55 57  1  0  0  0
 55135  1  0  0  0
 56 69  2  0  0  0
 57 58  2  0  0  0
 57136  1  0  0  0
 58137  1  0  0  0
 59 60  1  0  0  0
 59 61  1  0  0  0
 59 62  1  0  0  0
 60138  1  0  0  0
 60139  1  0  0  0
 60140  1  0  0  0
 61141  1  0  0  0
 61142  1  0  0  0
 61143  1  0  0  0
 62144  1  0  0  0
 62145  1  0  0  0
 62146  1  0  0  0
 63 65  1  0  0  0
 63147  1  0  0  0
 63148  1  0  0  0
 63149  1  0  0  0
 64150  1  0  0  0
 65151  1  0  0  0
 68 89  1  0  0  0
 71 72  1  0  0  0
 71 73  2  0  0  0
 71 75  1  0  0  0
 72 74  2  0  0  0
 72 87  1  0  0  0
 73 88  1  0  0  0
 73 90  1  0  0  0
 74 76  1  0  0  0
 74 90  1  0  0  0
 75152  1  0  0  0
 75153  1  0  0  0
 75154  1  0  0  0
 76155  1  0  0  0
 76156  1  0  0  0
 76157  1  0  0  0
 77158  1  0  0  0
 77159  1  0  0  0
 77160  1  0  0  0
 77 87  1  0  0  0
 78161  1  0  0  0
 78162  1  0  0  0
 78163  1  0  0  0
 78 88  1  0  0  0
 79 88  1  0  0  0
 79164  1  0  0  0
 79165  1  0  0  0
 79166  1  0  0  0
 80167  1  0  0  0
 80168  1  0  0  0
 80169  1  0  0  0
 80 89  1  0  0  0
 81 91  1  0  0  0
 81170  1  0  0  0
 81171  1  0  0  0
 81172  1  0  0  0
 82 85  1  0  0  0
 82 89  1  0  0  0
 82173  1  0  0  0
 82174  1  0  0  0
 83 84  1  0  0  0
 83 90  1  0  0  0
 83175  1  0  0  0
 83176  1  0  0  0
 84 91  1  0  0  0
 84177  1  0  0  0
 84178  1  0  0  0
 85 92  1  0  0  0
 85179  1  0  0  0
 85180  1  0  0  0
 86 87  1  0  0  0
 86 92  1  0  0  0
 86181  1  0  0  0
 86182  1  0  0  0
 87183  1  0  0  0
 88184  1  0  0  0
 89185  1  0  0  0
 92186  1  0  0  0
 92187  1  0  0  0
M  CHG  1  92   1
M  ISO  4   1 100  68 101  89 101  91 100
M  END
> <chiral flag>
0

> <version>
0

> <s_m_source_file>
/data/baiqing/PycharmProjects/Reinvent-master-3.2/result/LINK_invent/BTK/process_docking_weight1_custom_sum_contain_oxygen_bond_distance_aromatic_linkinvent_7_9_3/rearranged_h_0096.sdf

> <i_m_source_file_index>
87

> <r_mmod_Potential_Energy-OPLS-2005>
-22.6615085601807

> <r_mmod_Stretch_Energy-OPLS-2005>
39.5268020629883

> <r_mmod_Bend_Energy-OPLS-2005>
123.801612854004

> <r_mmod_Torsional_Energy-OPLS-2005>
376.910766601562

> <r_mmod_Improper_Torsional_Energy-OPLS-2005>
30.4719867706299

> <r_mmod_Van_der_Waal_Energy-OPLS-2005>
131.160797119141

> <r_mmod_Electrostatic_Energy-OPLS-2005>
-345.739501953125

> <r_mmod_Solvation_Energy-OPLS-2005>
-408.735900878906

> <b_mmod_Minimization_Converged-OPLS-2005>
0

> <r_mmod_RMS_Derivative-OPLS-2005>
3.30857682228088

$$$$
87
                    3D
 Structure written by MMmdl.
167175  0  0  1  0            999 V2000
  -30.6655  -14.5568   20.5050 C   0  0  0  0  0  0
  -30.4222  -12.3410   19.4331 C   0  0  0  0  0  0
  -29.4956  -12.4934   18.2082 C   0  0  0  0  0  0
  -28.0183  -12.3406   18.6250 C   0  0  0  0  0  0
  -27.6507  -13.2092   19.8573 C   0  0  2  0  0  0
  -28.6960  -13.0512   20.9840 C   0  0  0  0  0  0
  -25.2550  -13.8151   20.5664 C   0  0  0  0  0  0
  -24.1819  -13.0426   20.9188 C   0  0  0  0  0  0
  -24.6379  -11.6891   20.8728 C   0  0  0  0  0  0
  -23.9049  -10.4284   21.0403 C   0  0  0  0  0  0
  -24.3607   -9.4201   21.9180 C   0  0  0  0  0  0
  -23.6286   -8.2233   22.0750 C   0  0  0  0  0  0
  -22.4265   -8.0274   21.3539 C   0  0  0  0  0  0
  -21.9898   -9.0246   20.4641 C   0  0  0  0  0  0
  -22.7224  -10.2127   20.3051 C   0  0  0  0  0  0
  -21.6857   -6.0733   22.5278 C   0  0  0  0  0  0
  -21.4014   -6.5635   23.8212 C   0  0  0  0  0  0
  -21.3652   -5.6785   24.9172 C   0  0  0  0  0  0
  -21.6045   -4.3048   24.7223 C   0  0  0  0  0  0
  -21.8820   -3.8143   23.4340 C   0  0  0  0  0  0
  -21.9188   -4.6960   22.3397 C   0  0  0  0  0  0
  -22.7846  -13.5226   21.1856 C   0  0  0  0  0  0
  -22.1664   -4.2143   21.0977 F   0  0  0  0  0  0
  -21.5628   -3.4530   25.7736 F   0  0  0  0  0  0
  -30.0142  -13.3611   20.4138 N   0  0  0  0  0  0
  -26.2969  -12.9326   20.3285 N   0  0  0  0  0  0
  -25.9306  -11.6484   20.5743 N   0  0  0  0  0  0
  -22.0488  -12.8214   22.0410 N   0  0  0  0  0  0
  -25.4247  -15.1873   20.4058 N   0  0  0  0  0  0
  -31.8441  -14.6735   20.1560 O   0  0  0  0  0  0
  -21.6629   -6.8870   21.4241 O   0  0  0  0  0  0
  -22.3536  -14.5531   20.6705 O   0  0  0  0  0  0
  -24.6187  -31.8635   23.2051 C   0  0  0  0  0  0
  -25.9065  -32.4804   23.8358 C   0  0  1  0  0  0
  -27.2282  -27.3894   20.1121 C   0  0  0  0  0  0
  -25.5908  -33.8601   24.2292 N   0  0  0  0  0  0
  -23.4076  -30.4867   21.5457 C   0  0  2  0  0  0
  -24.8535  -28.9399   20.1182 C   0  0  0  0  0  0
  -22.7426  -29.4651   22.4969 C   0  0  0  0  0  0
  -18.0286  -28.1384   22.8503 C   0  0  0  0  0  0
  -24.1491  -36.7299   23.2634 C   0  0  0  0  0  0
  -25.9394  -30.8186   21.3608 C   0  0  0  0  0  0
  -26.0171  -29.4460   20.7131 C   0  0  0  0  0  0
  -27.2103  -28.6812   20.6999 C   0  0  0  0  0  0
  -26.0477  -26.9043   19.5132 C   0  0  0  0  0  0
  -24.8657  -27.6700   19.5141 C   0  0  0  0  0  0
  -23.6182  -29.8138   20.1627 C   0  0  0  0  0  0
  -25.4114  -36.3105   24.0331 C   0  0  1  0  0  0
  -20.5874  -28.3670   23.1316 C   0  0  2  0  0  0
  -20.6778  -26.9406   22.5415 C   0  0  0  0  0  0
  -19.5752  -26.6395   21.5214 C   0  0  0  0  0  0
  -18.1929  -26.7935   22.1631 C   0  0  0  0  0  0
  -19.1535  -28.8845   23.2909 C   0  0  0  0  0  0
  -18.9453  -30.1456   23.8910 C   0  0  0  0  0  0
  -17.6450  -30.6586   24.0562 C   0  0  0  0  0  0
  -25.9041  -34.9470   23.5109 C   0  0  0  0  0  0
  -16.5344  -29.9086   23.6325 C   0  0  0  0  0  0
  -16.7269  -28.6502   23.0350 C   0  0  0  0  0  0
  -26.4473  -31.6586   25.0692 C   0  0  0  0  0  0
  -25.3734  -31.3691   26.1428 C   0  0  0  0  0  0
  -27.0279  -30.3030   24.6061 C   0  0  0  0  0  0
  -27.6056  -32.4291   25.7455 C   0  0  0  0  0  0
  -27.5571  -37.1805   24.8460 C   0  0  0  0  0  0
  -21.4148  -29.3030   22.3710 N   0  0  0  0  0  0
  -26.4292  -37.3796   23.9401 N   0  0  0  0  0  0
  -24.6740  -31.0716   22.0960 N   0  0  0  0  0  0
  -23.4190  -28.8208   23.3025 O   0  0  0  0  0  0
  -28.3884  -26.6384   20.0616 O   0  0  0  0  0  0
  -26.5597  -34.8938   22.4673 O   0  0  0  0  0  0
  -23.5371  -32.1384   23.7439 O   0  0  0  0  0  0
  -29.4724  -18.0172   20.1812 C   0  0  0  0  0  0
  -29.8492  -19.3992   20.1802 C   0  0  0  0  0  0
  -31.0185  -19.7310   20.9202 C   0  0  0  0  0  0
  -31.7093  -18.6923   21.5989 C   0  0  0  0  0  0
  -30.2561  -17.0237   20.8334 C   0  0  0  0  0  0
  -31.5433  -21.1656   20.9987 C   0  0  0  0  0  0
  -32.5567  -19.4580   23.8664 C   0  0  0  0  0  0
  -28.3546  -19.7848   18.1204 C   0  0  0  0  0  0
  -32.9329  -18.9354   22.4752 C   0  0  0  0  0  0
  -28.0992  -24.0703   19.9029 C   0  0  0  0  0  0
  -28.1448  -21.4958   20.0023 C   0  0  0  0  0  0
  -28.4116  -25.3563   20.7443 C   0  0  0  0  0  0
  -29.1017  -20.4550   19.2932 C   0  0  1  0  0  0
  -31.3279  -17.4005   21.5567 N   0  0  0  0  0  0
  -29.8739  -15.6393   20.7418 N   0  0  0  0  0  0
  -28.7339  -22.8085   20.4399 N   0  3  0  0  0  0
  -31.4678  -12.4369   19.1343 H   0  0  0  0  0  0
  -30.3246  -11.3444   19.8656 H   0  0  0  0  0  0
  -29.7492  -11.7510   17.4490 H   0  0  0  0  0  0
  -29.6475  -13.4684   17.7430 H   0  0  0  0  0  0
  -27.8502  -11.2877   18.8548 H   0  0  0  0  0  0
  -27.3612  -12.5756   17.7871 H   0  0  0  0  0  0
  -27.6718  -14.2442   19.5172 H   0  0  0  0  0  0
  -28.6915  -12.0307   21.3702 H   0  0  0  0  0  0
  -28.4587  -13.6928   21.8350 H   0  0  0  0  0  0
  -25.2761   -9.5679   22.4738 H   0  0  0  0  0  0
  -24.0001   -7.4625   22.7460 H   0  0  0  0  0  0
  -21.0834   -8.8761   19.8946 H   0  0  0  0  0  0
  -22.3688  -10.9661   19.6148 H   0  0  0  0  0  0
  -21.2017   -7.6145   23.9714 H   0  0  0  0  0  0
  -21.1476   -6.0515   25.9072 H   0  0  0  0  0  0
  -22.0607   -2.7605   23.2838 H   0  0  0  0  0  0
  -22.4111  -11.9878   22.4800 H   0  0  0  0  0  0
  -21.1110  -13.1239   22.2609 H   0  0  0  0  0  0
  -24.6517  -15.8360   20.5096 H   0  0  0  0  0  0
  -26.2599  -15.6270   20.0441 H   0  0  0  0  0  0
  -26.7140  -32.5491   23.1120 H   0  0  0  0  0  0
  -25.0102  -33.9760   25.0465 H   0  0  0  0  0  0
  -22.6980  -31.3037   21.4045 H   0  0  0  0  0  0
  -23.3763  -35.9622   23.3305 H   0  0  0  0  0  0
  -24.3580  -36.8901   22.2045 H   0  0  0  0  0  0
  -23.7244  -37.6510   23.6636 H   0  0  0  0  0  0
  -26.0526  -31.5805   20.5887 H   0  0  0  0  0  0
  -26.8260  -30.8767   21.9801 H   0  0  0  0  0  0
  -28.1108  -29.0738   21.1532 H   0  0  0  0  0  0
  -26.0364  -25.9377   19.0309 H   0  0  0  0  0  0
  -23.9729  -27.2765   19.0466 H   0  0  0  0  0  0
  -23.7312  -30.5830   19.3980 H   0  0  0  0  0  0
  -22.7403  -29.2352   19.8701 H   0  0  0  0  0  0
  -25.1315  -36.1951   25.0827 H   0  0  0  0  0  0
  -20.9976  -28.3235   24.1434 H   0  0  0  0  0  0
  -20.5696  -26.2272   23.3606 H   0  0  0  0  0  0
  -21.6650  -26.7460   22.1196 H   0  0  0  0  0  0
  -19.6904  -25.6311   21.1234 H   0  0  0  0  0  0
  -19.6694  -27.3217   20.6756 H   0  0  0  0  0  0
  -17.4209  -26.6701   21.4021 H   0  0  0  0  0  0
  -18.0318  -26.0071   22.9022 H   0  0  0  0  0  0
  -19.7927  -30.7277   24.2274 H   0  0  0  0  0  0
  -17.5004  -31.6261   24.5169 H   0  0  0  0  0  0
  -15.5347  -30.2983   23.7635 H   0  0  0  0  0  0
  -15.8683  -28.0817   22.7051 H   0  0  0  0  0  0
  -24.5936  -30.7011   25.7753 H   0  0  0  0  0  0
  -24.8892  -32.2845   26.4844 H   0  0  0  0  0  0
  -25.8084  -30.8882   27.0206 H   0  0  0  0  0  0
  -26.2801  -29.6832   24.1099 H   0  0  0  0  0  0
  -27.4037  -29.7231   25.4501 H   0  0  0  0  0  0
  -27.8660  -30.4353   23.9213 H   0  0  0  0  0  0
  -27.2691  -33.3605   26.2027 H   0  0  0  0  0  0
  -28.3866  -32.6815   25.0264 H   0  0  0  0  0  0
  -28.0732  -31.8414   26.5373 H   0  0  0  0  0  0
  -28.2608  -38.0087   24.7514 H   0  0  0  0  0  0
  -28.1063  -36.2627   24.6301 H   0  0  0  0  0  0
  -27.2284  -37.1461   25.8863 H   0  0  0  0  0  0
  -20.9300  -29.8731   21.6917 H   0  0  0  0  0  0
  -26.0178  -38.2876   24.1415 H   0  0  0  0  0  0
  -28.6064  -17.6908   19.6234 H   0  0  0  0  0  0
  -31.3278  -21.7569   20.1129 H   0  0  0  0  0  0
  -32.6266  -21.2089   21.0866 H   0  0  0  0  0  0
  -31.1261  -21.6735   21.8681 H   0  0  0  0  0  0
  -33.4438  -19.5899   24.4855 H   0  0  0  0  0  0
  -31.8901  -18.7619   24.3755 H   0  0  0  0  0  0
  -32.0489  -20.4197   23.8031 H   0  0  0  0  0  0
  -29.0065  -19.0992   17.5770 H   0  0  0  0  0  0
  -28.0070  -20.5255   17.3985 H   0  0  0  0  0  0
  -27.4792  -19.2299   18.4565 H   0  0  0  0  0  0
  -33.6472  -19.5952   21.9874 H   0  0  0  0  0  0
  -33.4744  -17.9963   22.5929 H   0  0  0  0  0  0
  -28.4355  -24.2154   18.8764 H   0  0  0  0  0  0
  -27.0158  -23.9487   19.8600 H   0  0  0  0  0  0
  -27.6554  -21.0218   20.8539 H   0  0  0  0  0  0
  -27.3292  -21.7325   19.3177 H   0  0  0  0  0  0
  -29.4248  -25.2688   21.1357 H   0  0  0  0  0  0
  -27.7669  -25.3889   21.6243 H   0  0  0  0  0  0
  -29.8700  -21.0234   18.7726 H   0  0  0  0  0  0
  -28.8893  -15.4480   20.8056 H   0  0  0  0  0  0
  -28.6565  -22.8230   21.4456 H   0  0  0  0  0  0
  -29.7170  -22.8246   20.2193 H   0  0  0  0  0  0
  1 25  1  0  0  0
  1 30  2  0  0  0
  1 85  1  0  0  0
  2  3  1  0  0  0
  2 25  1  0  0  0
  2 87  1  0  0  0
  2 88  1  0  0  0
  3  4  1  0  0  0
  3 89  1  0  0  0
  3 90  1  0  0  0
  4  5  1  0  0  0
  4 91  1  0  0  0
  4 92  1  0  0  0
  5  6  1  0  0  0
  5 26  1  0  0  0
  5 93  1  0  0  0
  6 25  1  0  0  0
  6 94  1  0  0  0
  6 95  1  0  0  0
  7  8  2  0  0  0
  7 26  1  0  0  0
  7 29  1  0  0  0
  8  9  1  0  0  0
  8 22  1  0  0  0
  9 10  1  0  0  0
  9 27  2  0  0  0
 10 11  2  0  0  0
 10 15  1  0  0  0
 11 12  1  0  0  0
 11 96  1  0  0  0
 12 13  2  0  0  0
 12 97  1  0  0  0
 13 14  1  0  0  0
 13 31  1  0  0  0
 14 15  2  0  0  0
 14 98  1  0  0  0
 15 99  1  0  0  0
 16 17  2  0  0  0
 16 21  1  0  0  0
 16 31  1  0  0  0
 17 18  1  0  0  0
 17100  1  0  0  0
 18 19  2  0  0  0
 18101  1  0  0  0
 19 20  1  0  0  0
 19 24  1  0  0  0
 20 21  2  0  0  0
 20102  1  0  0  0
 21 23  1  0  0  0
 22 28  1  0  0  0
 22 32  2  0  0  0
 26 27  1  0  0  0
 28103  1  0  0  0
 28104  1  0  0  0
 29105  1  0  0  0
 29106  1  0  0  0
 33 34  1  0  0  0
 33 66  1  0  0  0
 33 70  2  0  0  0
 34 36  1  0  0  0
 34 59  1  0  0  0
 34107  1  0  0  0
 35 44  2  0  0  0
 35 45  1  0  0  0
 35 68  1  0  0  0
 36 56  1  0  0  0
 36108  1  0  0  0
 37 39  1  0  0  0
 37 47  1  0  0  0
 37 66  1  0  0  0
 37109  1  0  0  0
 38 43  2  0  0  0
 38 46  1  0  0  0
 38 47  1  0  0  0
 39 64  1  0  0  0
 39 67  2  0  0  0
 40 52  1  0  0  0
 40 53  2  0  0  0
 40 58  1  0  0  0
 41110  1  0  0  0
 41111  1  0  0  0
 41112  1  0  0  0
 41 48  1  0  0  0
 42 43  1  0  0  0
 42 66  1  0  0  0
 42113  1  0  0  0
 42114  1  0  0  0
 43 44  1  0  0  0
 44115  1  0  0  0
 45 46  2  0  0  0
 45116  1  0  0  0
 46117  1  0  0  0
 47118  1  0  0  0
 47119  1  0  0  0
 48 56  1  0  0  0
 48 65  1  0  0  0
 48120  1  0  0  0
 49 50  1  0  0  0
 49 53  1  0  0  0
 49 64  1  0  0  0
 49121  1  0  0  0
 50 51  1  0  0  0
 50122  1  0  0  0
 50123  1  0  0  0
 51 52  1  0  0  0
 51124  1  0  0  0
 51125  1  0  0  0
 52126  1  0  0  0
 52127  1  0  0  0
 53 54  1  0  0  0
 54 55  2  0  0  0
 54128  1  0  0  0
 55 57  1  0  0  0
 55129  1  0  0  0
 56 69  2  0  0  0
 57 58  2  0  0  0
 57130  1  0  0  0
 58131  1  0  0  0
 59 60  1  0  0  0
 59 61  1  0  0  0
 59 62  1  0  0  0
 60132  1  0  0  0
 60133  1  0  0  0
 60134  1  0  0  0
 61135  1  0  0  0
 61136  1  0  0  0
 61137  1  0  0  0
 62138  1  0  0  0
 62139  1  0  0  0
 62140  1  0  0  0
 63 65  1  0  0  0
 63141  1  0  0  0
 63142  1  0  0  0
 63143  1  0  0  0
 64144  1  0  0  0
 65145  1  0  0  0
 68 82  1  0  0  0
 71 72  2  0  0  0
 71 75  1  0  0  0
 71146  1  0  0  0
 72 73  1  0  0  0
 72 83  1  0  0  0
 73 74  2  0  0  0
 73 76  1  0  0  0
 74 79  1  0  0  0
 74 84  1  0  0  0
 75 84  2  0  0  0
 75 85  1  0  0  0
 76147  1  0  0  0
 76148  1  0  0  0
 76149  1  0  0  0
 77 79  1  0  0  0
 77150  1  0  0  0
 77151  1  0  0  0
 77152  1  0  0  0
 78153  1  0  0  0
 78154  1  0  0  0
 78155  1  0  0  0
 78 83  1  0  0  0
 79156  1  0  0  0
 79157  1  0  0  0
 80 82  1  0  0  0
 80 86  1  0  0  0
 80158  1  0  0  0
 80159  1  0  0  0
 81 83  1  0  0  0
 81 86  1  0  0  0
 81160  1  0  0  0
 81161  1  0  0  0
 82162  1  0  0  0
 82163  1  0  0  0
 83164  1  0  0  0
 85165  1  0  0  0
 86166  1  0  0  0
 86167  1  0  0  0
M  CHG  1  86   1
M  ISO  4   1 100  68 101  82 101  85 100
M  END
> <chiral flag>
0

> <version>
0

> <s_m_source_file>
/data/baiqing/PycharmProjects/Reinvent-master-3.2/result/LINK_invent/BTK/process_docking_weight1_custom_sum_contain_oxygen_bond_distance_aromatic_linkinvent_7_9_3/rearranged_h_0096.sdf

> <i_m_source_file_index>
88

> <r_mmod_Potential_Energy-OPLS-2005>
-264.298217773438

> <r_mmod_Stretch_Energy-OPLS-2005>
56.7498550415039

> <r_mmod_Bend_Energy-OPLS-2005>
122.503189086914

> <r_mmod_Torsional_Energy-OPLS-2005>
270.473175048828

> <r_mmod_Improper_Torsional_Energy-OPLS-2005>
6.8550386428833

> <r_mmod_Van_der_Waal_Energy-OPLS-2005>
152.194534301758

> <r_mmod_Electrostatic_Energy-OPLS-2005>
-407.693298339844

> <r_mmod_Solvation_Energy-OPLS-2005>
-490.030975341797

> <b_mmod_Minimization_Converged-OPLS-2005>
0

> <r_mmod_RMS_Derivative-OPLS-2005>
2.09528970718384

$$$$
88
                    3D
 Structure written by MMmdl.
161169  0  0  1  0            999 V2000
  -30.5641  -14.8725   20.4541 C   0  0  0  0  0  0
  -30.4360  -12.5403   19.5021 C   0  0  0  0  0  0
  -29.5178  -12.5237   18.2589 C   0  0  0  0  0  0
  -28.0465  -12.3226   18.6677 C   0  0  0  0  0  0
  -27.6323  -13.2423   19.8459 C   0  0  2  0  0  0
  -28.6730  -13.2334   20.9877 C   0  0  0  0  0  0
  -25.2478  -13.8217   20.5710 C   0  0  0  0  0  0
  -24.1796  -13.0443   20.9243 C   0  0  0  0  0  0
  -24.6414  -11.6925   20.8790 C   0  0  0  0  0  0
  -23.9097  -10.4302   21.0454 C   0  0  0  0  0  0
  -24.3640   -9.4206   21.9220 C   0  0  0  0  0  0
  -23.6304   -8.2246   22.0766 C   0  0  0  0  0  0
  -22.4288   -8.0304   21.3560 C   0  0  0  0  0  0
  -21.9938   -9.0286   20.4672 C   0  0  0  0  0  0
  -22.7275  -10.2155   20.3098 C   0  0  0  0  0  0
  -21.6840   -6.0773   22.5308 C   0  0  0  0  0  0
  -21.4015   -6.5673   23.8249 C   0  0  0  0  0  0
  -21.3646   -5.6811   24.9206 C   0  0  0  0  0  0
  -21.6025   -4.3071   24.7239 C   0  0  0  0  0  0
  -21.8804   -3.8179   23.4350 C   0  0  0  0  0  0
  -21.9187   -4.7007   22.3416 C   0  0  0  0  0  0
  -22.7817  -13.5219   21.1892 C   0  0  0  0  0  0
  -22.1653   -4.2198   21.0991 F   0  0  0  0  0  0
  -21.5614   -3.4547   25.7739 F   0  0  0  0  0  0
  -29.9616  -13.6235   20.4025 N   0  0  0  0  0  0
  -26.2893  -12.9433   20.3275 N   0  0  0  0  0  0
  -25.9336  -11.6569   20.5779 N   0  0  0  0  0  0
  -22.0466  -12.8214   22.0449 N   0  0  0  0  0  0
  -25.4129  -15.1951   20.4099 N   0  0  0  0  0  0
  -31.7586  -14.9574   20.1500 O   0  0  0  0  0  0
  -21.6628   -6.8918   21.4272 O   0  0  0  0  0  0
  -22.3511  -14.5529   20.6745 O   0  0  0  0  0  0
  -24.6397  -31.8496   23.1976 C   0  0  0  0  0  0
  -25.9198  -32.4718   23.8333 C   0  0  1  0  0  0
  -27.2062  -27.1821   20.1228 C   0  0  0  0  0  0
  -25.5962  -33.8527   24.2238 N   0  0  0  0  0  0
  -23.4407  -30.4751   21.5417 C   0  0  2  0  0  0
  -24.8876  -28.9229   20.1079 C   0  0  0  0  0  0
  -22.7539  -29.4584   22.4873 C   0  0  0  0  0  0
  -18.0300  -28.1413   22.8479 C   0  0  0  0  0  0
  -24.1492  -36.7250   23.2646 C   0  0  0  0  0  0
  -25.9967  -30.7333   21.3978 C   0  0  0  0  0  0
  -26.0651  -29.3527   20.7331 C   0  0  0  0  0  0
  -27.2242  -28.4934   20.7380 C   0  0  0  0  0  0
  -26.0118  -26.8731   19.4262 C   0  0  0  0  0  0
  -24.8715  -27.6941   19.4422 C   0  0  0  0  0  0
  -23.6645  -29.8193   20.1565 C   0  0  0  0  0  0
  -25.4122  -36.3038   24.0325 C   0  0  1  0  0  0
  -20.5904  -28.3743   23.1237 C   0  0  2  0  0  0
  -20.6795  -26.9453   22.5401 C   0  0  0  0  0  0
  -19.5768  -26.6402   21.5213 C   0  0  0  0  0  0
  -18.1949  -26.7948   22.1630 C   0  0  0  0  0  0
  -19.1556  -28.8891   23.2854 C   0  0  0  0  0  0
  -18.9477  -30.1478   23.8899 C   0  0  0  0  0  0
  -17.6480  -30.6618   24.0556 C   0  0  0  0  0  0
  -25.9072  -34.9416   23.5080 C   0  0  0  0  0  0
  -16.5366  -29.9115   23.6338 C   0  0  0  0  0  0
  -16.7283  -28.6521   23.0377 C   0  0  0  0  0  0
  -26.4525  -31.6570   25.0759 C   0  0  0  0  0  0
  -25.3722  -31.3752   26.1461 C   0  0  0  0  0  0
  -27.0384  -30.2963   24.6329 C   0  0  0  0  0  0
  -27.6059  -32.4336   25.7537 C   0  0  0  0  0  0
  -27.5561  -37.1794   24.8474 C   0  0  0  0  0  0
  -21.4234  -29.3070   22.3606 N   0  0  0  0  0  0
  -26.4284  -37.3745   23.9400 N   0  0  0  0  0  0
  -24.7113  -31.0391   22.1004 N   0  0  0  0  0  0
  -23.4198  -28.8124   23.3005 O   0  0  0  0  0  0
  -28.2346  -26.1798   20.2203 O   0  0  0  0  0  0
  -26.5642  -34.8901   22.4653 O   0  0  0  0  0  0
  -23.5524  -32.1370   23.7205 O   0  0  0  0  0  0
  -29.3537  -22.5215   19.3180 C   0  0  0  0  0  0
  -29.5945  -21.1051   19.4932 C   0  0  0  0  0  0
  -28.5603  -23.3078   20.2169 C   0  0  0  0  0  0
  -29.0690  -20.3764   20.5986 C   0  0  0  0  0  0
  -28.1148  -22.5109   21.3273 C   0  0  0  0  0  0
  -26.6837  -25.3788   23.4817 C   0  0  0  0  0  0
  -28.5750  -23.9398   24.3661 C   0  0  0  0  0  0
  -27.9005  -24.7421   19.7875 C   0  0  0  0  0  0
  -28.9700  -18.7421   20.7573 C   0  0  0  0  0  0
  -27.1890  -23.1212   22.3833 C   0  0  0  0  0  0
  -30.1137  -17.5640   20.5038 C   0  0  0  0  0  0
  -27.7757  -24.3526   23.1222 C   0  0  0  0  0  0
  -28.3711  -21.1533   21.4963 N   0  0  0  0  0  0
  -29.7842  -16.0304   20.6417 N   0  0  0  0  0  0
  -31.4714  -12.6907   19.1929 H   0  0  0  0  0  0
  -30.4135  -11.5784   20.0172 H   0  0  0  0  0  0
  -29.8255  -11.7328   17.5753 H   0  0  0  0  0  0
  -29.6250  -13.4625   17.7136 H   0  0  0  0  0  0
  -27.9232  -11.2754   18.9500 H   0  0  0  0  0  0
  -27.3867  -12.4804   17.8138 H   0  0  0  0  0  0
  -27.6054  -14.2526   19.4349 H   0  0  0  0  0  0
  -28.7342  -12.2482   21.4536 H   0  0  0  0  0  0
  -28.3828  -13.9277   21.7779 H   0  0  0  0  0  0
  -25.2792   -9.5652   22.4787 H   0  0  0  0  0  0
  -24.0007   -7.4624   22.7456 H   0  0  0  0  0  0
  -21.0873   -8.8826   19.8961 H   0  0  0  0  0  0
  -22.3772  -10.9707   19.6202 H   0  0  0  0  0  0
  -21.2022   -7.6182   23.9780 H   0  0  0  0  0  0
  -21.1474   -6.0536   25.9107 H   0  0  0  0  0  0
  -22.0591   -2.7643   23.2849 H   0  0  0  0  0  0
  -22.4031  -11.9832   22.4792 H   0  0  0  0  0  0
  -21.1106  -13.1282   22.2707 H   0  0  0  0  0  0
  -24.6331  -15.8351   20.5168 H   0  0  0  0  0  0
  -26.2462  -15.6452   20.0545 H   0  0  0  0  0  0
  -26.7257  -32.5321   23.1055 H   0  0  0  0  0  0
  -25.0072  -33.9663   25.0355 H   0  0  0  0  0  0
  -22.7436  -31.3026   21.3938 H   0  0  0  0  0  0
  -23.3753  -35.9587   23.3330 H   0  0  0  0  0  0
  -24.3562  -36.8851   22.2052 H   0  0  0  0  0  0
  -23.7269  -37.6466   23.6660 H   0  0  0  0  0  0
  -26.1607  -31.4956   20.6342 H   0  0  0  0  0  0
  -26.8647  -30.7698   22.0445 H   0  0  0  0  0  0
  -28.1129  -28.8073   21.2669 H   0  0  0  0  0  0
  -25.8991  -25.9616   18.8612 H   0  0  0  0  0  0
  -23.9786  -27.3685   18.9274 H   0  0  0  0  0  0
  -23.8032  -30.6014   19.4094 H   0  0  0  0  0  0
  -22.7805  -29.2635   19.8387 H   0  0  0  0  0  0
  -25.1316  -36.1864   25.0819 H   0  0  0  0  0  0
  -21.0000  -28.3338   24.1355 H   0  0  0  0  0  0
  -20.5713  -26.2359   23.3618 H   0  0  0  0  0  0
  -21.6663  -26.7486   22.1185 H   0  0  0  0  0  0
  -19.6943  -25.6306   21.1267 H   0  0  0  0  0  0
  -19.6705  -27.3191   20.6722 H   0  0  0  0  0  0
  -17.4210  -26.6678   21.4038 H   0  0  0  0  0  0
  -18.0362  -26.0096   22.9035 H   0  0  0  0  0  0
  -19.7955  -30.7277   24.2291 H   0  0  0  0  0  0
  -17.5047  -31.6300   24.5154 H   0  0  0  0  0  0
  -15.5374  -30.3032   23.7678 H   0  0  0  0  0  0
  -15.8671  -28.0839   22.7140 H   0  0  0  0  0  0
  -24.5906  -30.7092   25.7781 H   0  0  0  0  0  0
  -24.8914  -32.2933   26.4843 H   0  0  0  0  0  0
  -25.8020  -30.8953   27.0265 H   0  0  0  0  0  0
  -26.3003  -29.6701   24.1304 H   0  0  0  0  0  0
  -27.3952  -29.7239   25.4902 H   0  0  0  0  0  0
  -27.8932  -30.4193   23.9680 H   0  0  0  0  0  0
  -27.2650  -33.3649   26.2067 H   0  0  0  0  0  0
  -28.3891  -32.6878   25.0385 H   0  0  0  0  0  0
  -28.0704  -31.8502   26.5492 H   0  0  0  0  0  0
  -28.2607  -38.0061   24.7463 H   0  0  0  0  0  0
  -28.1027  -36.2586   24.6374 H   0  0  0  0  0  0
  -27.2264  -37.1526   25.8878 H   0  0  0  0  0  0
  -20.9450  -29.8752   21.6758 H   0  0  0  0  0  0
  -26.0147  -38.2816   24.1387 H   0  0  0  0  0  0
  -29.7033  -22.9848   18.4056 H   0  0  0  0  0  0
  -30.1258  -20.5673   18.7194 H   0  0  0  0  0  0
  -27.1055  -26.2636   23.9611 H   0  0  0  0  0  0
  -26.1619  -25.7250   22.5897 H   0  0  0  0  0  0
  -25.9388  -24.9569   24.1579 H   0  0  0  0  0  0
  -29.0434  -24.8035   24.8385 H   0  0  0  0  0  0
  -29.3676  -23.2414   24.0967 H   0  0  0  0  0  0
  -27.9407  -23.4580   25.1118 H   0  0  0  0  0  0
  -26.8632  -24.5693   20.0633 H   0  0  0  0  0  0
  -27.9054  -24.7577   18.6969 H   0  0  0  0  0  0
  -28.1099  -18.4695   20.1447 H   0  0  0  0  0  0
  -28.6279  -18.5864   21.7808 H   0  0  0  0  0  0
  -26.8977  -22.3614   23.1105 H   0  0  0  0  0  0
  -26.2553  -23.3915   21.8882 H   0  0  0  0  0  0
  -30.9431  -17.7726   21.1809 H   0  0  0  0  0  0
  -30.5203  -17.7043   19.5027 H   0  0  0  0  0  0
  -28.4611  -24.8723   22.4535 H   0  0  0  0  0  0
  -28.8144  -15.8271   20.8378 H   0  0  0  0  0  0
  1 25  1  0  0  0
  1 30  2  0  0  0
  1 84  1  0  0  0
  2  3  1  0  0  0
  2 25  1  0  0  0
  2 85  1  0  0  0
  2 86  1  0  0  0
  3  4  1  0  0  0
  3 87  1  0  0  0
  3 88  1  0  0  0
  4  5  1  0  0  0
  4 89  1  0  0  0
  4 90  1  0  0  0
  5  6  1  0  0  0
  5 26  1  0  0  0
  5 91  1  0  0  0
  6 25  1  0  0  0
  6 92  1  0  0  0
  6 93  1  0  0  0
  7  8  2  0  0  0
  7 26  1  0  0  0
  7 29  1  0  0  0
  8  9  1  0  0  0
  8 22  1  0  0  0
  9 10  1  0  0  0
  9 27  2  0  0  0
 10 11  2  0  0  0
 10 15  1  0  0  0
 11 12  1  0  0  0
 11 94  1  0  0  0
 12 13  2  0  0  0
 12 95  1  0  0  0
 13 14  1  0  0  0
 13 31  1  0  0  0
 14 15  2  0  0  0
 14 96  1  0  0  0
 15 97  1  0  0  0
 16 17  2  0  0  0
 16 21  1  0  0  0
 16 31  1  0  0  0
 17 18  1  0  0  0
 17 98  1  0  0  0
 18 19  2  0  0  0
 18 99  1  0  0  0
 19 20  1  0  0  0
 19 24  1  0  0  0
 20 21  2  0  0  0
 20100  1  0  0  0
 21 23  1  0  0  0
 22 28  1  0  0  0
 22 32  2  0  0  0
 26 27  1  0  0  0
 28101  1  0  0  0
 28102  1  0  0  0
 29103  1  0  0  0
 29104  1  0  0  0
 33 34  1  0  0  0
 33 66  1  0  0  0
 33 70  2  0  0  0
 34 36  1  0  0  0
 34 59  1  0  0  0
 34105  1  0  0  0
 35 44  2  0  0  0
 35 45  1  0  0  0
 35 68  1  0  0  0
 36 56  1  0  0  0
 36106  1  0  0  0
 37 39  1  0  0  0
 37 47  1  0  0  0
 37 66  1  0  0  0
 37107  1  0  0  0
 38 43  2  0  0  0
 38 46  1  0  0  0
 38 47  1  0  0  0
 39 64  1  0  0  0
 39 67  2  0  0  0
 40 52  1  0  0  0
 40 53  2  0  0  0
 40 58  1  0  0  0
 41108  1  0  0  0
 41109  1  0  0  0
 41110  1  0  0  0
 41 48  1  0  0  0
 42 43  1  0  0  0
 42 66  1  0  0  0
 42111  1  0  0  0
 42112  1  0  0  0
 43 44  1  0  0  0
 44113  1  0  0  0
 45 46  2  0  0  0
 45114  1  0  0  0
 46115  1  0  0  0
 47116  1  0  0  0
 47117  1  0  0  0
 48 56  1  0  0  0
 48 65  1  0  0  0
 48118  1  0  0  0
 49 50  1  0  0  0
 49 53  1  0  0  0
 49 64  1  0  0  0
 49119  1  0  0  0
 50 51  1  0  0  0
 50120  1  0  0  0
 50121  1  0  0  0
 51 52  1  0  0  0
 51122  1  0  0  0
 51123  1  0  0  0
 52124  1  0  0  0
 52125  1  0  0  0
 53 54  1  0  0  0
 54 55  2  0  0  0
 54126  1  0  0  0
 55 57  1  0  0  0
 55127  1  0  0  0
 56 69  2  0  0  0
 57 58  2  0  0  0
 57128  1  0  0  0
 58129  1  0  0  0
 59 60  1  0  0  0
 59 61  1  0  0  0
 59 62  1  0  0  0
 60130  1  0  0  0
 60131  1  0  0  0
 60132  1  0  0  0
 61133  1  0  0  0
 61134  1  0  0  0
 61135  1  0  0  0
 62136  1  0  0  0
 62137  1  0  0  0
 62138  1  0  0  0
 63 65  1  0  0  0
 63139  1  0  0  0
 63140  1  0  0  0
 63141  1  0  0  0
 64142  1  0  0  0
 65143  1  0  0  0
 68 78  1  0  0  0
 71 72  2  0  0  0
 71 73  1  0  0  0
 71144  1  0  0  0
 72 74  1  0  0  0
 72145  1  0  0  0
 73 75  2  0  0  0
 73 78  1  0  0  0
 74 79  1  0  0  0
 74 83  2  0  0  0
 75 80  1  0  0  0
 75 83  1  0  0  0
 76146  1  0  0  0
 76147  1  0  0  0
 76148  1  0  0  0
 76 82  1  0  0  0
 77 82  1  0  0  0
 77149  1  0  0  0
 77150  1  0  0  0
 77151  1  0  0  0
 78152  1  0  0  0
 78153  1  0  0  0
 79 81  1  0  0  0
 79154  1  0  0  0
 79155  1  0  0  0
 80 82  1  0  0  0
 80156  1  0  0  0
 80157  1  0  0  0
 81 84  1  0  0  0
 81158  1  0  0  0
 81159  1  0  0  0
 82160  1  0  0  0
 84161  1  0  0  0
M  ISO  4   1 100  68 101  78 101  84 100
M  END
> <chiral flag>
0

> <version>
0

> <s_m_source_file>
/data/baiqing/PycharmProjects/Reinvent-master-3.2/result/LINK_invent/BTK/process_docking_weight1_custom_sum_contain_oxygen_bond_distance_aromatic_linkinvent_7_9_3/rearranged_h_0096.sdf

> <i_m_source_file_index>
89

> <r_mmod_Potential_Energy-OPLS-2005>
305.22021484375

> <r_mmod_Stretch_Energy-OPLS-2005>
196.277847290039

> <r_mmod_Bend_Energy-OPLS-2005>
242.937789916992

> <r_mmod_Torsional_Energy-OPLS-2005>
229.909759521484

> <r_mmod_Improper_Torsional_Energy-OPLS-2005>
9.96648979187012

> <r_mmod_Van_der_Waal_Energy-OPLS-2005>
136.601333618164

> <r_mmod_Electrostatic_Energy-OPLS-2005>
-443.873138427734

> <r_mmod_Solvation_Energy-OPLS-2005>
-221.780471801758

> <b_mmod_Minimization_Converged-OPLS-2005>
0

> <r_mmod_RMS_Derivative-OPLS-2005>
2.92409110069275

$$$$
89
                    3D
 Structure written by MMmdl.
172180  0  0  1  0            999 V2000
  -30.7857  -14.4253   20.5671 C   0  0  0  0  0  0
  -30.3951  -12.2837   19.4298 C   0  0  0  0  0  0
  -29.4834  -12.4916   18.2086 C   0  0  0  0  0  0
  -28.0072  -12.3627   18.6228 C   0  0  0  0  0  0
  -27.6542  -13.2235   19.8660 C   0  0  2  0  0  0
  -28.6978  -13.0658   20.9939 C   0  0  0  0  0  0
  -25.2560  -13.8204   20.5707 C   0  0  0  0  0  0
  -24.1842  -13.0449   20.9198 C   0  0  0  0  0  0
  -24.6435  -11.6924   20.8775 C   0  0  0  0  0  0
  -23.9111  -10.4300   21.0439 C   0  0  0  0  0  0
  -24.3652   -9.4205   21.9212 C   0  0  0  0  0  0
  -23.6309   -8.2249   22.0773 C   0  0  0  0  0  0
  -22.4290   -8.0302   21.3559 C   0  0  0  0  0  0
  -21.9939   -9.0289   20.4673 C   0  0  0  0  0  0
  -22.7287  -10.2152   20.3090 C   0  0  0  0  0  0
  -21.6846   -6.0763   22.5290 C   0  0  0  0  0  0
  -21.4015   -6.5665   23.8228 C   0  0  0  0  0  0
  -21.3648   -5.6809   24.9183 C   0  0  0  0  0  0
  -21.6041   -4.3072   24.7234 C   0  0  0  0  0  0
  -21.8809   -3.8172   23.4351 C   0  0  0  0  0  0
  -21.9190   -4.6992   22.3409 C   0  0  0  0  0  0
  -22.7857  -13.5231   21.1836 C   0  0  0  0  0  0
  -22.1661   -4.2188   21.0989 F   0  0  0  0  0  0
  -21.5615   -3.4545   25.7739 F   0  0  0  0  0  0
  -30.0290  -13.3085   20.4218 N   0  0  0  0  0  0
  -26.3010  -12.9412   20.3372 N   0  0  0  0  0  0
  -25.9369  -11.6554   20.5815 N   0  0  0  0  0  0
  -22.0504  -12.8237   22.0396 N   0  0  0  0  0  0
  -25.4238  -15.1931   20.4108 N   0  0  0  0  0  0
  -31.9342  -14.4793   20.1384 O   0  0  0  0  0  0
  -21.6634   -6.8911   21.4254 O   0  0  0  0  0  0
  -22.3544  -14.5543   20.6692 O   0  0  0  0  0  0
  -24.6132  -31.8681   23.2110 C   0  0  0  0  0  0
  -25.9017  -32.4828   23.8403 C   0  0  1  0  0  0
  -27.2384  -27.4416   20.0780 C   0  0  0  0  0  0
  -25.5885  -33.8633   24.2332 N   0  0  0  0  0  0
  -23.4010  -30.4936   21.5509 C   0  0  2  0  0  0
  -24.8470  -28.9614   20.1139 C   0  0  0  0  0  0
  -22.7400  -29.4680   22.5004 C   0  0  0  0  0  0
  -18.0271  -28.1361   22.8507 C   0  0  0  0  0  0
  -24.1472  -36.7319   23.2642 C   0  0  0  0  0  0
  -25.9297  -30.8345   21.3643 C   0  0  0  0  0  0
  -26.0075  -29.4702   20.7091 C   0  0  0  0  0  0
  -27.2032  -28.7164   20.6900 C   0  0  0  0  0  0
  -26.0511  -26.9452   19.4875 C   0  0  0  0  0  0
  -24.8625  -27.6974   19.5042 C   0  0  0  0  0  0
  -23.6081  -29.8234   20.1668 C   0  0  0  0  0  0
  -25.4089  -36.3119   24.0347 C   0  0  1  0  0  0
  -20.5862  -28.3664   23.1296 C   0  0  2  0  0  0
  -20.6743  -26.9392   22.5410 C   0  0  0  0  0  0
  -19.5717  -26.6372   21.5207 C   0  0  0  0  0  0
  -18.1912  -26.7916   22.1626 C   0  0  0  0  0  0
  -19.1529  -28.8828   23.2905 C   0  0  0  0  0  0
  -18.9459  -30.1433   23.8913 C   0  0  0  0  0  0
  -17.6465  -30.6578   24.0570 C   0  0  0  0  0  0
  -25.9012  -34.9484   23.5137 C   0  0  0  0  0  0
  -16.5350  -29.9087   23.6320 C   0  0  0  0  0  0
  -16.7267  -28.6495   23.0360 C   0  0  0  0  0  0
  -26.4435  -31.6608   25.0731 C   0  0  0  0  0  0
  -25.3728  -31.3701   26.1512 C   0  0  0  0  0  0
  -27.0252  -30.3040   24.6087 C   0  0  0  0  0  0
  -27.6032  -32.4331   25.7466 C   0  0  0  0  0  0
  -27.5564  -37.1812   24.8467 C   0  0  0  0  0  0
  -21.4130  -29.3050   22.3716 N   0  0  0  0  0  0
  -26.4275  -37.3803   23.9417 N   0  0  0  0  0  0
  -24.6669  -31.0795   22.1008 N   0  0  0  0  0  0
  -23.4177  -28.8231   23.3039 O   0  0  0  0  0  0
  -28.4321  -26.7424   20.0842 O   0  0  0  0  0  0
  -26.5556  -34.8916   22.4675 O   0  0  0  0  0  0
  -23.5320  -32.1429   23.7502 O   0  0  0  0  0  0
  -29.6780  -18.8665   21.4637 C   0  0  0  0  0  0
  -30.5228  -19.9692   19.7397 C   0  0  0  0  0  0
  -30.6294  -18.0447   20.9071 C   0  0  0  0  0  0
  -31.1951  -18.7724   19.7852 C   0  0  0  0  0  0
  -29.6292  -24.8693   22.3074 C   0  0  0  0  0  0
  -33.3079  -19.6466   18.7154 C   0  0  0  0  0  0
  -31.6687  -18.3126   17.3738 C   0  0  0  0  0  0
  -33.1297  -17.2101   19.0369 C   0  0  0  0  0  0
  -30.9918  -16.6976   21.5357 C   0  0  0  0  0  0
  -29.6022  -22.5512   21.2034 C   0  0  0  0  0  0
  -27.8427  -24.3660   20.5354 C   0  0  0  0  0  0
  -28.7997  -21.2270   21.0886 C   0  0  0  0  0  0
  -28.4775  -25.4008   19.5725 C   0  0  0  0  0  0
  -28.7627  -23.7832   21.6424 C   0  0  2  0  0  0
  -32.3083  -18.4714   18.7633 C   0  0  0  0  0  0
  -29.6401  -20.0686   20.7860 N   0  0  0  0  0  0
  -30.2216  -15.5081   21.1263 N   0  0  0  0  0  0
  -31.4418  -12.3304   19.1237 H   0  0  0  0  0  0
  -30.2555  -11.2872   19.8539 H   0  0  0  0  0  0
  -29.7158  -11.7660   17.4281 H   0  0  0  0  0  0
  -29.6684  -13.4772   17.7782 H   0  0  0  0  0  0
  -27.8092  -11.3098   18.8302 H   0  0  0  0  0  0
  -27.3586  -12.6334   17.7889 H   0  0  0  0  0  0
  -27.6815  -14.2636   19.5399 H   0  0  0  0  0  0
  -28.6591  -12.0668   21.4290 H   0  0  0  0  0  0
  -28.4768  -13.7529   21.8123 H   0  0  0  0  0  0
  -25.2802   -9.5647   22.4784 H   0  0  0  0  0  0
  -24.0007   -7.4626   22.7483 H   0  0  0  0  0  0
  -21.0868   -8.8841   19.8973 H   0  0  0  0  0  0
  -22.3784  -10.9709   19.6207 H   0  0  0  0  0  0
  -21.2016   -7.6174   23.9746 H   0  0  0  0  0  0
  -21.1468   -6.0538   25.9086 H   0  0  0  0  0  0
  -22.0594   -2.7639   23.2844 H   0  0  0  0  0  0
  -22.4100  -11.9885   22.4782 H   0  0  0  0  0  0
  -21.1147  -13.1296   22.2617 H   0  0  0  0  0  0
  -24.6557  -15.8446   20.5302 H   0  0  0  0  0  0
  -26.2781  -15.6403   20.1011 H   0  0  0  0  0  0
  -26.7100  -32.5528   23.1172 H   0  0  0  0  0  0
  -25.0089  -33.9790   25.0514 H   0  0  0  0  0  0
  -22.6895  -31.3111   21.4130 H   0  0  0  0  0  0
  -23.3731  -35.9660   23.3319 H   0  0  0  0  0  0
  -24.3561  -36.8905   22.2049 H   0  0  0  0  0  0
  -23.7230  -37.6529   23.6652 H   0  0  0  0  0  0
  -26.8191  -30.8858   21.9801 H   0  0  0  0  0  0
  -26.0426  -31.6035   20.5992 H   0  0  0  0  0  0
  -28.1018  -29.1052   21.1486 H   0  0  0  0  0  0
  -26.0124  -25.9780   19.0101 H   0  0  0  0  0  0
  -23.9662  -27.3001   19.0463 H   0  0  0  0  0  0
  -23.7116  -30.5947   19.4036 H   0  0  0  0  0  0
  -22.7324  -29.2409   19.8759 H   0  0  0  0  0  0
  -25.1248  -36.2010   25.0842 H   0  0  0  0  0  0
  -20.9973  -28.3229   24.1399 H   0  0  0  0  0  0
  -20.5606  -26.2278   23.3601 H   0  0  0  0  0  0
  -21.6618  -26.7410   22.1217 H   0  0  0  0  0  0
  -19.6856  -25.6283   21.1233 H   0  0  0  0  0  0
  -19.6631  -27.3185   20.6736 H   0  0  0  0  0  0
  -17.4169  -26.6680   21.4031 H   0  0  0  0  0  0
  -18.0304  -26.0048   22.9004 H   0  0  0  0  0  0
  -19.7942  -30.7250   24.2271 H   0  0  0  0  0  0
  -17.5025  -31.6245   24.5183 H   0  0  0  0  0  0
  -15.5352  -30.2992   23.7630 H   0  0  0  0  0  0
  -15.8671  -28.0807   22.7062 H   0  0  0  0  0  0
  -24.5863  -30.7091   25.7868 H   0  0  0  0  0  0
  -24.8983  -32.2844   26.5089 H   0  0  0  0  0  0
  -25.8122  -30.8794   27.0201 H   0  0  0  0  0  0
  -26.2801  -29.6806   24.1118 H   0  0  0  0  0  0
  -27.3990  -29.7263   25.4547 H   0  0  0  0  0  0
  -27.8658  -30.4332   23.9262 H   0  0  0  0  0  0
  -27.2688  -33.3629   26.2077 H   0  0  0  0  0  0
  -28.3796  -32.6896   25.0249 H   0  0  0  0  0  0
  -28.0737  -31.8449   26.5355 H   0  0  0  0  0  0
  -28.2593  -38.0096   24.7495 H   0  0  0  0  0  0
  -28.1036  -36.2628   24.6309 H   0  0  0  0  0  0
  -27.2284  -37.1468   25.8871 H   0  0  0  0  0  0
  -20.9290  -29.8792   21.6960 H   0  0  0  0  0  0
  -26.0173  -38.2889   24.1408 H   0  0  0  0  0  0
  -29.0479  -18.7128   22.3309 H   0  0  0  0  0  0
  -30.6312  -20.7970   19.0529 H   0  0  0  0  0  0
  -30.1287  -24.4833   23.1969 H   0  0  0  0  0  0
  -29.0246  -25.7224   22.6214 H   0  0  0  0  0  0
  -30.4012  -25.2433   21.6325 H   0  0  0  0  0  0
  -32.8361  -20.5760   18.3971 H   0  0  0  0  0  0
  -34.1229  -19.4538   18.0152 H   0  0  0  0  0  0
  -33.7559  -19.8214   19.6937 H   0  0  0  0  0  0
  -31.1623  -19.2241   17.0548 H   0  0  0  0  0  0
  -30.9328  -17.5082   17.3716 H   0  0  0  0  0  0
  -32.4178  -18.0765   16.6170 H   0  0  0  0  0  0
  -33.5805  -17.2001   20.0283 H   0  0  0  0  0  0
  -33.9470  -17.1097   18.3209 H   0  0  0  0  0  0
  -32.5110  -16.3349   18.8927 H   0  0  0  0  0  0
  -30.8086  -16.8019   22.6052 H   0  0  0  0  0  0
  -32.0658  -16.5367   21.4756 H   0  0  0  0  0  0
  -30.3820  -22.3840   21.9477 H   0  0  0  0  0  0
  -30.1242  -22.7705   20.2713 H   0  0  0  0  0  0
  -27.4458  -23.5461   19.9379 H   0  0  0  0  0  0
  -26.9686  -24.8095   21.0109 H   0  0  0  0  0  0
  -28.0322  -21.3044   20.3184 H   0  0  0  0  0  0
  -28.2787  -21.0333   22.0272 H   0  0  0  0  0  0
  -28.0209  -25.3569   18.5835 H   0  0  0  0  0  0
  -29.5172  -25.1285   19.3983 H   0  0  0  0  0  0
  -28.0985  -23.4253   22.4279 H   0  0  0  0  0  0
  -29.2617  -15.4389   21.4249 H   0  0  0  0  0  0
  1 25  1  0  0  0
  1 30  2  0  0  0
  1 87  1  0  0  0
  2  3  1  0  0  0
  2 25  1  0  0  0
  2 88  1  0  0  0
  2 89  1  0  0  0
  3  4  1  0  0  0
  3 90  1  0  0  0
  3 91  1  0  0  0
  4  5  1  0  0  0
  4 92  1  0  0  0
  4 93  1  0  0  0
  5  6  1  0  0  0
  5 26  1  0  0  0
  5 94  1  0  0  0
  6 25  1  0  0  0
  6 95  1  0  0  0
  6 96  1  0  0  0
  7  8  2  0  0  0
  7 26  1  0  0  0
  7 29  1  0  0  0
  8  9  1  0  0  0
  8 22  1  0  0  0
  9 10  1  0  0  0
  9 27  2  0  0  0
 10 11  2  0  0  0
 10 15  1  0  0  0
 11 12  1  0  0  0
 11 97  1  0  0  0
 12 13  2  0  0  0
 12 98  1  0  0  0
 13 14  1  0  0  0
 13 31  1  0  0  0
 14 15  2  0  0  0
 14 99  1  0  0  0
 15100  1  0  0  0
 16 17  2  0  0  0
 16 21  1  0  0  0
 16 31  1  0  0  0
 17 18  1  0  0  0
 17101  1  0  0  0
 18 19  2  0  0  0
 18102  1  0  0  0
 19 20  1  0  0  0
 19 24  1  0  0  0
 20 21  2  0  0  0
 20103  1  0  0  0
 21 23  1  0  0  0
 22 28  1  0  0  0
 22 32  2  0  0  0
 26 27  1  0  0  0
 28104  1  0  0  0
 28105  1  0  0  0
 29106  1  0  0  0
 29107  1  0  0  0
 33 34  1  0  0  0
 33 66  1  0  0  0
 33 70  2  0  0  0
 34 36  1  0  0  0
 34 59  1  0  0  0
 34108  1  0  0  0
 35 44  2  0  0  0
 35 45  1  0  0  0
 35 68  1  0  0  0
 36 56  1  0  0  0
 36109  1  0  0  0
 37 39  1  0  0  0
 37 47  1  0  0  0
 37 66  1  0  0  0
 37110  1  0  0  0
 38 43  2  0  0  0
 38 46  1  0  0  0
 38 47  1  0  0  0
 39 64  1  0  0  0
 39 67  2  0  0  0
 40 52  1  0  0  0
 40 53  2  0  0  0
 40 58  1  0  0  0
 41111  1  0  0  0
 41112  1  0  0  0
 41113  1  0  0  0
 41 48  1  0  0  0
 42 43  1  0  0  0
 42 66  1  0  0  0
 42114  1  0  0  0
 42115  1  0  0  0
 43 44  1  0  0  0
 44116  1  0  0  0
 45 46  2  0  0  0
 45117  1  0  0  0
 46118  1  0  0  0
 47119  1  0  0  0
 47120  1  0  0  0
 48 56  1  0  0  0
 48 65  1  0  0  0
 48121  1  0  0  0
 49 50  1  0  0  0
 49 53  1  0  0  0
 49 64  1  0  0  0
 49122  1  0  0  0
 50 51  1  0  0  0
 50123  1  0  0  0
 50124  1  0  0  0
 51 52  1  0  0  0
 51125  1  0  0  0
 51126  1  0  0  0
 52127  1  0  0  0
 52128  1  0  0  0
 53 54  1  0  0  0
 54 55  2  0  0  0
 54129  1  0  0  0
 55 57  1  0  0  0
 55130  1  0  0  0
 56 69  2  0  0  0
 57 58  2  0  0  0
 57131  1  0  0  0
 58132  1  0  0  0
 59 60  1  0  0  0
 59 61  1  0  0  0
 59 62  1  0  0  0
 60133  1  0  0  0
 60134  1  0  0  0
 60135  1  0  0  0
 61136  1  0  0  0
 61137  1  0  0  0
 61138  1  0  0  0
 62139  1  0  0  0
 62140  1  0  0  0
 62141  1  0  0  0
 63 65  1  0  0  0
 63142  1  0  0  0
 63143  1  0  0  0
 63144  1  0  0  0
 64145  1  0  0  0
 65146  1  0  0  0
 68 83  1  0  0  0
 71 73  2  0  0  0
 71 86  1  0  0  0
 71147  1  0  0  0
 72 74  2  0  0  0
 72 86  1  0  0  0
 72148  1  0  0  0
 73 74  1  0  0  0
 73 79  1  0  0  0
 74 85  1  0  0  0
 75149  1  0  0  0
 75150  1  0  0  0
 75151  1  0  0  0
 75 84  1  0  0  0
 76152  1  0  0  0
 76153  1  0  0  0
 76154  1  0  0  0
 76 85  1  0  0  0
 77 85  1  0  0  0
 77155  1  0  0  0
 77156  1  0  0  0
 77157  1  0  0  0
 78 85  1  0  0  0
 78158  1  0  0  0
 78159  1  0  0  0
 78160  1  0  0  0
 79 87  1  0  0  0
 79161  1  0  0  0
 79162  1  0  0  0
 80 82  1  0  0  0
 80 84  1  0  0  0
 80163  1  0  0  0
 80164  1  0  0  0
 81 83  1  0  0  0
 81 84  1  0  0  0
 81165  1  0  0  0
 81166  1  0  0  0
 82 86  1  0  0  0
 82167  1  0  0  0
 82168  1  0  0  0
 83169  1  0  0  0
 83170  1  0  0  0
 84171  1  0  0  0
 87172  1  0  0  0
M  ISO  4   1 100  68 101  83 101  87 100
M  END
> <chiral flag>
0

> <version>
0

> <s_m_source_file>
/data/baiqing/PycharmProjects/Reinvent-master-3.2/result/LINK_invent/BTK/process_docking_weight1_custom_sum_contain_oxygen_bond_distance_aromatic_linkinvent_7_9_3/rearranged_h_0096.sdf

> <i_m_source_file_index>
90

> <r_mmod_Potential_Energy-OPLS-2005>
-79.5398788452148

> <r_mmod_Stretch_Energy-OPLS-2005>
39.4254188537598

> <r_mmod_Bend_Energy-OPLS-2005>
133.841125488281

> <r_mmod_Torsional_Energy-OPLS-2005>
223.49641418457

> <r_mmod_Improper_Torsional_Energy-OPLS-2005>
2.64213585853577

> <r_mmod_Van_der_Waal_Energy-OPLS-2005>
140.571731567383

> <r_mmod_Electrostatic_Energy-OPLS-2005>
-443.59130859375

> <r_mmod_Solvation_Energy-OPLS-2005>
-194.807281494141

> <b_mmod_Minimization_Converged-OPLS-2005>
0

> <r_mmod_RMS_Derivative-OPLS-2005>
3.06060910224915

$$$$
90
                    3D
 Structure written by MMmdl.
173181  0  0  1  0            999 V2000
  -30.6310  -14.7411   20.3995 C   0  0  0  0  0  0
  -30.4119  -12.4476   19.4135 C   0  0  0  0  0  0
  -29.4720  -12.4551   18.1871 C   0  0  0  0  0  0
  -27.9971  -12.3136   18.6046 C   0  0  0  0  0  0
  -27.6169  -13.2268   19.8025 C   0  0  2  0  0  0
  -28.6840  -13.1719   20.9204 C   0  0  0  0  0  0
  -25.2355  -13.8098   20.5682 C   0  0  0  0  0  0
  -24.1738  -13.0338   20.9214 C   0  0  0  0  0  0
  -24.6334  -11.6803   20.8755 C   0  0  0  0  0  0
  -23.9051  -10.4157   21.0408 C   0  0  0  0  0  0
  -24.3569   -9.4092   21.9252 C   0  0  0  0  0  0
  -23.6222   -8.2142   22.0824 C   0  0  0  0  0  0
  -22.4216   -8.0183   21.3586 C   0  0  0  0  0  0
  -21.9852   -9.0125   20.4715 C   0  0  0  0  0  0
  -22.7193  -10.2024   20.3091 C   0  0  0  0  0  0
  -21.6764   -6.0645   22.5266 C   0  0  0  0  0  0
  -21.3953   -6.5575   23.8215 C   0  0  0  0  0  0
  -21.3697   -5.6791   24.9187 C   0  0  0  0  0  0
  -21.6063   -4.3032   24.7282 C   0  0  0  0  0  0
  -21.8788   -3.8101   23.4407 C   0  0  0  0  0  0
  -21.9146   -4.6864   22.3447 C   0  0  0  0  0  0
  -22.7744  -13.5133   21.1886 C   0  0  0  0  0  0
  -22.1628   -4.2045   21.1023 F   0  0  0  0  0  0
  -21.5650   -3.4555   25.7822 F   0  0  0  0  0  0
  -29.9720  -13.5303   20.3213 N   0  0  0  0  0  0
  -26.2769  -12.9371   20.3051 N   0  0  0  0  0  0
  -25.9237  -11.6504   20.5661 N   0  0  0  0  0  0
  -22.0361  -12.8203   22.0440 N   0  0  0  0  0  0
  -25.3895  -15.1839   20.4099 N   0  0  0  0  0  0
  -31.8351  -14.8059   20.1640 O   0  0  0  0  0  0
  -21.6562   -6.8787   21.4263 O   0  0  0  0  0  0
  -22.3459  -14.5411   20.6636 O   0  0  0  0  0  0
  -24.6406  -31.8461   23.2061 C   0  0  0  0  0  0
  -25.9285  -32.4643   23.8405 C   0  0  1  0  0  0
  -27.2271  -27.2852   20.1113 C   0  0  0  0  0  0
  -25.6032  -33.8469   24.2194 N   0  0  0  0  0  0
  -23.4237  -30.4814   21.5430 C   0  0  2  0  0  0
  -24.8750  -28.9351   20.1044 C   0  0  0  0  0  0
  -22.7476  -29.4600   22.4857 C   0  0  0  0  0  0
  -18.0451  -28.1346   22.8360 C   0  0  0  0  0  0
  -24.1507  -36.7343   23.2598 C   0  0  0  0  0  0
  -25.9714  -30.7752   21.3674 C   0  0  0  0  0  0
  -26.0523  -29.4031   20.7099 C   0  0  0  0  0  0
  -27.2309  -28.5917   20.7132 C   0  0  0  0  0  0
  -26.0286  -26.8975   19.4646 C   0  0  0  0  0  0
  -24.8676  -27.6861   19.4744 C   0  0  0  0  0  0
  -23.6423  -29.8134   20.1602 C   0  0  0  0  0  0
  -25.4120  -36.2922   24.0203 C   0  0  1  0  0  0
  -20.5965  -28.3785   23.1461 C   0  0  2  0  0  0
  -20.7027  -26.9443   22.5809 C   0  0  0  0  0  0
  -19.6318  -26.6177   21.5399 C   0  0  0  0  0  0
  -18.2172  -26.8101   22.1079 C   0  0  0  0  0  0
  -19.1645  -28.8791   23.3053 C   0  0  0  0  0  0
  -18.9458  -30.1331   23.9174 C   0  0  0  0  0  0
  -17.6531  -30.6516   24.0595 C   0  0  0  0  0  0
  -25.9062  -34.9335   23.4977 C   0  0  0  0  0  0
  -16.5532  -29.9110   23.6043 C   0  0  0  0  0  0
  -16.7438  -28.6494   23.0107 C   0  0  0  0  0  0
  -26.4625  -31.6492   25.0788 C   0  0  0  0  0  0
  -25.3906  -31.3814   26.1583 C   0  0  0  0  0  0
  -27.0444  -30.2849   24.6312 C   0  0  0  0  0  0
  -27.6030  -32.4273   25.7728 C   0  0  0  0  0  0
  -27.5512  -37.1826   24.8382 C   0  0  0  0  0  0
  -21.4188  -29.2963   22.3643 N   0  0  0  0  0  0
  -26.4258  -37.3626   23.9278 N   0  0  0  0  0  0
  -24.6983  -31.0565   22.0907 N   0  0  0  0  0  0
  -23.4147  -28.8199   23.2948 O   0  0  0  0  0  0
  -28.3188  -26.3825   20.1553 O   0  0  0  0  0  0
  -26.5592  -34.8832   22.4474 O   0  0  0  0  0  0
  -23.5582  -32.1276   23.7393 O   0  0  0  0  0  0
  -28.0786  -18.0268   21.4401 C   0  0  0  0  0  0
  -26.9435  -18.8425   21.5639 C   0  0  0  0  0  0
  -26.9648  -20.0588   20.8174 C   0  0  0  0  0  0
  -29.2186  -18.4858   20.7641 C   0  0  0  0  0  0
  -28.2009  -20.6938   20.4776 C   0  0  0  0  0  0
  -24.5182  -19.2288   22.4888 C   0  0  0  0  0  0
  -26.2689  -17.9736   23.8252 C   0  0  0  0  0  0
  -25.7371  -20.3846   19.9430 C   0  0  0  0  0  0
  -28.0859  -22.2292   19.9156 C   0  0  0  0  0  0
  -30.3112  -17.3677   20.4542 C   0  0  0  0  0  0
  -25.1998  -19.1733   19.1156 C   0  0  0  0  0  0
  -28.9158  -23.5968   20.2307 C   0  0  0  0  0  0
  -24.2058  -19.5752   17.9881 C   0  0  0  0  0  0
  -27.9900  -24.9229   20.0263 C   0  0  0  0  0  0
  -25.7618  -18.3080   22.4088 C   0  0  0  0  0  0
  -29.3063  -19.8372   20.3864 N   0  0  0  0  0  0
  -29.8848  -15.8921   20.5207 N   0  0  0  0  0  0
  -22.8263  -19.8180   18.4610 N   0  3  0  0  0  0
  -31.4432  -12.5698   19.0828 H   0  0  0  0  0  0
  -30.3728  -11.4757   19.9166 H   0  0  0  0  0  0
  -29.7225  -11.6272   17.5230 H   0  0  0  0  0  0
  -29.6189  -13.3578   17.5904 H   0  0  0  0  0  0
  -27.8236  -11.2708   18.8827 H   0  0  0  0  0  0
  -27.3445  -12.4991   17.7495 H   0  0  0  0  0  0
  -27.6017  -14.2405   19.4033 H   0  0  0  0  0  0
  -28.7252  -12.1663   21.3256 H   0  0  0  0  0  0
  -28.4196  -13.8144   21.7617 H   0  0  0  0  0  0
  -25.2664   -9.5499   22.4902 H   0  0  0  0  0  0
  -23.9841   -7.4495   22.7527 H   0  0  0  0  0  0
  -21.0787   -8.8656   19.9024 H   0  0  0  0  0  0
  -22.3636  -10.9565   19.6211 H   0  0  0  0  0  0
  -21.1918   -7.6085   23.9692 H   0  0  0  0  0  0
  -21.1601   -6.0539   25.9121 H   0  0  0  0  0  0
  -22.0555   -2.7544   23.2963 H   0  0  0  0  0  0
  -22.3906  -11.9836   22.4873 H   0  0  0  0  0  0
  -21.1001  -13.1357   22.2638 H   0  0  0  0  0  0
  -24.6060  -15.8058   20.5460 H   0  0  0  0  0  0
  -26.2194  -15.6531   20.0813 H   0  0  0  0  0  0
  -26.7298  -32.5266   23.1142 H   0  0  0  0  0  0
  -25.0298  -33.9656   25.0439 H   0  0  0  0  0  0
  -22.7200  -31.3046   21.3969 H   0  0  0  0  0  0
  -23.3585  -35.9841   23.3223 H   0  0  0  0  0  0
  -24.3615  -36.9088   22.2001 H   0  0  0  0  0  0
  -23.7536  -37.6620   23.6778 H   0  0  0  0  0  0
  -26.0918  -31.5231   20.5855 H   0  0  0  0  0  0
  -26.8516  -30.8300   21.9946 H   0  0  0  0  0  0
  -28.1219  -28.9533   21.2170 H   0  0  0  0  0  0
  -25.9382  -25.9733   18.9153 H   0  0  0  0  0  0
  -23.9782  -27.3110   18.9863 H   0  0  0  0  0  0
  -23.7761  -30.5831   19.4012 H   0  0  0  0  0  0
  -22.7606  -29.2555   19.8409 H   0  0  0  0  0  0
  -25.1328  -36.1643   25.0678 H   0  0  0  0  0  0
  -21.0078  -28.3672   24.1584 H   0  0  0  0  0  0
  -20.6065  -26.2355   23.4055 H   0  0  0  0  0  0
  -21.6952  -26.7697   22.1636 H   0  0  0  0  0  0
  -19.7575  -25.6086   21.1599 H   0  0  0  0  0  0
  -19.7928  -27.2583   20.6744 H   0  0  0  0  0  0
  -17.9537  -26.0013   22.7941 H   0  0  0  0  0  0
  -17.5147  -26.7616   21.2736 H   0  0  0  0  0  0
  -19.7785  -30.7169   24.2842 H   0  0  0  0  0  0
  -17.5118  -31.6175   24.5289 H   0  0  0  0  0  0
  -15.5567  -30.3119   23.7170 H   0  0  0  0  0  0
  -15.8869  -28.0866   22.6713 H   0  0  0  0  0  0
  -24.6046  -30.7042   25.8244 H   0  0  0  0  0  0
  -24.9218  -32.3075   26.4910 H   0  0  0  0  0  0
  -25.8393  -30.9279   27.0434 H   0  0  0  0  0  0
  -26.3043  -29.6569   24.1304 H   0  0  0  0  0  0
  -27.3975  -29.7119   25.4916 H   0  0  0  0  0  0
  -27.8972  -30.3980   23.9589 H   0  0  0  0  0  0
  -27.2398  -33.3482   26.2342 H   0  0  0  0  0  0
  -28.4043  -32.7000   25.0828 H   0  0  0  0  0  0
  -28.0481  -31.8399   26.5804 H   0  0  0  0  0  0
  -28.2455  -38.0176   24.7313 H   0  0  0  0  0  0
  -28.1064  -36.2686   24.6282 H   0  0  0  0  0  0
  -27.2225  -37.1492   25.8790 H   0  0  0  0  0  0
  -20.9518  -29.8308   21.6488 H   0  0  0  0  0  0
  -26.0034  -38.2630   24.1306 H   0  0  0  0  0  0
  -28.0613  -17.0088   21.8102 H   0  0  0  0  0  0
  -24.0117  -19.3073   21.5338 H   0  0  0  0  0  0
  -24.7629  -20.2467   22.7980 H   0  0  0  0  0  0
  -23.7632  -18.8367   23.1745 H   0  0  0  0  0  0
  -27.0836  -17.2468   23.8233 H   0  0  0  0  0  0
  -25.5116  -17.5482   24.4738 H   0  0  0  0  0  0
  -26.6230  -18.8805   24.3109 H   0  0  0  0  0  0
  -26.0512  -21.0559   19.1511 H   0  0  0  0  0  0
  -24.9809  -20.9561   20.4741 H   0  0  0  0  0  0
  -27.1551  -22.5231   20.4174 H   0  0  0  0  0  0
  -27.8195  -22.2555   18.8427 H   0  0  0  0  0  0
  -31.1851  -17.5027   21.0888 H   0  0  0  0  0  0
  -30.6841  -17.5314   19.4427 H   0  0  0  0  0  0
  -24.7809  -18.3752   19.7349 H   0  0  0  0  0  0
  -26.0587  -18.7151   18.6279 H   0  0  0  0  0  0
  -29.3646  -23.5918   21.2271 H   0  0  0  0  0  0
  -29.7522  -23.6507   19.5256 H   0  0  0  0  0  0
  -24.1503  -18.8222   17.1963 H   0  0  0  0  0  0
  -24.5856  -20.4650   17.4840 H   0  0  0  0  0  0
  -27.1504  -24.7883   20.7129 H   0  0  0  0  0  0
  -27.6412  -24.8035   19.0062 H   0  0  0  0  0  0
  -25.4572  -17.3536   21.9813 H   0  0  0  0  0  0
  -28.8871  -15.7729   20.5529 H   0  0  0  0  0  0
  -22.3426  -18.9676   18.7134 H   0  0  0  0  0  0
  -22.3157  -20.2467   17.7023 H   0  0  0  0  0  0
  -22.8299  -20.4379   19.2530 H   0  0  0  0  0  0
  1 25  1  0  0  0
  1 30  2  0  0  0
  1 87  1  0  0  0
  2  3  1  0  0  0
  2 25  1  0  0  0
  2 89  1  0  0  0
  2 90  1  0  0  0
  3  4  1  0  0  0
  3 91  1  0  0  0
  3 92  1  0  0  0
  4  5  1  0  0  0
  4 93  1  0  0  0
  4 94  1  0  0  0
  5  6  1  0  0  0
  5 26  1  0  0  0
  5 95  1  0  0  0
  6 25  1  0  0  0
  6 96  1  0  0  0
  6 97  1  0  0  0
  7  8  2  0  0  0
  7 26  1  0  0  0
  7 29  1  0  0  0
  8  9  1  0  0  0
  8 22  1  0  0  0
  9 10  1  0  0  0
  9 27  2  0  0  0
 10 11  2  0  0  0
 10 15  1  0  0  0
 11 12  1  0  0  0
 11 98  1  0  0  0
 12 13  2  0  0  0
 12 99  1  0  0  0
 13 14  1  0  0  0
 13 31  1  0  0  0
 14 15  2  0  0  0
 14100  1  0  0  0
 15101  1  0  0  0
 16 17  2  0  0  0
 16 21  1  0  0  0
 16 31  1  0  0  0
 17 18  1  0  0  0
 17102  1  0  0  0
 18 19  2  0  0  0
 18103  1  0  0  0
 19 20  1  0  0  0
 19 24  1  0  0  0
 20 21  2  0  0  0
 20104  1  0  0  0
 21 23  1  0  0  0
 22 28  1  0  0  0
 22 32  2  0  0  0
 26 27  1  0  0  0
 28105  1  0  0  0
 28106  1  0  0  0
 29107  1  0  0  0
 29108  1  0  0  0
 33 34  1  0  0  0
 33 66  1  0  0  0
 33 70  2  0  0  0
 34 36  1  0  0  0
 34 59  1  0  0  0
 34109  1  0  0  0
 35 44  2  0  0  0
 35 45  1  0  0  0
 35 68  1  0  0  0
 36 56  1  0  0  0
 36110  1  0  0  0
 37 39  1  0  0  0
 37 47  1  0  0  0
 37 66  1  0  0  0
 37111  1  0  0  0
 38 43  2  0  0  0
 38 46  1  0  0  0
 38 47  1  0  0  0
 39 64  1  0  0  0
 39 67  2  0  0  0
 40 52  1  0  0  0
 40 53  2  0  0  0
 40 58  1  0  0  0
 41112  1  0  0  0
 41113  1  0  0  0
 41114  1  0  0  0
 41 48  1  0  0  0
 42 43  1  0  0  0
 42 66  1  0  0  0
 42115  1  0  0  0
 42116  1  0  0  0
 43 44  1  0  0  0
 44117  1  0  0  0
 45 46  2  0  0  0
 45118  1  0  0  0
 46119  1  0  0  0
 47120  1  0  0  0
 47121  1  0  0  0
 48 56  1  0  0  0
 48 65  1  0  0  0
 48122  1  0  0  0
 49 50  1  0  0  0
 49 53  1  0  0  0
 49 64  1  0  0  0
 49123  1  0  0  0
 50 51  1  0  0  0
 50124  1  0  0  0
 50125  1  0  0  0
 51 52  1  0  0  0
 51126  1  0  0  0
 51127  1  0  0  0
 52128  1  0  0  0
 52129  1  0  0  0
 53 54  1  0  0  0
 54 55  2  0  0  0
 54130  1  0  0  0
 55 57  1  0  0  0
 55131  1  0  0  0
 56 69  2  0  0  0
 57 58  2  0  0  0
 57132  1  0  0  0
 58133  1  0  0  0
 59 60  1  0  0  0
 59 61  1  0  0  0
 59 62  1  0  0  0
 60134  1  0  0  0
 60135  1  0  0  0
 60136  1  0  0  0
 61137  1  0  0  0
 61138  1  0  0  0
 61139  1  0  0  0
 62140  1  0  0  0
 62141  1  0  0  0
 62142  1  0  0  0
 63 65  1  0  0  0
 63143  1  0  0  0
 63144  1  0  0  0
 63145  1  0  0  0
 64146  1  0  0  0
 65147  1  0  0  0
 68 84  1  0  0  0
 71 72  2  0  0  0
 71 74  1  0  0  0
 71148  1  0  0  0
 72 73  1  0  0  0
 72 85  1  0  0  0
 73 75  2  0  0  0
 73 78  1  0  0  0
 74 80  1  0  0  0
 74 86  2  0  0  0
 75 79  1  0  0  0
 75 86  1  0  0  0
 76149  1  0  0  0
 76150  1  0  0  0
 76151  1  0  0  0
 76 85  1  0  0  0
 77 85  1  0  0  0
 77152  1  0  0  0
 77153  1  0  0  0
 77154  1  0  0  0
 78 81  1  0  0  0
 78155  1  0  0  0
 78156  1  0  0  0
 79 82  1  0  0  0
 79157  1  0  0  0
 79158  1  0  0  0
 80 87  1  0  0  0
 80159  1  0  0  0
 80160  1  0  0  0
 81 83  1  0  0  0
 81161  1  0  0  0
 81162  1  0  0  0
 82 84  1  0  0  0
 82163  1  0  0  0
 82164  1  0  0  0
 83 88  1  0  0  0
 83165  1  0  0  0
 83166  1  0  0  0
 84167  1  0  0  0
 84168  1  0  0  0
 85169  1  0  0  0
 87170  1  0  0  0
 88171  1  0  0  0
 88172  1  0  0  0
 88173  1  0  0  0
M  CHG  1  88   1
M  ISO  4   1 100  68 101  84 101  87 100
M  END
> <chiral flag>
0

> <version>
0

> <s_m_source_file>
/data/baiqing/PycharmProjects/Reinvent-master-3.2/result/LINK_invent/BTK/process_docking_weight1_custom_sum_contain_oxygen_bond_distance_aromatic_linkinvent_7_9_3/rearranged_h_0096.sdf

> <i_m_source_file_index>
91

> <r_mmod_Potential_Energy-OPLS-2005>
-163.334671020508

> <r_mmod_Stretch_Energy-OPLS-2005>
151.487670898438

> <r_mmod_Bend_Energy-OPLS-2005>
262.758453369141

> <r_mmod_Torsional_Energy-OPLS-2005>
300.643218994141

> <r_mmod_Improper_Torsional_Energy-OPLS-2005>
12.082839012146

> <r_mmod_Van_der_Waal_Energy-OPLS-2005>
158.418365478516

> <r_mmod_Electrostatic_Energy-OPLS-2005>
-597.013793945312

> <r_mmod_Solvation_Energy-OPLS-2005>
-540.664245605469

> <b_mmod_Minimization_Converged-OPLS-2005>
0

> <r_mmod_RMS_Derivative-OPLS-2005>
17.8143424987793

$$$$
91
                    3D
 Structure written by MMmdl.
178186  0  0  1  0            999 V2000
  -30.6921  -14.4542   20.6571 C   0  0  0  0  0  0
  -30.4342  -12.3301   19.3959 C   0  0  0  0  0  0
  -29.4995  -12.5546   18.1911 C   0  0  0  0  0  0
  -28.0164  -12.4087   18.5964 C   0  0  0  0  0  0
  -27.6715  -13.2044   19.8864 C   0  0  2  0  0  0
  -28.7135  -12.9180   20.9875 C   0  0  0  0  0  0
  -25.2596  -13.8130   20.5673 C   0  0  0  0  0  0
  -24.1846  -13.0407   20.9156 C   0  0  0  0  0  0
  -24.6425  -11.6876   20.8691 C   0  0  0  0  0  0
  -23.9090  -10.4290   21.0381 C   0  0  0  0  0  0
  -24.3634   -9.4214   21.9170 C   0  0  0  0  0  0
  -23.6326   -8.2236   22.0735 C   0  0  0  0  0  0
  -22.4268   -8.0287   21.3574 C   0  0  0  0  0  0
  -21.9926   -9.0244   20.4633 C   0  0  0  0  0  0
  -22.7251  -10.2133   20.3056 C   0  0  0  0  0  0
  -21.6845   -6.0723   22.5270 C   0  0  0  0  0  0
  -21.4022   -6.5651   23.8190 C   0  0  0  0  0  0
  -21.3662   -5.6825   24.9165 C   0  0  0  0  0  0
  -21.6030   -4.3076   24.7238 C   0  0  0  0  0  0
  -21.8819   -3.8150   23.4366 C   0  0  0  0  0  0
  -21.9201   -4.6955   22.3409 C   0  0  0  0  0  0
  -22.7870  -13.5215   21.1835 C   0  0  0  0  0  0
  -22.1658   -4.2168   21.0973 F   0  0  0  0  0  0
  -21.5634   -3.4520   25.7731 F   0  0  0  0  0  0
  -30.0354  -13.2746   20.4526 N   0  0  0  0  0  0
  -26.3086  -12.9317   20.3420 N   0  0  0  0  0  0
  -25.9363  -11.6462   20.5726 N   0  0  0  0  0  0
  -22.0544  -12.8206   22.0394 N   0  0  0  0  0  0
  -25.4307  -15.1876   20.4105 N   0  0  0  0  0  0
  -31.7604  -14.7019   20.0870 O   0  0  0  0  0  0
  -21.6627   -6.8878   21.4251 O   0  0  0  0  0  0
  -22.3566  -14.5528   20.6672 O   0  0  0  0  0  0
  -24.5993  -31.8651   23.2157 C   0  0  0  0  0  0
  -25.8932  -32.4701   23.8464 C   0  0  1  0  0  0
  -27.2628  -27.4736   20.1657 C   0  0  0  0  0  0
  -25.5674  -33.8544   24.2322 N   0  0  0  0  0  0
  -23.3932  -30.4893   21.5358 C   0  0  2  0  0  0
  -24.8572  -28.9464   20.1152 C   0  0  0  0  0  0
  -22.7368  -29.4616   22.4921 C   0  0  0  0  0  0
  -18.0238  -28.1470   22.8531 C   0  0  0  0  0  0
  -24.1462  -36.7423   23.2640 C   0  0  0  0  0  0
  -25.9048  -30.8546   21.3633 C   0  0  0  0  0  0
  -26.0060  -29.4941   20.7103 C   0  0  0  0  0  0
  -27.2063  -28.7655   20.7323 C   0  0  0  0  0  0
  -26.1104  -26.9210   19.5746 C   0  0  0  0  0  0
  -24.9102  -27.6589   19.5307 C   0  0  0  0  0  0
  -23.6173  -29.8100   20.1516 C   0  0  0  0  0  0
  -25.4008  -36.3058   24.0385 C   0  0  1  0  0  0
  -20.5836  -28.3673   23.1307 C   0  0  2  0  0  0
  -20.6764  -26.9464   22.5398 C   0  0  0  0  0  0
  -19.5656  -26.6405   21.5262 C   0  0  0  0  0  0
  -18.1853  -26.7966   22.1727 C   0  0  0  0  0  0
  -19.1517  -28.8894   23.2887 C   0  0  0  0  0  0
  -18.9585  -30.1511   23.8964 C   0  0  0  0  0  0
  -17.6625  -30.6710   24.0695 C   0  0  0  0  0  0
  -25.8953  -34.9396   23.5201 C   0  0  0  0  0  0
  -16.5473  -29.9307   23.6452 C   0  0  0  0  0  0
  -16.7263  -28.6687   23.0512 C   0  0  0  0  0  0
  -26.4473  -31.6425   25.0727 C   0  0  0  0  0  0
  -25.3705  -31.3250   26.1402 C   0  0  0  0  0  0
  -27.0761  -30.2962   24.6212 C   0  0  0  0  0  0
  -27.5909  -32.4167   25.7682 C   0  0  0  0  0  0
  -27.5518  -37.1879   24.8445 C   0  0  0  0  0  0
  -21.4063  -29.3119   22.3800 N   0  0  0  0  0  0
  -26.4189  -37.3701   23.9434 N   0  0  0  0  0  0
  -24.6459  -31.0838   22.0950 N   0  0  0  0  0  0
  -23.4124  -28.8154   23.2964 O   0  0  0  0  0  0
  -28.4743  -26.8321   20.1448 O   0  0  0  0  0  0
  -26.5622  -34.8955   22.4817 O   0  0  0  0  0  0
  -23.5172  -32.1409   23.7580 O   0  0  0  0  0  0
  -31.0381  -22.5463   22.6229 C   0  0  0  0  0  0
  -29.0435  -22.2429   23.9486 C   0  0  0  0  0  0
  -30.1681  -21.6885   23.3215 C   0  0  0  0  0  0
  -30.7175  -23.9146   22.4660 C   0  0  0  0  0  0
  -28.7105  -23.6056   23.8272 C   0  0  0  0  0  0
  -29.4724  -24.4271   22.9294 C   0  0  0  0  0  0
  -31.7936  -24.7946   21.8574 C   0  0  0  0  0  0
  -28.8065  -25.7318   26.6119 C   0  0  0  0  0  0
  -26.4109  -23.2631   24.9426 C   0  0  0  0  0  0
  -29.2530  -17.5385   20.2679 C   0  0  0  0  0  0
  -28.9307  -25.7595   22.3792 C   0  0  0  0  0  0
  -30.4803  -20.2077   23.5294 C   0  0  0  0  0  0
  -30.1172  -15.5321   21.6266 C   0  0  0  0  0  0
  -28.3707  -24.3150   26.2191 C   0  0  0  0  0  0
  -30.4128  -17.9049   22.5612 C   0  0  0  0  0  0
  -28.6088  -25.6087   20.8609 C   0  0  0  0  0  0
  -27.6807  -24.1566   24.8287 C   0  0  1  0  0  0
  -30.3296  -17.0399   21.2620 C   0  0  2  0  0  0
  -30.0608  -19.3469   22.3934 N   0  3  0  0  0  0
  -31.4723  -12.4581   19.0923 H   0  0  0  0  0  0
  -30.3537  -11.3042   19.7520 H   0  0  0  0  0  0
  -29.7358  -11.8589   17.3859 H   0  0  0  0  0  0
  -29.6627  -13.5548   17.7835 H   0  0  0  0  0  0
  -27.8063  -11.3487   18.7456 H   0  0  0  0  0  0
  -27.3700  -12.7347   17.7775 H   0  0  0  0  0  0
  -27.7320  -14.2644   19.6414 H   0  0  0  0  0  0
  -28.7012  -11.8561   21.2278 H   0  0  0  0  0  0
  -28.4662  -13.4063   21.9263 H   0  0  0  0  0  0
  -25.2789   -9.5646   22.4717 H   0  0  0  0  0  0
  -24.0006   -7.4619   22.7471 H   0  0  0  0  0  0
  -21.0829   -8.8784   19.8952 H   0  0  0  0  0  0
  -22.3731  -10.9659   19.6142 H   0  0  0  0  0  0
  -21.2008   -7.6143   23.9732 H   0  0  0  0  0  0
  -21.1480   -6.0509   25.9082 H   0  0  0  0  0  0
  -22.0600   -2.7607   23.2833 H   0  0  0  0  0  0
  -22.4178  -11.9879   22.4777 H   0  0  0  0  0  0
  -21.1177  -13.1211   22.2609 H   0  0  0  0  0  0
  -24.6561  -15.8357   20.5182 H   0  0  0  0  0  0
  -26.2885  -15.6353   20.1092 H   0  0  0  0  0  0
  -26.7071  -32.5518   23.1312 H   0  0  0  0  0  0
  -24.9425  -33.9689   25.0179 H   0  0  0  0  0  0
  -22.6777  -31.3039   21.3820 H   0  0  0  0  0  0
  -23.3566  -35.9863   23.3129 H   0  0  0  0  0  0
  -24.3551  -36.9198   22.2046 H   0  0  0  0  0  0
  -23.7535  -37.6789   23.6692 H   0  0  0  0  0  0
  -26.0246  -31.6492   20.6201 H   0  0  0  0  0  0
  -26.7713  -30.9024   22.0048 H   0  0  0  0  0  0
  -28.0809  -29.1802   21.2166 H   0  0  0  0  0  0
  -26.1648  -25.9278   19.1542 H   0  0  0  0  0  0
  -24.0483  -27.2199   19.0474 H   0  0  0  0  0  0
  -23.7250  -30.5791   19.3817 H   0  0  0  0  0  0
  -22.7745  -29.1926   19.8387 H   0  0  0  0  0  0
  -25.1191  -36.1874   25.0890 H   0  0  0  0  0  0
  -20.9904  -28.3400   24.1487 H   0  0  0  0  0  0
  -20.5641  -26.2526   23.3726 H   0  0  0  0  0  0
  -21.6664  -26.7429   22.1206 H   0  0  0  0  0  0
  -19.6831  -25.6321   21.1344 H   0  0  0  0  0  0
  -19.6511  -27.3302   20.6852 H   0  0  0  0  0  0
  -17.4033  -26.6671   21.4251 H   0  0  0  0  0  0
  -18.0286  -26.0282   22.9224 H   0  0  0  0  0  0
  -19.8171  -30.7259   24.2264 H   0  0  0  0  0  0
  -17.5355  -31.6468   24.5266 H   0  0  0  0  0  0
  -15.5518  -30.3330   23.7796 H   0  0  0  0  0  0
  -15.8631  -28.1073   22.7165 H   0  0  0  0  0  0
  -24.6068  -30.6398   25.7673 H   0  0  0  0  0  0
  -24.8692  -32.2247   26.5030 H   0  0  0  0  0  0
  -25.8219  -30.8404   27.0058 H   0  0  0  0  0  0
  -26.3686  -29.6334   24.1272 H   0  0  0  0  0  0
  -27.4481  -29.7314   25.4783 H   0  0  0  0  0  0
  -27.9233  -30.4555   23.9479 H   0  0  0  0  0  0
  -27.2496  -33.3550   26.2097 H   0  0  0  0  0  0
  -28.4025  -32.6617   25.0770 H   0  0  0  0  0  0
  -28.0246  -31.8306   26.5839 H   0  0  0  0  0  0
  -28.2521  -38.0166   24.7361 H   0  0  0  0  0  0
  -28.1081  -36.2764   24.6278 H   0  0  0  0  0  0
  -27.2288  -37.1563   25.8868 H   0  0  0  0  0  0
  -20.9023  -29.9275   21.7606 H   0  0  0  0  0  0
  -26.0061  -38.2746   24.1474 H   0  0  0  0  0  0
  -31.9529  -22.1438   22.2087 H   0  0  0  0  0  0
  -28.5007  -21.5984   24.6277 H   0  0  0  0  0  0
  -32.0059  -24.4864   20.8337 H   0  0  0  0  0  0
  -32.7191  -24.6924   22.4335 H   0  0  0  0  0  0
  -31.5437  -25.8541   21.8641 H   0  0  0  0  0  0
  -29.1773  -25.7175   27.6291 H   0  0  0  0  0  0
  -27.9720  -26.4323   26.6020 H   0  0  0  0  0  0
  -29.6056  -26.1122   25.9756 H   0  0  0  0  0  0
  -25.8107  -23.3053   24.0293 H   0  0  0  0  0  0
  -25.7783  -23.5932   25.7663 H   0  0  0  0  0  0
  -26.6173  -22.2141   25.1653 H   0  0  0  0  0  0
  -29.1764  -16.8910   19.3935 H   0  0  0  0  0  0
  -29.4846  -18.5355   19.8849 H   0  0  0  0  0  0
  -28.2627  -17.5904   20.7263 H   0  0  0  0  0  0
  -29.6364  -26.5731   22.5695 H   0  0  0  0  0  0
  -27.9986  -26.0628   22.8468 H   0  0  0  0  0  0
  -29.9803  -19.8671   24.4369 H   0  0  0  0  0  0
  -31.5460  -20.0948   23.6991 H   0  0  0  0  0  0
  -29.0489  -15.3976   21.7841 H   0  0  0  0  0  0
  -30.5868  -15.3232   22.5902 H   0  0  0  0  0  0
  -27.6982  -23.9610   27.0054 H   0  0  0  0  0  0
  -29.2513  -23.6648   26.2770 H   0  0  0  0  0  0
  -31.4286  -17.8269   22.9564 H   0  0  0  0  0  0
  -29.7598  -17.4888   23.3301 H   0  0  0  0  0  0
  -29.4250  -25.0968   20.3533 H   0  0  0  0  0  0
  -27.7405  -24.9661   20.7401 H   0  0  0  0  0  0
  -27.3087  -25.1389   24.5426 H   0  0  0  0  0  0
  -31.2856  -17.1487   20.7523 H   0  0  0  0  0  0
  -30.4780  -19.7113   21.5524 H   0  0  0  0  0  0
  -29.0572  -19.4118   22.3011 H   0  0  0  0  0  0
  1 25  1  0  0  0
  1 30  2  0  0  0
  1 83  1  0  0  0
  2  3  1  0  0  0
  2 25  1  0  0  0
  2 90  1  0  0  0
  2 91  1  0  0  0
  3  4  1  0  0  0
  3 92  1  0  0  0
  3 93  1  0  0  0
  4  5  1  0  0  0
  4 94  1  0  0  0
  4 95  1  0  0  0
  5  6  1  0  0  0
  5 26  1  0  0  0
  5 96  1  0  0  0
  6 25  1  0  0  0
  6 97  1  0  0  0
  6 98  1  0  0  0
  7  8  2  0  0  0
  7 26  1  0  0  0
  7 29  1  0  0  0
  8  9  1  0  0  0
  8 22  1  0  0  0
  9 10  1  0  0  0
  9 27  2  0  0  0
 10 11  2  0  0  0
 10 15  1  0  0  0
 11 12  1  0  0  0
 11 99  1  0  0  0
 12 13  2  0  0  0
 12100  1  0  0  0
 13 14  1  0  0  0
 13 31  1  0  0  0
 14 15  2  0  0  0
 14101  1  0  0  0
 15102  1  0  0  0
 16 17  2  0  0  0
 16 21  1  0  0  0
 16 31  1  0  0  0
 17 18  1  0  0  0
 17103  1  0  0  0
 18 19  2  0  0  0
 18104  1  0  0  0
 19 20  1  0  0  0
 19 24  1  0  0  0
 20 21  2  0  0  0
 20105  1  0  0  0
 21 23  1  0  0  0
 22 28  1  0  0  0
 22 32  2  0  0  0
 26 27  1  0  0  0
 28106  1  0  0  0
 28107  1  0  0  0
 29108  1  0  0  0
 29109  1  0  0  0
 33 34  1  0  0  0
 33 66  1  0  0  0
 33 70  2  0  0  0
 34 36  1  0  0  0
 34 59  1  0  0  0
 34110  1  0  0  0
 35 44  2  0  0  0
 35 45  1  0  0  0
 35 68  1  0  0  0
 36 56  1  0  0  0
 36111  1  0  0  0
 37 39  1  0  0  0
 37 47  1  0  0  0
 37 66  1  0  0  0
 37112  1  0  0  0
 38 43  2  0  0  0
 38 46  1  0  0  0
 38 47  1  0  0  0
 39 64  1  0  0  0
 39 67  2  0  0  0
 40 52  1  0  0  0
 40 53  2  0  0  0
 40 58  1  0  0  0
 41113  1  0  0  0
 41114  1  0  0  0
 41115  1  0  0  0
 41 48  1  0  0  0
 42 43  1  0  0  0
 42 66  1  0  0  0
 42116  1  0  0  0
 42117  1  0  0  0
 43 44  1  0  0  0
 44118  1  0  0  0
 45 46  2  0  0  0
 45119  1  0  0  0
 46120  1  0  0  0
 47121  1  0  0  0
 47122  1  0  0  0
 48 56  1  0  0  0
 48 65  1  0  0  0
 48123  1  0  0  0
 49 50  1  0  0  0
 49 53  1  0  0  0
 49 64  1  0  0  0
 49124  1  0  0  0
 50 51  1  0  0  0
 50125  1  0  0  0
 50126  1  0  0  0
 51 52  1  0  0  0
 51127  1  0  0  0
 51128  1  0  0  0
 52129  1  0  0  0
 52130  1  0  0  0
 53 54  1  0  0  0
 54 55  2  0  0  0
 54131  1  0  0  0
 55 57  1  0  0  0
 55132  1  0  0  0
 56 69  2  0  0  0
 57 58  2  0  0  0
 57133  1  0  0  0
 58134  1  0  0  0
 59 60  1  0  0  0
 59 61  1  0  0  0
 59 62  1  0  0  0
 60135  1  0  0  0
 60136  1  0  0  0
 60137  1  0  0  0
 61138  1  0  0  0
 61139  1  0  0  0
 61140  1  0  0  0
 62141  1  0  0  0
 62142  1  0  0  0
 62143  1  0  0  0
 63 65  1  0  0  0
 63144  1  0  0  0
 63145  1  0  0  0
 63146  1  0  0  0
 64147  1  0  0  0
 65148  1  0  0  0
 68 86  1  0  0  0
 71 73  2  0  0  0
 71 74  1  0  0  0
 71149  1  0  0  0
 72 73  1  0  0  0
 72 75  2  0  0  0
 72150  1  0  0  0
 73 82  1  0  0  0
 74 76  2  0  0  0
 74 77  1  0  0  0
 75 76  1  0  0  0
 75 87  1  0  0  0
 76 81  1  0  0  0
 77151  1  0  0  0
 77152  1  0  0  0
 77153  1  0  0  0
 78 84  1  0  0  0
 78154  1  0  0  0
 78155  1  0  0  0
 78156  1  0  0  0
 79157  1  0  0  0
 79158  1  0  0  0
 79159  1  0  0  0
 79 87  1  0  0  0
 80160  1  0  0  0
 80161  1  0  0  0
 80162  1  0  0  0
 80 88  1  0  0  0
 81 86  1  0  0  0
 81163  1  0  0  0
 81164  1  0  0  0
 82 89  1  0  0  0
 82165  1  0  0  0
 82166  1  0  0  0
 83 88  1  0  0  0
 83167  1  0  0  0
 83168  1  0  0  0
 84 87  1  0  0  0
 84169  1  0  0  0
 84170  1  0  0  0
 85 88  1  0  0  0
 85 89  1  0  0  0
 85171  1  0  0  0
 85172  1  0  0  0
 86173  1  0  0  0
 86174  1  0  0  0
 87175  1  0  0  0
 88176  1  0  0  0
 89177  1  0  0  0
 89178  1  0  0  0
M  CHG  1  89   1
M  ISO  4   1 100  68 101  83 100  86 101
M  END
> <chiral flag>
0

> <version>
0

> <s_m_source_file>
/data/baiqing/PycharmProjects/Reinvent-master-3.2/result/LINK_invent/BTK/process_docking_weight1_custom_sum_contain_oxygen_bond_distance_aromatic_linkinvent_7_9_3/rearranged_h_0096.sdf

> <i_m_source_file_index>
92

> <r_mmod_Potential_Energy-OPLS-2005>
-149.960433959961

> <r_mmod_Stretch_Energy-OPLS-2005>
47.9478416442871

> <r_mmod_Bend_Energy-OPLS-2005>
125.792411804199

> <r_mmod_Torsional_Energy-OPLS-2005>
244.180236816406

> <r_mmod_Improper_Torsional_Energy-OPLS-2005>
3.77247500419617

> <r_mmod_Van_der_Waal_Energy-OPLS-2005>
151.615768432617

> <r_mmod_Electrostatic_Energy-OPLS-2005>
-302.762451171875

> <r_mmod_Solvation_Energy-OPLS-2005>
-433.518188476562

> <b_mmod_Minimization_Converged-OPLS-2005>
0

> <r_mmod_RMS_Derivative-OPLS-2005>
13.9922666549683

$$$$
92
                    3D
 Structure written by MMmdl.
157165  0  0  1  0            999 V2000
  -30.5401  -14.8826   20.4312 C   0  0  0  0  0  0
  -30.4464  -12.5619   19.4515 C   0  0  0  0  0  0
  -29.5069  -12.5101   18.2254 C   0  0  0  0  0  0
  -28.0387  -12.3142   18.6515 C   0  0  0  0  0  0
  -27.6317  -13.2339   19.8329 C   0  0  2  0  0  0
  -28.6795  -13.2151   20.9600 C   0  0  0  0  0  0
  -25.2485  -13.8158   20.5679 C   0  0  0  0  0  0
  -24.1771  -13.0414   20.9226 C   0  0  0  0  0  0
  -24.6373  -11.6909   20.8727 C   0  0  0  0  0  0
  -23.9053  -10.4289   21.0425 C   0  0  0  0  0  0
  -24.3630   -9.4198   21.9175 C   0  0  0  0  0  0
  -23.6289   -8.2252   22.0762 C   0  0  0  0  0  0
  -22.4274   -8.0279   21.3548 C   0  0  0  0  0  0
  -21.9912   -9.0268   20.4661 C   0  0  0  0  0  0
  -22.7259  -10.2132   20.3047 C   0  0  0  0  0  0
  -21.6833   -6.0723   22.5276 C   0  0  0  0  0  0
  -21.4021   -6.5632   23.8216 C   0  0  0  0  0  0
  -21.3643   -5.6787   24.9178 C   0  0  0  0  0  0
  -21.6053   -4.3056   24.7233 C   0  0  0  0  0  0
  -21.8819   -3.8144   23.4349 C   0  0  0  0  0  0
  -21.9205   -4.6957   22.3406 C   0  0  0  0  0  0
  -22.7792  -13.5218   21.1888 C   0  0  0  0  0  0
  -22.1665   -4.2150   21.0981 F   0  0  0  0  0  0
  -21.5630   -3.4539   25.7740 F   0  0  0  0  0  0
  -29.9502  -13.6324   20.3561 N   0  0  0  0  0  0
  -26.2905  -12.9392   20.3222 N   0  0  0  0  0  0
  -25.9318  -11.6533   20.5716 N   0  0  0  0  0  0
  -22.0456  -12.8214   22.0435 N   0  0  0  0  0  0
  -25.4155  -15.1916   20.4134 N   0  0  0  0  0  0
  -31.7556  -14.9624   20.2273 O   0  0  0  0  0  0
  -21.6640   -6.8875   21.4229 O   0  0  0  0  0  0
  -22.3483  -14.5504   20.6696 O   0  0  0  0  0  0
  -24.6401  -31.8458   23.1893 C   0  0  0  0  0  0
  -25.9173  -32.4725   23.8271 C   0  0  1  0  0  0
  -27.2299  -27.1653   20.1614 C   0  0  0  0  0  0
  -25.5935  -33.8524   24.2195 N   0  0  0  0  0  0
  -23.4444  -30.4618   21.5328 C   0  0  2  0  0  0
  -24.8968  -28.8902   20.1143 C   0  0  0  0  0  0
  -22.7522  -29.4541   22.4838 C   0  0  0  0  0  0
  -18.0295  -28.1429   22.8426 C   0  0  0  0  0  0
  -24.1479  -36.7246   23.2657 C   0  0  0  0  0  0
  -25.9959  -30.7295   21.3846 C   0  0  0  0  0  0
  -26.0699  -29.3420   20.7307 C   0  0  0  0  0  0
  -27.2387  -28.4961   20.7308 C   0  0  0  0  0  0
  -26.0288  -26.8064   19.5076 C   0  0  0  0  0  0
  -24.8862  -27.6326   19.4905 C   0  0  0  0  0  0
  -23.6701  -29.7870   20.1505 C   0  0  0  0  0  0
  -25.4120  -36.3041   24.0321 C   0  0  1  0  0  0
  -20.5888  -28.3677   23.1192 C   0  0  2  0  0  0
  -20.6783  -26.9375   22.5377 C   0  0  0  0  0  0
  -19.5694  -26.6104   21.5313 C   0  0  0  0  0  0
  -18.1840  -26.7961   22.1551 C   0  0  0  0  0  0
  -19.1558  -28.8853   23.2813 C   0  0  0  0  0  0
  -18.9505  -30.1450   23.8851 C   0  0  0  0  0  0
  -17.6525  -30.6631   24.0472 C   0  0  0  0  0  0
  -25.9062  -34.9419   23.5068 C   0  0  0  0  0  0
  -16.5379  -29.9146   23.6281 C   0  0  0  0  0  0
  -16.7266  -28.6546   23.0297 C   0  0  0  0  0  0
  -26.4498  -31.6576   25.0695 C   0  0  0  0  0  0
  -25.3680  -31.3723   26.1381 C   0  0  0  0  0  0
  -27.0400  -30.2984   24.6268 C   0  0  0  0  0  0
  -27.6021  -32.4349   25.7491 C   0  0  0  0  0  0
  -27.5563  -37.1793   24.8485 C   0  0  0  0  0  0
  -21.4208  -29.3026   22.3550 N   0  0  0  0  0  0
  -26.4291  -37.3753   23.9398 N   0  0  0  0  0  0
  -24.7124  -31.0323   22.0922 N   0  0  0  0  0  0
  -23.4160  -28.8119   23.3026 O   0  0  0  0  0  0
  -28.3124  -26.2233   20.1985 O   0  0  0  0  0  0
  -26.5661  -34.8917   22.4658 O   0  0  0  0  0  0
  -23.5505  -32.1302   23.7112 O   0  0  0  0  0  0
  -30.6493  -20.0418   20.9111 C   0  0  0  0  0  0
  -29.7034  -19.0043   20.6288 C   0  0  0  0  0  0
  -29.2256  -21.8996   20.3557 C   0  0  0  0  0  0
  -28.2620  -20.8653   20.0282 C   0  0  0  0  0  0
  -25.7381  -21.0913   20.3391 C   0  0  0  0  0  0
  -26.7286  -20.5922   18.0401 C   0  0  0  0  0  0
  -29.1910  -23.5226   20.0293 C   0  0  0  0  0  0
  -30.0809  -17.4669   21.0966 C   0  0  0  0  0  0
  -28.0947  -24.7079   20.4438 C   0  0  0  0  0  0
  -26.9331  -21.2716   19.3959 C   0  0  0  0  0  0
  -30.4257  -21.4027   20.7990 N   0  0  0  0  0  0
  -28.4763  -19.4781   20.2060 N   0  0  0  0  0  0
  -29.7418  -16.0411   20.5549 N   0  0  0  0  0  0
  -31.4641  -12.7639   19.1143 H   0  0  0  0  0  0
  -30.4822  -11.6008   19.9675 H   0  0  0  0  0  0
  -29.8108  -11.7009   17.5646 H   0  0  0  0  0  0
  -29.6032  -13.4304   17.6434 H   0  0  0  0  0  0
  -27.9159  -11.2697   18.9378 H   0  0  0  0  0  0
  -27.3749  -12.4728   17.7982 H   0  0  0  0  0  0
  -27.6058  -14.2443   19.4223 H   0  0  0  0  0  0
  -28.7628  -12.2180   21.3987 H   0  0  0  0  0  0
  -28.3874  -13.8766   21.7749 H   0  0  0  0  0  0
  -25.2759   -9.5681   22.4771 H   0  0  0  0  0  0
  -23.9995   -7.4622   22.7460 H   0  0  0  0  0  0
  -21.0860   -8.8790   19.8947 H   0  0  0  0  0  0
  -22.3708  -10.9684   19.6171 H   0  0  0  0  0  0
  -21.2004   -7.6145   23.9722 H   0  0  0  0  0  0
  -21.1449   -6.0515   25.9083 H   0  0  0  0  0  0
  -22.0614   -2.7606   23.2857 H   0  0  0  0  0  0
  -22.4075  -11.9881   22.4846 H   0  0  0  0  0  0
  -21.1077  -13.1235   22.2645 H   0  0  0  0  0  0
  -24.6407  -15.8380   20.5076 H   0  0  0  0  0  0
  -26.2660  -15.6395   20.0971 H   0  0  0  0  0  0
  -26.7216  -32.5320   23.0984 H   0  0  0  0  0  0
  -24.9991  -33.9614   25.0270 H   0  0  0  0  0  0
  -22.7442  -31.2854   21.3767 H   0  0  0  0  0  0
  -23.3739  -35.9580   23.3356 H   0  0  0  0  0  0
  -24.3544  -36.8839   22.2061 H   0  0  0  0  0  0
  -23.7244  -37.6463   23.6661 H   0  0  0  0  0  0
  -26.1477  -31.4849   20.6129 H   0  0  0  0  0  0
  -26.8667  -30.7809   22.0239 H   0  0  0  0  0  0
  -28.1378  -28.8395   21.2214 H   0  0  0  0  0  0
  -25.9491  -25.8544   19.0040 H   0  0  0  0  0  0
  -23.9916  -27.2843   18.9951 H   0  0  0  0  0  0
  -23.8057  -30.5606   19.3944 H   0  0  0  0  0  0
  -22.7875  -29.2241   19.8451 H   0  0  0  0  0  0
  -25.1311  -36.1865   25.0815 H   0  0  0  0  0  0
  -20.9956  -28.3266   24.1312 H   0  0  0  0  0  0
  -20.5816  -26.2297   23.3611 H   0  0  0  0  0  0
  -21.6605  -26.7425   22.1024 H   0  0  0  0  0  0
  -19.6690  -25.5834   21.1771 H   0  0  0  0  0  0
  -19.6692  -27.2512   20.6551 H   0  0  0  0  0  0
  -17.4204  -26.6892   21.3820 H   0  0  0  0  0  0
  -17.9953  -26.0144   22.8906 H   0  0  0  0  0  0
  -19.8009  -30.7290   24.2156 H   0  0  0  0  0  0
  -17.5139  -31.6324   24.5071 H   0  0  0  0  0  0
  -15.5386  -30.3101   23.7586 H   0  0  0  0  0  0
  -15.8675  -28.0897   22.6969 H   0  0  0  0  0  0
  -24.5869  -30.7086   25.7659 H   0  0  0  0  0  0
  -24.8853  -32.2890   26.4784 H   0  0  0  0  0  0
  -25.7959  -30.8885   27.0176 H   0  0  0  0  0  0
  -26.3029  -29.6690   24.1269 H   0  0  0  0  0  0
  -27.4028  -29.7306   25.4856 H   0  0  0  0  0  0
  -27.8924  -30.4254   23.9584 H   0  0  0  0  0  0
  -27.2604  -33.3659   26.2029 H   0  0  0  0  0  0
  -28.3859  -32.6906   25.0346 H   0  0  0  0  0  0
  -28.0664  -31.8507   26.5450 H   0  0  0  0  0  0
  -28.2623  -38.0050   24.7486 H   0  0  0  0  0  0
  -28.1020  -36.2583   24.6375 H   0  0  0  0  0  0
  -27.2275  -37.1520   25.8894 H   0  0  0  0  0  0
  -20.9440  -29.8620   21.6653 H   0  0  0  0  0  0
  -26.0152  -38.2822   24.1406 H   0  0  0  0  0  0
  -31.6267  -19.7687   21.2907 H   0  0  0  0  0  0
  -25.9123  -21.5800   21.2972 H   0  0  0  0  0  0
  -25.5365  -20.0374   20.5262 H   0  0  0  0  0  0
  -24.8368  -21.5296   19.9105 H   0  0  0  0  0  0
  -25.8136  -20.9307   17.5547 H   0  0  0  0  0  0
  -26.6701  -19.5105   18.1544 H   0  0  0  0  0  0
  -27.5651  -20.8092   17.3771 H   0  0  0  0  0  0
  -29.3047  -23.5831   18.9472 H   0  0  0  0  0  0
  -30.1421  -23.8980   20.4148 H   0  0  0  0  0  0
  -29.6742  -17.4371   22.1077 H   0  0  0  0  0  0
  -31.1549  -17.4679   21.2665 H   0  0  0  0  0  0
  -27.9356  -24.6185   21.5181 H   0  0  0  0  0  0
  -27.1471  -24.4168   20.0007 H   0  0  0  0  0  0
  -26.9911  -22.3369   19.1767 H   0  0  0  0  0  0
  -28.7539  -15.8346   20.5668 H   0  0  0  0  0  0
  1 25  1  0  0  0
  1 30  2  0  0  0
  1 83  1  0  0  0
  2  3  1  0  0  0
  2 25  1  0  0  0
  2 84  1  0  0  0
  2 85  1  0  0  0
  3  4  1  0  0  0
  3 86  1  0  0  0
  3 87  1  0  0  0
  4  5  1  0  0  0
  4 88  1  0  0  0
  4 89  1  0  0  0
  5  6  1  0  0  0
  5 26  1  0  0  0
  5 90  1  0  0  0
  6 25  1  0  0  0
  6 91  1  0  0  0
  6 92  1  0  0  0
  7  8  2  0  0  0
  7 26  1  0  0  0
  7 29  1  0  0  0
  8  9  1  0  0  0
  8 22  1  0  0  0
  9 10  1  0  0  0
  9 27  2  0  0  0
 10 11  2  0  0  0
 10 15  1  0  0  0
 11 12  1  0  0  0
 11 93  1  0  0  0
 12 13  2  0  0  0
 12 94  1  0  0  0
 13 14  1  0  0  0
 13 31  1  0  0  0
 14 15  2  0  0  0
 14 95  1  0  0  0
 15 96  1  0  0  0
 16 17  2  0  0  0
 16 21  1  0  0  0
 16 31  1  0  0  0
 17 18  1  0  0  0
 17 97  1  0  0  0
 18 19  2  0  0  0
 18 98  1  0  0  0
 19 20  1  0  0  0
 19 24  1  0  0  0
 20 21  2  0  0  0
 20 99  1  0  0  0
 21 23  1  0  0  0
 22 28  1  0  0  0
 22 32  2  0  0  0
 26 27  1  0  0  0
 28100  1  0  0  0
 28101  1  0  0  0
 29102  1  0  0  0
 29103  1  0  0  0
 33 34  1  0  0  0
 33 66  1  0  0  0
 33 70  2  0  0  0
 34 36  1  0  0  0
 34 59  1  0  0  0
 34104  1  0  0  0
 35 44  2  0  0  0
 35 45  1  0  0  0
 35 68  1  0  0  0
 36 56  1  0  0  0
 36105  1  0  0  0
 37 39  1  0  0  0
 37 47  1  0  0  0
 37 66  1  0  0  0
 37106  1  0  0  0
 38 43  2  0  0  0
 38 46  1  0  0  0
 38 47  1  0  0  0
 39 64  1  0  0  0
 39 67  2  0  0  0
 40 52  1  0  0  0
 40 53  2  0  0  0
 40 58  1  0  0  0
 41107  1  0  0  0
 41108  1  0  0  0
 41109  1  0  0  0
 41 48  1  0  0  0
 42 43  1  0  0  0
 42 66  1  0  0  0
 42110  1  0  0  0
 42111  1  0  0  0
 43 44  1  0  0  0
 44112  1  0  0  0
 45 46  2  0  0  0
 45113  1  0  0  0
 46114  1  0  0  0
 47115  1  0  0  0
 47116  1  0  0  0
 48 56  1  0  0  0
 48 65  1  0  0  0
 48117  1  0  0  0
 49 50  1  0  0  0
 49 53  1  0  0  0
 49 64  1  0  0  0
 49118  1  0  0  0
 50 51  1  0  0  0
 50119  1  0  0  0
 50120  1  0  0  0
 51 52  1  0  0  0
 51121  1  0  0  0
 51122  1  0  0  0
 52123  1  0  0  0
 52124  1  0  0  0
 53 54  1  0  0  0
 54 55  2  0  0  0
 54125  1  0  0  0
 55 57  1  0  0  0
 55126  1  0  0  0
 56 69  2  0  0  0
 57 58  2  0  0  0
 57127  1  0  0  0
 58128  1  0  0  0
 59 60  1  0  0  0
 59 61  1  0  0  0
 59 62  1  0  0  0
 60129  1  0  0  0
 60130  1  0  0  0
 60131  1  0  0  0
 61132  1  0  0  0
 61133  1  0  0  0
 61134  1  0  0  0
 62135  1  0  0  0
 62136  1  0  0  0
 62137  1  0  0  0
 63 65  1  0  0  0
 63138  1  0  0  0
 63139  1  0  0  0
 63140  1  0  0  0
 64141  1  0  0  0
 65142  1  0  0  0
 68 79  1  0  0  0
 71 72  2  0  0  0
 71 81  1  0  0  0
 71143  1  0  0  0
 72 78  1  0  0  0
 72 82  1  0  0  0
 73 74  1  0  0  0
 73 77  1  0  0  0
 73 81  2  0  0  0
 74 80  1  0  0  0
 74 82  2  0  0  0
 75144  1  0  0  0
 75145  1  0  0  0
 75146  1  0  0  0
 75 80  1  0  0  0
 76 80  1  0  0  0
 76147  1  0  0  0
 76148  1  0  0  0
 76149  1  0  0  0
 77 79  1  0  0  0
 77150  1  0  0  0
 77151  1  0  0  0
 78 83  1  0  0  0
 78152  1  0  0  0
 78153  1  0  0  0
 79154  1  0  0  0
 79155  1  0  0  0
 80156  1  0  0  0
 83157  1  0  0  0
M  ISO  4   1 100  68 101  79 101  83 100
M  END
> <chiral flag>
0

> <version>
0

> <s_m_source_file>
/data/baiqing/PycharmProjects/Reinvent-master-3.2/result/LINK_invent/BTK/process_docking_weight1_custom_sum_contain_oxygen_bond_distance_aromatic_linkinvent_7_9_3/rearranged_h_0096.sdf

> <i_m_source_file_index>
93

> <r_mmod_Potential_Energy-OPLS-2005>
417.820343017578

> <r_mmod_Stretch_Energy-OPLS-2005>
216.447204589844

> <r_mmod_Bend_Energy-OPLS-2005>
280.589660644531

> <r_mmod_Torsional_Energy-OPLS-2005>
215.300277709961

> <r_mmod_Improper_Torsional_Energy-OPLS-2005>
7.26676845550537

> <r_mmod_Van_der_Waal_Energy-OPLS-2005>
134.164154052734

> <r_mmod_Electrostatic_Energy-OPLS-2005>
-368.021484375

> <r_mmod_Solvation_Energy-OPLS-2005>
-224.984008789062

> <b_mmod_Minimization_Converged-OPLS-2005>
0

> <r_mmod_RMS_Derivative-OPLS-2005>
7.91427850723267

$$$$
93
                    3D
 Structure written by MMmdl.
172180  0  0  1  0            999 V2000
  -30.6633  -14.6383   20.5065 C   0  0  0  0  0  0
  -30.4262  -12.3966   19.4531 C   0  0  0  0  0  0
  -29.5011  -12.4981   18.2227 C   0  0  0  0  0  0
  -28.0272  -12.3327   18.6417 C   0  0  0  0  0  0
  -27.6487  -13.2205   19.8583 C   0  0  2  0  0  0
  -28.6950  -13.1195   20.9903 C   0  0  0  0  0  0
  -25.2558  -13.8186   20.5694 C   0  0  0  0  0  0
  -24.1839  -13.0445   20.9198 C   0  0  0  0  0  0
  -24.6409  -11.6916   20.8738 C   0  0  0  0  0  0
  -23.9077  -10.4304   21.0404 C   0  0  0  0  0  0
  -24.3620   -9.4223   21.9188 C   0  0  0  0  0  0
  -23.6299   -8.2257   22.0764 C   0  0  0  0  0  0
  -22.4287   -8.0286   21.3552 C   0  0  0  0  0  0
  -21.9915   -9.0252   20.4648 C   0  0  0  0  0  0
  -22.7241  -10.2138   20.3053 C   0  0  0  0  0  0
  -21.6860   -6.0742   22.5284 C   0  0  0  0  0  0
  -21.4024   -6.5647   23.8206 C   0  0  0  0  0  0
  -21.3660   -5.6796   24.9169 C   0  0  0  0  0  0
  -21.6039   -4.3057   24.7214 C   0  0  0  0  0  0
  -21.8823   -3.8152   23.4342 C   0  0  0  0  0  0
  -21.9197   -4.6974   22.3394 C   0  0  0  0  0  0
  -22.7861  -13.5240   21.1852 C   0  0  0  0  0  0
  -22.1666   -4.2159   21.0976 F   0  0  0  0  0  0
  -21.5619   -3.4544   25.7730 F   0  0  0  0  0  0
  -30.0029  -13.4418   20.4066 N   0  0  0  0  0  0
  -26.2981  -12.9369   20.3310 N   0  0  0  0  0  0
  -25.9338  -11.6527   20.5769 N   0  0  0  0  0  0
  -22.0507  -12.8195   22.0382 N   0  0  0  0  0  0
  -25.4278  -15.1906   20.4129 N   0  0  0  0  0  0
  -31.8398  -14.7433   20.1530 O   0  0  0  0  0  0
  -21.6655   -6.8883   21.4241 O   0  0  0  0  0  0
  -22.3549  -14.5547   20.6715 O   0  0  0  0  0  0
  -24.6302  -31.8576   23.2036 C   0  0  0  0  0  0
  -25.9156  -32.4758   23.8368 C   0  0  1  0  0  0
  -27.2295  -27.3074   20.0999 C   0  0  0  0  0  0
  -25.5968  -33.8558   24.2288 N   0  0  0  0  0  0
  -23.4225  -30.4846   21.5459 C   0  0  2  0  0  0
  -24.8679  -28.9409   20.1090 C   0  0  0  0  0  0
  -22.7488  -29.4629   22.4931 C   0  0  0  0  0  0
  -18.0279  -28.1365   22.8435 C   0  0  0  0  0  0
  -24.1493  -36.7262   23.2644 C   0  0  0  0  0  0
  -25.9689  -30.7809   21.3828 C   0  0  0  0  0  0
  -26.0398  -29.4130   20.7133 C   0  0  0  0  0  0
  -27.2204  -28.6072   20.7011 C   0  0  0  0  0  0
  -26.0328  -26.9005   19.4627 C   0  0  0  0  0  0
  -24.8689  -27.6895   19.4775 C   0  0  0  0  0  0
  -23.6367  -29.8228   20.1606 C   0  0  0  0  0  0
  -25.4107  -36.3061   24.0349 C   0  0  1  0  0  0
  -20.5883  -28.3677   23.1254 C   0  0  2  0  0  0
  -20.6762  -26.9394   22.5387 C   0  0  0  0  0  0
  -19.5749  -26.6355   21.5179 C   0  0  0  0  0  0
  -18.1929  -26.7895   22.1586 C   0  0  0  0  0  0
  -19.1540  -28.8829   23.2832 C   0  0  0  0  0  0
  -18.9474  -30.1419   23.8867 C   0  0  0  0  0  0
  -17.6495  -30.6559   24.0526 C   0  0  0  0  0  0
  -25.9052  -34.9441   23.5103 C   0  0  0  0  0  0
  -16.5372  -29.9060   23.6339 C   0  0  0  0  0  0
  -16.7271  -28.6493   23.0325 C   0  0  0  0  0  0
  -26.4499  -31.6581   25.0761 C   0  0  0  0  0  0
  -25.3701  -31.3758   26.1470 C   0  0  0  0  0  0
  -27.0357  -30.3010   24.6240 C   0  0  0  0  0  0
  -27.6041  -32.4327   25.7527 C   0  0  0  0  0  0
  -27.5559  -37.1791   24.8464 C   0  0  0  0  0  0
  -21.4207  -29.3047   22.3673 N   0  0  0  0  0  0
  -26.4275  -37.3763   23.9401 N   0  0  0  0  0  0
  -24.6929  -31.0566   22.1010 N   0  0  0  0  0  0
  -23.4196  -28.8168   23.3025 O   0  0  0  0  0  0
  -28.3421  -26.4392   20.1567 O   0  0  0  0  0  0
  -26.5606  -34.8922   22.4669 O   0  0  0  0  0  0
  -23.5469  -32.1409   23.7361 O   0  0  0  0  0  0
  -28.7040  -18.8101   20.4479 C   0  0  0  0  0  0
  -30.9529  -19.5578   20.7798 C   0  0  0  0  0  0
  -30.0292  -18.4792   20.8095 C   0  0  0  0  0  0
  -28.3320  -20.1512   20.1092 C   0  0  0  0  0  0
  -30.6197  -20.8839   20.3474 C   0  0  0  0  0  0
  -29.2582  -21.2408   20.0939 C   0  0  0  0  0  0
  -26.8917  -20.4166   19.7145 C   0  0  0  0  0  0
  -33.5806  -19.7563   16.1846 C   0  0  0  0  0  0
  -31.3900  -20.5385   16.9148 C   0  0  0  0  0  0
  -31.7444  -21.8798   20.0600 C   0  0  0  0  0  0
  -30.5117  -17.0654   21.3175 C   0  0  0  0  0  0
  -33.1249  -21.3028   19.6411 C   0  0  0  0  0  0
  -33.1973  -20.1722   18.5748 C   0  0  0  0  0  0
  -28.1319  -24.9914   19.8605 C   0  0  0  0  0  0
  -29.1685  -23.8322   20.2514 C   0  0  0  0  0  0
  -29.9402  -15.7478   20.8676 N   0  0  0  0  0  0
  -32.8478  -20.5708   17.1846 N   0  3  0  0  0  0
  -28.7712  -22.5163   19.7015 O   0  0  0  0  0  0
  -31.4697  -12.5027   19.1500 H   0  0  0  0  0  0
  -30.3447  -11.4121   19.9176 H   0  0  0  0  0  0
  -29.7689  -11.7398   17.4853 H   0  0  0  0  0  0
  -29.6360  -13.4633   17.7327 H   0  0  0  0  0  0
  -27.8699  -11.2816   18.8872 H   0  0  0  0  0  0
  -27.3688  -12.5451   17.7989 H   0  0  0  0  0  0
  -27.6550  -14.2490   19.4964 H   0  0  0  0  0  0
  -28.7148  -12.1193   21.4238 H   0  0  0  0  0  0
  -28.4436  -13.7965   21.8091 H   0  0  0  0  0  0
  -25.2769   -9.5703   22.4754 H   0  0  0  0  0  0
  -24.0007   -7.4660   22.7494 H   0  0  0  0  0  0
  -21.0847   -8.8766   19.8952 H   0  0  0  0  0  0
  -22.3700  -10.9668   19.6153 H   0  0  0  0  0  0
  -21.2031   -7.6158   23.9708 H   0  0  0  0  0  0
  -21.1471   -6.0530   25.9061 H   0  0  0  0  0  0
  -22.0603   -2.7616   23.2837 H   0  0  0  0  0  0
  -22.4128  -11.9819   22.4685 H   0  0  0  0  0  0
  -21.1134  -13.1217   22.2638 H   0  0  0  0  0  0
  -24.6611  -15.8431   20.5349 H   0  0  0  0  0  0
  -26.2724  -15.6293   20.0679 H   0  0  0  0  0  0
  -26.7220  -32.5397   23.1099 H   0  0  0  0  0  0
  -25.0161  -33.9700   25.0464 H   0  0  0  0  0  0
  -22.7181  -31.3084   21.4032 H   0  0  0  0  0  0
  -23.3765  -35.9581   23.3301 H   0  0  0  0  0  0
  -24.3597  -36.8874   22.2059 H   0  0  0  0  0  0
  -23.7262  -37.6474   23.6660 H   0  0  0  0  0  0
  -26.1174  -31.5510   20.6247 H   0  0  0  0  0  0
  -26.8444  -30.8140   22.0220 H   0  0  0  0  0  0
  -28.1169  -28.9649   21.1861 H   0  0  0  0  0  0
  -25.9622  -25.9533   18.9501 H   0  0  0  0  0  0
  -23.9738  -27.3198   18.9979 H   0  0  0  0  0  0
  -23.7614  -30.6033   19.4093 H   0  0  0  0  0  0
  -22.7552  -29.2594   19.8487 H   0  0  0  0  0  0
  -25.1294  -36.1904   25.0852 H   0  0  0  0  0  0
  -20.9941  -28.3219   24.1388 H   0  0  0  0  0  0
  -20.5633  -26.2282   23.3581 H   0  0  0  0  0  0
  -21.6638  -26.7398   22.1204 H   0  0  0  0  0  0
  -19.6938  -25.6276   21.1197 H   0  0  0  0  0  0
  -19.6704  -27.3151   20.6698 H   0  0  0  0  0  0
  -17.4199  -26.6617   21.3988 H   0  0  0  0  0  0
  -18.0343  -26.0038   22.8988 H   0  0  0  0  0  0
  -19.7978  -30.7201   24.2231 H   0  0  0  0  0  0
  -17.5067  -31.6241   24.5128 H   0  0  0  0  0  0
  -15.5373  -30.2949   23.7693 H   0  0  0  0  0  0
  -15.8656  -28.0796   22.7064 H   0  0  0  0  0  0
  -24.5921  -30.7038   25.7812 H   0  0  0  0  0  0
  -24.8845  -32.2942   26.4786 H   0  0  0  0  0  0
  -25.8014  -30.9039   27.0312 H   0  0  0  0  0  0
  -26.2970  -29.6761   24.1212 H   0  0  0  0  0  0
  -27.3999  -29.7261   25.4761 H   0  0  0  0  0  0
  -27.8841  -30.4291   23.9518 H   0  0  0  0  0  0
  -27.2647  -33.3653   26.2036 H   0  0  0  0  0  0
  -28.3876  -32.6844   25.0370 H   0  0  0  0  0  0
  -28.0665  -31.8513   26.5506 H   0  0  0  0  0  0
  -28.2574  -38.0083   24.7492 H   0  0  0  0  0  0
  -28.1074  -36.2625   24.6309 H   0  0  0  0  0  0
  -27.2290  -37.1436   25.8873 H   0  0  0  0  0  0
  -20.9391  -29.8827   21.6927 H   0  0  0  0  0  0
  -26.0155  -38.2841   24.1406 H   0  0  0  0  0  0
  -27.9558  -18.0295   20.4542 H   0  0  0  0  0  0
  -31.9734  -19.3423   21.0599 H   0  0  0  0  0  0
  -26.2724  -19.5271   19.8322 H   0  0  0  0  0  0
  -26.8492  -20.7291   18.6705 H   0  0  0  0  0  0
  -26.4630  -21.2123   20.3237 H   0  0  0  0  0  0
  -33.3392  -20.0668   15.1680 H   0  0  0  0  0  0
  -33.3280  -18.6994   16.2795 H   0  0  0  0  0  0
  -34.6602  -19.8518   16.3049 H   0  0  0  0  0  0
  -31.1824  -20.8218   15.8830 H   0  0  0  0  0  0
  -30.8356  -21.2287   17.5437 H   0  0  0  0  0  0
  -30.9808  -19.5408   17.0792 H   0  0  0  0  0  0
  -31.8650  -22.5366   20.9241 H   0  0  0  0  0  0
  -31.4232  -22.5162   19.2382 H   0  0  0  0  0  0
  -30.3610  -17.0791   22.3983 H   0  0  0  0  0  0
  -31.5947  -17.0349   21.1958 H   0  0  0  0  0  0
  -33.5899  -20.9077   20.5438 H   0  0  0  0  0  0
  -33.7771  -22.1244   19.3431 H   0  0  0  0  0  0
  -32.6322  -19.2843   18.8537 H   0  0  0  0  0  0
  -34.2372  -19.8414   18.5779 H   0  0  0  0  0  0
  -27.1860  -24.6855   20.3079 H   0  0  0  0  0  0
  -27.9949  -24.9234   18.7811 H   0  0  0  0  0  0
  -29.2642  -23.7595   21.3362 H   0  0  0  0  0  0
  -30.1428  -24.1213   19.8649 H   0  0  0  0  0  0
  -28.9629  -15.5910   21.0617 H   0  0  0  0  0  0
  -33.1658  -21.5190   17.0472 H   0  0  0  0  0  0
  1 25  1  0  0  0
  1 30  2  0  0  0
  1 86  1  0  0  0
  2  3  1  0  0  0
  2 25  1  0  0  0
  2 89  1  0  0  0
  2 90  1  0  0  0
  3  4  1  0  0  0
  3 91  1  0  0  0
  3 92  1  0  0  0
  4  5  1  0  0  0
  4 93  1  0  0  0
  4 94  1  0  0  0
  5  6  1  0  0  0
  5 26  1  0  0  0
  5 95  1  0  0  0
  6 25  1  0  0  0
  6 96  1  0  0  0
  6 97  1  0  0  0
  7  8  2  0  0  0
  7 26  1  0  0  0
  7 29  1  0  0  0
  8  9  1  0  0  0
  8 22  1  0  0  0
  9 10  1  0  0  0
  9 27  2  0  0  0
 10 11  2  0  0  0
 10 15  1  0  0  0
 11 12  1  0  0  0
 11 98  1  0  0  0
 12 13  2  0  0  0
 12 99  1  0  0  0
 13 14  1  0  0  0
 13 31  1  0  0  0
 14 15  2  0  0  0
 14100  1  0  0  0
 15101  1  0  0  0
 16 17  2  0  0  0
 16 21  1  0  0  0
 16 31  1  0  0  0
 17 18  1  0  0  0
 17102  1  0  0  0
 18 19  2  0  0  0
 18103  1  0  0  0
 19 20  1  0  0  0
 19 24  1  0  0  0
 20 21  2  0  0  0
 20104  1  0  0  0
 21 23  1  0  0  0
 22 28  1  0  0  0
 22 32  2  0  0  0
 26 27  1  0  0  0
 28105  1  0  0  0
 28106  1  0  0  0
 29107  1  0  0  0
 29108  1  0  0  0
 33 34  1  0  0  0
 33 66  1  0  0  0
 33 70  2  0  0  0
 34 36  1  0  0  0
 34 59  1  0  0  0
 34109  1  0  0  0
 35 44  2  0  0  0
 35 45  1  0  0  0
 35 68  1  0  0  0
 36 56  1  0  0  0
 36110  1  0  0  0
 37 39  1  0  0  0
 37 47  1  0  0  0
 37 66  1  0  0  0
 37111  1  0  0  0
 38 43  2  0  0  0
 38 46  1  0  0  0
 38 47  1  0  0  0
 39 64  1  0  0  0
 39 67  2  0  0  0
 40 52  1  0  0  0
 40 53  2  0  0  0
 40 58  1  0  0  0
 41112  1  0  0  0
 41113  1  0  0  0
 41114  1  0  0  0
 41 48  1  0  0  0
 42 43  1  0  0  0
 42 66  1  0  0  0
 42115  1  0  0  0
 42116  1  0  0  0
 43 44  1  0  0  0
 44117  1  0  0  0
 45 46  2  0  0  0
 45118  1  0  0  0
 46119  1  0  0  0
 47120  1  0  0  0
 47121  1  0  0  0
 48 56  1  0  0  0
 48 65  1  0  0  0
 48122  1  0  0  0
 49 50  1  0  0  0
 49 53  1  0  0  0
 49 64  1  0  0  0
 49123  1  0  0  0
 50 51  1  0  0  0
 50124  1  0  0  0
 50125  1  0  0  0
 51 52  1  0  0  0
 51126  1  0  0  0
 51127  1  0  0  0
 52128  1  0  0  0
 52129  1  0  0  0
 53 54  1  0  0  0
 54 55  2  0  0  0
 54130  1  0  0  0
 55 57  1  0  0  0
 55131  1  0  0  0
 56 69  2  0  0  0
 57 58  2  0  0  0
 57132  1  0  0  0
 58133  1  0  0  0
 59 60  1  0  0  0
 59 61  1  0  0  0
 59 62  1  0  0  0
 60134  1  0  0  0
 60135  1  0  0  0
 60136  1  0  0  0
 61137  1  0  0  0
 61138  1  0  0  0
 61139  1  0  0  0
 62140  1  0  0  0
 62141  1  0  0  0
 62142  1  0  0  0
 63 65  1  0  0  0
 63143  1  0  0  0
 63144  1  0  0  0
 63145  1  0  0  0
 64146  1  0  0  0
 65147  1  0  0  0
 68 84  1  0  0  0
 71 73  2  0  0  0
 71 74  1  0  0  0
 71148  1  0  0  0
 72 73  1  0  0  0
 72 75  2  0  0  0
 72149  1  0  0  0
 73 81  1  0  0  0
 74 76  2  0  0  0
 74 77  1  0  0  0
 75 76  1  0  0  0
 75 80  1  0  0  0
 76 88  1  0  0  0
 77150  1  0  0  0
 77151  1  0  0  0
 77152  1  0  0  0
 78153  1  0  0  0
 78154  1  0  0  0
 78155  1  0  0  0
 78 87  1  0  0  0
 79 87  1  0  0  0
 79156  1  0  0  0
 79157  1  0  0  0
 79158  1  0  0  0
 80 82  1  0  0  0
 80159  1  0  0  0
 80160  1  0  0  0
 81 86  1  0  0  0
 81161  1  0  0  0
 81162  1  0  0  0
 82 83  1  0  0  0
 82163  1  0  0  0
 82164  1  0  0  0
 83 87  1  0  0  0
 83165  1  0  0  0
 83166  1  0  0  0
 84 85  1  0  0  0
 84167  1  0  0  0
 84168  1  0  0  0
 85 88  1  0  0  0
 85169  1  0  0  0
 85170  1  0  0  0
 86171  1  0  0  0
 87172  1  0  0  0
M  CHG  1  87   1
M  ISO  4   1 100  68 101  84 101  86 100
M  END
> <chiral flag>
0

> <version>
0

> <s_m_source_file>
/data/baiqing/PycharmProjects/Reinvent-master-3.2/result/LINK_invent/BTK/process_docking_weight1_custom_sum_contain_oxygen_bond_distance_aromatic_linkinvent_7_9_3/rearranged_h_0096.sdf

> <i_m_source_file_index>
94

> <r_mmod_Potential_Energy-OPLS-2005>
-56.731273651123

> <r_mmod_Stretch_Energy-OPLS-2005>
92.5693969726562

> <r_mmod_Bend_Energy-OPLS-2005>
184.141235351562

> <r_mmod_Torsional_Energy-OPLS-2005>
231.782577514648

> <r_mmod_Improper_Torsional_Energy-OPLS-2005>
4.58405160903931

> <r_mmod_Van_der_Waal_Energy-OPLS-2005>
149.895980834961

> <r_mmod_Electrostatic_Energy-OPLS-2005>
-344.549011230469

> <r_mmod_Solvation_Energy-OPLS-2005>
-428.537994384766

> <b_mmod_Minimization_Converged-OPLS-2005>
0

> <r_mmod_RMS_Derivative-OPLS-2005>
3.28632736206055

$$$$
94
                    3D
 Structure written by MMmdl.
157165  0  0  1  0            999 V2000
  -30.6112  -14.7301   20.4623 C   0  0  0  0  0  0
  -30.4333  -12.4461   19.4718 C   0  0  0  0  0  0
  -29.5103  -12.5080   18.2348 C   0  0  0  0  0  0
  -28.0360  -12.3323   18.6484 C   0  0  0  0  0  0
  -27.6436  -13.2287   19.8531 C   0  0  2  0  0  0
  -28.6877  -13.1537   20.9886 C   0  0  0  0  0  0
  -25.2517  -13.8192   20.5690 C   0  0  0  0  0  0
  -24.1806  -13.0441   20.9206 C   0  0  0  0  0  0
  -24.6393  -11.6917   20.8747 C   0  0  0  0  0  0
  -23.9068  -10.4295   21.0406 C   0  0  0  0  0  0
  -24.3621   -9.4209   21.9183 C   0  0  0  0  0  0
  -23.6298   -8.2244   22.0752 C   0  0  0  0  0  0
  -22.4281   -8.0282   21.3542 C   0  0  0  0  0  0
  -21.9916   -9.0255   20.4644 C   0  0  0  0  0  0
  -22.7242  -10.2136   20.3053 C   0  0  0  0  0  0
  -21.6855   -6.0739   22.5278 C   0  0  0  0  0  0
  -21.4016   -6.5641   23.8213 C   0  0  0  0  0  0
  -21.3659   -5.6793   24.9174 C   0  0  0  0  0  0
  -21.6044   -4.3056   24.7223 C   0  0  0  0  0  0
  -21.8820   -3.8150   23.4343 C   0  0  0  0  0  0
  -21.9195   -4.6967   22.3401 C   0  0  0  0  0  0
  -22.7829  -13.5224   21.1872 C   0  0  0  0  0  0
  -22.1661   -4.2152   21.0978 F   0  0  0  0  0  0
  -21.5631   -3.4537   25.7733 F   0  0  0  0  0  0
  -29.9904  -13.5033   20.4089 N   0  0  0  0  0  0
  -26.2943  -12.9390   20.3287 N   0  0  0  0  0  0
  -25.9323  -11.6536   20.5755 N   0  0  0  0  0  0
  -22.0473  -12.8211   22.0424 N   0  0  0  0  0  0
  -25.4215  -15.1916   20.4096 N   0  0  0  0  0  0
  -31.7957  -14.8376   20.1344 O   0  0  0  0  0  0
  -21.6641   -6.8881   21.4240 O   0  0  0  0  0  0
  -22.3510  -14.5529   20.6721 O   0  0  0  0  0  0
  -24.6303  -31.8553   23.1973 C   0  0  0  0  0  0
  -25.9130  -32.4752   23.8323 C   0  0  1  0  0  0
  -27.2221  -27.2657   20.1218 C   0  0  0  0  0  0
  -25.5928  -33.8555   24.2251 N   0  0  0  0  0  0
  -23.4259  -30.4773   21.5410 C   0  0  2  0  0  0
  -24.8710  -28.9220   20.1101 C   0  0  0  0  0  0
  -22.7495  -29.4601   22.4916 C   0  0  0  0  0  0
  -18.0288  -28.1385   22.8485 C   0  0  0  0  0  0
  -24.1489  -36.7284   23.2641 C   0  0  0  0  0  0
  -25.9705  -30.7694   21.3750 C   0  0  0  0  0  0
  -26.0412  -29.3916   20.7177 C   0  0  0  0  0  0
  -27.2152  -28.5750   20.7121 C   0  0  0  0  0  0
  -26.0227  -26.8560   19.4958 C   0  0  0  0  0  0
  -24.8667  -27.6625   19.4911 C   0  0  0  0  0  0
  -23.6425  -29.8092   20.1575 C   0  0  0  0  0  0
  -25.4116  -36.3069   24.0326 C   0  0  1  0  0  0
  -20.5892  -28.3693   23.1273 C   0  0  2  0  0  0
  -20.6776  -26.9414   22.5409 C   0  0  0  0  0  0
  -19.5752  -26.6382   21.5211 C   0  0  0  0  0  0
  -18.1932  -26.7926   22.1623 C   0  0  0  0  0  0
  -19.1542  -28.8856   23.2871 C   0  0  0  0  0  0
  -18.9465  -30.1456   23.8892 C   0  0  0  0  0  0
  -17.6465  -30.6587   24.0562 C   0  0  0  0  0  0
  -25.9056  -34.9439   23.5093 C   0  0  0  0  0  0
  -16.5356  -29.9087   23.6328 C   0  0  0  0  0  0
  -16.7275  -28.6502   23.0353 C   0  0  0  0  0  0
  -26.4501  -31.6577   25.0713 C   0  0  0  0  0  0
  -25.3724  -31.3730   26.1434 C   0  0  0  0  0  0
  -27.0350  -30.2994   24.6198 C   0  0  0  0  0  0
  -27.6049  -32.4324   25.7491 C   0  0  0  0  0  0
  -27.5579  -37.1798   24.8466 C   0  0  0  0  0  0
  -21.4202  -29.3042   22.3663 N   0  0  0  0  0  0
  -26.4290  -37.3768   23.9408 N   0  0  0  0  0  0
  -24.6949  -31.0524   22.0942 N   0  0  0  0  0  0
  -23.4199  -28.8147   23.3016 O   0  0  0  0  0  0
  -28.3548  -26.4230   20.1909 O   0  0  0  0  0  0
  -26.5634  -34.8917   22.4665 O   0  0  0  0  0  0
  -23.5455  -32.1376   23.7274 O   0  0  0  0  0  0
  -28.5372  -21.1145   20.7216 C   0  0  0  0  0  0
  -29.3518  -20.0412   20.3476 C   0  0  0  0  0  0
  -30.4677  -20.6965   19.7254 C   0  0  0  0  0  0
  -30.3066  -22.0714   19.8040 C   0  0  0  0  0  0
  -31.6483  -19.9956   19.0980 C   0  0  0  0  0  0
  -31.2526  -23.1524   19.3748 C   0  0  0  0  0  0
  -29.0688  -18.4729   20.5352 C   0  0  0  0  0  0
  -28.5440  -23.7718   20.7801 C   0  0  0  0  0  0
  -30.2194  -17.3307   20.4957 C   0  0  0  0  0  0
  -28.4082  -24.9918   19.7249 C   0  0  0  0  0  0
  -29.0831  -22.3819   20.3951 N   0  0  0  0  0  0
  -29.8351  -15.8589   20.6703 N   0  0  0  0  0  0
  -31.4745  -12.5712   19.1694 H   0  0  0  0  0  0
  -30.3764  -11.4670   19.9500 H   0  0  0  0  0  0
  -29.7916  -11.7379   17.5155 H   0  0  0  0  0  0
  -29.6386  -13.4647   17.7255 H   0  0  0  0  0  0
  -27.8920  -11.2834   18.9093 H   0  0  0  0  0  0
  -27.3784  -12.5267   17.8003 H   0  0  0  0  0  0
  -27.6414  -14.2520   19.4777 H   0  0  0  0  0  0
  -28.7193  -12.1534   21.4227 H   0  0  0  0  0  0
  -28.4251  -13.8317   21.8024 H   0  0  0  0  0  0
  -25.2765   -9.5688   22.4758 H   0  0  0  0  0  0
  -24.0012   -7.4632   22.7468 H   0  0  0  0  0  0
  -21.0850   -8.8773   19.8947 H   0  0  0  0  0  0
  -22.3700  -10.9676   19.6164 H   0  0  0  0  0  0
  -21.2005   -7.6149   23.9720 H   0  0  0  0  0  0
  -21.1481   -6.0519   25.9078 H   0  0  0  0  0  0
  -22.0600   -2.7612   23.2840 H   0  0  0  0  0  0
  -22.4090  -11.9874   22.4812 H   0  0  0  0  0  0
  -21.1088  -13.1231   22.2628 H   0  0  0  0  0  0
  -24.6531  -15.8450   20.5156 H   0  0  0  0  0  0
  -26.2645  -15.6285   20.0599 H   0  0  0  0  0  0
  -26.7195  -32.5401   23.1063 H   0  0  0  0  0  0
  -25.0063  -33.9693   25.0389 H   0  0  0  0  0  0
  -22.7218  -31.2991   21.3946 H   0  0  0  0  0  0
  -23.3751  -35.9616   23.3301 H   0  0  0  0  0  0
  -24.3579  -36.8910   22.2055 H   0  0  0  0  0  0
  -23.7243  -37.6484   23.6669 H   0  0  0  0  0  0
  -26.1089  -31.5296   20.6049 H   0  0  0  0  0  0
  -26.8485  -30.8182   22.0077 H   0  0  0  0  0  0
  -28.1131  -28.9321   21.1969 H   0  0  0  0  0  0
  -25.9299  -25.8947   19.0182 H   0  0  0  0  0  0
  -23.9675  -27.2959   19.0151 H   0  0  0  0  0  0
  -23.7674  -30.5843   19.4004 H   0  0  0  0  0  0
  -22.7605  -29.2427   19.8533 H   0  0  0  0  0  0
  -25.1298  -36.1916   25.0819 H   0  0  0  0  0  0
  -20.9983  -28.3270   24.1394 H   0  0  0  0  0  0
  -20.5672  -26.2306   23.3612 H   0  0  0  0  0  0
  -21.6644  -26.7436   22.1206 H   0  0  0  0  0  0
  -19.6917  -25.6291   21.1243 H   0  0  0  0  0  0
  -19.6689  -27.3189   20.6739 H   0  0  0  0  0  0
  -17.4202  -26.6669   21.4025 H   0  0  0  0  0  0
  -18.0335  -26.0068   22.9021 H   0  0  0  0  0  0
  -19.7942  -30.7270   24.2261 H   0  0  0  0  0  0
  -17.5021  -31.6267   24.5164 H   0  0  0  0  0  0
  -15.5356  -30.2991   23.7652 H   0  0  0  0  0  0
  -15.8673  -28.0819   22.7076 H   0  0  0  0  0  0
  -24.5901  -30.7075   25.7765 H   0  0  0  0  0  0
  -24.8914  -32.2900   26.4845 H   0  0  0  0  0  0
  -25.8042  -30.8919   27.0219 H   0  0  0  0  0  0
  -26.2933  -29.6735   24.1219 H   0  0  0  0  0  0
  -27.4028  -29.7261   25.4718 H   0  0  0  0  0  0
  -27.8811  -30.4267   23.9442 H   0  0  0  0  0  0
  -27.2647  -33.3628   26.2053 H   0  0  0  0  0  0
  -28.3868  -32.6880   25.0326 H   0  0  0  0  0  0
  -28.0708  -31.8460   26.5421 H   0  0  0  0  0  0
  -28.2595  -38.0096   24.7508 H   0  0  0  0  0  0
  -28.1075  -36.2625   24.6297 H   0  0  0  0  0  0
  -27.2297  -37.1452   25.8870 H   0  0  0  0  0  0
  -20.9388  -29.8767   21.6871 H   0  0  0  0  0  0
  -26.0168  -38.2842   24.1403 H   0  0  0  0  0  0
  -27.5825  -21.0865   21.2319 H   0  0  0  0  0  0
  -31.3089  -19.2701   18.3592 H   0  0  0  0  0  0
  -32.2325  -19.4756   19.8576 H   0  0  0  0  0  0
  -32.3107  -20.6890   18.5817 H   0  0  0  0  0  0
  -32.2846  -22.8035   19.3792 H   0  0  0  0  0  0
  -31.2179  -24.0104   20.0459 H   0  0  0  0  0  0
  -31.0220  -23.4931   18.3654 H   0  0  0  0  0  0
  -28.3287  -18.2150   19.7772 H   0  0  0  0  0  0
  -28.5423  -18.3747   21.4849 H   0  0  0  0  0  0
  -27.5707  -23.6274   21.2493 H   0  0  0  0  0  0
  -29.1886  -24.1239   21.5856 H   0  0  0  0  0  0
  -30.9662  -17.5649   21.2553 H   0  0  0  0  0  0
  -30.7390  -17.3969   19.5405 H   0  0  0  0  0  0
  -27.6178  -24.7484   19.0210 H   0  0  0  0  0  0
  -29.2968  -24.9747   19.0987 H   0  0  0  0  0  0
  -28.8712  -15.6774   20.9063 H   0  0  0  0  0  0
  1 25  1  0  0  0
  1 30  2  0  0  0
  1 82  1  0  0  0
  2  3  1  0  0  0
  2 25  1  0  0  0
  2 83  1  0  0  0
  2 84  1  0  0  0
  3  4  1  0  0  0
  3 85  1  0  0  0
  3 86  1  0  0  0
  4  5  1  0  0  0
  4 87  1  0  0  0
  4 88  1  0  0  0
  5  6  1  0  0  0
  5 26  1  0  0  0
  5 89  1  0  0  0
  6 25  1  0  0  0
  6 90  1  0  0  0
  6 91  1  0  0  0
  7  8  2  0  0  0
  7 26  1  0  0  0
  7 29  1  0  0  0
  8  9  1  0  0  0
  8 22  1  0  0  0
  9 10  1  0  0  0
  9 27  2  0  0  0
 10 11  2  0  0  0
 10 15  1  0  0  0
 11 12  1  0  0  0
 11 92  1  0  0  0
 12 13  2  0  0  0
 12 93  1  0  0  0
 13 14  1  0  0  0
 13 31  1  0  0  0
 14 15  2  0  0  0
 14 94  1  0  0  0
 15 95  1  0  0  0
 16 17  2  0  0  0
 16 21  1  0  0  0
 16 31  1  0  0  0
 17 18  1  0  0  0
 17 96  1  0  0  0
 18 19  2  0  0  0
 18 97  1  0  0  0
 19 20  1  0  0  0
 19 24  1  0  0  0
 20 21  2  0  0  0
 20 98  1  0  0  0
 21 23  1  0  0  0
 22 28  1  0  0  0
 22 32  2  0  0  0
 26 27  1  0  0  0
 28 99  1  0  0  0
 28100  1  0  0  0
 29101  1  0  0  0
 29102  1  0  0  0
 33 34  1  0  0  0
 33 66  1  0  0  0
 33 70  2  0  0  0
 34 36  1  0  0  0
 34 59  1  0  0  0
 34103  1  0  0  0
 35 44  2  0  0  0
 35 45  1  0  0  0
 35 68  1  0  0  0
 36 56  1  0  0  0
 36104  1  0  0  0
 37 39  1  0  0  0
 37 47  1  0  0  0
 37 66  1  0  0  0
 37105  1  0  0  0
 38 43  2  0  0  0
 38 46  1  0  0  0
 38 47  1  0  0  0
 39 64  1  0  0  0
 39 67  2  0  0  0
 40 52  1  0  0  0
 40 53  2  0  0  0
 40 58  1  0  0  0
 41106  1  0  0  0
 41107  1  0  0  0
 41108  1  0  0  0
 41 48  1  0  0  0
 42 43  1  0  0  0
 42 66  1  0  0  0
 42109  1  0  0  0
 42110  1  0  0  0
 43 44  1  0  0  0
 44111  1  0  0  0
 45 46  2  0  0  0
 45112  1  0  0  0
 46113  1  0  0  0
 47114  1  0  0  0
 47115  1  0  0  0
 48 56  1  0  0  0
 48 65  1  0  0  0
 48116  1  0  0  0
 49 50  1  0  0  0
 49 53  1  0  0  0
 49 64  1  0  0  0
 49117  1  0  0  0
 50 51  1  0  0  0
 50118  1  0  0  0
 50119  1  0  0  0
 51 52  1  0  0  0
 51120  1  0  0  0
 51121  1  0  0  0
 52122  1  0  0  0
 52123  1  0  0  0
 53 54  1  0  0  0
 54 55  2  0  0  0
 54124  1  0  0  0
 55 57  1  0  0  0
 55125  1  0  0  0
 56 69  2  0  0  0
 57 58  2  0  0  0
 57126  1  0  0  0
 58127  1  0  0  0
 59 60  1  0  0  0
 59 61  1  0  0  0
 59 62  1  0  0  0
 60128  1  0  0  0
 60129  1  0  0  0
 60130  1  0  0  0
 61131  1  0  0  0
 61132  1  0  0  0
 61133  1  0  0  0
 62134  1  0  0  0
 62135  1  0  0  0
 62136  1  0  0  0
 63 65  1  0  0  0
 63137  1  0  0  0
 63138  1  0  0  0
 63139  1  0  0  0
 64140  1  0  0  0
 65141  1  0  0  0
 68 80  1  0  0  0
 71 72  2  0  0  0
 71 81  1  0  0  0
 71142  1  0  0  0
 72 73  1  0  0  0
 72 77  1  0  0  0
 73 74  2  0  0  0
 73 75  1  0  0  0
 74 76  1  0  0  0
 74 81  1  0  0  0
 75143  1  0  0  0
 75144  1  0  0  0
 75145  1  0  0  0
 76146  1  0  0  0
 76147  1  0  0  0
 76148  1  0  0  0
 77 79  1  0  0  0
 77149  1  0  0  0
 77150  1  0  0  0
 78 80  1  0  0  0
 78 81  1  0  0  0
 78151  1  0  0  0
 78152  1  0  0  0
 79 82  1  0  0  0
 79153  1  0  0  0
 79154  1  0  0  0
 80155  1  0  0  0
 80156  1  0  0  0
 82157  1  0  0  0
M  ISO  4   1 100  68 101  80 101  82 100
M  END
> <chiral flag>
0

> <version>
0

> <s_m_source_file>
/data/baiqing/PycharmProjects/Reinvent-master-3.2/result/LINK_invent/BTK/process_docking_weight1_custom_sum_contain_oxygen_bond_distance_aromatic_linkinvent_7_9_3/rearranged_h_0096.sdf

> <i_m_source_file_index>
95

> <r_mmod_Potential_Energy-OPLS-2005>
88.7981491088867

> <r_mmod_Stretch_Energy-OPLS-2005>
119.155494689941

> <r_mmod_Bend_Energy-OPLS-2005>
180.300445556641

> <r_mmod_Torsional_Energy-OPLS-2005>
207.77326965332

> <r_mmod_Improper_Torsional_Energy-OPLS-2005>
5.89163446426392

> <r_mmod_Van_der_Waal_Energy-OPLS-2005>
117.041526794434

> <r_mmod_Electrostatic_Energy-OPLS-2005>
-400.261352539062

> <r_mmod_Solvation_Energy-OPLS-2005>
-218.53434753418

> <b_mmod_Minimization_Converged-OPLS-2005>
0

> <r_mmod_RMS_Derivative-OPLS-2005>
0.556785702705383

$$$$
95
                    3D
 Structure written by MMmdl.
174182  0  0  1  0            999 V2000
  -30.8054  -14.3174   20.7216 C   0  0  0  0  0  0
  -30.4094  -12.2868   19.3828 C   0  0  0  0  0  0
  -29.4762  -12.5353   18.1859 C   0  0  0  0  0  0
  -28.0041  -12.3839   18.6076 C   0  0  0  0  0  0
  -27.6655  -13.2049   19.8786 C   0  0  2  0  0  0
  -28.7032  -12.9508   20.9941 C   0  0  0  0  0  0
  -25.2597  -13.8158   20.5660 C   0  0  0  0  0  0
  -24.1842  -13.0443   20.9163 C   0  0  0  0  0  0
  -24.6392  -11.6912   20.8726 C   0  0  0  0  0  0
  -23.9056  -10.4298   21.0399 C   0  0  0  0  0  0
  -24.3609   -9.4220   21.9179 C   0  0  0  0  0  0
  -23.6287   -8.2254   22.0752 C   0  0  0  0  0  0
  -22.4271   -8.0283   21.3542 C   0  0  0  0  0  0
  -21.9905   -9.0257   20.4644 C   0  0  0  0  0  0
  -22.7228  -10.2138   20.3051 C   0  0  0  0  0  0
  -21.6852   -6.0732   22.5280 C   0  0  0  0  0  0
  -21.4013   -6.5636   23.8214 C   0  0  0  0  0  0
  -21.3663   -5.6789   24.9175 C   0  0  0  0  0  0
  -21.6047   -4.3053   24.7225 C   0  0  0  0  0  0
  -21.8819   -3.8145   23.4347 C   0  0  0  0  0  0
  -21.9194   -4.6960   22.3402 C   0  0  0  0  0  0
  -22.7868  -13.5249   21.1835 C   0  0  0  0  0  0
  -22.1662   -4.2144   21.0978 F   0  0  0  0  0  0
  -21.5635   -3.4538   25.7739 F   0  0  0  0  0  0
  -30.0515  -13.2213   20.4590 N   0  0  0  0  0  0
  -26.3042  -12.9331   20.3379 N   0  0  0  0  0  0
  -25.9320  -11.6489   20.5755 N   0  0  0  0  0  0
  -22.0509  -12.8238   22.0391 N   0  0  0  0  0  0
  -25.4326  -15.1861   20.4042 N   0  0  0  0  0  0
  -31.7762  -14.6574   20.0390 O   0  0  0  0  0  0
  -21.6639   -6.8877   21.4240 O   0  0  0  0  0  0
  -22.3556  -14.5558   20.6693 O   0  0  0  0  0  0
  -24.6111  -31.8699   23.2130 C   0  0  0  0  0  0
  -25.9018  -32.4833   23.8420 C   0  0  1  0  0  0
  -27.2383  -27.4709   20.0901 C   0  0  0  0  0  0
  -25.5889  -33.8631   24.2350 N   0  0  0  0  0  0
  -23.3982  -30.4926   21.5525 C   0  0  2  0  0  0
  -24.8459  -28.9618   20.1167 C   0  0  0  0  0  0
  -22.7394  -29.4661   22.5009 C   0  0  0  0  0  0
  -18.0264  -28.1375   22.8495 C   0  0  0  0  0  0
  -24.1484  -36.7327   23.2645 C   0  0  0  0  0  0
  -25.9223  -30.8473   21.3600 C   0  0  0  0  0  0
  -26.0028  -29.4832   20.7099 C   0  0  0  0  0  0
  -27.2041  -28.7444   20.6948 C   0  0  0  0  0  0
  -26.0694  -26.9539   19.4929 C   0  0  0  0  0  0
  -24.8720  -27.6943   19.5071 C   0  0  0  0  0  0
  -23.6049  -29.8231   20.1674 C   0  0  0  0  0  0
  -25.4107  -36.3118   24.0339 C   0  0  1  0  0  0
  -20.5852  -28.3660   23.1329 C   0  0  2  0  0  0
  -20.6753  -26.9397   22.5424 C   0  0  0  0  0  0
  -19.5735  -26.6384   21.5216 C   0  0  0  0  0  0
  -18.1911  -26.7926   22.1622 C   0  0  0  0  0  0
  -19.1513  -28.8835   23.2908 C   0  0  0  0  0  0
  -18.9442  -30.1443   23.8915 C   0  0  0  0  0  0
  -17.6444  -30.6585   24.0569 C   0  0  0  0  0  0
  -25.9029  -34.9478   23.5140 C   0  0  0  0  0  0
  -16.5334  -29.9088   23.6324 C   0  0  0  0  0  0
  -16.7254  -28.6503   23.0349 C   0  0  0  0  0  0
  -26.4469  -31.6601   25.0732 C   0  0  0  0  0  0
  -25.3750  -31.3672   26.1487 C   0  0  0  0  0  0
  -27.0311  -30.3057   24.6081 C   0  0  0  0  0  0
  -27.6053  -32.4318   25.7483 C   0  0  0  0  0  0
  -27.5570  -37.1829   24.8477 C   0  0  0  0  0  0
  -21.4126  -29.3029   22.3741 N   0  0  0  0  0  0
  -26.4305  -37.3790   23.9388 N   0  0  0  0  0  0
  -24.6620  -31.0829   22.1014 N   0  0  0  0  0  0
  -23.4178  -28.8200   23.3038 O   0  0  0  0  0  0
  -28.4017  -26.7438   20.0834 O   0  0  0  0  0  0
  -26.5592  -34.8919   22.4703 O   0  0  0  0  0  0
  -23.5311  -32.1431   23.7546 O   0  0  0  0  0  0
  -28.9760  -18.3407   21.1413 C   0  0  0  0  0  0
  -27.9660  -18.9910   21.8048 C   0  0  0  0  0  0
  -28.4299  -18.9930   23.1646 C   0  0  0  0  0  0
  -27.8074  -19.5417   24.4199 C   0  0  0  0  0  0
  -25.2130  -21.7145   21.1501 C   0  0  0  0  0  0
  -25.4872  -18.8021   21.8506 C   0  0  0  0  0  0
  -26.6095  -19.2500   19.6899 C   0  0  0  0  0  0
  -31.2241  -17.3555   21.8242 C   0  0  0  0  0  0
  -31.3316  -15.9735   22.5017 C   0  0  0  0  0  0
  -28.2632  -24.3152   20.3703 C   0  0  0  0  0  0
  -27.7120  -21.9104   20.7525 C   0  0  0  0  0  0
  -28.4252  -25.6893   21.0479 C   0  0  0  0  0  0
  -26.5966  -21.1009   21.4675 C   0  0  2  0  0  0
  -26.6751  -19.5539   21.2077 C   0  0  0  0  0  0
  -29.6172  -18.4202   23.2931 N   0  0  0  0  0  0
  -29.9479  -18.0084   22.0546 N   0  0  0  0  0  0
  -30.5096  -14.9426   21.8661 N   0  0  0  0  0  0
  -27.8753  -23.2603   21.3385 N   0  3  0  0  0  0
  -31.4519  -12.3845   19.0744 H   0  0  0  0  0  0
  -30.3036  -11.2615   19.7404 H   0  0  0  0  0  0
  -29.7070  -11.8406   17.3773 H   0  0  0  0  0  0
  -29.6445  -13.5376   17.7873 H   0  0  0  0  0  0
  -27.8151  -11.3249   18.7870 H   0  0  0  0  0  0
  -27.3465  -12.6745   17.7873 H   0  0  0  0  0  0
  -27.7233  -14.2594   19.6060 H   0  0  0  0  0  0
  -28.6560  -11.9128   21.3267 H   0  0  0  0  0  0
  -28.4500  -13.5499   21.8691 H   0  0  0  0  0  0
  -25.2756   -9.5702   22.4752 H   0  0  0  0  0  0
  -23.9996   -7.4652   22.7476 H   0  0  0  0  0  0
  -21.0836   -8.8778   19.8950 H   0  0  0  0  0  0
  -22.3686  -10.9678   19.6157 H   0  0  0  0  0  0
  -21.2002   -7.6144   23.9713 H   0  0  0  0  0  0
  -21.1486   -6.0519   25.9078 H   0  0  0  0  0  0
  -22.0594   -2.7609   23.2847 H   0  0  0  0  0  0
  -22.4116  -11.9892   22.4772 H   0  0  0  0  0  0
  -21.1126  -13.1265   22.2592 H   0  0  0  0  0  0
  -24.6711  -15.8453   20.5181 H   0  0  0  0  0  0
  -26.2983  -15.6236   20.1162 H   0  0  0  0  0  0
  -26.7092  -32.5565   23.1193 H   0  0  0  0  0  0
  -25.0051  -33.9800   25.0505 H   0  0  0  0  0  0
  -22.6850  -31.3081   21.4144 H   0  0  0  0  0  0
  -23.3734  -35.9672   23.3331 H   0  0  0  0  0  0
  -24.3566  -36.8929   22.2055 H   0  0  0  0  0  0
  -23.7254  -37.6542   23.6656 H   0  0  0  0  0  0
  -26.0268  -31.6138   20.5910 H   0  0  0  0  0  0
  -26.8129  -30.9046   21.9737 H   0  0  0  0  0  0
  -28.0999  -29.1440   21.1502 H   0  0  0  0  0  0
  -26.0802  -25.9896   19.0079 H   0  0  0  0  0  0
  -23.9830  -27.2892   19.0435 H   0  0  0  0  0  0
  -23.7066  -30.5967   19.4052 H   0  0  0  0  0  0
  -22.7313  -29.2376   19.8762 H   0  0  0  0  0  0
  -25.1284  -36.1999   25.0834 H   0  0  0  0  0  0
  -20.9945  -28.3226   24.1451 H   0  0  0  0  0  0
  -20.5668  -26.2260   23.3607 H   0  0  0  0  0  0
  -21.6622  -26.7451   22.1212 H   0  0  0  0  0  0
  -19.6897  -25.6304   21.1229 H   0  0  0  0  0  0
  -19.6674  -27.3204   20.6755 H   0  0  0  0  0  0
  -17.4188  -26.6691   21.4013 H   0  0  0  0  0  0
  -18.0294  -26.0059   22.9006 H   0  0  0  0  0  0
  -19.7919  -30.7251   24.2291 H   0  0  0  0  0  0
  -17.5004  -31.6267   24.5175 H   0  0  0  0  0  0
  -15.5336  -30.2999   23.7638 H   0  0  0  0  0  0
  -15.8652  -28.0830   22.7054 H   0  0  0  0  0  0
  -24.5921  -30.7029   25.7814 H   0  0  0  0  0  0
  -24.8943  -32.2812   26.4982 H   0  0  0  0  0  0
  -25.8121  -30.8807   27.0217 H   0  0  0  0  0  0
  -26.2842  -29.6791   24.1195 H   0  0  0  0  0  0
  -27.4165  -29.7317   25.4518 H   0  0  0  0  0  0
  -27.8636  -30.4399   23.9170 H   0  0  0  0  0  0
  -27.2694  -33.3629   26.2056 H   0  0  0  0  0  0
  -28.3856  -32.6856   25.0298 H   0  0  0  0  0  0
  -28.0724  -31.8444   26.5397 H   0  0  0  0  0  0
  -28.2637  -38.0075   24.7455 H   0  0  0  0  0  0
  -28.1013  -36.2603   24.6404 H   0  0  0  0  0  0
  -27.2268  -37.1607   25.8876 H   0  0  0  0  0  0
  -20.9284  -29.8758   21.6972 H   0  0  0  0  0  0
  -26.0202  -38.2879   24.1348 H   0  0  0  0  0  0
  -29.0901  -18.0923   20.0954 H   0  0  0  0  0  0
  -26.7846  -19.8788   24.2801 H   0  0  0  0  0  0
  -28.3774  -20.3908   24.7969 H   0  0  0  0  0  0
  -27.7865  -18.7872   25.2066 H   0  0  0  0  0  0
  -25.1860  -22.7827   21.3654 H   0  0  0  0  0  0
  -24.4211  -21.2682   21.7508 H   0  0  0  0  0  0
  -24.9434  -21.5950   20.1008 H   0  0  0  0  0  0
  -25.6197  -17.7227   21.7715 H   0  0  0  0  0  0
  -24.5427  -19.0342   21.3578 H   0  0  0  0  0  0
  -25.3580  -19.0324   22.9053 H   0  0  0  0  0  0
  -26.6279  -18.1759   19.5001 H   0  0  0  0  0  0
  -27.4418  -19.6853   19.1371 H   0  0  0  0  0  0
  -25.6915  -19.6253   19.2378 H   0  0  0  0  0  0
  -31.4009  -17.2856   20.7503 H   0  0  0  0  0  0
  -32.0049  -18.0100   22.2138 H   0  0  0  0  0  0
  -31.0558  -16.0459   23.5543 H   0  0  0  0  0  0
  -32.3738  -15.6491   22.4912 H   0  0  0  0  0  0
  -29.1900  -24.0426   19.8641 H   0  0  0  0  0  0
  -27.4929  -24.3705   19.6031 H   0  0  0  0  0  0
  -27.4737  -21.9897   19.6903 H   0  0  0  0  0  0
  -28.6757  -21.4038   20.8100 H   0  0  0  0  0  0
  -29.3755  -25.7283   21.5812 H   0  0  0  0  0  0
  -27.6518  -25.8362   21.8060 H   0  0  0  0  0  0
  -26.7397  -21.2490   22.5360 H   0  0  0  0  0  0
  -29.7233  -14.5866   22.3900 H   0  0  0  0  0  0
  -26.9942  -23.5198   21.7548 H   0  0  0  0  0  0
  -28.5554  -23.2062   22.0823 H   0  0  0  0  0  0
  1 25  1  0  0  0
  1 30  2  0  0  0
  1 87  1  0  0  0
  2  3  1  0  0  0
  2 25  1  0  0  0
  2 89  1  0  0  0
  2 90  1  0  0  0
  3  4  1  0  0  0
  3 91  1  0  0  0
  3 92  1  0  0  0
  4  5  1  0  0  0
  4 93  1  0  0  0
  4 94  1  0  0  0
  5  6  1  0  0  0
  5 26  1  0  0  0
  5 95  1  0  0  0
  6 25  1  0  0  0
  6 96  1  0  0  0
  6 97  1  0  0  0
  7  8  2  0  0  0
  7 26  1  0  0  0
  7 29  1  0  0  0
  8  9  1  0  0  0
  8 22  1  0  0  0
  9 10  1  0  0  0
  9 27  2  0  0  0
 10 11  2  0  0  0
 10 15  1  0  0  0
 11 12  1  0  0  0
 11 98  1  0  0  0
 12 13  2  0  0  0
 12 99  1  0  0  0
 13 14  1  0  0  0
 13 31  1  0  0  0
 14 15  2  0  0  0
 14100  1  0  0  0
 15101  1  0  0  0
 16 17  2  0  0  0
 16 21  1  0  0  0
 16 31  1  0  0  0
 17 18  1  0  0  0
 17102  1  0  0  0
 18 19  2  0  0  0
 18103  1  0  0  0
 19 20  1  0  0  0
 19 24  1  0  0  0
 20 21  2  0  0  0
 20104  1  0  0  0
 21 23  1  0  0  0
 22 28  1  0  0  0
 22 32  2  0  0  0
 26 27  1  0  0  0
 28105  1  0  0  0
 28106  1  0  0  0
 29107  1  0  0  0
 29108  1  0  0  0
 33 34  1  0  0  0
 33 66  1  0  0  0
 33 70  2  0  0  0
 34 36  1  0  0  0
 34 59  1  0  0  0
 34109  1  0  0  0
 35 44  2  0  0  0
 35 45  1  0  0  0
 35 68  1  0  0  0
 36 56  1  0  0  0
 36110  1  0  0  0
 37 39  1  0  0  0
 37 47  1  0  0  0
 37 66  1  0  0  0
 37111  1  0  0  0
 38 43  2  0  0  0
 38 46  1  0  0  0
 38 47  1  0  0  0
 39 64  1  0  0  0
 39 67  2  0  0  0
 40 52  1  0  0  0
 40 53  2  0  0  0
 40 58  1  0  0  0
 41112  1  0  0  0
 41113  1  0  0  0
 41114  1  0  0  0
 41 48  1  0  0  0
 42 43  1  0  0  0
 42 66  1  0  0  0
 42115  1  0  0  0
 42116  1  0  0  0
 43 44  1  0  0  0
 44117  1  0  0  0
 45 46  2  0  0  0
 45118  1  0  0  0
 46119  1  0  0  0
 47120  1  0  0  0
 47121  1  0  0  0
 48 56  1  0  0  0
 48 65  1  0  0  0
 48122  1  0  0  0
 49 50  1  0  0  0
 49 53  1  0  0  0
 49 64  1  0  0  0
 49123  1  0  0  0
 50 51  1  0  0  0
 50124  1  0  0  0
 50125  1  0  0  0
 51 52  1  0  0  0
 51126  1  0  0  0
 51127  1  0  0  0
 52128  1  0  0  0
 52129  1  0  0  0
 53 54  1  0  0  0
 54 55  2  0  0  0
 54130  1  0  0  0
 55 57  1  0  0  0
 55131  1  0  0  0
 56 69  2  0  0  0
 57 58  2  0  0  0
 57132  1  0  0  0
 58133  1  0  0  0
 59 60  1  0  0  0
 59 61  1  0  0  0
 59 62  1  0  0  0
 60134  1  0  0  0
 60135  1  0  0  0
 60136  1  0  0  0
 61137  1  0  0  0
 61138  1  0  0  0
 61139  1  0  0  0
 62140  1  0  0  0
 62141  1  0  0  0
 62142  1  0  0  0
 63 65  1  0  0  0
 63143  1  0  0  0
 63144  1  0  0  0
 63145  1  0  0  0
 64146  1  0  0  0
 65147  1  0  0  0
 68 82  1  0  0  0
 71 72  2  0  0  0
 71 86  1  0  0  0
 71148  1  0  0  0
 72 73  1  0  0  0
 72 84  1  0  0  0
 73 74  1  0  0  0
 73 85  2  0  0  0
 74149  1  0  0  0
 74150  1  0  0  0
 74151  1  0  0  0
 75152  1  0  0  0
 75153  1  0  0  0
 75154  1  0  0  0
 75 83  1  0  0  0
 76155  1  0  0  0
 76156  1  0  0  0
 76157  1  0  0  0
 76 84  1  0  0  0
 77 84  1  0  0  0
 77158  1  0  0  0
 77159  1  0  0  0
 77160  1  0  0  0
 78 79  1  0  0  0
 78 86  1  0  0  0
 78161  1  0  0  0
 78162  1  0  0  0
 79 87  1  0  0  0
 79163  1  0  0  0
 79164  1  0  0  0
 80 82  1  0  0  0
 80 88  1  0  0  0
 80165  1  0  0  0
 80166  1  0  0  0
 81 83  1  0  0  0
 81 88  1  0  0  0
 81167  1  0  0  0
 81168  1  0  0  0
 82169  1  0  0  0
 82170  1  0  0  0
 83 84  1  0  0  0
 83171  1  0  0  0
 85 86  1  0  0  0
 87172  1  0  0  0
 88173  1  0  0  0
 88174  1  0  0  0
M  CHG  1  88   1
M  ISO  4   1 100  68 101  82 101  87 100
M  END
> <chiral flag>
0

> <version>
0

> <s_m_source_file>
/data/baiqing/PycharmProjects/Reinvent-master-3.2/result/LINK_invent/BTK/process_docking_weight1_custom_sum_contain_oxygen_bond_distance_aromatic_linkinvent_7_9_3/rearranged_h_0096.sdf

> <i_m_source_file_index>
96

> <r_mmod_Potential_Energy-OPLS-2005>
-237.38525390625

> <r_mmod_Stretch_Energy-OPLS-2005>
35.145393371582

> <r_mmod_Bend_Energy-OPLS-2005>
93.8687057495117

> <r_mmod_Torsional_Energy-OPLS-2005>
256.457183837891

> <r_mmod_Improper_Torsional_Energy-OPLS-2005>
2.84072184562683

> <r_mmod_Van_der_Waal_Energy-OPLS-2005>
127.740158081055

> <r_mmod_Electrostatic_Energy-OPLS-2005>
-320.72265625

> <r_mmod_Solvation_Energy-OPLS-2005>
-439.817687988281

> <b_mmod_Minimization_Converged-OPLS-2005>
0

> <r_mmod_RMS_Derivative-OPLS-2005>
0.756292819976807

$$$$
96
                    3D
 Structure written by MMmdl.
190198  0  0  1  0            999 V2000
  -30.7112  -14.4354   20.5799 C   0  0  0  0  0  0
  -30.4185  -12.2893   19.4105 C   0  0  0  0  0  0
  -29.4904  -12.5120   18.1999 C   0  0  0  0  0  0
  -28.0113  -12.3659   18.6114 C   0  0  0  0  0  0
  -27.6590  -13.1973   19.8724 C   0  0  2  0  0  0
  -28.7000  -12.9635   20.9887 C   0  0  0  0  0  0
  -25.2608  -13.8150   20.5667 C   0  0  0  0  0  0
  -24.1826  -13.0432   20.9143 C   0  0  0  0  0  0
  -24.6375  -11.6901   20.8723 C   0  0  0  0  0  0
  -23.9027  -10.4296   21.0405 C   0  0  0  0  0  0
  -24.3592   -9.4217   21.9172 C   0  0  0  0  0  0
  -23.6276   -8.2249   22.0752 C   0  0  0  0  0  0
  -22.4269   -8.0279   21.3525 C   0  0  0  0  0  0
  -21.9884   -9.0248   20.4626 C   0  0  0  0  0  0
  -22.7208  -10.2132   20.3038 C   0  0  0  0  0  0
  -21.6845   -6.0726   22.5269 C   0  0  0  0  0  0
  -21.4020   -6.5637   23.8203 C   0  0  0  0  0  0
  -21.3660   -5.6786   24.9158 C   0  0  0  0  0  0
  -21.6052   -4.3049   24.7206 C   0  0  0  0  0  0
  -21.8823   -3.8138   23.4334 C   0  0  0  0  0  0
  -21.9197   -4.6958   22.3390 C   0  0  0  0  0  0
  -22.7867  -13.5261   21.1808 C   0  0  0  0  0  0
  -22.1661   -4.2147   21.0963 F   0  0  0  0  0  0
  -21.5632   -3.4532   25.7719 F   0  0  0  0  0  0
  -30.0330  -13.2641   20.4412 N   0  0  0  0  0  0
  -26.3009  -12.9281   20.3336 N   0  0  0  0  0  0
  -25.9293  -11.6460   20.5749 N   0  0  0  0  0  0
  -22.0490  -12.8251   22.0363 N   0  0  0  0  0  0
  -25.4377  -15.1850   20.4125 N   0  0  0  0  0  0
  -31.8527  -14.6013   20.1392 O   0  0  0  0  0  0
  -21.6635   -6.8874   21.4226 O   0  0  0  0  0  0
  -22.3571  -14.5565   20.6661 O   0  0  0  0  0  0
  -24.6102  -31.8728   23.2118 C   0  0  0  0  0  0
  -25.9002  -32.4859   23.8416 C   0  0  1  0  0  0
  -27.2280  -27.4710   20.0837 C   0  0  0  0  0  0
  -25.5855  -33.8662   24.2363 N   0  0  0  0  0  0
  -23.3971  -30.5014   21.5529 C   0  0  2  0  0  0
  -24.8381  -28.9737   20.1126 C   0  0  0  0  0  0
  -22.7380  -29.4734   22.5003 C   0  0  0  0  0  0
  -18.0277  -28.1410   22.8520 C   0  0  0  0  0  0
  -24.1474  -36.7351   23.2635 C   0  0  0  0  0  0
  -25.9229  -30.8476   21.3632 C   0  0  0  0  0  0
  -25.9949  -29.4826   20.7153 C   0  0  0  0  0  0
  -27.1866  -28.7307   20.7135 C   0  0  0  0  0  0
  -26.0481  -26.9704   19.4775 C   0  0  0  0  0  0
  -24.8553  -27.7126   19.4960 C   0  0  0  0  0  0
  -23.6016  -29.8397   20.1649 C   0  0  0  0  0  0
  -25.4067  -36.3136   24.0361 C   0  0  1  0  0  0
  -20.5865  -28.3698   23.1336 C   0  0  2  0  0  0
  -20.6787  -26.9458   22.5412 C   0  0  0  0  0  0
  -19.5764  -26.6422   21.5229 C   0  0  0  0  0  0
  -18.1936  -26.7972   22.1623 C   0  0  0  0  0  0
  -19.1524  -28.8855   23.2953 C   0  0  0  0  0  0
  -18.9456  -30.1469   23.8968 C   0  0  0  0  0  0
  -17.6454  -30.6627   24.0593 C   0  0  0  0  0  0
  -25.8997  -34.9510   23.5160 C   0  0  0  0  0  0
  -16.5349  -29.9136   23.6340 C   0  0  0  0  0  0
  -16.7267  -28.6546   23.0375 C   0  0  0  0  0  0
  -26.4447  -31.6601   25.0707 C   0  0  0  0  0  0
  -25.3723  -31.3697   26.1467 C   0  0  0  0  0  0
  -27.0281  -30.3054   24.6044 C   0  0  0  0  0  0
  -27.6064  -32.4270   25.7441 C   0  0  0  0  0  0
  -27.5596  -37.1793   24.8460 C   0  0  0  0  0  0
  -21.4117  -29.3069   22.3731 N   0  0  0  0  0  0
  -26.4277  -37.3800   23.9436 N   0  0  0  0  0  0
  -24.6626  -31.0852   22.1019 N   0  0  0  0  0  0
  -23.4169  -28.8319   23.3057 O   0  0  0  0  0  0
  -28.4299  -26.7993   20.0878 O   0  0  0  0  0  0
  -26.5553  -34.8949   22.4724 O   0  0  0  0  0  0
  -23.5295  -32.1493   23.7518 O   0  0  0  0  0  0
  -30.3676  -18.4472   22.8085 C   0  0  0  0  0  0
  -28.2613  -17.7383   22.9500 C   0  0  0  0  0  0
  -29.5318  -17.3010   22.7055 C   0  0  0  0  0  0
  -29.6015  -19.5418   23.1089 C   0  0  0  0  0  0
  -31.1456  -17.1817   18.0821 C   0  0  0  0  0  0
  -31.3152  -21.3096   22.5538 C   0  0  0  0  0  0
  -30.1780  -21.3023   24.8064 C   0  0  0  0  0  0
  -25.1434  -19.3976   20.9086 C   0  0  0  0  0  0
  -28.9880  -20.9910   19.5564 C   0  0  0  0  0  0
  -29.9615  -15.8826   22.3904 C   0  0  0  0  0  0
  -30.6226  -17.4490   19.4999 C   0  0  0  0  0  0
  -26.5549  -20.7988   22.4953 C   0  0  0  0  0  0
  -27.9889  -24.3997   20.0091 C   0  0  0  0  0  0
  -27.0998  -19.8609   23.5978 C   0  0  0  0  0  0
  -29.5191  -16.4634   19.9498 C   0  0  0  0  0  0
  -27.9295  -23.1695   19.0937 C   0  0  0  0  0  0
  -26.5562  -21.2968   19.9751 C   0  0  0  0  0  0
  -28.5643  -25.6309   19.2920 C   0  0  0  0  0  0
  -30.0248  -20.9698   23.3176 C   0  0  0  0  0  0
  -26.4433  -20.2010   21.0687 C   0  0  2  0  0  0
  -28.2872  -19.0955   23.2274 N   0  0  0  0  0  0
  -29.9606  -15.4901   20.9686 N   0  0  0  0  0  0
  -27.8996  -21.9305   19.9086 N   0  3  1  0  0  0
  -31.4614  -12.3901   19.1031 H   0  0  0  0  0  0
  -30.3152  -11.2734   19.7958 H   0  0  0  0  0  0
  -29.7305  -11.8072   17.4026 H   0  0  0  0  0  0
  -29.6604  -13.5085   17.7891 H   0  0  0  0  0  0
  -27.8207  -11.3081   18.8010 H   0  0  0  0  0  0
  -27.3629  -12.6445   17.7798 H   0  0  0  0  0  0
  -27.6995  -14.2447   19.5836 H   0  0  0  0  0  0
  -28.6690  -11.9286   21.3329 H   0  0  0  0  0  0
  -28.4533  -13.5634   21.8613 H   0  0  0  0  0  0
  -25.2740   -9.5708   22.4736 H   0  0  0  0  0  0
  -23.9985   -7.4657   22.7501 H   0  0  0  0  0  0
  -21.0805   -8.8768   19.8939 H   0  0  0  0  0  0
  -22.3662  -10.9671   19.6149 H   0  0  0  0  0  0
  -21.2012   -7.6149   23.9697 H   0  0  0  0  0  0
  -21.1478   -6.0516   25.9064 H   0  0  0  0  0  0
  -22.0601   -2.7598   23.2823 H   0  0  0  0  0  0
  -22.4109  -11.9895   22.4721 H   0  0  0  0  0  0
  -21.1109  -13.1298   22.2574 H   0  0  0  0  0  0
  -24.6770  -15.8454   20.5273 H   0  0  0  0  0  0
  -26.3068  -15.6223   20.1337 H   0  0  0  0  0  0
  -26.7106  -32.5589   23.1213 H   0  0  0  0  0  0
  -24.9961  -33.9828   25.0496 H   0  0  0  0  0  0
  -22.6837  -31.3167   21.4176 H   0  0  0  0  0  0
  -23.3742  -35.9673   23.3221 H   0  0  0  0  0  0
  -24.3634  -36.9027   22.2076 H   0  0  0  0  0  0
  -23.7193  -37.6514   23.6700 H   0  0  0  0  0  0
  -26.0165  -31.6090   20.5878 H   0  0  0  0  0  0
  -26.8204  -30.9089   21.9695 H   0  0  0  0  0  0
  -28.0792  -29.1174   21.1856 H   0  0  0  0  0  0
  -26.0184  -26.0116   18.9823 H   0  0  0  0  0  0
  -23.9680  -27.3096   19.0251 H   0  0  0  0  0  0
  -23.7118  -30.6193   19.4088 H   0  0  0  0  0  0
  -22.7273  -29.2563   19.8712 H   0  0  0  0  0  0
  -25.1239  -36.1997   25.0851 H   0  0  0  0  0  0
  -20.9980  -28.3283   24.1453 H   0  0  0  0  0  0
  -20.5748  -26.2329   23.3597 H   0  0  0  0  0  0
  -21.6659  -26.7582   22.1184 H   0  0  0  0  0  0
  -19.6959  -25.6338   21.1269 H   0  0  0  0  0  0
  -19.6698  -27.3233   20.6760 H   0  0  0  0  0  0
  -17.4223  -26.6758   21.4011 H   0  0  0  0  0  0
  -18.0315  -26.0129   22.9018 H   0  0  0  0  0  0
  -19.7933  -30.7273   24.2398 H   0  0  0  0  0  0
  -17.5015  -31.6328   24.5162 H   0  0  0  0  0  0
  -15.5360  -30.3059   23.7621 H   0  0  0  0  0  0
  -15.8677  -28.0878   22.7063 H   0  0  0  0  0  0
  -24.5882  -30.7058   25.7793 H   0  0  0  0  0  0
  -24.8920  -32.2848   26.4930 H   0  0  0  0  0  0
  -25.8060  -30.8840   27.0211 H   0  0  0  0  0  0
  -26.2840  -29.6766   24.1125 H   0  0  0  0  0  0
  -27.4130  -29.7294   25.4458 H   0  0  0  0  0  0
  -27.8629  -30.4408   23.9162 H   0  0  0  0  0  0
  -27.2780  -33.3605   26.2029 H   0  0  0  0  0  0
  -28.3860  -32.6730   25.0217 H   0  0  0  0  0  0
  -28.0751  -31.8349   26.5317 H   0  0  0  0  0  0
  -28.2542  -38.0157   24.7587 H   0  0  0  0  0  0
  -28.1157  -36.2690   24.6169 H   0  0  0  0  0  0
  -27.2371  -37.1324   25.8875 H   0  0  0  0  0  0
  -20.9246  -29.8754   21.6958 H   0  0  0  0  0  0
  -26.0177  -38.2876   24.1428 H   0  0  0  0  0  0
  -31.4407  -18.4667   22.6762 H   0  0  0  0  0  0
  -27.3263  -17.1904   22.9608 H   0  0  0  0  0  0
  -31.7945  -17.9943   17.7533 H   0  0  0  0  0  0
  -30.3295  -17.1037   17.3627 H   0  0  0  0  0  0
  -31.7256  -16.2601   18.0367 H   0  0  0  0  0  0
  -31.2275  -21.0586   21.4975 H   0  0  0  0  0  0
  -32.1716  -20.7610   22.9439 H   0  0  0  0  0  0
  -31.5473  -22.3724   22.6205 H   0  0  0  0  0  0
  -29.2497  -21.1392   25.3513 H   0  0  0  0  0  0
  -30.4609  -22.3453   24.9534 H   0  0  0  0  0  0
  -30.9406  -20.6782   25.2704 H   0  0  0  0  0  0
  -25.0773  -18.6016   21.6504 H   0  0  0  0  0  0
  -25.0918  -18.9301   19.9238 H   0  0  0  0  0  0
  -24.2638  -20.0315   21.0183 H   0  0  0  0  0  0
  -29.9269  -21.5154   19.3754 H   0  0  0  0  0  0
  -28.7373  -20.4057   18.6723 H   0  0  0  0  0  0
  -29.1834  -20.3070   20.3792 H   0  0  0  0  0  0
  -29.3111  -15.2126   22.9515 H   0  0  0  0  0  0
  -30.9579  -15.7363   22.8101 H   0  0  0  0  0  0
  -30.2129  -18.4548   19.5183 H   0  0  0  0  0  0
  -31.4536  -17.4644   20.2072 H   0  0  0  0  0  0
  -27.1791  -21.6872   22.4720 H   0  0  0  0  0  0
  -25.5810  -21.1754   22.8096 H   0  0  0  0  0  0
  -28.6174  -24.2032   20.8774 H   0  0  0  0  0  0
  -26.9881  -24.5917   20.3990 H   0  0  0  0  0  0
  -26.3230  -19.1549   23.8972 H   0  0  0  0  0  0
  -27.3196  -20.4317   24.4972 H   0  0  0  0  0  0
  -29.1363  -15.9255   19.0811 H   0  0  0  0  0  0
  -28.6519  -17.0155   20.3135 H   0  0  0  0  0  0
  -28.7899  -23.1729   18.4244 H   0  0  0  0  0  0
  -27.0630  -23.2351   18.4322 H   0  0  0  0  0  0
  -25.8144  -22.0722   20.1741 H   0  0  0  0  0  0
  -26.3169  -20.8860   18.9925 H   0  0  0  0  0  0
  -28.1367  -25.7740   18.2991 H   0  0  0  0  0  0
  -29.6313  -25.4789   19.1321 H   0  0  0  0  0  0
  -29.2612  -21.6302   22.9149 H   0  0  0  0  0  0
  -27.2404  -19.4776   20.9094 H   0  0  0  0  0  0
  -28.1020  -22.2457   20.8441 H   0  0  0  0  0  0
  1 25  1  0  0  0
  1 30  2  0  0  0
  1 92  1  0  0  0
  2  3  1  0  0  0
  2 25  1  0  0  0
  2 94  1  0  0  0
  2 95  1  0  0  0
  3  4  1  0  0  0
  3 96  1  0  0  0
  3 97  1  0  0  0
  4  5  1  0  0  0
  4 98  1  0  0  0
  4 99  1  0  0  0
  5  6  1  0  0  0
  5 26  1  0  0  0
  5100  1  0  0  0
  6 25  1  0  0  0
  6101  1  0  0  0
  6102  1  0  0  0
  7  8  2  0  0  0
  7 26  1  0  0  0
  7 29  1  0  0  0
  8  9  1  0  0  0
  8 22  1  0  0  0
  9 10  1  0  0  0
  9 27  2  0  0  0
 10 11  2  0  0  0
 10 15  1  0  0  0
 11 12  1  0  0  0
 11103  1  0  0  0
 12 13  2  0  0  0
 12104  1  0  0  0
 13 14  1  0  0  0
 13 31  1  0  0  0
 14 15  2  0  0  0
 14105  1  0  0  0
 15106  1  0  0  0
 16 17  2  0  0  0
 16 21  1  0  0  0
 16 31  1  0  0  0
 17 18  1  0  0  0
 17107  1  0  0  0
 18 19  2  0  0  0
 18108  1  0  0  0
 19 20  1  0  0  0
 19 24  1  0  0  0
 20 21  2  0  0  0
 20109  1  0  0  0
 21 23  1  0  0  0
 22 28  1  0  0  0
 22 32  2  0  0  0
 26 27  1  0  0  0
 28110  1  0  0  0
 28111  1  0  0  0
 29112  1  0  0  0
 29113  1  0  0  0
 33 34  1  0  0  0
 33 66  1  0  0  0
 33 70  2  0  0  0
 34 36  1  0  0  0
 34 59  1  0  0  0
 34114  1  0  0  0
 35 44  2  0  0  0
 35 45  1  0  0  0
 35 68  1  0  0  0
 36 56  1  0  0  0
 36115  1  0  0  0
 37 39  1  0  0  0
 37 47  1  0  0  0
 37 66  1  0  0  0
 37116  1  0  0  0
 38 43  2  0  0  0
 38 46  1  0  0  0
 38 47  1  0  0  0
 39 64  1  0  0  0
 39 67  2  0  0  0
 40 52  1  0  0  0
 40 53  2  0  0  0
 40 58  1  0  0  0
 41117  1  0  0  0
 41118  1  0  0  0
 41119  1  0  0  0
 41 48  1  0  0  0
 42 43  1  0  0  0
 42 66  1  0  0  0
 42120  1  0  0  0
 42121  1  0  0  0
 43 44  1  0  0  0
 44122  1  0  0  0
 45 46  2  0  0  0
 45123  1  0  0  0
 46124  1  0  0  0
 47125  1  0  0  0
 47126  1  0  0  0
 48 56  1  0  0  0
 48 65  1  0  0  0
 48127  1  0  0  0
 49 50  1  0  0  0
 49 53  1  0  0  0
 49 64  1  0  0  0
 49128  1  0  0  0
 50 51  1  0  0  0
 50129  1  0  0  0
 50130  1  0  0  0
 51 52  1  0  0  0
 51131  1  0  0  0
 51132  1  0  0  0
 52133  1  0  0  0
 52134  1  0  0  0
 53 54  1  0  0  0
 54 55  2  0  0  0
 54135  1  0  0  0
 55 57  1  0  0  0
 55136  1  0  0  0
 56 69  2  0  0  0
 57 58  2  0  0  0
 57137  1  0  0  0
 58138  1  0  0  0
 59 60  1  0  0  0
 59 61  1  0  0  0
 59 62  1  0  0  0
 60139  1  0  0  0
 60140  1  0  0  0
 60141  1  0  0  0
 61142  1  0  0  0
 61143  1  0  0  0
 61144  1  0  0  0
 62145  1  0  0  0
 62146  1  0  0  0
 62147  1  0  0  0
 63 65  1  0  0  0
 63148  1  0  0  0
 63149  1  0  0  0
 63150  1  0  0  0
 64151  1  0  0  0
 65152  1  0  0  0
 68 88  1  0  0  0
 71 73  1  0  0  0
 71 74  2  0  0  0
 71153  1  0  0  0
 72 73  2  0  0  0
 72 91  1  0  0  0
 72154  1  0  0  0
 73 80  1  0  0  0
 74 89  1  0  0  0
 74 91  1  0  0  0
 75 81  1  0  0  0
 75155  1  0  0  0
 75156  1  0  0  0
 75157  1  0  0  0
 76158  1  0  0  0
 76159  1  0  0  0
 76160  1  0  0  0
 76 89  1  0  0  0
 77 89  1  0  0  0
 77161  1  0  0  0
 77162  1  0  0  0
 77163  1  0  0  0
 78164  1  0  0  0
 78165  1  0  0  0
 78166  1  0  0  0
 78 90  1  0  0  0
 79167  1  0  0  0
 79168  1  0  0  0
 79169  1  0  0  0
 79 93  1  0  0  0
 80 92  1  0  0  0
 80170  1  0  0  0
 80171  1  0  0  0
 81 85  1  0  0  0
 81172  1  0  0  0
 81173  1  0  0  0
 82 84  1  0  0  0
 82 90  1  0  0  0
 82174  1  0  0  0
 82175  1  0  0  0
 83 86  1  0  0  0
 83 88  1  0  0  0
 83176  1  0  0  0
 83177  1  0  0  0
 84 91  1  0  0  0
 84178  1  0  0  0
 84179  1  0  0  0
 85 92  1  0  0  0
 85180  1  0  0  0
 85181  1  0  0  0
 86 93  1  0  0  0
 86182  1  0  0  0
 86183  1  0  0  0
 87 90  1  0  0  0
 87 93  1  0  0  0
 87184  1  0  0  0
 87185  1  0  0  0
 88186  1  0  0  0
 88187  1  0  0  0
 89188  1  0  0  0
 90189  1  0  0  0
 93190  1  0  0  0
M  CHG  1  93   1
M  ISO  4   1 100  68 101  88 101  92 100
M  END
> <chiral flag>
0

> <version>
0

> <s_m_source_file>
/data/baiqing/PycharmProjects/Reinvent-master-3.2/result/LINK_invent/BTK/process_docking_weight1_custom_sum_contain_oxygen_bond_distance_aromatic_linkinvent_7_9_3/rearranged_h_0096.sdf

> <i_m_source_file_index>
97

> <r_mmod_Potential_Energy-OPLS-2005>
11.9480772018433

> <r_mmod_Stretch_Energy-OPLS-2005>
34.9855537414551

> <r_mmod_Bend_Energy-OPLS-2005>
114.109535217285

> <r_mmod_Torsional_Energy-OPLS-2005>
350.245300292969

> <r_mmod_Improper_Torsional_Energy-OPLS-2005>
7.45182132720947

> <r_mmod_Van_der_Waal_Energy-OPLS-2005>
118.128601074219

> <r_mmod_Electrostatic_Energy-OPLS-2005>
-212.546417236328

> <r_mmod_Solvation_Energy-OPLS-2005>
-412.160369873047

> <b_mmod_Minimization_Converged-OPLS-2005>
0

> <r_mmod_RMS_Derivative-OPLS-2005>
3.90107989311218

$$$$
97
                    3D
 Structure written by MMmdl.
163171  0  0  1  0            999 V2000
  -30.5010  -15.0505   20.4110 C   0  0  0  0  0  0
  -30.4480  -12.6641   19.4941 C   0  0  0  0  0  0
  -29.5271  -12.5368   18.2582 C   0  0  0  0  0  0
  -28.0644  -12.3023   18.6837 C   0  0  0  0  0  0
  -27.6244  -13.2526   19.8275 C   0  0  2  0  0  0
  -28.6688  -13.3265   20.9603 C   0  0  0  0  0  0
  -25.2454  -13.8213   20.5711 C   0  0  0  0  0  0
  -24.1780  -13.0431   20.9237 C   0  0  0  0  0  0
  -24.6407  -11.6918   20.8757 C   0  0  0  0  0  0
  -23.9091  -10.4290   21.0405 C   0  0  0  0  0  0
  -24.3637   -9.4205   21.9183 C   0  0  0  0  0  0
  -23.6310   -8.2243   22.0748 C   0  0  0  0  0  0
  -22.4289   -8.0282   21.3541 C   0  0  0  0  0  0
  -21.9927   -9.0258   20.4641 C   0  0  0  0  0  0
  -22.7261  -10.2137   20.3056 C   0  0  0  0  0  0
  -21.6856   -6.0741   22.5279 C   0  0  0  0  0  0
  -21.4013   -6.5638   23.8217 C   0  0  0  0  0  0
  -21.3659   -5.6782   24.9171 C   0  0  0  0  0  0
  -21.6047   -4.3050   24.7214 C   0  0  0  0  0  0
  -21.8821   -3.8150   23.4332 C   0  0  0  0  0  0
  -21.9193   -4.6968   22.3393 C   0  0  0  0  0  0
  -22.7800  -13.5207   21.1880 C   0  0  0  0  0  0
  -22.1664   -4.2150   21.0972 F   0  0  0  0  0  0
  -21.5626   -3.4534   25.7725 F   0  0  0  0  0  0
  -29.9239  -13.7755   20.3438 N   0  0  0  0  0  0
  -26.2873  -12.9453   20.3210 N   0  0  0  0  0  0
  -25.9339  -11.6581   20.5724 N   0  0  0  0  0  0
  -22.0449  -12.8201   22.0436 N   0  0  0  0  0  0
  -25.4103  -15.1944   20.4122 N   0  0  0  0  0  0
  -31.7218  -15.1039   20.2249 O   0  0  0  0  0  0
  -21.6639   -6.8891   21.4248 O   0  0  0  0  0  0
  -22.3486  -14.5510   20.6716 O   0  0  0  0  0  0
  -24.6495  -31.8386   23.1837 C   0  0  0  0  0  0
  -25.9237  -32.4667   23.8249 C   0  0  1  0  0  0
  -27.2201  -27.0717   20.1728 C   0  0  0  0  0  0
  -25.5958  -33.8476   24.2158 N   0  0  0  0  0  0
  -23.4577  -30.4544   21.5312 C   0  0  2  0  0  0
  -24.9098  -28.8640   20.1220 C   0  0  0  0  0  0
  -22.7601  -29.4518   22.4855 C   0  0  0  0  0  0
  -18.0310  -28.1400   22.8475 C   0  0  0  0  0  0
  -24.1491  -36.7243   23.2643 C   0  0  0  0  0  0
  -26.0188  -30.6904   21.3936 C   0  0  0  0  0  0
  -26.0911  -29.2917   20.7437 C   0  0  0  0  0  0
  -27.2508  -28.4147   20.7484 C   0  0  0  0  0  0
  -26.0121  -26.7575   19.5179 C   0  0  0  0  0  0
  -24.8856  -27.6102   19.4929 C   0  0  0  0  0  0
  -23.6900  -29.7760   20.1552 C   0  0  0  0  0  0
  -25.4128  -36.3016   24.0310 C   0  0  1  0  0  0
  -20.5927  -28.3731   23.1228 C   0  0  2  0  0  0
  -20.6795  -26.9429   22.5409 C   0  0  0  0  0  0
  -19.5767  -26.6379   21.5219 C   0  0  0  0  0  0
  -18.1948  -26.7938   22.1624 C   0  0  0  0  0  0
  -19.1568  -28.8886   23.2840 C   0  0  0  0  0  0
  -18.9479  -30.1482   23.8865 C   0  0  0  0  0  0
  -17.6476  -30.6596   24.0557 C   0  0  0  0  0  0
  -25.9082  -34.9394   23.5050 C   0  0  0  0  0  0
  -16.5367  -29.9087   23.6340 C   0  0  0  0  0  0
  -16.7293  -28.6505   23.0361 C   0  0  0  0  0  0
  -26.4530  -31.6558   25.0716 C   0  0  0  0  0  0
  -25.3691  -31.3777   26.1397 C   0  0  0  0  0  0
  -27.0400  -30.2939   24.6348 C   0  0  0  0  0  0
  -27.6050  -32.4336   25.7504 C   0  0  0  0  0  0
  -27.5578  -37.1774   24.8462 C   0  0  0  0  0  0
  -21.4289  -29.3045   22.3594 N   0  0  0  0  0  0
  -26.4284  -37.3737   23.9409 N   0  0  0  0  0  0
  -24.7289  -31.0177   22.0905 N   0  0  0  0  0  0
  -23.4213  -28.8077   23.3039 O   0  0  0  0  0  0
  -28.2416  -26.0341   20.1211 O   0  0  0  0  0  0
  -26.5680  -34.8904   22.4635 O   0  0  0  0  0  0
  -23.5597  -32.1288   23.7017 O   0  0  0  0  0  0
  -28.0889  -20.8491   21.5863 C   0  0  0  0  0  0
  -27.7681  -22.1798   21.8043 C   0  0  0  0  0  0
  -28.3961  -23.0660   20.8370 C   0  0  0  0  0  0
  -29.1010  -22.0710   20.0656 C   0  0  0  0  0  0
  -29.9694  -22.3228   18.8780 C   0  0  0  0  0  0
  -27.0806  -21.7965   24.2252 C   0  0  0  0  0  0
  -25.3793  -22.5360   22.4921 C   0  0  0  0  0  0
  -29.1645  -25.1985   22.1525 C   0  0  0  0  0  0
  -29.3239  -19.1973   19.9493 C   0  0  0  0  0  0
  -29.9168  -17.8183   20.7971 C   0  0  0  0  0  0
  -26.8447  -22.6050   22.9388 C   0  0  0  0  0  0
  -28.1986  -24.7657   21.0389 C   0  0  1  0  0  0
  -28.9322  -20.6661   20.5158 N   0  0  0  0  0  0
  -29.6986  -16.2466   20.4864 N   0  0  0  0  0  0
  -31.4720  -12.8545   19.1701 H   0  0  0  0  0  0
  -30.4827  -11.7297   20.0563 H   0  0  0  0  0  0
  -29.8687  -11.7244   17.6159 H   0  0  0  0  0  0
  -29.5917  -13.4469   17.6596 H   0  0  0  0  0  0
  -27.9819  -11.2675   19.0174 H   0  0  0  0  0  0
  -27.3981  -12.3990   17.8264 H   0  0  0  0  0  0
  -27.5719  -14.2428   19.3748 H   0  0  0  0  0  0
  -28.7890  -12.3613   21.4546 H   0  0  0  0  0  0
  -28.3527  -14.0342   21.7288 H   0  0  0  0  0  0
  -25.2783   -9.5681   22.4758 H   0  0  0  0  0  0
  -24.0015   -7.4634   22.7472 H   0  0  0  0  0  0
  -21.0854   -8.8783   19.8952 H   0  0  0  0  0  0
  -22.3718  -10.9677   19.6167 H   0  0  0  0  0  0
  -21.2012   -7.6147   23.9725 H   0  0  0  0  0  0
  -21.1480   -6.0506   25.9074 H   0  0  0  0  0  0
  -22.0605   -2.7616   23.2824 H   0  0  0  0  0  0
  -22.4067  -11.9866   22.4830 H   0  0  0  0  0  0
  -21.1075  -13.1240   22.2650 H   0  0  0  0  0  0
  -24.6390  -15.8433   20.5227 H   0  0  0  0  0  0
  -26.2456  -15.6348   20.0503 H   0  0  0  0  0  0
  -26.7303  -32.5257   23.0973 H   0  0  0  0  0  0
  -25.0059  -33.9577   25.0273 H   0  0  0  0  0  0
  -22.7638  -31.2822   21.3701 H   0  0  0  0  0  0
  -23.3764  -35.9563   23.3284 H   0  0  0  0  0  0
  -24.3575  -36.8901   22.2063 H   0  0  0  0  0  0
  -23.7235  -37.6425   23.6701 H   0  0  0  0  0  0
  -26.1810  -31.4375   20.6153 H   0  0  0  0  0  0
  -26.8866  -30.7471   22.0393 H   0  0  0  0  0  0
  -28.1557  -28.7453   21.2388 H   0  0  0  0  0  0
  -25.9271  -25.7943   19.0345 H   0  0  0  0  0  0
  -23.9859  -27.2758   18.9948 H   0  0  0  0  0  0
  -23.8354  -30.5462   19.3970 H   0  0  0  0  0  0
  -22.8031  -29.2221   19.8424 H   0  0  0  0  0  0
  -25.1320  -36.1834   25.0801 H   0  0  0  0  0  0
  -21.0014  -28.3325   24.1352 H   0  0  0  0  0  0
  -20.5690  -26.2346   23.3634 H   0  0  0  0  0  0
  -21.6660  -26.7431   22.1207 H   0  0  0  0  0  0
  -19.6929  -25.6281   21.1272 H   0  0  0  0  0  0
  -19.6707  -27.3170   20.6736 H   0  0  0  0  0  0
  -17.4221  -26.6686   21.4025 H   0  0  0  0  0  0
  -18.0339  -26.0088   22.9026 H   0  0  0  0  0  0
  -19.7956  -30.7307   24.2219 H   0  0  0  0  0  0
  -17.5029  -31.6274   24.5164 H   0  0  0  0  0  0
  -15.5367  -30.2976   23.7686 H   0  0  0  0  0  0
  -15.8694  -28.0817   22.7094 H   0  0  0  0  0  0
  -24.5867  -30.7132   25.7712 H   0  0  0  0  0  0
  -24.8878  -32.2971   26.4743 H   0  0  0  0  0  0
  -25.7944  -30.8994   27.0228 H   0  0  0  0  0  0
  -26.3035  -29.6653   24.1330 H   0  0  0  0  0  0
  -27.3954  -29.7255   25.4953 H   0  0  0  0  0  0
  -27.8970  -30.4151   23.9720 H   0  0  0  0  0  0
  -27.2634  -33.3657   26.2018 H   0  0  0  0  0  0
  -28.3888  -32.6869   25.0352 H   0  0  0  0  0  0
  -28.0689  -31.8505   26.5468 H   0  0  0  0  0  0
  -28.2580  -38.0085   24.7522 H   0  0  0  0  0  0
  -28.1087  -36.2615   24.6272 H   0  0  0  0  0  0
  -27.2300  -37.1403   25.8864 H   0  0  0  0  0  0
  -20.9521  -29.8733   21.6737 H   0  0  0  0  0  0
  -26.0147  -38.2801   24.1420 H   0  0  0  0  0  0
  -27.7474  -19.9720   22.1200 H   0  0  0  0  0  0
  -29.9593  -23.3779   18.6021 H   0  0  0  0  0  0
  -29.6286  -21.7482   18.0165 H   0  0  0  0  0  0
  -31.0029  -22.0426   19.0847 H   0  0  0  0  0  0
  -28.1228  -21.8592   24.5408 H   0  0  0  0  0  0
  -26.8303  -20.7429   24.1018 H   0  0  0  0  0  0
  -26.4695  -22.1794   25.0429 H   0  0  0  0  0  0
  -25.2053  -23.1690   21.6213 H   0  0  0  0  0  0
  -24.7102  -22.8743   23.2835 H   0  0  0  0  0  0
  -25.0936  -21.5181   22.2249 H   0  0  0  0  0  0
  -29.0866  -24.5647   23.0341 H   0  0  0  0  0  0
  -28.9738  -26.2231   22.4717 H   0  0  0  0  0  0
  -30.1964  -25.1454   21.8052 H   0  0  0  0  0  0
  -28.4133  -18.8542   19.4585 H   0  0  0  0  0  0
  -30.0105  -19.3670   19.1202 H   0  0  0  0  0  0
  -29.5291  -17.9275   21.8096 H   0  0  0  0  0  0
  -30.9917  -17.9588   20.9131 H   0  0  0  0  0  0
  -27.0541  -23.6367   23.2098 H   0  0  0  0  0  0
  -27.1875  -24.8419   21.4352 H   0  0  0  0  0  0
  -28.7188  -16.0074   20.4814 H   0  0  0  0  0  0
  1 25  1  0  0  0
  1 30  2  0  0  0
  1 84  1  0  0  0
  2  3  1  0  0  0
  2 25  1  0  0  0
  2 85  1  0  0  0
  2 86  1  0  0  0
  3  4  1  0  0  0
  3 87  1  0  0  0
  3 88  1  0  0  0
  4  5  1  0  0  0
  4 89  1  0  0  0
  4 90  1  0  0  0
  5  6  1  0  0  0
  5 26  1  0  0  0
  5 91  1  0  0  0
  6 25  1  0  0  0
  6 92  1  0  0  0
  6 93  1  0  0  0
  7  8  2  0  0  0
  7 26  1  0  0  0
  7 29  1  0  0  0
  8  9  1  0  0  0
  8 22  1  0  0  0
  9 10  1  0  0  0
  9 27  2  0  0  0
 10 11  2  0  0  0
 10 15  1  0  0  0
 11 12  1  0  0  0
 11 94  1  0  0  0
 12 13  2  0  0  0
 12 95  1  0  0  0
 13 14  1  0  0  0
 13 31  1  0  0  0
 14 15  2  0  0  0
 14 96  1  0  0  0
 15 97  1  0  0  0
 16 17  2  0  0  0
 16 21  1  0  0  0
 16 31  1  0  0  0
 17 18  1  0  0  0
 17 98  1  0  0  0
 18 19  2  0  0  0
 18 99  1  0  0  0
 19 20  1  0  0  0
 19 24  1  0  0  0
 20 21  2  0  0  0
 20100  1  0  0  0
 21 23  1  0  0  0
 22 28  1  0  0  0
 22 32  2  0  0  0
 26 27  1  0  0  0
 28101  1  0  0  0
 28102  1  0  0  0
 29103  1  0  0  0
 29104  1  0  0  0
 33 34  1  0  0  0
 33 66  1  0  0  0
 33 70  2  0  0  0
 34 36  1  0  0  0
 34 59  1  0  0  0
 34105  1  0  0  0
 35 44  2  0  0  0
 35 45  1  0  0  0
 35 68  1  0  0  0
 36 56  1  0  0  0
 36106  1  0  0  0
 37 39  1  0  0  0
 37 47  1  0  0  0
 37 66  1  0  0  0
 37107  1  0  0  0
 38 43  2  0  0  0
 38 46  1  0  0  0
 38 47  1  0  0  0
 39 64  1  0  0  0
 39 67  2  0  0  0
 40 52  1  0  0  0
 40 53  2  0  0  0
 40 58  1  0  0  0
 41108  1  0  0  0
 41109  1  0  0  0
 41110  1  0  0  0
 41 48  1  0  0  0
 42 43  1  0  0  0
 42 66  1  0  0  0
 42111  1  0  0  0
 42112  1  0  0  0
 43 44  1  0  0  0
 44113  1  0  0  0
 45 46  2  0  0  0
 45114  1  0  0  0
 46115  1  0  0  0
 47116  1  0  0  0
 47117  1  0  0  0
 48 56  1  0  0  0
 48 65  1  0  0  0
 48118  1  0  0  0
 49 50  1  0  0  0
 49 53  1  0  0  0
 49 64  1  0  0  0
 49119  1  0  0  0
 50 51  1  0  0  0
 50120  1  0  0  0
 50121  1  0  0  0
 51 52  1  0  0  0
 51122  1  0  0  0
 51123  1  0  0  0
 52124  1  0  0  0
 52125  1  0  0  0
 53 54  1  0  0  0
 54 55  2  0  0  0
 54126  1  0  0  0
 55 57  1  0  0  0
 55127  1  0  0  0
 56 69  2  0  0  0
 57 58  2  0  0  0
 57128  1  0  0  0
 58129  1  0  0  0
 59 60  1  0  0  0
 59 61  1  0  0  0
 59 62  1  0  0  0
 60130  1  0  0  0
 60131  1  0  0  0
 60132  1  0  0  0
 61133  1  0  0  0
 61134  1  0  0  0
 61135  1  0  0  0
 62136  1  0  0  0
 62137  1  0  0  0
 62138  1  0  0  0
 63 65  1  0  0  0
 63139  1  0  0  0
 63140  1  0  0  0
 63141  1  0  0  0
 64142  1  0  0  0
 65143  1  0  0  0
 68 82  1  0  0  0
 71 72  2  0  0  0
 71 83  1  0  0  0
 71144  1  0  0  0
 72 73  1  0  0  0
 72 81  1  0  0  0
 73 74  2  0  0  0
 73 82  1  0  0  0
 74 75  1  0  0  0
 74 83  1  0  0  0
 75145  1  0  0  0
 75146  1  0  0  0
 75147  1  0  0  0
 76148  1  0  0  0
 76149  1  0  0  0
 76150  1  0  0  0
 76 81  1  0  0  0
 77 81  1  0  0  0
 77151  1  0  0  0
 77152  1  0  0  0
 77153  1  0  0  0
 78154  1  0  0  0
 78155  1  0  0  0
 78156  1  0  0  0
 78 82  1  0  0  0
 79 80  1  0  0  0
 79 83  1  0  0  0
 79157  1  0  0  0
 79158  1  0  0  0
 80 84  1  0  0  0
 80159  1  0  0  0
 80160  1  0  0  0
 81161  1  0  0  0
 82162  1  0  0  0
 84163  1  0  0  0
M  ISO  4   1 100  68 101  82 101  84 100
M  END
> <chiral flag>
0

> <version>
0

> <s_m_source_file>
/data/baiqing/PycharmProjects/Reinvent-master-3.2/result/LINK_invent/BTK/process_docking_weight1_custom_sum_contain_oxygen_bond_distance_aromatic_linkinvent_7_9_3/rearranged_h_0096.sdf

> <i_m_source_file_index>
98

> <r_mmod_Potential_Energy-OPLS-2005>
740.630065917969

> <r_mmod_Stretch_Energy-OPLS-2005>
348.680023193359

> <r_mmod_Bend_Energy-OPLS-2005>
380.145935058594

> <r_mmod_Torsional_Energy-OPLS-2005>
262.37646484375

> <r_mmod_Improper_Torsional_Energy-OPLS-2005>
6.20660257339478

> <r_mmod_Van_der_Waal_Energy-OPLS-2005>
102.545249938965

> <r_mmod_Electrostatic_Energy-OPLS-2005>
-412.024322509766

> <r_mmod_Solvation_Energy-OPLS-2005>
-213.652603149414

> <b_mmod_Minimization_Converged-OPLS-2005>
0

> <r_mmod_RMS_Derivative-OPLS-2005>
1.2257616519928

$$$$
