0
                    3D
 Structure written by MMmdl.
152160  0  0  1  0            999 V2000
  -30.6098  -14.7648   20.5063 C   0  0  0  0  0  0
  -30.4445  -12.4846   19.4645 C   0  0  0  0  0  0
  -29.5123  -12.5130   18.2328 C   0  0  0  0  0  0
  -28.0364  -12.3364   18.6445 C   0  0  0  0  0  0
  -27.6424  -13.2316   19.8501 C   0  0  2  0  0  0
  -28.6902  -13.1627   20.9821 C   0  0  0  0  0  0
  -25.2520  -13.8179   20.5713 C   0  0  0  0  0  0
  -24.1803  -13.0438   20.9235 C   0  0  0  0  0  0
  -24.6380  -11.6913   20.8763 C   0  0  0  0  0  0
  -23.9058  -10.4292   21.0409 C   0  0  0  0  0  0
  -24.3606   -9.4203   21.9194 C   0  0  0  0  0  0
  -23.6289   -8.2232   22.0753 C   0  0  0  0  0  0
  -22.4277   -8.0276   21.3539 C   0  0  0  0  0  0
  -21.9915   -9.0248   20.4643 C   0  0  0  0  0  0
  -22.7231  -10.2134   20.3054 C   0  0  0  0  0  0
  -21.6865   -6.0736   22.5286 C   0  0  0  0  0  0
  -21.4001   -6.5644   23.8211 C   0  0  0  0  0  0
  -21.3653   -5.6799   24.9184 C   0  0  0  0  0  0
  -21.6046   -4.3058   24.7243 C   0  0  0  0  0  0
  -21.8811   -3.8148   23.4364 C   0  0  0  0  0  0
  -21.9187   -4.6960   22.3422 C   0  0  0  0  0  0
  -22.7820  -13.5216   21.1886 C   0  0  0  0  0  0
  -22.1660   -4.2138   21.1000 F   0  0  0  0  0  0
  -21.5633   -3.4544   25.7761 F   0  0  0  0  0  0
  -29.9830  -13.5401   20.3948 N   0  0  0  0  0  0
  -26.2945  -12.9385   20.3284 N   0  0  0  0  0  0
  -25.9309  -11.6532   20.5751 N   0  0  0  0  0  0
  -22.0435  -12.8220   22.0424 N   0  0  0  0  0  0
  -25.4183  -15.1913   20.4127 N   0  0  0  0  0  0
  -31.8105  -14.8527   20.2240 O   0  0  0  0  0  0
  -21.6638   -6.8875   21.4248 O   0  0  0  0  0  0
  -22.3531  -14.5534   20.6734 O   0  0  0  0  0  0
  -24.6313  -31.8532   23.1895 C   0  0  0  0  0  0
  -25.9118  -32.4757   23.8272 C   0  0  1  0  0  0
  -27.2385  -27.2639   20.1791 C   0  0  0  0  0  0
  -25.5923  -33.8559   24.2214 N   0  0  0  0  0  0
  -23.4299  -30.4759   21.5287 C   0  0  2  0  0  0
  -24.8855  -28.9094   20.1170 C   0  0  0  0  0  0
  -22.7516  -29.4624   22.4825 C   0  0  0  0  0  0
  -18.0321  -28.1410   22.8478 C   0  0  0  0  0  0
  -24.1508  -36.7273   23.2637 C   0  0  0  0  0  0
  -25.9728  -30.7776   21.3610 C   0  0  0  0  0  0
  -26.0517  -29.3936   20.7211 C   0  0  0  0  0  0
  -27.2352  -28.5881   20.7292 C   0  0  0  0  0  0
  -26.0478  -26.8337   19.5554 C   0  0  0  0  0  0
  -24.8857  -27.6373   19.5223 C   0  0  0  0  0  0
  -23.6542  -29.7972   20.1506 C   0  0  0  0  0  0
  -25.4133  -36.3060   24.0324 C   0  0  1  0  0  0
  -20.5942  -28.3696   23.1256 C   0  0  2  0  0  0
  -20.6816  -26.9399   22.5417 C   0  0  0  0  0  0
  -19.5784  -26.6382   21.5226 C   0  0  0  0  0  0
  -18.1957  -26.7963   22.1612 C   0  0  0  0  0  0
  -19.1585  -28.8869   23.2869 C   0  0  0  0  0  0
  -18.9496  -30.1468   23.8891 C   0  0  0  0  0  0
  -17.6488  -30.6596   24.0576 C   0  0  0  0  0  0
  -25.9041  -34.9445   23.5051 C   0  0  0  0  0  0
  -16.5386  -29.9106   23.6347 C   0  0  0  0  0  0
  -16.7316  -28.6533   23.0325 C   0  0  0  0  0  0
  -26.4495  -31.6596   25.0657 C   0  0  0  0  0  0
  -25.3741  -31.3772   26.1383 C   0  0  0  0  0  0
  -27.0318  -30.3031   24.6083 C   0  0  0  0  0  0
  -27.6015  -32.4356   25.7469 C   0  0  0  0  0  0
  -27.5583  -37.1785   24.8458 C   0  0  0  0  0  0
  -21.4220  -29.3045   22.3597 N   0  0  0  0  0  0
  -26.4287  -37.3767   23.9421 N   0  0  0  0  0  0
  -24.6978  -31.0541   22.0856 N   0  0  0  0  0  0
  -23.4223  -28.8149   23.2907 O   0  0  0  0  0  0
  -28.3565  -26.4027   20.1928 O   0  0  0  0  0  0
  -26.5599  -34.8915   22.4626 O   0  0  0  0  0  0
  -23.5454  -32.1300   23.7202 O   0  0  0  0  0  0
  -31.2646  -18.7748   22.6204 C   0  0  0  0  0  0
  -30.6424  -19.9035   22.0585 C   0  0  0  0  0  0
  -31.0186  -17.4914   22.0922 C   0  0  0  0  0  0
  -29.7764  -19.7514   20.9620 C   0  0  0  0  0  0
  -30.1239  -17.3087   21.0184 C   0  0  0  0  0  0
  -29.2929  -21.0717   20.1899 C   0  0  0  0  0  0
  -28.8332  -23.7085   20.1304 C   0  0  0  0  0  0
  -28.2679  -25.0515   20.8507 C   0  0  0  0  0  0
  -29.5196  -18.4568   20.4858 N   0  0  0  0  0  0
  -29.8150  -15.8995   20.6583 N   0  0  0  0  0  0
  -28.9304  -22.3774   20.9287 N   0  3  0  0  0  0
  -31.4771  -12.6387   19.1475 H   0  0  0  0  0  0
  -30.4235  -11.5090   19.9512 H   0  0  0  0  0  0
  -29.7970  -11.7324   17.5256 H   0  0  0  0  0  0
  -29.6350  -13.4619   17.7076 H   0  0  0  0  0  0
  -27.8883  -11.2869   18.8970 H   0  0  0  0  0  0
  -27.3847  -12.5406   17.7954 H   0  0  0  0  0  0
  -27.6334  -14.2546   19.4735 H   0  0  0  0  0  0
  -28.7408  -12.1539   21.3972 H   0  0  0  0  0  0
  -28.4219  -13.8249   21.8085 H   0  0  0  0  0  0
  -25.2736   -9.5705   22.4791 H   0  0  0  0  0  0
  -24.0002   -7.4628   22.7478 H   0  0  0  0  0  0
  -21.0849   -8.8762   19.8956 H   0  0  0  0  0  0
  -22.3672  -10.9677   19.6175 H   0  0  0  0  0  0
  -21.1970   -7.6141   23.9720 H   0  0  0  0  0  0
  -21.1488   -6.0527   25.9084 H   0  0  0  0  0  0
  -22.0586   -2.7603   23.2879 H   0  0  0  0  0  0
  -22.4032  -11.9893   22.4849 H   0  0  0  0  0  0
  -21.1017  -13.1230   22.2532 H   0  0  0  0  0  0
  -24.6482  -15.8397   20.5378 H   0  0  0  0  0  0
  -26.2416  -15.6310   20.0243 H   0  0  0  0  0  0
  -26.7167  -32.5426   23.0996 H   0  0  0  0  0  0
  -25.0212  -33.9741   25.0450 H   0  0  0  0  0  0
  -22.7283  -31.2974   21.3722 H   0  0  0  0  0  0
  -23.3760  -35.9606   23.3300 H   0  0  0  0  0  0
  -24.3605  -36.8872   22.2047 H   0  0  0  0  0  0
  -23.7275  -37.6486   23.6669 H   0  0  0  0  0  0
  -26.0983  -31.5266   20.5790 H   0  0  0  0  0  0
  -26.8570  -30.8432   21.9829 H   0  0  0  0  0  0
  -28.1355  -28.9668   21.1938 H   0  0  0  0  0  0
  -26.0084  -25.8502   19.1121 H   0  0  0  0  0  0
  -23.9891  -27.2564   19.0522 H   0  0  0  0  0  0
  -23.7835  -30.5654   19.3869 H   0  0  0  0  0  0
  -22.7754  -29.2239   19.8467 H   0  0  0  0  0  0
  -25.1322  -36.1846   25.0813 H   0  0  0  0  0  0
  -21.0067  -28.3281   24.1358 H   0  0  0  0  0  0
  -20.5713  -26.2295   23.3630 H   0  0  0  0  0  0
  -21.6680  -26.7416   22.1193 H   0  0  0  0  0  0
  -19.6934  -25.6289   21.1248 H   0  0  0  0  0  0
  -19.6744  -27.3207   20.6779 H   0  0  0  0  0  0
  -17.4242  -26.6722   21.4001 H   0  0  0  0  0  0
  -18.0298  -26.0151   22.9043 H   0  0  0  0  0  0
  -19.7977  -30.7304   24.2214 H   0  0  0  0  0  0
  -17.5061  -31.6269   24.5182 H   0  0  0  0  0  0
  -15.5382  -30.2994   23.7699 H   0  0  0  0  0  0
  -15.8728  -28.0888   22.6983 H   0  0  0  0  0  0
  -24.5930  -30.7088   25.7751 H   0  0  0  0  0  0
  -24.8913  -32.2962   26.4745 H   0  0  0  0  0  0
  -25.8073  -30.9034   27.0194 H   0  0  0  0  0  0
  -26.2859  -29.6810   24.1130 H   0  0  0  0  0  0
  -27.4072  -29.7279   25.4542 H   0  0  0  0  0  0
  -27.8707  -30.4353   23.9258 H   0  0  0  0  0  0
  -27.2582  -33.3671   26.2002 H   0  0  0  0  0  0
  -28.3878  -32.6889   25.0347 H   0  0  0  0  0  0
  -28.0620  -31.8507   26.5427 H   0  0  0  0  0  0
  -28.2546  -38.0130   24.7535 H   0  0  0  0  0  0
  -28.1122  -36.2655   24.6231 H   0  0  0  0  0  0
  -27.2308  -37.1353   25.8858 H   0  0  0  0  0  0
  -20.9362  -29.8807   21.6869 H   0  0  0  0  0  0
  -26.0134  -38.2810   24.1475 H   0  0  0  0  0  0
  -31.9472  -18.8905   23.4512 H   0  0  0  0  0  0
  -30.8811  -20.8819   22.4519 H   0  0  0  0  0  0
  -31.5059  -16.6415   22.5493 H   0  0  0  0  0  0
  -28.4705  -20.8112   19.5272 H   0  0  0  0  0  0
  -30.1262  -21.3228   19.5348 H   0  0  0  0  0  0
  -29.8352  -23.9295   19.7552 H   0  0  0  0  0  0
  -28.2242  -23.5246   19.2456 H   0  0  0  0  0  0
  -28.8214  -25.1779   21.7843 H   0  0  0  0  0  0
  -27.2414  -24.8725   21.1718 H   0  0  0  0  0  0
  -28.8300  -15.7099   20.5752 H   0  0  0  0  0  0
  -29.6057  -22.4968   21.6663 H   0  0  0  0  0  0
  -28.0502  -22.2030   21.3867 H   0  0  0  0  0  0
  1 25  1  0  0  0
  1 30  2  0  0  0
  1 80  1  0  0  0
  2  3  1  0  0  0
  2 25  1  0  0  0
  2 82  1  0  0  0
  2 83  1  0  0  0
  3  4  1  0  0  0
  3 84  1  0  0  0
  3 85  1  0  0  0
  4  5  1  0  0  0
  4 86  1  0  0  0
  4 87  1  0  0  0
  5  6  1  0  0  0
  5 26  1  0  0  0
  5 88  1  0  0  0
  6 25  1  0  0  0
  6 89  1  0  0  0
  6 90  1  0  0  0
  7  8  2  0  0  0
  7 26  1  0  0  0
  7 29  1  0  0  0
  8  9  1  0  0  0
  8 22  1  0  0  0
  9 10  1  0  0  0
  9 27  2  0  0  0
 10 11  2  0  0  0
 10 15  1  0  0  0
 11 12  1  0  0  0
 11 91  1  0  0  0
 12 13  2  0  0  0
 12 92  1  0  0  0
 13 14  1  0  0  0
 13 31  1  0  0  0
 14 15  2  0  0  0
 14 93  1  0  0  0
 15 94  1  0  0  0
 16 17  2  0  0  0
 16 21  1  0  0  0
 16 31  1  0  0  0
 17 18  1  0  0  0
 17 95  1  0  0  0
 18 19  2  0  0  0
 18 96  1  0  0  0
 19 20  1  0  0  0
 19 24  1  0  0  0
 20 21  2  0  0  0
 20 97  1  0  0  0
 21 23  1  0  0  0
 22 28  1  0  0  0
 22 32  2  0  0  0
 26 27  1  0  0  0
 28 98  1  0  0  0
 28 99  1  0  0  0
 29100  1  0  0  0
 29101  1  0  0  0
 33 34  1  0  0  0
 33 66  1  0  0  0
 33 70  2  0  0  0
 34 36  1  0  0  0
 34 59  1  0  0  0
 34102  1  0  0  0
 35 44  2  0  0  0
 35 45  1  0  0  0
 35 68  1  0  0  0
 36 56  1  0  0  0
 36103  1  0  0  0
 37 39  1  0  0  0
 37 47  1  0  0  0
 37 66  1  0  0  0
 37104  1  0  0  0
 38 43  2  0  0  0
 38 46  1  0  0  0
 38 47  1  0  0  0
 39 64  1  0  0  0
 39 67  2  0  0  0
 40 52  1  0  0  0
 40 53  2  0  0  0
 40 58  1  0  0  0
 41105  1  0  0  0
 41106  1  0  0  0
 41107  1  0  0  0
 41 48  1  0  0  0
 42 43  1  0  0  0
 42 66  1  0  0  0
 42108  1  0  0  0
 42109  1  0  0  0
 43 44  1  0  0  0
 44110  1  0  0  0
 45 46  2  0  0  0
 45111  1  0  0  0
 46112  1  0  0  0
 47113  1  0  0  0
 47114  1  0  0  0
 48 56  1  0  0  0
 48 65  1  0  0  0
 48115  1  0  0  0
 49 50  1  0  0  0
 49 53  1  0  0  0
 49 64  1  0  0  0
 49116  1  0  0  0
 50 51  1  0  0  0
 50117  1  0  0  0
 50118  1  0  0  0
 51 52  1  0  0  0
 51119  1  0  0  0
 51120  1  0  0  0
 52121  1  0  0  0
 52122  1  0  0  0
 53 54  1  0  0  0
 54 55  2  0  0  0
 54123  1  0  0  0
 55 57  1  0  0  0
 55124  1  0  0  0
 56 69  2  0  0  0
 57 58  2  0  0  0
 57125  1  0  0  0
 58126  1  0  0  0
 59 60  1  0  0  0
 59 61  1  0  0  0
 59 62  1  0  0  0
 60127  1  0  0  0
 60128  1  0  0  0
 60129  1  0  0  0
 61130  1  0  0  0
 61131  1  0  0  0
 61132  1  0  0  0
 62133  1  0  0  0
 62134  1  0  0  0
 62135  1  0  0  0
 63 65  1  0  0  0
 63136  1  0  0  0
 63137  1  0  0  0
 63138  1  0  0  0
 64139  1  0  0  0
 65140  1  0  0  0
 68 78  1  0  0  0
 71 72  2  0  0  0
 71 73  1  0  0  0
 71141  1  0  0  0
 72 74  1  0  0  0
 72142  1  0  0  0
 73 75  2  0  0  0
 73143  1  0  0  0
 74 76  1  0  0  0
 74 79  2  0  0  0
 75 79  1  0  0  0
 75 80  1  0  0  0
 76 81  1  0  0  0
 76144  1  0  0  0
 76145  1  0  0  0
 77 78  1  0  0  0
 77 81  1  0  0  0
 77146  1  0  0  0
 77147  1  0  0  0
 78148  1  0  0  0
 78149  1  0  0  0
 80150  1  0  0  0
 81151  1  0  0  0
 81152  1  0  0  0
M  CHG  1  81   1
M  ISO  4   1 100  68 101  78 101  80 100
M  END
> <chiral flag>
0

> <version>
0

> <s_m_source_file>
/data/baiqing/PycharmProjects/Reinvent-master-3.2/result/LINK_invent/BTK/process_docking_weight1_custom_sum_contain_oxygen_bond_distance_aromatic_linkinvent_7_9_3/rearranged_h_0138.sdf

> <i_m_source_file_index>
1

> <r_mmod_Potential_Energy-OPLS-2005>
-182.324691772461

> <r_mmod_Stretch_Energy-OPLS-2005>
130.279510498047

> <r_mmod_Bend_Energy-OPLS-2005>
166.360504150391

> <r_mmod_Torsional_Energy-OPLS-2005>
247.600479125977

> <r_mmod_Improper_Torsional_Energy-OPLS-2005>
7.91348218917847

> <r_mmod_Van_der_Waal_Energy-OPLS-2005>
132.678924560547

> <r_mmod_Electrostatic_Energy-OPLS-2005>
-467.700714111328

> <r_mmod_Solvation_Energy-OPLS-2005>
-487.714721679688

> <b_mmod_Minimization_Converged-OPLS-2005>
0

> <r_mmod_RMS_Derivative-OPLS-2005>
4.85548114776611

$$$$
1
                    3D
 Structure written by MMmdl.
150158  0  0  1  0            999 V2000
  -30.5412  -15.0464   20.3754 C   0  0  0  0  0  0
  -30.4197  -12.6513   19.5000 C   0  0  0  0  0  0
  -29.5125  -12.5450   18.2526 C   0  0  0  0  0  0
  -28.0464  -12.3157   18.6595 C   0  0  0  0  0  0
  -27.6128  -13.2608   19.8110 C   0  0  2  0  0  0
  -28.6518  -13.3597   20.9472 C   0  0  0  0  0  0
  -25.2383  -13.8226   20.5640 C   0  0  0  0  0  0
  -24.1738  -13.0447   20.9224 C   0  0  0  0  0  0
  -24.6370  -11.6935   20.8712 C   0  0  0  0  0  0
  -23.9067  -10.4305   21.0359 C   0  0  0  0  0  0
  -24.3640   -9.4230   21.9137 C   0  0  0  0  0  0
  -23.6330   -8.2256   22.0718 C   0  0  0  0  0  0
  -22.4309   -8.0261   21.3511 C   0  0  0  0  0  0
  -21.9936   -9.0226   20.4606 C   0  0  0  0  0  0
  -22.7233  -10.2122   20.3006 C   0  0  0  0  0  0
  -21.6858   -6.0740   22.5273 C   0  0  0  0  0  0
  -21.4013   -6.5650   23.8213 C   0  0  0  0  0  0
  -21.3678   -5.6792   24.9166 C   0  0  0  0  0  0
  -21.6052   -4.3053   24.7222 C   0  0  0  0  0  0
  -21.8822   -3.8148   23.4337 C   0  0  0  0  0  0
  -21.9201   -4.6965   22.3391 C   0  0  0  0  0  0
  -22.7766  -13.5185   21.1904 C   0  0  0  0  0  0
  -22.1655   -4.2160   21.0966 F   0  0  0  0  0  0
  -21.5656   -3.4538   25.7732 F   0  0  0  0  0  0
  -29.9248  -13.7842   20.3468 N   0  0  0  0  0  0
  -26.2785  -12.9478   20.3098 N   0  0  0  0  0  0
  -25.9287  -11.6607   20.5646 N   0  0  0  0  0  0
  -22.0424  -12.8172   22.0457 N   0  0  0  0  0  0
  -25.4066  -15.1941   20.4036 N   0  0  0  0  0  0
  -31.7559  -15.0293   20.1389 O   0  0  0  0  0  0
  -21.6662   -6.8862   21.4225 O   0  0  0  0  0  0
  -22.3432  -14.5483   20.6713 O   0  0  0  0  0  0
  -24.6499  -31.8357   23.1804 C   0  0  0  0  0  0
  -25.9246  -32.4642   23.8214 C   0  0  1  0  0  0
  -27.2168  -27.0490   20.1707 C   0  0  0  0  0  0
  -25.5969  -33.8462   24.2113 N   0  0  0  0  0  0
  -23.4555  -30.4540   21.5276 C   0  0  2  0  0  0
  -24.9077  -28.8621   20.1130 C   0  0  0  0  0  0
  -22.7576  -29.4531   22.4839 C   0  0  0  0  0  0
  -18.0305  -28.1413   22.8450 C   0  0  0  0  0  0
  -24.1501  -36.7215   23.2641 C   0  0  0  0  0  0
  -26.0175  -30.6853   21.3911 C   0  0  0  0  0  0
  -26.0908  -29.2885   20.7312 C   0  0  0  0  0  0
  -27.2439  -28.4008   20.7362 C   0  0  0  0  0  0
  -26.0038  -26.7467   19.5075 C   0  0  0  0  0  0
  -24.8820  -27.6072   19.4873 C   0  0  0  0  0  0
  -23.6859  -29.7720   20.1524 C   0  0  0  0  0  0
  -25.4149  -36.2998   24.0294 C   0  0  1  0  0  0
  -20.5906  -28.3738   23.1208 C   0  0  2  0  0  0
  -20.6776  -26.9431   22.5396 C   0  0  0  0  0  0
  -19.5781  -26.6386   21.5175 C   0  0  0  0  0  0
  -18.1968  -26.7953   22.1589 C   0  0  0  0  0  0
  -19.1557  -28.8896   23.2816 C   0  0  0  0  0  0
  -18.9475  -30.1488   23.8855 C   0  0  0  0  0  0
  -17.6476  -30.6608   24.0552 C   0  0  0  0  0  0
  -25.9108  -34.9376   23.5019 C   0  0  0  0  0  0
  -16.5364  -29.9097   23.6344 C   0  0  0  0  0  0
  -16.7283  -28.6509   23.0362 C   0  0  0  0  0  0
  -26.4544  -31.6548   25.0691 C   0  0  0  0  0  0
  -25.3683  -31.3754   26.1345 C   0  0  0  0  0  0
  -27.0409  -30.2926   24.6334 C   0  0  0  0  0  0
  -27.6077  -32.4318   25.7472 C   0  0  0  0  0  0
  -27.5591  -37.1763   24.8468 C   0  0  0  0  0  0
  -21.4263  -29.3067   22.3579 N   0  0  0  0  0  0
  -26.4297  -37.3725   23.9415 N   0  0  0  0  0  0
  -24.7286  -31.0117   22.0902 N   0  0  0  0  0  0
  -23.4176  -28.8099   23.3034 O   0  0  0  0  0  0
  -28.2655  -26.0289   20.2133 O   0  0  0  0  0  0
  -26.5708  -34.8895   22.4607 O   0  0  0  0  0  0
  -23.5602  -32.1319   23.6961 O   0  0  0  0  0  0
  -31.6324  -19.3000   18.9790 C   0  0  0  0  0  0
  -31.2404  -18.0168   19.3936 C   0  0  0  0  0  0
  -30.8894  -20.4646   19.2782 C   0  0  0  0  0  0
  -30.0853  -17.7957   20.1592 C   0  0  0  0  0  0
  -29.6878  -20.3627   20.0365 C   0  0  0  0  0  0
  -31.4620  -21.7582   18.7035 C   0  0  0  0  0  0
  -28.0180  -24.4527   20.3462 C   0  0  0  0  0  0
  -29.0673  -23.0992   20.0987 C   0  0  0  0  0  0
  -29.3416  -19.0129   20.4447 N   0  0  0  0  0  0
  -29.8043  -16.2918   20.4958 N   0  0  0  0  0  0
  -28.8315  -21.5456   20.3528 O   0  0  0  0  0  0
  -31.4511  -12.7919   19.1779 H   0  0  0  0  0  0
  -30.4085  -11.7154   20.0610 H   0  0  0  0  0  0
  -29.8517  -11.7382   17.6015 H   0  0  0  0  0  0
  -29.5866  -13.4588   17.6609 H   0  0  0  0  0  0
  -27.9347  -11.2729   18.9586 H   0  0  0  0  0  0
  -27.3926  -12.4516   17.7974 H   0  0  0  0  0  0
  -27.5507  -14.2482   19.3519 H   0  0  0  0  0  0
  -28.7553  -12.4076   21.4703 H   0  0  0  0  0  0
  -28.3201  -14.0911   21.6849 H   0  0  0  0  0  0
  -25.2784   -9.5759   22.4719 H   0  0  0  0  0  0
  -24.0071   -7.4662   22.7431 H   0  0  0  0  0  0
  -21.0880   -8.8713   19.8909 H   0  0  0  0  0  0
  -22.3644  -10.9658   19.6137 H   0  0  0  0  0  0
  -21.1969   -7.6148   23.9726 H   0  0  0  0  0  0
  -21.1509   -6.0503   25.9077 H   0  0  0  0  0  0
  -22.0581   -2.7605   23.2829 H   0  0  0  0  0  0
  -22.4079  -11.9893   22.4934 H   0  0  0  0  0  0
  -21.0983  -13.1084   22.2550 H   0  0  0  0  0  0
  -24.6365  -15.8467   20.4934 H   0  0  0  0  0  0
  -26.2513  -15.6293   20.0568 H   0  0  0  0  0  0
  -26.7303  -32.5209   23.0930 H   0  0  0  0  0  0
  -25.0021  -33.9570   25.0189 H   0  0  0  0  0  0
  -22.7633  -31.2838   21.3642 H   0  0  0  0  0  0
  -23.3790  -35.9520   23.3291 H   0  0  0  0  0  0
  -24.3557  -36.8871   22.2054 H   0  0  0  0  0  0
  -23.7230  -37.6387   23.6703 H   0  0  0  0  0  0
  -26.1801  -31.4450   20.6251 H   0  0  0  0  0  0
  -26.8802  -30.7330   22.0438 H   0  0  0  0  0  0
  -28.1477  -28.7264   21.2338 H   0  0  0  0  0  0
  -25.8868  -25.7988   19.0032 H   0  0  0  0  0  0
  -23.9742  -27.2746   19.0026 H   0  0  0  0  0  0
  -23.8286  -30.5400   19.3917 H   0  0  0  0  0  0
  -22.7971  -29.2191   19.8391 H   0  0  0  0  0  0
  -25.1346  -36.1808   25.0784 H   0  0  0  0  0  0
  -20.9980  -28.3339   24.1331 H   0  0  0  0  0  0
  -20.5618  -26.2357   23.3627 H   0  0  0  0  0  0
  -21.6659  -26.7449   22.1220 H   0  0  0  0  0  0
  -19.6952  -25.6276   21.1260 H   0  0  0  0  0  0
  -19.6739  -27.3148   20.6665 H   0  0  0  0  0  0
  -17.4224  -26.6657   21.4013 H   0  0  0  0  0  0
  -18.0414  -26.0104   22.9000 H   0  0  0  0  0  0
  -19.7954  -30.7303   24.2214 H   0  0  0  0  0  0
  -17.5039  -31.6291   24.5157 H   0  0  0  0  0  0
  -15.5368  -30.2991   23.7715 H   0  0  0  0  0  0
  -15.8670  -28.0817   22.7129 H   0  0  0  0  0  0
  -24.5892  -30.7096   25.7607 H   0  0  0  0  0  0
  -24.8843  -32.2936   26.4681 H   0  0  0  0  0  0
  -25.7913  -30.8950   27.0173 H   0  0  0  0  0  0
  -26.3037  -29.6630   24.1338 H   0  0  0  0  0  0
  -27.3970  -29.7265   25.4949 H   0  0  0  0  0  0
  -27.8972  -30.4115   23.9696 H   0  0  0  0  0  0
  -27.2687  -33.3650   26.1984 H   0  0  0  0  0  0
  -28.3921  -32.6823   25.0314 H   0  0  0  0  0  0
  -28.0714  -31.8482   26.5436 H   0  0  0  0  0  0
  -28.2588  -38.0080   24.7538 H   0  0  0  0  0  0
  -28.1110  -36.2610   24.6281 H   0  0  0  0  0  0
  -27.2298  -37.1373   25.8864 H   0  0  0  0  0  0
  -20.9503  -29.8709   21.6679 H   0  0  0  0  0  0
  -26.0161  -38.2784   24.1442 H   0  0  0  0  0  0
  -32.5332  -19.3780   18.3881 H   0  0  0  0  0  0
  -31.8688  -17.1955   19.0819 H   0  0  0  0  0  0
  -32.4082  -21.5626   18.1995 H   0  0  0  0  0  0
  -31.6895  -22.4979   19.4727 H   0  0  0  0  0  0
  -30.8178  -22.1784   17.9314 H   0  0  0  0  0  0
  -27.6679  -24.3307   21.3731 H   0  0  0  0  0  0
  -27.1442  -24.2238   19.7403 H   0  0  0  0  0  0
  -29.9718  -23.3203   20.6650 H   0  0  0  0  0  0
  -29.3304  -23.1989   19.0493 H   0  0  0  0  0  0
  -28.8566  -16.1316   20.7929 H   0  0  0  0  0  0
  1 25  1  0  0  0
  1 30  2  0  0  0
  1 80  1  0  0  0
  2  3  1  0  0  0
  2 25  1  0  0  0
  2 82  1  0  0  0
  2 83  1  0  0  0
  3  4  1  0  0  0
  3 84  1  0  0  0
  3 85  1  0  0  0
  4  5  1  0  0  0
  4 86  1  0  0  0
  4 87  1  0  0  0
  5  6  1  0  0  0
  5 26  1  0  0  0
  5 88  1  0  0  0
  6 25  1  0  0  0
  6 89  1  0  0  0
  6 90  1  0  0  0
  7  8  2  0  0  0
  7 26  1  0  0  0
  7 29  1  0  0  0
  8  9  1  0  0  0
  8 22  1  0  0  0
  9 10  1  0  0  0
  9 27  2  0  0  0
 10 11  2  0  0  0
 10 15  1  0  0  0
 11 12  1  0  0  0
 11 91  1  0  0  0
 12 13  2  0  0  0
 12 92  1  0  0  0
 13 14  1  0  0  0
 13 31  1  0  0  0
 14 15  2  0  0  0
 14 93  1  0  0  0
 15 94  1  0  0  0
 16 17  2  0  0  0
 16 21  1  0  0  0
 16 31  1  0  0  0
 17 18  1  0  0  0
 17 95  1  0  0  0
 18 19  2  0  0  0
 18 96  1  0  0  0
 19 20  1  0  0  0
 19 24  1  0  0  0
 20 21  2  0  0  0
 20 97  1  0  0  0
 21 23  1  0  0  0
 22 28  1  0  0  0
 22 32  2  0  0  0
 26 27  1  0  0  0
 28 98  1  0  0  0
 28 99  1  0  0  0
 29100  1  0  0  0
 29101  1  0  0  0
 33 34  1  0  0  0
 33 66  1  0  0  0
 33 70  2  0  0  0
 34 36  1  0  0  0
 34 59  1  0  0  0
 34102  1  0  0  0
 35 44  2  0  0  0
 35 45  1  0  0  0
 35 68  1  0  0  0
 36 56  1  0  0  0
 36103  1  0  0  0
 37 39  1  0  0  0
 37 47  1  0  0  0
 37 66  1  0  0  0
 37104  1  0  0  0
 38 43  2  0  0  0
 38 46  1  0  0  0
 38 47  1  0  0  0
 39 64  1  0  0  0
 39 67  2  0  0  0
 40 52  1  0  0  0
 40 53  2  0  0  0
 40 58  1  0  0  0
 41105  1  0  0  0
 41106  1  0  0  0
 41107  1  0  0  0
 41 48  1  0  0  0
 42 43  1  0  0  0
 42 66  1  0  0  0
 42108  1  0  0  0
 42109  1  0  0  0
 43 44  1  0  0  0
 44110  1  0  0  0
 45 46  2  0  0  0
 45111  1  0  0  0
 46112  1  0  0  0
 47113  1  0  0  0
 47114  1  0  0  0
 48 56  1  0  0  0
 48 65  1  0  0  0
 48115  1  0  0  0
 49 50  1  0  0  0
 49 53  1  0  0  0
 49 64  1  0  0  0
 49116  1  0  0  0
 50 51  1  0  0  0
 50117  1  0  0  0
 50118  1  0  0  0
 51 52  1  0  0  0
 51119  1  0  0  0
 51120  1  0  0  0
 52121  1  0  0  0
 52122  1  0  0  0
 53 54  1  0  0  0
 54 55  2  0  0  0
 54123  1  0  0  0
 55 57  1  0  0  0
 55124  1  0  0  0
 56 69  2  0  0  0
 57 58  2  0  0  0
 57125  1  0  0  0
 58126  1  0  0  0
 59 60  1  0  0  0
 59 61  1  0  0  0
 59 62  1  0  0  0
 60127  1  0  0  0
 60128  1  0  0  0
 60129  1  0  0  0
 61130  1  0  0  0
 61131  1  0  0  0
 61132  1  0  0  0
 62133  1  0  0  0
 62134  1  0  0  0
 62135  1  0  0  0
 63 65  1  0  0  0
 63136  1  0  0  0
 63137  1  0  0  0
 63138  1  0  0  0
 64139  1  0  0  0
 65140  1  0  0  0
 68 77  1  0  0  0
 71 72  2  0  0  0
 71 73  1  0  0  0
 71141  1  0  0  0
 72 74  1  0  0  0
 72142  1  0  0  0
 73 75  2  0  0  0
 73 76  1  0  0  0
 74 79  2  0  0  0
 74 80  1  0  0  0
 75 79  1  0  0  0
 75 81  1  0  0  0
 76143  1  0  0  0
 76144  1  0  0  0
 76145  1  0  0  0
 77 78  1  0  0  0
 77146  1  0  0  0
 77147  1  0  0  0
 78 81  1  0  0  0
 78148  1  0  0  0
 78149  1  0  0  0
 80150  1  0  0  0
M  ISO  4   1 100  68 101  77 101  80 100
M  END
> <chiral flag>
0

> <version>
0

> <s_m_source_file>
/data/baiqing/PycharmProjects/Reinvent-master-3.2/result/LINK_invent/BTK/process_docking_weight1_custom_sum_contain_oxygen_bond_distance_aromatic_linkinvent_7_9_3/rearranged_h_0138.sdf

> <i_m_source_file_index>
2

> <r_mmod_Potential_Energy-OPLS-2005>
562.9091796875

> <r_mmod_Stretch_Energy-OPLS-2005>
372.574920654297

> <r_mmod_Bend_Energy-OPLS-2005>
323.576354980469

> <r_mmod_Torsional_Energy-OPLS-2005>
221.538833618164

> <r_mmod_Improper_Torsional_Energy-OPLS-2005>
3.70996832847595

> <r_mmod_Van_der_Waal_Energy-OPLS-2005>
142.698974609375

> <r_mmod_Electrostatic_Energy-OPLS-2005>
-545.284362792969

> <r_mmod_Solvation_Energy-OPLS-2005>
-222.922225952148

> <b_mmod_Minimization_Converged-OPLS-2005>
0

> <r_mmod_RMS_Derivative-OPLS-2005>
4.48294353485107

$$$$
2
                    3D
 Structure written by MMmdl.
168177  0  0  1  0            999 V2000
  -30.6821  -14.4637   20.5357 C   0  0  0  0  0  0
  -30.4289  -12.2856   19.4243 C   0  0  0  0  0  0
  -29.4965  -12.4744   18.2087 C   0  0  0  0  0  0
  -28.0167  -12.3441   18.6220 C   0  0  0  0  0  0
  -27.6628  -13.1930   19.8717 C   0  0  2  0  0  0
  -28.7037  -12.9754   20.9956 C   0  0  0  0  0  0
  -25.2615  -13.8137   20.5671 C   0  0  0  0  0  0
  -24.1855  -13.0442   20.9179 C   0  0  0  0  0  0
  -24.6389  -11.6898   20.8745 C   0  0  0  0  0  0
  -23.9041  -10.4297   21.0412 C   0  0  0  0  0  0
  -24.3593   -9.4208   21.9185 C   0  0  0  0  0  0
  -23.6276   -8.2241   22.0755 C   0  0  0  0  0  0
  -22.4262   -8.0278   21.3542 C   0  0  0  0  0  0
  -21.9891   -9.0255   20.4647 C   0  0  0  0  0  0
  -22.7215  -10.2139   20.3058 C   0  0  0  0  0  0
  -21.6854   -6.0733   22.5283 C   0  0  0  0  0  0
  -21.4017   -6.5640   23.8211 C   0  0  0  0  0  0
  -21.3652   -5.6795   24.9173 C   0  0  0  0  0  0
  -21.6037   -4.3056   24.7230 C   0  0  0  0  0  0
  -21.8817   -3.8145   23.4354 C   0  0  0  0  0  0
  -21.9195   -4.6961   22.3408 C   0  0  0  0  0  0
  -22.7878  -13.5250   21.1852 C   0  0  0  0  0  0
  -22.1661   -4.2140   21.0985 F   0  0  0  0  0  0
  -21.5623   -3.4540   25.7742 F   0  0  0  0  0  0
  -30.0378  -13.2711   20.4432 N   0  0  0  0  0  0
  -26.3029  -12.9274   20.3343 N   0  0  0  0  0  0
  -25.9307  -11.6458   20.5779 N   0  0  0  0  0  0
  -22.0505  -12.8253   22.0399 N   0  0  0  0  0  0
  -25.4388  -15.1853   20.4071 N   0  0  0  0  0  0
  -31.8370  -14.6315   20.1408 O   0  0  0  0  0  0
  -21.6630   -6.8876   21.4243 O   0  0  0  0  0  0
  -22.3577  -14.5570   20.6708 O   0  0  0  0  0  0
  -24.6148  -31.8677   23.2109 C   0  0  0  0  0  0
  -25.9045  -32.4825   23.8396 C   0  0  1  0  0  0
  -27.2311  -27.4389   20.1071 C   0  0  0  0  0  0
  -25.5909  -33.8621   24.2333 N   0  0  0  0  0  0
  -23.4029  -30.4920   21.5504 C   0  0  2  0  0  0
  -24.8527  -28.9673   20.1079 C   0  0  0  0  0  0
  -22.7417  -29.4646   22.4976 C   0  0  0  0  0  0
  -18.0276  -28.1371   22.8489 C   0  0  0  0  0  0
  -24.1490  -36.7319   23.2635 C   0  0  0  0  0  0
  -25.9319  -30.8409   21.3616 C   0  0  0  0  0  0
  -26.0127  -29.4771   20.7072 C   0  0  0  0  0  0
  -27.2097  -28.7215   20.7000 C   0  0  0  0  0  0
  -26.0614  -26.9545   19.4824 C   0  0  0  0  0  0
  -24.8736  -27.7077   19.4860 C   0  0  0  0  0  0
  -23.6108  -29.8288   20.1627 C   0  0  0  0  0  0
  -25.4104  -36.3103   24.0334 C   0  0  1  0  0  0
  -20.5863  -28.3651   23.1323 C   0  0  2  0  0  0
  -20.6762  -26.9390   22.5425 C   0  0  0  0  0  0
  -19.5743  -26.6372   21.5216 C   0  0  0  0  0  0
  -18.1918  -26.7915   22.1623 C   0  0  0  0  0  0
  -19.1520  -28.8828   23.2904 C   0  0  0  0  0  0
  -18.9445  -30.1436   23.8915 C   0  0  0  0  0  0
  -17.6445  -30.6582   24.0549 C   0  0  0  0  0  0
  -25.9034  -34.9468   23.5127 C   0  0  0  0  0  0
  -16.5339  -29.9083   23.6320 C   0  0  0  0  0  0
  -16.7261  -28.6497   23.0344 C   0  0  0  0  0  0
  -26.4464  -31.6590   25.0716 C   0  0  0  0  0  0
  -25.3738  -31.3703   26.1473 C   0  0  0  0  0  0
  -27.0286  -30.3032   24.6080 C   0  0  0  0  0  0
  -27.6042  -32.4295   25.7488 C   0  0  0  0  0  0
  -27.5576  -37.1813   24.8463 C   0  0  0  0  0  0
  -21.4139  -29.3024   22.3732 N   0  0  0  0  0  0
  -26.4292  -37.3782   23.9400 N   0  0  0  0  0  0
  -24.6680  -31.0797   22.1000 N   0  0  0  0  0  0
  -23.4189  -28.8190   23.3021 O   0  0  0  0  0  0
  -28.3539  -26.6414   20.1667 O   0  0  0  0  0  0
  -26.5582  -34.8914   22.4683 O   0  0  0  0  0  0
  -23.5343  -32.1410   23.7513 O   0  0  0  0  0  0
  -30.4299  -24.6381   21.6468 C   0  0  0  0  0  0
  -31.4378  -23.6553   21.6668 C   0  0  0  0  0  0
  -29.0874  -23.1965   20.2246 C   0  0  0  0  0  0
  -29.2485  -24.4195   20.9148 C   0  0  0  0  0  0
  -31.2886  -22.4430   20.9556 C   0  0  0  0  0  0
  -30.0861  -22.1956   20.2408 C   0  0  0  0  0  0
  -29.6584  -19.3236   21.3619 C   0  0  0  0  0  0
  -30.0870  -17.8657   21.7047 C   0  0  0  0  0  0
  -31.0480  -18.8584   19.2629 C   0  0  0  0  0  0
  -30.7718  -17.3360   19.2803 C   0  0  1  0  0  0
  -29.8752  -19.6529   19.8600 C   0  0  1  0  0  0
  -29.8894  -16.9175   20.5001 C   0  0  1  0  0  0
  -32.4676  -21.4872   20.9240 C   0  0  0  0  0  0
  -30.1620  -16.8572   17.9509 C   0  0  0  0  0  0
  -28.1205  -25.4462   20.9350 C   0  0  0  0  0  0
  -29.8491  -21.0606   19.4436 N   0  0  0  0  0  0
  -29.8691  -15.4856   20.8634 N   0  0  0  0  0  0
  -31.4721  -12.3919   19.1189 H   0  0  0  0  0  0
  -30.3354  -11.2752   19.8272 H   0  0  0  0  0  0
  -29.7304  -11.7358   17.4396 H   0  0  0  0  0  0
  -29.6674  -13.4499   17.7543 H   0  0  0  0  0  0
  -27.8297  -11.2896   18.8336 H   0  0  0  0  0  0
  -27.3645  -12.6055   17.7878 H   0  0  0  0  0  0
  -27.7072  -14.2373   19.5643 H   0  0  0  0  0  0
  -28.6762  -11.9418   21.3439 H   0  0  0  0  0  0
  -28.4701  -13.5840   21.8712 H   0  0  0  0  0  0
  -25.2739   -9.5687   22.4755 H   0  0  0  0  0  0
  -23.9985   -7.4634   22.7478 H   0  0  0  0  0  0
  -21.0815   -8.8782   19.8953 H   0  0  0  0  0  0
  -22.3676  -10.9682   19.6167 H   0  0  0  0  0  0
  -21.2011   -7.6144   23.9716 H   0  0  0  0  0  0
  -21.1471   -6.0521   25.9073 H   0  0  0  0  0  0
  -22.0602   -2.7609   23.2862 H   0  0  0  0  0  0
  -22.4104  -11.9899   22.4776 H   0  0  0  0  0  0
  -21.1136  -13.1310   22.2606 H   0  0  0  0  0  0
  -24.6781  -15.8466   20.5176 H   0  0  0  0  0  0
  -26.2918  -15.6166   20.0753 H   0  0  0  0  0  0
  -26.7134  -32.5539   23.1177 H   0  0  0  0  0  0
  -25.0077  -33.9786   25.0489 H   0  0  0  0  0  0
  -22.6907  -31.3088   21.4135 H   0  0  0  0  0  0
  -23.3730  -35.9678   23.3314 H   0  0  0  0  0  0
  -24.3595  -36.8914   22.2049 H   0  0  0  0  0  0
  -23.7272  -37.6542   23.6639 H   0  0  0  0  0  0
  -26.0418  -31.6103   20.5952 H   0  0  0  0  0  0
  -26.8204  -30.8938   21.9788 H   0  0  0  0  0  0
  -28.1026  -29.1062   21.1735 H   0  0  0  0  0  0
  -26.0591  -25.9836   19.0066 H   0  0  0  0  0  0
  -23.9863  -27.3127   19.0109 H   0  0  0  0  0  0
  -23.7147  -30.6051   19.4043 H   0  0  0  0  0  0
  -22.7373  -29.2455   19.8678 H   0  0  0  0  0  0
  -25.1286  -36.1960   25.0828 H   0  0  0  0  0  0
  -20.9950  -28.3221   24.1438 H   0  0  0  0  0  0
  -20.5655  -26.2264   23.3607 H   0  0  0  0  0  0
  -21.6636  -26.7434   22.1218 H   0  0  0  0  0  0
  -19.6909  -25.6284   21.1242 H   0  0  0  0  0  0
  -19.6690  -27.3185   20.6743 H   0  0  0  0  0  0
  -17.4191  -26.6652   21.4024 H   0  0  0  0  0  0
  -18.0328  -26.0058   22.9019 H   0  0  0  0  0  0
  -19.7917  -30.7240   24.2295 H   0  0  0  0  0  0
  -17.5002  -31.6264   24.5141 H   0  0  0  0  0  0
  -15.5339  -30.2982   23.7639 H   0  0  0  0  0  0
  -15.8653  -28.0816   22.7052 H   0  0  0  0  0  0
  -24.5917  -30.7041   25.7821 H   0  0  0  0  0  0
  -24.8924  -32.2864   26.4905 H   0  0  0  0  0  0
  -25.8102  -30.8888   27.0236 H   0  0  0  0  0  0
  -26.2837  -29.6815   24.1109 H   0  0  0  0  0  0
  -27.4036  -29.7242   25.4527 H   0  0  0  0  0  0
  -27.8672  -30.4345   23.9240 H   0  0  0  0  0  0
  -27.2665  -33.3582   26.2096 H   0  0  0  0  0  0
  -28.3845  -32.6875   25.0319 H   0  0  0  0  0  0
  -28.0713  -31.8395   26.5380 H   0  0  0  0  0  0
  -28.2601  -38.0099   24.7481 H   0  0  0  0  0  0
  -28.1063  -36.2632   24.6317 H   0  0  0  0  0  0
  -27.2301  -37.1498   25.8868 H   0  0  0  0  0  0
  -20.9303  -29.8758   21.6964 H   0  0  0  0  0  0
  -26.0176  -38.2864   24.1385 H   0  0  0  0  0  0
  -30.5635  -25.5613   22.1923 H   0  0  0  0  0  0
  -32.3447  -23.8528   22.2208 H   0  0  0  0  0  0
  -28.1725  -23.0282   19.6749 H   0  0  0  0  0  0
  -30.1922  -20.0077   22.0197 H   0  0  0  0  0  0
  -28.6005  -19.4589   21.5935 H   0  0  0  0  0  0
  -29.5213  -17.5206   22.5715 H   0  0  0  0  0  0
  -31.1376  -17.8479   21.9996 H   0  0  0  0  0  0
  -31.2744  -19.1887   18.2481 H   0  0  0  0  0  0
  -31.9487  -19.0432   19.8452 H   0  0  0  0  0  0
  -31.7624  -16.8939   19.3617 H   0  0  0  0  0  0
  -28.9923  -19.2565   19.3540 H   0  0  0  0  0  0
  -28.8552  -17.0784   20.1894 H   0  0  0  0  0  0
  -32.2946  -20.6226   21.5634 H   0  0  0  0  0  0
  -33.3806  -21.9715   21.2675 H   0  0  0  0  0  0
  -32.6515  -21.1511   19.9040 H   0  0  0  0  0  0
  -30.8010  -17.1217   17.1079 H   0  0  0  0  0  0
  -29.1832  -17.3038   17.7748 H   0  0  0  0  0  0
  -30.0366  -15.7756   17.9370 H   0  0  0  0  0  0
  -27.9411  -25.7282   21.9745 H   0  0  0  0  0  0
  -27.2134  -24.9358   20.6146 H   0  0  0  0  0  0
  -29.1626  -21.2233   18.7117 H   0  0  0  0  0  0
  -28.9753  -15.1685   21.2064 H   0  0  0  0  0  0
  1 25  1  0  0  0
  1 30  2  0  0  0
  1 87  1  0  0  0
  2  3  1  0  0  0
  2 25  1  0  0  0
  2 88  1  0  0  0
  2 89  1  0  0  0
  3  4  1  0  0  0
  3 90  1  0  0  0
  3 91  1  0  0  0
  4  5  1  0  0  0
  4 92  1  0  0  0
  4 93  1  0  0  0
  5  6  1  0  0  0
  5 26  1  0  0  0
  5 94  1  0  0  0
  6 25  1  0  0  0
  6 95  1  0  0  0
  6 96  1  0  0  0
  7  8  2  0  0  0
  7 26  1  0  0  0
  7 29  1  0  0  0
  8  9  1  0  0  0
  8 22  1  0  0  0
  9 10  1  0  0  0
  9 27  2  0  0  0
 10 11  2  0  0  0
 10 15  1  0  0  0
 11 12  1  0  0  0
 11 97  1  0  0  0
 12 13  2  0  0  0
 12 98  1  0  0  0
 13 14  1  0  0  0
 13 31  1  0  0  0
 14 15  2  0  0  0
 14 99  1  0  0  0
 15100  1  0  0  0
 16 17  2  0  0  0
 16 21  1  0  0  0
 16 31  1  0  0  0
 17 18  1  0  0  0
 17101  1  0  0  0
 18 19  2  0  0  0
 18102  1  0  0  0
 19 20  1  0  0  0
 19 24  1  0  0  0
 20 21  2  0  0  0
 20103  1  0  0  0
 21 23  1  0  0  0
 22 28  1  0  0  0
 22 32  2  0  0  0
 26 27  1  0  0  0
 28104  1  0  0  0
 28105  1  0  0  0
 29106  1  0  0  0
 29107  1  0  0  0
 33 34  1  0  0  0
 33 66  1  0  0  0
 33 70  2  0  0  0
 34 36  1  0  0  0
 34 59  1  0  0  0
 34108  1  0  0  0
 35 44  2  0  0  0
 35 45  1  0  0  0
 35 68  1  0  0  0
 36 56  1  0  0  0
 36109  1  0  0  0
 37 39  1  0  0  0
 37 47  1  0  0  0
 37 66  1  0  0  0
 37110  1  0  0  0
 38 43  2  0  0  0
 38 46  1  0  0  0
 38 47  1  0  0  0
 39 64  1  0  0  0
 39 67  2  0  0  0
 40 52  1  0  0  0
 40 53  2  0  0  0
 40 58  1  0  0  0
 41111  1  0  0  0
 41112  1  0  0  0
 41113  1  0  0  0
 41 48  1  0  0  0
 42 43  1  0  0  0
 42 66  1  0  0  0
 42114  1  0  0  0
 42115  1  0  0  0
 43 44  1  0  0  0
 44116  1  0  0  0
 45 46  2  0  0  0
 45117  1  0  0  0
 46118  1  0  0  0
 47119  1  0  0  0
 47120  1  0  0  0
 48 56  1  0  0  0
 48 65  1  0  0  0
 48121  1  0  0  0
 49 50  1  0  0  0
 49 53  1  0  0  0
 49 64  1  0  0  0
 49122  1  0  0  0
 50 51  1  0  0  0
 50123  1  0  0  0
 50124  1  0  0  0
 51 52  1  0  0  0
 51125  1  0  0  0
 51126  1  0  0  0
 52127  1  0  0  0
 52128  1  0  0  0
 53 54  1  0  0  0
 54 55  2  0  0  0
 54129  1  0  0  0
 55 57  1  0  0  0
 55130  1  0  0  0
 56 69  2  0  0  0
 57 58  2  0  0  0
 57131  1  0  0  0
 58132  1  0  0  0
 59 60  1  0  0  0
 59 61  1  0  0  0
 59 62  1  0  0  0
 60133  1  0  0  0
 60134  1  0  0  0
 60135  1  0  0  0
 61136  1  0  0  0
 61137  1  0  0  0
 61138  1  0  0  0
 62139  1  0  0  0
 62140  1  0  0  0
 62141  1  0  0  0
 63 65  1  0  0  0
 63142  1  0  0  0
 63143  1  0  0  0
 63144  1  0  0  0
 64145  1  0  0  0
 65146  1  0  0  0
 68 85  1  0  0  0
 71 72  2  0  0  0
 71 74  1  0  0  0
 71147  1  0  0  0
 72 75  1  0  0  0
 72148  1  0  0  0
 73 74  2  0  0  0
 73 76  1  0  0  0
 73149  1  0  0  0
 74 85  1  0  0  0
 75 76  2  0  0  0
 75 83  1  0  0  0
 76 86  1  0  0  0
 77 78  1  0  0  0
 77 81  1  0  0  0
 77150  1  0  0  0
 77151  1  0  0  0
 78 82  1  0  0  0
 78152  1  0  0  0
 78153  1  0  0  0
 79 80  1  0  0  0
 79 81  1  0  0  0
 79154  1  0  0  0
 79155  1  0  0  0
 80 82  1  0  0  0
 80 84  1  0  0  0
 80156  1  0  0  0
 81 86  1  0  0  0
 81157  1  0  0  0
 82 87  1  0  0  0
 82158  1  0  0  0
 83159  1  0  0  0
 83160  1  0  0  0
 83161  1  0  0  0
 84162  1  0  0  0
 84163  1  0  0  0
 84164  1  0  0  0
 85165  1  0  0  0
 85166  1  0  0  0
 86167  1  0  0  0
 87168  1  0  0  0
M  ISO  4   1 100  68 101  85 101  87 100
M  END
> <chiral flag>
0

> <version>
0

> <s_m_source_file>
/data/baiqing/PycharmProjects/Reinvent-master-3.2/result/LINK_invent/BTK/process_docking_weight1_custom_sum_contain_oxygen_bond_distance_aromatic_linkinvent_7_9_3/rearranged_h_0138.sdf

> <i_m_source_file_index>
3

> <r_mmod_Potential_Energy-OPLS-2005>
-7.74524354934692

> <r_mmod_Stretch_Energy-OPLS-2005>
39.3025207519531

> <r_mmod_Bend_Energy-OPLS-2005>
138.463973999023

> <r_mmod_Torsional_Energy-OPLS-2005>
291.463104248047

> <r_mmod_Improper_Torsional_Energy-OPLS-2005>
9.65363216400146

> <r_mmod_Van_der_Waal_Energy-OPLS-2005>
161.248168945312

> <r_mmod_Electrostatic_Energy-OPLS-2005>
-452.261199951172

> <r_mmod_Solvation_Energy-OPLS-2005>
-211.966674804688

> <b_mmod_Minimization_Converged-OPLS-2005>
0

> <r_mmod_RMS_Derivative-OPLS-2005>
2.13448858261108

$$$$
3
                    3D
 Structure written by MMmdl.
154162  0  0  1  0            999 V2000
  -30.6926  -14.4666   20.5778 C   0  0  0  0  0  0
  -30.4268  -12.3010   19.4282 C   0  0  0  0  0  0
  -29.5005  -12.5039   18.2110 C   0  0  0  0  0  0
  -28.0197  -12.3672   18.6191 C   0  0  0  0  0  0
  -27.6656  -13.2040   19.8783 C   0  0  2  0  0  0
  -28.7044  -12.9759   21.0009 C   0  0  0  0  0  0
  -25.2607  -13.8157   20.5668 C   0  0  0  0  0  0
  -24.1848  -13.0442   20.9176 C   0  0  0  0  0  0
  -24.6395  -11.6906   20.8736 C   0  0  0  0  0  0
  -23.9062  -10.4293   21.0408 C   0  0  0  0  0  0
  -24.3623   -9.4207   21.9185 C   0  0  0  0  0  0
  -23.6300   -8.2243   22.0759 C   0  0  0  0  0  0
  -22.4281   -8.0283   21.3550 C   0  0  0  0  0  0
  -21.9911   -9.0259   20.4653 C   0  0  0  0  0  0
  -22.7238  -10.2138   20.3055 C   0  0  0  0  0  0
  -21.6850   -6.0738   22.5282 C   0  0  0  0  0  0
  -21.4011   -6.5643   23.8216 C   0  0  0  0  0  0
  -21.3656   -5.6795   24.9178 C   0  0  0  0  0  0
  -21.6044   -4.3057   24.7226 C   0  0  0  0  0  0
  -21.8815   -3.8151   23.4347 C   0  0  0  0  0  0
  -21.9192   -4.6969   22.3403 C   0  0  0  0  0  0
  -22.7871  -13.5248   21.1840 C   0  0  0  0  0  0
  -22.1658   -4.2155   21.0981 F   0  0  0  0  0  0
  -21.5635   -3.4537   25.7738 F   0  0  0  0  0  0
  -30.0386  -13.2803   20.4545 N   0  0  0  0  0  0
  -26.3043  -12.9317   20.3364 N   0  0  0  0  0  0
  -25.9320  -11.6482   20.5773 N   0  0  0  0  0  0
  -22.0511  -12.8251   22.0406 N   0  0  0  0  0  0
  -25.4333  -15.1871   20.4056 N   0  0  0  0  0  0
  -31.8073  -14.6782   20.0917 O   0  0  0  0  0  0
  -21.6637   -6.8886   21.4244 O   0  0  0  0  0  0
  -22.3548  -14.5551   20.6684 O   0  0  0  0  0  0
  -24.6150  -31.8680   23.2100 C   0  0  0  0  0  0
  -25.9045  -32.4822   23.8394 C   0  0  1  0  0  0
  -27.2359  -27.4246   20.0880 C   0  0  0  0  0  0
  -25.5904  -33.8621   24.2322 N   0  0  0  0  0  0
  -23.4024  -30.4931   21.5502 C   0  0  2  0  0  0
  -24.8467  -28.9538   20.1169 C   0  0  0  0  0  0
  -22.7395  -29.4682   22.4987 C   0  0  0  0  0  0
  -18.0279  -28.1375   22.8491 C   0  0  0  0  0  0
  -24.1487  -36.7316   23.2633 C   0  0  0  0  0  0
  -25.9326  -30.8284   21.3651 C   0  0  0  0  0  0
  -26.0070  -29.4614   20.7128 C   0  0  0  0  0  0
  -27.1996  -28.7017   20.6997 C   0  0  0  0  0  0
  -26.0478  -26.9270   19.5019 C   0  0  0  0  0  0
  -24.8612  -27.6850   19.5132 C   0  0  0  0  0  0
  -23.6108  -29.8242   20.1651 C   0  0  0  0  0  0
  -25.4108  -36.3111   24.0331 C   0  0  1  0  0  0
  -20.5863  -28.3670   23.1318 C   0  0  2  0  0  0
  -20.6779  -26.9412   22.5402 C   0  0  0  0  0  0
  -19.5758  -26.6384   21.5205 C   0  0  0  0  0  0
  -18.1937  -26.7922   22.1621 C   0  0  0  0  0  0
  -19.1524  -28.8836   23.2905 C   0  0  0  0  0  0
  -18.9453  -30.1440   23.8917 C   0  0  0  0  0  0
  -17.6455  -30.6579   24.0572 C   0  0  0  0  0  0
  -25.9035  -34.9476   23.5120 C   0  0  0  0  0  0
  -16.5346  -29.9083   23.6331 C   0  0  0  0  0  0
  -16.7268  -28.6499   23.0347 C   0  0  0  0  0  0
  -26.4474  -31.6606   25.0723 C   0  0  0  0  0  0
  -25.3744  -31.3707   26.1471 C   0  0  0  0  0  0
  -27.0301  -30.3045   24.6105 C   0  0  0  0  0  0
  -27.6052  -32.4323   25.7487 C   0  0  0  0  0  0
  -27.5580  -37.1812   24.8462 C   0  0  0  0  0  0
  -21.4119  -29.3065   22.3738 N   0  0  0  0  0  0
  -26.4297  -37.3795   23.9404 N   0  0  0  0  0  0
  -24.6683  -31.0781   22.1001 N   0  0  0  0  0  0
  -23.4162  -28.8213   23.3026 O   0  0  0  0  0  0
  -28.4271  -26.7192   20.0986 O   0  0  0  0  0  0
  -26.5594  -34.8925   22.4680 O   0  0  0  0  0  0
  -23.5346  -32.1444   23.7497 O   0  0  0  0  0  0
  -30.3620  -19.9961   21.1418 C   0  0  0  0  0  0
  -27.9451  -20.0071   20.9585 C   0  0  0  0  0  0
  -30.3751  -21.3904   20.9023 C   0  0  0  0  0  0
  -27.9590  -21.4004   20.7220 C   0  0  0  0  0  0
  -29.1417  -19.2840   21.1688 C   0  0  0  0  0  0
  -29.1814  -22.1146   20.6825 C   0  0  0  0  0  0
  -29.0658  -17.7753   21.4579 C   0  0  0  0  0  0
  -30.2599  -16.9027   20.9905 C   0  0  0  0  0  0
  -28.1436  -24.2056   19.9693 C   0  0  0  0  0  0
  -28.5762  -25.5359   19.2945 C   0  0  0  0  0  0
  -29.9700  -15.4637   21.1182 N   0  0  0  0  0  0
  -29.2859  -23.4776   20.4472 O   0  0  0  0  0  0
  -31.4723  -12.3992   19.1303 H   0  0  0  0  0  0
  -30.3244  -11.2884   19.8213 H   0  0  0  0  0  0
  -29.7403  -11.7793   17.4320 H   0  0  0  0  0  0
  -29.6739  -13.4897   17.7764 H   0  0  0  0  0  0
  -27.8275  -11.3116   18.8123 H   0  0  0  0  0  0
  -27.3728  -12.6436   17.7857 H   0  0  0  0  0  0
  -27.7137  -14.2529   19.5865 H   0  0  0  0  0  0
  -28.6758  -11.9391   21.3396 H   0  0  0  0  0  0
  -28.4643  -13.5724   21.8823 H   0  0  0  0  0  0
  -25.2772   -9.5682   22.4755 H   0  0  0  0  0  0
  -24.0007   -7.4636   22.7479 H   0  0  0  0  0  0
  -21.0840   -8.8779   19.8963 H   0  0  0  0  0  0
  -22.3702  -10.9679   19.6164 H   0  0  0  0  0  0
  -21.1996   -7.6150   23.9721 H   0  0  0  0  0  0
  -21.1486   -6.0526   25.9083 H   0  0  0  0  0  0
  -22.0599   -2.7609   23.2846 H   0  0  0  0  0  0
  -22.4117  -11.9911   22.4799 H   0  0  0  0  0  0
  -21.1135  -13.1298   22.2618 H   0  0  0  0  0  0
  -24.6668  -15.8427   20.5096 H   0  0  0  0  0  0
  -26.2826  -15.6209   20.0669 H   0  0  0  0  0  0
  -26.7114  -32.5519   23.1157 H   0  0  0  0  0  0
  -25.0087  -33.9791   25.0486 H   0  0  0  0  0  0
  -22.6918  -31.3100   21.4102 H   0  0  0  0  0  0
  -23.3745  -35.9656   23.3313 H   0  0  0  0  0  0
  -24.3582  -36.8912   22.2045 H   0  0  0  0  0  0
  -23.7248  -37.6526   23.6643 H   0  0  0  0  0  0
  -26.0501  -31.5951   20.5974 H   0  0  0  0  0  0
  -26.8191  -30.8791   21.9861 H   0  0  0  0  0  0
  -28.0969  -29.0953   21.1570 H   0  0  0  0  0  0
  -26.0078  -25.9512   19.0407 H   0  0  0  0  0  0
  -23.9645  -27.2848   19.0601 H   0  0  0  0  0  0
  -23.7219  -30.5993   19.4059 H   0  0  0  0  0  0
  -22.7326  -29.2481   19.8678 H   0  0  0  0  0  0
  -25.1291  -36.1975   25.0825 H   0  0  0  0  0  0
  -20.9960  -28.3234   24.1438 H   0  0  0  0  0  0
  -20.5701  -26.2275   23.3583 H   0  0  0  0  0  0
  -21.6651  -26.7472   22.1188 H   0  0  0  0  0  0
  -19.6924  -25.6298   21.1227 H   0  0  0  0  0  0
  -19.6688  -27.3201   20.6744 H   0  0  0  0  0  0
  -17.4199  -26.6658   21.4035 H   0  0  0  0  0  0
  -18.0356  -26.0063   22.9023 H   0  0  0  0  0  0
  -19.7927  -30.7251   24.2292 H   0  0  0  0  0  0
  -17.5011  -31.6261   24.5171 H   0  0  0  0  0  0
  -15.5349  -30.2990   23.7649 H   0  0  0  0  0  0
  -15.8665  -28.0826   22.7052 H   0  0  0  0  0  0
  -24.5910  -30.7060   25.7815 H   0  0  0  0  0  0
  -24.8946  -32.2860   26.4947 H   0  0  0  0  0  0
  -25.8103  -30.8866   27.0217 H   0  0  0  0  0  0
  -26.2847  -29.6813   24.1148 H   0  0  0  0  0  0
  -27.4051  -29.7279   25.4572 H   0  0  0  0  0  0
  -27.8699  -30.4361   23.9276 H   0  0  0  0  0  0
  -27.2669  -33.3606   26.2109 H   0  0  0  0  0  0
  -28.3848  -32.6905   25.0305 H   0  0  0  0  0  0
  -28.0742  -31.8418   26.5370 H   0  0  0  0  0  0
  -28.2606  -38.0102   24.7505 H   0  0  0  0  0  0
  -28.1065  -36.2631   24.6299 H   0  0  0  0  0  0
  -27.2294  -37.1480   25.8864 H   0  0  0  0  0  0
  -20.9268  -29.8789   21.6969 H   0  0  0  0  0  0
  -26.0183  -38.2871   24.1406 H   0  0  0  0  0  0
  -31.3003  -19.4860   21.3091 H   0  0  0  0  0  0
  -26.9950  -19.4910   20.9865 H   0  0  0  0  0  0
  -31.3230  -21.9107   20.8849 H   0  0  0  0  0  0
  -27.0131  -21.9025   20.5800 H   0  0  0  0  0  0
  -28.1557  -17.3961   20.9902 H   0  0  0  0  0  0
  -28.9264  -17.6472   22.5324 H   0  0  0  0  0  0
  -31.1582  -17.1412   21.5614 H   0  0  0  0  0  0
  -30.4775  -17.1239   19.9439 H   0  0  0  0  0  0
  -27.6325  -23.6115   19.2103 H   0  0  0  0  0  0
  -27.4282  -24.3836   20.7732 H   0  0  0  0  0  0
  -28.0689  -25.6584   18.3368 H   0  0  0  0  0  0
  -29.6299  -25.4610   19.0225 H   0  0  0  0  0  0
  -29.0737  -15.2046   21.5034 H   0  0  0  0  0  0
  1 25  1  0  0  0
  1 30  2  0  0  0
  1 81  1  0  0  0
  2  3  1  0  0  0
  2 25  1  0  0  0
  2 83  1  0  0  0
  2 84  1  0  0  0
  3  4  1  0  0  0
  3 85  1  0  0  0
  3 86  1  0  0  0
  4  5  1  0  0  0
  4 87  1  0  0  0
  4 88  1  0  0  0
  5  6  1  0  0  0
  5 26  1  0  0  0
  5 89  1  0  0  0
  6 25  1  0  0  0
  6 90  1  0  0  0
  6 91  1  0  0  0
  7  8  2  0  0  0
  7 26  1  0  0  0
  7 29  1  0  0  0
  8  9  1  0  0  0
  8 22  1  0  0  0
  9 10  1  0  0  0
  9 27  2  0  0  0
 10 11  2  0  0  0
 10 15  1  0  0  0
 11 12  1  0  0  0
 11 92  1  0  0  0
 12 13  2  0  0  0
 12 93  1  0  0  0
 13 14  1  0  0  0
 13 31  1  0  0  0
 14 15  2  0  0  0
 14 94  1  0  0  0
 15 95  1  0  0  0
 16 17  2  0  0  0
 16 21  1  0  0  0
 16 31  1  0  0  0
 17 18  1  0  0  0
 17 96  1  0  0  0
 18 19  2  0  0  0
 18 97  1  0  0  0
 19 20  1  0  0  0
 19 24  1  0  0  0
 20 21  2  0  0  0
 20 98  1  0  0  0
 21 23  1  0  0  0
 22 28  1  0  0  0
 22 32  2  0  0  0
 26 27  1  0  0  0
 28 99  1  0  0  0
 28100  1  0  0  0
 29101  1  0  0  0
 29102  1  0  0  0
 33 34  1  0  0  0
 33 66  1  0  0  0
 33 70  2  0  0  0
 34 36  1  0  0  0
 34 59  1  0  0  0
 34103  1  0  0  0
 35 44  2  0  0  0
 35 45  1  0  0  0
 35 68  1  0  0  0
 36 56  1  0  0  0
 36104  1  0  0  0
 37 39  1  0  0  0
 37 47  1  0  0  0
 37 66  1  0  0  0
 37105  1  0  0  0
 38 43  2  0  0  0
 38 46  1  0  0  0
 38 47  1  0  0  0
 39 64  1  0  0  0
 39 67  2  0  0  0
 40 52  1  0  0  0
 40 53  2  0  0  0
 40 58  1  0  0  0
 41106  1  0  0  0
 41107  1  0  0  0
 41108  1  0  0  0
 41 48  1  0  0  0
 42 43  1  0  0  0
 42 66  1  0  0  0
 42109  1  0  0  0
 42110  1  0  0  0
 43 44  1  0  0  0
 44111  1  0  0  0
 45 46  2  0  0  0
 45112  1  0  0  0
 46113  1  0  0  0
 47114  1  0  0  0
 47115  1  0  0  0
 48 56  1  0  0  0
 48 65  1  0  0  0
 48116  1  0  0  0
 49 50  1  0  0  0
 49 53  1  0  0  0
 49 64  1  0  0  0
 49117  1  0  0  0
 50 51  1  0  0  0
 50118  1  0  0  0
 50119  1  0  0  0
 51 52  1  0  0  0
 51120  1  0  0  0
 51121  1  0  0  0
 52122  1  0  0  0
 52123  1  0  0  0
 53 54  1  0  0  0
 54 55  2  0  0  0
 54124  1  0  0  0
 55 57  1  0  0  0
 55125  1  0  0  0
 56 69  2  0  0  0
 57 58  2  0  0  0
 57126  1  0  0  0
 58127  1  0  0  0
 59 60  1  0  0  0
 59 61  1  0  0  0
 59 62  1  0  0  0
 60128  1  0  0  0
 60129  1  0  0  0
 60130  1  0  0  0
 61131  1  0  0  0
 61132  1  0  0  0
 61133  1  0  0  0
 62134  1  0  0  0
 62135  1  0  0  0
 62136  1  0  0  0
 63 65  1  0  0  0
 63137  1  0  0  0
 63138  1  0  0  0
 63139  1  0  0  0
 64140  1  0  0  0
 65141  1  0  0  0
 68 80  1  0  0  0
 71 73  2  0  0  0
 71 75  1  0  0  0
 71142  1  0  0  0
 72 74  1  0  0  0
 72 75  2  0  0  0
 72143  1  0  0  0
 73 76  1  0  0  0
 73144  1  0  0  0
 74 76  2  0  0  0
 74145  1  0  0  0
 75 77  1  0  0  0
 76 82  1  0  0  0
 77 78  1  0  0  0
 77146  1  0  0  0
 77147  1  0  0  0
 78 81  1  0  0  0
 78148  1  0  0  0
 78149  1  0  0  0
 79 80  1  0  0  0
 79 82  1  0  0  0
 79150  1  0  0  0
 79151  1  0  0  0
 80152  1  0  0  0
 80153  1  0  0  0
 81154  1  0  0  0
M  ISO  4   1 100  68 101  80 101  81 100
M  END
> <chiral flag>
0

> <version>
0

> <s_m_source_file>
/data/baiqing/PycharmProjects/Reinvent-master-3.2/result/LINK_invent/BTK/process_docking_weight1_custom_sum_contain_oxygen_bond_distance_aromatic_linkinvent_7_9_3/rearranged_h_0138.sdf

> <i_m_source_file_index>
4

> <r_mmod_Potential_Energy-OPLS-2005>
-81.8928909301758

> <r_mmod_Stretch_Energy-OPLS-2005>
39.066234588623

> <r_mmod_Bend_Energy-OPLS-2005>
106.27530670166

> <r_mmod_Torsional_Energy-OPLS-2005>
191.066665649414

> <r_mmod_Improper_Torsional_Energy-OPLS-2005>
4.18427801132202

> <r_mmod_Van_der_Waal_Energy-OPLS-2005>
154.874603271484

> <r_mmod_Electrostatic_Energy-OPLS-2005>
-371.003784179688

> <r_mmod_Solvation_Energy-OPLS-2005>
-218.719528198242

> <b_mmod_Minimization_Converged-OPLS-2005>
0

> <r_mmod_RMS_Derivative-OPLS-2005>
1.18248784542084

$$$$
4
                    3D
 Structure written by MMmdl.
167177  0  0  1  0            999 V2000
  -30.6065  -14.9117   20.4482 C   0  0  0  0  0  0
  -30.4116  -12.5778   19.4994 C   0  0  0  0  0  0
  -29.5070  -12.5311   18.2525 C   0  0  0  0  0  0
  -28.0447  -12.2930   18.6707 C   0  0  0  0  0  0
  -27.6113  -13.2313   19.8221 C   0  0  2  0  0  0
  -28.6506  -13.2888   20.9647 C   0  0  0  0  0  0
  -25.2359  -13.8141   20.5621 C   0  0  0  0  0  0
  -24.1706  -13.0361   20.9194 C   0  0  0  0  0  0
  -24.6340  -11.6854   20.8751 C   0  0  0  0  0  0
  -23.9031  -10.4236   21.0423 C   0  0  0  0  0  0
  -24.3596   -9.4166   21.9201 C   0  0  0  0  0  0
  -23.6278   -8.2205   22.0752 C   0  0  0  0  0  0
  -22.4270   -8.0245   21.3521 C   0  0  0  0  0  0
  -21.9888   -9.0224   20.4646 C   0  0  0  0  0  0
  -22.7201  -10.2103   20.3069 C   0  0  0  0  0  0
  -21.6844   -6.0719   22.5270 C   0  0  0  0  0  0
  -21.4024   -6.5640   23.8206 C   0  0  0  0  0  0
  -21.3671   -5.6790   24.9163 C   0  0  0  0  0  0
  -21.6033   -4.3051   24.7220 C   0  0  0  0  0  0
  -21.8812   -3.8132   23.4338 C   0  0  0  0  0  0
  -21.9186   -4.6954   22.3402 C   0  0  0  0  0  0
  -22.7743  -13.5158   21.1893 C   0  0  0  0  0  0
  -22.1644   -4.2138   21.0970 F   0  0  0  0  0  0
  -21.5625   -3.4528   25.7729 F   0  0  0  0  0  0
  -29.9252  -13.6980   20.3582 N   0  0  0  0  0  0
  -26.2756  -12.9346   20.3138 N   0  0  0  0  0  0
  -25.9253  -11.6494   20.5711 N   0  0  0  0  0  0
  -22.0426  -12.8168   22.0491 N   0  0  0  0  0  0
  -25.3908  -15.1864   20.3968 N   0  0  0  0  0  0
  -31.8216  -14.8574   20.2241 O   0  0  0  0  0  0
  -21.6616   -6.8865   21.4233 O   0  0  0  0  0  0
  -22.3421  -14.5461   20.6756 O   0  0  0  0  0  0
  -24.6387  -31.8488   23.1892 C   0  0  0  0  0  0
  -25.9177  -32.4723   23.8286 C   0  0  1  0  0  0
  -27.2235  -27.1656   20.1742 C   0  0  0  0  0  0
  -25.5950  -33.8522   24.2220 N   0  0  0  0  0  0
  -23.4401  -30.4661   21.5333 C   0  0  2  0  0  0
  -24.8875  -28.8793   20.1334 C   0  0  0  0  0  0
  -22.7519  -29.4596   22.4865 C   0  0  0  0  0  0
  -18.0286  -28.1334   22.8428 C   0  0  0  0  0  0
  -24.1492  -36.7244   23.2643 C   0  0  0  0  0  0
  -25.9922  -30.7349   21.3791 C   0  0  0  0  0  0
  -26.0636  -29.3371   20.7436 C   0  0  0  0  0  0
  -27.2346  -28.4972   20.7438 C   0  0  0  0  0  0
  -26.0248  -26.7967   19.5324 C   0  0  0  0  0  0
  -24.8748  -27.6160   19.5207 C   0  0  0  0  0  0
  -23.6670  -29.7855   20.1568 C   0  0  0  0  0  0
  -25.4117  -36.3033   24.0328 C   0  0  1  0  0  0
  -20.5896  -28.3711   23.1192 C   0  0  2  0  0  0
  -20.6845  -26.9426   22.5350 C   0  0  0  0  0  0
  -19.5804  -26.6294   21.5206 C   0  0  0  0  0  0
  -18.1975  -26.7844   22.1611 C   0  0  0  0  0  0
  -19.1526  -28.8832   23.2803 C   0  0  0  0  0  0
  -18.9438  -30.1432   23.8829 C   0  0  0  0  0  0
  -17.6436  -30.6573   24.0454 C   0  0  0  0  0  0
  -25.9078  -34.9416   23.5078 C   0  0  0  0  0  0
  -16.5341  -29.9045   23.6262 C   0  0  0  0  0  0
  -16.7257  -28.6443   23.0328 C   0  0  0  0  0  0
  -26.4531  -31.6555   25.0683 C   0  0  0  0  0  0
  -25.3745  -31.3700   26.1396 C   0  0  0  0  0  0
  -27.0377  -30.2967   24.6179 C   0  0  0  0  0  0
  -27.6083  -32.4276   25.7455 C   0  0  0  0  0  0
  -27.5565  -37.1771   24.8473 C   0  0  0  0  0  0
  -21.4206  -29.3073   22.3572 N   0  0  0  0  0  0
  -26.4276  -37.3744   23.9415 N   0  0  0  0  0  0
  -24.7095  -31.0396   22.0885 N   0  0  0  0  0  0
  -23.4161  -28.8159   23.3022 O   0  0  0  0  0  0
  -28.3431  -26.2965   20.0052 O   0  0  0  0  0  0
  -26.5655  -34.8917   22.4652 O   0  0  0  0  0  0
  -23.5517  -32.1330   23.7145 O   0  0  0  0  0  0
  -28.8030  -22.1812   20.5404 C   0  0  0  0  0  0
  -26.7354  -23.4000   20.8516 C   0  0  0  0  0  0
  -28.2000  -20.8668   20.8749 C   0  0  0  0  0  0
  -26.8696  -20.9833   21.4319 C   0  0  0  0  0  0
  -28.1036  -23.4895   20.6069 C   0  0  0  0  0  0
  -26.1161  -22.1964   21.2460 C   0  0  0  0  0  0
  -25.5967  -20.0187   23.6265 C   0  0  0  0  0  0
  -24.9468  -19.3285   22.4386 C   0  0  0  0  0  0
  -28.0778  -18.0689   20.4363 C   0  0  0  0  0  0
  -30.2378  -18.9481   20.1828 C   0  0  0  0  0  0
  -28.6077  -16.6215   20.8803 C   0  0  0  0  0  0
  -30.8410  -17.4874   20.5542 C   0  0  0  0  0  0
  -28.9079  -19.3529   20.9001 C   0  0  0  0  0  0
  -26.3636  -19.8467   22.3405 C   0  0  0  0  0  0
  -24.6164  -22.3228   21.4932 C   0  0  0  0  0  0
  -28.7244  -24.9916   20.7272 C   0  0  0  0  0  0
  -30.0009  -16.2154   20.5299 N   0  0  0  0  0  0
  -31.4493  -12.7065   19.1881 H   0  0  0  0  0  0
  -30.3786  -11.6285   20.0399 H   0  0  0  0  0  0
  -29.8397  -11.7544   17.5631 H   0  0  0  0  0  0
  -29.5877  -13.4750   17.7102 H   0  0  0  0  0  0
  -27.9525  -11.2543   18.9902 H   0  0  0  0  0  0
  -27.3820  -12.4127   17.8139 H   0  0  0  0  0  0
  -27.5505  -14.2031   19.3399 H   0  0  0  0  0  0
  -28.7400  -12.3190   21.4574 H   0  0  0  0  0  0
  -28.3442  -13.9936   21.7392 H   0  0  0  0  0  0
  -25.2751   -9.5636   22.4768 H   0  0  0  0  0  0
  -23.9978   -7.4591   22.7479 H   0  0  0  0  0  0
  -21.0800   -8.8760   19.8960 H   0  0  0  0  0  0
  -22.3667  -10.9658   19.6187 H   0  0  0  0  0  0
  -21.2038   -7.6147   23.9704 H   0  0  0  0  0  0
  -21.1500   -6.0521   25.9070 H   0  0  0  0  0  0
  -22.0591   -2.7593   23.2829 H   0  0  0  0  0  0
  -22.4083  -11.9837   22.4854 H   0  0  0  0  0  0
  -21.1081  -13.1229   22.2775 H   0  0  0  0  0  0
  -24.6099  -15.8253   20.5041 H   0  0  0  0  0  0
  -26.2253  -15.6366   20.0475 H   0  0  0  0  0  0
  -26.7222  -32.5372   23.1009 H   0  0  0  0  0  0
  -25.0064  -33.9637   25.0341 H   0  0  0  0  0  0
  -22.7436  -31.2923   21.3752 H   0  0  0  0  0  0
  -23.3764  -35.9571   23.3306 H   0  0  0  0  0  0
  -24.3583  -36.8859   22.2058 H   0  0  0  0  0  0
  -23.7242  -37.6441   23.6667 H   0  0  0  0  0  0
  -26.1324  -31.4784   20.5933 H   0  0  0  0  0  0
  -26.8693  -30.8026   22.0116 H   0  0  0  0  0  0
  -28.1503  -28.8604   21.1860 H   0  0  0  0  0  0
  -25.9871  -25.8489   19.0139 H   0  0  0  0  0  0
  -23.9772  -27.2628   19.0347 H   0  0  0  0  0  0
  -23.8163  -30.5557   19.4004 H   0  0  0  0  0  0
  -22.7810  -29.2298   19.8417 H   0  0  0  0  0  0
  -25.1301  -36.1863   25.0819 H   0  0  0  0  0  0
  -20.9934  -28.3328   24.1327 H   0  0  0  0  0  0
  -20.5810  -26.2331   23.3569 H   0  0  0  0  0  0
  -21.6725  -26.7517   22.1108 H   0  0  0  0  0  0
  -19.7019  -25.6150   21.1383 H   0  0  0  0  0  0
  -19.6751  -27.2970   20.6634 H   0  0  0  0  0  0
  -17.4217  -26.6411   21.4076 H   0  0  0  0  0  0
  -18.0489  -26.0063   22.9090 H   0  0  0  0  0  0
  -19.7900  -30.7220   24.2208 H   0  0  0  0  0  0
  -17.4988  -31.6276   24.5009 H   0  0  0  0  0  0
  -15.5339  -30.2922   23.7600 H   0  0  0  0  0  0
  -15.8657  -28.0735   22.7114 H   0  0  0  0  0  0
  -24.5965  -30.7007   25.7705 H   0  0  0  0  0  0
  -24.8908  -32.2875   26.4759 H   0  0  0  0  0  0
  -25.8081  -30.8916   27.0192 H   0  0  0  0  0  0
  -26.2978  -29.6721   24.1171 H   0  0  0  0  0  0
  -27.4019  -29.7219   25.4699 H   0  0  0  0  0  0
  -27.8875  -30.4236   23.9469 H   0  0  0  0  0  0
  -27.2725  -33.3601   26.2006 H   0  0  0  0  0  0
  -28.3931  -32.6774   25.0297 H   0  0  0  0  0  0
  -28.0725  -31.8402   26.5387 H   0  0  0  0  0  0
  -28.2574  -38.0067   24.7500 H   0  0  0  0  0  0
  -28.1062  -36.2592   24.6323 H   0  0  0  0  0  0
  -27.2289  -37.1459   25.8878 H   0  0  0  0  0  0
  -20.9405  -29.8723   21.6701 H   0  0  0  0  0  0
  -26.0141  -38.2808   24.1444 H   0  0  0  0  0  0
  -29.8589  -22.1917   20.3070 H   0  0  0  0  0  0
  -26.1699  -24.3214   20.8550 H   0  0  0  0  0  0
  -25.8766  -19.3691   24.4561 H   0  0  0  0  0  0
  -25.3345  -21.0264   23.9252 H   0  0  0  0  0  0
  -24.1138  -19.8387   21.9709 H   0  0  0  0  0  0
  -24.8284  -18.2483   22.4870 H   0  0  0  0  0  0
  -27.0400  -18.1050   20.7478 H   0  0  0  0  0  0
  -27.9815  -18.0830   19.3498 H   0  0  0  0  0  0
  -30.9990  -19.6958   20.4054 H   0  0  0  0  0  0
  -30.0872  -19.0084   19.1031 H   0  0  0  0  0  0
  -27.9316  -15.9044   20.4458 H   0  0  0  0  0  0
  -28.4950  -16.5148   21.9603 H   0  0  0  0  0  0
  -31.2235  -17.5560   21.5747 H   0  0  0  0  0  0
  -31.7186  -17.3344   19.9235 H   0  0  0  0  0  0
  -29.1541  -19.2235   21.9528 H   0  0  0  0  0  0
  -27.1552  -19.1515   22.5751 H   0  0  0  0  0  0
  -24.2517  -23.3154   21.2308 H   0  0  0  0  0  0
  -24.3367  -22.1858   22.5323 H   0  0  0  0  0  0
  -24.0576  -21.6362   20.8572 H   0  0  0  0  0  0
  -29.7877  -24.8613   20.5233 H   0  0  0  0  0  0
  -28.6857  -25.2422   21.7885 H   0  0  0  0  0  0
  1 25  1  0  0  0
  1 30  2  0  0  0
  1 87  1  0  0  0
  2  3  1  0  0  0
  2 25  1  0  0  0
  2 88  1  0  0  0
  2 89  1  0  0  0
  3  4  1  0  0  0
  3 90  1  0  0  0
  3 91  1  0  0  0
  4  5  1  0  0  0
  4 92  1  0  0  0
  4 93  1  0  0  0
  5  6  1  0  0  0
  5 26  1  0  0  0
  5 94  1  0  0  0
  6 25  1  0  0  0
  6 95  1  0  0  0
  6 96  1  0  0  0
  7  8  2  0  0  0
  7 26  1  0  0  0
  7 29  1  0  0  0
  8  9  1  0  0  0
  8 22  1  0  0  0
  9 10  1  0  0  0
  9 27  2  0  0  0
 10 11  2  0  0  0
 10 15  1  0  0  0
 11 12  1  0  0  0
 11 97  1  0  0  0
 12 13  2  0  0  0
 12 98  1  0  0  0
 13 14  1  0  0  0
 13 31  1  0  0  0
 14 15  2  0  0  0
 14 99  1  0  0  0
 15100  1  0  0  0
 16 17  2  0  0  0
 16 21  1  0  0  0
 16 31  1  0  0  0
 17 18  1  0  0  0
 17101  1  0  0  0
 18 19  2  0  0  0
 18102  1  0  0  0
 19 20  1  0  0  0
 19 24  1  0  0  0
 20 21  2  0  0  0
 20103  1  0  0  0
 21 23  1  0  0  0
 22 28  1  0  0  0
 22 32  2  0  0  0
 26 27  1  0  0  0
 28104  1  0  0  0
 28105  1  0  0  0
 29106  1  0  0  0
 29107  1  0  0  0
 33 34  1  0  0  0
 33 66  1  0  0  0
 33 70  2  0  0  0
 34 36  1  0  0  0
 34 59  1  0  0  0
 34108  1  0  0  0
 35 44  2  0  0  0
 35 45  1  0  0  0
 35 68  1  0  0  0
 36 56  1  0  0  0
 36109  1  0  0  0
 37 39  1  0  0  0
 37 47  1  0  0  0
 37 66  1  0  0  0
 37110  1  0  0  0
 38 43  2  0  0  0
 38 46  1  0  0  0
 38 47  1  0  0  0
 39 64  1  0  0  0
 39 67  2  0  0  0
 40 52  1  0  0  0
 40 53  2  0  0  0
 40 58  1  0  0  0
 41111  1  0  0  0
 41112  1  0  0  0
 41113  1  0  0  0
 41 48  1  0  0  0
 42 43  1  0  0  0
 42 66  1  0  0  0
 42114  1  0  0  0
 42115  1  0  0  0
 43 44  1  0  0  0
 44116  1  0  0  0
 45 46  2  0  0  0
 45117  1  0  0  0
 46118  1  0  0  0
 47119  1  0  0  0
 47120  1  0  0  0
 48 56  1  0  0  0
 48 65  1  0  0  0
 48121  1  0  0  0
 49 50  1  0  0  0
 49 53  1  0  0  0
 49 64  1  0  0  0
 49122  1  0  0  0
 50 51  1  0  0  0
 50123  1  0  0  0
 50124  1  0  0  0
 51 52  1  0  0  0
 51125  1  0  0  0
 51126  1  0  0  0
 52127  1  0  0  0
 52128  1  0  0  0
 53 54  1  0  0  0
 54 55  2  0  0  0
 54129  1  0  0  0
 55 57  1  0  0  0
 55130  1  0  0  0
 56 69  2  0  0  0
 57 58  2  0  0  0
 57131  1  0  0  0
 58132  1  0  0  0
 59 60  1  0  0  0
 59 61  1  0  0  0
 59 62  1  0  0  0
 60133  1  0  0  0
 60134  1  0  0  0
 60135  1  0  0  0
 61136  1  0  0  0
 61137  1  0  0  0
 61138  1  0  0  0
 62139  1  0  0  0
 62140  1  0  0  0
 62141  1  0  0  0
 63 65  1  0  0  0
 63142  1  0  0  0
 63143  1  0  0  0
 63144  1  0  0  0
 64145  1  0  0  0
 65146  1  0  0  0
 68 86  1  0  0  0
 71 73  2  0  0  0
 71 75  1  0  0  0
 71147  1  0  0  0
 72 75  2  0  0  0
 72 76  1  0  0  0
 72148  1  0  0  0
 73 74  1  0  0  0
 73 83  1  0  0  0
 74 76  2  0  0  0
 74 84  1  0  0  0
 75 86  1  0  0  0
 76 85  1  0  0  0
 77 78  1  0  0  0
 77 84  1  0  0  0
 77149  1  0  0  0
 77150  1  0  0  0
 78 84  1  0  0  0
 78151  1  0  0  0
 78152  1  0  0  0
 79 81  1  0  0  0
 79 83  1  0  0  0
 79153  1  0  0  0
 79154  1  0  0  0
 80 82  1  0  0  0
 80 83  1  0  0  0
 80155  1  0  0  0
 80156  1  0  0  0
 81 87  1  0  0  0
 81157  1  0  0  0
 81158  1  0  0  0
 82 87  1  0  0  0
 82159  1  0  0  0
 82160  1  0  0  0
 83161  1  0  0  0
 84162  1  0  0  0
 85163  1  0  0  0
 85164  1  0  0  0
 85165  1  0  0  0
 86166  1  0  0  0
 86167  1  0  0  0
M  ISO  4   1 100  68 101  86 101  87 100
M  END
> <chiral flag>
0

> <version>
0

> <s_m_source_file>
/data/baiqing/PycharmProjects/Reinvent-master-3.2/result/LINK_invent/BTK/process_docking_weight1_custom_sum_contain_oxygen_bond_distance_aromatic_linkinvent_7_9_3/rearranged_h_0138.sdf

> <i_m_source_file_index>
5

> <r_mmod_Potential_Energy-OPLS-2005>
815.727355957031

> <r_mmod_Stretch_Energy-OPLS-2005>
226.932113647461

> <r_mmod_Bend_Energy-OPLS-2005>
352.795135498047

> <r_mmod_Torsional_Energy-OPLS-2005>
395.420959472656

> <r_mmod_Improper_Torsional_Energy-OPLS-2005>
10.5586462020874

> <r_mmod_Van_der_Waal_Energy-OPLS-2005>
160.961334228516

> <r_mmod_Electrostatic_Energy-OPLS-2005>
-289.959228515625

> <r_mmod_Solvation_Energy-OPLS-2005>
-196.371246337891

> <b_mmod_Minimization_Converged-OPLS-2005>
0

> <r_mmod_RMS_Derivative-OPLS-2005>
4.04562950134277

$$$$
5
                    3D
 Structure written by MMmdl.
164173  0  0  1  0            999 V2000
  -30.7212  -14.3969   20.6093 C   0  0  0  0  0  0
  -30.4187  -12.2757   19.3999 C   0  0  0  0  0  0
  -29.4890  -12.5161   18.1942 C   0  0  0  0  0  0
  -28.0081  -12.3871   18.6036 C   0  0  0  0  0  0
  -27.6667  -13.1987   19.8842 C   0  0  2  0  0  0
  -28.7073  -12.9334   20.9953 C   0  0  0  0  0  0
  -25.2615  -13.8140   20.5643 C   0  0  0  0  0  0
  -24.1844  -13.0442   20.9157 C   0  0  0  0  0  0
  -24.6372  -11.6892   20.8732 C   0  0  0  0  0  0
  -23.9021  -10.4280   21.0409 C   0  0  0  0  0  0
  -24.3594   -9.4188   21.9175 C   0  0  0  0  0  0
  -23.6278   -8.2222   22.0735 C   0  0  0  0  0  0
  -22.4264   -8.0257   21.3538 C   0  0  0  0  0  0
  -21.9873   -9.0234   20.4679 C   0  0  0  0  0  0
  -22.7184  -10.2113   20.3070 C   0  0  0  0  0  0
  -21.6840   -6.0724   22.5271 C   0  0  0  0  0  0
  -21.4013   -6.5635   23.8206 C   0  0  0  0  0  0
  -21.3660   -5.6793   24.9171 C   0  0  0  0  0  0
  -21.6035   -4.3053   24.7216 C   0  0  0  0  0  0
  -21.8818   -3.8139   23.4339 C   0  0  0  0  0  0
  -21.9194   -4.6958   22.3396 C   0  0  0  0  0  0
  -22.7872  -13.5267   21.1807 C   0  0  0  0  0  0
  -22.1681   -4.2145   21.0977 F   0  0  0  0  0  0
  -21.5604   -3.4536   25.7730 F   0  0  0  0  0  0
  -30.0423  -13.2326   20.4470 N   0  0  0  0  0  0
  -26.3049  -12.9290   20.3404 N   0  0  0  0  0  0
  -25.9299  -11.6450   20.5779 N   0  0  0  0  0  0
  -22.0492  -12.8246   22.0340 N   0  0  0  0  0  0
  -25.4316  -15.1841   20.3932 N   0  0  0  0  0  0
  -31.8262  -14.6256   20.1124 O   0  0  0  0  0  0
  -21.6631   -6.8852   21.4230 O   0  0  0  0  0  0
  -22.3571  -14.5604   20.6697 O   0  0  0  0  0  0
  -24.6107  -31.8726   23.2121 C   0  0  0  0  0  0
  -25.9034  -32.4846   23.8399 C   0  0  1  0  0  0
  -27.2285  -27.4625   20.0740 C   0  0  0  0  0  0
  -25.5919  -33.8639   24.2355 N   0  0  0  0  0  0
  -23.3949  -30.4979   21.5555 C   0  0  2  0  0  0
  -24.8353  -28.9678   20.1189 C   0  0  0  0  0  0
  -22.7384  -29.4679   22.5016 C   0  0  0  0  0  0
  -18.0270  -28.1362   22.8505 C   0  0  0  0  0  0
  -24.1485  -36.7320   23.2636 C   0  0  0  0  0  0
  -25.9208  -30.8473   21.3589 C   0  0  0  0  0  0
  -25.9952  -29.4825   20.7076 C   0  0  0  0  0  0
  -27.1927  -28.7367   20.6811 C   0  0  0  0  0  0
  -26.0419  -26.9541   19.4917 C   0  0  0  0  0  0
  -24.8522  -27.7025   19.5108 C   0  0  0  0  0  0
  -23.5982  -29.8337   20.1689 C   0  0  0  0  0  0
  -25.4104  -36.3131   24.0346 C   0  0  1  0  0  0
  -20.5863  -28.3656   23.1326 C   0  0  2  0  0  0
  -20.6751  -26.9397   22.5420 C   0  0  0  0  0  0
  -19.5746  -26.6396   21.5198 C   0  0  0  0  0  0
  -18.1928  -26.7924   22.1618 C   0  0  0  0  0  0
  -19.1515  -28.8824   23.2927 C   0  0  0  0  0  0
  -18.9443  -30.1434   23.8940 C   0  0  0  0  0  0
  -17.6449  -30.6583   24.0570 C   0  0  0  0  0  0
  -25.9035  -34.9490   23.5147 C   0  0  0  0  0  0
  -16.5340  -29.9091   23.6318 C   0  0  0  0  0  0
  -16.7265  -28.6499   23.0358 C   0  0  0  0  0  0
  -26.4465  -31.6595   25.0705 C   0  0  0  0  0  0
  -25.3748  -31.3668   26.1469 C   0  0  0  0  0  0
  -27.0275  -30.3054   24.6013 C   0  0  0  0  0  0
  -27.6077  -32.4275   25.7463 C   0  0  0  0  0  0
  -27.5583  -37.1810   24.8466 C   0  0  0  0  0  0
  -21.4124  -29.3034   22.3743 N   0  0  0  0  0  0
  -26.4300  -37.3803   23.9414 N   0  0  0  0  0  0
  -24.6609  -31.0853   22.1012 N   0  0  0  0  0  0
  -23.4177  -28.8228   23.3037 O   0  0  0  0  0  0
  -28.4337  -26.7936   20.0551 O   0  0  0  0  0  0
  -26.5584  -34.8925   22.4697 O   0  0  0  0  0  0
  -23.5311  -32.1478   23.7536 O   0  0  0  0  0  0
  -27.4739  -18.6271   22.0938 C   0  0  0  0  0  0
  -28.0744  -17.3563   22.1501 C   0  0  0  0  0  0
  -30.1138  -18.3597   23.0087 C   0  0  0  0  0  0
  -28.1975  -19.7903   22.4503 C   0  0  0  0  0  0
  -29.4111  -17.2217   22.5717 C   0  0  0  0  0  0
  -29.5152  -19.6342   22.9567 C   0  0  0  0  0  0
  -26.5110  -21.2430   21.1309 C   0  0  0  0  0  0
  -26.4863  -22.7187   20.7383 C   0  0  0  0  0  0
  -28.5500  -22.2898   21.8728 C   0  0  0  0  0  0
  -27.5489  -21.1716   22.2663 C   0  0  2  0  0  0
  -30.1011  -15.8747   22.4676 C   0  0  0  0  0  0
  -28.0394  -24.6448   21.1264 C   0  0  0  0  0  0
  -28.4509  -25.3830   19.8394 C   0  0  0  0  0  0
  -29.9934  -15.4005   21.0962 N   0  0  0  0  0  0
  -27.8787  -23.1831   20.8974 N   0  3  2  0  0  0
  -26.8866  -21.5589   23.4609 O   0  0  0  0  0  0
  -30.2363  -20.7020   23.3751 F   0  0  0  0  0  0
  -31.4625  -12.3779   19.0962 H   0  0  0  0  0  0
  -30.3115  -11.2541   19.7683 H   0  0  0  0  0  0
  -29.7171  -11.8103   17.3949 H   0  0  0  0  0  0
  -29.6691  -13.5087   17.7821 H   0  0  0  0  0  0
  -27.7968  -11.3290   18.7659 H   0  0  0  0  0  0
  -27.3648  -12.7023   17.7797 H   0  0  0  0  0  0
  -27.7248  -14.2552   19.6221 H   0  0  0  0  0  0
  -28.6736  -11.8905   21.3128 H   0  0  0  0  0  0
  -28.4744  -13.5133   21.8893 H   0  0  0  0  0  0
  -25.2749   -9.5640   22.4737 H   0  0  0  0  0  0
  -23.9991   -7.4592   22.7425 H   0  0  0  0  0  0
  -21.0782   -8.8727   19.9022 H   0  0  0  0  0  0
  -22.3612  -10.9632   19.6182 H   0  0  0  0  0  0
  -21.2017   -7.6152   23.9699 H   0  0  0  0  0  0
  -21.1502   -6.0537   25.9073 H   0  0  0  0  0  0
  -22.0610   -2.7602   23.2831 H   0  0  0  0  0  0
  -22.4130  -11.9922   22.4723 H   0  0  0  0  0  0
  -21.1106  -13.1257   22.2541 H   0  0  0  0  0  0
  -24.6626  -15.8377   20.4915 H   0  0  0  0  0  0
  -26.2736  -15.6086   20.0260 H   0  0  0  0  0  0
  -26.7116  -32.5570   23.1173 H   0  0  0  0  0  0
  -25.0082  -33.9794   25.0506 H   0  0  0  0  0  0
  -22.6833  -31.3148   21.4220 H   0  0  0  0  0  0
  -23.3751  -35.9650   23.3324 H   0  0  0  0  0  0
  -24.3594  -36.8908   22.2050 H   0  0  0  0  0  0
  -23.7232  -37.6525   23.6633 H   0  0  0  0  0  0
  -26.0225  -31.6136   20.5888 H   0  0  0  0  0  0
  -26.8117  -30.9039   21.9716 H   0  0  0  0  0  0
  -28.0945  -29.1383   21.1201 H   0  0  0  0  0  0
  -26.0014  -25.9977   18.9945 H   0  0  0  0  0  0
  -23.9596  -27.3048   19.0466 H   0  0  0  0  0  0
  -23.7066  -30.6105   19.4107 H   0  0  0  0  0  0
  -22.7193  -29.2574   19.8717 H   0  0  0  0  0  0
  -25.1274  -36.2019   25.0843 H   0  0  0  0  0  0
  -20.9961  -28.3225   24.1436 H   0  0  0  0  0  0
  -20.5628  -26.2263   23.3599 H   0  0  0  0  0  0
  -21.6623  -26.7438   22.1217 H   0  0  0  0  0  0
  -19.6922  -25.6309   21.1218 H   0  0  0  0  0  0
  -19.6681  -27.3198   20.6720 H   0  0  0  0  0  0
  -17.4182  -26.6685   21.4027 H   0  0  0  0  0  0
  -18.0355  -26.0023   22.8970 H   0  0  0  0  0  0
  -19.7914  -30.7246   24.2321 H   0  0  0  0  0  0
  -17.4999  -31.6260   24.5161 H   0  0  0  0  0  0
  -15.5341  -30.3017   23.7593 H   0  0  0  0  0  0
  -15.8667  -28.0832   22.7058 H   0  0  0  0  0  0
  -24.5972  -30.6949   25.7810 H   0  0  0  0  0  0
  -24.8858  -32.2786   26.4905 H   0  0  0  0  0  0
  -25.8125  -30.8878   27.0239 H   0  0  0  0  0  0
  -26.2780  -29.6847   24.1079 H   0  0  0  0  0  0
  -27.4099  -29.7256   25.4425 H   0  0  0  0  0  0
  -27.8598  -30.4399   23.9097 H   0  0  0  0  0  0
  -27.2756  -33.3596   26.2042 H   0  0  0  0  0  0
  -28.3876  -32.6786   25.0261 H   0  0  0  0  0  0
  -28.0746  -31.8379   26.5362 H   0  0  0  0  0  0
  -28.2602  -38.0101   24.7506 H   0  0  0  0  0  0
  -28.1077  -36.2634   24.6306 H   0  0  0  0  0  0
  -27.2307  -37.1478   25.8869 H   0  0  0  0  0  0
  -20.9285  -29.8770   21.6971 H   0  0  0  0  0  0
  -26.0212  -38.2892   24.1410 H   0  0  0  0  0  0
  -26.4576  -18.6935   21.7364 H   0  0  0  0  0  0
  -27.5206  -16.4840   21.8271 H   0  0  0  0  0  0
  -31.1352  -18.2722   23.3511 H   0  0  0  0  0  0
  -26.8561  -20.6704   20.2690 H   0  0  0  0  0  0
  -25.5245  -20.8638   21.4020 H   0  0  0  0  0  0
  -25.8249  -23.2530   21.4211 H   0  0  0  0  0  0
  -26.1180  -22.8774   19.7236 H   0  0  0  0  0  0
  -29.4115  -21.8787   21.3433 H   0  0  0  0  0  0
  -28.9328  -22.8108   22.7521 H   0  0  0  0  0  0
  -29.6362  -15.1689   23.1578 H   0  0  0  0  0  0
  -31.1526  -15.9642   22.7504 H   0  0  0  0  0  0
  -27.1234  -25.0654   21.5403 H   0  0  0  0  0  0
  -28.8094  -24.8362   21.8728 H   0  0  0  0  0  0
  -27.8627  -25.0851   18.9739 H   0  0  0  0  0  0
  -29.4748  -25.1110   19.5850 H   0  0  0  0  0  0
  -30.0168  -16.1935   20.4729 H   0  0  0  0  0  0
  -28.3439  -22.9676   20.0277 H   0  0  0  0  0  0
  -26.3310  -20.8353   23.7299 H   0  0  0  0  0  0
  1 25  1  0  0  0
  1 30  2  0  0  0
  1 84  1  0  0  0
  2  3  1  0  0  0
  2 25  1  0  0  0
  2 88  1  0  0  0
  2 89  1  0  0  0
  3  4  1  0  0  0
  3 90  1  0  0  0
  3 91  1  0  0  0
  4  5  1  0  0  0
  4 92  1  0  0  0
  4 93  1  0  0  0
  5  6  1  0  0  0
  5 26  1  0  0  0
  5 94  1  0  0  0
  6 25  1  0  0  0
  6 95  1  0  0  0
  6 96  1  0  0  0
  7  8  2  0  0  0
  7 26  1  0  0  0
  7 29  1  0  0  0
  8  9  1  0  0  0
  8 22  1  0  0  0
  9 10  1  0  0  0
  9 27  2  0  0  0
 10 11  2  0  0  0
 10 15  1  0  0  0
 11 12  1  0  0  0
 11 97  1  0  0  0
 12 13  2  0  0  0
 12 98  1  0  0  0
 13 14  1  0  0  0
 13 31  1  0  0  0
 14 15  2  0  0  0
 14 99  1  0  0  0
 15100  1  0  0  0
 16 17  2  0  0  0
 16 21  1  0  0  0
 16 31  1  0  0  0
 17 18  1  0  0  0
 17101  1  0  0  0
 18 19  2  0  0  0
 18102  1  0  0  0
 19 20  1  0  0  0
 19 24  1  0  0  0
 20 21  2  0  0  0
 20103  1  0  0  0
 21 23  1  0  0  0
 22 28  1  0  0  0
 22 32  2  0  0  0
 26 27  1  0  0  0
 28104  1  0  0  0
 28105  1  0  0  0
 29106  1  0  0  0
 29107  1  0  0  0
 33 34  1  0  0  0
 33 66  1  0  0  0
 33 70  2  0  0  0
 34 36  1  0  0  0
 34 59  1  0  0  0
 34108  1  0  0  0
 35 44  2  0  0  0
 35 45  1  0  0  0
 35 68  1  0  0  0
 36 56  1  0  0  0
 36109  1  0  0  0
 37 39  1  0  0  0
 37 47  1  0  0  0
 37 66  1  0  0  0
 37110  1  0  0  0
 38 43  2  0  0  0
 38 46  1  0  0  0
 38 47  1  0  0  0
 39 64  1  0  0  0
 39 67  2  0  0  0
 40 52  1  0  0  0
 40 53  2  0  0  0
 40 58  1  0  0  0
 41111  1  0  0  0
 41112  1  0  0  0
 41113  1  0  0  0
 41 48  1  0  0  0
 42 43  1  0  0  0
 42 66  1  0  0  0
 42114  1  0  0  0
 42115  1  0  0  0
 43 44  1  0  0  0
 44116  1  0  0  0
 45 46  2  0  0  0
 45117  1  0  0  0
 46118  1  0  0  0
 47119  1  0  0  0
 47120  1  0  0  0
 48 56  1  0  0  0
 48 65  1  0  0  0
 48121  1  0  0  0
 49 50  1  0  0  0
 49 53  1  0  0  0
 49 64  1  0  0  0
 49122  1  0  0  0
 50 51  1  0  0  0
 50123  1  0  0  0
 50124  1  0  0  0
 51 52  1  0  0  0
 51125  1  0  0  0
 51126  1  0  0  0
 52127  1  0  0  0
 52128  1  0  0  0
 53 54  1  0  0  0
 54 55  2  0  0  0
 54129  1  0  0  0
 55 57  1  0  0  0
 55130  1  0  0  0
 56 69  2  0  0  0
 57 58  2  0  0  0
 57131  1  0  0  0
 58132  1  0  0  0
 59 60  1  0  0  0
 59 61  1  0  0  0
 59 62  1  0  0  0
 60133  1  0  0  0
 60134  1  0  0  0
 60135  1  0  0  0
 61136  1  0  0  0
 61137  1  0  0  0
 61138  1  0  0  0
 62139  1  0  0  0
 62140  1  0  0  0
 62141  1  0  0  0
 63 65  1  0  0  0
 63142  1  0  0  0
 63143  1  0  0  0
 63144  1  0  0  0
 64145  1  0  0  0
 65146  1  0  0  0
 68 83  1  0  0  0
 71 72  2  0  0  0
 71 74  1  0  0  0
 71147  1  0  0  0
 72 75  1  0  0  0
 72148  1  0  0  0
 73 75  2  0  0  0
 73 76  1  0  0  0
 73149  1  0  0  0
 74 76  2  0  0  0
 74 80  1  0  0  0
 75 81  1  0  0  0
 76 87  1  0  0  0
 77 78  1  0  0  0
 77 80  1  0  0  0
 77150  1  0  0  0
 77151  1  0  0  0
 78 85  1  0  0  0
 78152  1  0  0  0
 78153  1  0  0  0
 79 80  1  0  0  0
 79 85  1  0  0  0
 79154  1  0  0  0
 79155  1  0  0  0
 80 86  1  0  0  0
 81 84  1  0  0  0
 81156  1  0  0  0
 81157  1  0  0  0
 82 83  1  0  0  0
 82158  1  0  0  0
 82159  1  0  0  0
 82 85  1  0  0  0
 83160  1  0  0  0
 83161  1  0  0  0
 84162  1  0  0  0
 85163  1  0  0  0
 86164  1  0  0  0
M  CHG  1  85   1
M  ISO  4   1 100  68 101  83 101  84 100
M  END
> <chiral flag>
0

> <version>
0

> <s_m_source_file>
/data/baiqing/PycharmProjects/Reinvent-master-3.2/result/LINK_invent/BTK/process_docking_weight1_custom_sum_contain_oxygen_bond_distance_aromatic_linkinvent_7_9_3/rearranged_h_0138.sdf

> <i_m_source_file_index>
6

> <r_mmod_Potential_Energy-OPLS-2005>
-73.0478744506836

> <r_mmod_Stretch_Energy-OPLS-2005>
33.6743583679199

> <r_mmod_Bend_Energy-OPLS-2005>
127.868301391602

> <r_mmod_Torsional_Energy-OPLS-2005>
348.223083496094

> <r_mmod_Improper_Torsional_Energy-OPLS-2005>
11.9020738601685

> <r_mmod_Van_der_Waal_Energy-OPLS-2005>
157.591873168945

> <r_mmod_Electrostatic_Energy-OPLS-2005>
-326.643981933594

> <r_mmod_Solvation_Energy-OPLS-2005>
-434.527984619141

> <b_mmod_Minimization_Converged-OPLS-2005>
0

> <r_mmod_RMS_Derivative-OPLS-2005>
2.74071669578552

$$$$
6
                    3D
 Structure written by MMmdl.
166174  0  0  1  0            999 V2000
  -30.7114  -14.4504   20.5979 C   0  0  0  0  0  0
  -30.4247  -12.3064   19.4133 C   0  0  0  0  0  0
  -29.4906  -12.5123   18.2029 C   0  0  0  0  0  0
  -28.0132  -12.3649   18.6172 C   0  0  0  0  0  0
  -27.6634  -13.1997   19.8780 C   0  0  2  0  0  0
  -28.7046  -12.9738   20.9974 C   0  0  0  0  0  0
  -25.2613  -13.8131   20.5681 C   0  0  0  0  0  0
  -24.1842  -13.0445   20.9167 C   0  0  0  0  0  0
  -24.6372  -11.6910   20.8732 C   0  0  0  0  0  0
  -23.9026  -10.4312   21.0423 C   0  0  0  0  0  0
  -24.3591   -9.4225   21.9197 C   0  0  0  0  0  0
  -23.6285   -8.2252   22.0757 C   0  0  0  0  0  0
  -22.4271   -8.0281   21.3541 C   0  0  0  0  0  0
  -21.9903   -9.0254   20.4653 C   0  0  0  0  0  0
  -22.7208  -10.2150   20.3070 C   0  0  0  0  0  0
  -21.6853   -6.0754   22.5276 C   0  0  0  0  0  0
  -21.4015   -6.5652   23.8213 C   0  0  0  0  0  0
  -21.3658   -5.6799   24.9172 C   0  0  0  0  0  0
  -21.6051   -4.3061   24.7224 C   0  0  0  0  0  0
  -21.8818   -3.8159   23.4341 C   0  0  0  0  0  0
  -21.9190   -4.6985   22.3402 C   0  0  0  0  0  0
  -22.7884  -13.5280   21.1849 C   0  0  0  0  0  0
  -22.1665   -4.2171   21.0984 F   0  0  0  0  0  0
  -21.5622   -3.4550   25.7739 F   0  0  0  0  0  0
  -30.0378  -13.2772   20.4483 N   0  0  0  0  0  0
  -26.3029  -12.9288   20.3377 N   0  0  0  0  0  0
  -25.9297  -11.6459   20.5780 N   0  0  0  0  0  0
  -22.0511  -12.8257   22.0389 N   0  0  0  0  0  0
  -25.4391  -15.1818   20.4101 N   0  0  0  0  0  0
  -31.7973  -14.6814   20.0636 O   0  0  0  0  0  0
  -21.6629   -6.8889   21.4234 O   0  0  0  0  0  0
  -22.3598  -14.5611   20.6718 O   0  0  0  0  0  0
  -24.6146  -31.8667   23.2090 C   0  0  0  0  0  0
  -25.9028  -32.4823   23.8398 C   0  0  1  0  0  0
  -27.2353  -27.4287   20.1006 C   0  0  0  0  0  0
  -25.5887  -33.8625   24.2334 N   0  0  0  0  0  0
  -23.4043  -30.4905   21.5490 C   0  0  2  0  0  0
  -24.8526  -28.9524   20.1172 C   0  0  0  0  0  0
  -22.7402  -29.4672   22.4980 C   0  0  0  0  0  0
  -18.0267  -28.1385   22.8480 C   0  0  0  0  0  0
  -24.1484  -36.7316   23.2641 C   0  0  0  0  0  0
  -25.9348  -30.8310   21.3638 C   0  0  0  0  0  0
  -26.0138  -29.4653   20.7093 C   0  0  0  0  0  0
  -27.2115  -28.7129   20.6925 C   0  0  0  0  0  0
  -26.0568  -26.9285   19.5063 C   0  0  0  0  0  0
  -24.8694  -27.6838   19.5114 C   0  0  0  0  0  0
  -23.6148  -29.8196   20.1652 C   0  0  0  0  0  0
  -25.4104  -36.3121   24.0347 C   0  0  1  0  0  0
  -20.5854  -28.3683   23.1310 C   0  0  2  0  0  0
  -20.6762  -26.9412   22.5405 C   0  0  0  0  0  0
  -19.5729  -26.6367   21.5221 C   0  0  0  0  0  0
  -18.1927  -26.7909   22.1649 C   0  0  0  0  0  0
  -19.1511  -28.8854   23.2888 C   0  0  0  0  0  0
  -18.9432  -30.1456   23.8896 C   0  0  0  0  0  0
  -17.6435  -30.6591   24.0556 C   0  0  0  0  0  0
  -25.9023  -34.9478   23.5144 C   0  0  0  0  0  0
  -16.5328  -29.9089   23.6321 C   0  0  0  0  0  0
  -16.7256  -28.6504   23.0339 C   0  0  0  0  0  0
  -26.4459  -31.6595   25.0720 C   0  0  0  0  0  0
  -25.3727  -31.3691   26.1469 C   0  0  0  0  0  0
  -27.0299  -30.3038   24.6099 C   0  0  0  0  0  0
  -27.6038  -32.4309   25.7480 C   0  0  0  0  0  0
  -27.5583  -37.1811   24.8467 C   0  0  0  0  0  0
  -21.4120  -29.3062   22.3721 N   0  0  0  0  0  0
  -26.4294  -37.3806   23.9411 N   0  0  0  0  0  0
  -24.6695  -31.0769   22.0987 N   0  0  0  0  0  0
  -23.4168  -28.8207   23.3017 O   0  0  0  0  0  0
  -28.3892  -26.6731   20.1080 O   0  0  0  0  0  0
  -26.5600  -34.8926   22.4712 O   0  0  0  0  0  0
  -23.5343  -32.1414   23.7485 O   0  0  0  0  0  0
  -27.4239  -20.7751   21.1910 C   0  0  0  0  0  0
  -29.9761  -20.2163   20.2766 C   0  0  0  0  0  0
  -29.2958  -19.2220   21.0228 C   0  0  0  0  0  0
  -27.9811  -19.5047   21.4788 C   0  0  0  0  0  0
  -28.1530  -21.7450   20.4678 C   0  0  0  0  0  0
  -24.9271  -18.6365   21.3636 C   0  0  0  0  0  0
  -25.5341  -19.4298   23.7369 C   0  0  0  0  0  0
  -30.0204  -17.9184   21.4008 C   0  0  0  0  0  0
  -29.5358  -16.6315   20.6815 C   0  0  0  0  0  0
  -28.3012  -24.1797   19.6897 C   0  0  0  0  0  0
  -28.2645  -25.3613   20.6938 C   0  0  0  0  0  0
  -25.8760  -18.4967   22.5660 C   0  0  0  0  0  0
  -29.3944  -21.4194   20.0370 N   0  3  0  0  0  0
  -27.2954  -18.5120   22.2129 N   0  0  0  0  0  0
  -27.5853  -23.0073   20.2032 N   0  0  0  0  0  0
  -30.0750  -15.4047   21.2945 N   0  0  0  0  0  0
  -31.4675  -12.4132   19.1076 H   0  0  0  0  0  0
  -30.3358  -11.2921   19.8052 H   0  0  0  0  0  0
  -29.7281  -11.7945   17.4178 H   0  0  0  0  0  0
  -29.6541  -13.5035   17.7755 H   0  0  0  0  0  0
  -27.8217  -11.3066   18.8034 H   0  0  0  0  0  0
  -27.3615  -12.6424   17.7877 H   0  0  0  0  0  0
  -27.7135  -14.2494   19.5886 H   0  0  0  0  0  0
  -28.6795  -11.9385   21.3401 H   0  0  0  0  0  0
  -28.4589  -13.5780   21.8715 H   0  0  0  0  0  0
  -25.2747   -9.5706   22.4761 H   0  0  0  0  0  0
  -24.0025   -7.4647   22.7458 H   0  0  0  0  0  0
  -21.0849   -8.8740   19.8958 H   0  0  0  0  0  0
  -22.3647  -10.9680   19.6177 H   0  0  0  0  0  0
  -21.1999   -7.6159   23.9724 H   0  0  0  0  0  0
  -21.1480   -6.0530   25.9077 H   0  0  0  0  0  0
  -22.0596   -2.7625   23.2826 H   0  0  0  0  0  0
  -22.4109  -11.9898   22.4755 H   0  0  0  0  0  0
  -21.1139  -13.1290   22.2610 H   0  0  0  0  0  0
  -24.6830  -15.8465   20.5299 H   0  0  0  0  0  0
  -26.3023  -15.6091   20.1030 H   0  0  0  0  0  0
  -26.7106  -32.5547   23.1172 H   0  0  0  0  0  0
  -25.0054  -33.9793   25.0491 H   0  0  0  0  0  0
  -22.6937  -31.3075   21.4083 H   0  0  0  0  0  0
  -23.3746  -35.9650   23.3322 H   0  0  0  0  0  0
  -24.3582  -36.8908   22.2051 H   0  0  0  0  0  0
  -23.7225  -37.6525   23.6635 H   0  0  0  0  0  0
  -26.0495  -31.5978   20.5966 H   0  0  0  0  0  0
  -26.8223  -30.8861   21.9828 H   0  0  0  0  0  0
  -28.1083  -29.1033   21.1536 H   0  0  0  0  0  0
  -26.0524  -25.9558   19.0374 H   0  0  0  0  0  0
  -23.9764  -27.2809   19.0533 H   0  0  0  0  0  0
  -23.7267  -30.5953   19.4064 H   0  0  0  0  0  0
  -22.7384  -29.2396   19.8679 H   0  0  0  0  0  0
  -25.1277  -36.2012   25.0845 H   0  0  0  0  0  0
  -20.9954  -28.3248   24.1426 H   0  0  0  0  0  0
  -21.6627  -26.7438   22.1206 H   0  0  0  0  0  0
  -20.5648  -26.2287   23.3598 H   0  0  0  0  0  0
  -19.6902  -25.6258   21.1270 H   0  0  0  0  0  0
  -19.6650  -27.3177   20.6754 H   0  0  0  0  0  0
  -17.4159  -26.6589   21.4094 H   0  0  0  0  0  0
  -18.0353  -26.0093   22.9102 H   0  0  0  0  0  0
  -19.7903  -30.7264   24.2291 H   0  0  0  0  0  0
  -17.4981  -31.6270   24.5164 H   0  0  0  0  0  0
  -15.5326  -30.2989   23.7649 H   0  0  0  0  0  0
  -15.8643  -28.0824   22.7065 H   0  0  0  0  0  0
  -24.5894  -30.7048   25.7803 H   0  0  0  0  0  0
  -24.8914  -32.2842   26.4930 H   0  0  0  0  0  0
  -25.8078  -30.8849   27.0219 H   0  0  0  0  0  0
  -26.2861  -29.6797   24.1125 H   0  0  0  0  0  0
  -27.4047  -29.7277   25.4569 H   0  0  0  0  0  0
  -27.8707  -30.4366   23.9284 H   0  0  0  0  0  0
  -27.2662  -33.3595   26.2102 H   0  0  0  0  0  0
  -28.3824  -32.6887   25.0288 H   0  0  0  0  0  0
  -28.0730  -31.8397   26.5355 H   0  0  0  0  0  0
  -28.2610  -38.0096   24.7516 H   0  0  0  0  0  0
  -28.1070  -36.2630   24.6301 H   0  0  0  0  0  0
  -27.2303  -37.1485   25.8869 H   0  0  0  0  0  0
  -20.9279  -29.8757   21.6913 H   0  0  0  0  0  0
  -26.0195  -38.2898   24.1392 H   0  0  0  0  0  0
  -26.4404  -21.0314   21.5420 H   0  0  0  0  0  0
  -30.9789  -20.0869   19.8863 H   0  0  0  0  0  0
  -23.9089  -18.3783   21.6584 H   0  0  0  0  0  0
  -25.2042  -17.9614   20.5554 H   0  0  0  0  0  0
  -24.8879  -19.6431   20.9540 H   0  0  0  0  0  0
  -24.4995  -19.2874   24.0520 H   0  0  0  0  0  0
  -25.6571  -20.4857   23.5031 H   0  0  0  0  0  0
  -26.1588  -19.2073   24.5999 H   0  0  0  0  0  0
  -29.9288  -17.7959   22.4811 H   0  0  0  0  0  0
  -31.0879  -18.0473   21.2163 H   0  0  0  0  0  0
  -29.7776  -16.6857   19.6186 H   0  0  0  0  0  0
  -28.4503  -16.5565   20.7364 H   0  0  0  0  0  0
  -29.3308  -23.9443   19.4221 H   0  0  0  0  0  0
  -27.8056  -24.4710   18.7634 H   0  0  0  0  0  0
  -29.0840  -25.2349   21.4022 H   0  0  0  0  0  0
  -27.3614  -25.3091   21.3054 H   0  0  0  0  0  0
  -25.7137  -17.4822   22.9358 H   0  0  0  0  0  0
  -29.9283  -22.1133   19.5066 H   0  0  0  0  0  0
  -27.8030  -17.6534   22.3964 H   0  0  0  0  0  0
  -26.6308  -23.1612   20.4923 H   0  0  0  0  0  0
  -30.5239  -15.5777   22.1831 H   0  0  0  0  0  0
  1 25  1  0  0  0
  1 30  2  0  0  0
  1 86  1  0  0  0
  2  3  1  0  0  0
  2 25  1  0  0  0
  2 87  1  0  0  0
  2 88  1  0  0  0
  3  4  1  0  0  0
  3 89  1  0  0  0
  3 90  1  0  0  0
  4  5  1  0  0  0
  4 91  1  0  0  0
  4 92  1  0  0  0
  5  6  1  0  0  0
  5 26  1  0  0  0
  5 93  1  0  0  0
  6 25  1  0  0  0
  6 94  1  0  0  0
  6 95  1  0  0  0
  7  8  2  0  0  0
  7 26  1  0  0  0
  7 29  1  0  0  0
  8  9  1  0  0  0
  8 22  1  0  0  0
  9 10  1  0  0  0
  9 27  2  0  0  0
 10 11  2  0  0  0
 10 15  1  0  0  0
 11 12  1  0  0  0
 11 96  1  0  0  0
 12 13  2  0  0  0
 12 97  1  0  0  0
 13 14  1  0  0  0
 13 31  1  0  0  0
 14 15  2  0  0  0
 14 98  1  0  0  0
 15 99  1  0  0  0
 16 17  2  0  0  0
 16 21  1  0  0  0
 16 31  1  0  0  0
 17 18  1  0  0  0
 17100  1  0  0  0
 18 19  2  0  0  0
 18101  1  0  0  0
 19 20  1  0  0  0
 19 24  1  0  0  0
 20 21  2  0  0  0
 20102  1  0  0  0
 21 23  1  0  0  0
 22 28  1  0  0  0
 22 32  2  0  0  0
 26 27  1  0  0  0
 28103  1  0  0  0
 28104  1  0  0  0
 29105  1  0  0  0
 29106  1  0  0  0
 33 34  1  0  0  0
 33 66  1  0  0  0
 33 70  2  0  0  0
 34 36  1  0  0  0
 34 59  1  0  0  0
 34107  1  0  0  0
 35 44  2  0  0  0
 35 45  1  0  0  0
 35 68  1  0  0  0
 36 56  1  0  0  0
 36108  1  0  0  0
 37 39  1  0  0  0
 37 47  1  0  0  0
 37 66  1  0  0  0
 37109  1  0  0  0
 38 43  2  0  0  0
 38 46  1  0  0  0
 38 47  1  0  0  0
 39 64  1  0  0  0
 39 67  2  0  0  0
 40 52  1  0  0  0
 40 53  2  0  0  0
 40 58  1  0  0  0
 41110  1  0  0  0
 41111  1  0  0  0
 41112  1  0  0  0
 41 48  1  0  0  0
 42 43  1  0  0  0
 42 66  1  0  0  0
 42113  1  0  0  0
 42114  1  0  0  0
 43 44  1  0  0  0
 44115  1  0  0  0
 45 46  2  0  0  0
 45116  1  0  0  0
 46117  1  0  0  0
 47118  1  0  0  0
 47119  1  0  0  0
 48 56  1  0  0  0
 48 65  1  0  0  0
 48120  1  0  0  0
 49 50  1  0  0  0
 49 53  1  0  0  0
 49 64  1  0  0  0
 49121  1  0  0  0
 50 51  1  0  0  0
 50122  1  0  0  0
 50123  1  0  0  0
 51 52  1  0  0  0
 51124  1  0  0  0
 51125  1  0  0  0
 52126  1  0  0  0
 52127  1  0  0  0
 53 54  1  0  0  0
 54 55  2  0  0  0
 54128  1  0  0  0
 55 57  1  0  0  0
 55129  1  0  0  0
 56 69  2  0  0  0
 57 58  2  0  0  0
 57130  1  0  0  0
 58131  1  0  0  0
 59 60  1  0  0  0
 59 61  1  0  0  0
 59 62  1  0  0  0
 60132  1  0  0  0
 60133  1  0  0  0
 60134  1  0  0  0
 61135  1  0  0  0
 61136  1  0  0  0
 61137  1  0  0  0
 62138  1  0  0  0
 62139  1  0  0  0
 62140  1  0  0  0
 63 65  1  0  0  0
 63141  1  0  0  0
 63142  1  0  0  0
 63143  1  0  0  0
 64144  1  0  0  0
 65145  1  0  0  0
 68 81  1  0  0  0
 71 74  2  0  0  0
 71 75  1  0  0  0
 71146  1  0  0  0
 72 73  2  0  0  0
 72 83  1  0  0  0
 72147  1  0  0  0
 73 74  1  0  0  0
 73 78  1  0  0  0
 74 84  1  0  0  0
 75 83  2  0  0  0
 75 85  1  0  0  0
 76148  1  0  0  0
 76149  1  0  0  0
 76150  1  0  0  0
 76 82  1  0  0  0
 77 82  1  0  0  0
 77151  1  0  0  0
 77152  1  0  0  0
 77153  1  0  0  0
 78 79  1  0  0  0
 78154  1  0  0  0
 78155  1  0  0  0
 79 86  1  0  0  0
 79156  1  0  0  0
 79157  1  0  0  0
 80 81  1  0  0  0
 80 85  1  0  0  0
 80158  1  0  0  0
 80159  1  0  0  0
 81160  1  0  0  0
 81161  1  0  0  0
 82 84  1  0  0  0
 82162  1  0  0  0
 83163  1  0  0  0
 84164  1  0  0  0
 85165  1  0  0  0
 86166  1  0  0  0
M  CHG  1  83   1
M  ISO  4   1 100  68 101  81 101  86 100
M  END
> <chiral flag>
0

> <version>
0

> <s_m_source_file>
/data/baiqing/PycharmProjects/Reinvent-master-3.2/result/LINK_invent/BTK/process_docking_weight1_custom_sum_contain_oxygen_bond_distance_aromatic_linkinvent_7_9_3/rearranged_h_0138.sdf

> <i_m_source_file_index>
7

> <r_mmod_Potential_Energy-OPLS-2005>
-129.702987670898

> <r_mmod_Stretch_Energy-OPLS-2005>
39.6235427856445

> <r_mmod_Bend_Energy-OPLS-2005>
138.71467590332

> <r_mmod_Torsional_Energy-OPLS-2005>
269.142913818359

> <r_mmod_Improper_Torsional_Energy-OPLS-2005>
6.5383472442627

> <r_mmod_Van_der_Waal_Energy-OPLS-2005>
146.111404418945

> <r_mmod_Electrostatic_Energy-OPLS-2005>
-324.150787353516

> <r_mmod_Solvation_Energy-OPLS-2005>
-416.908172607422

> <b_mmod_Minimization_Converged-OPLS-2005>
0

> <r_mmod_RMS_Derivative-OPLS-2005>
2.41407084465027

$$$$
7
                    3D
 Structure written by MMmdl.
169179  0  0  1  0            999 V2000
  -30.7612  -14.4146   20.6287 C   0  0  0  0  0  0
  -30.4328  -12.3035   19.3962 C   0  0  0  0  0  0
  -29.4955  -12.5214   18.1905 C   0  0  0  0  0  0
  -28.0201  -12.3869   18.6084 C   0  0  0  0  0  0
  -27.6750  -13.2119   19.8749 C   0  0  2  0  0  0
  -28.7174  -12.9672   20.9918 C   0  0  0  0  0  0
  -25.2634  -13.8155   20.5615 C   0  0  0  0  0  0
  -24.1883  -13.0453   20.9170 C   0  0  0  0  0  0
  -24.6444  -11.6914   20.8720 C   0  0  0  0  0  0
  -23.9068  -10.4318   21.0422 C   0  0  0  0  0  0
  -24.3621   -9.4231   21.9205 C   0  0  0  0  0  0
  -23.6297   -8.2260   22.0764 C   0  0  0  0  0  0
  -22.4278   -8.0290   21.3554 C   0  0  0  0  0  0
  -21.9904   -9.0287   20.4664 C   0  0  0  0  0  0
  -22.7233  -10.2171   20.3080 C   0  0  0  0  0  0
  -21.6851   -6.0748   22.5289 C   0  0  0  0  0  0
  -21.4017   -6.5643   23.8222 C   0  0  0  0  0  0
  -21.3654   -5.6789   24.9183 C   0  0  0  0  0  0
  -21.6035   -4.3059   24.7216 C   0  0  0  0  0  0
  -21.8814   -3.8151   23.4340 C   0  0  0  0  0  0
  -21.9198   -4.6979   22.3402 C   0  0  0  0  0  0
  -22.7904  -13.5285   21.1819 C   0  0  0  0  0  0
  -22.1667   -4.2169   21.0970 F   0  0  0  0  0  0
  -21.5633   -3.4520   25.7725 F   0  0  0  0  0  0
  -30.0653  -13.2565   20.4569 N   0  0  0  0  0  0
  -26.3114  -12.9364   20.3340 N   0  0  0  0  0  0
  -25.9384  -11.6508   20.5723 N   0  0  0  0  0  0
  -22.0476  -12.8328   22.0365 N   0  0  0  0  0  0
  -25.4279  -15.1871   20.3925 N   0  0  0  0  0  0
  -31.8013  -14.6767   20.0221 O   0  0  0  0  0  0
  -21.6631   -6.8899   21.4246 O   0  0  0  0  0  0
  -22.3586  -14.5563   20.6628 O   0  0  0  0  0  0
  -24.6174  -31.8657   23.2085 C   0  0  0  0  0  0
  -25.9076  -32.4790   23.8360 C   0  0  1  0  0  0
  -27.2279  -27.4123   20.1218 C   0  0  0  0  0  0
  -25.5951  -33.8596   24.2271 N   0  0  0  0  0  0
  -23.4061  -30.4877   21.5476 C   0  0  2  0  0  0
  -24.8544  -28.9511   20.1101 C   0  0  0  0  0  0
  -22.7411  -29.4665   22.4976 C   0  0  0  0  0  0
  -18.0281  -28.1420   22.8470 C   0  0  0  0  0  0
  -24.1491  -36.7311   23.2625 C   0  0  0  0  0  0
  -25.9346  -30.8183   21.3718 C   0  0  0  0  0  0
  -26.0114  -29.4539   20.7195 C   0  0  0  0  0  0
  -27.2027  -28.6922   20.7262 C   0  0  0  0  0  0
  -26.0628  -26.9341   19.4873 C   0  0  0  0  0  0
  -24.8759  -27.6909   19.4871 C   0  0  0  0  0  0
  -23.6168  -29.8185   20.1616 C   0  0  0  0  0  0
  -25.4112  -36.3077   24.0308 C   0  0  1  0  0  0
  -20.5862  -28.3710   23.1323 C   0  0  2  0  0  0
  -20.6792  -26.9454   22.5426 C   0  0  0  0  0  0
  -19.5788  -26.6417   21.5211 C   0  0  0  0  0  0
  -18.1949  -26.7965   22.1596 C   0  0  0  0  0  0
  -19.1524  -28.8878   23.2883 C   0  0  0  0  0  0
  -18.9463  -30.1488   23.8900 C   0  0  0  0  0  0
  -17.6469  -30.6625   24.0573 C   0  0  0  0  0  0
  -25.9056  -34.9454   23.5067 C   0  0  0  0  0  0
  -16.5357  -29.9128   23.6350 C   0  0  0  0  0  0
  -16.7267  -28.6546   23.0346 C   0  0  0  0  0  0
  -26.4498  -31.6595   25.0715 C   0  0  0  0  0  0
  -25.3785  -31.3817   26.1507 C   0  0  0  0  0  0
  -27.0269  -30.2982   24.6163 C   0  0  0  0  0  0
  -27.6085  -32.4314   25.7457 C   0  0  0  0  0  0
  -27.5584  -37.1790   24.8439 C   0  0  0  0  0  0
  -21.4141  -29.3050   22.3703 N   0  0  0  0  0  0
  -26.4274  -37.3785   23.9417 N   0  0  0  0  0  0
  -24.6698  -31.0708   22.1022 N   0  0  0  0  0  0
  -23.4149  -28.8227   23.3055 O   0  0  0  0  0  0
  -28.3430  -26.6024   20.1848 O   0  0  0  0  0  0
  -26.5587  -34.8922   22.4612 O   0  0  0  0  0  0
  -23.5363  -32.1457   23.7454 O   0  0  0  0  0  0
  -28.5623  -18.5633   21.6330 C   0  0  0  0  0  0
  -30.8450  -17.4972   20.5490 C   0  0  0  0  0  0
  -28.8862  -17.2319   21.9501 C   0  0  0  0  0  0
  -30.0264  -16.6572   21.3466 C   0  0  0  0  0  0
  -29.3778  -19.2951   20.7514 C   0  0  0  0  0  0
  -28.5034  -22.0923   18.1643 C   0  0  0  0  0  0
  -27.6403  -16.9473   24.2284 C   0  0  0  0  0  0
  -28.4755  -15.7000   24.0590 C   0  0  0  0  0  0
  -29.0712  -20.7650   18.6944 C   0  0  0  0  0  0
  -29.0778  -23.3063   18.9222 C   0  0  0  0  0  0
  -29.5041  -21.9096   20.9249 C   0  0  0  0  0  0
  -27.9718  -16.4474   22.8460 C   0  0  0  0  0  0
  -28.9085  -20.6612   20.2235 C   0  0  2  0  0  0
  -29.2809  -24.4241   21.1224 C   0  0  0  0  0  0
  -28.1715  -25.5209   21.1287 C   0  0  0  0  0  0
  -30.5381  -18.7875   20.2723 N   0  0  0  0  0  0
  -30.2529  -15.2592   21.5363 N   0  0  0  0  0  0
  -28.8925  -23.1763   20.3914 N   0  3  1  0  0  0
  -31.4739  -12.4090   19.0837 H   0  0  0  0  0  0
  -30.3364  -11.2819   19.7664 H   0  0  0  0  0  0
  -29.7302  -11.8048   17.4005 H   0  0  0  0  0  0
  -29.6660  -13.5098   17.7606 H   0  0  0  0  0  0
  -27.8211  -11.3298   18.7859 H   0  0  0  0  0  0
  -27.3727  -12.6860   17.7835 H   0  0  0  0  0  0
  -27.7276  -14.2656   19.5932 H   0  0  0  0  0  0
  -28.6791  -11.9285   21.3219 H   0  0  0  0  0  0
  -28.4611  -13.5549   21.8730 H   0  0  0  0  0  0
  -25.2789   -9.5702   22.4759 H   0  0  0  0  0  0
  -24.0026   -7.4640   22.7483 H   0  0  0  0  0  0
  -21.0835   -8.8814   19.8983 H   0  0  0  0  0  0
  -22.3709  -10.9708   19.6174 H   0  0  0  0  0  0
  -21.1999   -7.6152   23.9726 H   0  0  0  0  0  0
  -21.1478   -6.0517   25.9085 H   0  0  0  0  0  0
  -22.0595   -2.7615   23.2815 H   0  0  0  0  0  0
  -22.4009  -12.0025   22.4864 H   0  0  0  0  0  0
  -21.1100  -13.1440   22.2470 H   0  0  0  0  0  0
  -24.6545  -15.8360   20.4857 H   0  0  0  0  0  0
  -26.2695  -15.6214   20.0379 H   0  0  0  0  0  0
  -26.7111  -32.5470   23.1084 H   0  0  0  0  0  0
  -25.0146  -33.9734   25.0443 H   0  0  0  0  0  0
  -22.6981  -31.3068   21.4084 H   0  0  0  0  0  0
  -23.3757  -35.9638   23.3226 H   0  0  0  0  0  0
  -24.3592  -36.9007   22.2056 H   0  0  0  0  0  0
  -23.7239  -37.6488   23.6694 H   0  0  0  0  0  0
  -26.0507  -31.5784   20.5985 H   0  0  0  0  0  0
  -26.8222  -30.8656   21.9917 H   0  0  0  0  0  0
  -28.0847  -29.0632   21.2282 H   0  0  0  0  0  0
  -26.0649  -25.9637   19.0109 H   0  0  0  0  0  0
  -23.9859  -27.3026   19.0112 H   0  0  0  0  0  0
  -23.7303  -30.5936   19.4030 H   0  0  0  0  0  0
  -22.7406  -29.2394   19.8641 H   0  0  0  0  0  0
  -25.1284  -36.1896   25.0794 H   0  0  0  0  0  0
  -20.9918  -28.3297   24.1459 H   0  0  0  0  0  0
  -20.5755  -26.2310   23.3602 H   0  0  0  0  0  0
  -21.6670  -26.7566   22.1208 H   0  0  0  0  0  0
  -19.6976  -25.6325   21.1262 H   0  0  0  0  0  0
  -19.6758  -27.3212   20.6729 H   0  0  0  0  0  0
  -17.4238  -26.6720   21.3969 H   0  0  0  0  0  0
  -18.0351  -26.0108   22.8994 H   0  0  0  0  0  0
  -19.7947  -30.7298   24.2252 H   0  0  0  0  0  0
  -17.5050  -31.6306   24.5191 H   0  0  0  0  0  0
  -15.5369  -30.3043   23.7709 H   0  0  0  0  0  0
  -15.8656  -28.0900   22.7047 H   0  0  0  0  0  0
  -24.5849  -30.7258   25.7912 H   0  0  0  0  0  0
  -24.9129  -32.3047   26.4979 H   0  0  0  0  0  0
  -25.8162  -30.8968   27.0244 H   0  0  0  0  0  0
  -26.2785  -29.6766   24.1236 H   0  0  0  0  0  0
  -27.3966  -29.7220   25.4656 H   0  0  0  0  0  0
  -27.8681  -30.4191   23.9334 H   0  0  0  0  0  0
  -27.2720  -33.3647   26.1985 H   0  0  0  0  0  0
  -28.3935  -32.6826   25.0311 H   0  0  0  0  0  0
  -28.0705  -31.8471   26.5424 H   0  0  0  0  0  0
  -28.2567  -38.0119   24.7510 H   0  0  0  0  0  0
  -28.1094  -36.2644   24.6189 H   0  0  0  0  0  0
  -27.2312  -37.1376   25.8842 H   0  0  0  0  0  0
  -20.9324  -29.8683   21.6842 H   0  0  0  0  0  0
  -26.0136  -38.2836   24.1486 H   0  0  0  0  0  0
  -27.6572  -19.0008   22.0310 H   0  0  0  0  0  0
  -31.7537  -17.1427   20.0866 H   0  0  0  0  0  0
  -27.4168  -22.0831   18.2525 H   0  0  0  0  0  0
  -28.7215  -22.1886   17.0998 H   0  0  0  0  0  0
  -28.1461  -17.8398   24.5891 H   0  0  0  0  0  0
  -26.6112  -16.8261   24.5575 H   0  0  0  0  0  0
  -27.9992  -14.7509   24.3036 H   0  0  0  0  0  0
  -29.5390  -15.7626   24.2813 H   0  0  0  0  0  0
  -30.1257  -20.6881   18.4246 H   0  0  0  0  0  0
  -28.5739  -19.9222   18.2101 H   0  0  0  0  0  0
  -28.5864  -24.2139   18.5697 H   0  0  0  0  0  0
  -30.1384  -23.4245   18.6966 H   0  0  0  0  0  0
  -30.5868  -21.9254   20.8037 H   0  0  0  0  0  0
  -29.3128  -21.8244   21.9947 H   0  0  0  0  0  0
  -27.1726  -15.9889   22.2733 H   0  0  0  0  0  0
  -27.8345  -20.6859   20.4166 H   0  0  0  0  0  0
  -29.4546  -24.1480   22.1643 H   0  0  0  0  0  0
  -30.2310  -24.8213   20.7630 H   0  0  0  0  0  0
  -28.1483  -25.9781   22.1200 H   0  0  0  0  0  0
  -27.1950  -25.0448   21.0160 H   0  0  0  0  0  0
  -29.5908  -14.8133   22.1528 H   0  0  0  0  0  0
  -27.9010  -23.0721   20.5491 H   0  0  0  0  0  0
  1 25  1  0  0  0
  1 30  2  0  0  0
  1 87  1  0  0  0
  2  3  1  0  0  0
  2 25  1  0  0  0
  2 89  1  0  0  0
  2 90  1  0  0  0
  3  4  1  0  0  0
  3 91  1  0  0  0
  3 92  1  0  0  0
  4  5  1  0  0  0
  4 93  1  0  0  0
  4 94  1  0  0  0
  5  6  1  0  0  0
  5 26  1  0  0  0
  5 95  1  0  0  0
  6 25  1  0  0  0
  6 96  1  0  0  0
  6 97  1  0  0  0
  7  8  2  0  0  0
  7 26  1  0  0  0
  7 29  1  0  0  0
  8  9  1  0  0  0
  8 22  1  0  0  0
  9 10  1  0  0  0
  9 27  2  0  0  0
 10 11  2  0  0  0
 10 15  1  0  0  0
 11 12  1  0  0  0
 11 98  1  0  0  0
 12 13  2  0  0  0
 12 99  1  0  0  0
 13 14  1  0  0  0
 13 31  1  0  0  0
 14 15  2  0  0  0
 14100  1  0  0  0
 15101  1  0  0  0
 16 17  2  0  0  0
 16 21  1  0  0  0
 16 31  1  0  0  0
 17 18  1  0  0  0
 17102  1  0  0  0
 18 19  2  0  0  0
 18103  1  0  0  0
 19 20  1  0  0  0
 19 24  1  0  0  0
 20 21  2  0  0  0
 20104  1  0  0  0
 21 23  1  0  0  0
 22 28  1  0  0  0
 22 32  2  0  0  0
 26 27  1  0  0  0
 28105  1  0  0  0
 28106  1  0  0  0
 29107  1  0  0  0
 29108  1  0  0  0
 33 34  1  0  0  0
 33 66  1  0  0  0
 33 70  2  0  0  0
 34 36  1  0  0  0
 34 59  1  0  0  0
 34109  1  0  0  0
 35 44  2  0  0  0
 35 45  1  0  0  0
 35 68  1  0  0  0
 36 56  1  0  0  0
 36110  1  0  0  0
 37 39  1  0  0  0
 37 47  1  0  0  0
 37 66  1  0  0  0
 37111  1  0  0  0
 38 43  2  0  0  0
 38 46  1  0  0  0
 38 47  1  0  0  0
 39 64  1  0  0  0
 39 67  2  0  0  0
 40 52  1  0  0  0
 40 53  2  0  0  0
 40 58  1  0  0  0
 41112  1  0  0  0
 41113  1  0  0  0
 41114  1  0  0  0
 41 48  1  0  0  0
 42 43  1  0  0  0
 42 66  1  0  0  0
 42115  1  0  0  0
 42116  1  0  0  0
 43 44  1  0  0  0
 44117  1  0  0  0
 45 46  2  0  0  0
 45118  1  0  0  0
 46119  1  0  0  0
 47120  1  0  0  0
 47121  1  0  0  0
 48 56  1  0  0  0
 48 65  1  0  0  0
 48122  1  0  0  0
 49 50  1  0  0  0
 49 53  1  0  0  0
 49 64  1  0  0  0
 49123  1  0  0  0
 50 51  1  0  0  0
 50124  1  0  0  0
 50125  1  0  0  0
 51 52  1  0  0  0
 51126  1  0  0  0
 51127  1  0  0  0
 52128  1  0  0  0
 52129  1  0  0  0
 53 54  1  0  0  0
 54 55  2  0  0  0
 54130  1  0  0  0
 55 57  1  0  0  0
 55131  1  0  0  0
 56 69  2  0  0  0
 57 58  2  0  0  0
 57132  1  0  0  0
 58133  1  0  0  0
 59 60  1  0  0  0
 59 61  1  0  0  0
 59 62  1  0  0  0
 60134  1  0  0  0
 60135  1  0  0  0
 60136  1  0  0  0
 61137  1  0  0  0
 61138  1  0  0  0
 61139  1  0  0  0
 62140  1  0  0  0
 62141  1  0  0  0
 62142  1  0  0  0
 63 65  1  0  0  0
 63143  1  0  0  0
 63144  1  0  0  0
 63145  1  0  0  0
 64146  1  0  0  0
 65147  1  0  0  0
 68 85  1  0  0  0
 71 73  2  0  0  0
 71 75  1  0  0  0
 71148  1  0  0  0
 72 74  2  0  0  0
 72 86  1  0  0  0
 72149  1  0  0  0
 73 74  1  0  0  0
 73 82  1  0  0  0
 74 87  1  0  0  0
 75 86  2  0  0  0
 75 83  1  0  0  0
 76 79  1  0  0  0
 76 80  1  0  0  0
 76150  1  0  0  0
 76151  1  0  0  0
 77 78  1  0  0  0
 77 82  1  0  0  0
 77152  1  0  0  0
 77153  1  0  0  0
 78 82  1  0  0  0
 78154  1  0  0  0
 78155  1  0  0  0
 79 83  1  0  0  0
 79156  1  0  0  0
 79157  1  0  0  0
 80 88  1  0  0  0
 80158  1  0  0  0
 80159  1  0  0  0
 81 83  1  0  0  0
 81 88  1  0  0  0
 81160  1  0  0  0
 81161  1  0  0  0
 82162  1  0  0  0
 83163  1  0  0  0
 84 85  1  0  0  0
 84164  1  0  0  0
 84165  1  0  0  0
 84 88  1  0  0  0
 85166  1  0  0  0
 85167  1  0  0  0
 87168  1  0  0  0
 88169  1  0  0  0
M  CHG  1  88   1
M  ISO  4   1 100  68 101  85 101  87 100
M  END
> <chiral flag>
0

> <version>
0

> <s_m_source_file>
/data/baiqing/PycharmProjects/Reinvent-master-3.2/result/LINK_invent/BTK/process_docking_weight1_custom_sum_contain_oxygen_bond_distance_aromatic_linkinvent_7_9_3/rearranged_h_0138.sdf

> <i_m_source_file_index>
8

> <r_mmod_Potential_Energy-OPLS-2005>
-232.475326538086

> <r_mmod_Stretch_Energy-OPLS-2005>
41.6520843505859

> <r_mmod_Bend_Energy-OPLS-2005>
101.453079223633

> <r_mmod_Torsional_Energy-OPLS-2005>
313.793029785156

> <r_mmod_Improper_Torsional_Energy-OPLS-2005>
4.98306703567505

> <r_mmod_Van_der_Waal_Energy-OPLS-2005>
149.402633666992

> <r_mmod_Electrostatic_Energy-OPLS-2005>
-428.447143554688

> <r_mmod_Solvation_Energy-OPLS-2005>
-430.158111572266

> <b_mmod_Minimization_Converged-OPLS-2005>
0

> <r_mmod_RMS_Derivative-OPLS-2005>
3.78169894218445

$$$$
8
                    3D
 Structure written by MMmdl.
162171  0  0  1  0            999 V2000
  -30.7581  -14.3480   20.6923 C   0  0  0  0  0  0
  -30.4256  -12.2841   19.3881 C   0  0  0  0  0  0
  -29.4885  -12.5313   18.1906 C   0  0  0  0  0  0
  -28.0113  -12.3876   18.6059 C   0  0  0  0  0  0
  -27.6711  -13.1983   19.8842 C   0  0  2  0  0  0
  -28.7076  -12.9143   20.9933 C   0  0  0  0  0  0
  -25.2627  -13.8145   20.5666 C   0  0  0  0  0  0
  -24.1862  -13.0437   20.9155 C   0  0  0  0  0  0
  -24.6399  -11.6897   20.8718 C   0  0  0  0  0  0
  -23.9059  -10.4292   21.0395 C   0  0  0  0  0  0
  -24.3613   -9.4209   21.9175 C   0  0  0  0  0  0
  -23.6289   -8.2247   22.0754 C   0  0  0  0  0  0
  -22.4272   -8.0282   21.3545 C   0  0  0  0  0  0
  -21.9901   -9.0256   20.4648 C   0  0  0  0  0  0
  -22.7230  -10.2134   20.3049 C   0  0  0  0  0  0
  -21.6851   -6.0736   22.5282 C   0  0  0  0  0  0
  -21.4012   -6.5640   23.8215 C   0  0  0  0  0  0
  -21.3657   -5.6792   24.9178 C   0  0  0  0  0  0
  -21.6044   -4.3055   24.7225 C   0  0  0  0  0  0
  -21.8819   -3.8147   23.4345 C   0  0  0  0  0  0
  -21.9194   -4.6965   22.3403 C   0  0  0  0  0  0
  -22.7886  -13.5249   21.1828 C   0  0  0  0  0  0
  -22.1664   -4.2150   21.0980 F   0  0  0  0  0  0
  -21.5628   -3.4537   25.7737 F   0  0  0  0  0  0
  -30.0525  -13.2131   20.4628 N   0  0  0  0  0  0
  -26.3071  -12.9301   20.3392 N   0  0  0  0  0  0
  -25.9326  -11.6467   20.5753 N   0  0  0  0  0  0
  -22.0521  -12.8248   22.0384 N   0  0  0  0  0  0
  -25.4363  -15.1859   20.4080 N   0  0  0  0  0  0
  -31.7773  -14.6593   20.0678 O   0  0  0  0  0  0
  -21.6636   -6.8878   21.4244 O   0  0  0  0  0  0
  -22.3572  -14.5558   20.6681 O   0  0  0  0  0  0
  -24.6095  -31.8710   23.2115 C   0  0  0  0  0  0
  -25.9001  -32.4833   23.8404 C   0  0  1  0  0  0
  -27.2418  -27.4831   20.0885 C   0  0  0  0  0  0
  -25.5885  -33.8636   24.2345 N   0  0  0  0  0  0
  -23.3945  -30.4939   21.5504 C   0  0  2  0  0  0
  -24.8418  -28.9574   20.1197 C   0  0  0  0  0  0
  -22.7378  -29.4685   22.5011 C   0  0  0  0  0  0
  -18.0274  -28.1381   22.8497 C   0  0  0  0  0  0
  -24.1489  -36.7330   23.2641 C   0  0  0  0  0  0
  -25.9183  -30.8490   21.3569 C   0  0  0  0  0  0
  -25.9979  -29.4846   20.7102 C   0  0  0  0  0  0
  -27.2013  -28.7540   20.6927 C   0  0  0  0  0  0
  -26.0738  -26.9499   19.5048 C   0  0  0  0  0  0
  -24.8725  -27.6857   19.5168 C   0  0  0  0  0  0
  -23.6014  -29.8185   20.1670 C   0  0  0  0  0  0
  -25.4108  -36.3126   24.0343 C   0  0  1  0  0  0
  -20.5856  -28.3660   23.1337 C   0  0  2  0  0  0
  -20.6774  -26.9400   22.5426 C   0  0  0  0  0  0
  -19.5751  -26.6390   21.5222 C   0  0  0  0  0  0
  -18.1923  -26.7928   22.1624 C   0  0  0  0  0  0
  -19.1519  -28.8837   23.2918 C   0  0  0  0  0  0
  -18.9450  -30.1448   23.8916 C   0  0  0  0  0  0
  -17.6450  -30.6584   24.0572 C   0  0  0  0  0  0
  -25.9026  -34.9488   23.5141 C   0  0  0  0  0  0
  -16.5343  -29.9087   23.6326 C   0  0  0  0  0  0
  -16.7262  -28.6510   23.0339 C   0  0  0  0  0  0
  -26.4452  -31.6587   25.0708 C   0  0  0  0  0  0
  -25.3743  -31.3661   26.1469 C   0  0  0  0  0  0
  -27.0268  -30.3043   24.6030 C   0  0  0  0  0  0
  -27.6048  -32.4283   25.7454 C   0  0  0  0  0  0
  -27.5573  -37.1820   24.8469 C   0  0  0  0  0  0
  -21.4111  -29.3031   22.3744 N   0  0  0  0  0  0
  -26.4298  -37.3801   23.9400 N   0  0  0  0  0  0
  -24.6585  -31.0851   22.0985 N   0  0  0  0  0  0
  -23.4172  -28.8235   23.3038 O   0  0  0  0  0  0
  -28.4255  -26.7974   20.0488 O   0  0  0  0  0  0
  -26.5593  -34.8932   22.4702 O   0  0  0  0  0  0
  -23.5299  -32.1441   23.7538 O   0  0  0  0  0  0
  -28.9348  -21.7834   18.8961 C   0  0  0  0  0  0
  -29.7500  -21.0878   21.0589 C   0  0  0  0  0  0
  -29.1874  -22.0882   20.2505 C   0  0  0  0  0  0
  -29.2720  -20.5073   18.4108 C   0  0  0  0  0  0
  -30.0420  -19.8368   20.4990 C   0  0  0  0  0  0
  -27.8335  -19.3280   16.5838 C   0  0  0  0  0  0
  -29.2134  -18.7413   16.4161 C   0  0  0  0  0  0
  -29.0470  -20.1429   16.9693 C   0  0  0  0  0  0
  -30.1856  -17.4678   20.9902 C   0  0  0  0  0  0
  -30.7356  -16.4555   22.0029 C   0  0  0  0  0  0
  -28.4695  -25.6390   20.8703 C   0  0  0  0  0  0
  -28.5079  -24.3725   20.0121 C   0  0  0  0  0  0
  -29.8207  -19.5574   19.1996 N   0  0  0  0  0  0
  -30.5845  -18.8309   21.3016 N   0  0  0  0  0  0
  -30.2655  -15.1217   21.6643 N   0  0  0  0  0  0
  -28.9189  -23.2979   20.8451 O   0  0  0  0  0  0
  -31.4675  -12.3982   19.0818 H   0  0  0  0  0  0
  -30.3343  -11.2561   19.7416 H   0  0  0  0  0  0
  -29.7189  -11.8363   17.3815 H   0  0  0  0  0  0
  -29.6616  -13.5323   17.7914 H   0  0  0  0  0  0
  -27.8127  -11.3285   18.7744 H   0  0  0  0  0  0
  -27.3602  -12.6914   17.7856 H   0  0  0  0  0  0
  -27.7372  -14.2558   19.6274 H   0  0  0  0  0  0
  -28.6702  -11.8630   21.2819 H   0  0  0  0  0  0
  -28.4535  -13.4640   21.8994 H   0  0  0  0  0  0
  -25.2762   -9.5687   22.4739 H   0  0  0  0  0  0
  -24.0000   -7.4639   22.7472 H   0  0  0  0  0  0
  -21.0830   -8.8772   19.8954 H   0  0  0  0  0  0
  -22.3690  -10.9668   19.6152 H   0  0  0  0  0  0
  -21.2001   -7.6147   23.9719 H   0  0  0  0  0  0
  -21.1477   -6.0520   25.9080 H   0  0  0  0  0  0
  -22.0598   -2.7609   23.2846 H   0  0  0  0  0  0
  -22.4128  -11.9906   22.4771 H   0  0  0  0  0  0
  -21.1141  -13.1285   22.2584 H   0  0  0  0  0  0
  -24.6725  -15.8440   20.5185 H   0  0  0  0  0  0
  -26.2955  -15.6238   20.0994 H   0  0  0  0  0  0
  -26.7071  -32.5552   23.1172 H   0  0  0  0  0  0
  -25.0030  -33.9804   25.0485 H   0  0  0  0  0  0
  -22.6831  -31.3099   21.4095 H   0  0  0  0  0  0
  -23.3739  -35.9677   23.3335 H   0  0  0  0  0  0
  -24.3584  -36.8907   22.2051 H   0  0  0  0  0  0
  -23.7257  -37.6554   23.6632 H   0  0  0  0  0  0
  -26.0211  -31.6111   20.5830 H   0  0  0  0  0  0
  -26.8113  -30.9083   21.9674 H   0  0  0  0  0  0
  -28.0975  -29.1612   21.1408 H   0  0  0  0  0  0
  -26.0957  -25.9795   19.0280 H   0  0  0  0  0  0
  -23.9831  -27.2719   19.0592 H   0  0  0  0  0  0
  -23.7031  -30.5898   19.4031 H   0  0  0  0  0  0
  -22.7284  -29.2315   19.8737 H   0  0  0  0  0  0
  -25.1284  -36.2003   25.0836 H   0  0  0  0  0  0
  -20.9954  -28.3219   24.1456 H   0  0  0  0  0  0
  -20.5701  -26.2258   23.3606 H   0  0  0  0  0  0
  -21.6641  -26.7464   22.1197 H   0  0  0  0  0  0
  -19.6914  -25.6308   21.1225 H   0  0  0  0  0  0
  -19.6694  -27.3232   20.6780 H   0  0  0  0  0  0
  -17.4202  -26.6691   21.4018 H   0  0  0  0  0  0
  -18.0312  -26.0071   22.9018 H   0  0  0  0  0  0
  -19.7926  -30.7266   24.2280 H   0  0  0  0  0  0
  -17.5008  -31.6263   24.5179 H   0  0  0  0  0  0
  -15.5348  -30.3001   23.7640 H   0  0  0  0  0  0
  -15.8665  -28.0843   22.7031 H   0  0  0  0  0  0
  -24.5927  -30.6993   25.7804 H   0  0  0  0  0  0
  -24.8924  -32.2804   26.4937 H   0  0  0  0  0  0
  -25.8118  -30.8815   27.0207 H   0  0  0  0  0  0
  -26.2774  -29.6823   24.1122 H   0  0  0  0  0  0
  -27.4103  -29.7245   25.4435 H   0  0  0  0  0  0
  -27.8587  -30.4382   23.9113 H   0  0  0  0  0  0
  -27.2685  -33.3573   26.2069 H   0  0  0  0  0  0
  -28.3837  -32.6848   25.0260 H   0  0  0  0  0  0
  -28.0750  -31.8385   26.5335 H   0  0  0  0  0  0
  -28.2622  -38.0087   24.7486 H   0  0  0  0  0  0
  -28.1031  -36.2619   24.6323 H   0  0  0  0  0  0
  -27.2289  -37.1506   25.8873 H   0  0  0  0  0  0
  -20.9266  -29.8724   21.6950 H   0  0  0  0  0  0
  -26.0195  -38.2888   24.1374 H   0  0  0  0  0  0
  -28.4933  -22.5006   18.2179 H   0  0  0  0  0  0
  -29.9468  -21.2937   22.1017 H   0  0  0  0  0  0
  -27.2216  -18.9085   17.3795 H   0  0  0  0  0  0
  -27.2985  -19.6206   15.6831 H   0  0  0  0  0  0
  -29.5818  -18.6436   15.3967 H   0  0  0  0  0  0
  -29.5103  -17.9451   17.0958 H   0  0  0  0  0  0
  -29.3307  -20.9655   16.3147 H   0  0  0  0  0  0
  -29.0947  -17.4189   20.9686 H   0  0  0  0  0  0
  -30.5349  -17.2125   19.9888 H   0  0  0  0  0  0
  -30.3901  -16.6938   23.0098 H   0  0  0  0  0  0
  -31.8270  -16.4767   22.0264 H   0  0  0  0  0  0
  -29.3888  -25.7032   21.4541 H   0  0  0  0  0  0
  -27.6506  -25.5968   21.5919 H   0  0  0  0  0  0
  -29.2245  -24.5100   19.2009 H   0  0  0  0  0  0
  -27.5293  -24.1764   19.5730 H   0  0  0  0  0  0
  -30.6935  -19.0543   22.2846 H   0  0  0  0  0  0
  -29.4375  -14.7864   22.1346 H   0  0  0  0  0  0
  1 25  1  0  0  0
  1 30  2  0  0  0
  1 85  1  0  0  0
  2  3  1  0  0  0
  2 25  1  0  0  0
  2 87  1  0  0  0
  2 88  1  0  0  0
  3  4  1  0  0  0
  3 89  1  0  0  0
  3 90  1  0  0  0
  4  5  1  0  0  0
  4 91  1  0  0  0
  4 92  1  0  0  0
  5  6  1  0  0  0
  5 26  1  0  0  0
  5 93  1  0  0  0
  6 25  1  0  0  0
  6 94  1  0  0  0
  6 95  1  0  0  0
  7  8  2  0  0  0
  7 26  1  0  0  0
  7 29  1  0  0  0
  8  9  1  0  0  0
  8 22  1  0  0  0
  9 10  1  0  0  0
  9 27  2  0  0  0
 10 11  2  0  0  0
 10 15  1  0  0  0
 11 12  1  0  0  0
 11 96  1  0  0  0
 12 13  2  0  0  0
 12 97  1  0  0  0
 13 14  1  0  0  0
 13 31  1  0  0  0
 14 15  2  0  0  0
 14 98  1  0  0  0
 15 99  1  0  0  0
 16 17  2  0  0  0
 16 21  1  0  0  0
 16 31  1  0  0  0
 17 18  1  0  0  0
 17100  1  0  0  0
 18 19  2  0  0  0
 18101  1  0  0  0
 19 20  1  0  0  0
 19 24  1  0  0  0
 20 21  2  0  0  0
 20102  1  0  0  0
 21 23  1  0  0  0
 22 28  1  0  0  0
 22 32  2  0  0  0
 26 27  1  0  0  0
 28103  1  0  0  0
 28104  1  0  0  0
 29105  1  0  0  0
 29106  1  0  0  0
 33 34  1  0  0  0
 33 66  1  0  0  0
 33 70  2  0  0  0
 34 36  1  0  0  0
 34 59  1  0  0  0
 34107  1  0  0  0
 35 44  2  0  0  0
 35 45  1  0  0  0
 35 68  1  0  0  0
 36 56  1  0  0  0
 36108  1  0  0  0
 37 39  1  0  0  0
 37 47  1  0  0  0
 37 66  1  0  0  0
 37109  1  0  0  0
 38 43  2  0  0  0
 38 46  1  0  0  0
 38 47  1  0  0  0
 39 64  1  0  0  0
 39 67  2  0  0  0
 40 52  1  0  0  0
 40 53  2  0  0  0
 40 58  1  0  0  0
 41110  1  0  0  0
 41111  1  0  0  0
 41112  1  0  0  0
 41 48  1  0  0  0
 42 43  1  0  0  0
 42 66  1  0  0  0
 42113  1  0  0  0
 42114  1  0  0  0
 43 44  1  0  0  0
 44115  1  0  0  0
 45 46  2  0  0  0
 45116  1  0  0  0
 46117  1  0  0  0
 47118  1  0  0  0
 47119  1  0  0  0
 48 56  1  0  0  0
 48 65  1  0  0  0
 48120  1  0  0  0
 49 50  1  0  0  0
 49 53  1  0  0  0
 49 64  1  0  0  0
 49121  1  0  0  0
 50 51  1  0  0  0
 50122  1  0  0  0
 50123  1  0  0  0
 51 52  1  0  0  0
 51124  1  0  0  0
 51125  1  0  0  0
 52126  1  0  0  0
 52127  1  0  0  0
 53 54  1  0  0  0
 54 55  2  0  0  0
 54128  1  0  0  0
 55 57  1  0  0  0
 55129  1  0  0  0
 56 69  2  0  0  0
 57 58  2  0  0  0
 57130  1  0  0  0
 58131  1  0  0  0
 59 60  1  0  0  0
 59 61  1  0  0  0
 59 62  1  0  0  0
 60132  1  0  0  0
 60133  1  0  0  0
 60134  1  0  0  0
 61135  1  0  0  0
 61136  1  0  0  0
 61137  1  0  0  0
 62138  1  0  0  0
 62139  1  0  0  0
 62140  1  0  0  0
 63 65  1  0  0  0
 63141  1  0  0  0
 63142  1  0  0  0
 63143  1  0  0  0
 64144  1  0  0  0
 65145  1  0  0  0
 68 81  1  0  0  0
 71 73  2  0  0  0
 71 74  1  0  0  0
 71146  1  0  0  0
 72 73  1  0  0  0
 72 75  2  0  0  0
 72147  1  0  0  0
 73 86  1  0  0  0
 74 83  2  0  0  0
 74 78  1  0  0  0
 75 83  1  0  0  0
 75 84  1  0  0  0
 76 77  1  0  0  0
 76 78  1  0  0  0
 76148  1  0  0  0
 76149  1  0  0  0
 77 78  1  0  0  0
 77150  1  0  0  0
 77151  1  0  0  0
 78152  1  0  0  0
 79 80  1  0  0  0
 79 84  1  0  0  0
 79153  1  0  0  0
 79154  1  0  0  0
 80 85  1  0  0  0
 80155  1  0  0  0
 80156  1  0  0  0
 81 82  1  0  0  0
 81157  1  0  0  0
 81158  1  0  0  0
 82 86  1  0  0  0
 82159  1  0  0  0
 82160  1  0  0  0
 84161  1  0  0  0
 85162  1  0  0  0
M  ISO  4   1 100  68 101  81 101  85 100
M  END
> <chiral flag>
0

> <version>
0

> <s_m_source_file>
/data/baiqing/PycharmProjects/Reinvent-master-3.2/result/LINK_invent/BTK/process_docking_weight1_custom_sum_contain_oxygen_bond_distance_aromatic_linkinvent_7_9_3/rearranged_h_0138.sdf

> <i_m_source_file_index>
9

> <r_mmod_Potential_Energy-OPLS-2005>
-382.517028808594

> <r_mmod_Stretch_Energy-OPLS-2005>
29.695032119751

> <r_mmod_Bend_Energy-OPLS-2005>
94.2436294555664

> <r_mmod_Torsional_Energy-OPLS-2005>
236.406799316406

> <r_mmod_Improper_Torsional_Energy-OPLS-2005>
4.92352962493896

> <r_mmod_Van_der_Waal_Energy-OPLS-2005>
164.13346862793

> <r_mmod_Electrostatic_Energy-OPLS-2005>
-675.058898925781

> <r_mmod_Solvation_Energy-OPLS-2005>
-243.411376953125

> <b_mmod_Minimization_Converged-OPLS-2005>
0

> <r_mmod_RMS_Derivative-OPLS-2005>
1.60204136371613

$$$$
9
                    3D
 Structure written by MMmdl.
160169  0  0  1  0            999 V2000
  -30.6564  -14.8277   20.4538 C   0  0  0  0  0  0
  -30.4111  -12.5292   19.4680 C   0  0  0  0  0  0
  -29.4911  -12.5100   18.2318 C   0  0  0  0  0  0
  -28.0269  -12.3193   18.6631 C   0  0  0  0  0  0
  -27.6262  -13.2489   19.8403 C   0  0  2  0  0  0
  -28.6786  -13.2552   20.9683 C   0  0  0  0  0  0
  -25.2444  -13.8244   20.5742 C   0  0  0  0  0  0
  -24.1762  -13.0457   20.9236 C   0  0  0  0  0  0
  -24.6387  -11.6941   20.8784 C   0  0  0  0  0  0
  -23.9084  -10.4302   21.0416 C   0  0  0  0  0  0
  -24.3634   -9.4210   21.9190 C   0  0  0  0  0  0
  -23.6303   -8.2246   22.0755 C   0  0  0  0  0  0
  -22.4289   -8.0284   21.3541 C   0  0  0  0  0  0
  -21.9933   -9.0261   20.4642 C   0  0  0  0  0  0
  -22.7264  -10.2136   20.3053 C   0  0  0  0  0  0
  -21.6854   -6.0741   22.5283 C   0  0  0  0  0  0
  -21.4014   -6.5642   23.8214 C   0  0  0  0  0  0
  -21.3657   -5.6800   24.9175 C   0  0  0  0  0  0
  -21.6040   -4.3067   24.7228 C   0  0  0  0  0  0
  -21.8819   -3.8155   23.4354 C   0  0  0  0  0  0
  -21.9189   -4.6968   22.3410 C   0  0  0  0  0  0
  -22.7777  -13.5204   21.1884 C   0  0  0  0  0  0
  -22.1655   -4.2153   21.0987 F   0  0  0  0  0  0
  -21.5630   -3.4547   25.7739 F   0  0  0  0  0  0
  -29.9471  -13.6408   20.3436 N   0  0  0  0  0  0
  -26.2877  -12.9475   20.3317 N   0  0  0  0  0  0
  -25.9320  -11.6608   20.5813 N   0  0  0  0  0  0
  -22.0436  -12.8168   22.0432 N   0  0  0  0  0  0
  -25.4144  -15.1965   20.4149 N   0  0  0  0  0  0
  -31.8718  -14.7469   20.2419 O   0  0  0  0  0  0
  -21.6640   -6.8885   21.4244 O   0  0  0  0  0  0
  -22.3445  -14.5506   20.6739 O   0  0  0  0  0  0
  -24.6361  -31.8516   23.1949 C   0  0  0  0  0  0
  -25.9167  -32.4724   23.8319 C   0  0  1  0  0  0
  -27.2093  -27.2169   20.1507 C   0  0  0  0  0  0
  -25.5941  -33.8528   24.2221 N   0  0  0  0  0  0
  -23.4336  -30.4733   21.5400 C   0  0  2  0  0  0
  -24.8807  -28.9095   20.1139 C   0  0  0  0  0  0
  -22.7531  -29.4595   22.4917 C   0  0  0  0  0  0
  -18.0298  -28.1393   22.8489 C   0  0  0  0  0  0
  -24.1493  -36.7272   23.2646 C   0  0  0  0  0  0
  -25.9831  -30.7503   21.3806 C   0  0  0  0  0  0
  -26.0552  -29.3689   20.7247 C   0  0  0  0  0  0
  -27.2272  -28.5378   20.7236 C   0  0  0  0  0  0
  -26.0143  -26.8288   19.5124 C   0  0  0  0  0  0
  -24.8670  -27.6493   19.4940 C   0  0  0  0  0  0
  -23.6530  -29.8018   20.1590 C   0  0  0  0  0  0
  -25.4125  -36.3047   24.0313 C   0  0  1  0  0  0
  -20.5909  -28.3709   23.1264 C   0  0  2  0  0  0
  -20.6788  -26.9423   22.5420 C   0  0  0  0  0  0
  -19.5760  -26.6383   21.5226 C   0  0  0  0  0  0
  -18.1933  -26.7934   22.1628 C   0  0  0  0  0  0
  -19.1555  -28.8869   23.2860 C   0  0  0  0  0  0
  -18.9475  -30.1466   23.8888 C   0  0  0  0  0  0
  -17.6470  -30.6595   24.0569 C   0  0  0  0  0  0
  -25.9077  -34.9418   23.5076 C   0  0  0  0  0  0
  -16.5360  -29.9093   23.6342 C   0  0  0  0  0  0
  -16.7286  -28.6508   23.0373 C   0  0  0  0  0  0
  -26.4515  -31.6580   25.0740 C   0  0  0  0  0  0
  -25.3721  -31.3706   26.1446 C   0  0  0  0  0  0
  -27.0390  -30.3004   24.6257 C   0  0  0  0  0  0
  -27.6052  -32.4354   25.7512 C   0  0  0  0  0  0
  -27.5569  -37.1787   24.8459 C   0  0  0  0  0  0
  -21.4243  -29.3039   22.3646 N   0  0  0  0  0  0
  -26.4287  -37.3759   23.9393 N   0  0  0  0  0  0
  -24.7039  -31.0445   22.0941 N   0  0  0  0  0  0
  -23.4208  -28.8141   23.3039 O   0  0  0  0  0  0
  -28.2842  -26.2901   20.1625 O   0  0  0  0  0  0
  -26.5669  -34.8902   22.4655 O   0  0  0  0  0  0
  -23.5509  -32.1366   23.7218 O   0  0  0  0  0  0
  -30.3421  -18.6282   19.4451 C   0  0  0  0  0  0
  -28.4495  -18.2452   20.8227 C   0  0  0  0  0  0
  -28.2268  -22.0372   20.7968 C   0  0  0  0  0  0
  -30.9597  -17.2359   19.8714 C   0  0  0  0  0  0
  -29.0025  -16.7673   21.2042 C   0  0  0  0  0  0
  -30.1880  -21.8217   19.4963 C   0  0  0  0  0  0
  -29.4813  -19.3992   20.4938 C   0  0  0  0  0  0
  -29.0097  -20.9093   19.9700 C   0  0  1  0  0  0
  -28.4330  -23.4505   20.0461 C   0  0  1  0  0  0
  -28.0884  -24.9008   20.7574 C   0  0  0  0  0  0
  -30.0701  -16.1244   20.3579 N   0  0  0  0  0  0
  -29.8371  -23.2789   19.6101 N   0  3  0  0  0  0
  -31.4462  -12.6454   19.1435 H   0  0  0  0  0  0
  -30.3764  -11.5763   19.9982 H   0  0  0  0  0  0
  -29.7872  -11.7155   17.5458 H   0  0  0  0  0  0
  -29.5935  -13.4467   17.6824 H   0  0  0  0  0  0
  -27.9080  -11.2770   18.9610 H   0  0  0  0  0  0
  -27.3583  -12.4704   17.8149 H   0  0  0  0  0  0
  -27.5966  -14.2568   19.4249 H   0  0  0  0  0  0
  -28.7557  -12.2742   21.4387 H   0  0  0  0  0  0
  -28.4072  -13.9508   21.7622 H   0  0  0  0  0  0
  -25.2772   -9.5679   22.4775 H   0  0  0  0  0  0
  -24.0006   -7.4633   22.7478 H   0  0  0  0  0  0
  -21.0866   -8.8789   19.8937 H   0  0  0  0  0  0
  -22.3736  -10.9682   19.6165 H   0  0  0  0  0  0
  -21.2010   -7.6144   23.9720 H   0  0  0  0  0  0
  -21.1474   -6.0525   25.9078 H   0  0  0  0  0  0
  -22.0599   -2.7612   23.2856 H   0  0  0  0  0  0
  -22.4078  -11.9830   22.4798 H   0  0  0  0  0  0
  -21.1053  -13.1164   22.2652 H   0  0  0  0  0  0
  -24.6538  -15.8574   20.5340 H   0  0  0  0  0  0
  -26.2725  -15.6336   20.1046 H   0  0  0  0  0  0
  -26.7237  -32.5353   23.1063 H   0  0  0  0  0  0
  -25.0009  -33.9663   25.0310 H   0  0  0  0  0  0
  -22.7341  -31.2986   21.3920 H   0  0  0  0  0  0
  -23.3753  -35.9609   23.3298 H   0  0  0  0  0  0
  -24.3568  -36.8937   22.2066 H   0  0  0  0  0  0
  -23.7272  -37.6467   23.6709 H   0  0  0  0  0  0
  -26.1324  -31.5088   20.6108 H   0  0  0  0  0  0
  -26.8557  -30.7972   22.0209 H   0  0  0  0  0  0
  -28.1288  -28.8847   21.2093 H   0  0  0  0  0  0
  -25.9560  -25.8599   19.0354 H   0  0  0  0  0  0
  -23.9679  -27.2955   19.0074 H   0  0  0  0  0  0
  -23.7804  -30.5769   19.4029 H   0  0  0  0  0  0
  -22.7699  -29.2388   19.8535 H   0  0  0  0  0  0
  -25.1309  -36.1880   25.0807 H   0  0  0  0  0  0
  -20.9992  -28.3307   24.1392 H   0  0  0  0  0  0
  -20.5714  -26.2315   23.3628 H   0  0  0  0  0  0
  -21.6639  -26.7466   22.1184 H   0  0  0  0  0  0
  -19.6919  -25.6290   21.1264 H   0  0  0  0  0  0
  -19.6697  -27.3187   20.6749 H   0  0  0  0  0  0
  -17.4210  -26.6713   21.4022 H   0  0  0  0  0  0
  -18.0305  -26.0068   22.9013 H   0  0  0  0  0  0
  -19.7952  -30.7283   24.2255 H   0  0  0  0  0  0
  -17.5033  -31.6278   24.5165 H   0  0  0  0  0  0
  -15.5362  -30.2991   23.7674 H   0  0  0  0  0  0
  -15.8688  -28.0825   22.7099 H   0  0  0  0  0  0
  -24.5919  -30.7042   25.7753 H   0  0  0  0  0  0
  -24.8864  -32.2841   26.4890 H   0  0  0  0  0  0
  -25.8014  -30.8881   27.0234 H   0  0  0  0  0  0
  -26.2988  -29.6725   24.1285 H   0  0  0  0  0  0
  -27.4080  -29.7311   25.4801 H   0  0  0  0  0  0
  -27.8858  -30.4293   23.9509 H   0  0  0  0  0  0
  -27.2669  -33.3696   26.2013 H   0  0  0  0  0  0
  -28.3881  -32.6864   25.0339 H   0  0  0  0  0  0
  -28.0689  -31.8533   26.5492 H   0  0  0  0  0  0
  -28.2568  -38.0097   24.7507 H   0  0  0  0  0  0
  -28.1081  -36.2626   24.6287 H   0  0  0  0  0  0
  -27.2275  -37.1431   25.8858 H   0  0  0  0  0  0
  -20.9463  -29.8753   21.6824 H   0  0  0  0  0  0
  -26.0156  -38.2825   24.1404 H   0  0  0  0  0  0
  -29.7445  -18.4781   18.5448 H   0  0  0  0  0  0
  -31.1709  -19.2631   19.1310 H   0  0  0  0  0  0
  -27.8008  -18.5852   21.6314 H   0  0  0  0  0  0
  -27.7847  -18.1367   19.9644 H   0  0  0  0  0  0
  -28.6449  -22.1030   21.8020 H   0  0  0  0  0  0
  -27.1699  -21.7926   20.9115 H   0  0  0  0  0  0
  -31.7080  -17.4191   20.6450 H   0  0  0  0  0  0
  -31.5175  -16.8776   19.0030 H   0  0  0  0  0  0
  -28.1479  -16.0959   21.2543 H   0  0  0  0  0  0
  -29.3996  -16.8055   22.2200 H   0  0  0  0  0  0
  -30.4618  -21.5850   18.4674 H   0  0  0  0  0  0
  -31.0746  -21.6430   20.1073 H   0  0  0  0  0  0
  -30.0944  -19.5512   21.3829 H   0  0  0  0  0  0
  -28.3937  -20.7281   19.0881 H   0  0  0  0  0  0
  -27.8267  -23.4068   19.1405 H   0  0  0  0  0  0
  -28.6504  -24.9243   21.6907 H   0  0  0  0  0  0
  -27.0507  -24.8352   21.0867 H   0  0  0  0  0  0
  -30.0058  -23.7586   18.7386 H   0  0  0  0  0  0
  -30.4507  -23.6877   20.2985 H   0  0  0  0  0  0
  1 25  1  0  0  0
  1 30  2  0  0  0
  1 81  1  0  0  0
  2  3  1  0  0  0
  2 25  1  0  0  0
  2 83  1  0  0  0
  2 84  1  0  0  0
  3  4  1  0  0  0
  3 85  1  0  0  0
  3 86  1  0  0  0
  4  5  1  0  0  0
  4 87  1  0  0  0
  4 88  1  0  0  0
  5  6  1  0  0  0
  5 26  1  0  0  0
  5 89  1  0  0  0
  6 25  1  0  0  0
  6 90  1  0  0  0
  6 91  1  0  0  0
  7  8  2  0  0  0
  7 26  1  0  0  0
  7 29  1  0  0  0
  8  9  1  0  0  0
  8 22  1  0  0  0
  9 10  1  0  0  0
  9 27  2  0  0  0
 10 11  2  0  0  0
 10 15  1  0  0  0
 11 12  1  0  0  0
 11 92  1  0  0  0
 12 13  2  0  0  0
 12 93  1  0  0  0
 13 14  1  0  0  0
 13 31  1  0  0  0
 14 15  2  0  0  0
 14 94  1  0  0  0
 15 95  1  0  0  0
 16 17  2  0  0  0
 16 21  1  0  0  0
 16 31  1  0  0  0
 17 18  1  0  0  0
 17 96  1  0  0  0
 18 19  2  0  0  0
 18 97  1  0  0  0
 19 20  1  0  0  0
 19 24  1  0  0  0
 20 21  2  0  0  0
 20 98  1  0  0  0
 21 23  1  0  0  0
 22 28  1  0  0  0
 22 32  2  0  0  0
 26 27  1  0  0  0
 28 99  1  0  0  0
 28100  1  0  0  0
 29101  1  0  0  0
 29102  1  0  0  0
 33 34  1  0  0  0
 33 66  1  0  0  0
 33 70  2  0  0  0
 34 36  1  0  0  0
 34 59  1  0  0  0
 34103  1  0  0  0
 35 44  2  0  0  0
 35 45  1  0  0  0
 35 68  1  0  0  0
 36 56  1  0  0  0
 36104  1  0  0  0
 37 39  1  0  0  0
 37 47  1  0  0  0
 37 66  1  0  0  0
 37105  1  0  0  0
 38 43  2  0  0  0
 38 46  1  0  0  0
 38 47  1  0  0  0
 39 64  1  0  0  0
 39 67  2  0  0  0
 40 52  1  0  0  0
 40 53  2  0  0  0
 40 58  1  0  0  0
 41106  1  0  0  0
 41107  1  0  0  0
 41108  1  0  0  0
 41 48  1  0  0  0
 42 43  1  0  0  0
 42 66  1  0  0  0
 42109  1  0  0  0
 42110  1  0  0  0
 43 44  1  0  0  0
 44111  1  0  0  0
 45 46  2  0  0  0
 45112  1  0  0  0
 46113  1  0  0  0
 47114  1  0  0  0
 47115  1  0  0  0
 48 56  1  0  0  0
 48 65  1  0  0  0
 48116  1  0  0  0
 49 50  1  0  0  0
 49 53  1  0  0  0
 49 64  1  0  0  0
 49117  1  0  0  0
 50 51  1  0  0  0
 50118  1  0  0  0
 50119  1  0  0  0
 51 52  1  0  0  0
 51120  1  0  0  0
 51121  1  0  0  0
 52122  1  0  0  0
 52123  1  0  0  0
 53 54  1  0  0  0
 54 55  2  0  0  0
 54124  1  0  0  0
 55 57  1  0  0  0
 55125  1  0  0  0
 56 69  2  0  0  0
 57 58  2  0  0  0
 57126  1  0  0  0
 58127  1  0  0  0
 59 60  1  0  0  0
 59 61  1  0  0  0
 59 62  1  0  0  0
 60128  1  0  0  0
 60129  1  0  0  0
 60130  1  0  0  0
 61131  1  0  0  0
 61132  1  0  0  0
 61133  1  0  0  0
 62134  1  0  0  0
 62135  1  0  0  0
 62136  1  0  0  0
 63 65  1  0  0  0
 63137  1  0  0  0
 63138  1  0  0  0
 63139  1  0  0  0
 64140  1  0  0  0
 65141  1  0  0  0
 68 80  1  0  0  0
 71 74  1  0  0  0
 71142  1  0  0  0
 71143  1  0  0  0
 71 77  1  0  0  0
 72 75  1  0  0  0
 72 77  1  0  0  0
 72144  1  0  0  0
 72145  1  0  0  0
 73 79  1  0  0  0
 73146  1  0  0  0
 73147  1  0  0  0
 73 78  1  0  0  0
 74 81  1  0  0  0
 74148  1  0  0  0
 74149  1  0  0  0
 75 81  1  0  0  0
 75150  1  0  0  0
 75151  1  0  0  0
 76 78  1  0  0  0
 76 82  1  0  0  0
 76152  1  0  0  0
 76153  1  0  0  0
 77 78  1  0  0  0
 77154  1  0  0  0
 78155  1  0  0  0
 79 80  1  0  0  0
 79 82  1  0  0  0
 79156  1  0  0  0
 80157  1  0  0  0
 80158  1  0  0  0
 82159  1  0  0  0
 82160  1  0  0  0
M  CHG  1  82   1
M  ISO  4   1 100  68 101  80 101  81 100
M  END
> <chiral flag>
0

> <version>
0

> <s_m_source_file>
/data/baiqing/PycharmProjects/Reinvent-master-3.2/result/LINK_invent/BTK/process_docking_weight1_custom_sum_contain_oxygen_bond_distance_aromatic_linkinvent_7_9_3/rearranged_h_0138.sdf

> <i_m_source_file_index>
10

> <r_mmod_Potential_Energy-OPLS-2005>
500.877655029297

> <r_mmod_Stretch_Energy-OPLS-2005>
163.760879516602

> <r_mmod_Bend_Energy-OPLS-2005>
284.053009033203

> <r_mmod_Torsional_Energy-OPLS-2005>
390.680328369141

> <r_mmod_Improper_Torsional_Energy-OPLS-2005>
15.2741527557373

> <r_mmod_Van_der_Waal_Energy-OPLS-2005>
121.029960632324

> <r_mmod_Electrostatic_Energy-OPLS-2005>
-165.407485961914

> <r_mmod_Solvation_Energy-OPLS-2005>
-433.833129882812

> <b_mmod_Minimization_Converged-OPLS-2005>
0

> <r_mmod_RMS_Derivative-OPLS-2005>
2.11148142814636

$$$$
10
                    3D
 Structure written by MMmdl.
171180  0  0  1  0            999 V2000
  -30.7325  -14.3531   20.6487 C   0  0  0  0  0  0
  -30.4207  -12.2482   19.4034 C   0  0  0  0  0  0
  -29.5034  -12.5072   18.1928 C   0  0  0  0  0  0
  -28.0191  -12.3918   18.5939 C   0  0  0  0  0  0
  -27.6731  -13.1934   19.8796 C   0  0  2  0  0  0
  -28.7020  -12.9004   20.9916 C   0  0  0  0  0  0
  -25.2631  -13.8119   20.5619 C   0  0  0  0  0  0
  -24.1865  -13.0442   20.9121 C   0  0  0  0  0  0
  -24.6384  -11.6890   20.8677 C   0  0  0  0  0  0
  -23.9050  -10.4287   21.0348 C   0  0  0  0  0  0
  -24.3633   -9.4219   21.9131 C   0  0  0  0  0  0
  -23.6322   -8.2255   22.0746 C   0  0  0  0  0  0
  -22.4293   -8.0266   21.3560 C   0  0  0  0  0  0
  -21.9901   -9.0220   20.4661 C   0  0  0  0  0  0
  -22.7210  -10.2108   20.3031 C   0  0  0  0  0  0
  -21.6861   -6.0726   22.5290 C   0  0  0  0  0  0
  -21.4014   -6.5629   23.8222 C   0  0  0  0  0  0
  -21.3675   -5.6785   24.9191 C   0  0  0  0  0  0
  -21.6062   -4.3051   24.7232 C   0  0  0  0  0  0
  -21.8796   -3.8140   23.4350 C   0  0  0  0  0  0
  -21.9198   -4.6958   22.3414 C   0  0  0  0  0  0
  -22.7901  -13.5268   21.1829 C   0  0  0  0  0  0
  -22.1652   -4.2138   21.0987 F   0  0  0  0  0  0
  -21.5665   -3.4534   25.7742 F   0  0  0  0  0  0
  -30.0507  -13.1947   20.4624 N   0  0  0  0  0  0
  -26.3070  -12.9281   20.3313 N   0  0  0  0  0  0
  -25.9314  -11.6467   20.5705 N   0  0  0  0  0  0
  -22.0541  -12.8291   22.0390 N   0  0  0  0  0  0
  -25.4379  -15.1857   20.4078 N   0  0  0  0  0  0
  -31.7800  -14.6432   20.0665 O   0  0  0  0  0  0
  -21.6659   -6.8868   21.4257 O   0  0  0  0  0  0
  -22.3570  -14.5538   20.6604 O   0  0  0  0  0  0
  -24.6185  -31.8656   23.2142 C   0  0  0  0  0  0
  -25.9105  -32.4799   23.8458 C   0  0  1  0  0  0
  -27.2378  -27.4571   20.0976 C   0  0  0  0  0  0
  -25.6039  -33.8588   24.2425 N   0  0  0  0  0  0
  -23.4008  -30.4931   21.5527 C   0  0  2  0  0  0
  -24.8461  -28.9579   20.1197 C   0  0  0  0  0  0
  -22.7404  -29.4647   22.4999 C   0  0  0  0  0  0
  -18.0263  -28.1344   22.8481 C   0  0  0  0  0  0
  -24.1477  -36.7232   23.2609 C   0  0  0  0  0  0
  -25.9258  -30.8490   21.3506 C   0  0  0  0  0  0
  -26.0058  -29.4783   20.7077 C   0  0  0  0  0  0
  -27.2079  -28.7380   20.6907 C   0  0  0  0  0  0
  -26.0646  -26.9423   19.5113 C   0  0  0  0  0  0
  -24.8694  -27.6867   19.5175 C   0  0  0  0  0  0
  -23.6066  -29.8218   20.1666 C   0  0  0  0  0  0
  -25.4085  -36.3077   24.0360 C   0  0  1  0  0  0
  -20.5848  -28.3603   23.1317 C   0  0  2  0  0  0
  -20.6731  -26.9339   22.5406 C   0  0  0  0  0  0
  -19.5712  -26.6354   21.5177 C   0  0  0  0  0  0
  -18.1887  -26.7897   22.1591 C   0  0  0  0  0  0
  -19.1510  -28.8788   23.2904 C   0  0  0  0  0  0
  -18.9438  -30.1396   23.8887 C   0  0  0  0  0  0
  -17.6443  -30.6541   24.0548 C   0  0  0  0  0  0
  -25.9029  -34.9448   23.5159 C   0  0  0  0  0  0
  -16.5333  -29.9030   23.6329 C   0  0  0  0  0  0
  -16.7249  -28.6456   23.0367 C   0  0  0  0  0  0
  -26.4535  -31.6549   25.0756 C   0  0  0  0  0  0
  -25.3828  -31.3654   26.1525 C   0  0  0  0  0  0
  -27.0288  -30.2994   24.6041 C   0  0  0  0  0  0
  -27.6172  -32.4189   25.7507 C   0  0  0  0  0  0
  -27.5550  -37.1738   24.8494 C   0  0  0  0  0  0
  -21.4133  -29.3005   22.3748 N   0  0  0  0  0  0
  -26.4236  -37.3790   23.9475 N   0  0  0  0  0  0
  -24.6665  -31.0848   22.0973 N   0  0  0  0  0  0
  -23.4205  -28.8164   23.3001 O   0  0  0  0  0  0
  -28.4098  -26.7442   20.0306 O   0  0  0  0  0  0
  -26.5478  -34.8869   22.4647 O   0  0  0  0  0  0
  -23.5385  -32.1382   23.7555 O   0  0  0  0  0  0
  -27.6665  -20.3367   19.7445 C   0  0  0  0  0  0
  -28.3644  -19.1173   19.6800 C   0  0  0  0  0  0
  -28.9647  -20.9545   21.7054 C   0  0  0  0  0  0
  -27.9703  -21.2731   20.7506 C   0  0  0  0  0  0
  -29.3854  -18.8005   20.6057 C   0  0  0  0  0  0
  -29.6752  -19.7286   21.6464 C   0  0  0  0  0  0
  -30.2747  -18.1752   26.2045 C   0  0  0  0  0  0
  -29.9890  -17.2474   25.0516 C   0  0  0  0  0  0
  -30.8626  -18.4635   24.8390 C   0  0  0  0  0  0
  -30.1257  -17.4661   20.3975 C   0  0  0  0  0  0
  -27.2158  -22.6004   20.7920 C   0  0  0  0  0  0
  -30.3837  -19.6452   24.0070 C   0  0  0  0  0  0
  -30.3610  -16.6189   21.6706 C   0  0  0  0  0  0
  -28.9323  -24.3605   20.2770 C   0  0  0  0  0  0
  -28.5457  -25.6844   20.9809 C   0  0  0  0  0  0
  -30.6838  -19.4651   22.5879 N   0  0  0  0  0  0
  -30.1113  -15.1982   21.4743 N   0  0  0  0  0  0
  -27.7589  -23.5776   19.8158 N   0  3  0  0  0  0
  -31.4683  -12.3387   19.1154 H   0  0  0  0  0  0
  -30.2982  -11.2219   19.7560 H   0  0  0  0  0  0
  -29.7360  -11.8089   17.3875 H   0  0  0  0  0  0
  -29.7025  -13.5035   17.7979 H   0  0  0  0  0  0
  -27.7984  -11.3349   18.7446 H   0  0  0  0  0  0
  -27.3875  -12.7215   17.7664 H   0  0  0  0  0  0
  -27.7448  -14.2535   19.6336 H   0  0  0  0  0  0
  -28.6548  -11.8467   21.2750 H   0  0  0  0  0  0
  -28.4459  -13.4386   21.9059 H   0  0  0  0  0  0
  -25.2783   -9.5720   22.4707 H   0  0  0  0  0  0
  -24.0050   -7.4654   22.7458 H   0  0  0  0  0  0
  -21.0834   -8.8708   19.8978 H   0  0  0  0  0  0
  -22.3625  -10.9644   19.6157 H   0  0  0  0  0  0
  -21.1962   -7.6129   23.9714 H   0  0  0  0  0  0
  -21.1562   -6.0526   25.9096 H   0  0  0  0  0  0
  -22.0566   -2.7603   23.2850 H   0  0  0  0  0  0
  -22.4172  -12.0005   22.4868 H   0  0  0  0  0  0
  -21.1138  -13.1309   22.2546 H   0  0  0  0  0  0
  -24.6716  -15.8408   20.5195 H   0  0  0  0  0  0
  -26.3013  -15.6319   20.1233 H   0  0  0  0  0  0
  -26.7216  -32.5499   23.1258 H   0  0  0  0  0  0
  -25.0589  -33.9785   25.0841 H   0  0  0  0  0  0
  -22.6898  -31.3083   21.4178 H   0  0  0  0  0  0
  -23.3752  -35.9543   23.3270 H   0  0  0  0  0  0
  -24.3624  -36.8797   22.2028 H   0  0  0  0  0  0
  -23.7180  -37.6432   23.6562 H   0  0  0  0  0  0
  -26.0266  -31.6162   20.5772 H   0  0  0  0  0  0
  -26.8148  -30.9121   21.9652 H   0  0  0  0  0  0
  -28.1092  -29.1575   21.1175 H   0  0  0  0  0  0
  -26.0771  -25.9765   19.0303 H   0  0  0  0  0  0
  -23.9811  -27.2871   19.0486 H   0  0  0  0  0  0
  -23.7080  -30.5939   19.4035 H   0  0  0  0  0  0
  -22.7303  -29.2380   19.8766 H   0  0  0  0  0  0
  -25.1250  -36.1929   25.0843 H   0  0  0  0  0  0
  -20.9967  -28.3149   24.1420 H   0  0  0  0  0  0
  -20.5533  -26.2238   23.3612 H   0  0  0  0  0  0
  -21.6623  -26.7313   22.1255 H   0  0  0  0  0  0
  -19.6855  -25.6261   21.1188 H   0  0  0  0  0  0
  -19.6650  -27.3183   20.6712 H   0  0  0  0  0  0
  -17.4198  -26.6689   21.3959 H   0  0  0  0  0  0
  -18.0228  -25.9989   22.8920 H   0  0  0  0  0  0
  -19.7925  -30.7229   24.2244 H   0  0  0  0  0  0
  -17.4993  -31.6203   24.5163 H   0  0  0  0  0  0
  -15.5335  -30.2948   23.7595 H   0  0  0  0  0  0
  -15.8672  -28.0753   22.7105 H   0  0  0  0  0  0
  -24.6090  -30.6861   25.7946 H   0  0  0  0  0  0
  -24.8868  -32.2765   26.4860 H   0  0  0  0  0  0
  -25.8215  -30.8994   27.0363 H   0  0  0  0  0  0
  -26.2762  -29.6812   24.1109 H   0  0  0  0  0  0
  -27.4139  -29.7175   25.4431 H   0  0  0  0  0  0
  -27.8606  -30.4335   23.9106 H   0  0  0  0  0  0
  -27.2901  -33.3506   26.2121 H   0  0  0  0  0  0
  -28.3985  -32.6673   25.0315 H   0  0  0  0  0  0
  -28.0839  -31.8249   26.5377 H   0  0  0  0  0  0
  -28.2669  -37.9964   24.7558 H   0  0  0  0  0  0
  -28.0962  -36.2512   24.6299 H   0  0  0  0  0  0
  -27.2292  -37.1406   25.8914 H   0  0  0  0  0  0
  -20.9249  -29.8826   21.7090 H   0  0  0  0  0  0
  -26.0120  -38.2840   24.1588 H   0  0  0  0  0  0
  -26.8986  -20.5448   19.0134 H   0  0  0  0  0  0
  -28.1104  -18.4218   18.8916 H   0  0  0  0  0  0
  -29.1983  -21.6793   22.4711 H   0  0  0  0  0  0
  -30.9418  -17.8048   26.9828 H   0  0  0  0  0  0
  -29.4518  -18.7937   26.5614 H   0  0  0  0  0  0
  -28.9848  -17.2625   24.6317 H   0  0  0  0  0  0
  -30.4811  -16.2733   25.0452 H   0  0  0  0  0  0
  -31.9337  -18.2771   24.7662 H   0  0  0  0  0  0
  -31.0797  -17.6620   19.9067 H   0  0  0  0  0  0
  -29.5549  -16.8749   19.6759 H   0  0  0  0  0  0
  -27.2117  -23.0149   21.8010 H   0  0  0  0  0  0
  -26.1683  -22.4026   20.5555 H   0  0  0  0  0  0
  -30.8923  -20.5436   24.3683 H   0  0  0  0  0  0
  -29.3163  -19.7991   24.1788 H   0  0  0  0  0  0
  -31.3585  -16.7679   22.0890 H   0  0  0  0  0  0
  -29.6389  -16.9244   22.4246 H   0  0  0  0  0  0
  -29.5312  -23.7426   20.9461 H   0  0  0  0  0  0
  -29.5721  -24.5685   19.4194 H   0  0  0  0  0  0
  -29.3597  -25.9841   21.6434 H   0  0  0  0  0  0
  -27.6628  -25.5641   21.6142 H   0  0  0  0  0  0
  -31.2738  -18.6654   22.3790 H   0  0  0  0  0  0
  -29.2987  -14.8196   21.9370 H   0  0  0  0  0  0
  -27.0379  -24.2223   19.5376 H   0  0  0  0  0  0
  -28.0136  -23.0635   18.9857 H   0  0  0  0  0  0
  1 25  1  0  0  0
  1 30  2  0  0  0
  1 87  1  0  0  0
  2  3  1  0  0  0
  2 25  1  0  0  0
  2 89  1  0  0  0
  2 90  1  0  0  0
  3  4  1  0  0  0
  3 91  1  0  0  0
  3 92  1  0  0  0
  4  5  1  0  0  0
  4 93  1  0  0  0
  4 94  1  0  0  0
  5  6  1  0  0  0
  5 26  1  0  0  0
  5 95  1  0  0  0
  6 25  1  0  0  0
  6 96  1  0  0  0
  6 97  1  0  0  0
  7  8  2  0  0  0
  7 26  1  0  0  0
  7 29  1  0  0  0
  8  9  1  0  0  0
  8 22  1  0  0  0
  9 10  1  0  0  0
  9 27  2  0  0  0
 10 11  2  0  0  0
 10 15  1  0  0  0
 11 12  1  0  0  0
 11 98  1  0  0  0
 12 13  2  0  0  0
 12 99  1  0  0  0
 13 14  1  0  0  0
 13 31  1  0  0  0
 14 15  2  0  0  0
 14100  1  0  0  0
 15101  1  0  0  0
 16 17  2  0  0  0
 16 21  1  0  0  0
 16 31  1  0  0  0
 17 18  1  0  0  0
 17102  1  0  0  0
 18 19  2  0  0  0
 18103  1  0  0  0
 19 20  1  0  0  0
 19 24  1  0  0  0
 20 21  2  0  0  0
 20104  1  0  0  0
 21 23  1  0  0  0
 22 28  1  0  0  0
 22 32  2  0  0  0
 26 27  1  0  0  0
 28105  1  0  0  0
 28106  1  0  0  0
 29107  1  0  0  0
 29108  1  0  0  0
 33 34  1  0  0  0
 33 66  1  0  0  0
 33 70  2  0  0  0
 34 36  1  0  0  0
 34 59  1  0  0  0
 34109  1  0  0  0
 35 44  2  0  0  0
 35 45  1  0  0  0
 35 68  1  0  0  0
 36 56  1  0  0  0
 36110  1  0  0  0
 37 39  1  0  0  0
 37 47  1  0  0  0
 37 66  1  0  0  0
 37111  1  0  0  0
 38 43  2  0  0  0
 38 46  1  0  0  0
 38 47  1  0  0  0
 39 64  1  0  0  0
 39 67  2  0  0  0
 40 52  1  0  0  0
 40 53  2  0  0  0
 40 58  1  0  0  0
 41112  1  0  0  0
 41113  1  0  0  0
 41114  1  0  0  0
 41 48  1  0  0  0
 42 43  1  0  0  0
 42 66  1  0  0  0
 42115  1  0  0  0
 42116  1  0  0  0
 43 44  1  0  0  0
 44117  1  0  0  0
 45 46  2  0  0  0
 45118  1  0  0  0
 46119  1  0  0  0
 47120  1  0  0  0
 47121  1  0  0  0
 48 56  1  0  0  0
 48 65  1  0  0  0
 48122  1  0  0  0
 49 50  1  0  0  0
 49 53  1  0  0  0
 49 64  1  0  0  0
 49123  1  0  0  0
 50 51  1  0  0  0
 50124  1  0  0  0
 50125  1  0  0  0
 51 52  1  0  0  0
 51126  1  0  0  0
 51127  1  0  0  0
 52128  1  0  0  0
 52129  1  0  0  0
 53 54  1  0  0  0
 54 55  2  0  0  0
 54130  1  0  0  0
 55 57  1  0  0  0
 55131  1  0  0  0
 56 69  2  0  0  0
 57 58  2  0  0  0
 57132  1  0  0  0
 58133  1  0  0  0
 59 60  1  0  0  0
 59 61  1  0  0  0
 59 62  1  0  0  0
 60134  1  0  0  0
 60135  1  0  0  0
 60136  1  0  0  0
 61137  1  0  0  0
 61138  1  0  0  0
 61139  1  0  0  0
 62140  1  0  0  0
 62141  1  0  0  0
 62142  1  0  0  0
 63 65  1  0  0  0
 63143  1  0  0  0
 63144  1  0  0  0
 63145  1  0  0  0
 64146  1  0  0  0
 65147  1  0  0  0
 68 85  1  0  0  0
 71 72  2  0  0  0
 71 74  1  0  0  0
 71148  1  0  0  0
 72 75  1  0  0  0
 72149  1  0  0  0
 73 74  2  0  0  0
 73 76  1  0  0  0
 73150  1  0  0  0
 74 81  1  0  0  0
 75 76  2  0  0  0
 75 80  1  0  0  0
 76 86  1  0  0  0
 77 78  1  0  0  0
 77 79  1  0  0  0
 77151  1  0  0  0
 77152  1  0  0  0
 78 79  1  0  0  0
 78153  1  0  0  0
 78154  1  0  0  0
 79 82  1  0  0  0
 79155  1  0  0  0
 80 83  1  0  0  0
 80156  1  0  0  0
 80157  1  0  0  0
 81 88  1  0  0  0
 81158  1  0  0  0
 81159  1  0  0  0
 82 86  1  0  0  0
 82160  1  0  0  0
 82161  1  0  0  0
 83 87  1  0  0  0
 83162  1  0  0  0
 83163  1  0  0  0
 84 85  1  0  0  0
 84 88  1  0  0  0
 84164  1  0  0  0
 84165  1  0  0  0
 85166  1  0  0  0
 85167  1  0  0  0
 86168  1  0  0  0
 87169  1  0  0  0
 88170  1  0  0  0
 88171  1  0  0  0
M  CHG  1  88   1
M  ISO  4   1 100  68 101  85 101  87 100
M  END
> <chiral flag>
0

> <version>
0

> <s_m_source_file>
/data/baiqing/PycharmProjects/Reinvent-master-3.2/result/LINK_invent/BTK/process_docking_weight1_custom_sum_contain_oxygen_bond_distance_aromatic_linkinvent_7_9_3/rearranged_h_0138.sdf

> <i_m_source_file_index>
11

> <r_mmod_Potential_Energy-OPLS-2005>
-238.66194152832

> <r_mmod_Stretch_Energy-OPLS-2005>
36.6144027709961

> <r_mmod_Bend_Energy-OPLS-2005>
100.506538391113

> <r_mmod_Torsional_Energy-OPLS-2005>
287.974853515625

> <r_mmod_Improper_Torsional_Energy-OPLS-2005>
5.68987798690796

> <r_mmod_Van_der_Waal_Energy-OPLS-2005>
142.662231445312

> <r_mmod_Electrostatic_Energy-OPLS-2005>
-367.080505371094

> <r_mmod_Solvation_Energy-OPLS-2005>
-452.223999023438

> <b_mmod_Minimization_Converged-OPLS-2005>
0

> <r_mmod_RMS_Derivative-OPLS-2005>
5.73662900924683

$$$$
11
                    3D
 Structure written by MMmdl.
153161  0  0  1  0            999 V2000
  -30.4328  -15.2558   20.3662 C   0  0  0  0  0  0
  -30.4389  -12.7949   19.5420 C   0  0  0  0  0  0
  -29.5393  -12.5806   18.2977 C   0  0  0  0  0  0
  -28.0860  -12.3058   18.7189 C   0  0  0  0  0  0
  -27.6153  -13.2760   19.8308 C   0  0  2  0  0  0
  -28.6452  -13.4384   20.9710 C   0  0  0  0  0  0
  -25.2392  -13.8254   20.5752 C   0  0  0  0  0  0
  -24.1742  -13.0441   20.9254 C   0  0  0  0  0  0
  -24.6395  -11.6937   20.8760 C   0  0  0  0  0  0
  -23.9091  -10.4294   21.0404 C   0  0  0  0  0  0
  -24.3633   -9.4209   21.9185 C   0  0  0  0  0  0
  -23.6301   -8.2247   22.0755 C   0  0  0  0  0  0
  -22.4283   -8.0285   21.3546 C   0  0  0  0  0  0
  -21.9925   -9.0259   20.4647 C   0  0  0  0  0  0
  -22.7259  -10.2135   20.3057 C   0  0  0  0  0  0
  -21.6856   -6.0737   22.5280 C   0  0  0  0  0  0
  -21.4016   -6.5640   23.8212 C   0  0  0  0  0  0
  -21.3661   -5.6794   24.9174 C   0  0  0  0  0  0
  -21.6044   -4.3056   24.7225 C   0  0  0  0  0  0
  -21.8818   -3.8147   23.4346 C   0  0  0  0  0  0
  -21.9192   -4.6964   22.3401 C   0  0  0  0  0  0
  -22.7759  -13.5192   21.1900 C   0  0  0  0  0  0
  -22.1662   -4.2149   21.0980 F   0  0  0  0  0  0
  -21.5628   -3.4540   25.7737 F   0  0  0  0  0  0
  -29.8862  -13.9399   20.3587 N   0  0  0  0  0  0
  -26.2825  -12.9532   20.3238 N   0  0  0  0  0  0
  -25.9334  -11.6634   20.5724 N   0  0  0  0  0  0
  -22.0416  -12.8177   22.0455 N   0  0  0  0  0  0
  -25.4031  -15.1991   20.4194 N   0  0  0  0  0  0
  -31.6376  -15.2742   20.0751 O   0  0  0  0  0  0
  -21.6645   -6.8883   21.4243 O   0  0  0  0  0  0
  -22.3438  -14.5492   20.6737 O   0  0  0  0  0  0
  -24.6618  -31.8230   23.1699 C   0  0  0  0  0  0
  -25.9306  -32.4579   23.8160 C   0  0  1  0  0  0
  -27.2223  -26.9320   20.1832 C   0  0  0  0  0  0
  -25.5976  -33.8395   24.2066 N   0  0  0  0  0  0
  -23.4767  -30.4334   21.5181 C   0  0  2  0  0  0
  -24.9317  -28.8211   20.1079 C   0  0  0  0  0  0
  -22.7661  -29.4435   22.4778 C   0  0  0  0  0  0
  -18.0319  -28.1412   22.8468 C   0  0  0  0  0  0
  -24.1496  -36.7206   23.2647 C   0  0  0  0  0  0
  -26.0441  -30.6297   21.4011 C   0  0  0  0  0  0
  -26.1120  -29.2200   20.7457 C   0  0  0  0  0  0
  -27.2485  -28.2947   20.7625 C   0  0  0  0  0  0
  -26.0176  -26.6880   19.4852 C   0  0  0  0  0  0
  -24.9100  -27.5763   19.4568 C   0  0  0  0  0  0
  -23.7164  -29.7474   20.1441 C   0  0  0  0  0  0
  -25.4137  -36.2961   24.0297 C   0  0  1  0  0  0
  -20.5943  -28.3756   23.1193 C   0  0  2  0  0  0
  -20.6797  -26.9437   22.5413 C   0  0  0  0  0  0
  -19.5771  -26.6381   21.5221 C   0  0  0  0  0  0
  -18.1951  -26.7946   22.1624 C   0  0  0  0  0  0
  -19.1579  -28.8905   23.2818 C   0  0  0  0  0  0
  -18.9489  -30.1496   23.8849 C   0  0  0  0  0  0
  -17.6481  -30.6603   24.0557 C   0  0  0  0  0  0
  -25.9101  -34.9343   23.5003 C   0  0  0  0  0  0
  -16.5373  -29.9090   23.6343 C   0  0  0  0  0  0
  -16.7300  -28.6509   23.0363 C   0  0  0  0  0  0
  -26.4562  -31.6528   25.0691 C   0  0  0  0  0  0
  -25.3691  -31.3782   26.1350 C   0  0  0  0  0  0
  -27.0463  -30.2893   24.6429 C   0  0  0  0  0  0
  -27.6048  -32.4343   25.7497 C   0  0  0  0  0  0
  -27.5569  -37.1759   24.8464 C   0  0  0  0  0  0
  -21.4331  -29.3040   22.3534 N   0  0  0  0  0  0
  -26.4280  -37.3697   23.9404 N   0  0  0  0  0  0
  -24.7484  -30.9895   22.0834 N   0  0  0  0  0  0
  -23.4209  -28.8012   23.3027 O   0  0  0  0  0  0
  -28.2305  -25.8382   20.3059 O   0  0  0  0  0  0
  -26.5712  -34.8880   22.4600 O   0  0  0  0  0  0
  -23.5689  -32.1206   23.6790 O   0  0  0  0  0  0
  -28.0317  -20.1227   19.3755 C   0  0  0  0  0  0
  -28.5538  -18.6167   19.1120 C   0  0  0  0  0  0
  -29.6587  -19.6102   20.9178 C   0  0  0  0  0  0
  -29.0926  -21.0120   20.0907 C   0  0  2  0  0  0
  -29.7185  -18.1275   20.0587 C   0  0  1  0  0  0
  -27.8950  -22.5197   21.9440 C   0  0  0  0  0  0
  -28.1409  -24.2325   19.9247 C   0  0  0  0  0  0
  -28.7291  -22.6947   20.6695 C   0  0  2  0  0  0
  -29.6529  -16.5119   20.5064 N   0  0  0  0  0  0
  -31.4616  -12.9888   19.2173 H   0  0  0  0  0  0
  -30.4942  -11.8840   20.1401 H   0  0  0  0  0  0
  -29.9174  -11.7578   17.6895 H   0  0  0  0  0  0
  -29.5745  -13.4707   17.6679 H   0  0  0  0  0  0
  -28.0383  -11.2798   19.0854 H   0  0  0  0  0  0
  -27.4198  -12.3550   17.8567 H   0  0  0  0  0  0
  -27.5359  -14.2465   19.3394 H   0  0  0  0  0  0
  -28.8032  -12.4998   21.5042 H   0  0  0  0  0  0
  -28.2842  -14.1568   21.7086 H   0  0  0  0  0  0
  -25.2771   -9.5685   22.4768 H   0  0  0  0  0  0
  -24.0003   -7.4639   22.7478 H   0  0  0  0  0  0
  -21.0853   -8.8782   19.8953 H   0  0  0  0  0  0
  -22.3714  -10.9676   19.6169 H   0  0  0  0  0  0
  -21.2014   -7.6149   23.9717 H   0  0  0  0  0  0
  -21.1484   -6.0523   25.9077 H   0  0  0  0  0  0
  -22.0594   -2.7609   23.2846 H   0  0  0  0  0  0
  -22.4040  -11.9845   22.4848 H   0  0  0  0  0  0
  -21.1030  -13.1191   22.2656 H   0  0  0  0  0  0
  -24.6322  -15.8482   20.5342 H   0  0  0  0  0  0
  -26.2411  -15.6406   20.0651 H   0  0  0  0  0  0
  -26.7373  -32.5119   23.0872 H   0  0  0  0  0  0
  -25.0070  -33.9470   25.0180 H   0  0  0  0  0  0
  -22.7898  -31.2645   21.3464 H   0  0  0  0  0  0
  -23.3764  -35.9529   23.3278 H   0  0  0  0  0  0
  -24.3572  -36.8885   22.2067 H   0  0  0  0  0  0
  -23.7250  -37.6383   23.6726 H   0  0  0  0  0  0
  -26.2241  -31.3706   20.6210 H   0  0  0  0  0  0
  -26.9043  -30.6866   22.0562 H   0  0  0  0  0  0
  -28.1375  -28.5947   21.2990 H   0  0  0  0  0  0
  -25.8914  -25.7406   18.9826 H   0  0  0  0  0  0
  -24.0144  -27.2676   18.9352 H   0  0  0  0  0  0
  -23.8696  -30.5154   19.3852 H   0  0  0  0  0  0
  -22.8270  -29.1992   19.8281 H   0  0  0  0  0  0
  -25.1336  -36.1753   25.0787 H   0  0  0  0  0  0
  -21.0034  -28.3370   24.1315 H   0  0  0  0  0  0
  -20.5673  -26.2378   23.3656 H   0  0  0  0  0  0
  -21.6664  -26.7412   22.1219 H   0  0  0  0  0  0
  -19.6934  -25.6282   21.1278 H   0  0  0  0  0  0
  -19.6711  -27.3172   20.6736 H   0  0  0  0  0  0
  -18.0336  -26.0102   22.9031 H   0  0  0  0  0  0
  -17.4222  -26.6696   21.4027 H   0  0  0  0  0  0
  -19.7965  -30.7326   24.2194 H   0  0  0  0  0  0
  -17.5032  -31.6277   24.5164 H   0  0  0  0  0  0
  -15.5369  -30.2974   23.7688 H   0  0  0  0  0  0
  -15.8703  -28.0809   22.7105 H   0  0  0  0  0  0
  -24.5889  -30.7111   25.7665 H   0  0  0  0  0  0
  -24.8864  -32.2986   26.4645 H   0  0  0  0  0  0
  -25.7927  -30.9040   27.0213 H   0  0  0  0  0  0
  -26.3133  -29.6560   24.1419 H   0  0  0  0  0  0
  -27.3977  -29.7262   25.5086 H   0  0  0  0  0  0
  -27.9080  -30.4068   23.9855 H   0  0  0  0  0  0
  -27.2607  -33.3687   26.1944 H   0  0  0  0  0  0
  -28.3930  -32.6837   25.0381 H   0  0  0  0  0  0
  -28.0639  -31.8561   26.5526 H   0  0  0  0  0  0
  -28.2565  -38.0074   24.7507 H   0  0  0  0  0  0
  -28.1086  -36.2598   24.6300 H   0  0  0  0  0  0
  -27.2283  -37.1410   25.8866 H   0  0  0  0  0  0
  -20.9587  -29.8718   21.6650 H   0  0  0  0  0  0
  -26.0125  -38.2753   24.1413 H   0  0  0  0  0  0
  -27.1482  -20.0734   20.0140 H   0  0  0  0  0  0
  -27.7002  -20.5849   18.4449 H   0  0  0  0  0  0
  -28.8986  -18.5412   18.0796 H   0  0  0  0  0  0
  -27.7045  -17.9361   19.1792 H   0  0  0  0  0  0
  -29.0100  -19.4592   21.7820 H   0  0  0  0  0  0
  -30.6425  -19.8163   21.3410 H   0  0  0  0  0  0
  -29.8594  -21.1931   19.3360 H   0  0  0  0  0  0
  -30.6394  -18.1840   19.4759 H   0  0  0  0  0  0
  -26.8831  -22.1904   21.7068 H   0  0  0  0  0  0
  -27.8190  -23.4566   22.4972 H   0  0  0  0  0  0
  -28.3395  -21.7816   22.6120 H   0  0  0  0  0  0
  -28.5691  -24.2168   18.9224 H   0  0  0  0  0  0
  -27.0819  -24.0498   19.7500 H   0  0  0  0  0  0
  -29.7167  -23.0041   21.0137 H   0  0  0  0  0  0
  -28.7275  -16.2788   20.8364 H   0  0  0  0  0  0
  1 25  1  0  0  0
  1 30  2  0  0  0
  1 79  1  0  0  0
  2  3  1  0  0  0
  2 25  1  0  0  0
  2 80  1  0  0  0
  2 81  1  0  0  0
  3  4  1  0  0  0
  3 82  1  0  0  0
  3 83  1  0  0  0
  4  5  1  0  0  0
  4 84  1  0  0  0
  4 85  1  0  0  0
  5  6  1  0  0  0
  5 26  1  0  0  0
  5 86  1  0  0  0
  6 25  1  0  0  0
  6 87  1  0  0  0
  6 88  1  0  0  0
  7  8  2  0  0  0
  7 26  1  0  0  0
  7 29  1  0  0  0
  8  9  1  0  0  0
  8 22  1  0  0  0
  9 10  1  0  0  0
  9 27  2  0  0  0
 10 11  2  0  0  0
 10 15  1  0  0  0
 11 12  1  0  0  0
 11 89  1  0  0  0
 12 13  2  0  0  0
 12 90  1  0  0  0
 13 14  1  0  0  0
 13 31  1  0  0  0
 14 15  2  0  0  0
 14 91  1  0  0  0
 15 92  1  0  0  0
 16 17  2  0  0  0
 16 21  1  0  0  0
 16 31  1  0  0  0
 17 18  1  0  0  0
 17 93  1  0  0  0
 18 19  2  0  0  0
 18 94  1  0  0  0
 19 20  1  0  0  0
 19 24  1  0  0  0
 20 21  2  0  0  0
 20 95  1  0  0  0
 21 23  1  0  0  0
 22 28  1  0  0  0
 22 32  2  0  0  0
 26 27  1  0  0  0
 28 96  1  0  0  0
 28 97  1  0  0  0
 29 98  1  0  0  0
 29 99  1  0  0  0
 33 34  1  0  0  0
 33 66  1  0  0  0
 33 70  2  0  0  0
 34 36  1  0  0  0
 34 59  1  0  0  0
 34100  1  0  0  0
 35 44  2  0  0  0
 35 45  1  0  0  0
 35 68  1  0  0  0
 36 56  1  0  0  0
 36101  1  0  0  0
 37 39  1  0  0  0
 37 47  1  0  0  0
 37 66  1  0  0  0
 37102  1  0  0  0
 38 43  2  0  0  0
 38 46  1  0  0  0
 38 47  1  0  0  0
 39 64  1  0  0  0
 39 67  2  0  0  0
 40 52  1  0  0  0
 40 53  2  0  0  0
 40 58  1  0  0  0
 41103  1  0  0  0
 41104  1  0  0  0
 41105  1  0  0  0
 41 48  1  0  0  0
 42 43  1  0  0  0
 42 66  1  0  0  0
 42106  1  0  0  0
 42107  1  0  0  0
 43 44  1  0  0  0
 44108  1  0  0  0
 45 46  2  0  0  0
 45109  1  0  0  0
 46110  1  0  0  0
 47111  1  0  0  0
 47112  1  0  0  0
 48 56  1  0  0  0
 48 65  1  0  0  0
 48113  1  0  0  0
 49 50  1  0  0  0
 49 53  1  0  0  0
 49 64  1  0  0  0
 49114  1  0  0  0
 50 51  1  0  0  0
 50115  1  0  0  0
 50116  1  0  0  0
 51 52  1  0  0  0
 51117  1  0  0  0
 51118  1  0  0  0
 52119  1  0  0  0
 52120  1  0  0  0
 53 54  1  0  0  0
 54 55  2  0  0  0
 54121  1  0  0  0
 55 57  1  0  0  0
 55122  1  0  0  0
 56 69  2  0  0  0
 57 58  2  0  0  0
 57123  1  0  0  0
 58124  1  0  0  0
 59 60  1  0  0  0
 59 61  1  0  0  0
 59 62  1  0  0  0
 60125  1  0  0  0
 60126  1  0  0  0
 60127  1  0  0  0
 61128  1  0  0  0
 61129  1  0  0  0
 61130  1  0  0  0
 62131  1  0  0  0
 62132  1  0  0  0
 62133  1  0  0  0
 63 65  1  0  0  0
 63134  1  0  0  0
 63135  1  0  0  0
 63136  1  0  0  0
 64137  1  0  0  0
 65138  1  0  0  0
 68 77  1  0  0  0
 71 72  1  0  0  0
 71139  1  0  0  0
 71140  1  0  0  0
 71 74  1  0  0  0
 72 75  1  0  0  0
 72141  1  0  0  0
 72142  1  0  0  0
 73 74  1  0  0  0
 73 75  1  0  0  0
 73143  1  0  0  0
 73144  1  0  0  0
 74 78  1  0  0  0
 74145  1  0  0  0
 75 79  1  0  0  0
 75146  1  0  0  0
 76147  1  0  0  0
 76148  1  0  0  0
 76149  1  0  0  0
 76 78  1  0  0  0
 77 78  1  0  0  0
 77150  1  0  0  0
 77151  1  0  0  0
 78152  1  0  0  0
 79153  1  0  0  0
M  ISO  4   1 100  68 101  77 101  79 100
M  END
> <chiral flag>
0

> <version>
0

> <s_m_source_file>
/data/baiqing/PycharmProjects/Reinvent-master-3.2/result/LINK_invent/BTK/process_docking_weight1_custom_sum_contain_oxygen_bond_distance_aromatic_linkinvent_7_9_3/rearranged_h_0138.sdf

> <i_m_source_file_index>
12

> <r_mmod_Potential_Energy-OPLS-2005>
1343.97497558594

> <r_mmod_Stretch_Energy-OPLS-2005>
582.068054199219

> <r_mmod_Bend_Energy-OPLS-2005>
505.821746826172

> <r_mmod_Torsional_Energy-OPLS-2005>
257.141693115234

> <r_mmod_Improper_Torsional_Energy-OPLS-2005>
4.35215425491333

> <r_mmod_Van_der_Waal_Energy-OPLS-2005>
104.063575744629

> <r_mmod_Electrostatic_Energy-OPLS-2005>
-354.245269775391

> <r_mmod_Solvation_Energy-OPLS-2005>
-205.477996826172

> <b_mmod_Minimization_Converged-OPLS-2005>
0

> <r_mmod_RMS_Derivative-OPLS-2005>
0.492086708545685

$$$$
12
                    3D
 Structure written by MMmdl.
170179  0  0  1  0            999 V2000
  -30.6340  -14.5805   20.5309 C   0  0  0  0  0  0
  -30.4340  -12.3680   19.4302 C   0  0  0  0  0  0
  -29.4996  -12.5003   18.2067 C   0  0  0  0  0  0
  -28.0189  -12.3519   18.6164 C   0  0  0  0  0  0
  -27.6523  -13.2083   19.8583 C   0  0  2  0  0  0
  -28.6948  -13.0322   20.9838 C   0  0  0  0  0  0
  -25.2561  -13.8157   20.5634 C   0  0  0  0  0  0
  -24.1828  -13.0433   20.9155 C   0  0  0  0  0  0
  -24.6388  -11.6894   20.8704 C   0  0  0  0  0  0
  -23.9064  -10.4278   21.0369 C   0  0  0  0  0  0
  -24.3627   -9.4195   21.9147 C   0  0  0  0  0  0
  -23.6298   -8.2231   22.0733 C   0  0  0  0  0  0
  -22.4273   -8.0275   21.3534 C   0  0  0  0  0  0
  -21.9911   -9.0237   20.4623 C   0  0  0  0  0  0
  -22.7238  -10.2111   20.3016 C   0  0  0  0  0  0
  -21.6862   -6.0726   22.5261 C   0  0  0  0  0  0
  -21.4024   -6.5627   23.8197 C   0  0  0  0  0  0
  -21.3659   -5.6776   24.9157 C   0  0  0  0  0  0
  -21.6047   -4.3039   24.7207 C   0  0  0  0  0  0
  -21.8833   -3.8133   23.4328 C   0  0  0  0  0  0
  -21.9202   -4.6954   22.3382 C   0  0  0  0  0  0
  -22.7852  -13.5214   21.1840 C   0  0  0  0  0  0
  -22.1670   -4.2138   21.0963 F   0  0  0  0  0  0
  -21.5633   -3.4521   25.7724 F   0  0  0  0  0  0
  -30.0115  -13.3699   20.4230 N   0  0  0  0  0  0
  -26.2973  -12.9316   20.3263 N   0  0  0  0  0  0
  -25.9308  -11.6479   20.5714 N   0  0  0  0  0  0
  -22.0546  -12.8169   22.0407 N   0  0  0  0  0  0
  -25.4301  -15.1872   20.4037 N   0  0  0  0  0  0
  -31.7924  -14.7614   20.1448 O   0  0  0  0  0  0
  -21.6645   -6.8867   21.4225 O   0  0  0  0  0  0
  -22.3504  -14.5515   20.6702 O   0  0  0  0  0  0
  -24.6202  -31.8620   23.2057 C   0  0  0  0  0  0
  -25.9062  -32.4788   23.8380 C   0  0  1  0  0  0
  -27.2247  -27.3741   20.1165 C   0  0  0  0  0  0
  -25.5905  -33.8589   24.2302 N   0  0  0  0  0  0
  -23.4104  -30.4870   21.5447 C   0  0  2  0  0  0
  -24.8573  -28.9449   20.1098 C   0  0  0  0  0  0
  -22.7440  -29.4640   22.4939 C   0  0  0  0  0  0
  -18.0279  -28.1359   22.8502 C   0  0  0  0  0  0
  -24.1476  -36.7309   23.2645 C   0  0  0  0  0  0
  -25.9465  -30.8109   21.3661 C   0  0  0  0  0  0
  -26.0218  -29.4414   20.7118 C   0  0  0  0  0  0
  -27.2102  -28.6659   20.7086 C   0  0  0  0  0  0
  -26.0479  -26.9090   19.4967 C   0  0  0  0  0  0
  -24.8691  -27.6808   19.4955 C   0  0  0  0  0  0
  -23.6231  -29.8187   20.1598 C   0  0  0  0  0  0
  -25.4096  -36.3092   24.0328 C   0  0  1  0  0  0
  -20.5875  -28.3655   23.1314 C   0  0  2  0  0  0
  -20.6758  -26.9385   22.5423 C   0  0  0  0  0  0
  -19.5730  -26.6364   21.5245 C   0  0  0  0  0  0
  -18.1903  -26.7909   22.1635 C   0  0  0  0  0  0
  -19.1529  -28.8826   23.2908 C   0  0  0  0  0  0
  -18.9452  -30.1430   23.8917 C   0  0  0  0  0  0
  -17.6455  -30.6568   24.0573 C   0  0  0  0  0  0
  -25.9032  -34.9458   23.5105 C   0  0  0  0  0  0
  -16.5350  -29.9064   23.6322 C   0  0  0  0  0  0
  -16.7275  -28.6474   23.0360 C   0  0  0  0  0  0
  -26.4466  -31.6600   25.0749 C   0  0  0  0  0  0
  -25.3720  -31.3722   26.1499 C   0  0  0  0  0  0
  -27.0295  -30.3029   24.6168 C   0  0  0  0  0  0
  -27.6030  -32.4351   25.7509 C   0  0  0  0  0  0
  -27.5557  -37.1818   24.8463 C   0  0  0  0  0  0
  -21.4153  -29.3038   22.3723 N   0  0  0  0  0  0
  -26.4272  -37.3790   23.9398 N   0  0  0  0  0  0
  -24.6778  -31.0704   22.0956 N   0  0  0  0  0  0
  -23.4212  -28.8179   23.2986 O   0  0  0  0  0  0
  -28.3438  -26.5538   20.1273 O   0  0  0  0  0  0
  -26.5633  -34.8918   22.4695 O   0  0  0  0  0  0
  -23.5383  -32.1367   23.7412 O   0  0  0  0  0  0
  -29.3770  -20.7482   20.3531 C   0  0  0  0  0  0
  -28.9034  -21.6464   21.2914 C   0  0  0  0  0  0
  -28.3787  -20.7857   22.3070 C   0  0  0  0  0  0
  -26.6986  -22.2933   23.5095 C   0  0  0  0  0  0
  -25.5996  -22.0021   24.5499 C   0  0  0  0  0  0
  -26.9152  -20.0147   24.2581 C   0  0  0  0  0  0
  -27.7265  -21.1540   23.6211 C   0  0  1  0  0  0
  -26.0408  -20.7284   25.2886 C   0  0  2  0  0  0
  -25.2891  -18.6799   26.4959 C   0  0  0  0  0  0
  -29.4227  -18.1008   20.2427 C   0  0  0  0  0  0
  -30.1831  -17.0503   21.1472 C   0  0  0  0  0  0
  -28.2133  -25.3396   20.9293 C   0  0  0  0  0  0
  -28.6345  -23.9453   20.3212 C   0  0  0  0  0  0
  -28.5625  -19.4998   22.0322 N   0  0  0  0  0  0
  -29.1867  -19.4446   20.8405 N   0  0  0  0  0  0
  -29.8446  -15.6123   20.9290 N   0  0  0  0  0  0
  -24.9066  -19.9178   25.7856 N   0  3  0  0  0  0
  -28.9609  -23.0390   21.4037 O   0  0  0  0  0  0
  -31.4726  -12.5067   19.1240 H   0  0  0  0  0  0
  -30.3788  -11.3676   19.8590 H   0  0  0  0  0  0
  -29.7557  -11.7495   17.4583 H   0  0  0  0  0  0
  -29.6500  -13.4708   17.7310 H   0  0  0  0  0  0
  -27.8366  -11.2970   18.8247 H   0  0  0  0  0  0
  -27.3708  -12.6115   17.7787 H   0  0  0  0  0  0
  -27.6802  -14.2487   19.5346 H   0  0  0  0  0  0
  -28.6980  -12.0024   21.3464 H   0  0  0  0  0  0
  -28.4406  -13.6469   21.8489 H   0  0  0  0  0  0
  -25.2794   -9.5665   22.4684 H   0  0  0  0  0  0
  -24.0022   -7.4622   22.7442 H   0  0  0  0  0  0
  -21.0851   -8.8740   19.8912 H   0  0  0  0  0  0
  -22.3714  -10.9635   19.6091 H   0  0  0  0  0  0
  -21.2023   -7.6136   23.9696 H   0  0  0  0  0  0
  -21.1466   -6.0503   25.9061 H   0  0  0  0  0  0
  -22.0621   -2.7594   23.2821 H   0  0  0  0  0  0
  -22.4240  -11.9849   22.4764 H   0  0  0  0  0  0
  -21.1125  -13.1081   22.2603 H   0  0  0  0  0  0
  -24.6680  -15.8467   20.5189 H   0  0  0  0  0  0
  -26.2793  -15.6213   20.0651 H   0  0  0  0  0  0
  -26.7121  -32.5459   23.1130 H   0  0  0  0  0  0
  -25.0066  -33.9757   25.0456 H   0  0  0  0  0  0
  -22.7040  -31.3069   21.3993 H   0  0  0  0  0  0
  -23.3731  -35.9660   23.3321 H   0  0  0  0  0  0
  -24.3590  -36.8922   22.2066 H   0  0  0  0  0  0
  -23.7238  -37.6513   23.6669 H   0  0  0  0  0  0
  -26.0764  -31.5731   20.5975 H   0  0  0  0  0  0
  -26.8307  -30.8586   21.9900 H   0  0  0  0  0  0
  -28.1047  -29.0434   21.1841 H   0  0  0  0  0  0
  -26.0395  -25.9366   19.0245 H   0  0  0  0  0  0
  -23.9764  -27.2920   19.0249 H   0  0  0  0  0  0
  -23.7361  -30.5939   19.4021 H   0  0  0  0  0  0
  -22.7435  -29.2443   19.8613 H   0  0  0  0  0  0
  -25.1276  -36.1944   25.0825 H   0  0  0  0  0  0
  -20.9976  -28.3191   24.1430 H   0  0  0  0  0  0
  -20.5649  -26.2271   23.3611 H   0  0  0  0  0  0
  -21.6617  -26.7398   22.1215 H   0  0  0  0  0  0
  -19.6884  -25.6290   21.1228 H   0  0  0  0  0  0
  -19.6646  -27.3209   20.6810 H   0  0  0  0  0  0
  -17.4184  -26.6712   21.4018 H   0  0  0  0  0  0
  -18.0236  -26.0045   22.9004 H   0  0  0  0  0  0
  -19.7935  -30.7241   24.2272 H   0  0  0  0  0  0
  -17.5014  -31.6252   24.5172 H   0  0  0  0  0  0
  -15.5343  -30.2984   23.7618 H   0  0  0  0  0  0
  -15.8672  -28.0801   22.7070 H   0  0  0  0  0  0
  -24.5915  -30.7019   25.7875 H   0  0  0  0  0  0
  -24.8885  -32.2882   26.4911 H   0  0  0  0  0  0
  -25.8084  -30.8946   27.0287 H   0  0  0  0  0  0
  -26.2850  -29.6813   24.1184 H   0  0  0  0  0  0
  -27.4000  -29.7251   25.4654 H   0  0  0  0  0  0
  -27.8715  -30.4337   23.9369 H   0  0  0  0  0  0
  -27.2626  -33.3670   26.2045 H   0  0  0  0  0  0
  -28.3852  -32.6893   25.0339 H   0  0  0  0  0  0
  -28.0684  -31.8504   26.5464 H   0  0  0  0  0  0
  -28.2593  -38.0099   24.7515 H   0  0  0  0  0  0
  -28.1027  -36.2644   24.6268 H   0  0  0  0  0  0
  -27.2299  -37.1455   25.8874 H   0  0  0  0  0  0
  -20.9279  -29.8834   21.7024 H   0  0  0  0  0  0
  -26.0139  -38.2854   24.1427 H   0  0  0  0  0  0
  -29.8571  -20.9228   19.4016 H   0  0  0  0  0  0
  -27.1692  -23.2661   23.6553 H   0  0  0  0  0  0
  -26.2481  -22.3021   22.5152 H   0  0  0  0  0  0
  -24.6525  -21.8420   24.0321 H   0  0  0  0  0  0
  -25.4545  -22.8358   25.2390 H   0  0  0  0  0  0
  -27.5565  -19.2465   24.6916 H   0  0  0  0  0  0
  -26.2864  -19.5378   23.5036 H   0  0  0  0  0  0
  -28.4994  -21.4622   24.3273 H   0  0  0  0  0  0
  -26.6666  -21.0134   26.1369 H   0  0  0  0  0  0
  -24.3946  -18.1594   26.8363 H   0  0  0  0  0  0
  -25.9053  -18.8980   27.3683 H   0  0  0  0  0  0
  -25.8412  -17.9976   25.8491 H   0  0  0  0  0  0
  -28.4406  -17.7024   19.9881 H   0  0  0  0  0  0
  -29.9485  -18.2265   19.2956 H   0  0  0  0  0  0
  -29.9474  -17.2464   22.1934 H   0  0  0  0  0  0
  -31.2585  -17.2068   21.0604 H   0  0  0  0  0  0
  -28.8544  -25.5156   21.7935 H   0  0  0  0  0  0
  -27.2114  -25.2428   21.3516 H   0  0  0  0  0  0
  -29.5213  -24.0694   19.6988 H   0  0  0  0  0  0
  -27.8419  -23.5464   19.6870 H   0  0  0  0  0  0
  -28.9048  -15.3455   21.1804 H   0  0  0  0  0  0
  -24.2974  -19.6769   25.0207 H   0  0  0  0  0  0
  -24.3716  -20.4832   26.4256 H   0  0  0  0  0  0
  1 25  1  0  0  0
  1 30  2  0  0  0
  1 86  1  0  0  0
  2  3  1  0  0  0
  2 25  1  0  0  0
  2 89  1  0  0  0
  2 90  1  0  0  0
  3  4  1  0  0  0
  3 91  1  0  0  0
  3 92  1  0  0  0
  4  5  1  0  0  0
  4 93  1  0  0  0
  4 94  1  0  0  0
  5  6  1  0  0  0
  5 26  1  0  0  0
  5 95  1  0  0  0
  6 25  1  0  0  0
  6 96  1  0  0  0
  6 97  1  0  0  0
  7  8  2  0  0  0
  7 26  1  0  0  0
  7 29  1  0  0  0
  8  9  1  0  0  0
  8 22  1  0  0  0
  9 10  1  0  0  0
  9 27  2  0  0  0
 10 11  2  0  0  0
 10 15  1  0  0  0
 11 12  1  0  0  0
 11 98  1  0  0  0
 12 13  2  0  0  0
 12 99  1  0  0  0
 13 14  1  0  0  0
 13 31  1  0  0  0
 14 15  2  0  0  0
 14100  1  0  0  0
 15101  1  0  0  0
 16 17  2  0  0  0
 16 21  1  0  0  0
 16 31  1  0  0  0
 17 18  1  0  0  0
 17102  1  0  0  0
 18 19  2  0  0  0
 18103  1  0  0  0
 19 20  1  0  0  0
 19 24  1  0  0  0
 20 21  2  0  0  0
 20104  1  0  0  0
 21 23  1  0  0  0
 22 28  1  0  0  0
 22 32  2  0  0  0
 26 27  1  0  0  0
 28105  1  0  0  0
 28106  1  0  0  0
 29107  1  0  0  0
 29108  1  0  0  0
 33 34  1  0  0  0
 33 66  1  0  0  0
 33 70  2  0  0  0
 34 36  1  0  0  0
 34 59  1  0  0  0
 34109  1  0  0  0
 35 44  2  0  0  0
 35 45  1  0  0  0
 35 68  1  0  0  0
 36 56  1  0  0  0
 36110  1  0  0  0
 37 39  1  0  0  0
 37 47  1  0  0  0
 37 66  1  0  0  0
 37111  1  0  0  0
 38 43  2  0  0  0
 38 46  1  0  0  0
 38 47  1  0  0  0
 39 64  1  0  0  0
 39 67  2  0  0  0
 40 52  1  0  0  0
 40 53  2  0  0  0
 40 58  1  0  0  0
 41112  1  0  0  0
 41113  1  0  0  0
 41114  1  0  0  0
 41 48  1  0  0  0
 42 43  1  0  0  0
 42 66  1  0  0  0
 42115  1  0  0  0
 42116  1  0  0  0
 43 44  1  0  0  0
 44117  1  0  0  0
 45 46  2  0  0  0
 45118  1  0  0  0
 46119  1  0  0  0
 47120  1  0  0  0
 47121  1  0  0  0
 48 56  1  0  0  0
 48 65  1  0  0  0
 48122  1  0  0  0
 49 50  1  0  0  0
 49 53  1  0  0  0
 49 64  1  0  0  0
 49123  1  0  0  0
 50 51  1  0  0  0
 50124  1  0  0  0
 50125  1  0  0  0
 51 52  1  0  0  0
 51126  1  0  0  0
 51127  1  0  0  0
 52128  1  0  0  0
 52129  1  0  0  0
 53 54  1  0  0  0
 54 55  2  0  0  0
 54130  1  0  0  0
 55 57  1  0  0  0
 55131  1  0  0  0
 56 69  2  0  0  0
 57 58  2  0  0  0
 57132  1  0  0  0
 58133  1  0  0  0
 59 60  1  0  0  0
 59 61  1  0  0  0
 59 62  1  0  0  0
 60134  1  0  0  0
 60135  1  0  0  0
 60136  1  0  0  0
 61137  1  0  0  0
 61138  1  0  0  0
 61139  1  0  0  0
 62140  1  0  0  0
 62141  1  0  0  0
 62142  1  0  0  0
 63 65  1  0  0  0
 63143  1  0  0  0
 63144  1  0  0  0
 63145  1  0  0  0
 64146  1  0  0  0
 65147  1  0  0  0
 68 82  1  0  0  0
 71 72  2  0  0  0
 71 85  1  0  0  0
 71148  1  0  0  0
 72 73  1  0  0  0
 72 88  1  0  0  0
 73 84  2  0  0  0
 73 77  1  0  0  0
 74 75  1  0  0  0
 74 77  1  0  0  0
 74149  1  0  0  0
 74150  1  0  0  0
 75 78  1  0  0  0
 75151  1  0  0  0
 75152  1  0  0  0
 76 77  1  0  0  0
 76 78  1  0  0  0
 76153  1  0  0  0
 76154  1  0  0  0
 77155  1  0  0  0
 78 87  1  0  0  0
 78156  1  0  0  0
 79 87  1  0  0  0
 79157  1  0  0  0
 79158  1  0  0  0
 79159  1  0  0  0
 80 81  1  0  0  0
 80 85  1  0  0  0
 80160  1  0  0  0
 80161  1  0  0  0
 81 86  1  0  0  0
 81162  1  0  0  0
 81163  1  0  0  0
 82 83  1  0  0  0
 82164  1  0  0  0
 82165  1  0  0  0
 83 88  1  0  0  0
 83166  1  0  0  0
 83167  1  0  0  0
 84 85  1  0  0  0
 86168  1  0  0  0
 87169  1  0  0  0
 87170  1  0  0  0
M  CHG  1  87   1
M  ISO  4   1 100  68 101  82 101  86 100
M  END
> <chiral flag>
0

> <version>
0

> <s_m_source_file>
/data/baiqing/PycharmProjects/Reinvent-master-3.2/result/LINK_invent/BTK/process_docking_weight1_custom_sum_contain_oxygen_bond_distance_aromatic_linkinvent_7_9_3/rearranged_h_0138.sdf

> <i_m_source_file_index>
13

> <r_mmod_Potential_Energy-OPLS-2005>
-104.432121276855

> <r_mmod_Stretch_Energy-OPLS-2005>
55.6065788269043

> <r_mmod_Bend_Energy-OPLS-2005>
157.113418579102

> <r_mmod_Torsional_Energy-OPLS-2005>
303.788940429688

> <r_mmod_Improper_Torsional_Energy-OPLS-2005>
4.5144510269165

> <r_mmod_Van_der_Waal_Energy-OPLS-2005>
115.689575195312

> <r_mmod_Electrostatic_Energy-OPLS-2005>
-289.163909912109

> <r_mmod_Solvation_Energy-OPLS-2005>
-482.867279052734

> <b_mmod_Minimization_Converged-OPLS-2005>
0

> <r_mmod_RMS_Derivative-OPLS-2005>
3.11342453956604

$$$$
13
                    3D
 Structure written by MMmdl.
166175  0  0  1  0            999 V2000
  -30.6206  -14.6590   20.4925 C   0  0  0  0  0  0
  -30.4352  -12.4049   19.4573 C   0  0  0  0  0  0
  -29.5074  -12.4993   18.2263 C   0  0  0  0  0  0
  -28.0315  -12.3340   18.6390 C   0  0  0  0  0  0
  -27.6488  -13.2174   19.8562 C   0  0  2  0  0  0
  -28.6918  -13.0990   20.9894 C   0  0  0  0  0  0
  -25.2548  -13.8173   20.5672 C   0  0  0  0  0  0
  -24.1821  -13.0441   20.9193 C   0  0  0  0  0  0
  -24.6386  -11.6910   20.8739 C   0  0  0  0  0  0
  -23.9058  -10.4295   21.0402 C   0  0  0  0  0  0
  -24.3611   -9.4209   21.9179 C   0  0  0  0  0  0
  -23.6286   -8.2244   22.0753 C   0  0  0  0  0  0
  -22.4269   -8.0281   21.3543 C   0  0  0  0  0  0
  -21.9899   -9.0256   20.4652 C   0  0  0  0  0  0
  -22.7227  -10.2136   20.3057 C   0  0  0  0  0  0
  -21.6855   -6.0730   22.5275 C   0  0  0  0  0  0
  -21.4020   -6.5634   23.8209 C   0  0  0  0  0  0
  -21.3656   -5.6786   24.9170 C   0  0  0  0  0  0
  -21.6040   -4.3049   24.7222 C   0  0  0  0  0  0
  -21.8821   -3.8142   23.4344 C   0  0  0  0  0  0
  -21.9195   -4.6959   22.3397 C   0  0  0  0  0  0
  -22.7845  -13.5240   21.1847 C   0  0  0  0  0  0
  -22.1663   -4.2148   21.0974 F   0  0  0  0  0  0
  -21.5625   -3.4531   25.7735 F   0  0  0  0  0  0
  -30.0022  -13.4389   20.4192 N   0  0  0  0  0  0
  -26.2964  -12.9351   20.3282 N   0  0  0  0  0  0
  -25.9311  -11.6509   20.5743 N   0  0  0  0  0  0
  -22.0482  -12.8246   22.0409 N   0  0  0  0  0  0
  -25.4264  -15.1889   20.4068 N   0  0  0  0  0  0
  -31.7940  -14.8001   20.1390 O   0  0  0  0  0  0
  -21.6637   -6.8874   21.4237 O   0  0  0  0  0  0
  -22.3538  -14.5545   20.6687 O   0  0  0  0  0  0
  -24.6242  -31.8590   23.2011 C   0  0  0  0  0  0
  -25.9095  -32.4773   23.8339 C   0  0  1  0  0  0
  -27.2295  -27.3201   20.1260 C   0  0  0  0  0  0
  -25.5918  -33.8573   24.2276 N   0  0  0  0  0  0
  -23.4182  -30.4789   21.5435 C   0  0  2  0  0  0
  -24.8660  -28.9246   20.1164 C   0  0  0  0  0  0
  -22.7462  -29.4611   22.4947 C   0  0  0  0  0  0
  -18.0284  -28.1384   22.8483 C   0  0  0  0  0  0
  -24.1490  -36.7289   23.2637 C   0  0  0  0  0  0
  -25.9564  -30.7883   21.3721 C   0  0  0  0  0  0
  -26.0308  -29.4114   20.7228 C   0  0  0  0  0  0
  -27.2135  -28.6181   20.7205 C   0  0  0  0  0  0
  -26.0454  -26.8759   19.5009 C   0  0  0  0  0  0
  -24.8733  -27.6612   19.4994 C   0  0  0  0  0  0
  -23.6336  -29.8059   20.1610 C   0  0  0  0  0  0
  -25.4113  -36.3081   24.0330 C   0  0  1  0  0  0
  -20.5880  -28.3682   23.1294 C   0  0  2  0  0  0
  -20.6770  -26.9403   22.5425 C   0  0  0  0  0  0
  -19.5757  -26.6379   21.5213 C   0  0  0  0  0  0
  -18.1930  -26.7934   22.1606 C   0  0  0  0  0  0
  -19.1535  -28.8850   23.2885 C   0  0  0  0  0  0
  -18.9459  -30.1452   23.8902 C   0  0  0  0  0  0
  -17.6458  -30.6587   24.0560 C   0  0  0  0  0  0
  -25.9045  -34.9448   23.5104 C   0  0  0  0  0  0
  -16.5349  -29.9083   23.6326 C   0  0  0  0  0  0
  -16.7270  -28.6499   23.0350 C   0  0  0  0  0  0
  -26.4488  -31.6584   25.0707 C   0  0  0  0  0  0
  -25.3732  -31.3740   26.1447 C   0  0  0  0  0  0
  -27.0309  -30.3000   24.6156 C   0  0  0  0  0  0
  -27.6062  -32.4311   25.7462 C   0  0  0  0  0  0
  -27.5589  -37.1787   24.8458 C   0  0  0  0  0  0
  -21.4178  -29.3032   22.3687 N   0  0  0  0  0  0
  -26.4294  -37.3773   23.9411 N   0  0  0  0  0  0
  -24.6849  -31.0599   22.0962 N   0  0  0  0  0  0
  -23.4187  -28.8160   23.3033 O   0  0  0  0  0  0
  -28.3779  -26.5205   20.1150 O   0  0  0  0  0  0
  -26.5613  -34.8915   22.4670 O   0  0  0  0  0  0
  -23.5410  -32.1388   23.7344 O   0  0  0  0  0  0
  -28.0031  -22.9529   21.3861 C   0  0  0  0  0  0
  -28.8956  -22.8869   19.1582 C   0  0  0  0  0  0
  -27.9474  -24.3814   21.3265 C   0  0  0  0  0  0
  -28.8463  -24.3151   19.1034 C   0  0  0  0  0  0
  -28.4656  -22.1568   20.2996 C   0  0  0  0  0  0
  -28.3518  -25.1072   20.1747 C   0  0  0  0  0  0
  -30.0316  -19.4547   21.7429 C   0  0  0  0  0  0
  -30.1180  -17.9324   22.0722 C   0  0  1  0  0  0
  -30.1481  -17.2239   20.7101 C   0  0  2  0  0  0
  -29.1774  -18.1859   19.9151 C   0  0  2  0  0  0
  -31.2813  -17.5487   22.9993 C   0  0  0  0  0  0
  -28.8274  -16.7372   17.7883 C   0  0  0  0  0  0
  -28.2775  -20.5849   20.2812 C   0  0  0  0  0  0
  -29.3174  -18.0683   18.3785 C   0  0  0  0  0  0
  -29.8242  -15.7440   20.7663 N   0  0  0  0  0  0
  -29.4414  -19.6054   20.3867 N   0  3  1  0  0  0
  -31.4758  -12.5316   19.1538 H   0  0  0  0  0  0
  -30.3750  -11.4158   19.9137 H   0  0  0  0  0  0
  -29.7772  -11.7395   17.4915 H   0  0  0  0  0  0
  -29.6454  -13.4624   17.7329 H   0  0  0  0  0  0
  -27.8751  -11.2826   18.8841 H   0  0  0  0  0  0
  -27.3766  -12.5488   17.7940 H   0  0  0  0  0  0
  -27.6599  -14.2469   19.4984 H   0  0  0  0  0  0
  -28.7091  -12.0865   21.3951 H   0  0  0  0  0  0
  -28.4365  -13.7538   21.8239 H   0  0  0  0  0  0
  -25.2758   -9.5686   22.4750 H   0  0  0  0  0  0
  -24.0000   -7.4636   22.7470 H   0  0  0  0  0  0
  -21.0829   -8.8772   19.8959 H   0  0  0  0  0  0
  -22.3678  -10.9674   19.6169 H   0  0  0  0  0  0
  -21.2015   -7.6142   23.9713 H   0  0  0  0  0  0
  -21.1472   -6.0513   25.9074 H   0  0  0  0  0  0
  -22.0602   -2.7605   23.2842 H   0  0  0  0  0  0
  -22.4083  -11.9908   22.4811 H   0  0  0  0  0  0
  -21.1105  -13.1290   22.2607 H   0  0  0  0  0  0
  -24.6529  -15.8382   20.5025 H   0  0  0  0  0  0
  -26.2596  -15.6205   20.0316 H   0  0  0  0  0  0
  -26.7154  -32.5449   23.1078 H   0  0  0  0  0  0
  -25.0087  -33.9717   25.0437 H   0  0  0  0  0  0
  -22.7116  -31.2986   21.3972 H   0  0  0  0  0  0
  -23.3758  -35.9614   23.3292 H   0  0  0  0  0  0
  -24.3588  -36.8916   22.2053 H   0  0  0  0  0  0
  -23.7230  -37.6482   23.6664 H   0  0  0  0  0  0
  -26.0849  -31.5477   20.5994 H   0  0  0  0  0  0
  -26.8378  -30.8422   21.9994 H   0  0  0  0  0  0
  -28.1135  -28.9898   21.1903 H   0  0  0  0  0  0
  -26.0230  -25.9089   19.0188 H   0  0  0  0  0  0
  -23.9798  -27.2824   19.0222 H   0  0  0  0  0  0
  -23.7515  -30.5782   19.4000 H   0  0  0  0  0  0
  -22.7540  -29.2326   19.8623 H   0  0  0  0  0  0
  -25.1291  -36.1933   25.0822 H   0  0  0  0  0  0
  -20.9970  -28.3264   24.1415 H   0  0  0  0  0  0
  -20.5653  -26.2291   23.3626 H   0  0  0  0  0  0
  -21.6644  -26.7428   22.1235 H   0  0  0  0  0  0
  -19.6918  -25.6287   21.1249 H   0  0  0  0  0  0
  -19.6712  -27.3182   20.6740 H   0  0  0  0  0  0
  -17.4211  -26.6701   21.3992 H   0  0  0  0  0  0
  -18.0308  -26.0069   22.8990 H   0  0  0  0  0  0
  -19.7934  -30.7265   24.2277 H   0  0  0  0  0  0
  -17.5012  -31.6269   24.5156 H   0  0  0  0  0  0
  -15.5348  -30.2983   23.7648 H   0  0  0  0  0  0
  -15.8672  -28.0813   22.7069 H   0  0  0  0  0  0
  -24.5935  -30.7035   25.7813 H   0  0  0  0  0  0
  -24.8883  -32.2908   26.4811 H   0  0  0  0  0  0
  -25.8074  -30.8994   27.0256 H   0  0  0  0  0  0
  -26.2862  -29.6762   24.1195 H   0  0  0  0  0  0
  -27.4014  -29.7245   25.4649 H   0  0  0  0  0  0
  -27.8736  -30.4271   23.9357 H   0  0  0  0  0  0
  -27.2686  -33.3610   26.2049 H   0  0  0  0  0  0
  -28.3858  -32.6871   25.0275 H   0  0  0  0  0  0
  -28.0747  -31.8433   26.5365 H   0  0  0  0  0  0
  -28.2600  -38.0091   24.7517 H   0  0  0  0  0  0
  -28.1090  -36.2624   24.6259 H   0  0  0  0  0  0
  -27.2318  -37.1416   25.8864 H   0  0  0  0  0  0
  -20.9355  -29.8745   21.6888 H   0  0  0  0  0  0
  -26.0182  -38.2848   24.1424 H   0  0  0  0  0  0
  -27.6345  -22.4644   22.2776 H   0  0  0  0  0  0
  -29.2352  -22.3503   18.2828 H   0  0  0  0  0  0
  -27.5815  -24.9277   22.1845 H   0  0  0  0  0  0
  -29.1905  -24.8132   18.2078 H   0  0  0  0  0  0
  -31.0251  -19.9043   21.7237 H   0  0  0  0  0  0
  -29.4582  -19.9875   22.5032 H   0  0  0  0  0  0
  -29.1868  -17.6565   22.5712 H   0  0  0  0  0  0
  -31.1488  -17.3374   20.2879 H   0  0  0  0  0  0
  -28.1512  -17.9415   20.1977 H   0  0  0  0  0  0
  -32.2465  -17.7904   22.5526 H   0  0  0  0  0  0
  -31.2755  -16.4796   23.2151 H   0  0  0  0  0  0
  -31.2137  -18.0755   23.9520 H   0  0  0  0  0  0
  -28.8359  -16.7742   16.6984 H   0  0  0  0  0  0
  -27.8074  -16.5115   18.1003 H   0  0  0  0  0  0
  -29.4662  -15.9063   18.0820 H   0  0  0  0  0  0
  -27.7651  -20.3763   19.3421 H   0  0  0  0  0  0
  -27.5465  -20.3213   21.0467 H   0  0  0  0  0  0
  -30.3544  -18.2329   18.0838 H   0  0  0  0  0  0
  -28.7444  -18.8631   17.9009 H   0  0  0  0  0  0
  -28.8730  -15.5128   21.0091 H   0  0  0  0  0  0
  -30.1772  -19.9711   19.8026 H   0  0  0  0  0  0
  1 25  1  0  0  0
  1 30  2  0  0  0
  1 85  1  0  0  0
  2  3  1  0  0  0
  2 25  1  0  0  0
  2 87  1  0  0  0
  2 88  1  0  0  0
  3  4  1  0  0  0
  3 89  1  0  0  0
  3 90  1  0  0  0
  4  5  1  0  0  0
  4 91  1  0  0  0
  4 92  1  0  0  0
  5  6  1  0  0  0
  5 26  1  0  0  0
  5 93  1  0  0  0
  6 25  1  0  0  0
  6 94  1  0  0  0
  6 95  1  0  0  0
  7  8  2  0  0  0
  7 26  1  0  0  0
  7 29  1  0  0  0
  8  9  1  0  0  0
  8 22  1  0  0  0
  9 10  1  0  0  0
  9 27  2  0  0  0
 10 11  2  0  0  0
 10 15  1  0  0  0
 11 12  1  0  0  0
 11 96  1  0  0  0
 12 13  2  0  0  0
 12 97  1  0  0  0
 13 14  1  0  0  0
 13 31  1  0  0  0
 14 15  2  0  0  0
 14 98  1  0  0  0
 15 99  1  0  0  0
 16 17  2  0  0  0
 16 21  1  0  0  0
 16 31  1  0  0  0
 17 18  1  0  0  0
 17100  1  0  0  0
 18 19  2  0  0  0
 18101  1  0  0  0
 19 20  1  0  0  0
 19 24  1  0  0  0
 20 21  2  0  0  0
 20102  1  0  0  0
 21 23  1  0  0  0
 22 28  1  0  0  0
 22 32  2  0  0  0
 26 27  1  0  0  0
 28103  1  0  0  0
 28104  1  0  0  0
 29105  1  0  0  0
 29106  1  0  0  0
 33 34  1  0  0  0
 33 66  1  0  0  0
 33 70  2  0  0  0
 34 36  1  0  0  0
 34 59  1  0  0  0
 34107  1  0  0  0
 35 44  2  0  0  0
 35 45  1  0  0  0
 35 68  1  0  0  0
 36 56  1  0  0  0
 36108  1  0  0  0
 37 39  1  0  0  0
 37 47  1  0  0  0
 37 66  1  0  0  0
 37109  1  0  0  0
 38 43  2  0  0  0
 38 46  1  0  0  0
 38 47  1  0  0  0
 39 64  1  0  0  0
 39 67  2  0  0  0
 40 52  1  0  0  0
 40 53  2  0  0  0
 40 58  1  0  0  0
 41110  1  0  0  0
 41111  1  0  0  0
 41112  1  0  0  0
 41 48  1  0  0  0
 42 43  1  0  0  0
 42 66  1  0  0  0
 42113  1  0  0  0
 42114  1  0  0  0
 43 44  1  0  0  0
 44115  1  0  0  0
 45 46  2  0  0  0
 45116  1  0  0  0
 46117  1  0  0  0
 47118  1  0  0  0
 47119  1  0  0  0
 48 56  1  0  0  0
 48 65  1  0  0  0
 48120  1  0  0  0
 49 50  1  0  0  0
 49 53  1  0  0  0
 49 64  1  0  0  0
 49121  1  0  0  0
 50 51  1  0  0  0
 50122  1  0  0  0
 50123  1  0  0  0
 51 52  1  0  0  0
 51124  1  0  0  0
 51125  1  0  0  0
 52126  1  0  0  0
 52127  1  0  0  0
 53 54  1  0  0  0
 54 55  2  0  0  0
 54128  1  0  0  0
 55 57  1  0  0  0
 55129  1  0  0  0
 56 69  2  0  0  0
 57 58  2  0  0  0
 57130  1  0  0  0
 58131  1  0  0  0
 59 60  1  0  0  0
 59 61  1  0  0  0
 59 62  1  0  0  0
 60132  1  0  0  0
 60133  1  0  0  0
 60134  1  0  0  0
 61135  1  0  0  0
 61136  1  0  0  0
 61137  1  0  0  0
 62138  1  0  0  0
 62139  1  0  0  0
 62140  1  0  0  0
 63 65  1  0  0  0
 63141  1  0  0  0
 63142  1  0  0  0
 63143  1  0  0  0
 64144  1  0  0  0
 65145  1  0  0  0
 68 76  1  0  0  0
 71 73  2  0  0  0
 71 75  1  0  0  0
 71146  1  0  0  0
 72 74  1  0  0  0
 72 75  2  0  0  0
 72147  1  0  0  0
 73 76  1  0  0  0
 73148  1  0  0  0
 74 76  2  0  0  0
 74149  1  0  0  0
 75 83  1  0  0  0
 77 78  1  0  0  0
 77 86  1  0  0  0
 77150  1  0  0  0
 77151  1  0  0  0
 78 79  1  0  0  0
 78 81  1  0  0  0
 78152  1  0  0  0
 79 80  1  0  0  0
 79 85  1  0  0  0
 79153  1  0  0  0
 80 84  1  0  0  0
 80 86  1  0  0  0
 80154  1  0  0  0
 81155  1  0  0  0
 81156  1  0  0  0
 81157  1  0  0  0
 82 84  1  0  0  0
 82158  1  0  0  0
 82159  1  0  0  0
 82160  1  0  0  0
 83161  1  0  0  0
 83162  1  0  0  0
 83 86  1  0  0  0
 84163  1  0  0  0
 84164  1  0  0  0
 85165  1  0  0  0
 86166  1  0  0  0
M  CHG  1  86   1
M  ISO  4   1 100  68 101  76 101  85 100
M  END
> <chiral flag>
0

> <version>
0

> <s_m_source_file>
/data/baiqing/PycharmProjects/Reinvent-master-3.2/result/LINK_invent/BTK/process_docking_weight1_custom_sum_contain_oxygen_bond_distance_aromatic_linkinvent_7_9_3/rearranged_h_0138.sdf

> <i_m_source_file_index>
14

> <r_mmod_Potential_Energy-OPLS-2005>
-38.0717277526855

> <r_mmod_Stretch_Energy-OPLS-2005>
77.7101135253906

> <r_mmod_Bend_Energy-OPLS-2005>
160.396987915039

> <r_mmod_Torsional_Energy-OPLS-2005>
274.082305908203

> <r_mmod_Improper_Torsional_Energy-OPLS-2005>
6.33295297622681

> <r_mmod_Van_der_Waal_Energy-OPLS-2005>
119.018646240234

> <r_mmod_Electrostatic_Energy-OPLS-2005>
-276.163787841797

> <r_mmod_Solvation_Energy-OPLS-2005>
-448.591735839844

> <b_mmod_Minimization_Converged-OPLS-2005>
0

> <r_mmod_RMS_Derivative-OPLS-2005>
0.67752742767334

$$$$
14
                    3D
 Structure written by MMmdl.
157165  0  0  1  0            999 V2000
  -30.6955  -14.5147   20.5043 C   0  0  0  0  0  0
  -30.4081  -12.3172   19.4421 C   0  0  0  0  0  0
  -29.4892  -12.4898   18.2161 C   0  0  0  0  0  0
  -28.0115  -12.3545   18.6287 C   0  0  0  0  0  0
  -27.6522  -13.2172   19.8678 C   0  0  2  0  0  0
  -28.6938  -13.0583   20.9980 C   0  0  0  0  0  0
  -25.2560  -13.8191   20.5701 C   0  0  0  0  0  0
  -24.1830  -13.0455   20.9210 C   0  0  0  0  0  0
  -24.6401  -11.6923   20.8778 C   0  0  0  0  0  0
  -23.9073  -10.4301   21.0433 C   0  0  0  0  0  0
  -24.3621   -9.4202   21.9195 C   0  0  0  0  0  0
  -23.6297   -8.2238   22.0748 C   0  0  0  0  0  0
  -22.4274   -8.0294   21.3541 C   0  0  0  0  0  0
  -21.9911   -9.0272   20.4643 C   0  0  0  0  0  0
  -22.7248  -10.2153   20.3069 C   0  0  0  0  0  0
  -21.6849   -6.0747   22.5277 C   0  0  0  0  0  0
  -21.4012   -6.5651   23.8212 C   0  0  0  0  0  0
  -21.3653   -5.6801   24.9171 C   0  0  0  0  0  0
  -21.6032   -4.3063   24.7222 C   0  0  0  0  0  0
  -21.8820   -3.8161   23.4346 C   0  0  0  0  0  0
  -21.9190   -4.6975   22.3403 C   0  0  0  0  0  0
  -22.7852  -13.5250   21.1872 C   0  0  0  0  0  0
  -22.1664   -4.2164   21.0978 F   0  0  0  0  0  0
  -21.5624   -3.4543   25.7731 F   0  0  0  0  0  0
  -30.0156  -13.3404   20.4274 N   0  0  0  0  0  0
  -26.2985  -12.9373   20.3366 N   0  0  0  0  0  0
  -25.9324  -11.6529   20.5803 N   0  0  0  0  0  0
  -22.0495  -12.8231   22.0429 N   0  0  0  0  0  0
  -25.4291  -15.1903   20.4071 N   0  0  0  0  0  0
  -31.8671  -14.6124   20.1312 O   0  0  0  0  0  0
  -21.6634   -6.8888   21.4241 O   0  0  0  0  0  0
  -22.3531  -14.5548   20.6707 O   0  0  0  0  0  0
  -24.6160  -31.8686   23.2097 C   0  0  0  0  0  0
  -25.9055  -32.4819   23.8392 C   0  0  1  0  0  0
  -27.2212  -27.4173   20.1071 C   0  0  0  0  0  0
  -25.5921  -33.8610   24.2327 N   0  0  0  0  0  0
  -23.4036  -30.4912   21.5514 C   0  0  2  0  0  0
  -24.8490  -28.9528   20.1157 C   0  0  0  0  0  0
  -22.7429  -29.4666   22.5012 C   0  0  0  0  0  0
  -18.0279  -28.1365   22.8485 C   0  0  0  0  0  0
  -24.1487  -36.7318   23.2637 C   0  0  0  0  0  0
  -25.9337  -30.8266   21.3672 C   0  0  0  0  0  0
  -26.0083  -29.4573   20.7197 C   0  0  0  0  0  0
  -27.2013  -28.6947   20.7167 C   0  0  0  0  0  0
  -26.0531  -26.9330   19.4888 C   0  0  0  0  0  0
  -24.8665  -27.6907   19.4963 C   0  0  0  0  0  0
  -23.6118  -29.8218   20.1658 C   0  0  0  0  0  0
  -25.4105  -36.3107   24.0338 C   0  0  1  0  0  0
  -20.5868  -28.3662   23.1312 C   0  0  2  0  0  0
  -20.6763  -26.9400   22.5414 C   0  0  0  0  0  0
  -19.5742  -26.6381   21.5207 C   0  0  0  0  0  0
  -18.1924  -26.7907   22.1620 C   0  0  0  0  0  0
  -19.1528  -28.8828   23.2892 C   0  0  0  0  0  0
  -18.9454  -30.1431   23.8905 C   0  0  0  0  0  0
  -17.6455  -30.6574   24.0556 C   0  0  0  0  0  0
  -25.9040  -34.9477   23.5130 C   0  0  0  0  0  0
  -16.5344  -29.9071   23.6323 C   0  0  0  0  0  0
  -16.7266  -28.6487   23.0344 C   0  0  0  0  0  0
  -26.4473  -31.6591   25.0725 C   0  0  0  0  0  0
  -25.3735  -31.3690   26.1480 C   0  0  0  0  0  0
  -27.0301  -30.3032   24.6090 C   0  0  0  0  0  0
  -27.6057  -32.4302   25.7482 C   0  0  0  0  0  0
  -27.5577  -37.1815   24.8467 C   0  0  0  0  0  0
  -21.4159  -29.3031   22.3735 N   0  0  0  0  0  0
  -26.4289  -37.3793   23.9409 N   0  0  0  0  0  0
  -24.6693  -31.0777   22.1010 N   0  0  0  0  0  0
  -23.4202  -28.8212   23.3062 O   0  0  0  0  0  0
  -28.3534  -26.6342   20.0691 O   0  0  0  0  0  0
  -26.5594  -34.8928   22.4685 O   0  0  0  0  0  0
  -23.5354  -32.1460   23.7487 O   0  0  0  0  0  0
  -29.2721  -20.5748   19.7725 C   0  0  0  0  0  0
  -28.9291  -18.5869   21.6345 C   0  0  0  0  0  0
  -29.6965  -18.2779   20.4920 C   0  0  0  0  0  0
  -29.8410  -19.3019   19.5188 C   0  0  0  0  0  0
  -28.5614  -20.7972   20.9647 C   0  0  0  0  0  0
  -30.6223  -20.0164   17.3556 C   0  0  0  0  0  0
  -30.5157  -16.9658   20.3605 C   0  0  0  0  0  0
  -27.8459  -24.4871   21.3703 C   0  0  0  0  0  0
  -28.6025  -25.8471   21.2456 C   0  0  0  0  0  0
  -28.5184  -23.2317   20.7409 C   0  0  0  0  0  0
  -28.3673  -19.8027   21.8605 N   0  0  0  0  0  0
  -29.9757  -15.6386   20.7517 N   0  0  0  0  0  0
  -30.5666  -19.0257   18.3777 O   0  0  0  0  0  0
  -28.0008  -22.0172   21.3245 O   0  0  0  0  0  0
  -31.4545  -12.3981   19.1407 H   0  0  0  0  0  0
  -30.2995  -11.3201   19.8719 H   0  0  0  0  0  0
  -29.7326  -11.7453   17.4567 H   0  0  0  0  0  0
  -29.6599  -13.4657   17.7591 H   0  0  0  0  0  0
  -27.8250  -11.3019   18.8443 H   0  0  0  0  0  0
  -27.3606  -12.6147   17.7922 H   0  0  0  0  0  0
  -27.6799  -14.2564   19.5384 H   0  0  0  0  0  0
  -28.6759  -12.0453   21.4019 H   0  0  0  0  0  0
  -28.4677  -13.7232   21.8333 H   0  0  0  0  0  0
  -25.2761   -9.5671   22.4768 H   0  0  0  0  0  0
  -24.0004   -7.4618   22.7456 H   0  0  0  0  0  0
  -21.0836   -8.8795   19.8947 H   0  0  0  0  0  0
  -22.3705  -10.9697   19.6182 H   0  0  0  0  0  0
  -21.2008   -7.6159   23.9722 H   0  0  0  0  0  0
  -21.1466   -6.0529   25.9073 H   0  0  0  0  0  0
  -22.0603   -2.7623   23.2839 H   0  0  0  0  0  0
  -22.4105  -11.9885   22.4808 H   0  0  0  0  0  0
  -21.1112  -13.1240   22.2633 H   0  0  0  0  0  0
  -24.6634  -15.8477   20.5052 H   0  0  0  0  0  0
  -26.2719  -15.6192   20.0468 H   0  0  0  0  0  0
  -26.7131  -32.5521   23.1161 H   0  0  0  0  0  0
  -25.0091  -33.9769   25.0483 H   0  0  0  0  0  0
  -22.6930  -31.3092   21.4106 H   0  0  0  0  0  0
  -23.3744  -35.9661   23.3314 H   0  0  0  0  0  0
  -24.3587  -36.8913   22.2052 H   0  0  0  0  0  0
  -23.7244  -37.6527   23.6636 H   0  0  0  0  0  0
  -26.0484  -31.5874   20.5933 H   0  0  0  0  0  0
  -26.8228  -30.8816   21.9838 H   0  0  0  0  0  0
  -28.0984  -29.0775   21.1805 H   0  0  0  0  0  0
  -26.0600  -25.9646   19.0081 H   0  0  0  0  0  0
  -23.9765  -27.3007   19.0232 H   0  0  0  0  0  0
  -23.7238  -30.5947   19.4051 H   0  0  0  0  0  0
  -22.7346  -29.2431   19.8697 H   0  0  0  0  0  0
  -25.1282  -36.1972   25.0830 H   0  0  0  0  0  0
  -20.9947  -28.3210   24.1440 H   0  0  0  0  0  0
  -20.5659  -26.2277   23.3607 H   0  0  0  0  0  0
  -21.6634  -26.7445   22.1210 H   0  0  0  0  0  0
  -19.6914  -25.6299   21.1223 H   0  0  0  0  0  0
  -19.6657  -27.3203   20.6740 H   0  0  0  0  0  0
  -17.4198  -26.6663   21.4018 H   0  0  0  0  0  0
  -18.0320  -26.0038   22.9003 H   0  0  0  0  0  0
  -19.7926  -30.7235   24.2293 H   0  0  0  0  0  0
  -17.5008  -31.6255   24.5148 H   0  0  0  0  0  0
  -15.5344  -30.2971   23.7631 H   0  0  0  0  0  0
  -15.8671  -28.0801   22.7056 H   0  0  0  0  0  0
  -24.5908  -30.7040   25.7816 H   0  0  0  0  0  0
  -24.8936  -32.2845   26.4950 H   0  0  0  0  0  0
  -25.8106  -30.8843   27.0222 H   0  0  0  0  0  0
  -26.2850  -29.6797   24.1142 H   0  0  0  0  0  0
  -27.4080  -29.7254   25.4534 H   0  0  0  0  0  0
  -27.8677  -30.4363   23.9240 H   0  0  0  0  0  0
  -27.2689  -33.3587   26.2100 H   0  0  0  0  0  0
  -28.3845  -32.6885   25.0293 H   0  0  0  0  0  0
  -28.0755  -31.8401   26.5360 H   0  0  0  0  0  0
  -28.2610  -38.0097   24.7507 H   0  0  0  0  0  0
  -28.1057  -36.2636   24.6300 H   0  0  0  0  0  0
  -27.2308  -37.1480   25.8872 H   0  0  0  0  0  0
  -20.9347  -29.8749   21.6936 H   0  0  0  0  0  0
  -26.0185  -38.2874   24.1388 H   0  0  0  0  0  0
  -29.3810  -21.3859   19.0704 H   0  0  0  0  0  0
  -28.8024  -17.8558   22.4202 H   0  0  0  0  0  0
  -29.6254  -20.3011   17.0173 H   0  0  0  0  0  0
  -31.1574  -19.6249   16.4896 H   0  0  0  0  0  0
  -31.1535  -20.9089   17.6896 H   0  0  0  0  0  0
  -31.4326  -17.1318   20.9292 H   0  0  0  0  0  0
  -30.8378  -16.8675   19.3224 H   0  0  0  0  0  0
  -26.8200  -24.5872   21.0180 H   0  0  0  0  0  0
  -27.7560  -24.2873   22.4388 H   0  0  0  0  0  0
  -29.6760  -25.6649   21.3039 H   0  0  0  0  0  0
  -28.3676  -26.4562   22.1216 H   0  0  0  0  0  0
  -28.3579  -23.2442   19.6625 H   0  0  0  0  0  0
  -29.5950  -23.2650   20.9196 H   0  0  0  0  0  0
  -29.0073  -15.5444   21.0155 H   0  0  0  0  0  0
  1 25  1  0  0  0
  1 30  2  0  0  0
  1 82  1  0  0  0
  2  3  1  0  0  0
  2 25  1  0  0  0
  2 85  1  0  0  0
  2 86  1  0  0  0
  3  4  1  0  0  0
  3 87  1  0  0  0
  3 88  1  0  0  0
  4  5  1  0  0  0
  4 89  1  0  0  0
  4 90  1  0  0  0
  5  6  1  0  0  0
  5 26  1  0  0  0
  5 91  1  0  0  0
  6 25  1  0  0  0
  6 92  1  0  0  0
  6 93  1  0  0  0
  7  8  2  0  0  0
  7 26  1  0  0  0
  7 29  1  0  0  0
  8  9  1  0  0  0
  8 22  1  0  0  0
  9 10  1  0  0  0
  9 27  2  0  0  0
 10 11  2  0  0  0
 10 15  1  0  0  0
 11 12  1  0  0  0
 11 94  1  0  0  0
 12 13  2  0  0  0
 12 95  1  0  0  0
 13 14  1  0  0  0
 13 31  1  0  0  0
 14 15  2  0  0  0
 14 96  1  0  0  0
 15 97  1  0  0  0
 16 17  2  0  0  0
 16 21  1  0  0  0
 16 31  1  0  0  0
 17 18  1  0  0  0
 17 98  1  0  0  0
 18 19  2  0  0  0
 18 99  1  0  0  0
 19 20  1  0  0  0
 19 24  1  0  0  0
 20 21  2  0  0  0
 20100  1  0  0  0
 21 23  1  0  0  0
 22 28  1  0  0  0
 22 32  2  0  0  0
 26 27  1  0  0  0
 28101  1  0  0  0
 28102  1  0  0  0
 29103  1  0  0  0
 29104  1  0  0  0
 33 34  1  0  0  0
 33 66  1  0  0  0
 33 70  2  0  0  0
 34 36  1  0  0  0
 34 59  1  0  0  0
 34105  1  0  0  0
 35 44  2  0  0  0
 35 45  1  0  0  0
 35 68  1  0  0  0
 36 56  1  0  0  0
 36106  1  0  0  0
 37 39  1  0  0  0
 37 47  1  0  0  0
 37 66  1  0  0  0
 37107  1  0  0  0
 38 43  2  0  0  0
 38 46  1  0  0  0
 38 47  1  0  0  0
 39 64  1  0  0  0
 39 67  2  0  0  0
 40 52  1  0  0  0
 40 53  2  0  0  0
 40 58  1  0  0  0
 41108  1  0  0  0
 41109  1  0  0  0
 41110  1  0  0  0
 41 48  1  0  0  0
 42 43  1  0  0  0
 42 66  1  0  0  0
 42111  1  0  0  0
 42112  1  0  0  0
 43 44  1  0  0  0
 44113  1  0  0  0
 45 46  2  0  0  0
 45114  1  0  0  0
 46115  1  0  0  0
 47116  1  0  0  0
 47117  1  0  0  0
 48 56  1  0  0  0
 48 65  1  0  0  0
 48118  1  0  0  0
 49 50  1  0  0  0
 49 53  1  0  0  0
 49 64  1  0  0  0
 49119  1  0  0  0
 50 51  1  0  0  0
 50120  1  0  0  0
 50121  1  0  0  0
 51 52  1  0  0  0
 51122  1  0  0  0
 51123  1  0  0  0
 52124  1  0  0  0
 52125  1  0  0  0
 53 54  1  0  0  0
 54 55  2  0  0  0
 54126  1  0  0  0
 55 57  1  0  0  0
 55127  1  0  0  0
 56 69  2  0  0  0
 57 58  2  0  0  0
 57128  1  0  0  0
 58129  1  0  0  0
 59 60  1  0  0  0
 59 61  1  0  0  0
 59 62  1  0  0  0
 60130  1  0  0  0
 60131  1  0  0  0
 60132  1  0  0  0
 61133  1  0  0  0
 61134  1  0  0  0
 61135  1  0  0  0
 62136  1  0  0  0
 62137  1  0  0  0
 62138  1  0  0  0
 63 65  1  0  0  0
 63139  1  0  0  0
 63140  1  0  0  0
 63141  1  0  0  0
 64142  1  0  0  0
 65143  1  0  0  0
 68 79  1  0  0  0
 71 74  2  0  0  0
 71 75  1  0  0  0
 71144  1  0  0  0
 72 73  2  0  0  0
 72 81  1  0  0  0
 72145  1  0  0  0
 73 74  1  0  0  0
 73 77  1  0  0  0
 74 83  1  0  0  0
 75 81  2  0  0  0
 75 84  1  0  0  0
 76 83  1  0  0  0
 76146  1  0  0  0
 76147  1  0  0  0
 76148  1  0  0  0
 77 82  1  0  0  0
 77149  1  0  0  0
 77150  1  0  0  0
 78 79  1  0  0  0
 78 80  1  0  0  0
 78151  1  0  0  0
 78152  1  0  0  0
 79153  1  0  0  0
 79154  1  0  0  0
 80 84  1  0  0  0
 80155  1  0  0  0
 80156  1  0  0  0
 82157  1  0  0  0
M  ISO  4   1 100  68 101  79 101  82 100
M  END
> <chiral flag>
0

> <version>
0

> <s_m_source_file>
/data/baiqing/PycharmProjects/Reinvent-master-3.2/result/LINK_invent/BTK/process_docking_weight1_custom_sum_contain_oxygen_bond_distance_aromatic_linkinvent_7_9_3/rearranged_h_0138.sdf

> <i_m_source_file_index>
15

> <r_mmod_Potential_Energy-OPLS-2005>
-172.112487792969

> <r_mmod_Stretch_Energy-OPLS-2005>
43.6978340148926

> <r_mmod_Bend_Energy-OPLS-2005>
121.593406677246

> <r_mmod_Torsional_Energy-OPLS-2005>
240.284805297852

> <r_mmod_Improper_Torsional_Energy-OPLS-2005>
7.37296009063721

> <r_mmod_Van_der_Waal_Energy-OPLS-2005>
161.736328125

> <r_mmod_Electrostatic_Energy-OPLS-2005>
-543.253295898438

> <r_mmod_Solvation_Energy-OPLS-2005>
-224.177444458008

> <b_mmod_Minimization_Converged-OPLS-2005>
0

> <r_mmod_RMS_Derivative-OPLS-2005>
2.04366135597229

$$$$
15
                    3D
 Structure written by MMmdl.
156164  0  0  1  0            999 V2000
  -30.6295  -14.7297   20.4897 C   0  0  0  0  0  0
  -30.4372  -12.4539   19.4701 C   0  0  0  0  0  0
  -29.5108  -12.5082   18.2364 C   0  0  0  0  0  0
  -28.0391  -12.3257   18.6539 C   0  0  0  0  0  0
  -27.6444  -13.2279   19.8530 C   0  0  2  0  0  0
  -28.6900  -13.1592   20.9885 C   0  0  0  0  0  0
  -25.2533  -13.8191   20.5693 C   0  0  0  0  0  0
  -24.1824  -13.0448   20.9217 C   0  0  0  0  0  0
  -24.6399  -11.6919   20.8758 C   0  0  0  0  0  0
  -23.9069  -10.4301   21.0410 C   0  0  0  0  0  0
  -24.3620   -9.4214   21.9185 C   0  0  0  0  0  0
  -23.6298   -8.2250   22.0744 C   0  0  0  0  0  0
  -22.4283   -8.0284   21.3535 C   0  0  0  0  0  0
  -21.9921   -9.0256   20.4638 C   0  0  0  0  0  0
  -22.7244  -10.2138   20.3055 C   0  0  0  0  0  0
  -21.6855   -6.0748   22.5279 C   0  0  0  0  0  0
  -21.4010   -6.5645   23.8208 C   0  0  0  0  0  0
  -21.3669   -5.6796   24.9172 C   0  0  0  0  0  0
  -21.6046   -4.3052   24.7219 C   0  0  0  0  0  0
  -21.8825   -3.8152   23.4335 C   0  0  0  0  0  0
  -21.9186   -4.6977   22.3396 C   0  0  0  0  0  0
  -22.7840  -13.5234   21.1876 C   0  0  0  0  0  0
  -22.1662   -4.2165   21.0972 F   0  0  0  0  0  0
  -21.5631   -3.4527   25.7731 F   0  0  0  0  0  0
  -29.9918  -13.5112   20.4038 N   0  0  0  0  0  0
  -26.2959  -12.9398   20.3287 N   0  0  0  0  0  0
  -25.9327  -11.6544   20.5760 N   0  0  0  0  0  0
  -22.0468  -12.8217   22.0414 N   0  0  0  0  0  0
  -25.4228  -15.1920   20.4103 N   0  0  0  0  0  0
  -31.8126  -14.8274   20.1529 O   0  0  0  0  0  0
  -21.6638   -6.8888   21.4243 O   0  0  0  0  0  0
  -22.3524  -14.5552   20.6733 O   0  0  0  0  0  0
  -24.6305  -31.8547   23.1991 C   0  0  0  0  0  0
  -25.9121  -32.4759   23.8350 C   0  0  1  0  0  0
  -27.2239  -27.2666   20.1455 C   0  0  0  0  0  0
  -25.5934  -33.8559   24.2262 N   0  0  0  0  0  0
  -23.4298  -30.4749   21.5409 C   0  0  2  0  0  0
  -24.8794  -28.9197   20.1151 C   0  0  0  0  0  0
  -22.7516  -29.4557   22.4907 C   0  0  0  0  0  0
  -18.0296  -28.1383   22.8462 C   0  0  0  0  0  0
  -24.1492  -36.7285   23.2644 C   0  0  0  0  0  0
  -25.9738  -30.7737   21.3759 C   0  0  0  0  0  0
  -26.0494  -29.3926   20.7248 C   0  0  0  0  0  0
  -27.2273  -28.5792   20.7233 C   0  0  0  0  0  0
  -26.0333  -26.8577   19.5073 C   0  0  0  0  0  0
  -24.8754  -27.6603   19.4940 C   0  0  0  0  0  0
  -23.6521  -29.8099   20.1556 C   0  0  0  0  0  0
  -25.4121  -36.3066   24.0331 C   0  0  1  0  0  0
  -20.5911  -28.3683   23.1260 C   0  0  2  0  0  0
  -20.6783  -26.9405   22.5399 C   0  0  0  0  0  0
  -19.5764  -26.6384   21.5194 C   0  0  0  0  0  0
  -18.1933  -26.7919   22.1598 C   0  0  0  0  0  0
  -19.1557  -28.8850   23.2852 C   0  0  0  0  0  0
  -18.9475  -30.1450   23.8881 C   0  0  0  0  0  0
  -17.6473  -30.6588   24.0545 C   0  0  0  0  0  0
  -25.9050  -34.9440   23.5102 C   0  0  0  0  0  0
  -16.5356  -29.9082   23.6321 C   0  0  0  0  0  0
  -16.7278  -28.6504   23.0336 C   0  0  0  0  0  0
  -26.4490  -31.6604   25.0738 C   0  0  0  0  0  0
  -25.3719  -31.3746   26.1467 C   0  0  0  0  0  0
  -27.0360  -30.3038   24.6214 C   0  0  0  0  0  0
  -27.6056  -32.4345   25.7489 C   0  0  0  0  0  0
  -27.5568  -37.1806   24.8464 C   0  0  0  0  0  0
  -21.4218  -29.3033   22.3652 N   0  0  0  0  0  0
  -26.4287  -37.3767   23.9403 N   0  0  0  0  0  0
  -24.6969  -31.0529   22.0964 N   0  0  0  0  0  0
  -23.4215  -28.8067   23.2985 O   0  0  0  0  0  0
  -28.3269  -26.3884   20.1588 O   0  0  0  0  0  0
  -26.5603  -34.8890   22.4656 O   0  0  0  0  0  0
  -23.5445  -32.1343   23.7291 O   0  0  0  0  0  0
  -30.9087  -20.0162   21.6157 C   0  0  0  0  0  0
  -31.5336  -18.9366   22.2661 C   0  0  0  0  0  0
  -29.5734  -18.4166   20.3674 C   0  0  0  0  0  0
  -29.8953  -19.8086   20.6601 C   0  0  0  0  0  0
  -31.1977  -17.5913   21.9918 C   0  0  0  0  0  0
  -30.2304  -17.2736   20.9958 C   0  0  0  0  0  0
  -31.8883  -16.5315   22.8373 C   0  0  0  0  0  0
  -29.3348  -21.0947   19.8960 C   0  0  0  0  0  0
  -28.8662  -23.7189   19.9335 C   0  0  0  0  0  0
  -28.1407  -24.9781   20.6483 C   0  0  0  0  0  0
  -29.8586  -15.8575   20.7347 N   0  0  0  0  0  0
  -28.9008  -22.3544   20.6622 N   0  3  0  0  0  0
  -31.4767  -12.5824   19.1636 H   0  0  0  0  0  0
  -30.3839  -11.4772   19.9534 H   0  0  0  0  0  0
  -29.7965  -11.7378   17.5203 H   0  0  0  0  0  0
  -29.6336  -13.4627   17.7222 H   0  0  0  0  0  0
  -27.9031  -11.2779   18.9216 H   0  0  0  0  0  0
  -27.3795  -12.5091   17.8058 H   0  0  0  0  0  0
  -27.6398  -14.2489   19.4715 H   0  0  0  0  0  0
  -28.7251  -12.1616   21.4283 H   0  0  0  0  0  0
  -28.4233  -13.8383   21.7999 H   0  0  0  0  0  0
  -25.2760   -9.5700   22.4757 H   0  0  0  0  0  0
  -24.0013   -7.4643   22.7453 H   0  0  0  0  0  0
  -21.0854   -8.8787   19.8924 H   0  0  0  0  0  0
  -22.3710  -10.9687   19.6168 H   0  0  0  0  0  0
  -21.2006   -7.6148   23.9730 H   0  0  0  0  0  0
  -21.1486   -6.0509   25.9081 H   0  0  0  0  0  0
  -22.0593   -2.7610   23.2825 H   0  0  0  0  0  0
  -22.4076  -11.9867   22.4800 H   0  0  0  0  0  0
  -21.1084  -13.1244   22.2627 H   0  0  0  0  0  0
  -24.6521  -15.8433   20.5138 H   0  0  0  0  0  0
  -26.2660  -15.6292   20.0641 H   0  0  0  0  0  0
  -26.7197  -32.5408   23.1101 H   0  0  0  0  0  0
  -25.0116  -33.9710   25.0424 H   0  0  0  0  0  0
  -22.7251  -31.2963   21.3940 H   0  0  0  0  0  0
  -23.3738  -35.9625   23.3310 H   0  0  0  0  0  0
  -24.3592  -36.8899   22.2054 H   0  0  0  0  0  0
  -23.7244  -37.6494   23.6668 H   0  0  0  0  0  0
  -26.1096  -31.5350   20.6063 H   0  0  0  0  0  0
  -26.8514  -30.8266   22.0087 H   0  0  0  0  0  0
  -28.1291  -28.9363   21.2016 H   0  0  0  0  0  0
  -25.9912  -25.8966   19.0151 H   0  0  0  0  0  0
  -23.9821  -27.2978   19.0035 H   0  0  0  0  0  0
  -23.7855  -30.5881   19.4021 H   0  0  0  0  0  0
  -22.7697  -29.2479   19.8433 H   0  0  0  0  0  0
  -25.1304  -36.1918   25.0827 H   0  0  0  0  0  0
  -20.9994  -28.3269   24.1387 H   0  0  0  0  0  0
  -20.5687  -26.2292   23.3602 H   0  0  0  0  0  0
  -21.6642  -26.7415   22.1197 H   0  0  0  0  0  0
  -19.6923  -25.6292   21.1246 H   0  0  0  0  0  0
  -19.6718  -27.3166   20.6701 H   0  0  0  0  0  0
  -17.4197  -26.6646   21.4008 H   0  0  0  0  0  0
  -18.0340  -26.0066   22.9006 H   0  0  0  0  0  0
  -19.7959  -30.7256   24.2258 H   0  0  0  0  0  0
  -17.5032  -31.6271   24.5142 H   0  0  0  0  0  0
  -15.5364  -30.2971   23.7692 H   0  0  0  0  0  0
  -15.8659  -28.0840   22.7047 H   0  0  0  0  0  0
  -24.5911  -30.7072   25.7798 H   0  0  0  0  0  0
  -24.8889  -32.2916   26.4867 H   0  0  0  0  0  0
  -25.8050  -30.8959   27.0257 H   0  0  0  0  0  0
  -26.2956  -29.6765   24.1233 H   0  0  0  0  0  0
  -27.4064  -29.7311   25.4724 H   0  0  0  0  0  0
  -27.8813  -30.4345   23.9440 H   0  0  0  0  0  0
  -27.2707  -33.3665   26.2040 H   0  0  0  0  0  0
  -28.3877  -32.6869   25.0321 H   0  0  0  0  0  0
  -28.0707  -31.8484   26.5426 H   0  0  0  0  0  0
  -28.2592  -38.0085   24.7501 H   0  0  0  0  0  0
  -28.1061  -36.2632   24.6324 H   0  0  0  0  0  0
  -27.2296  -37.1480   25.8863 H   0  0  0  0  0  0
  -20.9380  -29.8792   21.6899 H   0  0  0  0  0  0
  -26.0161  -38.2834   24.1420 H   0  0  0  0  0  0
  -31.2349  -21.0196   21.8543 H   0  0  0  0  0  0
  -32.2946  -19.1567   23.0023 H   0  0  0  0  0  0
  -28.8255  -18.2193   19.6128 H   0  0  0  0  0  0
  -32.1792  -16.9384   23.8068 H   0  0  0  0  0  0
  -32.7924  -16.1761   22.3422 H   0  0  0  0  0  0
  -31.2369  -15.6834   23.0437 H   0  0  0  0  0  0
  -28.5193  -20.7895   19.2400 H   0  0  0  0  0  0
  -30.1386  -21.4053   19.2273 H   0  0  0  0  0  0
  -29.8995  -24.0034   19.7292 H   0  0  0  0  0  0
  -28.4003  -23.5708   18.9590 H   0  0  0  0  0  0
  -27.0780  -24.7434   20.7297 H   0  0  0  0  0  0
  -28.4861  -24.9957   21.6816 H   0  0  0  0  0  0
  -28.8697  -15.6661   20.7823 H   0  0  0  0  0  0
  -27.9835  -22.1557   21.0303 H   0  0  0  0  0  0
  -29.5142  -22.4446   21.4562 H   0  0  0  0  0  0
  1 25  1  0  0  0
  1 30  2  0  0  0
  1 81  1  0  0  0
  2  3  1  0  0  0
  2 25  1  0  0  0
  2 83  1  0  0  0
  2 84  1  0  0  0
  3  4  1  0  0  0
  3 85  1  0  0  0
  3 86  1  0  0  0
  4  5  1  0  0  0
  4 87  1  0  0  0
  4 88  1  0  0  0
  5  6  1  0  0  0
  5 26  1  0  0  0
  5 89  1  0  0  0
  6 25  1  0  0  0
  6 90  1  0  0  0
  6 91  1  0  0  0
  7  8  2  0  0  0
  7 26  1  0  0  0
  7 29  1  0  0  0
  8  9  1  0  0  0
  8 22  1  0  0  0
  9 10  1  0  0  0
  9 27  2  0  0  0
 10 11  2  0  0  0
 10 15  1  0  0  0
 11 12  1  0  0  0
 11 92  1  0  0  0
 12 13  2  0  0  0
 12 93  1  0  0  0
 13 14  1  0  0  0
 13 31  1  0  0  0
 14 15  2  0  0  0
 14 94  1  0  0  0
 15 95  1  0  0  0
 16 17  2  0  0  0
 16 21  1  0  0  0
 16 31  1  0  0  0
 17 18  1  0  0  0
 17 96  1  0  0  0
 18 19  2  0  0  0
 18 97  1  0  0  0
 19 20  1  0  0  0
 19 24  1  0  0  0
 20 21  2  0  0  0
 20 98  1  0  0  0
 21 23  1  0  0  0
 22 28  1  0  0  0
 22 32  2  0  0  0
 26 27  1  0  0  0
 28 99  1  0  0  0
 28100  1  0  0  0
 29101  1  0  0  0
 29102  1  0  0  0
 33 34  1  0  0  0
 33 66  1  0  0  0
 33 70  2  0  0  0
 34 36  1  0  0  0
 34 59  1  0  0  0
 34103  1  0  0  0
 35 44  2  0  0  0
 35 45  1  0  0  0
 35 68  1  0  0  0
 36 56  1  0  0  0
 36104  1  0  0  0
 37 39  1  0  0  0
 37 47  1  0  0  0
 37 66  1  0  0  0
 37105  1  0  0  0
 38 43  2  0  0  0
 38 46  1  0  0  0
 38 47  1  0  0  0
 39 64  1  0  0  0
 39 67  2  0  0  0
 40 52  1  0  0  0
 40 53  2  0  0  0
 40 58  1  0  0  0
 41106  1  0  0  0
 41107  1  0  0  0
 41108  1  0  0  0
 41 48  1  0  0  0
 42 43  1  0  0  0
 42 66  1  0  0  0
 42109  1  0  0  0
 42110  1  0  0  0
 43 44  1  0  0  0
 44111  1  0  0  0
 45 46  2  0  0  0
 45112  1  0  0  0
 46113  1  0  0  0
 47114  1  0  0  0
 47115  1  0  0  0
 48 56  1  0  0  0
 48 65  1  0  0  0
 48116  1  0  0  0
 49 50  1  0  0  0
 49 53  1  0  0  0
 49 64  1  0  0  0
 49117  1  0  0  0
 50 51  1  0  0  0
 50118  1  0  0  0
 50119  1  0  0  0
 51 52  1  0  0  0
 51120  1  0  0  0
 51121  1  0  0  0
 52122  1  0  0  0
 52123  1  0  0  0
 53 54  1  0  0  0
 54 55  2  0  0  0
 54124  1  0  0  0
 55 57  1  0  0  0
 55125  1  0  0  0
 56 69  2  0  0  0
 57 58  2  0  0  0
 57126  1  0  0  0
 58127  1  0  0  0
 59 60  1  0  0  0
 59 61  1  0  0  0
 59 62  1  0  0  0
 60128  1  0  0  0
 60129  1  0  0  0
 60130  1  0  0  0
 61131  1  0  0  0
 61132  1  0  0  0
 61133  1  0  0  0
 62134  1  0  0  0
 62135  1  0  0  0
 62136  1  0  0  0
 63 65  1  0  0  0
 63137  1  0  0  0
 63138  1  0  0  0
 63139  1  0  0  0
 64140  1  0  0  0
 65141  1  0  0  0
 68 80  1  0  0  0
 71 72  2  0  0  0
 71 74  1  0  0  0
 71142  1  0  0  0
 72 75  1  0  0  0
 72143  1  0  0  0
 73 74  2  0  0  0
 73 76  1  0  0  0
 73144  1  0  0  0
 74 78  1  0  0  0
 75 76  2  0  0  0
 75 77  1  0  0  0
 76 81  1  0  0  0
 77145  1  0  0  0
 77146  1  0  0  0
 77147  1  0  0  0
 78 82  1  0  0  0
 78148  1  0  0  0
 78149  1  0  0  0
 79 80  1  0  0  0
 79 82  1  0  0  0
 79150  1  0  0  0
 79151  1  0  0  0
 80152  1  0  0  0
 80153  1  0  0  0
 81154  1  0  0  0
 82155  1  0  0  0
 82156  1  0  0  0
M  CHG  1  82   1
M  ISO  4   1 100  68 101  80 101  81 100
M  END
> <chiral flag>
0

> <version>
0

> <s_m_source_file>
/data/baiqing/PycharmProjects/Reinvent-master-3.2/result/LINK_invent/BTK/process_docking_weight1_custom_sum_contain_oxygen_bond_distance_aromatic_linkinvent_7_9_3/rearranged_h_0138.sdf

> <i_m_source_file_index>
16

> <r_mmod_Potential_Energy-OPLS-2005>
-25.3458137512207

> <r_mmod_Stretch_Energy-OPLS-2005>
120.310928344727

> <r_mmod_Bend_Energy-OPLS-2005>
155.562118530273

> <r_mmod_Torsional_Energy-OPLS-2005>
241.301834106445

> <r_mmod_Improper_Torsional_Energy-OPLS-2005>
5.85196733474731

> <r_mmod_Van_der_Waal_Energy-OPLS-2005>
137.241470336914

> <r_mmod_Electrostatic_Energy-OPLS-2005>
-297.775299072266

> <r_mmod_Solvation_Energy-OPLS-2005>
-466.368591308594

> <b_mmod_Minimization_Converged-OPLS-2005>
0

> <r_mmod_RMS_Derivative-OPLS-2005>
2.86271786689758

$$$$
16
                    3D
 Structure written by MMmdl.
156164  0  0  1  0            999 V2000
  -30.5985  -14.7580   20.4410 C   0  0  0  0  0  0
  -30.4306  -12.4597   19.4835 C   0  0  0  0  0  0
  -29.5129  -12.5110   18.2424 C   0  0  0  0  0  0
  -28.0388  -12.3293   18.6509 C   0  0  0  0  0  0
  -27.6382  -13.2314   19.8489 C   0  0  2  0  0  0
  -28.6795  -13.1759   20.9877 C   0  0  0  0  0  0
  -25.2494  -13.8198   20.5693 C   0  0  0  0  0  0
  -24.1785  -13.0442   20.9208 C   0  0  0  0  0  0
  -24.6364  -11.6916   20.8719 C   0  0  0  0  0  0
  -23.9039  -10.4292   21.0373 C   0  0  0  0  0  0
  -24.3591   -9.4220   21.9158 C   0  0  0  0  0  0
  -23.6278   -8.2254   22.0741 C   0  0  0  0  0  0
  -22.4267   -8.0267   21.3528 C   0  0  0  0  0  0
  -21.9892   -9.0232   20.4628 C   0  0  0  0  0  0
  -22.7209  -10.2119   20.3030 C   0  0  0  0  0  0
  -21.6859   -6.0715   22.5274 C   0  0  0  0  0  0
  -21.4019   -6.5624   23.8203 C   0  0  0  0  0  0
  -21.3673   -5.6781   24.9166 C   0  0  0  0  0  0
  -21.6052   -4.3043   24.7223 C   0  0  0  0  0  0
  -21.8821   -3.8130   23.4346 C   0  0  0  0  0  0
  -21.9204   -4.6942   22.3400 C   0  0  0  0  0  0
  -22.7817  -13.5220   21.1887 C   0  0  0  0  0  0
  -22.1661   -4.2123   21.0975 F   0  0  0  0  0  0
  -21.5636   -3.4532   25.7743 F   0  0  0  0  0  0
  -29.9820  -13.5259   20.4087 N   0  0  0  0  0  0
  -26.2906  -12.9403   20.3259 N   0  0  0  0  0  0
  -25.9290  -11.6544   20.5712 N   0  0  0  0  0  0
  -22.0460  -12.8190   22.0429 N   0  0  0  0  0  0
  -25.4217  -15.1919   20.4120 N   0  0  0  0  0  0
  -31.7864  -14.8537   20.1171 O   0  0  0  0  0  0
  -21.6648   -6.8853   21.4232 O   0  0  0  0  0  0
  -22.3511  -14.5540   20.6749 O   0  0  0  0  0  0
  -24.6289  -31.8529   23.1946 C   0  0  0  0  0  0
  -25.9117  -32.4735   23.8305 C   0  0  1  0  0  0
  -27.2376  -27.2625   20.1406 C   0  0  0  0  0  0
  -25.5923  -33.8542   24.2241 N   0  0  0  0  0  0
  -23.4272  -30.4695   21.5362 C   0  0  2  0  0  0
  -24.8788  -28.9043   20.1096 C   0  0  0  0  0  0
  -22.7490  -29.4583   22.4908 C   0  0  0  0  0  0
  -18.0287  -28.1389   22.8476 C   0  0  0  0  0  0
  -24.1495  -36.7281   23.2636 C   0  0  0  0  0  0
  -25.9678  -30.7671   21.3709 C   0  0  0  0  0  0
  -26.0430  -29.3851   20.7196 C   0  0  0  0  0  0
  -27.2191  -28.5737   20.7249 C   0  0  0  0  0  0
  -26.0542  -26.8379   19.5015 C   0  0  0  0  0  0
  -24.8886  -27.6397   19.4908 C   0  0  0  0  0  0
  -23.6463  -29.7904   20.1560 C   0  0  0  0  0  0
  -25.4119  -36.3057   24.0317 C   0  0  1  0  0  0
  -20.5889  -28.3698   23.1280 C   0  0  2  0  0  0
  -20.6784  -26.9417   22.5416 C   0  0  0  0  0  0
  -19.5764  -26.6390   21.5214 C   0  0  0  0  0  0
  -18.1939  -26.7932   22.1615 C   0  0  0  0  0  0
  -19.1535  -28.8858   23.2878 C   0  0  0  0  0  0
  -18.9455  -30.1458   23.8899 C   0  0  0  0  0  0
  -17.6454  -30.6588   24.0560 C   0  0  0  0  0  0
  -25.9059  -34.9426   23.5088 C   0  0  0  0  0  0
  -16.5351  -29.9084   23.6321 C   0  0  0  0  0  0
  -16.7273  -28.6503   23.0341 C   0  0  0  0  0  0
  -26.4496  -31.6551   25.0688 C   0  0  0  0  0  0
  -25.3719  -31.3695   26.1404 C   0  0  0  0  0  0
  -27.0332  -30.2964   24.6163 C   0  0  0  0  0  0
  -27.6057  -32.4278   25.7472 C   0  0  0  0  0  0
  -27.5582  -37.1787   24.8455 C   0  0  0  0  0  0
  -21.4195  -29.3039   22.3663 N   0  0  0  0  0  0
  -26.4291  -37.3758   23.9406 N   0  0  0  0  0  0
  -24.6935  -31.0483   22.0914 N   0  0  0  0  0  0
  -23.4181  -28.8149   23.3035 O   0  0  0  0  0  0
  -28.3810  -26.4378   20.2140 O   0  0  0  0  0  0
  -26.5638  -34.8903   22.4660 O   0  0  0  0  0  0
  -23.5445  -32.1367   23.7248 O   0  0  0  0  0  0
  -28.2528  -23.8358   20.6804 C   0  0  0  0  0  0
  -28.5080  -25.0460   19.8988 C   0  0  0  0  0  0
  -29.1708  -24.5745   18.7890 C   0  0  0  0  0  0
  -28.7736  -22.7014   20.0438 C   0  0  0  0  0  0
  -29.7171  -25.3863   17.6549 C   0  0  0  0  0  0
  -30.0184  -22.3661   17.8545 C   0  0  0  0  0  0
  -29.2061  -18.6137   20.6168 C   0  0  0  0  0  0
  -29.5634  -20.1175   20.0839 C   0  0  0  0  0  0
  -30.1855  -17.3549   20.2614 C   0  0  0  0  0  0
  -29.3415  -23.1746   18.8600 N   0  0  0  0  0  0
  -28.7211  -21.3147   20.5203 N   0  0  0  0  0  0
  -29.8223  -15.9002   20.6064 N   0  0  0  0  0  0
  -31.4727  -12.5814   19.1846 H   0  0  0  0  0  0
  -30.3716  -11.4849   19.9708 H   0  0  0  0  0  0
  -29.7997  -11.7397   17.5272 H   0  0  0  0  0  0
  -29.6388  -13.4678   17.7324 H   0  0  0  0  0  0
  -27.8958  -11.2800   18.9133 H   0  0  0  0  0  0
  -27.3852  -12.5194   17.7981 H   0  0  0  0  0  0
  -27.6288  -14.2515   19.4645 H   0  0  0  0  0  0
  -28.7141  -12.1810   21.4356 H   0  0  0  0  0  0
  -28.4102  -13.8645   21.7892 H   0  0  0  0  0  0
  -25.2718   -9.5725   22.4746 H   0  0  0  0  0  0
  -23.9992   -7.4654   22.7463 H   0  0  0  0  0  0
  -21.0826   -8.8733   19.8922 H   0  0  0  0  0  0
  -22.3640  -10.9649   19.6144 H   0  0  0  0  0  0
  -21.1995   -7.6129   23.9701 H   0  0  0  0  0  0
  -21.1503   -6.0506   25.9072 H   0  0  0  0  0  0
  -22.0592   -2.7587   23.2860 H   0  0  0  0  0  0
  -22.4073  -11.9831   22.4777 H   0  0  0  0  0  0
  -21.1078  -13.1207   22.2644 H   0  0  0  0  0  0
  -24.6593  -15.8507   20.5267 H   0  0  0  0  0  0
  -26.2671  -15.6258   20.0642 H   0  0  0  0  0  0
  -26.7177  -32.5392   23.1048 H   0  0  0  0  0  0
  -25.0046  -33.9679   25.0368 H   0  0  0  0  0  0
  -22.7224  -31.2898   21.3845 H   0  0  0  0  0  0
  -23.3758  -35.9611   23.3275 H   0  0  0  0  0  0
  -24.3593  -36.8933   22.2055 H   0  0  0  0  0  0
  -23.7248  -37.6472   23.6684 H   0  0  0  0  0  0
  -26.0976  -31.5241   20.5968 H   0  0  0  0  0  0
  -26.8472  -30.8253   22.0005 H   0  0  0  0  0  0
  -28.1125  -28.9375   21.2132 H   0  0  0  0  0  0
  -26.0203  -25.8648   19.0325 H   0  0  0  0  0  0
  -23.9939  -27.2655   19.0122 H   0  0  0  0  0  0
  -23.7667  -30.5617   19.3941 H   0  0  0  0  0  0
  -22.7665  -29.2186   19.8567 H   0  0  0  0  0  0
  -25.1306  -36.1897   25.0810 H   0  0  0  0  0  0
  -20.9974  -28.3281   24.1404 H   0  0  0  0  0  0
  -20.5699  -26.2303   23.3616 H   0  0  0  0  0  0
  -21.6652  -26.7462   22.1201 H   0  0  0  0  0  0
  -19.6938  -25.6302   21.1244 H   0  0  0  0  0  0
  -19.6717  -27.3200   20.6746 H   0  0  0  0  0  0
  -17.4222  -26.6678   21.4007 H   0  0  0  0  0  0
  -18.0337  -26.0074   22.9007 H   0  0  0  0  0  0
  -19.7935  -30.7271   24.2277 H   0  0  0  0  0  0
  -17.5008  -31.6266   24.5166 H   0  0  0  0  0  0
  -15.5349  -30.2987   23.7644 H   0  0  0  0  0  0
  -15.8671  -28.0824   22.7050 H   0  0  0  0  0  0
  -24.5924  -30.7010   25.7731 H   0  0  0  0  0  0
  -24.8873  -32.2851   26.4797 H   0  0  0  0  0  0
  -25.8033  -30.8903   27.0200 H   0  0  0  0  0  0
  -26.2898  -29.6703   24.1210 H   0  0  0  0  0  0
  -27.4034  -29.7232   25.4674 H   0  0  0  0  0  0
  -27.8770  -30.4229   23.9376 H   0  0  0  0  0  0
  -27.2679  -33.3585   26.2045 H   0  0  0  0  0  0
  -28.3884  -32.6813   25.0307 H   0  0  0  0  0  0
  -28.0706  -31.8391   26.5397 H   0  0  0  0  0  0
  -28.2573  -38.0109   24.7520 H   0  0  0  0  0  0
  -28.1106  -36.2635   24.6259 H   0  0  0  0  0  0
  -27.2298  -37.1400   25.8857 H   0  0  0  0  0  0
  -20.9386  -29.8716   21.6824 H   0  0  0  0  0  0
  -26.0164  -38.2828   24.1415 H   0  0  0  0  0  0
  -27.7719  -23.8166   21.6481 H   0  0  0  0  0  0
  -29.6067  -26.4528   17.8516 H   0  0  0  0  0  0
  -29.1891  -25.1714   16.7260 H   0  0  0  0  0  0
  -30.7800  -25.1975   17.5005 H   0  0  0  0  0  0
  -30.3078  -22.9564   16.9880 H   0  0  0  0  0  0
  -29.3503  -21.5815   17.5033 H   0  0  0  0  0  0
  -30.9192  -21.9249   18.2817 H   0  0  0  0  0  0
  -28.2078  -18.3707   20.2489 H   0  0  0  0  0  0
  -29.1103  -18.6509   21.7028 H   0  0  0  0  0  0
  -29.5478  -20.0613   18.9978 H   0  0  0  0  0  0
  -30.5983  -20.3370   20.3517 H   0  0  0  0  0  0
  -31.1596  -17.5579   20.7084 H   0  0  0  0  0  0
  -30.3621  -17.3691   19.1849 H   0  0  0  0  0  0
  -28.2126  -21.1641   21.3889 H   0  0  0  0  0  0
  -28.8606  -15.7297   20.8626 H   0  0  0  0  0  0
  1 25  1  0  0  0
  1 30  2  0  0  0
  1 82  1  0  0  0
  2  3  1  0  0  0
  2 25  1  0  0  0
  2 83  1  0  0  0
  2 84  1  0  0  0
  3  4  1  0  0  0
  3 85  1  0  0  0
  3 86  1  0  0  0
  4  5  1  0  0  0
  4 87  1  0  0  0
  4 88  1  0  0  0
  5  6  1  0  0  0
  5 26  1  0  0  0
  5 89  1  0  0  0
  6 25  1  0  0  0
  6 90  1  0  0  0
  6 91  1  0  0  0
  7  8  2  0  0  0
  7 26  1  0  0  0
  7 29  1  0  0  0
  8  9  1  0  0  0
  8 22  1  0  0  0
  9 10  1  0  0  0
  9 27  2  0  0  0
 10 11  2  0  0  0
 10 15  1  0  0  0
 11 12  1  0  0  0
 11 92  1  0  0  0
 12 13  2  0  0  0
 12 93  1  0  0  0
 13 14  1  0  0  0
 13 31  1  0  0  0
 14 15  2  0  0  0
 14 94  1  0  0  0
 15 95  1  0  0  0
 16 17  2  0  0  0
 16 21  1  0  0  0
 16 31  1  0  0  0
 17 18  1  0  0  0
 17 96  1  0  0  0
 18 19  2  0  0  0
 18 97  1  0  0  0
 19 20  1  0  0  0
 19 24  1  0  0  0
 20 21  2  0  0  0
 20 98  1  0  0  0
 21 23  1  0  0  0
 22 28  1  0  0  0
 22 32  2  0  0  0
 26 27  1  0  0  0
 28 99  1  0  0  0
 28100  1  0  0  0
 29101  1  0  0  0
 29102  1  0  0  0
 33 34  1  0  0  0
 33 66  1  0  0  0
 33 70  2  0  0  0
 34 36  1  0  0  0
 34 59  1  0  0  0
 34103  1  0  0  0
 35 44  2  0  0  0
 35 45  1  0  0  0
 35 68  1  0  0  0
 36 56  1  0  0  0
 36104  1  0  0  0
 37 39  1  0  0  0
 37 47  1  0  0  0
 37 66  1  0  0  0
 37105  1  0  0  0
 38 43  2  0  0  0
 38 46  1  0  0  0
 38 47  1  0  0  0
 39 64  1  0  0  0
 39 67  2  0  0  0
 40 52  1  0  0  0
 40 53  2  0  0  0
 40 58  1  0  0  0
 41106  1  0  0  0
 41107  1  0  0  0
 41108  1  0  0  0
 41 48  1  0  0  0
 42 43  1  0  0  0
 42 66  1  0  0  0
 42109  1  0  0  0
 42110  1  0  0  0
 43 44  1  0  0  0
 44111  1  0  0  0
 45 46  2  0  0  0
 45112  1  0  0  0
 46113  1  0  0  0
 47114  1  0  0  0
 47115  1  0  0  0
 48 56  1  0  0  0
 48 65  1  0  0  0
 48116  1  0  0  0
 49 50  1  0  0  0
 49 53  1  0  0  0
 49 64  1  0  0  0
 49117  1  0  0  0
 50 51  1  0  0  0
 50118  1  0  0  0
 50119  1  0  0  0
 51 52  1  0  0  0
 51120  1  0  0  0
 51121  1  0  0  0
 52122  1  0  0  0
 52123  1  0  0  0
 53 54  1  0  0  0
 54 55  2  0  0  0
 54124  1  0  0  0
 55 57  1  0  0  0
 55125  1  0  0  0
 56 69  2  0  0  0
 57 58  2  0  0  0
 57126  1  0  0  0
 58127  1  0  0  0
 59 60  1  0  0  0
 59 61  1  0  0  0
 59 62  1  0  0  0
 60128  1  0  0  0
 60129  1  0  0  0
 60130  1  0  0  0
 61131  1  0  0  0
 61132  1  0  0  0
 61133  1  0  0  0
 62134  1  0  0  0
 62135  1  0  0  0
 62136  1  0  0  0
 63 65  1  0  0  0
 63137  1  0  0  0
 63138  1  0  0  0
 63139  1  0  0  0
 64140  1  0  0  0
 65141  1  0  0  0
 68 72  1  0  0  0
 71 72  1  0  0  0
 71 74  2  0  0  0
 71142  1  0  0  0
 72 73  2  0  0  0
 73 75  1  0  0  0
 73 80  1  0  0  0
 74 80  1  0  0  0
 74 81  1  0  0  0
 75143  1  0  0  0
 75144  1  0  0  0
 75145  1  0  0  0
 76 80  1  0  0  0
 76146  1  0  0  0
 76147  1  0  0  0
 76148  1  0  0  0
 77 78  1  0  0  0
 77 79  1  0  0  0
 77149  1  0  0  0
 77150  1  0  0  0
 78 81  1  0  0  0
 78151  1  0  0  0
 78152  1  0  0  0
 79 82  1  0  0  0
 79153  1  0  0  0
 79154  1  0  0  0
 81155  1  0  0  0
 82156  1  0  0  0
M  ISO  4   1 100  68 101  72 101  82 100
M  END
> <chiral flag>
0

> <version>
0

> <s_m_source_file>
/data/baiqing/PycharmProjects/Reinvent-master-3.2/result/LINK_invent/BTK/process_docking_weight1_custom_sum_contain_oxygen_bond_distance_aromatic_linkinvent_7_9_3/rearranged_h_0138.sdf

> <i_m_source_file_index>
17

> <r_mmod_Potential_Energy-OPLS-2005>
102.743606567383

> <r_mmod_Stretch_Energy-OPLS-2005>
123.678359985352

> <r_mmod_Bend_Energy-OPLS-2005>
185.793426513672

> <r_mmod_Torsional_Energy-OPLS-2005>
208.373092651367

> <r_mmod_Improper_Torsional_Energy-OPLS-2005>
7.11986207962036

> <r_mmod_Van_der_Waal_Energy-OPLS-2005>
115.272270202637

> <r_mmod_Electrostatic_Energy-OPLS-2005>
-394.806365966797

> <r_mmod_Solvation_Energy-OPLS-2005>
-228.041885375977

> <b_mmod_Minimization_Converged-OPLS-2005>
0

> <r_mmod_RMS_Derivative-OPLS-2005>
1.76771605014801

$$$$
17
                    3D
 Structure written by MMmdl.
168177  0  0  1  0            999 V2000
  -30.4878  -15.0795   20.3935 C   0  0  0  0  0  0
  -30.4431  -12.6760   19.5080 C   0  0  0  0  0  0
  -29.5276  -12.5457   18.2670 C   0  0  0  0  0  0
  -28.0663  -12.3065   18.6895 C   0  0  0  0  0  0
  -27.6224  -13.2572   19.8308 C   0  0  2  0  0  0
  -28.6628  -13.3415   20.9671 C   0  0  0  0  0  0
  -25.2434  -13.8226   20.5719 C   0  0  0  0  0  0
  -24.1765  -13.0437   20.9241 C   0  0  0  0  0  0
  -24.6394  -11.6927   20.8757 C   0  0  0  0  0  0
  -23.9084  -10.4293   21.0406 C   0  0  0  0  0  0
  -24.3629   -9.4207   21.9186 C   0  0  0  0  0  0
  -23.6297   -8.2245   22.0756 C   0  0  0  0  0  0
  -22.4278   -8.0283   21.3545 C   0  0  0  0  0  0
  -21.9917   -9.0260   20.4649 C   0  0  0  0  0  0
  -22.7252  -10.2135   20.3058 C   0  0  0  0  0  0
  -21.6855   -6.0735   22.5278 C   0  0  0  0  0  0
  -21.4018   -6.5638   23.8211 C   0  0  0  0  0  0
  -21.3660   -5.6791   24.9174 C   0  0  0  0  0  0
  -21.6043   -4.3053   24.7224 C   0  0  0  0  0  0
  -21.8819   -3.8146   23.4346 C   0  0  0  0  0  0
  -21.9194   -4.6964   22.3401 C   0  0  0  0  0  0
  -22.7783  -13.5202   21.1891 C   0  0  0  0  0  0
  -22.1662   -4.2149   21.0979 F   0  0  0  0  0  0
  -21.5627   -3.4537   25.7737 F   0  0  0  0  0  0
  -29.9198  -13.7940   20.3560 N   0  0  0  0  0  0
  -26.2856  -12.9470   20.3223 N   0  0  0  0  0  0
  -25.9327  -11.6593   20.5730 N   0  0  0  0  0  0
  -22.0435  -12.8192   22.0447 N   0  0  0  0  0  0
  -25.4079  -15.1958   20.4138 N   0  0  0  0  0  0
  -31.7007  -15.1309   20.1561 O   0  0  0  0  0  0
  -21.6641   -6.8880   21.4240 O   0  0  0  0  0  0
  -22.3465  -14.5504   20.6731 O   0  0  0  0  0  0
  -24.6521  -31.8348   23.1798 C   0  0  0  0  0  0
  -25.9254  -32.4645   23.8223 C   0  0  1  0  0  0
  -27.2192  -27.0460   20.1665 C   0  0  0  0  0  0
  -25.5966  -33.8455   24.2135 N   0  0  0  0  0  0
  -23.4604  -30.4506   21.5270 C   0  0  2  0  0  0
  -24.9117  -28.8588   20.1111 C   0  0  0  0  0  0
  -22.7613  -29.4498   22.4825 C   0  0  0  0  0  0
  -18.0316  -28.1399   22.8473 C   0  0  0  0  0  0
  -24.1493  -36.7231   23.2641 C   0  0  0  0  0  0
  -26.0223  -30.6798   21.3917 C   0  0  0  0  0  0
  -26.0922  -29.2816   20.7346 C   0  0  0  0  0  0
  -27.2446  -28.3941   20.7399 C   0  0  0  0  0  0
  -26.0105  -26.7442   19.5020 C   0  0  0  0  0  0
  -24.8891  -27.6068   19.4768 C   0  0  0  0  0  0
  -23.6925  -29.7724   20.1497 C   0  0  0  0  0  0
  -25.4126  -36.2999   24.0308 C   0  0  1  0  0  0
  -20.5933  -28.3733   23.1212 C   0  0  2  0  0  0
  -20.6796  -26.9427   22.5402 C   0  0  0  0  0  0
  -19.5767  -26.6378   21.5213 C   0  0  0  0  0  0
  -18.1951  -26.7935   22.1626 C   0  0  0  0  0  0
  -19.1574  -28.8887   23.2832 C   0  0  0  0  0  0
  -18.9487  -30.1481   23.8859 C   0  0  0  0  0  0
  -17.6481  -30.6592   24.0556 C   0  0  0  0  0  0
  -25.9086  -34.9380   23.5036 C   0  0  0  0  0  0
  -16.5371  -29.9079   23.6340 C   0  0  0  0  0  0
  -16.7298  -28.6501   23.0356 C   0  0  0  0  0  0
  -26.4544  -31.6548   25.0706 C   0  0  0  0  0  0
  -25.3702  -31.3766   26.1384 C   0  0  0  0  0  0
  -27.0426  -30.2931   24.6358 C   0  0  0  0  0  0
  -27.6054  -32.4336   25.7500 C   0  0  0  0  0  0
  -27.5580  -37.1759   24.8456 C   0  0  0  0  0  0
  -21.4296  -29.3041   22.3572 N   0  0  0  0  0  0
  -26.4275  -37.3730   23.9421 N   0  0  0  0  0  0
  -24.7320  -31.0124   22.0870 N   0  0  0  0  0  0
  -23.4214  -28.8061   23.3020 O   0  0  0  0  0  0
  -28.2526  -26.0118   20.2409 O   0  0  0  0  0  0
  -26.5685  -34.8896   22.4624 O   0  0  0  0  0  0
  -23.5619  -32.1265   23.6965 O   0  0  0  0  0  0
  -29.7301  -21.9061   15.6665 C   0  0  0  0  0  0
  -30.0835  -21.4105   16.9350 C   0  0  0  0  0  0
  -28.3773  -21.9596   15.2800 C   0  0  0  0  0  0
  -27.7283  -21.0111   17.4273 C   0  0  0  0  0  0
  -29.0833  -20.9607   17.8229 C   0  0  0  0  0  0
  -27.3657  -21.5184   16.1571 C   0  0  0  0  0  0
  -29.3251  -20.4399   21.5747 C   0  0  0  0  0  0
  -29.2018  -18.8009   21.5865 C   0  0  0  0  0  0
  -29.3307  -18.7742   19.2156 C   0  0  0  0  0  0
  -29.4633  -20.4235   19.1962 C   0  0  2  0  0  0
  -28.7968  -21.3439   20.3486 C   0  0  2  0  0  0
  -29.8862  -17.8964   20.4489 C   0  0  2  0  0  0
  -24.9564  -21.5437   16.7105 C   0  0  0  0  0  0
  -29.0311  -23.0801   20.3979 C   0  0  0  0  0  0
  -27.9906  -24.4397   20.0996 C   0  0  0  0  0  0
  -26.0330  -21.5969   15.7293 N   0  0  0  0  0  0
  -29.6849  -16.2817   20.4972 N   0  0  0  0  0  0
  -31.4703  -12.8579   19.1886 H   0  0  0  0  0  0
  -30.4693  -11.7421   20.0720 H   0  0  0  0  0  0
  -29.8700  -11.7333   17.6245 H   0  0  0  0  0  0
  -29.5909  -13.4569   17.6700 H   0  0  0  0  0  0
  -27.9870  -11.2716   19.0247 H   0  0  0  0  0  0
  -27.4001  -12.4015   17.8312 H   0  0  0  0  0  0
  -27.5667  -14.2457   19.3740 H   0  0  0  0  0  0
  -28.7836  -12.3796   21.4674 H   0  0  0  0  0  0
  -28.3394  -14.0506   21.7309 H   0  0  0  0  0  0
  -25.2770   -9.5683   22.4766 H   0  0  0  0  0  0
  -24.0003   -7.4636   22.7476 H   0  0  0  0  0  0
  -21.0846   -8.8782   19.8955 H   0  0  0  0  0  0
  -22.3708  -10.9677   19.6170 H   0  0  0  0  0  0
  -21.2012   -7.6147   23.9715 H   0  0  0  0  0  0
  -21.1481   -6.0521   25.9077 H   0  0  0  0  0  0
  -22.0597   -2.7608   23.2845 H   0  0  0  0  0  0
  -22.4055  -11.9857   22.4841 H   0  0  0  0  0  0
  -21.1053  -13.1215   22.2654 H   0  0  0  0  0  0
  -24.6340  -15.8424   20.5221 H   0  0  0  0  0  0
  -26.2410  -15.6370   20.0479 H   0  0  0  0  0  0
  -26.7319  -32.5220   23.0944 H   0  0  0  0  0  0
  -25.0080  -33.9550   25.0262 H   0  0  0  0  0  0
  -22.7676  -31.2788   21.3650 H   0  0  0  0  0  0
  -23.3771  -35.9543   23.3254 H   0  0  0  0  0  0
  -24.3584  -36.8919   22.2067 H   0  0  0  0  0  0
  -23.7227  -37.6400   23.6716 H   0  0  0  0  0  0
  -26.1896  -31.4286   20.6162 H   0  0  0  0  0  0
  -26.8878  -30.7322   22.0405 H   0  0  0  0  0  0
  -28.1417  -28.7144   21.2509 H   0  0  0  0  0  0
  -25.9004  -25.7856   19.0171 H   0  0  0  0  0  0
  -23.9893  -27.2771   18.9758 H   0  0  0  0  0  0
  -23.8369  -30.5433   19.3919 H   0  0  0  0  0  0
  -22.8048  -29.2194   19.8373 H   0  0  0  0  0  0
  -25.1313  -36.1806   25.0798 H   0  0  0  0  0  0
  -21.0026  -28.3333   24.1332 H   0  0  0  0  0  0
  -20.5687  -26.2348   23.3630 H   0  0  0  0  0  0
  -21.6660  -26.7418   22.1201 H   0  0  0  0  0  0
  -19.6925  -25.6281   21.1262 H   0  0  0  0  0  0
  -19.6701  -27.3171   20.6728 H   0  0  0  0  0  0
  -17.4218  -26.6678   21.4031 H   0  0  0  0  0  0
  -18.0347  -26.0087   22.9032 H   0  0  0  0  0  0
  -19.7962  -30.7312   24.2207 H   0  0  0  0  0  0
  -17.5030  -31.6268   24.5166 H   0  0  0  0  0  0
  -15.5369  -30.2965   23.7684 H   0  0  0  0  0  0
  -15.8702  -28.0805   22.7086 H   0  0  0  0  0  0
  -24.5888  -30.7109   25.7699 H   0  0  0  0  0  0
  -24.8886  -32.2957   26.4729 H   0  0  0  0  0  0
  -25.7962  -30.8988   27.0215 H   0  0  0  0  0  0
  -26.3068  -29.6629   24.1351 H   0  0  0  0  0  0
  -27.3987  -29.7264   25.4971 H   0  0  0  0  0  0
  -27.8995  -30.4142   23.9728 H   0  0  0  0  0  0
  -27.2634  -33.3665   26.1992 H   0  0  0  0  0  0
  -28.3909  -32.6853   25.0361 H   0  0  0  0  0  0
  -28.0673  -31.8521   26.5489 H   0  0  0  0  0  0
  -28.2543  -38.0109   24.7565 H   0  0  0  0  0  0
  -28.1130  -36.2640   24.6199 H   0  0  0  0  0  0
  -27.2308  -37.1302   25.8858 H   0  0  0  0  0  0
  -20.9525  -29.8738   21.6725 H   0  0  0  0  0  0
  -26.0129  -38.2782   24.1464 H   0  0  0  0  0  0
  -30.4983  -22.2479   14.9870 H   0  0  0  0  0  0
  -31.1267  -21.3774   17.2192 H   0  0  0  0  0  0
  -28.1279  -22.3460   14.3015 H   0  0  0  0  0  0
  -26.9760  -20.6527   18.1145 H   0  0  0  0  0  0
  -30.3785  -20.6792   21.7270 H   0  0  0  0  0  0
  -28.8312  -20.8055   22.4755 H   0  0  0  0  0  0
  -28.1374  -18.5615   21.6056 H   0  0  0  0  0  0
  -29.5788  -18.4528   22.5490 H   0  0  0  0  0  0
  -29.8278  -18.3995   18.3201 H   0  0  0  0  0  0
  -28.2779  -18.5280   19.0718 H   0  0  0  0  0  0
  -30.5361  -20.6022   19.2885 H   0  0  0  0  0  0
  -27.7174  -21.1974   20.3060 H   0  0  0  0  0  0
  -30.9641  -18.0558   20.5040 H   0  0  0  0  0  0
  -24.0086  -21.8184   16.2454 H   0  0  0  0  0  0
  -25.1363  -22.2373   17.5339 H   0  0  0  0  0  0
  -24.8472  -20.5382   17.1197 H   0  0  0  0  0  0
  -29.9144  -23.2603   19.7849 H   0  0  0  0  0  0
  -29.3915  -23.2612   21.4104 H   0  0  0  0  0  0
  -27.1042  -24.2585   20.7081 H   0  0  0  0  0  0
  -27.6474  -24.3085   19.0732 H   0  0  0  0  0  0
  -25.8412  -22.0733   14.8496 H   0  0  0  0  0  0
  -28.7171  -16.0344   20.6401 H   0  0  0  0  0  0
  1 25  1  0  0  0
  1 30  2  0  0  0
  1 87  1  0  0  0
  2  3  1  0  0  0
  2 25  1  0  0  0
  2 88  1  0  0  0
  2 89  1  0  0  0
  3  4  1  0  0  0
  3 90  1  0  0  0
  3 91  1  0  0  0
  4  5  1  0  0  0
  4 92  1  0  0  0
  4 93  1  0  0  0
  5  6  1  0  0  0
  5 26  1  0  0  0
  5 94  1  0  0  0
  6 25  1  0  0  0
  6 95  1  0  0  0
  6 96  1  0  0  0
  7  8  2  0  0  0
  7 26  1  0  0  0
  7 29  1  0  0  0
  8  9  1  0  0  0
  8 22  1  0  0  0
  9 10  1  0  0  0
  9 27  2  0  0  0
 10 11  2  0  0  0
 10 15  1  0  0  0
 11 12  1  0  0  0
 11 97  1  0  0  0
 12 13  2  0  0  0
 12 98  1  0  0  0
 13 14  1  0  0  0
 13 31  1  0  0  0
 14 15  2  0  0  0
 14 99  1  0  0  0
 15100  1  0  0  0
 16 17  2  0  0  0
 16 21  1  0  0  0
 16 31  1  0  0  0
 17 18  1  0  0  0
 17101  1  0  0  0
 18 19  2  0  0  0
 18102  1  0  0  0
 19 20  1  0  0  0
 19 24  1  0  0  0
 20 21  2  0  0  0
 20103  1  0  0  0
 21 23  1  0  0  0
 22 28  1  0  0  0
 22 32  2  0  0  0
 26 27  1  0  0  0
 28104  1  0  0  0
 28105  1  0  0  0
 29106  1  0  0  0
 29107  1  0  0  0
 33 34  1  0  0  0
 33 66  1  0  0  0
 33 70  2  0  0  0
 34 36  1  0  0  0
 34 59  1  0  0  0
 34108  1  0  0  0
 35 44  2  0  0  0
 35 45  1  0  0  0
 35 68  1  0  0  0
 36 56  1  0  0  0
 36109  1  0  0  0
 37 39  1  0  0  0
 37 47  1  0  0  0
 37 66  1  0  0  0
 37110  1  0  0  0
 38 43  2  0  0  0
 38 46  1  0  0  0
 38 47  1  0  0  0
 39 64  1  0  0  0
 39 67  2  0  0  0
 40 52  1  0  0  0
 40 53  2  0  0  0
 40 58  1  0  0  0
 41111  1  0  0  0
 41112  1  0  0  0
 41113  1  0  0  0
 41 48  1  0  0  0
 42 43  1  0  0  0
 42 66  1  0  0  0
 42114  1  0  0  0
 42115  1  0  0  0
 43 44  1  0  0  0
 44116  1  0  0  0
 45 46  2  0  0  0
 45117  1  0  0  0
 46118  1  0  0  0
 47119  1  0  0  0
 47120  1  0  0  0
 48 56  1  0  0  0
 48 65  1  0  0  0
 48121  1  0  0  0
 49 50  1  0  0  0
 49 53  1  0  0  0
 49 64  1  0  0  0
 49122  1  0  0  0
 50 51  1  0  0  0
 50123  1  0  0  0
 50124  1  0  0  0
 51 52  1  0  0  0
 51125  1  0  0  0
 51126  1  0  0  0
 52127  1  0  0  0
 52128  1  0  0  0
 53 54  1  0  0  0
 54 55  2  0  0  0
 54129  1  0  0  0
 55 57  1  0  0  0
 55130  1  0  0  0
 56 69  2  0  0  0
 57 58  2  0  0  0
 57131  1  0  0  0
 58132  1  0  0  0
 59 60  1  0  0  0
 59 61  1  0  0  0
 59 62  1  0  0  0
 60133  1  0  0  0
 60134  1  0  0  0
 60135  1  0  0  0
 61136  1  0  0  0
 61137  1  0  0  0
 61138  1  0  0  0
 62139  1  0  0  0
 62140  1  0  0  0
 62141  1  0  0  0
 63 65  1  0  0  0
 63142  1  0  0  0
 63143  1  0  0  0
 63144  1  0  0  0
 64145  1  0  0  0
 65146  1  0  0  0
 68 85  1  0  0  0
 71 72  2  0  0  0
 71 73  1  0  0  0
 71147  1  0  0  0
 72 75  1  0  0  0
 72148  1  0  0  0
 73 76  2  0  0  0
 73149  1  0  0  0
 74 75  2  0  0  0
 74 76  1  0  0  0
 74150  1  0  0  0
 75 80  1  0  0  0
 76 86  1  0  0  0
 77 78  1  0  0  0
 77 81  1  0  0  0
 77151  1  0  0  0
 77152  1  0  0  0
 78 82  1  0  0  0
 78153  1  0  0  0
 78154  1  0  0  0
 79 80  1  0  0  0
 79 82  1  0  0  0
 79155  1  0  0  0
 79156  1  0  0  0
 80 81  1  0  0  0
 80157  1  0  0  0
 81 84  1  0  0  0
 81158  1  0  0  0
 82 87  1  0  0  0
 82159  1  0  0  0
 83 86  1  0  0  0
 83160  1  0  0  0
 83161  1  0  0  0
 83162  1  0  0  0
 84 85  1  0  0  0
 84163  1  0  0  0
 84164  1  0  0  0
 85165  1  0  0  0
 85166  1  0  0  0
 86167  1  0  0  0
 87168  1  0  0  0
M  ISO  4   1 100  68 101  85 101  87 100
M  END
> <chiral flag>
0

> <version>
0

> <s_m_source_file>
/data/baiqing/PycharmProjects/Reinvent-master-3.2/result/LINK_invent/BTK/process_docking_weight1_custom_sum_contain_oxygen_bond_distance_aromatic_linkinvent_7_9_3/rearranged_h_0138.sdf

> <i_m_source_file_index>
18

> <r_mmod_Potential_Energy-OPLS-2005>
793.555053710938

> <r_mmod_Stretch_Energy-OPLS-2005>
370.445220947266

> <r_mmod_Bend_Energy-OPLS-2005>
361.303924560547

> <r_mmod_Torsional_Energy-OPLS-2005>
230.570388793945

> <r_mmod_Improper_Torsional_Energy-OPLS-2005>
5.71575736999512

> <r_mmod_Van_der_Waal_Energy-OPLS-2005>
128.938247680664

> <r_mmod_Electrostatic_Energy-OPLS-2005>
-364.619323730469

> <r_mmod_Solvation_Energy-OPLS-2005>
-229.48486328125

> <b_mmod_Minimization_Converged-OPLS-2005>
0

> <r_mmod_RMS_Derivative-OPLS-2005>
0.405163794755936

$$$$
18
                    3D
 Structure written by MMmdl.
173182  0  0  1  0            999 V2000
  -30.6867  -14.7138   20.4268 C   0  0  0  0  0  0
  -30.4155  -12.4416   19.4388 C   0  0  0  0  0  0
  -29.4735  -12.4625   18.2159 C   0  0  0  0  0  0
  -28.0123  -12.2520   18.6591 C   0  0  0  0  0  0
  -27.6203  -13.1527   19.8551 C   0  0  2  0  0  0
  -28.6955  -13.1666   20.9709 C   0  0  0  0  0  0
  -25.2457  -13.7939   20.5712 C   0  0  0  0  0  0
  -24.1706  -13.0307   20.9262 C   0  0  0  0  0  0
  -24.6219  -11.6764   20.8857 C   0  0  0  0  0  0
  -23.8911  -10.4193   21.0505 C   0  0  0  0  0  0
  -24.3505   -9.4136   21.9277 C   0  0  0  0  0  0
  -23.6212   -8.2152   22.0782 C   0  0  0  0  0  0
  -22.4207   -8.0193   21.3542 C   0  0  0  0  0  0
  -21.9816   -9.0155   20.4659 C   0  0  0  0  0  0
  -22.7104  -10.2061   20.3122 C   0  0  0  0  0  0
  -21.6818   -6.0654   22.5260 C   0  0  0  0  0  0
  -21.3990   -6.5595   23.8180 C   0  0  0  0  0  0
  -21.3672   -5.6783   24.9176 C   0  0  0  0  0  0
  -21.6050   -4.3033   24.7250 C   0  0  0  0  0  0
  -21.8826   -3.8091   23.4380 C   0  0  0  0  0  0
  -21.9184   -4.6886   22.3409 C   0  0  0  0  0  0
  -22.7770  -13.5186   21.1927 C   0  0  0  0  0  0
  -22.1656   -4.2068   21.0994 F   0  0  0  0  0  0
  -21.5656   -3.4526   25.7776 F   0  0  0  0  0  0
  -29.9742  -13.5314   20.3383 N   0  0  0  0  0  0
  -26.2806  -12.8974   20.3449 N   0  0  0  0  0  0
  -25.9119  -11.6209   20.5908 N   0  0  0  0  0  0
  -22.0423  -12.8191   22.0498 N   0  0  0  0  0  0
  -25.4147  -15.1640   20.3943 N   0  0  0  0  0  0
  -31.9097  -14.6699   20.2782 O   0  0  0  0  0  0
  -21.6610   -6.8776   21.4209 O   0  0  0  0  0  0
  -22.3492  -14.5519   20.6806 O   0  0  0  0  0  0
  -24.6203  -31.8632   23.2077 C   0  0  0  0  0  0
  -25.9076  -32.4793   23.8377 C   0  0  1  0  0  0
  -27.2304  -27.3683   20.1221 C   0  0  0  0  0  0
  -25.5927  -33.8590   24.2314 N   0  0  0  0  0  0
  -23.4112  -30.4839   21.5480 C   0  0  2  0  0  0
  -24.8616  -28.9418   20.1134 C   0  0  0  0  0  0
  -22.7427  -29.4622   22.4975 C   0  0  0  0  0  0
  -18.0249  -28.1391   22.8480 C   0  0  0  0  0  0
  -24.1486  -36.7301   23.2634 C   0  0  0  0  0  0
  -25.9463  -30.8082   21.3711 C   0  0  0  0  0  0
  -26.0245  -29.4382   20.7178 C   0  0  0  0  0  0
  -27.2135  -28.6601   20.7179 C   0  0  0  0  0  0
  -26.0554  -26.9097   19.4937 C   0  0  0  0  0  0
  -24.8768  -27.6818   19.4904 C   0  0  0  0  0  0
  -23.6241  -29.8133   20.1629 C   0  0  0  0  0  0
  -25.4110  -36.3090   24.0338 C   0  0  1  0  0  0
  -20.5847  -28.3680   23.1312 C   0  0  2  0  0  0
  -20.6776  -26.9421   22.5420 C   0  0  0  0  0  0
  -19.5763  -26.6390   21.5219 C   0  0  0  0  0  0
  -18.1921  -26.7931   22.1610 C   0  0  0  0  0  0
  -19.1502  -28.8850   23.2897 C   0  0  0  0  0  0
  -18.9442  -30.1451   23.8923 C   0  0  0  0  0  0
  -17.6452  -30.6610   24.0545 C   0  0  0  0  0  0
  -25.9049  -34.9451   23.5114 C   0  0  0  0  0  0
  -16.5341  -29.9104   23.6332 C   0  0  0  0  0  0
  -16.7241  -28.6514   23.0371 C   0  0  0  0  0  0
  -26.4499  -31.6578   25.0716 C   0  0  0  0  0  0
  -25.3740  -31.3685   26.1447 C   0  0  0  0  0  0
  -27.0341  -30.3017   24.6130 C   0  0  0  0  0  0
  -27.6070  -32.4287   25.7473 C   0  0  0  0  0  0
  -27.5585  -37.1787   24.8458 C   0  0  0  0  0  0
  -21.4150  -29.3040   22.3720 N   0  0  0  0  0  0
  -26.4287  -37.3796   23.9412 N   0  0  0  0  0  0
  -24.6778  -31.0667   22.1008 N   0  0  0  0  0  0
  -23.4181  -28.8146   23.3040 O   0  0  0  0  0  0
  -28.3529  -26.5491   20.1349 O   0  0  0  0  0  0
  -26.5591  -34.8918   22.4669 O   0  0  0  0  0  0
  -23.5374  -32.1400   23.7446 O   0  0  0  0  0  0
  -29.1102  -20.3542   22.0760 C   0  0  0  0  0  0
  -30.1955  -21.0476   20.0455 C   0  0  0  0  0  0
  -29.3945  -21.3899   21.1551 C   0  0  0  0  0  0
  -29.5951  -19.0289   21.9176 C   0  0  0  0  0  0
  -30.3891  -18.6712   20.7931 C   0  0  0  0  0  0
  -30.6806  -19.7128   19.8515 C   0  0  0  0  0  0
  -28.0941  -17.4361   19.3879 C   0  0  0  0  0  0
  -28.4170  -16.2538   18.5390 C   0  0  0  0  0  0
  -28.6979  -16.1922   20.0445 C   0  0  0  0  0  0
  -29.2305  -18.0055   22.9766 C   0  0  0  0  0  0
  -31.2026  -19.9511   15.0215 C   0  0  0  0  0  0
  -28.8365  -22.8182   21.4375 C   0  0  0  0  0  0
  -30.9423  -17.2086   20.5803 C   0  0  0  0  0  0
  -31.6528  -19.3202   16.3462 C   0  0  0  0  0  0
  -28.9193  -23.9992   20.3948 C   0  0  0  0  0  0
  -31.2031  -20.1433   17.5569 C   0  0  0  0  0  0
  -28.2176  -25.3172   20.9093 C   0  0  0  0  0  0
  -30.0730  -15.9717   20.4363 N   0  0  0  0  0  0
  -31.4211  -19.3793   18.7376 O   0  0  0  0  0  0
  -31.4472  -12.5633   19.1056 H   0  0  0  0  0  0
  -30.3757  -11.4750   19.9453 H   0  0  0  0  0  0
  -29.7561  -11.6846   17.5077 H   0  0  0  0  0  0
  -29.5712  -13.4126   17.6878 H   0  0  0  0  0  0
  -27.8973  -11.2024   18.9334 H   0  0  0  0  0  0
  -27.3337  -12.4252   17.8231 H   0  0  0  0  0  0
  -27.5479  -14.1160   19.4019 H   0  0  0  0  0  0
  -28.7635  -12.1802   21.4345 H   0  0  0  0  0  0
  -28.4419  -13.8564   21.7781 H   0  0  0  0  0  0
  -25.2638   -9.5609   22.4895 H   0  0  0  0  0  0
  -23.9920   -7.4499   22.7446 H   0  0  0  0  0  0
  -21.0777   -8.8631   19.8915 H   0  0  0  0  0  0
  -22.3546  -10.9615   19.6257 H   0  0  0  0  0  0
  -21.1972   -7.6102   23.9642 H   0  0  0  0  0  0
  -21.1510   -6.0548   25.9075 H   0  0  0  0  0  0
  -22.0610   -2.7541   23.2918 H   0  0  0  0  0  0
  -22.4000  -11.9802   22.4826 H   0  0  0  0  0  0
  -21.1068  -13.1254   22.2790 H   0  0  0  0  0  0
  -24.6379  -15.8132   20.4678 H   0  0  0  0  0  0
  -26.2627  -15.5875   20.0459 H   0  0  0  0  0  0
  -26.7136  -32.5474   23.1116 H   0  0  0  0  0  0
  -25.0119  -33.9764   25.0485 H   0  0  0  0  0  0
  -22.7020  -31.3029   21.4037 H   0  0  0  0  0  0
  -23.3769  -35.9614   23.3280 H   0  0  0  0  0  0
  -24.3590  -36.8953   22.2055 H   0  0  0  0  0  0
  -23.7226  -37.6494   23.6666 H   0  0  0  0  0  0
  -26.0622  -31.5707   20.6000 H   0  0  0  0  0  0
  -26.8344  -30.8648   21.9902 H   0  0  0  0  0  0
  -28.1051  -29.0303   21.2032 H   0  0  0  0  0  0
  -26.0445  -25.9409   19.0150 H   0  0  0  0  0  0
  -23.9848  -27.3017   19.0131 H   0  0  0  0  0  0
  -23.7260  -30.5889   19.4034 H   0  0  0  0  0  0
  -22.7504  -29.2311   19.8638 H   0  0  0  0  0  0
  -25.1278  -36.1948   25.0837 H   0  0  0  0  0  0
  -20.9893  -28.3245   24.1454 H   0  0  0  0  0  0
  -20.5726  -26.2278   23.3615 H   0  0  0  0  0  0
  -21.6637  -26.7501   22.1178 H   0  0  0  0  0  0
  -19.6947  -25.6299   21.1262 H   0  0  0  0  0  0
  -19.6729  -27.3191   20.6750 H   0  0  0  0  0  0
  -17.4205  -26.6677   21.4001 H   0  0  0  0  0  0
  -18.0326  -26.0065   22.9001 H   0  0  0  0  0  0
  -19.7925  -30.7241   24.2333 H   0  0  0  0  0  0
  -17.5015  -31.6294   24.5129 H   0  0  0  0  0  0
  -15.5352  -30.3025   23.7680 H   0  0  0  0  0  0
  -15.8625  -28.0845   22.7125 H   0  0  0  0  0  0
  -24.5935  -30.7022   25.7762 H   0  0  0  0  0  0
  -24.8906  -32.2836   26.4868 H   0  0  0  0  0  0
  -25.8075  -30.8855   27.0213 H   0  0  0  0  0  0
  -26.2894  -29.6760   24.1207 H   0  0  0  0  0  0
  -27.4129  -29.7284   25.4600 H   0  0  0  0  0  0
  -27.8716  -30.4346   23.9282 H   0  0  0  0  0  0
  -27.2722  -33.3610   26.2039 H   0  0  0  0  0  0
  -28.3895  -32.6823   25.0294 H   0  0  0  0  0  0
  -28.0726  -31.8404   26.5403 H   0  0  0  0  0  0
  -28.2555  -38.0132   24.7552 H   0  0  0  0  0  0
  -28.1131  -36.2658   24.6201 H   0  0  0  0  0  0
  -27.2298  -37.1319   25.8861 H   0  0  0  0  0  0
  -20.9342  -29.8738   21.6896 H   0  0  0  0  0  0
  -26.0173  -38.2868   24.1459 H   0  0  0  0  0  0
  -28.4951  -20.5827   22.9368 H   0  0  0  0  0  0
  -30.4313  -21.8312   19.3411 H   0  0  0  0  0  0
  -27.0411  -17.6270   19.5844 H   0  0  0  0  0  0
  -28.6484  -18.3182   19.0965 H   0  0  0  0  0  0
  -29.2704  -16.3597   17.8705 H   0  0  0  0  0  0
  -27.5577  -15.7573   18.0940 H   0  0  0  0  0  0
  -27.9731  -15.7664   20.7284 H   0  0  0  0  0  0
  -29.0146  -18.4909   23.9287 H   0  0  0  0  0  0
  -30.0370  -17.2940   23.1513 H   0  0  0  0  0  0
  -28.3391  -17.4541   22.6794 H   0  0  0  0  0  0
  -31.4932  -19.3390   14.1660 H   0  0  0  0  0  0
  -31.6435  -20.9381   14.8888 H   0  0  0  0  0  0
  -30.1166  -20.0584   14.9945 H   0  0  0  0  0  0
  -29.3192  -23.1574   22.3561 H   0  0  0  0  0  0
  -27.7861  -22.6867   21.6999 H   0  0  0  0  0  0
  -31.6225  -17.0352   21.4136 H   0  0  0  0  0  0
  -31.5924  -17.2167   19.7044 H   0  0  0  0  0  0
  -32.7375  -19.2091   16.3600 H   0  0  0  0  0  0
  -31.2337  -18.3157   16.4197 H   0  0  0  0  0  0
  -28.4559  -23.6918   19.4565 H   0  0  0  0  0  0
  -29.9632  -24.2175   20.1678 H   0  0  0  0  0  0
  -30.1421  -20.3801   17.4457 H   0  0  0  0  0  0
  -31.7543  -21.0855   17.6045 H   0  0  0  0  0  0
  -28.6198  -25.5427   21.8976 H   0  0  0  0  0  0
  -27.1668  -25.0837   21.0834 H   0  0  0  0  0  0
  1 25  1  0  0  0
  1 30  2  0  0  0
  1 88  1  0  0  0
  2  3  1  0  0  0
  2 25  1  0  0  0
  2 90  1  0  0  0
  2 91  1  0  0  0
  3  4  1  0  0  0
  3 92  1  0  0  0
  3 93  1  0  0  0
  4  5  1  0  0  0
  4 94  1  0  0  0
  4 95  1  0  0  0
  5  6  1  0  0  0
  5 26  1  0  0  0
  5 96  1  0  0  0
  6 25  1  0  0  0
  6 97  1  0  0  0
  6 98  1  0  0  0
  7  8  2  0  0  0
  7 26  1  0  0  0
  7 29  1  0  0  0
  8  9  1  0  0  0
  8 22  1  0  0  0
  9 10  1  0  0  0
  9 27  2  0  0  0
 10 11  2  0  0  0
 10 15  1  0  0  0
 11 12  1  0  0  0
 11 99  1  0  0  0
 12 13  2  0  0  0
 12100  1  0  0  0
 13 14  1  0  0  0
 13 31  1  0  0  0
 14 15  2  0  0  0
 14101  1  0  0  0
 15102  1  0  0  0
 16 17  2  0  0  0
 16 21  1  0  0  0
 16 31  1  0  0  0
 17 18  1  0  0  0
 17103  1  0  0  0
 18 19  2  0  0  0
 18104  1  0  0  0
 19 20  1  0  0  0
 19 24  1  0  0  0
 20 21  2  0  0  0
 20105  1  0  0  0
 21 23  1  0  0  0
 22 28  1  0  0  0
 22 32  2  0  0  0
 26 27  1  0  0  0
 28106  1  0  0  0
 28107  1  0  0  0
 29108  1  0  0  0
 29109  1  0  0  0
 33 34  1  0  0  0
 33 66  1  0  0  0
 33 70  2  0  0  0
 34 36  1  0  0  0
 34 59  1  0  0  0
 34110  1  0  0  0
 35 44  2  0  0  0
 35 45  1  0  0  0
 35 68  1  0  0  0
 36 56  1  0  0  0
 36111  1  0  0  0
 37 39  1  0  0  0
 37 47  1  0  0  0
 37 66  1  0  0  0
 37112  1  0  0  0
 38 43  2  0  0  0
 38 46  1  0  0  0
 38 47  1  0  0  0
 39 64  1  0  0  0
 39 67  2  0  0  0
 40 52  1  0  0  0
 40 53  2  0  0  0
 40 58  1  0  0  0
 41113  1  0  0  0
 41114  1  0  0  0
 41115  1  0  0  0
 41 48  1  0  0  0
 42 43  1  0  0  0
 42 66  1  0  0  0
 42116  1  0  0  0
 42117  1  0  0  0
 43 44  1  0  0  0
 44118  1  0  0  0
 45 46  2  0  0  0
 45119  1  0  0  0
 46120  1  0  0  0
 47121  1  0  0  0
 47122  1  0  0  0
 48 56  1  0  0  0
 48 65  1  0  0  0
 48123  1  0  0  0
 49 50  1  0  0  0
 49 53  1  0  0  0
 49 64  1  0  0  0
 49124  1  0  0  0
 50 51  1  0  0  0
 50125  1  0  0  0
 50126  1  0  0  0
 51 52  1  0  0  0
 51127  1  0  0  0
 51128  1  0  0  0
 52129  1  0  0  0
 52130  1  0  0  0
 53 54  1  0  0  0
 54 55  2  0  0  0
 54131  1  0  0  0
 55 57  1  0  0  0
 55132  1  0  0  0
 56 69  2  0  0  0
 57 58  2  0  0  0
 57133  1  0  0  0
 58134  1  0  0  0
 59 60  1  0  0  0
 59 61  1  0  0  0
 59 62  1  0  0  0
 60135  1  0  0  0
 60136  1  0  0  0
 60137  1  0  0  0
 61138  1  0  0  0
 61139  1  0  0  0
 61140  1  0  0  0
 62141  1  0  0  0
 62142  1  0  0  0
 62143  1  0  0  0
 63 65  1  0  0  0
 63144  1  0  0  0
 63145  1  0  0  0
 63146  1  0  0  0
 64147  1  0  0  0
 65148  1  0  0  0
 68 87  1  0  0  0
 71 73  2  0  0  0
 71 74  1  0  0  0
 71149  1  0  0  0
 72 73  1  0  0  0
 72 76  2  0  0  0
 72150  1  0  0  0
 73 82  1  0  0  0
 74 75  2  0  0  0
 74 80  1  0  0  0
 75 76  1  0  0  0
 75 83  1  0  0  0
 76 89  1  0  0  0
 77 78  1  0  0  0
 77 79  1  0  0  0
 77151  1  0  0  0
 77152  1  0  0  0
 78 79  1  0  0  0
 78153  1  0  0  0
 78154  1  0  0  0
 79 88  1  0  0  0
 79155  1  0  0  0
 80156  1  0  0  0
 80157  1  0  0  0
 80158  1  0  0  0
 81 84  1  0  0  0
 81159  1  0  0  0
 81160  1  0  0  0
 81161  1  0  0  0
 82 85  1  0  0  0
 82162  1  0  0  0
 82163  1  0  0  0
 83 88  1  0  0  0
 83164  1  0  0  0
 83165  1  0  0  0
 84 86  1  0  0  0
 84166  1  0  0  0
 84167  1  0  0  0
 85 87  1  0  0  0
 85168  1  0  0  0
 85169  1  0  0  0
 86 89  1  0  0  0
 86170  1  0  0  0
 86171  1  0  0  0
 87172  1  0  0  0
 87173  1  0  0  0
M  ISO  4   1 100  68 101  87 101  88 100
M  END
> <chiral flag>
0

> <version>
0

> <s_m_source_file>
/data/baiqing/PycharmProjects/Reinvent-master-3.2/result/LINK_invent/BTK/process_docking_weight1_custom_sum_contain_oxygen_bond_distance_aromatic_linkinvent_7_9_3/rearranged_h_0138.sdf

> <i_m_source_file_index>
19

> <r_mmod_Potential_Energy-OPLS-2005>
350.353332519531

> <r_mmod_Stretch_Energy-OPLS-2005>
80.5715179443359

> <r_mmod_Bend_Energy-OPLS-2005>
174.041305541992

> <r_mmod_Torsional_Energy-OPLS-2005>
370.663177490234

> <r_mmod_Improper_Torsional_Energy-OPLS-2005>
5.57426452636719

> <r_mmod_Van_der_Waal_Energy-OPLS-2005>
163.379959106445

> <r_mmod_Electrostatic_Energy-OPLS-2005>
-320.156005859375

> <r_mmod_Solvation_Energy-OPLS-2005>
-190.613525390625

> <b_mmod_Minimization_Converged-OPLS-2005>
0

> <r_mmod_RMS_Derivative-OPLS-2005>
4.2359356880188

$$$$
19
                    3D
 Structure written by MMmdl.
165173  0  0  1  0            999 V2000
  -30.7218  -14.4215   20.6435 C   0  0  0  0  0  0
  -30.4253  -12.3049   19.4035 C   0  0  0  0  0  0
  -29.4905  -12.5170   18.1961 C   0  0  0  0  0  0
  -28.0129  -12.3734   18.6106 C   0  0  0  0  0  0
  -27.6656  -13.2002   19.8774 C   0  0  2  0  0  0
  -28.7040  -12.9477   20.9925 C   0  0  0  0  0  0
  -25.2614  -13.8153   20.5669 C   0  0  0  0  0  0
  -24.1853  -13.0440   20.9163 C   0  0  0  0  0  0
  -24.6391  -11.6898   20.8717 C   0  0  0  0  0  0
  -23.9057  -10.4291   21.0400 C   0  0  0  0  0  0
  -24.3614   -9.4212   21.9180 C   0  0  0  0  0  0
  -23.6290   -8.2248   22.0755 C   0  0  0  0  0  0
  -22.4273   -8.0284   21.3545 C   0  0  0  0  0  0
  -21.9903   -9.0256   20.4646 C   0  0  0  0  0  0
  -22.7230  -10.2135   20.3051 C   0  0  0  0  0  0
  -21.6855   -6.0736   22.5277 C   0  0  0  0  0  0
  -21.4015   -6.5640   23.8212 C   0  0  0  0  0  0
  -21.3655   -5.6792   24.9171 C   0  0  0  0  0  0
  -21.6046   -4.3055   24.7223 C   0  0  0  0  0  0
  -21.8821   -3.8147   23.4344 C   0  0  0  0  0  0
  -21.9194   -4.6962   22.3401 C   0  0  0  0  0  0
  -22.7882  -13.5253   21.1830 C   0  0  0  0  0  0
  -22.1662   -4.2148   21.0979 F   0  0  0  0  0  0
  -21.5627   -3.4538   25.7736 F   0  0  0  0  0  0
  -30.0398  -13.2606   20.4526 N   0  0  0  0  0  0
  -26.3040  -12.9304   20.3356 N   0  0  0  0  0  0
  -25.9315  -11.6470   20.5747 N   0  0  0  0  0  0
  -22.0520  -12.8245   22.0384 N   0  0  0  0  0  0
  -25.4363  -15.1862   20.4079 N   0  0  0  0  0  0
  -31.7923  -14.6759   20.0846 O   0  0  0  0  0  0
  -21.6641   -6.8877   21.4239 O   0  0  0  0  0  0
  -22.3569  -14.5559   20.6678 O   0  0  0  0  0  0
  -24.6154  -31.8669   23.2080 C   0  0  0  0  0  0
  -25.9046  -32.4815   23.8379 C   0  0  1  0  0  0
  -27.2339  -27.4384   20.1001 C   0  0  0  0  0  0
  -25.5907  -33.8614   24.2314 N   0  0  0  0  0  0
  -23.4023  -30.4909   21.5476 C   0  0  2  0  0  0
  -24.8480  -28.9547   20.1144 C   0  0  0  0  0  0
  -22.7409  -29.4658   22.4980 C   0  0  0  0  0  0
  -18.0270  -28.1362   22.8472 C   0  0  0  0  0  0
  -24.1496  -36.7303   23.2643 C   0  0  0  0  0  0
  -25.9304  -30.8363   21.3581 C   0  0  0  0  0  0
  -26.0073  -29.4711   20.7059 C   0  0  0  0  0  0
  -27.2063  -28.7237   20.6873 C   0  0  0  0  0  0
  -26.0583  -26.9311   19.5067 C   0  0  0  0  0  0
  -24.8690  -27.6853   19.5101 C   0  0  0  0  0  0
  -23.6087  -29.8202   20.1631 C   0  0  0  0  0  0
  -25.4114  -36.3114   24.0344 C   0  0  1  0  0  0
  -20.5858  -28.3646   23.1311 C   0  0  2  0  0  0
  -20.6772  -26.9383   22.5410 C   0  0  0  0  0  0
  -19.5760  -26.6365   21.5201 C   0  0  0  0  0  0
  -18.1930  -26.7906   22.1603 C   0  0  0  0  0  0
  -19.1518  -28.8817   23.2887 C   0  0  0  0  0  0
  -18.9454  -30.1422   23.8892 C   0  0  0  0  0  0
  -17.6462  -30.6570   24.0561 C   0  0  0  0  0  0
  -25.9038  -34.9480   23.5126 C   0  0  0  0  0  0
  -16.5349  -29.9074   23.6330 C   0  0  0  0  0  0
  -16.7259  -28.6496   23.0339 C   0  0  0  0  0  0
  -26.4469  -31.6598   25.0706 C   0  0  0  0  0  0
  -25.3735  -31.3709   26.1457 C   0  0  0  0  0  0
  -27.0297  -30.3050   24.6060 C   0  0  0  0  0  0
  -27.6042  -32.4313   25.7470 C   0  0  0  0  0  0
  -27.5582  -37.1807   24.8469 C   0  0  0  0  0  0
  -21.4136  -29.3024   22.3723 N   0  0  0  0  0  0
  -26.4300  -37.3792   23.9412 N   0  0  0  0  0  0
  -24.6671  -31.0799   22.0959 N   0  0  0  0  0  0
  -23.4187  -28.8204   23.3022 O   0  0  0  0  0  0
  -28.4030  -26.7118   20.0967 O   0  0  0  0  0  0
  -26.5599  -34.8939   22.4689 O   0  0  0  0  0  0
  -23.5350  -32.1395   23.7499 O   0  0  0  0  0  0
  -26.7660  -21.2016   22.1853 C   0  0  0  0  0  0
  -27.2272  -22.2150   21.3237 C   0  0  0  0  0  0
  -29.3223  -21.0158   21.0756 C   0  0  0  0  0  0
  -27.5781  -20.0955   22.5264 C   0  0  0  0  0  0
  -28.8736  -19.9955   21.9490 C   0  0  0  0  0  0
  -28.5240  -22.1428   20.7675 C   0  0  0  0  0  0
  -25.8325  -18.2923   22.9285 C   0  0  0  0  0  0
  -26.6661  -19.7000   24.8681 C   0  0  0  0  0  0
  -29.5481  -17.7278   21.4634 C   0  0  0  0  0  0
  -30.5923  -16.6434   21.8118 C   0  0  0  0  0  0
  -28.3299  -25.3819   20.6380 C   0  0  0  0  0  0
  -28.3070  -24.2662   19.5653 C   0  0  0  0  0  0
  -27.0273  -19.0602   23.5158 C   0  0  0  0  0  0
  -29.7464  -18.9383   22.2571 N   0  0  0  0  0  0
  -30.1219  -15.3036   21.4583 N   0  0  0  0  0  0
  -29.0685  -23.1079   19.9384 O   0  0  0  0  0  0
  -31.4671  -12.4176   19.0993 H   0  0  0  0  0  0
  -30.3375  -11.2851   19.7806 H   0  0  0  0  0  0
  -29.7276  -11.8010   17.4079 H   0  0  0  0  0  0
  -29.6573  -13.5077   17.7695 H   0  0  0  0  0  0
  -27.8215  -11.3155   18.7943 H   0  0  0  0  0  0
  -27.3612  -12.6594   17.7845 H   0  0  0  0  0  0
  -27.7213  -14.2530   19.5995 H   0  0  0  0  0  0
  -28.6779  -11.9009   21.3001 H   0  0  0  0  0  0
  -28.4498  -13.5120   21.8903 H   0  0  0  0  0  0
  -25.2764   -9.5689   22.4743 H   0  0  0  0  0  0
  -24.0001   -7.4643   22.7475 H   0  0  0  0  0  0
  -21.0835   -8.8772   19.8953 H   0  0  0  0  0  0
  -22.3693  -10.9671   19.6154 H   0  0  0  0  0  0
  -21.2007   -7.6147   23.9712 H   0  0  0  0  0  0
  -21.1474   -6.0523   25.9075 H   0  0  0  0  0  0
  -22.0605   -2.7607   23.2845 H   0  0  0  0  0  0
  -22.4131  -11.9901   22.4762 H   0  0  0  0  0  0
  -21.1134  -13.1266   22.2579 H   0  0  0  0  0  0
  -24.6733  -15.8445   20.5200 H   0  0  0  0  0  0
  -26.2939  -15.6223   20.0952 H   0  0  0  0  0  0
  -26.7112  -32.5523   23.1130 H   0  0  0  0  0  0
  -25.0095  -33.9769   25.0494 H   0  0  0  0  0  0
  -22.6908  -31.3072   21.4083 H   0  0  0  0  0  0
  -23.3762  -35.9633   23.3311 H   0  0  0  0  0  0
  -24.3590  -36.8905   22.2056 H   0  0  0  0  0  0
  -23.7251  -37.6514   23.6640 H   0  0  0  0  0  0
  -26.0436  -31.6025   20.5907 H   0  0  0  0  0  0
  -26.8183  -30.8874   21.9760 H   0  0  0  0  0  0
  -28.1056  -29.1234   21.1348 H   0  0  0  0  0  0
  -26.0572  -25.9616   19.0309 H   0  0  0  0  0  0
  -23.9787  -27.2815   19.0484 H   0  0  0  0  0  0
  -23.7144  -30.5933   19.4009 H   0  0  0  0  0  0
  -22.7327  -29.2369   19.8713 H   0  0  0  0  0  0
  -25.1296  -36.1973   25.0836 H   0  0  0  0  0  0
  -20.9937  -28.3199   24.1437 H   0  0  0  0  0  0
  -20.5684  -26.2249   23.3597 H   0  0  0  0  0  0
  -21.6644  -26.7435   22.1198 H   0  0  0  0  0  0
  -19.6944  -25.6283   21.1209 H   0  0  0  0  0  0
  -19.6707  -27.3201   20.6758 H   0  0  0  0  0  0
  -17.4210  -26.6643   21.3997 H   0  0  0  0  0  0
  -18.0323  -26.0039   22.8990 H   0  0  0  0  0  0
  -19.7936  -30.7224   24.2262 H   0  0  0  0  0  0
  -17.5033  -31.6256   24.5148 H   0  0  0  0  0  0
  -15.5352  -30.2994   23.7661 H   0  0  0  0  0  0
  -15.8652  -28.0833   22.7054 H   0  0  0  0  0  0
  -24.5908  -30.7054   25.7799 H   0  0  0  0  0  0
  -24.8926  -32.2876   26.4887 H   0  0  0  0  0  0
  -25.8083  -30.8891   27.0226 H   0  0  0  0  0  0
  -26.2834  -29.6815   24.1122 H   0  0  0  0  0  0
  -27.4111  -29.7273   25.4488 H   0  0  0  0  0  0
  -27.8640  -30.4389   23.9173 H   0  0  0  0  0  0
  -27.2651  -33.3603   26.2061 H   0  0  0  0  0  0
  -28.3830  -32.6881   25.0282 H   0  0  0  0  0  0
  -28.0725  -31.8439   26.5373 H   0  0  0  0  0  0
  -28.2603  -38.0104   24.7513 H   0  0  0  0  0  0
  -28.1074  -36.2631   24.6284 H   0  0  0  0  0  0
  -27.2304  -37.1451   25.8878 H   0  0  0  0  0  0
  -20.9303  -29.8733   21.6927 H   0  0  0  0  0  0
  -26.0189  -38.2879   24.1396 H   0  0  0  0  0  0
  -25.7715  -21.2872   22.5998 H   0  0  0  0  0  0
  -26.5651  -23.0414   21.1134 H   0  0  0  0  0  0
  -30.3146  -20.9474   20.6522 H   0  0  0  0  0  0
  -26.1064  -17.7937   21.9989 H   0  0  0  0  0  0
  -24.9913  -18.9520   22.7165 H   0  0  0  0  0  0
  -25.4819  -17.5238   23.6181 H   0  0  0  0  0  0
  -27.5297  -20.2014   25.3061 H   0  0  0  0  0  0
  -26.3315  -18.9471   25.5820 H   0  0  0  0  0  0
  -25.8662  -20.4349   24.7774 H   0  0  0  0  0  0
  -28.5453  -17.3461   21.6644 H   0  0  0  0  0  0
  -29.5841  -17.9588   20.3969 H   0  0  0  0  0  0
  -30.7745  -16.6293   22.8874 H   0  0  0  0  0  0
  -31.5504  -16.8804   21.3449 H   0  0  0  0  0  0
  -29.2329  -25.2613   21.2364 H   0  0  0  0  0  0
  -27.5019  -25.2684   21.3391 H   0  0  0  0  0  0
  -28.7944  -24.6503   18.6689 H   0  0  0  0  0  0
  -27.2941  -24.0135   19.2519 H   0  0  0  0  0  0
  -27.7957  -18.3199   23.7316 H   0  0  0  0  0  0
  -29.7267  -18.7165   23.2488 H   0  0  0  0  0  0
  -29.2551  -15.0007   21.8758 H   0  0  0  0  0  0
  1 25  1  0  0  0
  1 30  2  0  0  0
  1 85  1  0  0  0
  2  3  1  0  0  0
  2 25  1  0  0  0
  2 87  1  0  0  0
  2 88  1  0  0  0
  3  4  1  0  0  0
  3 89  1  0  0  0
  3 90  1  0  0  0
  4  5  1  0  0  0
  4 91  1  0  0  0
  4 92  1  0  0  0
  5  6  1  0  0  0
  5 26  1  0  0  0
  5 93  1  0  0  0
  6 25  1  0  0  0
  6 94  1  0  0  0
  6 95  1  0  0  0
  7  8  2  0  0  0
  7 26  1  0  0  0
  7 29  1  0  0  0
  8  9  1  0  0  0
  8 22  1  0  0  0
  9 10  1  0  0  0
  9 27  2  0  0  0
 10 11  2  0  0  0
 10 15  1  0  0  0
 11 12  1  0  0  0
 11 96  1  0  0  0
 12 13  2  0  0  0
 12 97  1  0  0  0
 13 14  1  0  0  0
 13 31  1  0  0  0
 14 15  2  0  0  0
 14 98  1  0  0  0
 15 99  1  0  0  0
 16 17  2  0  0  0
 16 21  1  0  0  0
 16 31  1  0  0  0
 17 18  1  0  0  0
 17100  1  0  0  0
 18 19  2  0  0  0
 18101  1  0  0  0
 19 20  1  0  0  0
 19 24  1  0  0  0
 20 21  2  0  0  0
 20102  1  0  0  0
 21 23  1  0  0  0
 22 28  1  0  0  0
 22 32  2  0  0  0
 26 27  1  0  0  0
 28103  1  0  0  0
 28104  1  0  0  0
 29105  1  0  0  0
 29106  1  0  0  0
 33 34  1  0  0  0
 33 66  1  0  0  0
 33 70  2  0  0  0
 34 36  1  0  0  0
 34 59  1  0  0  0
 34107  1  0  0  0
 35 44  2  0  0  0
 35 45  1  0  0  0
 35 68  1  0  0  0
 36 56  1  0  0  0
 36108  1  0  0  0
 37 39  1  0  0  0
 37 47  1  0  0  0
 37 66  1  0  0  0
 37109  1  0  0  0
 38 43  2  0  0  0
 38 46  1  0  0  0
 38 47  1  0  0  0
 39 64  1  0  0  0
 39 67  2  0  0  0
 40 52  1  0  0  0
 40 53  2  0  0  0
 40 58  1  0  0  0
 41110  1  0  0  0
 41111  1  0  0  0
 41112  1  0  0  0
 41 48  1  0  0  0
 42 43  1  0  0  0
 42 66  1  0  0  0
 42113  1  0  0  0
 42114  1  0  0  0
 43 44  1  0  0  0
 44115  1  0  0  0
 45 46  2  0  0  0
 45116  1  0  0  0
 46117  1  0  0  0
 47118  1  0  0  0
 47119  1  0  0  0
 48 56  1  0  0  0
 48 65  1  0  0  0
 48120  1  0  0  0
 49 50  1  0  0  0
 49 53  1  0  0  0
 49 64  1  0  0  0
 49121  1  0  0  0
 50 51  1  0  0  0
 50122  1  0  0  0
 50123  1  0  0  0
 51 52  1  0  0  0
 51124  1  0  0  0
 51125  1  0  0  0
 52126  1  0  0  0
 52127  1  0  0  0
 53 54  1  0  0  0
 54 55  2  0  0  0
 54128  1  0  0  0
 55 57  1  0  0  0
 55129  1  0  0  0
 56 69  2  0  0  0
 57 58  2  0  0  0
 57130  1  0  0  0
 58131  1  0  0  0
 59 60  1  0  0  0
 59 61  1  0  0  0
 59 62  1  0  0  0
 60132  1  0  0  0
 60133  1  0  0  0
 60134  1  0  0  0
 61135  1  0  0  0
 61136  1  0  0  0
 61137  1  0  0  0
 62138  1  0  0  0
 62139  1  0  0  0
 62140  1  0  0  0
 63 65  1  0  0  0
 63141  1  0  0  0
 63142  1  0  0  0
 63143  1  0  0  0
 64144  1  0  0  0
 65145  1  0  0  0
 68 81  1  0  0  0
 71 72  2  0  0  0
 71 74  1  0  0  0
 71146  1  0  0  0
 72 76  1  0  0  0
 72147  1  0  0  0
 73 75  1  0  0  0
 73 76  2  0  0  0
 73148  1  0  0  0
 74 75  2  0  0  0
 74 83  1  0  0  0
 75 84  1  0  0  0
 76 86  1  0  0  0
 77149  1  0  0  0
 77150  1  0  0  0
 77151  1  0  0  0
 77 83  1  0  0  0
 78 83  1  0  0  0
 78152  1  0  0  0
 78153  1  0  0  0
 78154  1  0  0  0
 79 80  1  0  0  0
 79 84  1  0  0  0
 79155  1  0  0  0
 79156  1  0  0  0
 80 85  1  0  0  0
 80157  1  0  0  0
 80158  1  0  0  0
 81 82  1  0  0  0
 81159  1  0  0  0
 81160  1  0  0  0
 82 86  1  0  0  0
 82161  1  0  0  0
 82162  1  0  0  0
 83163  1  0  0  0
 84164  1  0  0  0
 85165  1  0  0  0
M  ISO  4   1 100  68 101  81 101  85 100
M  END
> <chiral flag>
0

> <version>
0

> <s_m_source_file>
/data/baiqing/PycharmProjects/Reinvent-master-3.2/result/LINK_invent/BTK/process_docking_weight1_custom_sum_contain_oxygen_bond_distance_aromatic_linkinvent_7_9_3/rearranged_h_0138.sdf

> <i_m_source_file_index>
20

> <r_mmod_Potential_Energy-OPLS-2005>
-103.998336791992

> <r_mmod_Stretch_Energy-OPLS-2005>
37.2906188964844

> <r_mmod_Bend_Energy-OPLS-2005>
105.817672729492

> <r_mmod_Torsional_Energy-OPLS-2005>
222.933929443359

> <r_mmod_Improper_Torsional_Energy-OPLS-2005>
7.3531289100647

> <r_mmod_Van_der_Waal_Energy-OPLS-2005>
151.181869506836

> <r_mmod_Electrostatic_Energy-OPLS-2005>
-415.529846191406

> <r_mmod_Solvation_Energy-OPLS-2005>
-222.047988891602

> <b_mmod_Minimization_Converged-OPLS-2005>
0

> <r_mmod_RMS_Derivative-OPLS-2005>
1.61789107322693

$$$$
20
                    3D
 Structure written by MMmdl.
162171  0  0  1  0            999 V2000
  -30.5695  -14.9698   20.4445 C   0  0  0  0  0  0
  -30.4498  -12.5801   19.5256 C   0  0  0  0  0  0
  -29.5387  -12.5439   18.2741 C   0  0  0  0  0  0
  -28.0713  -12.3156   18.6878 C   0  0  0  0  0  0
  -27.6382  -13.2424   19.8534 C   0  0  2  0  0  0
  -28.6686  -13.2804   21.0064 C   0  0  0  0  0  0
  -25.2526  -13.8190   20.5663 C   0  0  0  0  0  0
  -24.1824  -13.0428   20.9174 C   0  0  0  0  0  0
  -24.6422  -11.6912   20.8742 C   0  0  0  0  0  0
  -23.9085  -10.4307   21.0398 C   0  0  0  0  0  0
  -24.3637   -9.4222   21.9184 C   0  0  0  0  0  0
  -23.6318   -8.2258   22.0754 C   0  0  0  0  0  0
  -22.4298   -8.0291   21.3535 C   0  0  0  0  0  0
  -21.9929   -9.0259   20.4648 C   0  0  0  0  0  0
  -22.7242  -10.2146   20.3054 C   0  0  0  0  0  0
  -21.6886   -6.0742   22.5273 C   0  0  0  0  0  0
  -21.4016   -6.5651   23.8204 C   0  0  0  0  0  0
  -21.3669   -5.6798   24.9165 C   0  0  0  0  0  0
  -21.6057   -4.3061   24.7227 C   0  0  0  0  0  0
  -21.8828   -3.8153   23.4346 C   0  0  0  0  0  0
  -21.9199   -4.6975   22.3401 C   0  0  0  0  0  0
  -22.7862  -13.5226   21.1845 C   0  0  0  0  0  0
  -22.1671   -4.2165   21.0981 F   0  0  0  0  0  0
  -21.5645   -3.4546   25.7743 F   0  0  0  0  0  0
  -29.9597  -13.6598   20.4305 N   0  0  0  0  0  0
  -26.2942  -12.9389   20.3280 N   0  0  0  0  0  0
  -25.9364  -11.6537   20.5796 N   0  0  0  0  0  0
  -22.0480  -12.8205   22.0386 N   0  0  0  0  0  0
  -25.4246  -15.1908   20.4099 N   0  0  0  0  0  0
  -31.7065  -15.1037   19.9916 O   0  0  0  0  0  0
  -21.6666   -6.8883   21.4233 O   0  0  0  0  0  0
  -22.3571  -14.5531   20.6694 O   0  0  0  0  0  0
  -24.6474  -31.8371   23.1864 C   0  0  0  0  0  0
  -25.9231  -32.4660   23.8259 C   0  0  1  0  0  0
  -27.2157  -27.0830   20.1629 C   0  0  0  0  0  0
  -25.5962  -33.8478   24.2170 N   0  0  0  0  0  0
  -23.4540  -30.4541   21.5316 C   0  0  2  0  0  0
  -24.9063  -28.8746   20.1091 C   0  0  0  0  0  0
  -22.7595  -29.4495   22.4856 C   0  0  0  0  0  0
  -18.0305  -28.1399   22.8471 C   0  0  0  0  0  0
  -24.1497  -36.7237   23.2647 C   0  0  0  0  0  0
  -26.0137  -30.6922   21.3941 C   0  0  0  0  0  0
  -26.0839  -29.2995   20.7369 C   0  0  0  0  0  0
  -27.2356  -28.4193   20.7491 C   0  0  0  0  0  0
  -26.0145  -26.7773   19.4831 C   0  0  0  0  0  0
  -24.8873  -27.6287   19.4664 C   0  0  0  0  0  0
  -23.6840  -29.7805   20.1513 C   0  0  0  0  0  0
  -25.4132  -36.3009   24.0314 C   0  0  1  0  0  0
  -20.5919  -28.3712   23.1231 C   0  0  2  0  0  0
  -20.6775  -26.9405   22.5398 C   0  0  0  0  0  0
  -19.5753  -26.6374   21.5208 C   0  0  0  0  0  0
  -18.1941  -26.7932   22.1618 C   0  0  0  0  0  0
  -19.1557  -28.8880   23.2841 C   0  0  0  0  0  0
  -18.9479  -30.1487   23.8853 C   0  0  0  0  0  0
  -17.6470  -30.6592   24.0555 C   0  0  0  0  0  0
  -25.9075  -34.9385   23.5054 C   0  0  0  0  0  0
  -16.5363  -29.9075   23.6350 C   0  0  0  0  0  0
  -16.7283  -28.6499   23.0357 C   0  0  0  0  0  0
  -26.4543  -31.6550   25.0727 C   0  0  0  0  0  0
  -25.3716  -31.3758   26.1416 C   0  0  0  0  0  0
  -27.0429  -30.2938   24.6360 C   0  0  0  0  0  0
  -27.6061  -32.4344   25.7517 C   0  0  0  0  0  0
  -27.5576  -37.1775   24.8467 C   0  0  0  0  0  0
  -21.4272  -29.3030   22.3606 N   0  0  0  0  0  0
  -26.4283  -37.3728   23.9417 N   0  0  0  0  0  0
  -24.7257  -31.0177   22.0919 N   0  0  0  0  0  0
  -23.4218  -28.8041   23.3019 O   0  0  0  0  0  0
  -28.2436  -26.0598   20.2785 O   0  0  0  0  0  0
  -26.5667  -34.8889   22.4641 O   0  0  0  0  0  0
  -23.5582  -32.1271   23.7054 O   0  0  0  0  0  0
  -29.9466  -20.9120   21.9908 C   0  0  0  0  0  0
  -28.8520  -21.7995   20.0292 C   0  0  0  0  0  0
  -29.3067  -23.3158   21.8659 C   0  0  0  0  0  0
  -29.4594  -20.6013   20.6996 C   0  0  0  0  0  0
  -29.8811  -22.2158   22.5538 C   0  0  0  0  0  0
  -28.7577  -23.1950   20.5754 C   0  0  0  0  0  0
  -29.9934  -19.1546   18.5721 C   0  0  0  0  0  0
  -28.7701  -17.1565   18.9390 C   0  0  0  0  0  0
  -29.8762  -19.0815   20.1081 C   0  0  2  0  0  0
  -29.2394  -17.5172   20.3538 C   0  0  2  0  0  0
  -29.5694  -21.8650   25.0448 C   0  0  0  0  0  0
  -30.4629  -22.4421   23.9410 C   0  0  0  0  0  0
  -28.0020  -24.5376   19.9353 C   0  0  0  0  0  0
  -29.7190  -17.8167   18.0289 N   0  3  0  0  0  0
  -29.7533  -16.1642   20.9703 O   0  0  0  0  0  0
  -31.4912  -12.7276   19.2357 H   0  0  0  0  0  0
  -30.4259  -11.6198   20.0408 H   0  0  0  0  0  0
  -29.8702  -11.7586   17.5924 H   0  0  0  0  0  0
  -29.6228  -13.4862   17.7298 H   0  0  0  0  0  0
  -27.9737  -11.2720   18.9884 H   0  0  0  0  0  0
  -27.4055  -12.4426   17.8337 H   0  0  0  0  0  0
  -27.6045  -14.2437   19.4308 H   0  0  0  0  0  0
  -28.7439  -12.3105   21.4989 H   0  0  0  0  0  0
  -28.3735  -13.9975   21.7737 H   0  0  0  0  0  0
  -25.2789   -9.5725   22.4747 H   0  0  0  0  0  0
  -24.0061   -7.4665   22.7476 H   0  0  0  0  0  0
  -21.0864   -8.8756   19.8961 H   0  0  0  0  0  0
  -22.3689  -10.9671   19.6174 H   0  0  0  0  0  0
  -21.1977   -7.6152   23.9697 H   0  0  0  0  0  0
  -21.1492   -6.0535   25.9064 H   0  0  0  0  0  0
  -22.0592   -2.7616   23.2841 H   0  0  0  0  0  0
  -22.4109  -11.9880   22.4804 H   0  0  0  0  0  0
  -21.1093  -13.1223   22.2564 H   0  0  0  0  0  0
  -24.6597  -15.8450   20.5232 H   0  0  0  0  0  0
  -26.2819  -15.6226   20.0913 H   0  0  0  0  0  0
  -26.7291  -32.5241   23.0969 H   0  0  0  0  0  0
  -25.0071  -33.9578   25.0291 H   0  0  0  0  0  0
  -22.7592  -31.2818   21.3733 H   0  0  0  0  0  0
  -23.3756  -35.9563   23.3281 H   0  0  0  0  0  0
  -24.3564  -36.8899   22.2060 H   0  0  0  0  0  0
  -23.7234  -37.6427   23.6697 H   0  0  0  0  0  0
  -26.1737  -31.4431   20.6206 H   0  0  0  0  0  0
  -26.8818  -30.7448   22.0387 H   0  0  0  0  0  0
  -28.1267  -28.7311   21.2743 H   0  0  0  0  0  0
  -25.9010  -25.8279   18.9809 H   0  0  0  0  0  0
  -23.9888  -27.2997   18.9618 H   0  0  0  0  0  0
  -23.8244  -30.5523   19.3946 H   0  0  0  0  0  0
  -22.7982  -29.2230   19.8423 H   0  0  0  0  0  0
  -25.1315  -36.1823   25.0798 H   0  0  0  0  0  0
  -20.9999  -28.3288   24.1364 H   0  0  0  0  0  0
  -20.5663  -26.2324   23.3616 H   0  0  0  0  0  0
  -21.6645  -26.7409   22.1205 H   0  0  0  0  0  0
  -19.6908  -25.6280   21.1268 H   0  0  0  0  0  0
  -19.6701  -27.3163   20.6723 H   0  0  0  0  0  0
  -17.4208  -26.6686   21.4026 H   0  0  0  0  0  0
  -18.0334  -26.0078   22.9017 H   0  0  0  0  0  0
  -19.7954  -30.7330   24.2182 H   0  0  0  0  0  0
  -17.5017  -31.6273   24.5159 H   0  0  0  0  0  0
  -15.5360  -30.2962   23.7705 H   0  0  0  0  0  0
  -15.8678  -28.0813   22.7081 H   0  0  0  0  0  0
  -24.5886  -30.7116   25.7733 H   0  0  0  0  0  0
  -24.8925  -32.2952   26.4801 H   0  0  0  0  0  0
  -25.7985  -30.8951   27.0225 H   0  0  0  0  0  0
  -26.3073  -29.6642   24.1347 H   0  0  0  0  0  0
  -27.3986  -29.7264   25.4970 H   0  0  0  0  0  0
  -27.9001  -30.4161   23.9736 H   0  0  0  0  0  0
  -27.2627  -33.3651   26.2048 H   0  0  0  0  0  0
  -28.3897  -32.6896   25.0370 H   0  0  0  0  0  0
  -28.0703  -31.8512   26.5474 H   0  0  0  0  0  0
  -28.2580  -38.0089   24.7517 H   0  0  0  0  0  0
  -28.1090  -36.2615   24.6284 H   0  0  0  0  0  0
  -27.2293  -37.1408   25.8872 H   0  0  0  0  0  0
  -20.9492  -29.8756   21.6789 H   0  0  0  0  0  0
  -26.0142  -38.2795   24.1422 H   0  0  0  0  0  0
  -30.4404  -20.1347   22.5598 H   0  0  0  0  0  0
  -28.4438  -21.6571   19.0388 H   0  0  0  0  0  0
  -29.2661  -24.2823   22.3484 H   0  0  0  0  0  0
  -30.9661  -19.5192   18.2447 H   0  0  0  0  0  0
  -29.2392  -19.8186   18.1521 H   0  0  0  0  0  0
  -27.7734  -17.5704   18.7747 H   0  0  0  0  0  0
  -28.7064  -16.0901   18.7283 H   0  0  0  0  0  0
  -30.9021  -18.9637   20.4648 H   0  0  0  0  0  0
  -28.3416  -17.6847   20.9497 H   0  0  0  0  0  0
  -30.0430  -21.9643   26.0233 H   0  0  0  0  0  0
  -29.3734  -20.8067   24.8807 H   0  0  0  0  0  0
  -28.6093  -22.3808   25.0834 H   0  0  0  0  0  0
  -30.6099  -23.5102   24.1133 H   0  0  0  0  0  0
  -31.4577  -21.9958   23.9889 H   0  0  0  0  0  0
  -26.9554  -24.3396   20.1580 H   0  0  0  0  0  0
  -28.0860  -24.4489   18.8523 H   0  0  0  0  0  0
  -30.5770  -17.2919   17.9871 H   0  0  0  0  0  0
  -29.3466  -17.8905   17.0938 H   0  0  0  0  0  0
  1 25  1  0  0  0
  1 30  2  0  0  0
  1 85  1  0  0  0
  2  3  1  0  0  0
  2 25  1  0  0  0
  2 86  1  0  0  0
  2 87  1  0  0  0
  3  4  1  0  0  0
  3 88  1  0  0  0
  3 89  1  0  0  0
  4  5  1  0  0  0
  4 90  1  0  0  0
  4 91  1  0  0  0
  5  6  1  0  0  0
  5 26  1  0  0  0
  5 92  1  0  0  0
  6 25  1  0  0  0
  6 93  1  0  0  0
  6 94  1  0  0  0
  7  8  2  0  0  0
  7 26  1  0  0  0
  7 29  1  0  0  0
  8  9  1  0  0  0
  8 22  1  0  0  0
  9 10  1  0  0  0
  9 27  2  0  0  0
 10 11  2  0  0  0
 10 15  1  0  0  0
 11 12  1  0  0  0
 11 95  1  0  0  0
 12 13  2  0  0  0
 12 96  1  0  0  0
 13 14  1  0  0  0
 13 31  1  0  0  0
 14 15  2  0  0  0
 14 97  1  0  0  0
 15 98  1  0  0  0
 16 17  2  0  0  0
 16 21  1  0  0  0
 16 31  1  0  0  0
 17 18  1  0  0  0
 17 99  1  0  0  0
 18 19  2  0  0  0
 18100  1  0  0  0
 19 20  1  0  0  0
 19 24  1  0  0  0
 20 21  2  0  0  0
 20101  1  0  0  0
 21 23  1  0  0  0
 22 28  1  0  0  0
 22 32  2  0  0  0
 26 27  1  0  0  0
 28102  1  0  0  0
 28103  1  0  0  0
 29104  1  0  0  0
 29105  1  0  0  0
 33 34  1  0  0  0
 33 66  1  0  0  0
 33 70  2  0  0  0
 34 36  1  0  0  0
 34 59  1  0  0  0
 34106  1  0  0  0
 35 44  2  0  0  0
 35 45  1  0  0  0
 35 68  1  0  0  0
 36 56  1  0  0  0
 36107  1  0  0  0
 37 39  1  0  0  0
 37 47  1  0  0  0
 37 66  1  0  0  0
 37108  1  0  0  0
 38 43  2  0  0  0
 38 46  1  0  0  0
 38 47  1  0  0  0
 39 64  1  0  0  0
 39 67  2  0  0  0
 40 52  1  0  0  0
 40 53  2  0  0  0
 40 58  1  0  0  0
 41109  1  0  0  0
 41110  1  0  0  0
 41111  1  0  0  0
 41 48  1  0  0  0
 42 43  1  0  0  0
 42 66  1  0  0  0
 42112  1  0  0  0
 42113  1  0  0  0
 43 44  1  0  0  0
 44114  1  0  0  0
 45 46  2  0  0  0
 45115  1  0  0  0
 46116  1  0  0  0
 47117  1  0  0  0
 47118  1  0  0  0
 48 56  1  0  0  0
 48 65  1  0  0  0
 48119  1  0  0  0
 49 50  1  0  0  0
 49 53  1  0  0  0
 49 64  1  0  0  0
 49120  1  0  0  0
 50 51  1  0  0  0
 50121  1  0  0  0
 50122  1  0  0  0
 51 52  1  0  0  0
 51123  1  0  0  0
 51124  1  0  0  0
 52125  1  0  0  0
 52126  1  0  0  0
 53 54  1  0  0  0
 54 55  2  0  0  0
 54127  1  0  0  0
 55 57  1  0  0  0
 55128  1  0  0  0
 56 69  2  0  0  0
 57 58  2  0  0  0
 57129  1  0  0  0
 58130  1  0  0  0
 59 60  1  0  0  0
 59 61  1  0  0  0
 59 62  1  0  0  0
 60131  1  0  0  0
 60132  1  0  0  0
 60133  1  0  0  0
 61134  1  0  0  0
 61135  1  0  0  0
 61136  1  0  0  0
 62137  1  0  0  0
 62138  1  0  0  0
 62139  1  0  0  0
 63 65  1  0  0  0
 63140  1  0  0  0
 63141  1  0  0  0
 63142  1  0  0  0
 64143  1  0  0  0
 65144  1  0  0  0
 68 83  1  0  0  0
 71 74  2  0  0  0
 71 75  1  0  0  0
 71145  1  0  0  0
 72 74  1  0  0  0
 72 76  2  0  0  0
 72146  1  0  0  0
 73 75  2  0  0  0
 73 76  1  0  0  0
 73147  1  0  0  0
 74 79  1  0  0  0
 75 82  1  0  0  0
 76 83  1  0  0  0
 77 79  1  0  0  0
 77 84  1  0  0  0
 77148  1  0  0  0
 77149  1  0  0  0
 78 80  1  0  0  0
 78 84  1  0  0  0
 78150  1  0  0  0
 78151  1  0  0  0
 79 80  1  0  0  0
 79152  1  0  0  0
 80 85  1  0  0  0
 80153  1  0  0  0
 81 82  1  0  0  0
 81154  1  0  0  0
 81155  1  0  0  0
 81156  1  0  0  0
 82157  1  0  0  0
 82158  1  0  0  0
 83159  1  0  0  0
 83160  1  0  0  0
 84161  1  0  0  0
 84162  1  0  0  0
M  CHG  1  84   1
M  ISO  4   1 100  68 101  83 101  85 100
M  END
> <chiral flag>
0

> <version>
0

> <s_m_source_file>
/data/baiqing/PycharmProjects/Reinvent-master-3.2/result/LINK_invent/BTK/process_docking_weight1_custom_sum_contain_oxygen_bond_distance_aromatic_linkinvent_7_9_3/rearranged_h_0138.sdf

> <i_m_source_file_index>
21

> <r_mmod_Potential_Energy-OPLS-2005>
582.457458496094

> <r_mmod_Stretch_Energy-OPLS-2005>
334.8291015625

> <r_mmod_Bend_Energy-OPLS-2005>
363.585479736328

> <r_mmod_Torsional_Energy-OPLS-2005>
264.741271972656

> <r_mmod_Improper_Torsional_Energy-OPLS-2005>
3.88615846633911

> <r_mmod_Van_der_Waal_Energy-OPLS-2005>
120.458023071289

> <r_mmod_Electrostatic_Energy-OPLS-2005>
-258.443878173828

> <r_mmod_Solvation_Energy-OPLS-2005>
-471.136322021484

> <b_mmod_Minimization_Converged-OPLS-2005>
0

> <r_mmod_RMS_Derivative-OPLS-2005>
3.82366991043091

$$$$
21
                    3D
 Structure written by MMmdl.
176185  0  0  1  0            999 V2000
  -30.7557  -14.3658   20.5551 C   0  0  0  0  0  0
  -30.4133  -12.2352   19.4140 C   0  0  0  0  0  0
  -29.4941  -12.4926   18.2044 C   0  0  0  0  0  0
  -28.0124  -12.3732   18.6096 C   0  0  0  0  0  0
  -27.6703  -13.2052   19.8779 C   0  0  2  0  0  0
  -28.7083  -12.9574   21.0013 C   0  0  0  0  0  0
  -25.2594  -13.8206   20.5617 C   0  0  0  0  0  0
  -24.1858  -13.0507   20.9194 C   0  0  0  0  0  0
  -24.6383  -11.6951   20.8756 C   0  0  0  0  0  0
  -23.9025  -10.4361   21.0402 C   0  0  0  0  0  0
  -24.3608   -9.4279   21.9175 C   0  0  0  0  0  0
  -23.6300   -8.2317   22.0749 C   0  0  0  0  0  0
  -22.4281   -8.0331   21.3542 C   0  0  0  0  0  0
  -21.9897   -9.0298   20.4639 C   0  0  0  0  0  0
  -22.7206  -10.2181   20.3043 C   0  0  0  0  0  0
  -21.6872   -6.0743   22.5274 C   0  0  0  0  0  0
  -21.4037   -6.5635   23.8206 C   0  0  0  0  0  0
  -21.3657   -5.6776   24.9156 C   0  0  0  0  0  0
  -21.6042   -4.3049   24.7194 C   0  0  0  0  0  0
  -21.8829   -3.8148   23.4322 C   0  0  0  0  0  0
  -21.9212   -4.6972   22.3376 C   0  0  0  0  0  0
  -22.7881  -13.5260   21.1842 C   0  0  0  0  0  0
  -22.1682   -4.2147   21.0963 F   0  0  0  0  0  0
  -21.5624   -3.4543   25.7716 F   0  0  0  0  0  0
  -30.0546  -13.2121   20.4484 N   0  0  0  0  0  0
  -26.3057  -12.9383   20.3352 N   0  0  0  0  0  0
  -25.9305  -11.6540   20.5779 N   0  0  0  0  0  0
  -22.0519  -12.8267   22.0374 N   0  0  0  0  0  0
  -25.4284  -15.1935   20.3941 N   0  0  0  0  0  0
  -31.8738  -14.5529   20.0710 O   0  0  0  0  0  0
  -21.6661   -6.8917   21.4237 O   0  0  0  0  0  0
  -22.3541  -14.5554   20.6632 O   0  0  0  0  0  0
  -24.6170  -31.8770   23.2214 C   0  0  0  0  0  0
  -25.9070  -32.4884   23.8492 C   0  0  1  0  0  0
  -27.1993  -27.4353   20.0727 C   0  0  0  0  0  0
  -25.5926  -33.8681   24.2415 N   0  0  0  0  0  0
  -23.4027  -30.5208   21.5597 C   0  0  2  0  0  0
  -24.8402  -29.0143   20.1137 C   0  0  0  0  0  0
  -22.7428  -29.4773   22.4968 C   0  0  0  0  0  0
  -18.0365  -28.1459   22.8405 C   0  0  0  0  0  0
  -24.1491  -36.7318   23.2636 C   0  0  0  0  0  0
  -25.9431  -30.8445   21.3810 C   0  0  0  0  0  0
  -26.0129  -29.4887   20.7138 C   0  0  0  0  0  0
  -27.1994  -28.7097   20.6928 C   0  0  0  0  0  0
  -25.9903  -27.0163   19.4485 C   0  0  0  0  0  0
  -24.8254  -27.7762   19.4792 C   0  0  0  0  0  0
  -23.6080  -29.8798   20.1692 C   0  0  0  0  0  0
  -25.4103  -36.3123   24.0349 C   0  0  1  0  0  0
  -20.5932  -28.3722   23.1369 C   0  0  2  0  0  0
  -20.6889  -26.9406   22.5609 C   0  0  0  0  0  0
  -19.5976  -26.6412   21.5286 C   0  0  0  0  0  0
  -18.2063  -26.8026   22.1509 C   0  0  0  0  0  0
  -19.1597  -28.8879   23.2908 C   0  0  0  0  0  0
  -18.9534  -30.1498   23.8894 C   0  0  0  0  0  0
  -17.6539  -30.6642   24.0561 C   0  0  0  0  0  0
  -25.9020  -34.9501   23.5148 C   0  0  0  0  0  0
  -16.5455  -29.9131   23.6324 C   0  0  0  0  0  0
  -16.7371  -28.6609   23.0258 C   0  0  0  0  0  0
  -26.4484  -31.6619   25.0799 C   0  0  0  0  0  0
  -25.3757  -31.3719   26.1552 C   0  0  0  0  0  0
  -27.0290  -30.3048   24.6164 C   0  0  0  0  0  0
  -27.6051  -32.4329   25.7570 C   0  0  0  0  0  0
  -27.5569  -37.1820   24.8460 C   0  0  0  0  0  0
  -21.4177  -29.3072   22.3671 N   0  0  0  0  0  0
  -26.4294  -37.3793   23.9394 N   0  0  0  0  0  0
  -24.6721  -31.0939   22.1097 N   0  0  0  0  0  0
  -23.4232  -28.8292   23.2990 O   0  0  0  0  0  0
  -28.3268  -26.6142   20.1128 O   0  0  0  0  0  0
  -26.5566  -34.8930   22.4697 O   0  0  0  0  0  0
  -23.5373  -32.1534   23.7608 O   0  0  0  0  0  0
  -28.5650  -19.0403   19.5594 C   0  0  0  0  0  0
  -26.9413  -23.1595   20.2934 C   0  0  0  0  0  0
  -27.1141  -24.5643   20.8532 C   0  0  0  0  0  0
  -29.1142  -24.1505   19.6462 C   0  0  0  0  0  0
  -28.0174  -19.6127   21.8831 C   0  0  0  0  0  0
  -30.3395  -18.1488   22.7973 C   0  0  0  0  0  0
  -28.1919  -22.9137   19.4068 C   0  0  2  0  0  0
  -28.0412  -25.2313   19.8164 C   0  0  2  0  0  0
  -29.4989  -17.7304   21.5442 C   0  0  2  0  0  0
  -28.7457  -19.9774   23.2050 C   0  0  2  0  0  0
  -28.5707  -21.4634   23.5796 C   0  0  0  0  0  0
  -26.6792  -20.4595   18.6521 C   0  0  0  0  0  0
  -30.3721  -16.7659   20.6868 C   0  0  0  0  0  0
  -28.2078  -20.4056   18.9207 C   0  0  1  0  0  0
  -28.8561  -18.9075   20.8877 N   0  0  0  0  0  0
  -30.0572  -15.3877   21.0356 N   0  0  0  0  0  0
  -30.1650  -19.5622   23.1853 N   0  3  0  0  0  0
  -28.8187  -21.5826   19.6158 N   0  3  0  0  0  0
  -28.5581  -18.0804   18.7904 O   0  0  0  0  0  0
  -31.4599  -12.3053   19.1162 H   0  0  0  0  0  0
  -30.2861  -11.2228   19.7975 H   0  0  0  0  0  0
  -29.7276  -11.7947   17.3979 H   0  0  0  0  0  0
  -29.6892  -13.4920   17.8112 H   0  0  0  0  0  0
  -27.8099  -11.3160   18.7882 H   0  0  0  0  0  0
  -27.3725  -12.6692   17.7757 H   0  0  0  0  0  0
  -27.7265  -14.2555   19.5861 H   0  0  0  0  0  0
  -28.6493  -11.9240   21.3491 H   0  0  0  0  0  0
  -28.4818  -13.5709   21.8774 H   0  0  0  0  0  0
  -25.2777   -9.5751   22.4695 H   0  0  0  0  0  0
  -24.0038   -7.4673   22.7419 H   0  0  0  0  0  0
  -21.0859   -8.8749   19.8913 H   0  0  0  0  0  0
  -22.3655  -10.9684   19.6115 H   0  0  0  0  0  0
  -21.2049   -7.6147   23.9689 H   0  0  0  0  0  0
  -21.1444   -6.0520   25.9045 H   0  0  0  0  0  0
  -22.0604   -2.7610   23.2805 H   0  0  0  0  0  0
  -22.4172  -11.9955   22.4807 H   0  0  0  0  0  0
  -21.1095  -13.1203   22.2499 H   0  0  0  0  0  0
  -24.6465  -15.8384   20.4431 H   0  0  0  0  0  0
  -26.2657  -15.6204   20.0148 H   0  0  0  0  0  0
  -26.7161  -32.5613   23.1277 H   0  0  0  0  0  0
  -25.0101  -33.9879   25.0573 H   0  0  0  0  0  0
  -22.6948  -31.3445   21.4352 H   0  0  0  0  0  0
  -23.3736  -35.9659   23.3320 H   0  0  0  0  0  0
  -24.3580  -36.8905   22.2038 H   0  0  0  0  0  0
  -23.7271  -37.6549   23.6631 H   0  0  0  0  0  0
  -26.0743  -31.6191   20.6227 H   0  0  0  0  0  0
  -26.8250  -30.8805   22.0103 H   0  0  0  0  0  0
  -28.0966  -29.0748   21.1774 H   0  0  0  0  0  0
  -25.8531  -26.0789   18.9411 H   0  0  0  0  0  0
  -23.9290  -27.4009   19.0068 H   0  0  0  0  0  0
  -23.7260  -30.6649   19.4219 H   0  0  0  0  0  0
  -22.7301  -29.3105   19.8590 H   0  0  0  0  0  0
  -25.1282  -36.1990   25.0847 H   0  0  0  0  0  0
  -21.0021  -28.3426   24.1492 H   0  0  0  0  0  0
  -20.5670  -26.2332   23.3856 H   0  0  0  0  0  0
  -21.6820  -26.7391   22.1537 H   0  0  0  0  0  0
  -19.7099  -27.3208   20.6828 H   0  0  0  0  0  0
  -19.7220  -25.6347   21.1305 H   0  0  0  0  0  0
  -17.4422  -26.6795   21.3793 H   0  0  0  0  0  0
  -18.0384  -26.0174   22.8888 H   0  0  0  0  0  0
  -19.8071  -30.7276   24.2224 H   0  0  0  0  0  0
  -17.5084  -31.6346   24.5141 H   0  0  0  0  0  0
  -15.5442  -30.2985   23.7668 H   0  0  0  0  0  0
  -15.8753  -28.1023   22.6877 H   0  0  0  0  0  0
  -24.5955  -30.7028   25.7921 H   0  0  0  0  0  0
  -24.8934  -32.2869   26.4995 H   0  0  0  0  0  0
  -25.8157  -30.8934   27.0308 H   0  0  0  0  0  0
  -26.2834  -29.6855   24.1174 H   0  0  0  0  0  0
  -27.3988  -29.7265   25.4635 H   0  0  0  0  0  0
  -27.8716  -30.4353   23.9375 H   0  0  0  0  0  0
  -27.2647  -33.3610   26.2176 H   0  0  0  0  0  0
  -28.3853  -32.6913   25.0400 H   0  0  0  0  0  0
  -28.0701  -31.8425   26.5474 H   0  0  0  0  0  0
  -28.2598  -38.0108   24.7476 H   0  0  0  0  0  0
  -28.1071  -36.2634   24.6327 H   0  0  0  0  0  0
  -27.2285  -37.1506   25.8870 H   0  0  0  0  0  0
  -20.9336  -29.8649   21.6763 H   0  0  0  0  0  0
  -26.0185  -38.2877   24.1386 H   0  0  0  0  0  0
  -26.0491  -23.1451   19.6691 H   0  0  0  0  0  0
  -26.7776  -22.4573   21.1065 H   0  0  0  0  0  0
  -27.6026  -24.5280   21.8272 H   0  0  0  0  0  0
  -26.1504  -25.0382   21.0347 H   0  0  0  0  0  0
  -29.7648  -24.3432   18.7919 H   0  0  0  0  0  0
  -29.7326  -24.0519   20.5421 H   0  0  0  0  0  0
  -27.1917  -18.9434   22.1393 H   0  0  0  0  0  0
  -27.4944  -20.4706   21.4842 H   0  0  0  0  0  0
  -31.4071  -17.9946   22.6571 H   0  0  0  0  0  0
  -30.0668  -17.5079   23.6381 H   0  0  0  0  0  0
  -27.8778  -22.9647   18.3601 H   0  0  0  0  0  0
  -27.6220  -25.2240   18.8126 H   0  0  0  0  0  0
  -28.6433  -17.1554   21.9146 H   0  0  0  0  0  0
  -28.2782  -19.3968   24.0014 H   0  0  0  0  0  0
  -28.9531  -21.6693   24.5796 H   0  0  0  0  0  0
  -27.5147  -21.7318   23.5963 H   0  0  0  0  0  0
  -29.0712  -22.1351   22.8778 H   0  0  0  0  0  0
  -26.3931  -21.3073   18.0330 H   0  0  0  0  0  0
  -26.0929  -20.5076   19.5693 H   0  0  0  0  0  0
  -26.3455  -19.5768   18.0956 H   0  0  0  0  0  0
  -31.4387  -16.9641   20.8186 H   0  0  0  0  0  0
  -30.2530  -16.8269   19.6099 H   0  0  0  0  0  0
  -28.6889  -20.4017   17.9393 H   0  0  0  0  0  0
  -29.1317  -15.1771   21.3734 H   0  0  0  0  0  0
  -30.6956  -20.1230   22.5373 H   0  0  0  0  0  0
  -30.5736  -19.6928   24.0984 H   0  0  0  0  0  0
  -28.8584  -21.3821   20.5964 H   0  0  0  0  0  0
  -29.7743  -21.6295   19.2842 H   0  0  0  0  0  0
  1 25  1  0  0  0
  1 30  2  0  0  0
  1 86  1  0  0  0
  2  3  1  0  0  0
  2 25  1  0  0  0
  2 90  1  0  0  0
  2 91  1  0  0  0
  3  4  1  0  0  0
  3 92  1  0  0  0
  3 93  1  0  0  0
  4  5  1  0  0  0
  4 94  1  0  0  0
  4 95  1  0  0  0
  5  6  1  0  0  0
  5 26  1  0  0  0
  5 96  1  0  0  0
  6 25  1  0  0  0
  6 97  1  0  0  0
  6 98  1  0  0  0
  7  8  2  0  0  0
  7 26  1  0  0  0
  7 29  1  0  0  0
  8  9  1  0  0  0
  8 22  1  0  0  0
  9 10  1  0  0  0
  9 27  2  0  0  0
 10 11  2  0  0  0
 10 15  1  0  0  0
 11 12  1  0  0  0
 11 99  1  0  0  0
 12 13  2  0  0  0
 12100  1  0  0  0
 13 14  1  0  0  0
 13 31  1  0  0  0
 14 15  2  0  0  0
 14101  1  0  0  0
 15102  1  0  0  0
 16 17  2  0  0  0
 16 21  1  0  0  0
 16 31  1  0  0  0
 17 18  1  0  0  0
 17103  1  0  0  0
 18 19  2  0  0  0
 18104  1  0  0  0
 19 20  1  0  0  0
 19 24  1  0  0  0
 20 21  2  0  0  0
 20105  1  0  0  0
 21 23  1  0  0  0
 22 28  1  0  0  0
 22 32  2  0  0  0
 26 27  1  0  0  0
 28106  1  0  0  0
 28107  1  0  0  0
 29108  1  0  0  0
 29109  1  0  0  0
 33 34  1  0  0  0
 33 66  1  0  0  0
 33 70  2  0  0  0
 34 36  1  0  0  0
 34 59  1  0  0  0
 34110  1  0  0  0
 35 44  2  0  0  0
 35 45  1  0  0  0
 35 68  1  0  0  0
 36 56  1  0  0  0
 36111  1  0  0  0
 37 39  1  0  0  0
 37 47  1  0  0  0
 37 66  1  0  0  0
 37112  1  0  0  0
 38 43  2  0  0  0
 38 46  1  0  0  0
 38 47  1  0  0  0
 39 64  1  0  0  0
 39 67  2  0  0  0
 40 52  1  0  0  0
 40 53  2  0  0  0
 40 58  1  0  0  0
 41113  1  0  0  0
 41114  1  0  0  0
 41115  1  0  0  0
 41 48  1  0  0  0
 42 43  1  0  0  0
 42 66  1  0  0  0
 42116  1  0  0  0
 42117  1  0  0  0
 43 44  1  0  0  0
 44118  1  0  0  0
 45 46  2  0  0  0
 45119  1  0  0  0
 46120  1  0  0  0
 47121  1  0  0  0
 47122  1  0  0  0
 48 56  1  0  0  0
 48 65  1  0  0  0
 48123  1  0  0  0
 49 50  1  0  0  0
 49 53  1  0  0  0
 49 64  1  0  0  0
 49124  1  0  0  0
 50 51  1  0  0  0
 50125  1  0  0  0
 50126  1  0  0  0
 51 52  1  0  0  0
 51127  1  0  0  0
 51128  1  0  0  0
 52129  1  0  0  0
 52130  1  0  0  0
 53 54  1  0  0  0
 54 55  2  0  0  0
 54131  1  0  0  0
 55 57  1  0  0  0
 55132  1  0  0  0
 56 69  2  0  0  0
 57 58  2  0  0  0
 57133  1  0  0  0
 58134  1  0  0  0
 59 60  1  0  0  0
 59 61  1  0  0  0
 59 62  1  0  0  0
 60135  1  0  0  0
 60136  1  0  0  0
 60137  1  0  0  0
 61138  1  0  0  0
 61139  1  0  0  0
 61140  1  0  0  0
 62141  1  0  0  0
 62142  1  0  0  0
 62143  1  0  0  0
 63 65  1  0  0  0
 63144  1  0  0  0
 63145  1  0  0  0
 63146  1  0  0  0
 64147  1  0  0  0
 65148  1  0  0  0
 68 78  1  0  0  0
 71 84  1  0  0  0
 71 85  1  0  0  0
 71 89  2  0  0  0
 72 73  1  0  0  0
 72 77  1  0  0  0
 72149  1  0  0  0
 72150  1  0  0  0
 73 78  1  0  0  0
 73151  1  0  0  0
 73152  1  0  0  0
 74 77  1  0  0  0
 74 78  1  0  0  0
 74153  1  0  0  0
 74154  1  0  0  0
 75 80  1  0  0  0
 75 85  1  0  0  0
 75155  1  0  0  0
 75156  1  0  0  0
 76 79  1  0  0  0
 76 87  1  0  0  0
 76157  1  0  0  0
 76158  1  0  0  0
 77 88  1  0  0  0
 77159  1  0  0  0
 78160  1  0  0  0
 79 83  1  0  0  0
 79 85  1  0  0  0
 79161  1  0  0  0
 80 81  1  0  0  0
 80 87  1  0  0  0
 80162  1  0  0  0
 81163  1  0  0  0
 81164  1  0  0  0
 81165  1  0  0  0
 82166  1  0  0  0
 82167  1  0  0  0
 82168  1  0  0  0
 82 84  1  0  0  0
 83 86  1  0  0  0
 83169  1  0  0  0
 83170  1  0  0  0
 84 88  1  0  0  0
 84171  1  0  0  0
 86172  1  0  0  0
 87173  1  0  0  0
 87174  1  0  0  0
 88175  1  0  0  0
 88176  1  0  0  0
M  CHG  2  87   1  88   1
M  ISO  4   1 100  68 101  78 101  86 100
M  END
> <chiral flag>
0

> <version>
0

> <s_m_source_file>
/data/baiqing/PycharmProjects/Reinvent-master-3.2/result/LINK_invent/BTK/process_docking_weight1_custom_sum_contain_oxygen_bond_distance_aromatic_linkinvent_7_9_3/rearranged_h_0138.sdf

> <i_m_source_file_index>
22

> <r_mmod_Potential_Energy-OPLS-2005>
-113.646606445312

> <r_mmod_Stretch_Energy-OPLS-2005>
48.8649063110352

> <r_mmod_Bend_Energy-OPLS-2005>
200.076110839844

> <r_mmod_Torsional_Energy-OPLS-2005>
424.703918457031

> <r_mmod_Improper_Torsional_Energy-OPLS-2005>
8.4819221496582

> <r_mmod_Van_der_Waal_Energy-OPLS-2005>
189.463638305664

> <r_mmod_Electrostatic_Energy-OPLS-2005>
45.9443588256836

> <r_mmod_Solvation_Energy-OPLS-2005>
-1049.86804199219

> <b_mmod_Minimization_Converged-OPLS-2005>
0

> <r_mmod_RMS_Derivative-OPLS-2005>
6.34057664871216

$$$$
22
                    3D
 Structure written by MMmdl.
160169  0  0  1  0            999 V2000
  -30.4966  -15.0795   20.4010 C   0  0  0  0  0  0
  -30.4463  -12.6979   19.4550 C   0  0  0  0  0  0
  -29.5143  -12.5243   18.2359 C   0  0  0  0  0  0
  -28.0553  -12.2976   18.6757 C   0  0  0  0  0  0
  -27.6216  -13.2491   19.8204 C   0  0  2  0  0  0
  -28.6772  -13.3384   20.9380 C   0  0  0  0  0  0
  -25.2465  -13.8120   20.5701 C   0  0  0  0  0  0
  -24.1758  -13.0382   20.9235 C   0  0  0  0  0  0
  -24.6352  -11.6858   20.8736 C   0  0  0  0  0  0
  -23.9006  -10.4251   21.0382 C   0  0  0  0  0  0
  -24.3576   -9.4187   21.9146 C   0  0  0  0  0  0
  -23.6279   -8.2217   22.0719 C   0  0  0  0  0  0
  -22.4261   -8.0238   21.3525 C   0  0  0  0  0  0
  -21.9891   -9.0185   20.4613 C   0  0  0  0  0  0
  -22.7184  -10.2080   20.3028 C   0  0  0  0  0  0
  -21.6846   -6.0702   22.5239 C   0  0  0  0  0  0
  -21.4011   -6.5616   23.8167 C   0  0  0  0  0  0
  -21.3665   -5.6783   24.9141 C   0  0  0  0  0  0
  -21.6075   -4.3045   24.7207 C   0  0  0  0  0  0
  -21.8819   -3.8118   23.4326 C   0  0  0  0  0  0
  -21.9198   -4.6931   22.3379 C   0  0  0  0  0  0
  -22.7786  -13.5178   21.1897 C   0  0  0  0  0  0
  -22.1665   -4.2121   21.0955 F   0  0  0  0  0  0
  -21.5647   -3.4519   25.7715 F   0  0  0  0  0  0
  -29.9008  -13.8169   20.2816 N   0  0  0  0  0  0
  -26.2888  -12.9372   20.3248 N   0  0  0  0  0  0
  -25.9311  -11.6507   20.5738 N   0  0  0  0  0  0
  -22.0450  -12.8164   22.0438 N   0  0  0  0  0  0
  -25.4212  -15.1801   20.4063 N   0  0  0  0  0  0
  -31.7302  -15.0797   20.3282 O   0  0  0  0  0  0
  -21.6641   -6.8838   21.4199 O   0  0  0  0  0  0
  -22.3495  -14.5504   20.6788 O   0  0  0  0  0  0
  -24.6458  -31.8401   23.1844 C   0  0  0  0  0  0
  -25.9203  -32.4681   23.8302 C   0  0  1  0  0  0
  -27.2215  -27.0818   20.1423 C   0  0  0  0  0  0
  -25.5911  -33.8496   24.2206 N   0  0  0  0  0  0
  -23.4549  -30.4600   21.5319 C   0  0  2  0  0  0
  -24.9073  -28.8762   20.1096 C   0  0  0  0  0  0
  -22.7590  -29.4531   22.4843 C   0  0  0  0  0  0
  -18.0325  -28.1329   22.8514 C   0  0  0  0  0  0
  -24.1465  -36.7246   23.2656 C   0  0  0  0  0  0
  -26.0148  -30.6938   21.3952 C   0  0  0  0  0  0
  -26.0868  -29.3000   20.7348 C   0  0  0  0  0  0
  -27.2412  -28.4183   20.7381 C   0  0  0  0  0  0
  -26.0156  -26.7776   19.4717 C   0  0  0  0  0  0
  -24.8869  -27.6263   19.4710 C   0  0  0  0  0  0
  -23.6846  -29.7831   20.1545 C   0  0  0  0  0  0
  -25.4108  -36.3040   24.0331 C   0  0  1  0  0  0
  -20.5946  -28.3743   23.1278 C   0  0  2  0  0  0
  -20.6781  -26.9405   22.5511 C   0  0  0  0  0  0
  -19.5745  -26.6274   21.5326 C   0  0  0  0  0  0
  -18.1943  -26.7831   22.1719 C   0  0  0  0  0  0
  -19.1579  -28.8848   23.2906 C   0  0  0  0  0  0
  -18.9441  -30.1470   23.8837 C   0  0  0  0  0  0
  -17.6416  -30.6569   24.0508 C   0  0  0  0  0  0
  -25.9079  -34.9410   23.5094 C   0  0  0  0  0  0
  -16.5319  -29.9024   23.6345 C   0  0  0  0  0  0
  -16.7302  -28.6468   23.0357 C   0  0  0  0  0  0
  -26.4484  -31.6577   25.0769 C   0  0  0  0  0  0
  -25.3661  -31.3775   26.1456 C   0  0  0  0  0  0
  -27.0386  -30.2970   24.6433 C   0  0  0  0  0  0
  -27.6002  -32.4380   25.7533 C   0  0  0  0  0  0
  -27.5569  -37.1782   24.8474 C   0  0  0  0  0  0
  -21.4261  -29.3062   22.3594 N   0  0  0  0  0  0
  -26.4284  -37.3745   23.9398 N   0  0  0  0  0  0
  -24.7256  -31.0232   22.0901 N   0  0  0  0  0  0
  -23.4200  -28.8092   23.3021 O   0  0  0  0  0  0
  -28.2678  -26.0662   20.1791 O   0  0  0  0  0  0
  -26.5679  -34.8927   22.4682 O   0  0  0  0  0  0
  -23.5565  -32.1304   23.7016 O   0  0  0  0  0  0
  -28.6942  -17.1308   21.9932 C   0  0  0  0  0  0
  -27.3727  -19.0036   20.3155 C   0  0  0  0  0  0
  -27.3424  -17.4712   22.1900 C   0  0  0  0  0  0
  -26.6769  -18.3005   21.3042 C   0  0  0  0  0  0
  -29.3685  -17.6105   20.8394 C   0  0  0  0  0  0
  -28.7864  -18.9412   20.3117 C   0  0  0  0  0  0
  -26.3994  -16.9120   23.2242 C   0  0  0  0  0  0
  -25.0053  -17.4499   22.8054 C   0  0  0  0  0  0
  -25.2014  -18.3987   21.5934 C   0  0  1  0  0  0
  -24.7347  -19.8380   21.8640 C   0  0  0  0  0  0
  -28.8699  -23.3395   20.2567 C   0  0  0  0  0  0
  -28.4828  -21.6602   20.1207 C   0  0  0  0  0  0
  -29.7880  -16.3080   20.0902 N   0  0  0  0  0  0
  -27.8398  -24.5090   19.9860 N   0  0  0  0  0  0
  -29.3393  -20.3221   20.2438 O   0  0  0  0  0  0
  -31.4553  -12.9240   19.1100 H   0  0  0  0  0  0
  -30.5250  -11.7763   20.0369 H   0  0  0  0  0  0
  -29.8573  -11.6961   17.6170 H   0  0  0  0  0  0
  -29.5676  -13.4154   17.6043 H   0  0  0  0  0  0
  -27.9764  -11.2632   19.0117 H   0  0  0  0  0  0
  -27.3809  -12.3935   17.8202 H   0  0  0  0  0  0
  -27.5625  -14.2384   19.3606 H   0  0  0  0  0  0
  -28.8315  -12.3773   21.4314 H   0  0  0  0  0  0
  -28.3624  -14.0392   21.7129 H   0  0  0  0  0  0
  -25.2712   -9.5717   22.4722 H   0  0  0  0  0  0
  -23.9993   -7.4640   22.7470 H   0  0  0  0  0  0
  -21.0813   -8.8673   19.8945 H   0  0  0  0  0  0
  -22.3584  -10.9607   19.6156 H   0  0  0  0  0  0
  -21.1981   -7.6112   23.9665 H   0  0  0  0  0  0
  -21.1520   -6.0505   25.9053 H   0  0  0  0  0  0
  -22.0613   -2.7574   23.2808 H   0  0  0  0  0  0
  -22.4050  -11.9792   22.4821 H   0  0  0  0  0  0
  -21.1056  -13.1161   22.2596 H   0  0  0  0  0  0
  -24.6875  -15.8413   20.6295 H   0  0  0  0  0  0
  -26.3243  -15.6206   20.2814 H   0  0  0  0  0  0
  -26.7287  -32.5274   23.1055 H   0  0  0  0  0  0
  -24.9961  -33.9581   25.0302 H   0  0  0  0  0  0
  -22.7551  -31.2823   21.3739 H   0  0  0  0  0  0
  -23.3751  -35.9549   23.3305 H   0  0  0  0  0  0
  -24.3563  -36.8868   22.2072 H   0  0  0  0  0  0
  -23.7183  -37.6434   23.6704 H   0  0  0  0  0  0
  -26.1854  -31.4461   20.6260 H   0  0  0  0  0  0
  -26.8771  -30.7429   22.0475 H   0  0  0  0  0  0
  -28.1406  -28.7400   21.2485 H   0  0  0  0  0  0
  -25.9106  -25.8266   18.9661 H   0  0  0  0  0  0
  -23.9850  -27.2903   18.9839 H   0  0  0  0  0  0
  -23.8215  -30.5532   19.3938 H   0  0  0  0  0  0
  -22.7970  -29.2258   19.8489 H   0  0  0  0  0  0
  -25.1281  -36.1881   25.0826 H   0  0  0  0  0  0
  -21.0093  -28.3318   24.1387 H   0  0  0  0  0  0
  -20.5583  -26.2403   23.3750 H   0  0  0  0  0  0
  -21.6675  -26.7302   22.1369 H   0  0  0  0  0  0
  -19.6662  -27.3101   20.6855 H   0  0  0  0  0  0
  -19.6878  -25.6186   21.1396 H   0  0  0  0  0  0
  -18.0333  -26.0020   22.9158 H   0  0  0  0  0  0
  -17.4266  -26.6620   21.4022 H   0  0  0  0  0  0
  -19.7913  -30.7375   24.2084 H   0  0  0  0  0  0
  -17.5005  -31.6236   24.5070 H   0  0  0  0  0  0
  -15.5304  -30.2878   23.7752 H   0  0  0  0  0  0
  -15.8758  -28.0741   22.6971 H   0  0  0  0  0  0
  -24.5861  -30.7081   25.7783 H   0  0  0  0  0  0
  -24.8825  -32.2968   26.4814 H   0  0  0  0  0  0
  -25.7943  -30.9009   27.0292 H   0  0  0  0  0  0
  -26.3054  -29.6656   24.1394 H   0  0  0  0  0  0
  -27.3898  -29.7299   25.5066 H   0  0  0  0  0  0
  -27.9005  -30.4152   23.9849 H   0  0  0  0  0  0
  -27.2588  -33.3718   26.2015 H   0  0  0  0  0  0
  -28.3869  -32.6870   25.0398 H   0  0  0  0  0  0
  -28.0659  -31.8597   26.5522 H   0  0  0  0  0  0
  -28.2597  -38.0071   24.7529 H   0  0  0  0  0  0
  -28.1058  -36.2604   24.6299 H   0  0  0  0  0  0
  -27.2311  -37.1440   25.8889 H   0  0  0  0  0  0
  -20.9501  -29.8742   21.6719 H   0  0  0  0  0  0
  -26.0155  -38.2816   24.1398 H   0  0  0  0  0  0
  -29.0747  -16.2845   22.5522 H   0  0  0  0  0  0
  -26.8198  -19.7693   19.7876 H   0  0  0  0  0  0
  -26.6795  -17.2798   24.2108 H   0  0  0  0  0  0
  -26.4335  -15.8214   23.2298 H   0  0  0  0  0  0
  -24.5188  -17.9512   23.6428 H   0  0  0  0  0  0
  -24.3532  -16.6242   22.5214 H   0  0  0  0  0  0
  -24.6619  -18.0146   20.7233 H   0  0  0  0  0  0
  -25.2803  -20.2791   22.7006 H   0  0  0  0  0  0
  -23.6666  -19.8621   22.0956 H   0  0  0  0  0  0
  -24.8851  -20.4733   20.9906 H   0  0  0  0  0  0
  -29.7380  -23.5321   19.6288 H   0  0  0  0  0  0
  -29.2137  -23.4886   21.2790 H   0  0  0  0  0  0
  -27.9900  -21.5750   19.1517 H   0  0  0  0  0  0
  -27.6803  -21.5426   20.8509 H   0  0  0  0  0  0
  -29.4549  -16.2826   19.1339 H   0  0  0  0  0  0
  -26.9991  -24.3735   20.5406 H   0  0  0  0  0  0
  1 25  1  0  0  0
  1 30  2  0  0  0
  1 83  1  0  0  0
  2  3  1  0  0  0
  2 25  1  0  0  0
  2 86  1  0  0  0
  2 87  1  0  0  0
  3  4  1  0  0  0
  3 88  1  0  0  0
  3 89  1  0  0  0
  4  5  1  0  0  0
  4 90  1  0  0  0
  4 91  1  0  0  0
  5  6  1  0  0  0
  5 26  1  0  0  0
  5 92  1  0  0  0
  6 25  1  0  0  0
  6 93  1  0  0  0
  6 94  1  0  0  0
  7  8  2  0  0  0
  7 26  1  0  0  0
  7 29  1  0  0  0
  8  9  1  0  0  0
  8 22  1  0  0  0
  9 10  1  0  0  0
  9 27  2  0  0  0
 10 11  2  0  0  0
 10 15  1  0  0  0
 11 12  1  0  0  0
 11 95  1  0  0  0
 12 13  2  0  0  0
 12 96  1  0  0  0
 13 14  1  0  0  0
 13 31  1  0  0  0
 14 15  2  0  0  0
 14 97  1  0  0  0
 15 98  1  0  0  0
 16 17  2  0  0  0
 16 21  1  0  0  0
 16 31  1  0  0  0
 17 18  1  0  0  0
 17 99  1  0  0  0
 18 19  2  0  0  0
 18100  1  0  0  0
 19 20  1  0  0  0
 19 24  1  0  0  0
 20 21  2  0  0  0
 20101  1  0  0  0
 21 23  1  0  0  0
 22 28  1  0  0  0
 22 32  2  0  0  0
 26 27  1  0  0  0
 28102  1  0  0  0
 28103  1  0  0  0
 29104  1  0  0  0
 29105  1  0  0  0
 33 34  1  0  0  0
 33 66  1  0  0  0
 33 70  2  0  0  0
 34 36  1  0  0  0
 34 59  1  0  0  0
 34106  1  0  0  0
 35 44  2  0  0  0
 35 45  1  0  0  0
 35 68  1  0  0  0
 36 56  1  0  0  0
 36107  1  0  0  0
 37 39  1  0  0  0
 37 47  1  0  0  0
 37 66  1  0  0  0
 37108  1  0  0  0
 38 43  2  0  0  0
 38 46  1  0  0  0
 38 47  1  0  0  0
 39 64  1  0  0  0
 39 67  2  0  0  0
 40 52  1  0  0  0
 40 53  2  0  0  0
 40 58  1  0  0  0
 41109  1  0  0  0
 41110  1  0  0  0
 41111  1  0  0  0
 41 48  1  0  0  0
 42 43  1  0  0  0
 42 66  1  0  0  0
 42112  1  0  0  0
 42113  1  0  0  0
 43 44  1  0  0  0
 44114  1  0  0  0
 45 46  2  0  0  0
 45115  1  0  0  0
 46116  1  0  0  0
 47117  1  0  0  0
 47118  1  0  0  0
 48 56  1  0  0  0
 48 65  1  0  0  0
 48119  1  0  0  0
 49 50  1  0  0  0
 49 53  1  0  0  0
 49 64  1  0  0  0
 49120  1  0  0  0
 50 51  1  0  0  0
 50121  1  0  0  0
 50122  1  0  0  0
 51 52  1  0  0  0
 51123  1  0  0  0
 51124  1  0  0  0
 52125  1  0  0  0
 52126  1  0  0  0
 53 54  1  0  0  0
 54 55  2  0  0  0
 54127  1  0  0  0
 55 57  1  0  0  0
 55128  1  0  0  0
 56 69  2  0  0  0
 57 58  2  0  0  0
 57129  1  0  0  0
 58130  1  0  0  0
 59 60  1  0  0  0
 59 61  1  0  0  0
 59 62  1  0  0  0
 60131  1  0  0  0
 60132  1  0  0  0
 60133  1  0  0  0
 61134  1  0  0  0
 61135  1  0  0  0
 61136  1  0  0  0
 62137  1  0  0  0
 62138  1  0  0  0
 62139  1  0  0  0
 63 65  1  0  0  0
 63140  1  0  0  0
 63141  1  0  0  0
 63142  1  0  0  0
 64143  1  0  0  0
 65144  1  0  0  0
 68 84  1  0  0  0
 71 73  2  0  0  0
 71 75  1  0  0  0
 71145  1  0  0  0
 72 74  2  0  0  0
 72 76  1  0  0  0
 72146  1  0  0  0
 73 74  1  0  0  0
 73 77  1  0  0  0
 74 79  1  0  0  0
 75 76  2  0  0  0
 75 83  1  0  0  0
 76 85  1  0  0  0
 77 78  1  0  0  0
 77147  1  0  0  0
 77148  1  0  0  0
 78 79  1  0  0  0
 78149  1  0  0  0
 78150  1  0  0  0
 79 80  1  0  0  0
 79151  1  0  0  0
 80152  1  0  0  0
 80153  1  0  0  0
 80154  1  0  0  0
 81 82  1  0  0  0
 81 84  1  0  0  0
 81155  1  0  0  0
 81156  1  0  0  0
 82 85  1  0  0  0
 82157  1  0  0  0
 82158  1  0  0  0
 83159  1  0  0  0
 84160  1  0  0  0
M  ISO  4   1 100  68 101  83 100  84 101
M  END
> <chiral flag>
0

> <version>
0

> <s_m_source_file>
/data/baiqing/PycharmProjects/Reinvent-master-3.2/result/LINK_invent/BTK/process_docking_weight1_custom_sum_contain_oxygen_bond_distance_aromatic_linkinvent_7_9_3/rearranged_h_0138.sdf

> <i_m_source_file_index>
23

> <r_mmod_Potential_Energy-OPLS-2005>
1052.70971679688

> <r_mmod_Stretch_Energy-OPLS-2005>
375.408050537109

> <r_mmod_Bend_Energy-OPLS-2005>
380.483947753906

> <r_mmod_Torsional_Energy-OPLS-2005>
481.041412353516

> <r_mmod_Improper_Torsional_Energy-OPLS-2005>
40.319766998291

> <r_mmod_Van_der_Waal_Energy-OPLS-2005>
124.658355712891

> <r_mmod_Electrostatic_Energy-OPLS-2005>
-406.795776367188

> <r_mmod_Solvation_Energy-OPLS-2005>
-219.422225952148

> <b_mmod_Minimization_Converged-OPLS-2005>
0

> <r_mmod_RMS_Derivative-OPLS-2005>
6.72192716598511

$$$$
23
                    3D
 Structure written by MMmdl.
166174  0  0  1  0            999 V2000
  -30.7277  -14.4656   20.5122 C   0  0  0  0  0  0
  -30.4373  -12.2815   19.4281 C   0  0  0  0  0  0
  -29.4898  -12.4363   18.2204 C   0  0  0  0  0  0
  -28.0274  -12.2591   18.6663 C   0  0  0  0  0  0
  -27.6636  -13.1793   19.8628 C   0  0  2  0  0  0
  -28.7132  -13.0122   20.9896 C   0  0  0  0  0  0
  -25.2586  -13.8124   20.5610 C   0  0  0  0  0  0
  -24.1846  -13.0476   20.9196 C   0  0  0  0  0  0
  -24.6371  -11.6914   20.8792 C   0  0  0  0  0  0
  -23.9009  -10.4315   21.0387 C   0  0  0  0  0  0
  -24.3577   -9.4234   21.9148 C   0  0  0  0  0  0
  -23.6270   -8.2255   22.0718 C   0  0  0  0  0  0
  -22.4240   -8.0285   21.3538 C   0  0  0  0  0  0
  -21.9875   -9.0245   20.4617 C   0  0  0  0  0  0
  -22.7193  -10.2136   20.3017 C   0  0  0  0  0  0
  -21.6870   -6.0717   22.5285 C   0  0  0  0  0  0
  -21.4030   -6.5628   23.8228 C   0  0  0  0  0  0
  -21.3645   -5.6783   24.9181 C   0  0  0  0  0  0
  -21.6034   -4.3040   24.7237 C   0  0  0  0  0  0
  -21.8832   -3.8136   23.4368 C   0  0  0  0  0  0
  -21.9204   -4.6954   22.3416 C   0  0  0  0  0  0
  -22.7854  -13.5211   21.1920 C   0  0  0  0  0  0
  -22.1665   -4.2143   21.0993 F   0  0  0  0  0  0
  -21.5622   -3.4533   25.7751 F   0  0  0  0  0  0
  -30.0512  -13.2892   20.4250 N   0  0  0  0  0  0
  -26.3020  -12.9256   20.3300 N   0  0  0  0  0  0
  -25.9272  -11.6470   20.5796 N   0  0  0  0  0  0
  -22.0529  -12.8165   22.0454 N   0  0  0  0  0  0
  -25.4359  -15.1841   20.3931 N   0  0  0  0  0  0
  -31.8777  -14.6199   20.0884 O   0  0  0  0  0  0
  -21.6659   -6.8850   21.4232 O   0  0  0  0  0  0
  -22.3520  -14.5522   20.6762 O   0  0  0  0  0  0
  -24.6173  -31.8697   23.2048 C   0  0  0  0  0  0
  -25.9029  -32.4827   23.8390 C   0  0  1  0  0  0
  -27.2611  -27.4180   20.1107 C   0  0  0  0  0  0
  -25.5856  -33.8635   24.2336 N   0  0  0  0  0  0
  -23.4072  -30.4828   21.5486 C   0  0  2  0  0  0
  -24.8603  -28.9449   20.1128 C   0  0  0  0  0  0
  -22.7444  -29.4663   22.5044 C   0  0  0  0  0  0
  -18.0249  -28.1352   22.8496 C   0  0  0  0  0  0
  -24.1468  -36.7330   23.2648 C   0  0  0  0  0  0
  -25.9322  -30.8343   21.3568 C   0  0  0  0  0  0
  -26.0165  -29.4638   20.7073 C   0  0  0  0  0  0
  -27.2139  -28.7079   20.7008 C   0  0  0  0  0  0
  -26.0819  -26.9202   19.5092 C   0  0  0  0  0  0
  -24.8914  -27.6747   19.5090 C   0  0  0  0  0  0
  -23.6172  -29.8048   20.1657 C   0  0  0  0  0  0
  -25.4083  -36.3142   24.0356 C   0  0  1  0  0  0
  -20.5865  -28.3632   23.1312 C   0  0  2  0  0  0
  -20.6740  -26.9451   22.5227 C   0  0  0  0  0  0
  -19.5646  -26.6492   21.5091 C   0  0  0  0  0  0
  -18.1874  -26.7885   22.1629 C   0  0  0  0  0  0
  -19.1522  -28.8806   23.2891 C   0  0  0  0  0  0
  -18.9454  -30.1408   23.8920 C   0  0  0  0  0  0
  -17.6483  -30.6542   24.0599 C   0  0  0  0  0  0
  -25.9002  -34.9491   23.5163 C   0  0  0  0  0  0
  -16.5356  -29.9090   23.6336 C   0  0  0  0  0  0
  -16.7248  -28.6504   23.0344 C   0  0  0  0  0  0
  -26.4439  -31.6597   25.0736 C   0  0  0  0  0  0
  -25.3692  -31.3705   26.1488 C   0  0  0  0  0  0
  -27.0246  -30.3025   24.6108 C   0  0  0  0  0  0
  -27.6000  -32.4326   25.7503 C   0  0  0  0  0  0
  -27.5578  -37.1827   24.8473 C   0  0  0  0  0  0
  -21.4159  -29.3081   22.3843 N   0  0  0  0  0  0
  -26.4287  -37.3813   23.9418 N   0  0  0  0  0  0
  -24.6689  -31.0769   22.0946 N   0  0  0  0  0  0
  -23.4213  -28.8227   23.3113 O   0  0  0  0  0  0
  -28.4462  -26.6966   20.1693 O   0  0  0  0  0  0
  -26.5607  -34.8944   22.4737 O   0  0  0  0  0  0
  -23.5333  -32.1421   23.7445 O   0  0  0  0  0  0
  -28.2945  -21.1732   21.0427 C   0  0  0  0  0  0
  -30.8334  -20.3168   21.6464 C   0  0  0  0  0  0
  -28.4929  -19.7928   21.3107 C   0  0  0  0  0  0
  -29.8201  -19.3348   21.5817 C   0  0  0  0  0  0
  -29.3800  -22.0714   21.1017 C   0  0  0  0  0  0
  -26.1063  -19.9595   23.2327 C   0  0  0  0  0  0
  -24.8498  -19.5803   21.0369 C   0  0  0  0  0  0
  -27.3121  -18.8233   21.1829 C   0  0  0  0  0  0
  -30.1858  -17.8531   21.8230 C   0  0  0  0  0  0
  -30.2253  -16.9382   20.5662 C   0  0  0  0  0  0
  -28.2101  -24.1244   20.0998 C   0  0  0  0  0  0
  -28.6338  -25.4749   19.4221 C   0  0  0  0  0  0
  -25.9902  -19.1044   21.9574 C   0  0  0  0  0  0
  -30.6136  -21.6363   21.4215 N   0  0  0  0  0  0
  -29.2955  -23.4588   20.8510 N   0  0  0  0  0  0
  -29.9846  -15.5148   20.8908 N   0  0  0  0  0  0
  -31.4814  -12.3723   19.1187 H   0  0  0  0  0  0
  -30.3480  -11.2862   19.8639 H   0  0  0  0  0  0
  -29.7352  -11.7007   17.4551 H   0  0  0  0  0  0
  -29.6168  -13.4174   17.7642 H   0  0  0  0  0  0
  -27.9059  -11.2117   18.9609 H   0  0  0  0  0  0
  -27.3465  -12.4087   17.8304 H   0  0  0  0  0  0
  -27.7015  -14.2025   19.4917 H   0  0  0  0  0  0
  -28.6895  -11.9860   21.3677 H   0  0  0  0  0  0
  -28.4765  -13.6543   21.8400 H   0  0  0  0  0  0
  -25.2713   -9.5766   22.4720 H   0  0  0  0  0  0
  -24.0037   -7.4648   22.7412 H   0  0  0  0  0  0
  -21.0812   -8.8711   19.8909 H   0  0  0  0  0  0
  -22.3592  -10.9658   19.6121 H   0  0  0  0  0  0
  -21.2044   -7.6148   23.9718 H   0  0  0  0  0  0
  -21.1423   -6.0520   25.9080 H   0  0  0  0  0  0
  -22.0621   -2.7608   23.2883 H   0  0  0  0  0  0
  -22.4188  -11.9789   22.4760 H   0  0  0  0  0  0
  -21.1157  -13.1147   22.2760 H   0  0  0  0  0  0
  -24.6674  -15.8378   20.4923 H   0  0  0  0  0  0
  -26.2612  -15.6016   19.9816 H   0  0  0  0  0  0
  -26.7147  -32.5567   23.1202 H   0  0  0  0  0  0
  -24.9937  -33.9768   25.0455 H   0  0  0  0  0  0
  -22.6920  -31.2948   21.4011 H   0  0  0  0  0  0
  -23.3725  -35.9673   23.3318 H   0  0  0  0  0  0
  -24.3562  -36.8937   22.2065 H   0  0  0  0  0  0
  -23.7223  -37.6546   23.6633 H   0  0  0  0  0  0
  -26.0426  -31.6032   20.5900 H   0  0  0  0  0  0
  -26.8201  -30.8947   21.9736 H   0  0  0  0  0  0
  -28.1073  -29.1135   21.1572 H   0  0  0  0  0  0
  -26.0694  -25.9444   19.0527 H   0  0  0  0  0  0
  -24.0070  -27.2604   19.0468 H   0  0  0  0  0  0
  -23.7129  -30.5739   19.3978 H   0  0  0  0  0  0
  -22.7443  -29.2149   19.8801 H   0  0  0  0  0  0
  -25.1255  -36.2023   25.0850 H   0  0  0  0  0  0
  -20.9926  -28.3071   24.1440 H   0  0  0  0  0  0
  -21.6559  -26.7651   22.0855 H   0  0  0  0  0  0
  -20.5776  -26.2183   23.3317 H   0  0  0  0  0  0
  -19.6807  -25.6461   21.0941 H   0  0  0  0  0  0
  -19.6415  -27.3442   20.6707 H   0  0  0  0  0  0
  -17.4045  -26.6579   21.4131 H   0  0  0  0  0  0
  -18.0415  -25.9967   22.8989 H   0  0  0  0  0  0
  -19.7933  -30.7197   24.2288 H   0  0  0  0  0  0
  -17.5037  -31.6196   24.5270 H   0  0  0  0  0  0
  -15.5370  -30.2991   23.7659 H   0  0  0  0  0  0
  -15.8595  -28.0858   22.7059 H   0  0  0  0  0  0
  -24.5853  -30.7053   25.7854 H   0  0  0  0  0  0
  -24.8877  -32.2847   26.4955 H   0  0  0  0  0  0
  -25.8043  -30.8885   27.0242 H   0  0  0  0  0  0
  -26.2787  -29.6831   24.1093 H   0  0  0  0  0  0
  -27.3925  -29.7221   25.4580 H   0  0  0  0  0  0
  -27.8666  -30.4342   23.9302 H   0  0  0  0  0  0
  -27.2595  -33.3617   26.2070 H   0  0  0  0  0  0
  -28.3790  -32.6892   25.0322 H   0  0  0  0  0  0
  -28.0648  -31.8449   26.5426 H   0  0  0  0  0  0
  -28.2617  -38.0106   24.7502 H   0  0  0  0  0  0
  -28.1040  -36.2637   24.6291 H   0  0  0  0  0  0
  -27.2287  -37.1488   25.8876 H   0  0  0  0  0  0
  -20.9336  -29.8885   21.7144 H   0  0  0  0  0  0
  -26.0186  -38.2912   24.1357 H   0  0  0  0  0  0
  -27.3027  -21.5230   20.7991 H   0  0  0  0  0  0
  -31.8600  -20.0490   21.8694 H   0  0  0  0  0  0
  -25.1470  -19.9579   23.7485 H   0  0  0  0  0  0
  -26.3602  -21.0003   23.0358 H   0  0  0  0  0  0
  -26.8511  -19.5569   23.9206 H   0  0  0  0  0  0
  -23.9215  -19.6763   21.6031 H   0  0  0  0  0  0
  -24.6768  -18.8549   20.2374 H   0  0  0  0  0  0
  -25.0533  -20.5424   20.5640 H   0  0  0  0  0  0
  -27.6466  -17.8448   21.5157 H   0  0  0  0  0  0
  -27.1075  -18.7126   20.1171 H   0  0  0  0  0  0
  -29.5319  -17.4569   22.5991 H   0  0  0  0  0  0
  -31.1832  -17.8069   22.2588 H   0  0  0  0  0  0
  -31.1674  -17.0869   20.0294 H   0  0  0  0  0  0
  -29.4470  -17.2298   19.8588 H   0  0  0  0  0  0
  -27.9029  -23.4447   19.3025 H   0  0  0  0  0  0
  -27.3226  -24.2672   20.7194 H   0  0  0  0  0  0
  -28.1526  -25.5864   18.4501 H   0  0  0  0  0  0
  -29.6934  -25.4251   19.1728 H   0  0  0  0  0  0
  -25.6526  -18.1204   22.2962 H   0  0  0  0  0  0
  -30.1407  -24.0033   20.9987 H   0  0  0  0  0  0
  -29.0620  -15.2797   21.2281 H   0  0  0  0  0  0
  1 25  1  0  0  0
  1 30  2  0  0  0
  1 86  1  0  0  0
  2  3  1  0  0  0
  2 25  1  0  0  0
  2 87  1  0  0  0
  2 88  1  0  0  0
  3  4  1  0  0  0
  3 89  1  0  0  0
  3 90  1  0  0  0
  4  5  1  0  0  0
  4 91  1  0  0  0
  4 92  1  0  0  0
  5  6  1  0  0  0
  5 26  1  0  0  0
  5 93  1  0  0  0
  6 25  1  0  0  0
  6 94  1  0  0  0
  6 95  1  0  0  0
  7  8  2  0  0  0
  7 26  1  0  0  0
  7 29  1  0  0  0
  8  9  1  0  0  0
  8 22  1  0  0  0
  9 10  1  0  0  0
  9 27  2  0  0  0
 10 11  2  0  0  0
 10 15  1  0  0  0
 11 12  1  0  0  0
 11 96  1  0  0  0
 12 13  2  0  0  0
 12 97  1  0  0  0
 13 14  1  0  0  0
 13 31  1  0  0  0
 14 15  2  0  0  0
 14 98  1  0  0  0
 15 99  1  0  0  0
 16 17  2  0  0  0
 16 21  1  0  0  0
 16 31  1  0  0  0
 17 18  1  0  0  0
 17100  1  0  0  0
 18 19  2  0  0  0
 18101  1  0  0  0
 19 20  1  0  0  0
 19 24  1  0  0  0
 20 21  2  0  0  0
 20102  1  0  0  0
 21 23  1  0  0  0
 22 28  1  0  0  0
 22 32  2  0  0  0
 26 27  1  0  0  0
 28103  1  0  0  0
 28104  1  0  0  0
 29105  1  0  0  0
 29106  1  0  0  0
 33 34  1  0  0  0
 33 66  1  0  0  0
 33 70  2  0  0  0
 34 36  1  0  0  0
 34 59  1  0  0  0
 34107  1  0  0  0
 35 44  2  0  0  0
 35 45  1  0  0  0
 35 68  1  0  0  0
 36 56  1  0  0  0
 36108  1  0  0  0
 37 39  1  0  0  0
 37 47  1  0  0  0
 37 66  1  0  0  0
 37109  1  0  0  0
 38 43  2  0  0  0
 38 46  1  0  0  0
 38 47  1  0  0  0
 39 64  1  0  0  0
 39 67  2  0  0  0
 40 52  1  0  0  0
 40 53  2  0  0  0
 40 58  1  0  0  0
 41110  1  0  0  0
 41111  1  0  0  0
 41112  1  0  0  0
 41 48  1  0  0  0
 42 43  1  0  0  0
 42 66  1  0  0  0
 42113  1  0  0  0
 42114  1  0  0  0
 43 44  1  0  0  0
 44115  1  0  0  0
 45 46  2  0  0  0
 45116  1  0  0  0
 46117  1  0  0  0
 47118  1  0  0  0
 47119  1  0  0  0
 48 56  1  0  0  0
 48 65  1  0  0  0
 48120  1  0  0  0
 49 50  1  0  0  0
 49 53  1  0  0  0
 49 64  1  0  0  0
 49121  1  0  0  0
 50 51  1  0  0  0
 50122  1  0  0  0
 50123  1  0  0  0
 51 52  1  0  0  0
 51124  1  0  0  0
 51125  1  0  0  0
 52126  1  0  0  0
 52127  1  0  0  0
 53 54  1  0  0  0
 54 55  2  0  0  0
 54128  1  0  0  0
 55 57  1  0  0  0
 55129  1  0  0  0
 56 69  2  0  0  0
 57 58  2  0  0  0
 57130  1  0  0  0
 58131  1  0  0  0
 59 60  1  0  0  0
 59 61  1  0  0  0
 59 62  1  0  0  0
 60132  1  0  0  0
 60133  1  0  0  0
 60134  1  0  0  0
 61135  1  0  0  0
 61136  1  0  0  0
 61137  1  0  0  0
 62138  1  0  0  0
 62139  1  0  0  0
 62140  1  0  0  0
 63 65  1  0  0  0
 63141  1  0  0  0
 63142  1  0  0  0
 63143  1  0  0  0
 64144  1  0  0  0
 65145  1  0  0  0
 68 82  1  0  0  0
 71 73  2  0  0  0
 71 75  1  0  0  0
 71146  1  0  0  0
 72 74  2  0  0  0
 72 84  1  0  0  0
 72147  1  0  0  0
 73 74  1  0  0  0
 73 78  1  0  0  0
 74 79  1  0  0  0
 75 84  2  0  0  0
 75 85  1  0  0  0
 76148  1  0  0  0
 76149  1  0  0  0
 76150  1  0  0  0
 76 83  1  0  0  0
 77 83  1  0  0  0
 77151  1  0  0  0
 77152  1  0  0  0
 77153  1  0  0  0
 78 83  1  0  0  0
 78154  1  0  0  0
 78155  1  0  0  0
 79 80  1  0  0  0
 79156  1  0  0  0
 79157  1  0  0  0
 80 86  1  0  0  0
 80158  1  0  0  0
 80159  1  0  0  0
 81 82  1  0  0  0
 81 85  1  0  0  0
 81160  1  0  0  0
 81161  1  0  0  0
 82162  1  0  0  0
 82163  1  0  0  0
 83164  1  0  0  0
 85165  1  0  0  0
 86166  1  0  0  0
M  ISO  4   1 100  68 101  82 101  86 100
M  END
> <chiral flag>
0

> <version>
0

> <s_m_source_file>
/data/baiqing/PycharmProjects/Reinvent-master-3.2/result/LINK_invent/BTK/process_docking_weight1_custom_sum_contain_oxygen_bond_distance_aromatic_linkinvent_7_9_3/rearranged_h_0138.sdf

> <i_m_source_file_index>
24

> <r_mmod_Potential_Energy-OPLS-2005>
-270.0986328125

> <r_mmod_Stretch_Energy-OPLS-2005>
47.368724822998

> <r_mmod_Bend_Energy-OPLS-2005>
142.877655029297

> <r_mmod_Torsional_Energy-OPLS-2005>
210.151397705078

> <r_mmod_Improper_Torsional_Energy-OPLS-2005>
6.68041133880615

> <r_mmod_Van_der_Waal_Energy-OPLS-2005>
145.583450317383

> <r_mmod_Electrostatic_Energy-OPLS-2005>
-607.632751464844

> <r_mmod_Solvation_Energy-OPLS-2005>
-235.329116821289

> <b_mmod_Minimization_Converged-OPLS-2005>
0

> <r_mmod_RMS_Derivative-OPLS-2005>
8.43496513366699

$$$$
24
                    3D
 Structure written by MMmdl.
155164  0  0  1  0            999 V2000
  -30.4994  -14.9195   20.4407 C   0  0  0  0  0  0
  -30.4569  -12.5677   19.4919 C   0  0  0  0  0  0
  -29.5285  -12.5383   18.2532 C   0  0  0  0  0  0
  -28.0582  -12.3242   18.6661 C   0  0  0  0  0  0
  -27.6398  -13.2364   19.8482 C   0  0  2  0  0  0
  -28.6830  -13.2081   20.9867 C   0  0  0  0  0  0
  -25.2508  -13.8186   20.5693 C   0  0  0  0  0  0
  -24.1808  -13.0434   20.9227 C   0  0  0  0  0  0
  -24.6403  -11.6914   20.8751 C   0  0  0  0  0  0
  -23.9077  -10.4291   21.0409 C   0  0  0  0  0  0
  -24.3622   -9.4204   21.9186 C   0  0  0  0  0  0
  -23.6293   -8.2243   22.0757 C   0  0  0  0  0  0
  -22.4274   -8.0283   21.3547 C   0  0  0  0  0  0
  -21.9912   -9.0260   20.4650 C   0  0  0  0  0  0
  -22.7247  -10.2136   20.3058 C   0  0  0  0  0  0
  -21.6853   -6.0736   22.5278 C   0  0  0  0  0  0
  -21.4016   -6.5639   23.8213 C   0  0  0  0  0  0
  -21.3660   -5.6790   24.9174 C   0  0  0  0  0  0
  -21.6044   -4.3053   24.7224 C   0  0  0  0  0  0
  -21.8818   -3.8146   23.4346 C   0  0  0  0  0  0
  -21.9193   -4.6964   22.3402 C   0  0  0  0  0  0
  -22.7830  -13.5221   21.1878 C   0  0  0  0  0  0
  -22.1659   -4.2151   21.0981 F   0  0  0  0  0  0
  -21.5629   -3.4535   25.7736 F   0  0  0  0  0  0
  -29.9673  -13.6337   20.4080 N   0  0  0  0  0  0
  -26.2929  -12.9396   20.3246 N   0  0  0  0  0  0
  -25.9331  -11.6539   20.5728 N   0  0  0  0  0  0
  -22.0464  -12.8218   22.0427 N   0  0  0  0  0  0
  -25.4187  -15.1906   20.4081 N   0  0  0  0  0  0
  -31.6798  -15.0786   20.1099 O   0  0  0  0  0  0
  -21.6638   -6.8878   21.4241 O   0  0  0  0  0  0
  -22.3524  -14.5529   20.6720 O   0  0  0  0  0  0
  -24.6426  -31.8448   23.1888 C   0  0  0  0  0  0
  -25.9199  -32.4700   23.8276 C   0  0  1  0  0  0
  -27.2219  -27.1445   20.1482 C   0  0  0  0  0  0
  -25.5949  -33.8506   24.2191 N   0  0  0  0  0  0
  -23.4461  -30.4642   21.5347 C   0  0  2  0  0  0
  -24.8962  -28.8924   20.1121 C   0  0  0  0  0  0
  -22.7561  -29.4549   22.4865 C   0  0  0  0  0  0
  -18.0303  -28.1396   22.8474 C   0  0  0  0  0  0
  -24.1492  -36.7257   23.2642 C   0  0  0  0  0  0
  -26.0023  -30.7208   21.3871 C   0  0  0  0  0  0
  -26.0743  -29.3331   20.7280 C   0  0  0  0  0  0
  -27.2381  -28.4762   20.7277 C   0  0  0  0  0  0
  -26.0145  -26.8033   19.4972 C   0  0  0  0  0  0
  -24.8789  -27.6400   19.4821 C   0  0  0  0  0  0
  -23.6724  -29.7936   20.1543 C   0  0  0  0  0  0
  -25.4125  -36.3037   24.0314 C   0  0  1  0  0  0
  -20.5914  -28.3721   23.1236 C   0  0  2  0  0  0
  -20.6791  -26.9423   22.5405 C   0  0  0  0  0  0
  -19.5766  -26.6380   21.5212 C   0  0  0  0  0  0
  -18.1944  -26.7934   22.1620 C   0  0  0  0  0  0
  -19.1558  -28.8876   23.2848 C   0  0  0  0  0  0
  -18.9475  -30.1471   23.8875 C   0  0  0  0  0  0
  -17.6472  -30.6594   24.0557 C   0  0  0  0  0  0
  -25.9072  -34.9411   23.5062 C   0  0  0  0  0  0
  -16.5363  -29.9085   23.6338 C   0  0  0  0  0  0
  -16.7287  -28.6503   23.0358 C   0  0  0  0  0  0
  -26.4521  -31.6569   25.0717 C   0  0  0  0  0  0
  -25.3705  -31.3761   26.1412 C   0  0  0  0  0  0
  -27.0387  -30.2965   24.6300 C   0  0  0  0  0  0
  -27.6051  -32.4336   25.7504 C   0  0  0  0  0  0
  -27.5578  -37.1784   24.8462 C   0  0  0  0  0  0
  -21.4253  -29.3048   22.3609 N   0  0  0  0  0  0
  -26.4290  -37.3748   23.9406 N   0  0  0  0  0  0
  -24.7168  -31.0307   22.0921 N   0  0  0  0  0  0
  -23.4206  -28.8094   23.3012 O   0  0  0  0  0  0
  -28.2806  -26.1659   20.2126 O   0  0  0  0  0  0
  -26.5659  -34.8906   22.4641 O   0  0  0  0  0  0
  -23.5545  -32.1321   23.7110 O   0  0  0  0  0  0
  -28.2181  -18.0837   20.9402 C   0  0  0  0  0  0
  -30.3864  -18.5626   20.2077 C   0  0  0  0  0  0
  -27.8990  -19.4868   20.8653 C   0  0  0  0  0  0
  -29.4772  -17.5112   20.5985 C   0  0  0  0  0  0
  -28.8592  -20.4624   20.4547 C   0  0  0  0  0  0
  -25.2815  -19.1191   20.8910 C   0  0  0  0  0  0
  -25.5262  -20.4747   20.2745 C   0  0  0  0  0  0
  -26.5127  -19.9122   21.2748 C   0  0  0  0  0  0
  -29.0094  -23.3151   20.3251 C   0  0  0  0  0  0
  -27.9864  -24.6413   20.1093 C   0  0  0  0  0  0
  -30.1000  -19.9446   20.1475 N   0  0  0  0  0  0
  -29.6094  -15.9847   20.7041 N   0  0  0  0  0  0
  -28.4217  -21.8773   20.3365 N   0  0  0  0  0  0
  -31.4882  -12.7463   19.1829 H   0  0  0  0  0  0
  -30.4601  -11.6003   19.9964 H   0  0  0  0  0  0
  -29.8422  -11.7545   17.5623 H   0  0  0  0  0  0
  -29.6204  -13.4791   17.7083 H   0  0  0  0  0  0
  -27.9443  -11.2780   18.9523 H   0  0  0  0  0  0
  -27.3981  -12.4802   17.8123 H   0  0  0  0  0  0
  -27.6187  -14.2494   19.4461 H   0  0  0  0  0  0
  -28.7610  -12.2087   21.4179 H   0  0  0  0  0  0
  -28.3832  -13.8654   21.8043 H   0  0  0  0  0  0
  -25.2767   -9.5680   22.4761 H   0  0  0  0  0  0
  -24.0002   -7.4633   22.7473 H   0  0  0  0  0  0
  -21.0845   -8.8782   19.8954 H   0  0  0  0  0  0
  -22.3708  -10.9676   19.6168 H   0  0  0  0  0  0
  -21.2009   -7.6146   23.9717 H   0  0  0  0  0  0
  -21.1483   -6.0519   25.9077 H   0  0  0  0  0  0
  -22.0597   -2.7609   23.2844 H   0  0  0  0  0  0
  -22.4071  -11.9880   22.4823 H   0  0  0  0  0  0
  -21.1083  -13.1252   22.2624 H   0  0  0  0  0  0
  -24.6355  -15.8286   20.4933 H   0  0  0  0  0  0
  -26.2303  -15.6139   19.9791 H   0  0  0  0  0  0
  -26.7263  -32.5308   23.1004 H   0  0  0  0  0  0
  -25.0076  -33.9620   25.0325 H   0  0  0  0  0  0
  -22.7485  -31.2902   21.3807 H   0  0  0  0  0  0
  -23.3762  -35.9580   23.3290 H   0  0  0  0  0  0
  -24.3579  -36.8905   22.2060 H   0  0  0  0  0  0
  -23.7238  -37.6445   23.6690 H   0  0  0  0  0  0
  -26.1580  -31.4759   20.6154 H   0  0  0  0  0  0
  -26.8724  -30.7704   22.0301 H   0  0  0  0  0  0
  -28.1356  -28.8096   21.2295 H   0  0  0  0  0  0
  -25.9095  -25.8480   19.0071 H   0  0  0  0  0  0
  -23.9791  -27.2961   18.9912 H   0  0  0  0  0  0
  -23.8089  -30.5684   19.3991 H   0  0  0  0  0  0
  -22.7873  -29.2356   19.8435 H   0  0  0  0  0  0
  -25.1313  -36.1868   25.0806 H   0  0  0  0  0  0
  -21.0007  -28.3315   24.1356 H   0  0  0  0  0  0
  -20.5689  -26.2329   23.3621 H   0  0  0  0  0  0
  -21.6656  -26.7433   22.1199 H   0  0  0  0  0  0
  -19.6928  -25.6284   21.1257 H   0  0  0  0  0  0
  -19.6710  -27.3177   20.6731 H   0  0  0  0  0  0
  -17.4212  -26.6673   21.4025 H   0  0  0  0  0  0
  -18.0348  -26.0086   22.9027 H   0  0  0  0  0  0
  -19.7950  -30.7292   24.2238 H   0  0  0  0  0  0
  -17.5026  -31.6273   24.5161 H   0  0  0  0  0  0
  -15.5362  -30.2980   23.7678 H   0  0  0  0  0  0
  -15.8685  -28.0815   22.7092 H   0  0  0  0  0  0
  -24.5875  -30.7124   25.7725 H   0  0  0  0  0  0
  -24.8903  -32.2947   26.4793 H   0  0  0  0  0  0
  -25.7979  -30.8952   27.0218 H   0  0  0  0  0  0
  -26.3004  -29.6687   24.1297 H   0  0  0  0  0  0
  -27.3987  -29.7267   25.4877 H   0  0  0  0  0  0
  -27.8918  -30.4200   23.9627 H   0  0  0  0  0  0
  -27.2641  -33.3653   26.2031 H   0  0  0  0  0  0
  -28.3888  -32.6871   25.0353 H   0  0  0  0  0  0
  -28.0690  -31.8496   26.5463 H   0  0  0  0  0  0
  -28.2582  -38.0093   24.7516 H   0  0  0  0  0  0
  -28.1088  -36.2621   24.6284 H   0  0  0  0  0  0
  -27.2293  -37.1424   25.8864 H   0  0  0  0  0  0
  -20.9463  -29.8754   21.6783 H   0  0  0  0  0  0
  -26.0158  -38.2815   24.1417 H   0  0  0  0  0  0
  -27.4407  -17.4120   21.2742 H   0  0  0  0  0  0
  -31.3942  -18.2976   19.9240 H   0  0  0  0  0  0
  -25.3926  -18.2582   20.2347 H   0  0  0  0  0  0
  -24.4753  -19.0486   21.6191 H   0  0  0  0  0  0
  -24.8748  -21.2845   20.5997 H   0  0  0  0  0  0
  -25.8083  -20.4942   19.2233 H   0  0  0  0  0  0
  -26.5292  -20.3576   22.2684 H   0  0  0  0  0  0
  -29.5281  -23.4447   21.2751 H   0  0  0  0  0  0
  -29.7877  -23.3486   19.5623 H   0  0  0  0  0  0
  -27.1523  -24.4781   20.7928 H   0  0  0  0  0  0
  -27.5712  -24.4936   19.1130 H   0  0  0  0  0  0
  -28.7374  -15.5698   20.9970 H   0  0  0  0  0  0
  -27.4173  -21.9292   20.4650 H   0  0  0  0  0  0
  1 25  1  0  0  0
  1 30  2  0  0  0
  1 82  1  0  0  0
  2  3  1  0  0  0
  2 25  1  0  0  0
  2 84  1  0  0  0
  2 85  1  0  0  0
  3  4  1  0  0  0
  3 86  1  0  0  0
  3 87  1  0  0  0
  4  5  1  0  0  0
  4 88  1  0  0  0
  4 89  1  0  0  0
  5  6  1  0  0  0
  5 26  1  0  0  0
  5 90  1  0  0  0
  6 25  1  0  0  0
  6 91  1  0  0  0
  6 92  1  0  0  0
  7  8  2  0  0  0
  7 26  1  0  0  0
  7 29  1  0  0  0
  8  9  1  0  0  0
  8 22  1  0  0  0
  9 10  1  0  0  0
  9 27  2  0  0  0
 10 11  2  0  0  0
 10 15  1  0  0  0
 11 12  1  0  0  0
 11 93  1  0  0  0
 12 13  2  0  0  0
 12 94  1  0  0  0
 13 14  1  0  0  0
 13 31  1  0  0  0
 14 15  2  0  0  0
 14 95  1  0  0  0
 15 96  1  0  0  0
 16 17  2  0  0  0
 16 21  1  0  0  0
 16 31  1  0  0  0
 17 18  1  0  0  0
 17 97  1  0  0  0
 18 19  2  0  0  0
 18 98  1  0  0  0
 19 20  1  0  0  0
 19 24  1  0  0  0
 20 21  2  0  0  0
 20 99  1  0  0  0
 21 23  1  0  0  0
 22 28  1  0  0  0
 22 32  2  0  0  0
 26 27  1  0  0  0
 28100  1  0  0  0
 28101  1  0  0  0
 29102  1  0  0  0
 29103  1  0  0  0
 33 34  1  0  0  0
 33 66  1  0  0  0
 33 70  2  0  0  0
 34 36  1  0  0  0
 34 59  1  0  0  0
 34104  1  0  0  0
 35 44  2  0  0  0
 35 45  1  0  0  0
 35 68  1  0  0  0
 36 56  1  0  0  0
 36105  1  0  0  0
 37 39  1  0  0  0
 37 47  1  0  0  0
 37 66  1  0  0  0
 37106  1  0  0  0
 38 43  2  0  0  0
 38 46  1  0  0  0
 38 47  1  0  0  0
 39 64  1  0  0  0
 39 67  2  0  0  0
 40 52  1  0  0  0
 40 53  2  0  0  0
 40 58  1  0  0  0
 41107  1  0  0  0
 41108  1  0  0  0
 41109  1  0  0  0
 41 48  1  0  0  0
 42 43  1  0  0  0
 42 66  1  0  0  0
 42110  1  0  0  0
 42111  1  0  0  0
 43 44  1  0  0  0
 44112  1  0  0  0
 45 46  2  0  0  0
 45113  1  0  0  0
 46114  1  0  0  0
 47115  1  0  0  0
 47116  1  0  0  0
 48 56  1  0  0  0
 48 65  1  0  0  0
 48117  1  0  0  0
 49 50  1  0  0  0
 49 53  1  0  0  0
 49 64  1  0  0  0
 49118  1  0  0  0
 50 51  1  0  0  0
 50119  1  0  0  0
 50120  1  0  0  0
 51 52  1  0  0  0
 51121  1  0  0  0
 51122  1  0  0  0
 52123  1  0  0  0
 52124  1  0  0  0
 53 54  1  0  0  0
 54 55  2  0  0  0
 54125  1  0  0  0
 55 57  1  0  0  0
 55126  1  0  0  0
 56 69  2  0  0  0
 57 58  2  0  0  0
 57127  1  0  0  0
 58128  1  0  0  0
 59 60  1  0  0  0
 59 61  1  0  0  0
 59 62  1  0  0  0
 60129  1  0  0  0
 60130  1  0  0  0
 60131  1  0  0  0
 61132  1  0  0  0
 61133  1  0  0  0
 61134  1  0  0  0
 62135  1  0  0  0
 62136  1  0  0  0
 62137  1  0  0  0
 63 65  1  0  0  0
 63138  1  0  0  0
 63139  1  0  0  0
 63140  1  0  0  0
 64141  1  0  0  0
 65142  1  0  0  0
 68 80  1  0  0  0
 71 73  2  0  0  0
 71 74  1  0  0  0
 71143  1  0  0  0
 72 74  2  0  0  0
 72 81  1  0  0  0
 72144  1  0  0  0
 73 75  1  0  0  0
 73 78  1  0  0  0
 74 82  1  0  0  0
 75 81  2  0  0  0
 75 83  1  0  0  0
 76 77  1  0  0  0
 76 78  1  0  0  0
 76145  1  0  0  0
 76146  1  0  0  0
 77 78  1  0  0  0
 77147  1  0  0  0
 77148  1  0  0  0
 78149  1  0  0  0
 79 80  1  0  0  0
 79 83  1  0  0  0
 79150  1  0  0  0
 79151  1  0  0  0
 80152  1  0  0  0
 80153  1  0  0  0
 82154  1  0  0  0
 83155  1  0  0  0
M  ISO  4   1 100  68 101  80 101  82 100
M  END
> <chiral flag>
0

> <version>
0

> <s_m_source_file>
/data/baiqing/PycharmProjects/Reinvent-master-3.2/result/LINK_invent/BTK/process_docking_weight1_custom_sum_contain_oxygen_bond_distance_aromatic_linkinvent_7_9_3/rearranged_h_0138.sdf

> <i_m_source_file_index>
25

> <r_mmod_Potential_Energy-OPLS-2005>
249.037216186523

> <r_mmod_Stretch_Energy-OPLS-2005>
215.987655639648

> <r_mmod_Bend_Energy-OPLS-2005>
305.989929199219

> <r_mmod_Torsional_Energy-OPLS-2005>
234.805328369141

> <r_mmod_Improper_Torsional_Energy-OPLS-2005>
4.7186107635498

> <r_mmod_Van_der_Waal_Energy-OPLS-2005>
129.768524169922

> <r_mmod_Electrostatic_Energy-OPLS-2005>
-582.562072753906

> <r_mmod_Solvation_Energy-OPLS-2005>
-239.815383911133

> <b_mmod_Minimization_Converged-OPLS-2005>
0

> <r_mmod_RMS_Derivative-OPLS-2005>
0.523104608058929

$$$$
25
                    3D
 Structure written by MMmdl.
161170  0  0  1  0            999 V2000
  -30.7164  -14.5191   20.5324 C   0  0  0  0  0  0
  -30.4148  -12.3282   19.4253 C   0  0  0  0  0  0
  -29.4880  -12.4822   18.2028 C   0  0  0  0  0  0
  -28.0151  -12.3016   18.6220 C   0  0  0  0  0  0
  -27.6419  -13.1763   19.8450 C   0  0  2  0  0  0
  -28.6937  -13.0547   20.9753 C   0  0  0  0  0  0
  -25.2546  -13.8050   20.5630 C   0  0  0  0  0  0
  -24.1792  -13.0373   20.9187 C   0  0  0  0  0  0
  -24.6319  -11.6836   20.8759 C   0  0  0  0  0  0
  -23.8977  -10.4254   21.0423 C   0  0  0  0  0  0
  -24.3557   -9.4184   21.9198 C   0  0  0  0  0  0
  -23.6256   -8.2209   22.0752 C   0  0  0  0  0  0
  -22.4248   -8.0240   21.3526 C   0  0  0  0  0  0
  -21.9865   -9.0212   20.4639 C   0  0  0  0  0  0
  -22.7165  -10.2108   20.3057 C   0  0  0  0  0  0
  -21.6847   -6.0700   22.5265 C   0  0  0  0  0  0
  -21.4008   -6.5610   23.8200 C   0  0  0  0  0  0
  -21.3673   -5.6771   24.9169 C   0  0  0  0  0  0
  -21.6049   -4.3030   24.7222 C   0  0  0  0  0  0
  -21.8829   -3.8118   23.4350 C   0  0  0  0  0  0
  -21.9194   -4.6924   22.3402 C   0  0  0  0  0  0
  -22.7836  -13.5215   21.1876 C   0  0  0  0  0  0
  -22.1662   -4.2109   21.0978 F   0  0  0  0  0  0
  -21.5656   -3.4525   25.7746 F   0  0  0  0  0  0
  -30.0184  -13.3512   20.4078 N   0  0  0  0  0  0
  -26.2919  -12.9138   20.3256 N   0  0  0  0  0  0
  -25.9219  -11.6347   20.5750 N   0  0  0  0  0  0
  -22.0467  -12.8218   22.0427 N   0  0  0  0  0  0
  -25.4296  -15.1757   20.3984 N   0  0  0  0  0  0
  -31.8912  -14.6218   20.1707 O   0  0  0  0  0  0
  -21.6629   -6.8826   21.4221 O   0  0  0  0  0  0
  -22.3543  -14.5535   20.6738 O   0  0  0  0  0  0
  -24.6131  -31.8675   23.2068 C   0  0  0  0  0  0
  -25.9013  -32.4829   23.8389 C   0  0  1  0  0  0
  -27.2445  -27.4315   20.1060 C   0  0  0  0  0  0
  -25.5856  -33.8632   24.2316 N   0  0  0  0  0  0
  -23.4016  -30.4873   21.5486 C   0  0  2  0  0  0
  -24.8521  -28.9456   20.1223 C   0  0  0  0  0  0
  -22.7411  -29.4636   22.4998 C   0  0  0  0  0  0
  -18.0259  -28.1379   22.8486 C   0  0  0  0  0  0
  -24.1483  -36.7318   23.2640 C   0  0  0  0  0  0
  -25.9302  -30.8348   21.3578 C   0  0  0  0  0  0
  -26.0118  -29.4658   20.7108 C   0  0  0  0  0  0
  -27.2129  -28.7193   20.6908 C   0  0  0  0  0  0
  -26.0666  -26.9194   19.5231 C   0  0  0  0  0  0
  -24.8740  -27.6714   19.5261 C   0  0  0  0  0  0
  -23.6125  -29.8127   20.1663 C   0  0  0  0  0  0
  -25.4110  -36.3132   24.0341 C   0  0  1  0  0  0
  -20.5854  -28.3652   23.1340 C   0  0  2  0  0  0
  -20.6759  -26.9389   22.5435 C   0  0  0  0  0  0
  -19.5739  -26.6377   21.5227 C   0  0  0  0  0  0
  -18.1909  -26.7918   22.1629 C   0  0  0  0  0  0
  -19.1513  -28.8832   23.2896 C   0  0  0  0  0  0
  -18.9443  -30.1432   23.8903 C   0  0  0  0  0  0
  -17.6455  -30.6580   24.0562 C   0  0  0  0  0  0
  -25.9038  -34.9486   23.5139 C   0  0  0  0  0  0
  -16.5340  -29.9092   23.6331 C   0  0  0  0  0  0
  -16.7250  -28.6509   23.0348 C   0  0  0  0  0  0
  -26.4432  -31.6617   25.0724 C   0  0  0  0  0  0
  -25.3671  -31.3757   26.1459 C   0  0  0  0  0  0
  -27.0258  -30.3058   24.6102 C   0  0  0  0  0  0
  -27.6012  -32.4332   25.7486 C   0  0  0  0  0  0
  -27.5585  -37.1809   24.8461 C   0  0  0  0  0  0
  -21.4139  -29.3018   22.3753 N   0  0  0  0  0  0
  -26.4298  -37.3814   23.9412 N   0  0  0  0  0  0
  -24.6667  -31.0775   22.0965 N   0  0  0  0  0  0
  -23.4198  -28.8180   23.3033 O   0  0  0  0  0  0
  -28.4294  -26.7266   20.0639 O   0  0  0  0  0  0
  -26.5625  -34.8940   22.4717 O   0  0  0  0  0  0
  -23.5318  -32.1432   23.7455 O   0  0  0  0  0  0
  -30.0754  -22.3233   19.5312 C   0  0  0  0  0  0
  -30.5820  -21.0862   19.9835 C   0  0  0  0  0  0
  -28.3511  -22.2318   21.2354 C   0  0  0  0  0  0
  -28.9506  -22.9098   20.1491 C   0  0  0  0  0  0
  -28.8703  -20.9977   21.7068 C   0  0  0  0  0  0
  -29.9893  -20.4007   21.0636 C   0  0  0  0  0  0
  -29.2924  -17.7194   20.0044 C   0  0  0  0  0  0
  -29.0248  -16.2190   20.0633 C   0  0  0  0  0  0
  -30.6705  -16.7411   21.6702 C   0  0  0  0  0  0
  -29.8280  -18.0058   21.3922 C   0  0  2  0  0  0
  -28.2337  -20.3692   22.9327 C   0  0  0  0  0  0
  -28.4007  -24.2492   19.6294 C   0  0  0  0  0  0
  -28.4593  -25.4135   20.6519 C   0  0  0  0  0  0
  -30.0283  -15.6178   20.9529 N   0  0  0  0  0  0
  -30.5870  -19.2193   21.4711 O   0  0  0  0  0  0
  -31.4587  -12.4166   19.1200 H   0  0  0  0  0  0
  -30.3092  -11.3304   19.8556 H   0  0  0  0  0  0
  -29.7498  -11.7511   17.4372 H   0  0  0  0  0  0
  -29.6288  -13.4629   17.7447 H   0  0  0  0  0  0
  -27.8606  -11.2476   18.8584 H   0  0  0  0  0  0
  -27.3538  -12.5195   17.7820 H   0  0  0  0  0  0
  -27.6292  -14.1865   19.4597 H   0  0  0  0  0  0
  -28.6892  -12.0469   21.3924 H   0  0  0  0  0  0
  -28.4464  -13.7224   21.8024 H   0  0  0  0  0  0
  -25.2707   -9.5683   22.4760 H   0  0  0  0  0  0
  -23.9985   -7.4603   22.7460 H   0  0  0  0  0  0
  -21.0809   -8.8694   19.8943 H   0  0  0  0  0  0
  -22.3602  -10.9636   19.6163 H   0  0  0  0  0  0
  -21.1979   -7.6115   23.9677 H   0  0  0  0  0  0
  -21.1509   -6.0511   25.9067 H   0  0  0  0  0  0
  -22.0605   -2.7570   23.2861 H   0  0  0  0  0  0
  -22.4071  -11.9858   22.4793 H   0  0  0  0  0  0
  -21.1093  -13.1261   22.2644 H   0  0  0  0  0  0
  -24.6689  -15.8365   20.5088 H   0  0  0  0  0  0
  -26.2804  -15.6049   20.0621 H   0  0  0  0  0  0
  -26.7091  -32.5545   23.1167 H   0  0  0  0  0  0
  -24.9972  -33.9804   25.0437 H   0  0  0  0  0  0
  -22.6874  -31.3006   21.4043 H   0  0  0  0  0  0
  -23.3757  -35.9637   23.3322 H   0  0  0  0  0  0
  -24.3567  -36.8916   22.2047 H   0  0  0  0  0  0
  -23.7225  -37.6526   23.6643 H   0  0  0  0  0  0
  -26.0389  -31.5953   20.5830 H   0  0  0  0  0  0
  -26.8185  -30.8950   21.9736 H   0  0  0  0  0  0
  -28.1138  -29.1222   21.1313 H   0  0  0  0  0  0
  -26.0709  -25.9499   19.0475 H   0  0  0  0  0  0
  -23.9825  -27.2653   19.0682 H   0  0  0  0  0  0
  -23.7152  -30.5836   19.4006 H   0  0  0  0  0  0
  -22.7390  -29.2281   19.8728 H   0  0  0  0  0  0
  -25.1283  -36.2019   25.0837 H   0  0  0  0  0  0
  -20.9927  -28.3204   24.1469 H   0  0  0  0  0  0
  -20.5688  -26.2233   23.3612 H   0  0  0  0  0  0
  -21.6621  -26.7437   22.1206 H   0  0  0  0  0  0
  -19.6899  -25.6297   21.1230 H   0  0  0  0  0  0
  -19.6691  -27.3210   20.6785 H   0  0  0  0  0  0
  -17.4187  -26.6658   21.4026 H   0  0  0  0  0  0
  -18.0286  -26.0068   22.9033 H   0  0  0  0  0  0
  -19.7923  -30.7231   24.2287 H   0  0  0  0  0  0
  -17.5018  -31.6263   24.5158 H   0  0  0  0  0  0
  -15.5347  -30.3008   23.7646 H   0  0  0  0  0  0
  -15.8643  -28.0839   22.7076 H   0  0  0  0  0  0
  -24.5836  -30.7115   25.7800 H   0  0  0  0  0  0
  -24.8850  -32.2919   26.4874 H   0  0  0  0  0  0
  -25.7965  -30.8949   27.0250 H   0  0  0  0  0  0
  -26.2819  -29.6853   24.1093 H   0  0  0  0  0  0
  -27.3971  -29.7268   25.4567 H   0  0  0  0  0  0
  -27.8668  -30.4390   23.9295 H   0  0  0  0  0  0
  -27.2652  -33.3641   26.2071 H   0  0  0  0  0  0
  -28.3813  -32.6884   25.0299 H   0  0  0  0  0  0
  -28.0688  -31.8452   26.5393 H   0  0  0  0  0  0
  -28.2613  -38.0099   24.7533 H   0  0  0  0  0  0
  -28.1068  -36.2636   24.6262 H   0  0  0  0  0  0
  -27.2294  -37.1436   25.8860 H   0  0  0  0  0  0
  -20.9301  -29.8756   21.6986 H   0  0  0  0  0  0
  -26.0198  -38.2897   24.1418 H   0  0  0  0  0  0
  -30.5627  -22.8175   18.7020 H   0  0  0  0  0  0
  -31.4469  -20.6552   19.4989 H   0  0  0  0  0  0
  -27.4955  -22.6747   21.7279 H   0  0  0  0  0  0
  -28.4034  -18.3016   19.7563 H   0  0  0  0  0  0
  -30.0581  -17.9271   19.2539 H   0  0  0  0  0  0
  -28.0455  -16.0593   20.5098 H   0  0  0  0  0  0
  -29.0343  -15.7971   19.0561 H   0  0  0  0  0  0
  -30.7447  -16.5348   22.7388 H   0  0  0  0  0  0
  -31.6847  -16.8958   21.2977 H   0  0  0  0  0  0
  -29.0001  -18.0105   22.0973 H   0  0  0  0  0  0
  -27.7301  -21.1261   23.5337 H   0  0  0  0  0  0
  -28.9825  -19.8935   23.5674 H   0  0  0  0  0  0
  -27.4924  -19.6246   22.6426 H   0  0  0  0  0  0
  -27.3732  -24.0973   19.3006 H   0  0  0  0  0  0
  -28.9569  -24.5281   18.7322 H   0  0  0  0  0  0
  -29.4142  -25.3507   21.1750 H   0  0  0  0  0  0
  -27.6953  -25.2967   21.4228 H   0  0  0  0  0  0
  1 25  1  0  0  0
  1 30  2  0  0  0
  1 84  1  0  0  0
  2  3  1  0  0  0
  2 25  1  0  0  0
  2 86  1  0  0  0
  2 87  1  0  0  0
  3  4  1  0  0  0
  3 88  1  0  0  0
  3 89  1  0  0  0
  4  5  1  0  0  0
  4 90  1  0  0  0
  4 91  1  0  0  0
  5  6  1  0  0  0
  5 26  1  0  0  0
  5 92  1  0  0  0
  6 25  1  0  0  0
  6 93  1  0  0  0
  6 94  1  0  0  0
  7  8  2  0  0  0
  7 26  1  0  0  0
  7 29  1  0  0  0
  8  9  1  0  0  0
  8 22  1  0  0  0
  9 10  1  0  0  0
  9 27  2  0  0  0
 10 11  2  0  0  0
 10 15  1  0  0  0
 11 12  1  0  0  0
 11 95  1  0  0  0
 12 13  2  0  0  0
 12 96  1  0  0  0
 13 14  1  0  0  0
 13 31  1  0  0  0
 14 15  2  0  0  0
 14 97  1  0  0  0
 15 98  1  0  0  0
 16 17  2  0  0  0
 16 21  1  0  0  0
 16 31  1  0  0  0
 17 18  1  0  0  0
 17 99  1  0  0  0
 18 19  2  0  0  0
 18100  1  0  0  0
 19 20  1  0  0  0
 19 24  1  0  0  0
 20 21  2  0  0  0
 20101  1  0  0  0
 21 23  1  0  0  0
 22 28  1  0  0  0
 22 32  2  0  0  0
 26 27  1  0  0  0
 28102  1  0  0  0
 28103  1  0  0  0
 29104  1  0  0  0
 29105  1  0  0  0
 33 34  1  0  0  0
 33 66  1  0  0  0
 33 70  2  0  0  0
 34 36  1  0  0  0
 34 59  1  0  0  0
 34106  1  0  0  0
 35 44  2  0  0  0
 35 45  1  0  0  0
 35 68  1  0  0  0
 36 56  1  0  0  0
 36107  1  0  0  0
 37 39  1  0  0  0
 37 47  1  0  0  0
 37 66  1  0  0  0
 37108  1  0  0  0
 38 43  2  0  0  0
 38 46  1  0  0  0
 38 47  1  0  0  0
 39 64  1  0  0  0
 39 67  2  0  0  0
 40 52  1  0  0  0
 40 53  2  0  0  0
 40 58  1  0  0  0
 41109  1  0  0  0
 41110  1  0  0  0
 41111  1  0  0  0
 41 48  1  0  0  0
 42 43  1  0  0  0
 42 66  1  0  0  0
 42112  1  0  0  0
 42113  1  0  0  0
 43 44  1  0  0  0
 44114  1  0  0  0
 45 46  2  0  0  0
 45115  1  0  0  0
 46116  1  0  0  0
 47117  1  0  0  0
 47118  1  0  0  0
 48 56  1  0  0  0
 48 65  1  0  0  0
 48119  1  0  0  0
 49 50  1  0  0  0
 49 53  1  0  0  0
 49 64  1  0  0  0
 49120  1  0  0  0
 50 51  1  0  0  0
 50121  1  0  0  0
 50122  1  0  0  0
 51 52  1  0  0  0
 51123  1  0  0  0
 51124  1  0  0  0
 52125  1  0  0  0
 52126  1  0  0  0
 53 54  1  0  0  0
 54 55  2  0  0  0
 54127  1  0  0  0
 55 57  1  0  0  0
 55128  1  0  0  0
 56 69  2  0  0  0
 57 58  2  0  0  0
 57129  1  0  0  0
 58130  1  0  0  0
 59 60  1  0  0  0
 59 61  1  0  0  0
 59 62  1  0  0  0
 60131  1  0  0  0
 60132  1  0  0  0
 60133  1  0  0  0
 61134  1  0  0  0
 61135  1  0  0  0
 61136  1  0  0  0
 62137  1  0  0  0
 62138  1  0  0  0
 62139  1  0  0  0
 63 65  1  0  0  0
 63140  1  0  0  0
 63141  1  0  0  0
 63142  1  0  0  0
 64143  1  0  0  0
 65144  1  0  0  0
 68 83  1  0  0  0
 71 72  2  0  0  0
 71 74  1  0  0  0
 71145  1  0  0  0
 72 76  1  0  0  0
 72146  1  0  0  0
 73 74  2  0  0  0
 73 75  1  0  0  0
 73147  1  0  0  0
 74 82  1  0  0  0
 75 76  2  0  0  0
 75 81  1  0  0  0
 76 85  1  0  0  0
 77 78  1  0  0  0
 77 80  1  0  0  0
 77148  1  0  0  0
 77149  1  0  0  0
 78 84  1  0  0  0
 78150  1  0  0  0
 78151  1  0  0  0
 79 80  1  0  0  0
 79 84  1  0  0  0
 79152  1  0  0  0
 79153  1  0  0  0
 80 85  1  0  0  0
 80154  1  0  0  0
 81155  1  0  0  0
 81156  1  0  0  0
 81157  1  0  0  0
 82 83  1  0  0  0
 82158  1  0  0  0
 82159  1  0  0  0
 83160  1  0  0  0
 83161  1  0  0  0
M  ISO  4   1 100  68 101  83 101  84 100
M  END
> <chiral flag>
0

> <version>
0

> <s_m_source_file>
/data/baiqing/PycharmProjects/Reinvent-master-3.2/result/LINK_invent/BTK/process_docking_weight1_custom_sum_contain_oxygen_bond_distance_aromatic_linkinvent_7_9_3/rearranged_h_0138.sdf

> <i_m_source_file_index>
26

> <r_mmod_Potential_Energy-OPLS-2005>
175.431610107422

> <r_mmod_Stretch_Energy-OPLS-2005>
41.4651794433594

> <r_mmod_Bend_Energy-OPLS-2005>
131.572463989258

> <r_mmod_Torsional_Energy-OPLS-2005>
357.661743164062

> <r_mmod_Improper_Torsional_Energy-OPLS-2005>
6.72874641418457

> <r_mmod_Van_der_Waal_Energy-OPLS-2005>
144.9287109375

> <r_mmod_Electrostatic_Energy-OPLS-2005>
-325.827667236328

> <r_mmod_Solvation_Energy-OPLS-2005>
-202.030532836914

> <b_mmod_Minimization_Converged-OPLS-2005>
0

> <r_mmod_RMS_Derivative-OPLS-2005>
2.42607116699219

$$$$
26
                    3D
 Structure written by MMmdl.
158167  0  0  1  0            999 V2000
  -30.7004  -14.6813   20.5093 C   0  0  0  0  0  0
  -30.4140  -12.4291   19.4755 C   0  0  0  0  0  0
  -29.5003  -12.5080   18.2361 C   0  0  0  0  0  0
  -28.0271  -12.3468   18.6494 C   0  0  0  0  0  0
  -27.6436  -13.2415   19.8574 C   0  0  2  0  0  0
  -28.6890  -13.1718   20.9923 C   0  0  0  0  0  0
  -25.2500  -13.8225   20.5724 C   0  0  0  0  0  0
  -24.1803  -13.0450   20.9240 C   0  0  0  0  0  0
  -24.6423  -11.6939   20.8794 C   0  0  0  0  0  0
  -23.9108  -10.4302   21.0437 C   0  0  0  0  0  0
  -24.3639   -9.4216   21.9220 C   0  0  0  0  0  0
  -23.6302   -8.2251   22.0775 C   0  0  0  0  0  0
  -22.4293   -8.0296   21.3550 C   0  0  0  0  0  0
  -21.9949   -9.0279   20.4647 C   0  0  0  0  0  0
  -22.7288  -10.2150   20.3068 C   0  0  0  0  0  0
  -21.6853   -6.0748   22.5280 C   0  0  0  0  0  0
  -21.4017   -6.5648   23.8218 C   0  0  0  0  0  0
  -21.3658   -5.6792   24.9176 C   0  0  0  0  0  0
  -21.6041   -4.3053   24.7223 C   0  0  0  0  0  0
  -21.8822   -3.8153   23.4340 C   0  0  0  0  0  0
  -21.9195   -4.6976   22.3399 C   0  0  0  0  0  0
  -22.7820  -13.5227   21.1869 C   0  0  0  0  0  0
  -22.1662   -4.2166   21.0974 F   0  0  0  0  0  0
  -21.5626   -3.4531   25.7734 F   0  0  0  0  0  0
  -29.9995  -13.4981   20.4160 N   0  0  0  0  0  0
  -26.2952  -12.9465   20.3342 N   0  0  0  0  0  0
  -25.9355  -11.6598   20.5814 N   0  0  0  0  0  0
  -22.0438  -12.8204   22.0394 N   0  0  0  0  0  0
  -25.4148  -15.1942   20.4089 N   0  0  0  0  0  0
  -31.8450  -14.7484   20.0557 O   0  0  0  0  0  0
  -21.6642   -6.8900   21.4246 O   0  0  0  0  0  0
  -22.3520  -14.5542   20.6729 O   0  0  0  0  0  0
  -24.6290  -31.8573   23.2029 C   0  0  0  0  0  0
  -25.9121  -32.4768   23.8368 C   0  0  1  0  0  0
  -27.2228  -27.2866   20.1171 C   0  0  0  0  0  0
  -25.5924  -33.8571   24.2300 N   0  0  0  0  0  0
  -23.4241  -30.4824   21.5455 C   0  0  2  0  0  0
  -24.8713  -28.9395   20.1081 C   0  0  0  0  0  0
  -22.7483  -29.4618   22.4919 C   0  0  0  0  0  0
  -18.0290  -28.1396   22.8472 C   0  0  0  0  0  0
  -24.1476  -36.7286   23.2637 C   0  0  0  0  0  0
  -25.9671  -30.7801   21.3778 C   0  0  0  0  0  0
  -26.0404  -29.4038   20.7223 C   0  0  0  0  0  0
  -27.2152  -28.5875   20.7227 C   0  0  0  0  0  0
  -26.0347  -26.9025   19.4492 C   0  0  0  0  0  0
  -24.8734  -27.6955   19.4619 C   0  0  0  0  0  0
  -23.6404  -29.8218   20.1600 C   0  0  0  0  0  0
  -25.4102  -36.3076   24.0327 C   0  0  1  0  0  0
  -20.5889  -28.3702   23.1262 C   0  0  2  0  0  0
  -20.6785  -26.9429   22.5389 C   0  0  0  0  0  0
  -19.5759  -26.6409   21.5192 C   0  0  0  0  0  0
  -18.1939  -26.7941   22.1603 C   0  0  0  0  0  0
  -19.1542  -28.8863   23.2864 C   0  0  0  0  0  0
  -18.9468  -30.1464   23.8876 C   0  0  0  0  0  0
  -17.6472  -30.6592   24.0567 C   0  0  0  0  0  0
  -25.9050  -34.9443   23.5115 C   0  0  0  0  0  0
  -16.5360  -29.9092   23.6336 C   0  0  0  0  0  0
  -16.7284  -28.6521   23.0335 C   0  0  0  0  0  0
  -26.4518  -31.6570   25.0728 C   0  0  0  0  0  0
  -25.3764  -31.3592   26.1437 C   0  0  0  0  0  0
  -27.0420  -30.3028   24.6151 C   0  0  0  0  0  0
  -27.6063  -32.4309   25.7528 C   0  0  0  0  0  0
  -27.5564  -37.1809   24.8466 C   0  0  0  0  0  0
  -21.4196  -29.3047   22.3643 N   0  0  0  0  0  0
  -26.4276  -37.3777   23.9411 N   0  0  0  0  0  0
  -24.6929  -31.0565   22.1000 N   0  0  0  0  0  0
  -23.4191  -28.8149   23.3008 O   0  0  0  0  0  0
  -28.3317  -26.4139   20.2023 O   0  0  0  0  0  0
  -26.5621  -34.8899   22.4678 O   0  0  0  0  0  0
  -23.5448  -32.1388   23.7331 O   0  0  0  0  0  0
  -30.3506  -18.9605   20.2334 C   0  0  0  0  0  0
  -30.4059  -20.3669   19.9567 C   0  0  0  0  0  0
  -28.2152  -20.6715   20.8573 C   0  0  0  0  0  0
  -29.2091  -18.3513   20.8179 C   0  0  0  0  0  0
  -28.1343  -19.2610   21.1083 C   0  0  0  0  0  0
  -29.3511  -21.2746   20.2648 C   0  0  0  0  0  0
  -29.1184  -16.5562   22.6954 C   0  0  0  0  0  0
  -30.5862  -16.1560   22.5388 C   0  0  0  0  0  0
  -29.0853  -16.7965   21.1774 C   0  0  2  0  0  0
  -26.8302  -18.7380   21.6903 C   0  0  0  0  0  0
  -28.2199  -24.9681   19.8196 C   0  0  0  0  0  0
  -28.9385  -23.7906   20.6426 C   0  0  0  0  0  0
  -30.2125  -15.7801   21.1855 N   0  0  0  0  0  0
  -29.4405  -22.6343   19.8686 O   0  0  0  0  0  0
  -31.4598  -12.5102   19.1760 H   0  0  0  0  0  0
  -30.3253  -11.4541   19.9575 H   0  0  0  0  0  0
  -29.7716  -11.7331   17.5180 H   0  0  0  0  0  0
  -29.6439  -13.4640   17.7286 H   0  0  0  0  0  0
  -27.8730  -11.2976   18.9052 H   0  0  0  0  0  0
  -27.3709  -12.5539   17.8035 H   0  0  0  0  0  0
  -27.6420  -14.2662   19.4849 H   0  0  0  0  0  0
  -28.7102  -12.1799   21.4460 H   0  0  0  0  0  0
  -28.4252  -13.8623   21.7910 H   0  0  0  0  0  0
  -25.2767   -9.5686   22.4826 H   0  0  0  0  0  0
  -23.9998   -7.4644   22.7505 H   0  0  0  0  0  0
  -21.0884   -8.8809   19.8944 H   0  0  0  0  0  0
  -22.3765  -10.9699   19.6179 H   0  0  0  0  0  0
  -21.2017   -7.6158   23.9734 H   0  0  0  0  0  0
  -21.1472   -6.0514   25.9084 H   0  0  0  0  0  0
  -22.0604   -2.7617   23.2830 H   0  0  0  0  0  0
  -22.4005  -11.9810   22.4716 H   0  0  0  0  0  0
  -21.1072  -13.1260   22.2610 H   0  0  0  0  0  0
  -24.6362  -15.8376   20.4987 H   0  0  0  0  0  0
  -26.2445  -15.6260   20.0259 H   0  0  0  0  0  0
  -26.7184  -32.5432   23.1118 H   0  0  0  0  0  0
  -25.0041  -33.9718   25.0425 H   0  0  0  0  0  0
  -22.7189  -31.3030   21.4027 H   0  0  0  0  0  0
  -23.3740  -35.9612   23.3290 H   0  0  0  0  0  0
  -24.3568  -36.8932   22.2056 H   0  0  0  0  0  0
  -23.7227  -37.6476   23.6680 H   0  0  0  0  0  0
  -26.0912  -31.5387   20.6036 H   0  0  0  0  0  0
  -26.8516  -30.8390   22.0009 H   0  0  0  0  0  0
  -28.1083  -28.9347   21.2229 H   0  0  0  0  0  0
  -25.9605  -25.9768   18.9019 H   0  0  0  0  0  0
  -23.9825  -27.3439   18.9599 H   0  0  0  0  0  0
  -23.7588  -30.5999   19.4054 H   0  0  0  0  0  0
  -22.7599  -29.2519   19.8576 H   0  0  0  0  0  0
  -25.1281  -36.1928   25.0822 H   0  0  0  0  0  0
  -20.9983  -28.3290   24.1382 H   0  0  0  0  0  0
  -20.5710  -26.2304   23.3580 H   0  0  0  0  0  0
  -21.6651  -26.7473   22.1167 H   0  0  0  0  0  0
  -19.6923  -25.6326   21.1209 H   0  0  0  0  0  0
  -19.6700  -27.3220   20.6718 H   0  0  0  0  0  0
  -17.4207  -26.6677   21.4009 H   0  0  0  0  0  0
  -18.0348  -26.0089   22.9009 H   0  0  0  0  0  0
  -19.7946  -30.7279   24.2241 H   0  0  0  0  0  0
  -17.5032  -31.6265   24.5188 H   0  0  0  0  0  0
  -15.5366  -30.2989   23.7688 H   0  0  0  0  0  0
  -15.8681  -28.0862   22.7029 H   0  0  0  0  0  0
  -24.6020  -30.6867   25.7730 H   0  0  0  0  0  0
  -24.8840  -32.2676   26.4902 H   0  0  0  0  0  0
  -25.8121  -30.8758   27.0193 H   0  0  0  0  0  0
  -26.3011  -29.6724   24.1210 H   0  0  0  0  0  0
  -27.4223  -29.7310   25.4627 H   0  0  0  0  0  0
  -27.8817  -30.4383   23.9328 H   0  0  0  0  0  0
  -27.2706  -33.3658   26.2031 H   0  0  0  0  0  0
  -28.3931  -32.6783   25.0392 H   0  0  0  0  0  0
  -28.0661  -31.8463   26.5511 H   0  0  0  0  0  0
  -28.2553  -38.0135   24.7543 H   0  0  0  0  0  0
  -28.1094  -36.2659   24.6274 H   0  0  0  0  0  0
  -27.2266  -37.1428   25.8863 H   0  0  0  0  0  0
  -20.9375  -29.8769   21.6850 H   0  0  0  0  0  0
  -26.0143  -38.2841   24.1432 H   0  0  0  0  0  0
  -31.2017  -18.3437   19.9799 H   0  0  0  0  0  0
  -31.2966  -20.7588   19.4852 H   0  0  0  0  0  0
  -27.3622  -21.2969   21.0814 H   0  0  0  0  0  0
  -28.9699  -17.4359   23.3213 H   0  0  0  0  0  0
  -28.4811  -15.7335   23.0218 H   0  0  0  0  0  0
  -30.8919  -15.3291   23.1809 H   0  0  0  0  0  0
  -31.2902  -16.9890   22.5880 H   0  0  0  0  0  0
  -28.1780  -16.3900   20.7331 H   0  0  0  0  0  0
  -26.0636  -19.5125   21.7175 H   0  0  0  0  0  0
  -26.9691  -18.3827   22.7100 H   0  0  0  0  0  0
  -26.4379  -17.9204   21.0855 H   0  0  0  0  0  0
  -27.1868  -24.6370   19.7838 H   0  0  0  0  0  0
  -28.5830  -24.9162   18.7930 H   0  0  0  0  0  0
  -28.3001  -23.4651   21.4640 H   0  0  0  0  0  0
  -29.8194  -24.2206   21.1200 H   0  0  0  0  0  0
  1 25  1  0  0  0
  1 30  2  0  0  0
  1 83  1  0  0  0
  2  3  1  0  0  0
  2 25  1  0  0  0
  2 85  1  0  0  0
  2 86  1  0  0  0
  3  4  1  0  0  0
  3 87  1  0  0  0
  3 88  1  0  0  0
  4  5  1  0  0  0
  4 89  1  0  0  0
  4 90  1  0  0  0
  5  6  1  0  0  0
  5 26  1  0  0  0
  5 91  1  0  0  0
  6 25  1  0  0  0
  6 92  1  0  0  0
  6 93  1  0  0  0
  7  8  2  0  0  0
  7 26  1  0  0  0
  7 29  1  0  0  0
  8  9  1  0  0  0
  8 22  1  0  0  0
  9 10  1  0  0  0
  9 27  2  0  0  0
 10 11  2  0  0  0
 10 15  1  0  0  0
 11 12  1  0  0  0
 11 94  1  0  0  0
 12 13  2  0  0  0
 12 95  1  0  0  0
 13 14  1  0  0  0
 13 31  1  0  0  0
 14 15  2  0  0  0
 14 96  1  0  0  0
 15 97  1  0  0  0
 16 17  2  0  0  0
 16 21  1  0  0  0
 16 31  1  0  0  0
 17 18  1  0  0  0
 17 98  1  0  0  0
 18 19  2  0  0  0
 18 99  1  0  0  0
 19 20  1  0  0  0
 19 24  1  0  0  0
 20 21  2  0  0  0
 20100  1  0  0  0
 21 23  1  0  0  0
 22 28  1  0  0  0
 22 32  2  0  0  0
 26 27  1  0  0  0
 28101  1  0  0  0
 28102  1  0  0  0
 29103  1  0  0  0
 29104  1  0  0  0
 33 34  1  0  0  0
 33 66  1  0  0  0
 33 70  2  0  0  0
 34 36  1  0  0  0
 34 59  1  0  0  0
 34105  1  0  0  0
 35 44  2  0  0  0
 35 45  1  0  0  0
 35 68  1  0  0  0
 36 56  1  0  0  0
 36106  1  0  0  0
 37 39  1  0  0  0
 37 47  1  0  0  0
 37 66  1  0  0  0
 37107  1  0  0  0
 38 43  2  0  0  0
 38 46  1  0  0  0
 38 47  1  0  0  0
 39 64  1  0  0  0
 39 67  2  0  0  0
 40 52  1  0  0  0
 40 53  2  0  0  0
 40 58  1  0  0  0
 41108  1  0  0  0
 41109  1  0  0  0
 41110  1  0  0  0
 41 48  1  0  0  0
 42 43  1  0  0  0
 42 66  1  0  0  0
 42111  1  0  0  0
 42112  1  0  0  0
 43 44  1  0  0  0
 44113  1  0  0  0
 45 46  2  0  0  0
 45114  1  0  0  0
 46115  1  0  0  0
 47116  1  0  0  0
 47117  1  0  0  0
 48 56  1  0  0  0
 48 65  1  0  0  0
 48118  1  0  0  0
 49 50  1  0  0  0
 49 53  1  0  0  0
 49 64  1  0  0  0
 49119  1  0  0  0
 50 51  1  0  0  0
 50120  1  0  0  0
 50121  1  0  0  0
 51 52  1  0  0  0
 51122  1  0  0  0
 51123  1  0  0  0
 52124  1  0  0  0
 52125  1  0  0  0
 53 54  1  0  0  0
 54 55  2  0  0  0
 54126  1  0  0  0
 55 57  1  0  0  0
 55127  1  0  0  0
 56 69  2  0  0  0
 57 58  2  0  0  0
 57128  1  0  0  0
 58129  1  0  0  0
 59 60  1  0  0  0
 59 61  1  0  0  0
 59 62  1  0  0  0
 60130  1  0  0  0
 60131  1  0  0  0
 60132  1  0  0  0
 61133  1  0  0  0
 61134  1  0  0  0
 61135  1  0  0  0
 62136  1  0  0  0
 62137  1  0  0  0
 62138  1  0  0  0
 63 65  1  0  0  0
 63139  1  0  0  0
 63140  1  0  0  0
 63141  1  0  0  0
 64142  1  0  0  0
 65143  1  0  0  0
 68 81  1  0  0  0
 71 72  2  0  0  0
 71 74  1  0  0  0
 71144  1  0  0  0
 72 76  1  0  0  0
 72145  1  0  0  0
 73 75  1  0  0  0
 73 76  2  0  0  0
 73146  1  0  0  0
 74 75  2  0  0  0
 74 79  1  0  0  0
 75 80  1  0  0  0
 76 84  1  0  0  0
 77 78  1  0  0  0
 77 79  1  0  0  0
 77147  1  0  0  0
 77148  1  0  0  0
 78 83  1  0  0  0
 78149  1  0  0  0
 78150  1  0  0  0
 79 83  1  0  0  0
 79151  1  0  0  0
 80152  1  0  0  0
 80153  1  0  0  0
 80154  1  0  0  0
 81 82  1  0  0  0
 81155  1  0  0  0
 81156  1  0  0  0
 82 84  1  0  0  0
 82157  1  0  0  0
 82158  1  0  0  0
M  ISO  4   1 100  68 101  81 101  83 100
M  END
> <chiral flag>
0

> <version>
0

> <s_m_source_file>
/data/baiqing/PycharmProjects/Reinvent-master-3.2/result/LINK_invent/BTK/process_docking_weight1_custom_sum_contain_oxygen_bond_distance_aromatic_linkinvent_7_9_3/rearranged_h_0138.sdf

> <i_m_source_file_index>
27

> <r_mmod_Potential_Energy-OPLS-2005>
307.438446044922

> <r_mmod_Stretch_Energy-OPLS-2005>
103.314186096191

> <r_mmod_Bend_Energy-OPLS-2005>
225.881149291992

> <r_mmod_Torsional_Energy-OPLS-2005>
309.863708496094

> <r_mmod_Improper_Torsional_Energy-OPLS-2005>
3.72387886047363

> <r_mmod_Van_der_Waal_Energy-OPLS-2005>
137.137069702148

> <r_mmod_Electrostatic_Energy-OPLS-2005>
-334.137542724609

> <r_mmod_Solvation_Energy-OPLS-2005>
-204.091918945312

> <b_mmod_Minimization_Converged-OPLS-2005>
0

> <r_mmod_RMS_Derivative-OPLS-2005>
1.71289801597595

$$$$
27
                    3D
 Structure written by MMmdl.
153161  0  0  1  0            999 V2000
  -30.6230  -14.7093   20.4538 C   0  0  0  0  0  0
  -30.4295  -12.4264   19.4820 C   0  0  0  0  0  0
  -29.5136  -12.5061   18.2404 C   0  0  0  0  0  0
  -28.0368  -12.3397   18.6473 C   0  0  0  0  0  0
  -27.6463  -13.2317   19.8565 C   0  0  2  0  0  0
  -28.6877  -13.1482   20.9955 C   0  0  0  0  0  0
  -25.2522  -13.8203   20.5694 C   0  0  0  0  0  0
  -24.1808  -13.0447   20.9199 C   0  0  0  0  0  0
  -24.6400  -11.6925   20.8744 C   0  0  0  0  0  0
  -23.9076  -10.4299   21.0406 C   0  0  0  0  0  0
  -24.3627   -9.4213   21.9180 C   0  0  0  0  0  0
  -23.6300   -8.2246   22.0753 C   0  0  0  0  0  0
  -22.4279   -8.0286   21.3547 C   0  0  0  0  0  0
  -21.9917   -9.0259   20.4649 C   0  0  0  0  0  0
  -22.7250  -10.2137   20.3057 C   0  0  0  0  0  0
  -21.6852   -6.0742   22.5280 C   0  0  0  0  0  0
  -21.4014   -6.5645   23.8216 C   0  0  0  0  0  0
  -21.3661   -5.6794   24.9176 C   0  0  0  0  0  0
  -21.6042   -4.3057   24.7225 C   0  0  0  0  0  0
  -21.8818   -3.8150   23.4344 C   0  0  0  0  0  0
  -21.9192   -4.6969   22.3402 C   0  0  0  0  0  0
  -22.7827  -13.5227   21.1857 C   0  0  0  0  0  0
  -22.1659   -4.2158   21.0978 F   0  0  0  0  0  0
  -21.5633   -3.4539   25.7737 F   0  0  0  0  0  0
  -29.9978  -13.4844   20.4244 N   0  0  0  0  0  0
  -26.2957  -12.9412   20.3296 N   0  0  0  0  0  0
  -25.9334  -11.6550   20.5751 N   0  0  0  0  0  0
  -22.0471  -12.8224   22.0416 N   0  0  0  0  0  0
  -25.4220  -15.1925   20.4121 N   0  0  0  0  0  0
  -31.8025  -14.8032   20.1005 O   0  0  0  0  0  0
  -21.6643   -6.8882   21.4241 O   0  0  0  0  0  0
  -22.3512  -14.5532   20.6702 O   0  0  0  0  0  0
  -24.6296  -31.8572   23.2004 C   0  0  0  0  0  0
  -25.9128  -32.4764   23.8349 C   0  0  1  0  0  0
  -27.2168  -27.2748   20.1254 C   0  0  0  0  0  0
  -25.5927  -33.8566   24.2270 N   0  0  0  0  0  0
  -23.4253  -30.4813   21.5433 C   0  0  2  0  0  0
  -24.8725  -28.9342   20.1080 C   0  0  0  0  0  0
  -22.7499  -29.4606   22.4909 C   0  0  0  0  0  0
  -18.0293  -28.1383   22.8480 C   0  0  0  0  0  0
  -24.1490  -36.7290   23.2638 C   0  0  0  0  0  0
  -25.9709  -30.7731   21.3805 C   0  0  0  0  0  0
  -26.0425  -29.3972   20.7226 C   0  0  0  0  0  0
  -27.2157  -28.5783   20.7251 C   0  0  0  0  0  0
  -26.0286  -26.8901   19.4605 C   0  0  0  0  0  0
  -24.8703  -27.6881   19.4665 C   0  0  0  0  0  0
  -23.6430  -29.8190   20.1579 C   0  0  0  0  0  0
  -25.4114  -36.3074   24.0327 C   0  0  1  0  0  0
  -20.5896  -28.3694   23.1264 C   0  0  2  0  0  0
  -20.6777  -26.9409   22.5403 C   0  0  0  0  0  0
  -19.5751  -26.6379   21.5207 C   0  0  0  0  0  0
  -18.1933  -26.7923   22.1623 C   0  0  0  0  0  0
  -19.1546  -28.8856   23.2868 C   0  0  0  0  0  0
  -18.9467  -30.1457   23.8886 C   0  0  0  0  0  0
  -17.6465  -30.6582   24.0561 C   0  0  0  0  0  0
  -25.9054  -34.9444   23.5100 C   0  0  0  0  0  0
  -16.5357  -29.9080   23.6327 C   0  0  0  0  0  0
  -16.7279  -28.6499   23.0346 C   0  0  0  0  0  0
  -26.4502  -31.6580   25.0730 C   0  0  0  0  0  0
  -25.3727  -31.3728   26.1452 C   0  0  0  0  0  0
  -27.0351  -30.2997   24.6211 C   0  0  0  0  0  0
  -27.6056  -32.4321   25.7503 C   0  0  0  0  0  0
  -27.5578  -37.1799   24.8464 C   0  0  0  0  0  0
  -21.4207  -29.3045   22.3658 N   0  0  0  0  0  0
  -26.4290  -37.3769   23.9407 N   0  0  0  0  0  0
  -24.6941  -31.0553   22.0973 N   0  0  0  0  0  0
  -23.4208  -28.8135   23.2991 O   0  0  0  0  0  0
  -28.3083  -26.3795   20.2115 O   0  0  0  0  0  0
  -26.5627  -34.8913   22.4671 O   0  0  0  0  0  0
  -23.5448  -32.1388   23.7302 O   0  0  0  0  0  0
  -30.6261  -18.6052   18.2261 C   0  0  0  0  0  0
  -30.2299  -19.7864   18.8820 C   0  0  0  0  0  0
  -30.5183  -17.3463   18.8492 C   0  0  0  0  0  0
  -29.5692  -18.4390   20.8022 C   0  0  0  0  0  0
  -29.6894  -19.7538   20.1847 C   0  0  0  0  0  0
  -30.0014  -17.2070   20.1580 C   0  0  0  0  0  0
  -29.3864  -21.1440   20.8984 C   0  0  0  0  0  0
  -29.0084  -23.7628   20.5921 C   0  0  0  0  0  0
  -28.0897  -24.9168   19.9405 C   0  0  0  0  0  0
  -29.8715  -15.8427   20.7257 N   0  0  0  0  0  0
  -28.8066  -22.3154   20.0979 N   0  3  0  0  0  0
  -31.4748  -12.5329   19.1863 H   0  0  0  0  0  0
  -30.3548  -11.4459   19.9548 H   0  0  0  0  0  0
  -29.7915  -11.7397   17.5161 H   0  0  0  0  0  0
  -29.6527  -13.4654   17.7391 H   0  0  0  0  0  0
  -27.8820  -11.2896   18.8981 H   0  0  0  0  0  0
  -27.3853  -12.5473   17.7977 H   0  0  0  0  0  0
  -27.6485  -14.2575   19.4864 H   0  0  0  0  0  0
  -28.7091  -12.1482   21.4308 H   0  0  0  0  0  0
  -28.4274  -13.8273   21.8084 H   0  0  0  0  0  0
  -25.2774   -9.5691   22.4753 H   0  0  0  0  0  0
  -24.0018   -7.4637   22.7468 H   0  0  0  0  0  0
  -21.0851   -8.8776   19.8953 H   0  0  0  0  0  0
  -22.3707  -10.9673   19.6166 H   0  0  0  0  0  0
  -21.2004   -7.6150   23.9722 H   0  0  0  0  0  0
  -21.1486   -6.0523   25.9080 H   0  0  0  0  0  0
  -22.0595   -2.7614   23.2838 H   0  0  0  0  0  0
  -22.4088  -11.9896   22.4827 H   0  0  0  0  0  0
  -21.1081  -13.1241   22.2602 H   0  0  0  0  0  0
  -24.6553  -15.8469   20.5236 H   0  0  0  0  0  0
  -26.2723  -15.6322   20.0829 H   0  0  0  0  0  0
  -26.7193  -32.5421   23.1092 H   0  0  0  0  0  0
  -25.0068  -33.9712   25.0411 H   0  0  0  0  0  0
  -22.7200  -31.3023   21.3995 H   0  0  0  0  0  0
  -23.3749  -35.9626   23.3299 H   0  0  0  0  0  0
  -24.3579  -36.8917   22.2053 H   0  0  0  0  0  0
  -23.7254  -37.6493   23.6667 H   0  0  0  0  0  0
  -26.1113  -31.5324   20.6099 H   0  0  0  0  0  0
  -26.8484  -30.8207   22.0137 H   0  0  0  0  0  0
  -28.1073  -28.9240   21.2295 H   0  0  0  0  0  0
  -25.9565  -25.9505   18.9342 H   0  0  0  0  0  0
  -23.9781  -27.3336   18.9688 H   0  0  0  0  0  0
  -23.7671  -30.5971   19.4039 H   0  0  0  0  0  0
  -22.7617  -29.2523   19.8521 H   0  0  0  0  0  0
  -25.1295  -36.1922   25.0818 H   0  0  0  0  0  0
  -20.9992  -28.3274   24.1385 H   0  0  0  0  0  0
  -20.5667  -26.2308   23.3612 H   0  0  0  0  0  0
  -21.6646  -26.7425   22.1204 H   0  0  0  0  0  0
  -19.6910  -25.6290   21.1240 H   0  0  0  0  0  0
  -19.6684  -27.3189   20.6736 H   0  0  0  0  0  0
  -17.4199  -26.6666   21.4030 H   0  0  0  0  0  0
  -18.0334  -26.0071   22.9027 H   0  0  0  0  0  0
  -19.7944  -30.7275   24.2249 H   0  0  0  0  0  0
  -17.5019  -31.6259   24.5167 H   0  0  0  0  0  0
  -15.5355  -30.2977   23.7654 H   0  0  0  0  0  0
  -15.8681  -28.0816   22.7060 H   0  0  0  0  0  0
  -24.5902  -30.7077   25.7781 H   0  0  0  0  0  0
  -24.8920  -32.2898   26.4869 H   0  0  0  0  0  0
  -25.8044  -30.8910   27.0235 H   0  0  0  0  0  0
  -26.2937  -29.6739   24.1229 H   0  0  0  0  0  0
  -27.4032  -29.7262   25.4728 H   0  0  0  0  0  0
  -27.8816  -30.4275   23.9459 H   0  0  0  0  0  0
  -27.2663  -33.3624   26.2072 H   0  0  0  0  0  0
  -28.3871  -32.6874   25.0334 H   0  0  0  0  0  0
  -28.0721  -31.8454   26.5429 H   0  0  0  0  0  0
  -28.2590  -38.0098   24.7503 H   0  0  0  0  0  0
  -28.1077  -36.2628   24.6296 H   0  0  0  0  0  0
  -27.2293  -37.1457   25.8866 H   0  0  0  0  0  0
  -20.9383  -29.8794   21.6891 H   0  0  0  0  0  0
  -26.0167  -38.2844   24.1400 H   0  0  0  0  0  0
  -31.0326  -18.6655   17.2258 H   0  0  0  0  0  0
  -30.3700  -20.7284   18.3703 H   0  0  0  0  0  0
  -30.8343  -16.4789   18.2871 H   0  0  0  0  0  0
  -29.1690  -18.3820   21.8051 H   0  0  0  0  0  0
  -30.3351  -21.4785   21.3194 H   0  0  0  0  0  0
  -28.7356  -20.9626   21.7546 H   0  0  0  0  0  0
  -28.8490  -23.7787   21.6703 H   0  0  0  0  0  0
  -30.0570  -24.0215   20.4411 H   0  0  0  0  0  0
  -27.0775  -24.6537   20.2475 H   0  0  0  0  0  0
  -28.1175  -24.8000   18.8566 H   0  0  0  0  0  0
  -29.0115  -15.6658   21.2230 H   0  0  0  0  0  0
  -27.8192  -22.1326   20.0145 H   0  0  0  0  0  0
  -29.1856  -22.2601   19.1672 H   0  0  0  0  0  0
  1 25  1  0  0  0
  1 30  2  0  0  0
  1 80  1  0  0  0
  2  3  1  0  0  0
  2 25  1  0  0  0
  2 82  1  0  0  0
  2 83  1  0  0  0
  3  4  1  0  0  0
  3 84  1  0  0  0
  3 85  1  0  0  0
  4  5  1  0  0  0
  4 86  1  0  0  0
  4 87  1  0  0  0
  5  6  1  0  0  0
  5 26  1  0  0  0
  5 88  1  0  0  0
  6 25  1  0  0  0
  6 89  1  0  0  0
  6 90  1  0  0  0
  7  8  2  0  0  0
  7 26  1  0  0  0
  7 29  1  0  0  0
  8  9  1  0  0  0
  8 22  1  0  0  0
  9 10  1  0  0  0
  9 27  2  0  0  0
 10 11  2  0  0  0
 10 15  1  0  0  0
 11 12  1  0  0  0
 11 91  1  0  0  0
 12 13  2  0  0  0
 12 92  1  0  0  0
 13 14  1  0  0  0
 13 31  1  0  0  0
 14 15  2  0  0  0
 14 93  1  0  0  0
 15 94  1  0  0  0
 16 17  2  0  0  0
 16 21  1  0  0  0
 16 31  1  0  0  0
 17 18  1  0  0  0
 17 95  1  0  0  0
 18 19  2  0  0  0
 18 96  1  0  0  0
 19 20  1  0  0  0
 19 24  1  0  0  0
 20 21  2  0  0  0
 20 97  1  0  0  0
 21 23  1  0  0  0
 22 28  1  0  0  0
 22 32  2  0  0  0
 26 27  1  0  0  0
 28 98  1  0  0  0
 28 99  1  0  0  0
 29100  1  0  0  0
 29101  1  0  0  0
 33 34  1  0  0  0
 33 66  1  0  0  0
 33 70  2  0  0  0
 34 36  1  0  0  0
 34 59  1  0  0  0
 34102  1  0  0  0
 35 44  2  0  0  0
 35 45  1  0  0  0
 35 68  1  0  0  0
 36 56  1  0  0  0
 36103  1  0  0  0
 37 39  1  0  0  0
 37 47  1  0  0  0
 37 66  1  0  0  0
 37104  1  0  0  0
 38 43  2  0  0  0
 38 46  1  0  0  0
 38 47  1  0  0  0
 39 64  1  0  0  0
 39 67  2  0  0  0
 40 52  1  0  0  0
 40 53  2  0  0  0
 40 58  1  0  0  0
 41105  1  0  0  0
 41106  1  0  0  0
 41107  1  0  0  0
 41 48  1  0  0  0
 42 43  1  0  0  0
 42 66  1  0  0  0
 42108  1  0  0  0
 42109  1  0  0  0
 43 44  1  0  0  0
 44110  1  0  0  0
 45 46  2  0  0  0
 45111  1  0  0  0
 46112  1  0  0  0
 47113  1  0  0  0
 47114  1  0  0  0
 48 56  1  0  0  0
 48 65  1  0  0  0
 48115  1  0  0  0
 49 50  1  0  0  0
 49 53  1  0  0  0
 49 64  1  0  0  0
 49116  1  0  0  0
 50 51  1  0  0  0
 50117  1  0  0  0
 50118  1  0  0  0
 51 52  1  0  0  0
 51119  1  0  0  0
 51120  1  0  0  0
 52121  1  0  0  0
 52122  1  0  0  0
 53 54  1  0  0  0
 54 55  2  0  0  0
 54123  1  0  0  0
 55 57  1  0  0  0
 55124  1  0  0  0
 56 69  2  0  0  0
 57 58  2  0  0  0
 57125  1  0  0  0
 58126  1  0  0  0
 59 60  1  0  0  0
 59 61  1  0  0  0
 59 62  1  0  0  0
 60127  1  0  0  0
 60128  1  0  0  0
 60129  1  0  0  0
 61130  1  0  0  0
 61131  1  0  0  0
 61132  1  0  0  0
 62133  1  0  0  0
 62134  1  0  0  0
 62135  1  0  0  0
 63 65  1  0  0  0
 63136  1  0  0  0
 63137  1  0  0  0
 63138  1  0  0  0
 64139  1  0  0  0
 65140  1  0  0  0
 68 79  1  0  0  0
 71 72  2  0  0  0
 71 73  1  0  0  0
 71141  1  0  0  0
 72 75  1  0  0  0
 72142  1  0  0  0
 73 76  2  0  0  0
 73143  1  0  0  0
 74 75  2  0  0  0
 74 76  1  0  0  0
 74144  1  0  0  0
 75 77  1  0  0  0
 76 80  1  0  0  0
 77 81  1  0  0  0
 77145  1  0  0  0
 77146  1  0  0  0
 78 79  1  0  0  0
 78 81  1  0  0  0
 78147  1  0  0  0
 78148  1  0  0  0
 79149  1  0  0  0
 79150  1  0  0  0
 80151  1  0  0  0
 81152  1  0  0  0
 81153  1  0  0  0
M  CHG  1  81   1
M  ISO  4   1 100  68 101  79 101  80 100
M  END
> <chiral flag>
0

> <version>
0

> <s_m_source_file>
/data/baiqing/PycharmProjects/Reinvent-master-3.2/result/LINK_invent/BTK/process_docking_weight1_custom_sum_contain_oxygen_bond_distance_aromatic_linkinvent_7_9_3/rearranged_h_0138.sdf

> <i_m_source_file_index>
28

> <r_mmod_Potential_Energy-OPLS-2005>
-34.7456741333008

> <r_mmod_Stretch_Energy-OPLS-2005>
112.539047241211

> <r_mmod_Bend_Energy-OPLS-2005>
147.294815063477

> <r_mmod_Torsional_Energy-OPLS-2005>
227.704132080078

> <r_mmod_Improper_Torsional_Energy-OPLS-2005>
4.58505725860596

> <r_mmod_Van_der_Waal_Energy-OPLS-2005>
142.705841064453

> <r_mmod_Electrostatic_Energy-OPLS-2005>
-269.937713623047

> <r_mmod_Solvation_Energy-OPLS-2005>
-475.085266113281

> <b_mmod_Minimization_Converged-OPLS-2005>
0

> <r_mmod_RMS_Derivative-OPLS-2005>
0.710408389568329

$$$$
28
                    3D
 Structure written by MMmdl.
172181  0  0  1  0            999 V2000
  -30.7562  -14.4226   20.5903 C   0  0  0  0  0  0
  -30.4181  -12.2959   19.4048 C   0  0  0  0  0  0
  -29.4842  -12.5215   18.1975 C   0  0  0  0  0  0
  -28.0068  -12.3862   18.6146 C   0  0  0  0  0  0
  -27.6647  -13.2119   19.8814 C   0  0  2  0  0  0
  -28.7137  -12.9791   20.9927 C   0  0  0  0  0  0
  -25.2622  -13.8181   20.5647 C   0  0  0  0  0  0
  -24.1886  -13.0449   20.9167 C   0  0  0  0  0  0
  -24.6452  -11.6920   20.8752 C   0  0  0  0  0  0
  -23.9117  -10.4298   21.0410 C   0  0  0  0  0  0
  -24.3662   -9.4212   21.9200 C   0  0  0  0  0  0
  -23.6330   -8.2247   22.0756 C   0  0  0  0  0  0
  -22.4301   -8.0299   21.3553 C   0  0  0  0  0  0
  -21.9964   -9.0271   20.4656 C   0  0  0  0  0  0
  -22.7304  -10.2150   20.3062 C   0  0  0  0  0  0
  -21.6847   -6.0782   22.5292 C   0  0  0  0  0  0
  -21.3998   -6.5694   23.8220 C   0  0  0  0  0  0
  -21.3645   -5.6830   24.9168 C   0  0  0  0  0  0
  -21.6034   -4.3092   24.7210 C   0  0  0  0  0  0
  -21.8825   -3.8185   23.4335 C   0  0  0  0  0  0
  -21.9194   -4.7012   22.3404 C   0  0  0  0  0  0
  -22.7906  -13.5240   21.1835 C   0  0  0  0  0  0
  -22.1673   -4.2210   21.0983 F   0  0  0  0  0  0
  -21.5618   -3.4568   25.7706 F   0  0  0  0  0  0
  -30.0426  -13.2770   20.4367 N   0  0  0  0  0  0
  -26.3095  -12.9371   20.3453 N   0  0  0  0  0  0
  -25.9384  -11.6522   20.5825 N   0  0  0  0  0  0
  -22.0569  -12.8184   22.0372 N   0  0  0  0  0  0
  -25.4308  -15.1881   20.3899 N   0  0  0  0  0  0
  -31.9059  -14.5494   20.1554 O   0  0  0  0  0  0
  -21.6651   -6.8917   21.4249 O   0  0  0  0  0  0
  -22.3575  -14.5563   20.6720 O   0  0  0  0  0  0
  -24.6110  -31.8702   23.2118 C   0  0  0  0  0  0
  -25.9026  -32.4828   23.8415 C   0  0  1  0  0  0
  -27.2457  -27.4799   20.0551 C   0  0  0  0  0  0
  -25.5910  -33.8627   24.2351 N   0  0  0  0  0  0
  -23.3976  -30.4932   21.5509 C   0  0  2  0  0  0
  -24.8439  -28.9598   20.1145 C   0  0  0  0  0  0
  -22.7394  -29.4665   22.4995 C   0  0  0  0  0  0
  -18.0266  -28.1375   22.8471 C   0  0  0  0  0  0
  -24.1478  -36.7315   23.2639 C   0  0  0  0  0  0
  -25.9237  -30.8396   21.3646 C   0  0  0  0  0  0
  -26.0007  -29.4765   20.7110 C   0  0  0  0  0  0
  -27.2010  -28.7362   20.6921 C   0  0  0  0  0  0
  -26.0656  -26.9524   19.4848 C   0  0  0  0  0  0
  -24.8665  -27.6912   19.5070 C   0  0  0  0  0  0
  -23.6053  -29.8248   20.1650 C   0  0  0  0  0  0
  -25.4110  -36.3122   24.0337 C   0  0  1  0  0  0
  -20.5863  -28.3659   23.1322 C   0  0  2  0  0  0
  -20.6766  -26.9396   22.5421 C   0  0  0  0  0  0
  -19.5756  -26.6371   21.5215 C   0  0  0  0  0  0
  -18.1912  -26.7936   22.1569 C   0  0  0  0  0  0
  -19.1519  -28.8835   23.2894 C   0  0  0  0  0  0
  -18.9456  -30.1442   23.8913 C   0  0  0  0  0  0
  -17.6452  -30.6573   24.0572 C   0  0  0  0  0  0
  -25.9042  -34.9483   23.5137 C   0  0  0  0  0  0
  -16.5341  -29.9066   23.6340 C   0  0  0  0  0  0
  -16.7255  -28.6494   23.0341 C   0  0  0  0  0  0
  -26.4460  -31.6600   25.0737 C   0  0  0  0  0  0
  -25.3712  -31.3709   26.1488 C   0  0  0  0  0  0
  -27.0302  -30.3040   24.6121 C   0  0  0  0  0  0
  -27.6021  -32.4331   25.7522 C   0  0  0  0  0  0
  -27.5589  -37.1830   24.8454 C   0  0  0  0  0  0
  -21.4125  -29.3023   22.3725 N   0  0  0  0  0  0
  -26.4280  -37.3806   23.9418 N   0  0  0  0  0  0
  -24.6623  -31.0825   22.1006 N   0  0  0  0  0  0
  -23.4178  -28.8225   23.3046 O   0  0  0  0  0  0
  -28.4380  -26.7976   20.0223 O   0  0  0  0  0  0
  -26.5580  -34.8927   22.4678 O   0  0  0  0  0  0
  -23.5314  -32.1445   23.7528 O   0  0  0  0  0  0
  -28.6100  -21.0096   21.1032 C   0  0  0  0  0  0
  -28.8319  -22.2659   20.5121 C   0  0  0  0  0  0
  -27.0605  -21.8058   18.9229 C   0  0  0  0  0  0
  -26.8463  -20.5283   19.4872 C   0  0  0  0  0  0
  -27.6143  -20.1341   20.6156 C   0  0  0  0  0  0
  -28.0370  -22.6874   19.4228 C   0  0  0  0  0  0
  -29.0338  -17.5897   19.8825 C   0  0  0  0  0  0
  -28.4063  -16.8025   22.1927 C   0  0  0  0  0  0
  -30.2721  -16.6966   19.9632 C   0  0  0  0  0  0
  -29.6906  -15.9456   22.2089 C   0  0  0  0  0  0
  -28.6078  -18.0375   21.2935 C   0  0  0  0  0  0
  -26.2746  -19.2268   17.3936 C   0  0  0  0  0  0
  -24.4115  -20.2219   18.8278 C   0  0  0  0  0  0
  -28.8243  -26.2051   18.7793 C   0  0  0  0  0  0
  -29.2544  -24.7524   19.0120 C   0  0  0  0  0  0
  -25.8224  -19.6080   18.8160 C   0  0  0  0  0  0
  -30.0286  -15.5359   20.8362 N   0  0  0  0  0  0
  -27.4267  -18.8909   21.2436 N   0  0  0  0  0  0
  -28.1178  -23.9167   18.8061 O   0  0  0  0  0  0
  -31.4597  -12.3875   19.0880 H   0  0  0  0  0  0
  -30.3182  -11.2826   19.7949 H   0  0  0  0  0  0
  -29.7087  -11.8073   17.4043 H   0  0  0  0  0  0
  -29.6542  -13.5157   17.7777 H   0  0  0  0  0  0
  -27.8020  -11.3288   18.7897 H   0  0  0  0  0  0
  -27.3562  -12.6893   17.7935 H   0  0  0  0  0  0
  -27.7126  -14.2621   19.5973 H   0  0  0  0  0  0
  -28.6915  -11.9401   21.3250 H   0  0  0  0  0  0
  -28.4730  -13.5710   21.8713 H   0  0  0  0  0  0
  -25.2783   -9.5666   22.4817 H   0  0  0  0  0  0
  -24.0027   -7.4622   22.7465 H   0  0  0  0  0  0
  -21.0905   -8.8788   19.8954 H   0  0  0  0  0  0
  -22.3755  -10.9699   19.6185 H   0  0  0  0  0  0
  -21.1973   -7.6203   23.9736 H   0  0  0  0  0  0
  -21.1470   -6.0557   25.9077 H   0  0  0  0  0  0
  -22.0618   -2.7649   23.2801 H   0  0  0  0  0  0
  -22.4191  -11.9777   22.4616 H   0  0  0  0  0  0
  -21.1197  -13.1178   22.2641 H   0  0  0  0  0  0
  -24.6619  -15.8447   20.4710 H   0  0  0  0  0  0
  -26.2880  -15.6101   20.0594 H   0  0  0  0  0  0
  -26.7107  -32.5548   23.1194 H   0  0  0  0  0  0
  -25.0115  -33.9810   25.0526 H   0  0  0  0  0  0
  -22.6870  -31.3094   21.4110 H   0  0  0  0  0  0
  -23.3763  -35.9629   23.3267 H   0  0  0  0  0  0
  -24.3581  -36.8961   22.2053 H   0  0  0  0  0  0
  -23.7182  -37.6491   23.6669 H   0  0  0  0  0  0
  -26.0398  -31.6088   20.6009 H   0  0  0  0  0  0
  -26.8098  -30.8867   21.9855 H   0  0  0  0  0  0
  -28.1001  -29.1384   21.1403 H   0  0  0  0  0  0
  -26.0671  -25.9767   19.0196 H   0  0  0  0  0  0
  -23.9752  -27.2851   19.0506 H   0  0  0  0  0  0
  -23.7123  -30.6008   19.4061 H   0  0  0  0  0  0
  -22.7304  -29.2428   19.8688 H   0  0  0  0  0  0
  -25.1279  -36.1974   25.0841 H   0  0  0  0  0  0
  -20.9939  -28.3207   24.1450 H   0  0  0  0  0  0
  -20.5651  -26.2275   23.3607 H   0  0  0  0  0  0
  -21.6644  -26.7413   22.1222 H   0  0  0  0  0  0
  -19.6914  -25.6271   21.1264 H   0  0  0  0  0  0
  -19.6747  -27.3197   20.6758 H   0  0  0  0  0  0
  -17.4217  -26.6731   21.3928 H   0  0  0  0  0  0
  -18.0254  -26.0045   22.8924 H   0  0  0  0  0  0
  -19.7939  -30.7254   24.2272 H   0  0  0  0  0  0
  -17.5012  -31.6263   24.5145 H   0  0  0  0  0  0
  -15.5340  -30.2981   23.7669 H   0  0  0  0  0  0
  -15.8647  -28.0840   22.7025 H   0  0  0  0  0  0
  -24.5928  -30.6999   25.7845 H   0  0  0  0  0  0
  -24.8861  -32.2859   26.4897 H   0  0  0  0  0  0
  -25.8063  -30.8930   27.0266 H   0  0  0  0  0  0
  -26.2875  -29.6810   24.1127 H   0  0  0  0  0  0
  -27.4023  -29.7271   25.4593 H   0  0  0  0  0  0
  -27.8731  -30.4379   23.9333 H   0  0  0  0  0  0
  -27.2625  -33.3632   26.2098 H   0  0  0  0  0  0
  -28.3847  -32.6873   25.0355 H   0  0  0  0  0  0
  -28.0668  -31.8446   26.5442 H   0  0  0  0  0  0
  -28.2574  -38.0154   24.7518 H   0  0  0  0  0  0
  -28.1103  -36.2687   24.6225 H   0  0  0  0  0  0
  -27.2323  -37.1373   25.8857 H   0  0  0  0  0  0
  -20.9267  -29.8741   21.6951 H   0  0  0  0  0  0
  -26.0168  -38.2887   24.1437 H   0  0  0  0  0  0
  -29.2180  -20.7341   21.9524 H   0  0  0  0  0  0
  -29.6058  -22.8799   20.9465 H   0  0  0  0  0  0
  -26.4731  -22.1203   18.0713 H   0  0  0  0  0  0
  -28.2256  -17.0508   19.3874 H   0  0  0  0  0  0
  -29.2596  -18.4509   19.2507 H   0  0  0  0  0  0
  -28.1544  -17.1109   23.2082 H   0  0  0  0  0  0
  -27.5707  -16.1979   21.8390 H   0  0  0  0  0  0
  -31.1269  -17.2665   20.3283 H   0  0  0  0  0  0
  -30.5261  -16.3743   18.9491 H   0  0  0  0  0  0
  -29.5747  -15.0923   22.8779 H   0  0  0  0  0  0
  -30.5174  -16.5263   22.6228 H   0  0  0  0  0  0
  -29.4336  -18.6039   21.7272 H   0  0  0  0  0  0
  -27.2512  -18.7396   17.4113 H   0  0  0  0  0  0
  -26.3504  -20.0959   16.7392 H   0  0  0  0  0  0
  -25.5808  -18.5295   16.9266 H   0  0  0  0  0  0
  -24.0824  -20.4096   19.8499 H   0  0  0  0  0  0
  -23.6849  -19.5516   18.3696 H   0  0  0  0  0  0
  -24.3666  -21.1680   18.2894 H   0  0  0  0  0  0
  -28.0768  -26.2636   17.9866 H   0  0  0  0  0  0
  -29.6784  -26.7730   18.4095 H   0  0  0  0  0  0
  -29.7078  -24.6879   19.9964 H   0  0  0  0  0  0
  -30.0204  -24.4707   18.2877 H   0  0  0  0  0  0
  -25.7502  -18.6727   19.3659 H   0  0  0  0  0  0
  -26.5747  -18.4058   20.9843 H   0  0  0  0  0  0
  1 25  1  0  0  0
  1 30  2  0  0  0
  1 87  1  0  0  0
  2  3  1  0  0  0
  2 25  1  0  0  0
  2 90  1  0  0  0
  2 91  1  0  0  0
  3  4  1  0  0  0
  3 92  1  0  0  0
  3 93  1  0  0  0
  4  5  1  0  0  0
  4 94  1  0  0  0
  4 95  1  0  0  0
  5  6  1  0  0  0
  5 26  1  0  0  0
  5 96  1  0  0  0
  6 25  1  0  0  0
  6 97  1  0  0  0
  6 98  1  0  0  0
  7  8  2  0  0  0
  7 26  1  0  0  0
  7 29  1  0  0  0
  8  9  1  0  0  0
  8 22  1  0  0  0
  9 10  1  0  0  0
  9 27  2  0  0  0
 10 11  2  0  0  0
 10 15  1  0  0  0
 11 12  1  0  0  0
 11 99  1  0  0  0
 12 13  2  0  0  0
 12100  1  0  0  0
 13 14  1  0  0  0
 13 31  1  0  0  0
 14 15  2  0  0  0
 14101  1  0  0  0
 15102  1  0  0  0
 16 17  2  0  0  0
 16 21  1  0  0  0
 16 31  1  0  0  0
 17 18  1  0  0  0
 17103  1  0  0  0
 18 19  2  0  0  0
 18104  1  0  0  0
 19 20  1  0  0  0
 19 24  1  0  0  0
 20 21  2  0  0  0
 20105  1  0  0  0
 21 23  1  0  0  0
 22 28  1  0  0  0
 22 32  2  0  0  0
 26 27  1  0  0  0
 28106  1  0  0  0
 28107  1  0  0  0
 29108  1  0  0  0
 29109  1  0  0  0
 33 34  1  0  0  0
 33 66  1  0  0  0
 33 70  2  0  0  0
 34 36  1  0  0  0
 34 59  1  0  0  0
 34110  1  0  0  0
 35 44  2  0  0  0
 35 45  1  0  0  0
 35 68  1  0  0  0
 36 56  1  0  0  0
 36111  1  0  0  0
 37 39  1  0  0  0
 37 47  1  0  0  0
 37 66  1  0  0  0
 37112  1  0  0  0
 38 43  2  0  0  0
 38 46  1  0  0  0
 38 47  1  0  0  0
 39 64  1  0  0  0
 39 67  2  0  0  0
 40 52  1  0  0  0
 40 53  2  0  0  0
 40 58  1  0  0  0
 41113  1  0  0  0
 41114  1  0  0  0
 41115  1  0  0  0
 41 48  1  0  0  0
 42 43  1  0  0  0
 42 66  1  0  0  0
 42116  1  0  0  0
 42117  1  0  0  0
 43 44  1  0  0  0
 44118  1  0  0  0
 45 46  2  0  0  0
 45119  1  0  0  0
 46120  1  0  0  0
 47121  1  0  0  0
 47122  1  0  0  0
 48 56  1  0  0  0
 48 65  1  0  0  0
 48123  1  0  0  0
 49 50  1  0  0  0
 49 53  1  0  0  0
 49 64  1  0  0  0
 49124  1  0  0  0
 50 51  1  0  0  0
 50125  1  0  0  0
 50126  1  0  0  0
 51 52  1  0  0  0
 51127  1  0  0  0
 51128  1  0  0  0
 52129  1  0  0  0
 52130  1  0  0  0
 53 54  1  0  0  0
 54 55  2  0  0  0
 54131  1  0  0  0
 55 57  1  0  0  0
 55132  1  0  0  0
 56 69  2  0  0  0
 57 58  2  0  0  0
 57133  1  0  0  0
 58134  1  0  0  0
 59 60  1  0  0  0
 59 61  1  0  0  0
 59 62  1  0  0  0
 60135  1  0  0  0
 60136  1  0  0  0
 60137  1  0  0  0
 61138  1  0  0  0
 61139  1  0  0  0
 61140  1  0  0  0
 62141  1  0  0  0
 62142  1  0  0  0
 62143  1  0  0  0
 63 65  1  0  0  0
 63144  1  0  0  0
 63145  1  0  0  0
 63146  1  0  0  0
 64147  1  0  0  0
 65148  1  0  0  0
 68 84  1  0  0  0
 71 72  2  0  0  0
 71 75  1  0  0  0
 71149  1  0  0  0
 72 76  1  0  0  0
 72150  1  0  0  0
 73 74  1  0  0  0
 73 76  2  0  0  0
 73151  1  0  0  0
 74 75  2  0  0  0
 74 86  1  0  0  0
 75 88  1  0  0  0
 76 89  1  0  0  0
 77 79  1  0  0  0
 77 81  1  0  0  0
 77152  1  0  0  0
 77153  1  0  0  0
 78 80  1  0  0  0
 78 81  1  0  0  0
 78154  1  0  0  0
 78155  1  0  0  0
 79 87  1  0  0  0
 79156  1  0  0  0
 79157  1  0  0  0
 80 87  1  0  0  0
 80158  1  0  0  0
 80159  1  0  0  0
 81 88  1  0  0  0
 81160  1  0  0  0
 82161  1  0  0  0
 82162  1  0  0  0
 82163  1  0  0  0
 82 86  1  0  0  0
 83 86  1  0  0  0
 83164  1  0  0  0
 83165  1  0  0  0
 83166  1  0  0  0
 84 85  1  0  0  0
 84167  1  0  0  0
 84168  1  0  0  0
 85 89  1  0  0  0
 85169  1  0  0  0
 85170  1  0  0  0
 86171  1  0  0  0
 88172  1  0  0  0
M  ISO  4   1 100  68 101  84 101  87 100
M  END
> <chiral flag>
0

> <version>
0

> <s_m_source_file>
/data/baiqing/PycharmProjects/Reinvent-master-3.2/result/LINK_invent/BTK/process_docking_weight1_custom_sum_contain_oxygen_bond_distance_aromatic_linkinvent_7_9_3/rearranged_h_0138.sdf

> <i_m_source_file_index>
29

> <r_mmod_Potential_Energy-OPLS-2005>
136.316452026367

> <r_mmod_Stretch_Energy-OPLS-2005>
36.0451965332031

> <r_mmod_Bend_Energy-OPLS-2005>
116.323364257812

> <r_mmod_Torsional_Energy-OPLS-2005>
324.802673339844

> <r_mmod_Improper_Torsional_Energy-OPLS-2005>
19.3445796966553

> <r_mmod_Van_der_Waal_Energy-OPLS-2005>
161.296859741211

> <r_mmod_Electrostatic_Energy-OPLS-2005>
-337.890502929688

> <r_mmod_Solvation_Energy-OPLS-2005>
-196.367416381836

> <b_mmod_Minimization_Converged-OPLS-2005>
0

> <r_mmod_RMS_Derivative-OPLS-2005>
4.08010673522949

$$$$
29
                    3D
 Structure written by MMmdl.
179189  0  0  1  0            999 V2000
  -30.8016  -14.4302   20.5787 C   0  0  0  0  0  0
  -30.4007  -12.2847   19.4277 C   0  0  0  0  0  0
  -29.4812  -12.4765   18.2072 C   0  0  0  0  0  0
  -28.0069  -12.3278   18.6250 C   0  0  0  0  0  0
  -27.6541  -13.1875   19.8647 C   0  0  2  0  0  0
  -28.7075  -13.0195   20.9924 C   0  0  0  0  0  0
  -25.2608  -13.8103   20.5702 C   0  0  0  0  0  0
  -24.1835  -13.0390   20.9199 C   0  0  0  0  0  0
  -24.6383  -11.6861   20.8769 C   0  0  0  0  0  0
  -23.9039  -10.4265   21.0425 C   0  0  0  0  0  0
  -24.3600   -9.4179   21.9178 C   0  0  0  0  0  0
  -23.6279   -8.2222   22.0746 C   0  0  0  0  0  0
  -22.4269   -8.0267   21.3549 C   0  0  0  0  0  0
  -21.9910   -9.0224   20.4641 C   0  0  0  0  0  0
  -22.7225  -10.2105   20.3060 C   0  0  0  0  0  0
  -21.6831   -6.0738   22.5291 C   0  0  0  0  0  0
  -21.4003   -6.5645   23.8223 C   0  0  0  0  0  0
  -21.3652   -5.6804   24.9190 C   0  0  0  0  0  0
  -21.6049   -4.3068   24.7238 C   0  0  0  0  0  0
  -21.8817   -3.8150   23.4364 C   0  0  0  0  0  0
  -21.9194   -4.6963   22.3416 C   0  0  0  0  0  0
  -22.7866  -13.5195   21.1851 C   0  0  0  0  0  0
  -22.1652   -4.2152   21.0993 F   0  0  0  0  0  0
  -21.5629   -3.4551   25.7749 F   0  0  0  0  0  0
  -30.0414  -13.3019   20.4350 N   0  0  0  0  0  0
  -26.2999  -12.9210   20.3385 N   0  0  0  0  0  0
  -25.9306  -11.6402   20.5844 N   0  0  0  0  0  0
  -22.0515  -12.8173   22.0404 N   0  0  0  0  0  0
  -25.4367  -15.1802   20.4109 N   0  0  0  0  0  0
  -31.9014  -14.5280   20.0292 O   0  0  0  0  0  0
  -21.6613   -6.8877   21.4260 O   0  0  0  0  0  0
  -22.3550  -14.5509   20.6707 O   0  0  0  0  0  0
  -24.6155  -31.8716   23.2079 C   0  0  0  0  0  0
  -25.9073  -32.4824   23.8374 C   0  0  1  0  0  0
  -27.2424  -27.4790   20.0773 C   0  0  0  0  0  0
  -25.5939  -33.8616   24.2332 N   0  0  0  0  0  0
  -23.3992  -30.4913   21.5505 C   0  0  2  0  0  0
  -24.8420  -28.9577   20.1158 C   0  0  0  0  0  0
  -22.7424  -29.4646   22.5017 C   0  0  0  0  0  0
  -18.0248  -28.1360   22.8504 C   0  0  0  0  0  0
  -24.1490  -36.7310   23.2638 C   0  0  0  0  0  0
  -25.9205  -30.8523   21.3488 C   0  0  0  0  0  0
  -25.9984  -29.4864   20.7034 C   0  0  0  0  0  0
  -27.2017  -28.7545   20.6851 C   0  0  0  0  0  0
  -26.0654  -26.9386   19.5251 C   0  0  0  0  0  0
  -24.8680  -27.6793   19.5263 C   0  0  0  0  0  0
  -23.6023  -29.8208   20.1632 C   0  0  0  0  0  0
  -25.4114  -36.3119   24.0344 C   0  0  1  0  0  0
  -20.5854  -28.3624   23.1342 C   0  0  2  0  0  0
  -20.6724  -26.9357   22.5424 C   0  0  0  0  0  0
  -19.5692  -26.6364   21.5219 C   0  0  0  0  0  0
  -18.1876  -26.7905   22.1636 C   0  0  0  0  0  0
  -19.1502  -28.8812   23.2918 C   0  0  0  0  0  0
  -18.9426  -30.1429   23.8917 C   0  0  0  0  0  0
  -17.6428  -30.6564   24.0574 C   0  0  0  0  0  0
  -25.9047  -34.9487   23.5134 C   0  0  0  0  0  0
  -16.5319  -29.9069   23.6334 C   0  0  0  0  0  0
  -16.7244  -28.6495   23.0339 C   0  0  0  0  0  0
  -26.4482  -31.6592   25.0704 C   0  0  0  0  0  0
  -25.3749  -31.3717   26.1448 C   0  0  0  0  0  0
  -27.0282  -30.3028   24.6050 C   0  0  0  0  0  0
  -27.6055  -32.4303   25.7505 C   0  0  0  0  0  0
  -27.5585  -37.1824   24.8477 C   0  0  0  0  0  0
  -21.4146  -29.3011   22.3771 N   0  0  0  0  0  0
  -26.4301  -37.3810   23.9413 N   0  0  0  0  0  0
  -24.6631  -31.0859   22.0951 N   0  0  0  0  0  0
  -23.4222  -28.8188   23.3038 O   0  0  0  0  0  0
  -28.3880  -26.7304   19.9904 O   0  0  0  0  0  0
  -26.5594  -34.8951   22.4687 O   0  0  0  0  0  0
  -23.5359  -32.1444   23.7508 O   0  0  0  0  0  0
  -31.4768  -25.1149   21.1998 C   0  0  0  0  0  0
  -31.9761  -23.8399   19.1981 C   0  0  0  0  0  0
  -31.7173  -22.6798   21.3445 C   0  0  0  0  0  0
  -31.4875  -23.9363   21.9714 C   0  0  0  0  0  0
  -31.7179  -25.0753   19.8168 C   0  0  0  0  0  0
  -31.9821  -22.6348   19.9455 C   0  0  0  0  0  0
  -29.4371  -17.6496   20.9651 C   0  0  0  0  0  0
  -33.0161  -20.6595   22.3368 C   0  0  0  0  0  0
  -29.1091  -16.1621   21.0412 C   0  0  0  0  0  0
  -31.3210  -16.4779   21.8418 C   0  0  0  0  0  0
  -32.5868  -19.2117   22.5868 C   0  0  0  0  0  0
  -30.6901  -20.3061   21.6474 C   0  0  0  0  0  0
  -31.6742  -21.3774   22.1611 C   0  0  2  0  0  0
  -30.5728  -17.8165   21.9601 C   0  0  1  0  0  0
  -31.2667  -24.0694   23.4739 C   0  0  0  0  0  0
  -32.3664  -21.3349   17.9483 C   0  0  0  0  0  0
  -30.3604  -26.6168   18.6213 C   0  0  0  0  0  0
  -29.5757  -27.4395   19.6590 C   0  0  0  0  0  0
  -30.3582  -15.4566   21.3568 N   0  0  0  0  0  0
  -31.7040  -26.2526   19.0599 N   0  0  0  0  0  0
  -31.4182  -19.0154   21.7018 N   0  3  2  0  0  0
  -32.2405  -21.4059   19.3664 O   0  0  0  0  0  0
  -31.4475  -12.3213   19.1211 H   0  0  0  0  0  0
  -30.2633  -11.2866   19.8466 H   0  0  0  0  0  0
  -29.7188  -11.7392   17.4383 H   0  0  0  0  0  0
  -29.6475  -13.4564   17.7562 H   0  0  0  0  0  0
  -27.8294  -11.2742   18.8441 H   0  0  0  0  0  0
  -27.3479  -12.5738   17.7911 H   0  0  0  0  0  0
  -27.6624  -14.2079   19.4999 H   0  0  0  0  0  0
  -28.6872  -11.9939   21.3666 H   0  0  0  0  0  0
  -28.4791  -13.6414   21.8566 H   0  0  0  0  0  0
  -25.2752   -9.5637   22.4726 H   0  0  0  0  0  0
  -23.9986   -7.4613   22.7460 H   0  0  0  0  0  0
  -21.0845   -8.8729   19.8940 H   0  0  0  0  0  0
  -22.3687  -10.9627   19.6157 H   0  0  0  0  0  0
  -21.1984   -7.6150   23.9718 H   0  0  0  0  0  0
  -21.1469   -6.0541   25.9089 H   0  0  0  0  0  0
  -22.0607   -2.7609   23.2864 H   0  0  0  0  0  0
  -22.4127  -11.9823   22.4775 H   0  0  0  0  0  0
  -21.1134  -13.1167   22.2629 H   0  0  0  0  0  0
  -24.6767  -15.8415   20.5242 H   0  0  0  0  0  0
  -26.2958  -15.6139   20.0974 H   0  0  0  0  0  0
  -26.7181  -32.5530   23.1173 H   0  0  0  0  0  0
  -25.0141  -33.9776   25.0507 H   0  0  0  0  0  0
  -22.6881  -31.3078   21.4145 H   0  0  0  0  0  0
  -23.3762  -35.9631   23.3309 H   0  0  0  0  0  0
  -24.3588  -36.8893   22.2050 H   0  0  0  0  0  0
  -23.7231  -37.6520   23.6628 H   0  0  0  0  0  0
  -26.0252  -31.6161   20.5767 H   0  0  0  0  0  0
  -26.8142  -30.9082   21.9604 H   0  0  0  0  0  0
  -28.0910  -29.1771   21.1307 H   0  0  0  0  0  0
  -26.0871  -25.9532   19.0780 H   0  0  0  0  0  0
  -23.9809  -27.2616   19.0701 H   0  0  0  0  0  0
  -23.7083  -30.5970   19.4037 H   0  0  0  0  0  0
  -22.7281  -29.2341   19.8727 H   0  0  0  0  0  0
  -25.1286  -36.2000   25.0837 H   0  0  0  0  0  0
  -20.9938  -28.3143   24.1467 H   0  0  0  0  0  0
  -20.5605  -26.2226   23.3601 H   0  0  0  0  0  0
  -21.6585  -26.7366   22.1222 H   0  0  0  0  0  0
  -19.6840  -25.6283   21.1206 H   0  0  0  0  0  0
  -19.6610  -27.3219   20.6780 H   0  0  0  0  0  0
  -17.4143  -26.6660   21.4033 H   0  0  0  0  0  0
  -18.0260  -26.0041   22.9027 H   0  0  0  0  0  0
  -19.7897  -30.7244   24.2287 H   0  0  0  0  0  0
  -17.4971  -31.6257   24.5137 H   0  0  0  0  0  0
  -15.5315  -30.2976   23.7627 H   0  0  0  0  0  0
  -15.8647  -28.0839   22.7012 H   0  0  0  0  0  0
  -24.5912  -30.7078   25.7793 H   0  0  0  0  0  0
  -24.8956  -32.2872   26.4922 H   0  0  0  0  0  0
  -25.8104  -30.8876   27.0188 H   0  0  0  0  0  0
  -26.2813  -29.6862   24.1032 H   0  0  0  0  0  0
  -27.3965  -29.7200   25.4502 H   0  0  0  0  0  0
  -27.8687  -30.4326   23.9224 H   0  0  0  0  0  0
  -27.2644  -33.3573   26.2127 H   0  0  0  0  0  0
  -28.3862  -32.6910   25.0350 H   0  0  0  0  0  0
  -28.0719  -31.8399   26.5399 H   0  0  0  0  0  0
  -28.2632  -38.0102   24.7523 H   0  0  0  0  0  0
  -28.1048  -36.2637   24.6293 H   0  0  0  0  0  0
  -27.2304  -37.1471   25.8883 H   0  0  0  0  0  0
  -20.9310  -29.8788   21.7034 H   0  0  0  0  0  0
  -26.0195  -38.2900   24.1373 H   0  0  0  0  0  0
  -31.3011  -26.0624   21.6856 H   0  0  0  0  0  0
  -32.1668  -23.8394   18.1362 H   0  0  0  0  0  0
  -28.5758  -18.2817   21.1847 H   0  0  0  0  0  0
  -29.7756  -17.8891   19.9544 H   0  0  0  0  0  0
  -33.6138  -20.7093   21.4260 H   0  0  0  0  0  0
  -33.6178  -21.0773   23.1452 H   0  0  0  0  0  0
  -28.6940  -15.8722   20.0824 H   0  0  0  0  0  0
  -28.3717  -15.9659   21.8206 H   0  0  0  0  0  0
  -31.7359  -16.1843   22.8074 H   0  0  0  0  0  0
  -32.1676  -16.6000   21.1625 H   0  0  0  0  0  0
  -32.2847  -19.0920   23.6293 H   0  0  0  0  0  0
  -33.3899  -18.5015   22.3824 H   0  0  0  0  0  0
  -30.3315  -20.4852   20.6335 H   0  0  0  0  0  0
  -29.8097  -20.2881   22.2930 H   0  0  0  0  0  0
  -31.3319  -21.5912   23.1715 H   0  0  0  0  0  0
  -30.1488  -17.8858   22.9643 H   0  0  0  0  0  0
  -31.2425  -25.1149   23.7869 H   0  0  0  0  0  0
  -32.0748  -23.5888   24.0287 H   0  0  0  0  0  0
  -30.3204  -23.6169   23.7749 H   0  0  0  0  0  0
  -32.5325  -20.3001   17.6486 H   0  0  0  0  0  0
  -33.2165  -21.9169   17.5892 H   0  0  0  0  0  0
  -31.4595  -21.6794   17.4479 H   0  0  0  0  0  0
  -30.4602  -27.2039   17.7068 H   0  0  0  0  0  0
  -29.7997  -25.7238   18.3312 H   0  0  0  0  0  0
  -29.3676  -28.4164   19.2182 H   0  0  0  0  0  0
  -30.1465  -27.6174   20.5684 H   0  0  0  0  0  0
  -32.3456  -26.2360   18.2692 H   0  0  0  0  0  0
  -31.8094  -18.9117   20.7769 H   0  0  0  0  0  0
  1 25  1  0  0  0
  1 30  2  0  0  0
  1 89  1  0  0  0
  2  3  1  0  0  0
  2 25  1  0  0  0
  2 93  1  0  0  0
  2 94  1  0  0  0
  3  4  1  0  0  0
  3 95  1  0  0  0
  3 96  1  0  0  0
  4  5  1  0  0  0
  4 97  1  0  0  0
  4 98  1  0  0  0
  5  6  1  0  0  0
  5 26  1  0  0  0
  5 99  1  0  0  0
  6 25  1  0  0  0
  6100  1  0  0  0
  6101  1  0  0  0
  7  8  2  0  0  0
  7 26  1  0  0  0
  7 29  1  0  0  0
  8  9  1  0  0  0
  8 22  1  0  0  0
  9 10  1  0  0  0
  9 27  2  0  0  0
 10 11  2  0  0  0
 10 15  1  0  0  0
 11 12  1  0  0  0
 11102  1  0  0  0
 12 13  2  0  0  0
 12103  1  0  0  0
 13 14  1  0  0  0
 13 31  1  0  0  0
 14 15  2  0  0  0
 14104  1  0  0  0
 15105  1  0  0  0
 16 17  2  0  0  0
 16 21  1  0  0  0
 16 31  1  0  0  0
 17 18  1  0  0  0
 17106  1  0  0  0
 18 19  2  0  0  0
 18107  1  0  0  0
 19 20  1  0  0  0
 19 24  1  0  0  0
 20 21  2  0  0  0
 20108  1  0  0  0
 21 23  1  0  0  0
 22 28  1  0  0  0
 22 32  2  0  0  0
 26 27  1  0  0  0
 28109  1  0  0  0
 28110  1  0  0  0
 29111  1  0  0  0
 29112  1  0  0  0
 33 34  1  0  0  0
 33 66  1  0  0  0
 33 70  2  0  0  0
 34 36  1  0  0  0
 34 59  1  0  0  0
 34113  1  0  0  0
 35 44  2  0  0  0
 35 45  1  0  0  0
 35 68  1  0  0  0
 36 56  1  0  0  0
 36114  1  0  0  0
 37 39  1  0  0  0
 37 47  1  0  0  0
 37 66  1  0  0  0
 37115  1  0  0  0
 38 43  2  0  0  0
 38 46  1  0  0  0
 38 47  1  0  0  0
 39 64  1  0  0  0
 39 67  2  0  0  0
 40 52  1  0  0  0
 40 53  2  0  0  0
 40 58  1  0  0  0
 41116  1  0  0  0
 41117  1  0  0  0
 41118  1  0  0  0
 41 48  1  0  0  0
 42 43  1  0  0  0
 42 66  1  0  0  0
 42119  1  0  0  0
 42120  1  0  0  0
 43 44  1  0  0  0
 44121  1  0  0  0
 45 46  2  0  0  0
 45122  1  0  0  0
 46123  1  0  0  0
 47124  1  0  0  0
 47125  1  0  0  0
 48 56  1  0  0  0
 48 65  1  0  0  0
 48126  1  0  0  0
 49 50  1  0  0  0
 49 53  1  0  0  0
 49 64  1  0  0  0
 49127  1  0  0  0
 50 51  1  0  0  0
 50128  1  0  0  0
 50129  1  0  0  0
 51 52  1  0  0  0
 51130  1  0  0  0
 51131  1  0  0  0
 52132  1  0  0  0
 52133  1  0  0  0
 53 54  1  0  0  0
 54 55  2  0  0  0
 54134  1  0  0  0
 55 57  1  0  0  0
 55135  1  0  0  0
 56 69  2  0  0  0
 57 58  2  0  0  0
 57136  1  0  0  0
 58137  1  0  0  0
 59 60  1  0  0  0
 59 61  1  0  0  0
 59 62  1  0  0  0
 60138  1  0  0  0
 60139  1  0  0  0
 60140  1  0  0  0
 61141  1  0  0  0
 61142  1  0  0  0
 61143  1  0  0  0
 62144  1  0  0  0
 62145  1  0  0  0
 62146  1  0  0  0
 63 65  1  0  0  0
 63147  1  0  0  0
 63148  1  0  0  0
 63149  1  0  0  0
 64150  1  0  0  0
 65151  1  0  0  0
 68 88  1  0  0  0
 71 74  2  0  0  0
 71 75  1  0  0  0
 71152  1  0  0  0
 72 75  2  0  0  0
 72 76  1  0  0  0
 72153  1  0  0  0
 73 74  1  0  0  0
 73 76  2  0  0  0
 73 83  1  0  0  0
 74 85  1  0  0  0
 75 90  1  0  0  0
 76 92  1  0  0  0
 77 79  1  0  0  0
 77154  1  0  0  0
 77155  1  0  0  0
 77 84  1  0  0  0
 78 81  1  0  0  0
 78 83  1  0  0  0
 78156  1  0  0  0
 78157  1  0  0  0
 79 89  1  0  0  0
 79158  1  0  0  0
 79159  1  0  0  0
 80 84  1  0  0  0
 80 89  1  0  0  0
 80160  1  0  0  0
 80161  1  0  0  0
 81162  1  0  0  0
 81163  1  0  0  0
 81 91  1  0  0  0
 82 83  1  0  0  0
 82 91  1  0  0  0
 82164  1  0  0  0
 82165  1  0  0  0
 83166  1  0  0  0
 84 91  1  0  0  0
 84167  1  0  0  0
 85168  1  0  0  0
 85169  1  0  0  0
 85170  1  0  0  0
 86 92  1  0  0  0
 86171  1  0  0  0
 86172  1  0  0  0
 86173  1  0  0  0
 87 88  1  0  0  0
 87 90  1  0  0  0
 87174  1  0  0  0
 87175  1  0  0  0
 88176  1  0  0  0
 88177  1  0  0  0
 90178  1  0  0  0
 91179  1  0  0  0
M  CHG  1  91   1
M  ISO  4   1 100  68 101  88 101  89 100
M  END
> <chiral flag>
0

> <version>
0

> <s_m_source_file>
/data/baiqing/PycharmProjects/Reinvent-master-3.2/result/LINK_invent/BTK/process_docking_weight1_custom_sum_contain_oxygen_bond_distance_aromatic_linkinvent_7_9_3/rearranged_h_0138.sdf

> <i_m_source_file_index>
30

> <r_mmod_Potential_Energy-OPLS-2005>
168.668258666992

> <r_mmod_Stretch_Energy-OPLS-2005>
41.3567886352539

> <r_mmod_Bend_Energy-OPLS-2005>
164.701187133789

> <r_mmod_Torsional_Energy-OPLS-2005>
434.521606445312

> <r_mmod_Improper_Torsional_Energy-OPLS-2005>
10.8740739822388

> <r_mmod_Van_der_Waal_Energy-OPLS-2005>
168.303253173828

> <r_mmod_Electrostatic_Energy-OPLS-2005>
-231.402908325195

> <r_mmod_Solvation_Energy-OPLS-2005>
-433.271728515625

> <b_mmod_Minimization_Converged-OPLS-2005>
0

> <r_mmod_RMS_Derivative-OPLS-2005>
3.48252534866333

$$$$
30
                    3D
 Structure written by MMmdl.
162170  0  0  1  0            999 V2000
  -30.6489  -14.4494   20.4858 C   0  0  0  0  0  0
  -30.4281  -12.2698   19.3776 C   0  0  0  0  0  0
  -29.4763  -12.4708   18.1731 C   0  0  0  0  0  0
  -27.9995  -12.3323   18.5961 C   0  0  0  0  0  0
  -27.6601  -13.1640   19.8631 C   0  0  2  0  0  0
  -28.7207  -12.9209   20.9676 C   0  0  0  0  0  0
  -25.2647  -13.8072   20.5660 C   0  0  0  0  0  0
  -24.1837  -13.0397   20.9259 C   0  0  0  0  0  0
  -24.6318  -11.6858   20.8768 C   0  0  0  0  0  0
  -23.8957  -10.4260   21.0441 C   0  0  0  0  0  0
  -24.3530   -9.4190   21.9216 C   0  0  0  0  0  0
  -23.6228   -8.2199   22.0741 C   0  0  0  0  0  0
  -22.4232   -8.0242   21.3524 C   0  0  0  0  0  0
  -21.9851   -9.0208   20.4631 C   0  0  0  0  0  0
  -22.7145  -10.2114   20.3083 C   0  0  0  0  0  0
  -21.6844   -6.0703   22.5266 C   0  0  0  0  0  0
  -21.4000   -6.5608   23.8197 C   0  0  0  0  0  0
  -21.3649   -5.6772   24.9166 C   0  0  0  0  0  0
  -21.6073   -4.3038   24.7235 C   0  0  0  0  0  0
  -21.8808   -3.8115   23.4353 C   0  0  0  0  0  0
  -21.9181   -4.6921   22.3404 C   0  0  0  0  0  0
  -22.7890  -13.5249   21.1904 C   0  0  0  0  0  0
  -22.1662   -4.2103   21.0988 F   0  0  0  0  0  0
  -21.5630   -3.4535   25.7750 F   0  0  0  0  0  0
  -30.0404  -13.2419   20.4027 N   0  0  0  0  0  0
  -26.2989  -12.9089   20.3342 N   0  0  0  0  0  0
  -25.9228  -11.6313   20.5800 N   0  0  0  0  0  0
  -22.0464  -12.8265   22.0428 N   0  0  0  0  0  0
  -25.4449  -15.1718   20.3880 N   0  0  0  0  0  0
  -31.7940  -14.6792   20.0864 O   0  0  0  0  0  0
  -21.6611   -6.8826   21.4223 O   0  0  0  0  0  0
  -22.3637  -14.5601   20.6768 O   0  0  0  0  0  0
  -24.6102  -31.8729   23.2160 C   0  0  0  0  0  0
  -25.9022  -32.4871   23.8457 C   0  0  1  0  0  0
  -27.1862  -27.4273   20.1164 C   0  0  0  0  0  0
  -25.5829  -33.8672   24.2360 N   0  0  0  0  0  0
  -23.3974  -30.5065   21.5499 C   0  0  2  0  0  0
  -24.8354  -28.9848   20.1017 C   0  0  0  0  0  0
  -22.7393  -29.4767   22.4943 C   0  0  0  0  0  0
  -18.0348  -28.1319   22.8562 C   0  0  0  0  0  0
  -24.1453  -36.7325   23.2652 C   0  0  0  0  0  0
  -25.9274  -30.8434   21.3638 C   0  0  0  0  0  0
  -25.9958  -29.4823   20.7068 C   0  0  0  0  0  0
  -27.1776  -28.7052   20.7133 C   0  0  0  0  0  0
  -26.0190  -26.9595   19.4746 C   0  0  0  0  0  0
  -24.8440  -27.7312   19.4751 C   0  0  0  0  0  0
  -23.5968  -29.8444   20.1624 C   0  0  0  0  0  0
  -25.4091  -36.3161   24.0365 C   0  0  1  0  0  0
  -20.5931  -28.3753   23.1417 C   0  0  2  0  0  0
  -20.6957  -26.9390   22.5814 C   0  0  0  0  0  0
  -19.6041  -26.6291   21.5486 C   0  0  0  0  0  0
  -18.2075  -26.7867   22.1680 C   0  0  0  0  0  0
  -19.1576  -28.8867   23.2865 C   0  0  0  0  0  0
  -18.9571  -30.1570   23.8750 C   0  0  0  0  0  0
  -17.6599  -30.6692   24.0462 C   0  0  0  0  0  0
  -25.9059  -34.9519   23.5186 C   0  0  0  0  0  0
  -16.5472  -29.9158   23.6317 C   0  0  0  0  0  0
  -16.7328  -28.6527   23.0442 C   0  0  0  0  0  0
  -26.4449  -31.6611   25.0790 C   0  0  0  0  0  0
  -25.3713  -31.3665   26.1544 C   0  0  0  0  0  0
  -27.0291  -30.3057   24.6125 C   0  0  0  0  0  0
  -27.6055  -32.4302   25.7516 C   0  0  0  0  0  0
  -27.5582  -37.1817   24.8469 C   0  0  0  0  0  0
  -21.4102  -29.3037   22.3684 N   0  0  0  0  0  0
  -26.4281  -37.3836   23.9438 N   0  0  0  0  0  0
  -24.6627  -31.0901   22.1004 N   0  0  0  0  0  0
  -23.4223  -28.8398   23.3015 O   0  0  0  0  0  0
  -28.2955  -26.6142   20.2013 O   0  0  0  0  0  0
  -26.5622  -34.8967   22.4746 O   0  0  0  0  0  0
  -23.5302  -32.1457   23.7577 O   0  0  0  0  0  0
  -26.9486  -21.9412   19.0586 C   0  0  0  0  0  0
  -27.4874  -22.2770   21.5554 C   0  0  0  0  0  0
  -26.7398  -20.4720   19.4965 C   0  0  0  0  0  0
  -28.4340  -21.0924   21.3510 C   0  0  0  0  0  0
  -27.0884  -22.9630   20.2257 C   0  0  1  0  0  0
  -27.7084  -19.9590   20.5981 C   0  0  2  0  0  0
  -27.9953  -24.1601   19.8183 C   0  0  0  0  0  0
  -29.9850  -16.8621   20.4616 C   0  0  0  0  0  0
  -28.6904  -17.6645   20.7270 C   0  0  0  0  0  0
  -28.0114  -25.3373   20.8153 C   0  0  0  0  0  0
  -29.7991  -15.4460   20.7795 N   0  0  0  0  0  0
  -28.6978  -18.9970   20.0706 N   0  3  0  0  0  0
  -31.4744  -12.3698   19.0750 H   0  0  0  0  0  0
  -30.3334  -11.2535   19.7700 H   0  0  0  0  0  0
  -29.7040  -11.7452   17.3895 H   0  0  0  0  0  0
  -29.6335  -13.4571   17.7280 H   0  0  0  0  0  0
  -27.7963  -11.2746   18.7776 H   0  0  0  0  0  0
  -27.3423  -12.6277   17.7755 H   0  0  0  0  0  0
  -27.7098  -14.2111   19.5660 H   0  0  0  0  0  0
  -28.7079  -11.8709   21.2628 H   0  0  0  0  0  0
  -28.5091  -13.4726   21.8838 H   0  0  0  0  0  0
  -25.2657   -9.5680   22.4831 H   0  0  0  0  0  0
  -23.9943   -7.4586   22.7441 H   0  0  0  0  0  0
  -21.0800   -8.8684   19.8942 H   0  0  0  0  0  0
  -22.3557  -10.9644   19.6213 H   0  0  0  0  0  0
  -21.1994   -7.6121   23.9683 H   0  0  0  0  0  0
  -21.1498   -6.0516   25.9066 H   0  0  0  0  0  0
  -22.0609   -2.7578   23.2869 H   0  0  0  0  0  0
  -22.3956  -11.9899   22.4849 H   0  0  0  0  0  0
  -21.1097  -13.1320   22.2604 H   0  0  0  0  0  0
  -24.6593  -15.8086   20.4326 H   0  0  0  0  0  0
  -26.2191  -15.5420   19.8523 H   0  0  0  0  0  0
  -26.7104  -32.5599   23.1228 H   0  0  0  0  0  0
  -24.9921  -33.9761   25.0472 H   0  0  0  0  0  0
  -22.6885  -31.3233   21.4159 H   0  0  0  0  0  0
  -23.3769  -35.9602   23.3318 H   0  0  0  0  0  0
  -24.3562  -36.8915   22.2064 H   0  0  0  0  0  0
  -23.7146  -37.6514   23.6664 H   0  0  0  0  0  0
  -26.0540  -31.6037   20.5889 H   0  0  0  0  0  0
  -26.8160  -30.8846   21.9855 H   0  0  0  0  0  0
  -28.0643  -29.0639   21.2145 H   0  0  0  0  0  0
  -25.9980  -25.9879   18.9988 H   0  0  0  0  0  0
  -23.9563  -27.3549   18.9889 H   0  0  0  0  0  0
  -23.6728  -30.6236   19.4033 H   0  0  0  0  0  0
  -22.7258  -29.2505   19.8829 H   0  0  0  0  0  0
  -25.1266  -36.2065   25.0860 H   0  0  0  0  0  0
  -21.0025  -28.3739   24.1545 H   0  0  0  0  0  0
  -20.5947  -26.2441   23.4142 H   0  0  0  0  0  0
  -21.6801  -26.7499   22.1602 H   0  0  0  0  0  0
  -19.7145  -27.2958   20.6891 H   0  0  0  0  0  0
  -19.7385  -25.6228   21.1691 H   0  0  0  0  0  0
  -17.4590  -26.6917   21.3836 H   0  0  0  0  0  0
  -18.0187  -25.9905   22.8887 H   0  0  0  0  0  0
  -19.8145  -30.7419   24.1886 H   0  0  0  0  0  0
  -17.5212  -31.6456   24.4886 H   0  0  0  0  0  0
  -15.5504  -30.3182   23.7564 H   0  0  0  0  0  0
  -15.8679  -28.0998   22.7107 H   0  0  0  0  0  0
  -24.5920  -30.6957   25.7885 H   0  0  0  0  0  0
  -24.8873  -32.2791   26.5039 H   0  0  0  0  0  0
  -25.8082  -30.8823   27.0273 H   0  0  0  0  0  0
  -26.2807  -29.6802   24.1219 H   0  0  0  0  0  0
  -27.4110  -29.7320   25.4578 H   0  0  0  0  0  0
  -27.8643  -30.4445   23.9248 H   0  0  0  0  0  0
  -27.2724  -33.3581   26.2151 H   0  0  0  0  0  0
  -28.3821  -32.6805   25.0300 H   0  0  0  0  0  0
  -28.0768  -31.8380   26.5342 H   0  0  0  0  0  0
  -28.2636  -38.0080   24.7599 H   0  0  0  0  0  0
  -28.1032  -36.2646   24.6222 H   0  0  0  0  0  0
  -27.2331  -37.1426   25.8868 H   0  0  0  0  0  0
  -20.9161  -29.8719   21.6967 H   0  0  0  0  0  0
  -26.0196  -38.2932   24.1412 H   0  0  0  0  0  0
  -26.1024  -22.2294   18.4318 H   0  0  0  0  0  0
  -27.8213  -21.9849   18.4052 H   0  0  0  0  0  0
  -27.9110  -22.9894   22.2627 H   0  0  0  0  0  0
  -26.5889  -21.8895   22.0388 H   0  0  0  0  0  0
  -26.7445  -19.8171   18.6244 H   0  0  0  0  0  0
  -25.7286  -20.3865   19.8842 H   0  0  0  0  0  0
  -28.7844  -20.7228   22.3217 H   0  0  0  0  0  0
  -29.3093  -21.4278   20.8035 H   0  0  0  0  0  0
  -26.0920  -23.3823   20.3928 H   0  0  0  0  0  0
  -27.0760  -19.4367   21.3140 H   0  0  0  0  0  0
  -27.6533  -24.5246   18.8501 H   0  0  0  0  0  0
  -29.0187  -23.8278   19.6335 H   0  0  0  0  0  0
  -30.2801  -16.9584   19.4161 H   0  0  0  0  0  0
  -30.8077  -17.2517   21.0777 H   0  0  0  0  0  0
  -28.5754  -17.7893   21.8088 H   0  0  0  0  0  0
  -27.8230  -17.1118   20.3692 H   0  0  0  0  0  0
  -28.7632  -25.1496   21.5815 H   0  0  0  0  0  0
  -27.0603  -25.3636   21.3576 H   0  0  0  0  0  0
  -28.8554  -15.1395   20.9754 H   0  0  0  0  0  0
  -29.6018  -19.4193   20.1610 H   0  0  0  0  0  0
  -28.5085  -18.8832   19.0871 H   0  0  0  0  0  0
  1 25  1  0  0  0
  1 30  2  0  0  0
  1 81  1  0  0  0
  2  3  1  0  0  0
  2 25  1  0  0  0
  2 83  1  0  0  0
  2 84  1  0  0  0
  3  4  1  0  0  0
  3 85  1  0  0  0
  3 86  1  0  0  0
  4  5  1  0  0  0
  4 87  1  0  0  0
  4 88  1  0  0  0
  5  6  1  0  0  0
  5 26  1  0  0  0
  5 89  1  0  0  0
  6 25  1  0  0  0
  6 90  1  0  0  0
  6 91  1  0  0  0
  7  8  2  0  0  0
  7 26  1  0  0  0
  7 29  1  0  0  0
  8  9  1  0  0  0
  8 22  1  0  0  0
  9 10  1  0  0  0
  9 27  2  0  0  0
 10 11  2  0  0  0
 10 15  1  0  0  0
 11 12  1  0  0  0
 11 92  1  0  0  0
 12 13  2  0  0  0
 12 93  1  0  0  0
 13 14  1  0  0  0
 13 31  1  0  0  0
 14 15  2  0  0  0
 14 94  1  0  0  0
 15 95  1  0  0  0
 16 17  2  0  0  0
 16 21  1  0  0  0
 16 31  1  0  0  0
 17 18  1  0  0  0
 17 96  1  0  0  0
 18 19  2  0  0  0
 18 97  1  0  0  0
 19 20  1  0  0  0
 19 24  1  0  0  0
 20 21  2  0  0  0
 20 98  1  0  0  0
 21 23  1  0  0  0
 22 28  1  0  0  0
 22 32  2  0  0  0
 26 27  1  0  0  0
 28 99  1  0  0  0
 28100  1  0  0  0
 29101  1  0  0  0
 29102  1  0  0  0
 33 34  1  0  0  0
 33 66  1  0  0  0
 33 70  2  0  0  0
 34 36  1  0  0  0
 34 59  1  0  0  0
 34103  1  0  0  0
 35 44  2  0  0  0
 35 45  1  0  0  0
 35 68  1  0  0  0
 36 56  1  0  0  0
 36104  1  0  0  0
 37 39  1  0  0  0
 37 47  1  0  0  0
 37 66  1  0  0  0
 37105  1  0  0  0
 38 43  2  0  0  0
 38 46  1  0  0  0
 38 47  1  0  0  0
 39 64  1  0  0  0
 39 67  2  0  0  0
 40 52  1  0  0  0
 40 53  2  0  0  0
 40 58  1  0  0  0
 41106  1  0  0  0
 41107  1  0  0  0
 41108  1  0  0  0
 41 48  1  0  0  0
 42 43  1  0  0  0
 42 66  1  0  0  0
 42109  1  0  0  0
 42110  1  0  0  0
 43 44  1  0  0  0
 44111  1  0  0  0
 45 46  2  0  0  0
 45112  1  0  0  0
 46113  1  0  0  0
 47114  1  0  0  0
 47115  1  0  0  0
 48 56  1  0  0  0
 48 65  1  0  0  0
 48116  1  0  0  0
 49 50  1  0  0  0
 49 53  1  0  0  0
 49 64  1  0  0  0
 49117  1  0  0  0
 50 51  1  0  0  0
 50118  1  0  0  0
 50119  1  0  0  0
 51 52  1  0  0  0
 51120  1  0  0  0
 51121  1  0  0  0
 52122  1  0  0  0
 52123  1  0  0  0
 53 54  1  0  0  0
 54 55  2  0  0  0
 54124  1  0  0  0
 55 57  1  0  0  0
 55125  1  0  0  0
 56 69  2  0  0  0
 57 58  2  0  0  0
 57126  1  0  0  0
 58127  1  0  0  0
 59 60  1  0  0  0
 59 61  1  0  0  0
 59 62  1  0  0  0
 60128  1  0  0  0
 60129  1  0  0  0
 60130  1  0  0  0
 61131  1  0  0  0
 61132  1  0  0  0
 61133  1  0  0  0
 62134  1  0  0  0
 62135  1  0  0  0
 62136  1  0  0  0
 63 65  1  0  0  0
 63137  1  0  0  0
 63138  1  0  0  0
 63139  1  0  0  0
 64140  1  0  0  0
 65141  1  0  0  0
 68 80  1  0  0  0
 71 73  1  0  0  0
 71 75  1  0  0  0
 71142  1  0  0  0
 71143  1  0  0  0
 72 74  1  0  0  0
 72 75  1  0  0  0
 72144  1  0  0  0
 72145  1  0  0  0
 73 76  1  0  0  0
 73146  1  0  0  0
 73147  1  0  0  0
 74 76  1  0  0  0
 74148  1  0  0  0
 74149  1  0  0  0
 75 77  1  0  0  0
 75150  1  0  0  0
 76 82  1  0  0  0
 76151  1  0  0  0
 77 80  1  0  0  0
 77152  1  0  0  0
 77153  1  0  0  0
 78 79  1  0  0  0
 78 81  1  0  0  0
 78154  1  0  0  0
 78155  1  0  0  0
 79 82  1  0  0  0
 79156  1  0  0  0
 79157  1  0  0  0
 80158  1  0  0  0
 80159  1  0  0  0
 81160  1  0  0  0
 82161  1  0  0  0
 82162  1  0  0  0
M  CHG  1  82   1
M  ISO  4   1 100  68 101  80 101  81 100
M  END
> <chiral flag>
0

> <version>
0

> <s_m_source_file>
/data/baiqing/PycharmProjects/Reinvent-master-3.2/result/LINK_invent/BTK/process_docking_weight1_custom_sum_contain_oxygen_bond_distance_aromatic_linkinvent_7_9_3/rearranged_h_0138.sdf

> <i_m_source_file_index>
31

> <r_mmod_Potential_Energy-OPLS-2005>
-151.747695922852

> <r_mmod_Stretch_Energy-OPLS-2005>
36.219352722168

> <r_mmod_Bend_Energy-OPLS-2005>
92.451171875

> <r_mmod_Torsional_Energy-OPLS-2005>
303.377746582031

> <r_mmod_Improper_Torsional_Energy-OPLS-2005>
9.34736919403076

> <r_mmod_Van_der_Waal_Energy-OPLS-2005>
140.867904663086

> <r_mmod_Electrostatic_Energy-OPLS-2005>
-280.941192626953

> <r_mmod_Solvation_Energy-OPLS-2005>
-476.450531005859

> <b_mmod_Minimization_Converged-OPLS-2005>
0

> <r_mmod_RMS_Derivative-OPLS-2005>
11.4109668731689

$$$$
31
                    3D
 Structure written by MMmdl.
170179  0  0  1  0            999 V2000
  -30.7769  -14.3797   20.5983 C   0  0  0  0  0  0
  -30.3958  -12.2635   19.4162 C   0  0  0  0  0  0
  -29.4824  -12.5018   18.2001 C   0  0  0  0  0  0
  -28.0044  -12.3762   18.6127 C   0  0  0  0  0  0
  -27.6593  -13.2129   19.8751 C   0  0  2  0  0  0
  -28.6992  -12.9974   20.9980 C   0  0  0  0  0  0
  -25.2565  -13.8181   20.5682 C   0  0  0  0  0  0
  -24.1826  -13.0446   20.9176 C   0  0  0  0  0  0
  -24.6391  -11.6914   20.8734 C   0  0  0  0  0  0
  -23.9064  -10.4296   21.0402 C   0  0  0  0  0  0
  -24.3617   -9.4213   21.9183 C   0  0  0  0  0  0
  -23.6293   -8.2248   22.0754 C   0  0  0  0  0  0
  -22.4275   -8.0284   21.3545 C   0  0  0  0  0  0
  -21.9911   -9.0256   20.4644 C   0  0  0  0  0  0
  -22.7236  -10.2135   20.3052 C   0  0  0  0  0  0
  -21.6855   -6.0736   22.5281 C   0  0  0  0  0  0
  -21.4015   -6.5640   23.8213 C   0  0  0  0  0  0
  -21.3663   -5.6793   24.9175 C   0  0  0  0  0  0
  -21.6043   -4.3054   24.7226 C   0  0  0  0  0  0
  -21.8821   -3.8147   23.4348 C   0  0  0  0  0  0
  -21.9191   -4.6963   22.3403 C   0  0  0  0  0  0
  -22.7847  -13.5236   21.1841 C   0  0  0  0  0  0
  -22.1661   -4.2147   21.0981 F   0  0  0  0  0  0
  -21.5630   -3.4540   25.7740 F   0  0  0  0  0  0
  -30.0354  -13.2557   20.4405 N   0  0  0  0  0  0
  -26.3011  -12.9366   20.3376 N   0  0  0  0  0  0
  -25.9320  -11.6517   20.5771 N   0  0  0  0  0  0
  -22.0496  -12.8224   22.0395 N   0  0  0  0  0  0
  -25.4286  -15.1902   20.4098 N   0  0  0  0  0  0
  -31.8974  -14.5045   20.1006 O   0  0  0  0  0  0
  -21.6642   -6.8879   21.4240 O   0  0  0  0  0  0
  -22.3531  -14.5548   20.6696 O   0  0  0  0  0  0
  -24.6076  -31.8704   23.2116 C   0  0  0  0  0  0
  -25.8993  -32.4834   23.8396 C   0  0  1  0  0  0
  -27.2351  -27.4907   20.0940 C   0  0  0  0  0  0
  -25.5867  -33.8631   24.2329 N   0  0  0  0  0  0
  -23.3938  -30.4920   21.5513 C   0  0  2  0  0  0
  -24.8422  -28.9662   20.1071 C   0  0  0  0  0  0
  -22.7383  -29.4657   22.5013 C   0  0  0  0  0  0
  -18.0259  -28.1371   22.8490 C   0  0  0  0  0  0
  -24.1492  -36.7334   23.2641 C   0  0  0  0  0  0
  -25.9147  -30.8580   21.3524 C   0  0  0  0  0  0
  -25.9969  -29.4997   20.6934 C   0  0  0  0  0  0
  -27.2005  -28.7712   20.6757 C   0  0  0  0  0  0
  -26.0742  -26.9560   19.4989 C   0  0  0  0  0  0
  -24.8739  -27.6944   19.5026 C   0  0  0  0  0  0
  -23.5970  -29.8208   20.1653 C   0  0  0  0  0  0
  -25.4109  -36.3124   24.0337 C   0  0  1  0  0  0
  -20.5842  -28.3649   23.1334 C   0  0  2  0  0  0
  -20.6747  -26.9391   22.5422 C   0  0  0  0  0  0
  -19.5734  -26.6375   21.5211 C   0  0  0  0  0  0
  -18.1908  -26.7921   22.1610 C   0  0  0  0  0  0
  -19.1509  -28.8826   23.2906 C   0  0  0  0  0  0
  -18.9447  -30.1434   23.8916 C   0  0  0  0  0  0
  -17.6454  -30.6587   24.0559 C   0  0  0  0  0  0
  -25.9024  -34.9483   23.5136 C   0  0  0  0  0  0
  -16.5339  -29.9090   23.6320 C   0  0  0  0  0  0
  -16.7252  -28.6503   23.0345 C   0  0  0  0  0  0
  -26.4446  -31.6599   25.0704 C   0  0  0  0  0  0
  -25.3734  -31.3673   26.1469 C   0  0  0  0  0  0
  -27.0274  -30.3059   24.6023 C   0  0  0  0  0  0
  -27.6033  -32.4309   25.7464 C   0  0  0  0  0  0
  -27.5587  -37.1815   24.8459 C   0  0  0  0  0  0
  -21.4112  -29.3025   22.3762 N   0  0  0  0  0  0
  -26.4307  -37.3800   23.9398 N   0  0  0  0  0  0
  -24.6574  -31.0852   22.0984 N   0  0  0  0  0  0
  -23.4192  -28.8200   23.3020 O   0  0  0  0  0  0
  -28.3857  -26.7578   20.1786 O   0  0  0  0  0  0
  -26.5596  -34.8931   22.4702 O   0  0  0  0  0  0
  -23.5284  -32.1425   23.7555 O   0  0  0  0  0  0
  -30.9673  -20.8373   20.8905 C   0  0  0  0  0  0
  -28.4423  -26.8472   23.3754 C   0  0  0  0  0  0
  -29.8564  -26.7595   22.7894 C   0  0  0  0  0  0
  -27.5551  -25.9911   22.4612 C   0  0  0  0  0  0
  -30.1160  -17.6500   22.3855 C   0  0  0  0  0  0
  -31.1737  -17.4377   20.1211 C   0  0  0  0  0  0
  -30.9020  -18.9720   22.5884 C   0  0  0  0  0  0
  -32.0209  -18.6739   20.4207 C   0  0  0  0  0  0
  -30.8792  -16.6962   21.4451 C   0  0  0  0  0  0
  -29.8123  -25.6484   21.7256 C   0  0  2  0  0  0
  -28.3741  -25.7195   21.1730 C   0  0  1  0  0  0
  -30.4615  -21.8625   21.9145 C   0  0  0  0  0  0
  -30.4737  -23.2903   21.3324 C   0  0  0  0  0  0
  -31.2627  -19.5787   21.2917 N   0  0  0  0  0  0
  -30.2026  -15.4086   21.2411 N   0  0  0  0  0  0
  -30.1150  -24.3245   22.3252 N   0  3  0  0  0  0
  -31.1418  -21.2057   19.7235 O   0  0  0  0  0  0
  -31.4444  -12.3149   19.1175 H   0  0  0  0  0  0
  -30.2530  -11.2558   19.8096 H   0  0  0  0  0  0
  -29.7112  -11.7869   17.4085 H   0  0  0  0  0  0
  -29.6682  -13.4932   17.7833 H   0  0  0  0  0  0
  -27.8020  -11.3207   18.7989 H   0  0  0  0  0  0
  -27.3576  -12.6660   17.7836 H   0  0  0  0  0  0
  -27.7059  -14.2613   19.5807 H   0  0  0  0  0  0
  -28.6546  -11.9721   21.3675 H   0  0  0  0  0  0
  -28.4748  -13.6289   21.8583 H   0  0  0  0  0  0
  -25.2764   -9.5689   22.4753 H   0  0  0  0  0  0
  -24.0004   -7.4641   22.7476 H   0  0  0  0  0  0
  -21.0845   -8.8774   19.8949 H   0  0  0  0  0  0
  -22.3700  -10.9673   19.6158 H   0  0  0  0  0  0
  -21.2011   -7.6149   23.9716 H   0  0  0  0  0  0
  -21.1482   -6.0524   25.9079 H   0  0  0  0  0  0
  -22.0596   -2.7609   23.2850 H   0  0  0  0  0  0
  -22.4116  -11.9877   22.4768 H   0  0  0  0  0  0
  -21.1115  -13.1241   22.2611 H   0  0  0  0  0  0
  -24.6641  -15.8476   20.5212 H   0  0  0  0  0  0
  -26.2859  -15.6290   20.0981 H   0  0  0  0  0  0
  -26.7075  -32.5574   23.1176 H   0  0  0  0  0  0
  -25.0001  -33.9796   25.0459 H   0  0  0  0  0  0
  -22.6794  -31.3067   21.4136 H   0  0  0  0  0  0
  -23.3746  -35.9677   23.3306 H   0  0  0  0  0  0
  -24.3592  -36.8936   22.2056 H   0  0  0  0  0  0
  -23.7253  -37.6543   23.6655 H   0  0  0  0  0  0
  -26.0154  -31.6309   20.5895 H   0  0  0  0  0  0
  -26.8055  -30.9099   21.9669 H   0  0  0  0  0  0
  -28.0931  -29.1716   21.1365 H   0  0  0  0  0  0
  -26.0961  -25.9723   19.0513 H   0  0  0  0  0  0
  -23.9843  -27.2782   19.0491 H   0  0  0  0  0  0
  -23.6929  -30.5947   19.4029 H   0  0  0  0  0  0
  -22.7244  -29.2315   19.8775 H   0  0  0  0  0  0
  -25.1283  -36.2004   25.0830 H   0  0  0  0  0  0
  -20.9922  -28.3220   24.1456 H   0  0  0  0  0  0
  -20.5644  -26.2259   23.3607 H   0  0  0  0  0  0
  -21.6623  -26.7435   22.1220 H   0  0  0  0  0  0
  -19.6902  -25.6291   21.1232 H   0  0  0  0  0  0
  -19.6687  -27.3190   20.6749 H   0  0  0  0  0  0
  -17.4174  -26.6674   21.4011 H   0  0  0  0  0  0
  -18.0299  -26.0065   22.9005 H   0  0  0  0  0  0
  -19.7934  -30.7230   24.2302 H   0  0  0  0  0  0
  -17.5019  -31.6275   24.5155 H   0  0  0  0  0  0
  -15.5343  -30.2999   23.7648 H   0  0  0  0  0  0
  -15.8644  -28.0834   22.7048 H   0  0  0  0  0  0
  -24.5904  -30.7025   25.7800 H   0  0  0  0  0  0
  -24.8937  -32.2821   26.4967 H   0  0  0  0  0  0
  -25.8112  -30.8812   27.0194 H   0  0  0  0  0  0
  -26.2789  -29.6824   24.1118 H   0  0  0  0  0  0
  -27.4114  -29.7283   25.4436 H   0  0  0  0  0  0
  -27.8590  -30.4397   23.9099 H   0  0  0  0  0  0
  -27.2643  -33.3578   26.2101 H   0  0  0  0  0  0
  -28.3813  -32.6906   25.0275 H   0  0  0  0  0  0
  -28.0735  -31.8396   26.5330 H   0  0  0  0  0  0
  -28.2596  -38.0121   24.7515 H   0  0  0  0  0  0
  -28.1089  -36.2649   24.6274 H   0  0  0  0  0  0
  -27.2310  -37.1447   25.8864 H   0  0  0  0  0  0
  -20.9270  -29.8771   21.7012 H   0  0  0  0  0  0
  -26.0205  -38.2879   24.1405 H   0  0  0  0  0  0
  -28.1034  -27.8827   23.3936 H   0  0  0  0  0  0
  -28.4087  -26.4817   24.4031 H   0  0  0  0  0  0
  -30.6201  -26.6044   23.5531 H   0  0  0  0  0  0
  -30.0917  -27.7068   22.3006 H   0  0  0  0  0  0
  -26.5693  -26.4263   22.3027 H   0  0  0  0  0  0
  -27.3636  -25.0391   22.9562 H   0  0  0  0  0  0
  -29.1308  -17.8723   21.9723 H   0  0  0  0  0  0
  -29.9458  -17.1743   23.3524 H   0  0  0  0  0  0
  -31.7235  -16.8257   19.4086 H   0  0  0  0  0  0
  -30.2460  -17.7233   19.6229 H   0  0  0  0  0  0
  -31.8203  -18.7750   23.1434 H   0  0  0  0  0  0
  -30.3095  -19.6350   23.2177 H   0  0  0  0  0  0
  -32.3341  -19.1305   19.4805 H   0  0  0  0  0  0
  -32.9456  -18.3878   20.9242 H   0  0  0  0  0  0
  -31.8332  -16.4665   21.9260 H   0  0  0  0  0  0
  -30.5469  -25.8488   20.9438 H   0  0  0  0  0  0
  -28.0506  -24.7975   20.6888 H   0  0  0  0  0  0
  -31.0998  -21.8167   22.7978 H   0  0  0  0  0  0
  -29.4522  -21.5882   22.2225 H   0  0  0  0  0  0
  -29.7840  -23.3329   20.4887 H   0  0  0  0  0  0
  -31.4624  -23.5306   20.9363 H   0  0  0  0  0  0
  -29.2727  -15.2793   21.6107 H   0  0  0  0  0  0
  -29.3279  -24.0145   22.8728 H   0  0  0  0  0  0
  -30.8967  -24.4276   22.9546 H   0  0  0  0  0  0
  1 25  1  0  0  0
  1 30  2  0  0  0
  1 85  1  0  0  0
  2  3  1  0  0  0
  2 25  1  0  0  0
  2 88  1  0  0  0
  2 89  1  0  0  0
  3  4  1  0  0  0
  3 90  1  0  0  0
  3 91  1  0  0  0
  4  5  1  0  0  0
  4 92  1  0  0  0
  4 93  1  0  0  0
  5  6  1  0  0  0
  5 26  1  0  0  0
  5 94  1  0  0  0
  6 25  1  0  0  0
  6 95  1  0  0  0
  6 96  1  0  0  0
  7  8  2  0  0  0
  7 26  1  0  0  0
  7 29  1  0  0  0
  8  9  1  0  0  0
  8 22  1  0  0  0
  9 10  1  0  0  0
  9 27  2  0  0  0
 10 11  2  0  0  0
 10 15  1  0  0  0
 11 12  1  0  0  0
 11 97  1  0  0  0
 12 13  2  0  0  0
 12 98  1  0  0  0
 13 14  1  0  0  0
 13 31  1  0  0  0
 14 15  2  0  0  0
 14 99  1  0  0  0
 15100  1  0  0  0
 16 17  2  0  0  0
 16 21  1  0  0  0
 16 31  1  0  0  0
 17 18  1  0  0  0
 17101  1  0  0  0
 18 19  2  0  0  0
 18102  1  0  0  0
 19 20  1  0  0  0
 19 24  1  0  0  0
 20 21  2  0  0  0
 20103  1  0  0  0
 21 23  1  0  0  0
 22 28  1  0  0  0
 22 32  2  0  0  0
 26 27  1  0  0  0
 28104  1  0  0  0
 28105  1  0  0  0
 29106  1  0  0  0
 29107  1  0  0  0
 33 34  1  0  0  0
 33 66  1  0  0  0
 33 70  2  0  0  0
 34 36  1  0  0  0
 34 59  1  0  0  0
 34108  1  0  0  0
 35 44  2  0  0  0
 35 45  1  0  0  0
 35 68  1  0  0  0
 36 56  1  0  0  0
 36109  1  0  0  0
 37 39  1  0  0  0
 37 47  1  0  0  0
 37 66  1  0  0  0
 37110  1  0  0  0
 38 43  2  0  0  0
 38 46  1  0  0  0
 38 47  1  0  0  0
 39 64  1  0  0  0
 39 67  2  0  0  0
 40 52  1  0  0  0
 40 53  2  0  0  0
 40 58  1  0  0  0
 41111  1  0  0  0
 41112  1  0  0  0
 41113  1  0  0  0
 41 48  1  0  0  0
 42 43  1  0  0  0
 42 66  1  0  0  0
 42114  1  0  0  0
 42115  1  0  0  0
 43 44  1  0  0  0
 44116  1  0  0  0
 45 46  2  0  0  0
 45117  1  0  0  0
 46118  1  0  0  0
 47119  1  0  0  0
 47120  1  0  0  0
 48 56  1  0  0  0
 48 65  1  0  0  0
 48121  1  0  0  0
 49 50  1  0  0  0
 49 53  1  0  0  0
 49 64  1  0  0  0
 49122  1  0  0  0
 50 51  1  0  0  0
 50123  1  0  0  0
 50124  1  0  0  0
 51 52  1  0  0  0
 51125  1  0  0  0
 51126  1  0  0  0
 52127  1  0  0  0
 52128  1  0  0  0
 53 54  1  0  0  0
 54 55  2  0  0  0
 54129  1  0  0  0
 55 57  1  0  0  0
 55130  1  0  0  0
 56 69  2  0  0  0
 57 58  2  0  0  0
 57131  1  0  0  0
 58132  1  0  0  0
 59 60  1  0  0  0
 59 61  1  0  0  0
 59 62  1  0  0  0
 60133  1  0  0  0
 60134  1  0  0  0
 60135  1  0  0  0
 61136  1  0  0  0
 61137  1  0  0  0
 61138  1  0  0  0
 62139  1  0  0  0
 62140  1  0  0  0
 62141  1  0  0  0
 63 65  1  0  0  0
 63142  1  0  0  0
 63143  1  0  0  0
 63144  1  0  0  0
 64145  1  0  0  0
 65146  1  0  0  0
 68 81  1  0  0  0
 71 82  1  0  0  0
 71 84  1  0  0  0
 71 87  2  0  0  0
 72 73  1  0  0  0
 72 74  1  0  0  0
 72147  1  0  0  0
 72148  1  0  0  0
 73 80  1  0  0  0
 73149  1  0  0  0
 73150  1  0  0  0
 74 81  1  0  0  0
 74151  1  0  0  0
 74152  1  0  0  0
 75 77  1  0  0  0
 75 79  1  0  0  0
 75153  1  0  0  0
 75154  1  0  0  0
 76 78  1  0  0  0
 76 79  1  0  0  0
 76155  1  0  0  0
 76156  1  0  0  0
 77 84  1  0  0  0
 77157  1  0  0  0
 77158  1  0  0  0
 78 84  1  0  0  0
 78159  1  0  0  0
 78160  1  0  0  0
 79 85  1  0  0  0
 79161  1  0  0  0
 80 81  1  0  0  0
 80 86  1  0  0  0
 80162  1  0  0  0
 81163  1  0  0  0
 82 83  1  0  0  0
 82164  1  0  0  0
 82165  1  0  0  0
 83 86  1  0  0  0
 83166  1  0  0  0
 83167  1  0  0  0
 85168  1  0  0  0
 86169  1  0  0  0
 86170  1  0  0  0
M  CHG  1  86   1
M  ISO  4   1 100  68 101  81 101  85 100
M  END
> <chiral flag>
0

> <version>
0

> <s_m_source_file>
/data/baiqing/PycharmProjects/Reinvent-master-3.2/result/LINK_invent/BTK/process_docking_weight1_custom_sum_contain_oxygen_bond_distance_aromatic_linkinvent_7_9_3/rearranged_h_0138.sdf

> <i_m_source_file_index>
32

> <r_mmod_Potential_Energy-OPLS-2005>
-57.5116767883301

> <r_mmod_Stretch_Energy-OPLS-2005>
34.3005332946777

> <r_mmod_Bend_Energy-OPLS-2005>
126.443252563477

> <r_mmod_Torsional_Energy-OPLS-2005>
345.179351806641

> <r_mmod_Improper_Torsional_Energy-OPLS-2005>
2.61589336395264

> <r_mmod_Van_der_Waal_Energy-OPLS-2005>
155.681655883789

> <r_mmod_Electrostatic_Energy-OPLS-2005>
-276.39892578125

> <r_mmod_Solvation_Energy-OPLS-2005>
-459.298492431641

> <b_mmod_Minimization_Converged-OPLS-2005>
0

> <r_mmod_RMS_Derivative-OPLS-2005>
1.15777623653412

$$$$
32
                    3D
 Structure written by MMmdl.
166175  0  0  1  0            999 V2000
  -30.6551  -14.6325   20.4775 C   0  0  0  0  0  0
  -30.4262  -12.3826   19.4590 C   0  0  0  0  0  0
  -29.5039  -12.4952   18.2266 C   0  0  0  0  0  0
  -28.0281  -12.3361   18.6417 C   0  0  0  0  0  0
  -27.6499  -13.2216   19.8593 C   0  0  2  0  0  0
  -28.6948  -13.1066   20.9916 C   0  0  0  0  0  0
  -25.2537  -13.8175   20.5670 C   0  0  0  0  0  0
  -24.1821  -13.0431   20.9197 C   0  0  0  0  0  0
  -24.6396  -11.6911   20.8753 C   0  0  0  0  0  0
  -23.9058  -10.4284   21.0401 C   0  0  0  0  0  0
  -24.3605   -9.4204   21.9187 C   0  0  0  0  0  0
  -23.6288   -8.2246   22.0758 C   0  0  0  0  0  0
  -22.4277   -8.0271   21.3541 C   0  0  0  0  0  0
  -21.9903   -9.0243   20.4650 C   0  0  0  0  0  0
  -22.7229  -10.2127   20.3059 C   0  0  0  0  0  0
  -21.6848   -6.0726   22.5271 C   0  0  0  0  0  0
  -21.4012   -6.5631   23.8204 C   0  0  0  0  0  0
  -21.3664   -5.6787   24.9168 C   0  0  0  0  0  0
  -21.6043   -4.3050   24.7219 C   0  0  0  0  0  0
  -21.8823   -3.8141   23.4344 C   0  0  0  0  0  0
  -21.9194   -4.6955   22.3399 C   0  0  0  0  0  0
  -22.7837  -13.5221   21.1860 C   0  0  0  0  0  0
  -22.1661   -4.2139   21.0980 F   0  0  0  0  0  0
  -21.5633   -3.4541   25.7738 F   0  0  0  0  0  0
  -30.0076  -13.4277   20.4170 N   0  0  0  0  0  0
  -26.2969  -12.9383   20.3324 N   0  0  0  0  0  0
  -25.9329  -11.6525   20.5772 N   0  0  0  0  0  0
  -22.0484  -12.8211   22.0407 N   0  0  0  0  0  0
  -25.4227  -15.1895   20.4032 N   0  0  0  0  0  0
  -31.8291  -14.7412   20.1161 O   0  0  0  0  0  0
  -21.6640   -6.8872   21.4237 O   0  0  0  0  0  0
  -22.3525  -14.5526   20.6700 O   0  0  0  0  0  0
  -24.6249  -31.8619   23.2043 C   0  0  0  0  0  0
  -25.9107  -32.4785   23.8380 C   0  0  1  0  0  0
  -27.2156  -27.3382   20.1206 C   0  0  0  0  0  0
  -25.5939  -33.8587   24.2309 N   0  0  0  0  0  0
  -23.4192  -30.4864   21.5451 C   0  0  2  0  0  0
  -24.8669  -28.9478   20.1051 C   0  0  0  0  0  0
  -22.7478  -29.4633   22.4927 C   0  0  0  0  0  0
  -18.0283  -28.1385   22.8480 C   0  0  0  0  0  0
  -24.1487  -36.7287   23.2640 C   0  0  0  0  0  0
  -25.9584  -30.7996   21.3708 C   0  0  0  0  0  0
  -26.0348  -29.4288   20.7126 C   0  0  0  0  0  0
  -27.2179  -28.6334   20.7155 C   0  0  0  0  0  0
  -26.0369  -26.9101   19.4758 C   0  0  0  0  0  0
  -24.8686  -27.6927   19.4764 C   0  0  0  0  0  0
  -23.6332  -29.8246   20.1574 C   0  0  0  0  0  0
  -25.4110  -36.3087   24.0335 C   0  0  1  0  0  0
  -20.5886  -28.3689   23.1276 C   0  0  2  0  0  0
  -20.6773  -26.9406   22.5408 C   0  0  0  0  0  0
  -19.5745  -26.6390   21.5209 C   0  0  0  0  0  0
  -18.1924  -26.7931   22.1615 C   0  0  0  0  0  0
  -19.1540  -28.8852   23.2875 C   0  0  0  0  0  0
  -18.9470  -30.1450   23.8891 C   0  0  0  0  0  0
  -17.6474  -30.6590   24.0566 C   0  0  0  0  0  0
  -25.9044  -34.9455   23.5114 C   0  0  0  0  0  0
  -16.5360  -29.9094   23.6334 C   0  0  0  0  0  0
  -16.7273  -28.6506   23.0354 C   0  0  0  0  0  0
  -26.4503  -31.6584   25.0735 C   0  0  0  0  0  0
  -25.3751  -31.3701   26.1468 C   0  0  0  0  0  0
  -27.0343  -30.3019   24.6160 C   0  0  0  0  0  0
  -27.6071  -32.4316   25.7505 C   0  0  0  0  0  0
  -27.5571  -37.1799   24.8473 C   0  0  0  0  0  0
  -21.4193  -29.3040   22.3673 N   0  0  0  0  0  0
  -26.4292  -37.3783   23.9403 N   0  0  0  0  0  0
  -24.6870  -31.0650   22.0981 N   0  0  0  0  0  0
  -23.4205  -28.8147   23.2987 O   0  0  0  0  0  0
  -28.2823  -26.4403   20.1823 O   0  0  0  0  0  0
  -26.5603  -34.8918   22.4676 O   0  0  0  0  0  0
  -23.5414  -32.1408   23.7376 O   0  0  0  0  0  0
  -27.6191  -22.7567   20.3815 C   0  0  0  0  0  0
  -29.9019  -23.4552   20.7211 C   0  0  0  0  0  0
  -28.5321  -23.8188   20.6309 C   0  0  0  0  0  0
  -28.0211  -21.3915   20.2492 C   0  0  0  0  0  0
  -29.3909  -21.0219   20.3854 C   0  0  0  0  0  0
  -30.3157  -22.0884   20.5837 C   0  0  0  0  0  0
  -30.9345  -24.5360   21.0174 C   0  0  0  0  0  0
  -32.5657  -22.7522   20.2614 C   0  0  0  0  0  0
  -32.3885  -24.0327   21.0871 C   0  0  1  0  0  0
  -26.9534  -20.3601   19.9221 C   0  0  0  0  0  0
  -33.3778  -25.1201   20.6368 C   0  0  0  0  0  0
  -27.9864  -25.2483   20.9986 C   0  0  0  0  0  0
  -29.3622  -18.3766   20.6660 C   0  0  0  0  0  0
  -30.3798  -17.1676   20.4861 C   0  0  0  0  0  0
  -29.9388  -19.6981   20.2722 N   0  0  0  0  0  0
  -29.9122  -15.7572   20.7261 N   0  0  0  0  0  0
  -31.6474  -21.7460   20.6634 O   0  0  0  0  0  0
  -31.4717  -12.4814   19.1607 H   0  0  0  0  0  0
  -30.3396  -11.3960   19.9159 H   0  0  0  0  0  0
  -29.7664  -11.7378   17.4871 H   0  0  0  0  0  0
  -29.6494  -13.4620   17.7411 H   0  0  0  0  0  0
  -27.8705  -11.2858   18.8899 H   0  0  0  0  0  0
  -27.3707  -12.5507   17.7984 H   0  0  0  0  0  0
  -27.6610  -14.2520   19.5027 H   0  0  0  0  0  0
  -28.7058  -12.0970   21.4040 H   0  0  0  0  0  0
  -28.4529  -13.7722   21.8216 H   0  0  0  0  0  0
  -25.2746   -9.5680   22.4760 H   0  0  0  0  0  0
  -23.9987   -7.4633   22.7478 H   0  0  0  0  0  0
  -21.0832   -8.8758   19.8952 H   0  0  0  0  0  0
  -22.3679  -10.9663   19.6166 H   0  0  0  0  0  0
  -21.2003   -7.6141   23.9699 H   0  0  0  0  0  0
  -21.1483   -6.0524   25.9069 H   0  0  0  0  0  0
  -22.0601   -2.7603   23.2848 H   0  0  0  0  0  0
  -22.4100  -11.9867   22.4786 H   0  0  0  0  0  0
  -21.1100  -13.1244   22.2623 H   0  0  0  0  0  0
  -24.6486  -15.8387   20.4903 H   0  0  0  0  0  0
  -26.2591  -15.6192   20.0295 H   0  0  0  0  0  0
  -26.7173  -32.5469   23.1127 H   0  0  0  0  0  0
  -25.0143  -33.9750   25.0499 H   0  0  0  0  0  0
  -22.7110  -31.3052   21.4021 H   0  0  0  0  0  0
  -23.3742  -35.9626   23.3337 H   0  0  0  0  0  0
  -24.3569  -36.8872   22.2048 H   0  0  0  0  0  0
  -23.7240  -37.6500   23.6635 H   0  0  0  0  0  0
  -26.0897  -31.5642   20.6036 H   0  0  0  0  0  0
  -26.8383  -30.8485   22.0003 H   0  0  0  0  0  0
  -28.1123  -28.9909   21.2070 H   0  0  0  0  0  0
  -26.0138  -25.9409   18.9971 H   0  0  0  0  0  0
  -23.9740  -27.3186   18.9973 H   0  0  0  0  0  0
  -23.7478  -30.6039   19.4028 H   0  0  0  0  0  0
  -22.7529  -29.2530   19.8566 H   0  0  0  0  0  0
  -25.1281  -36.1949   25.0824 H   0  0  0  0  0  0
  -20.9986  -28.3257   24.1396 H   0  0  0  0  0  0
  -20.5683  -26.2282   23.3601 H   0  0  0  0  0  0
  -21.6639  -26.7442   22.1190 H   0  0  0  0  0  0
  -19.6917  -25.6309   21.1225 H   0  0  0  0  0  0
  -19.6697  -27.3206   20.6744 H   0  0  0  0  0  0
  -17.4201  -26.6687   21.4012 H   0  0  0  0  0  0
  -18.0317  -26.0078   22.9012 H   0  0  0  0  0  0
  -19.7947  -30.7268   24.2259 H   0  0  0  0  0  0
  -17.5028  -31.6268   24.5165 H   0  0  0  0  0  0
  -15.5354  -30.2995   23.7663 H   0  0  0  0  0  0
  -15.8671  -28.0829   22.7072 H   0  0  0  0  0  0
  -24.5945  -30.7018   25.7819 H   0  0  0  0  0  0
  -24.8906  -32.2837   26.4908 H   0  0  0  0  0  0
  -25.8089  -30.8898   27.0240 H   0  0  0  0  0  0
  -26.2909  -29.6772   24.1185 H   0  0  0  0  0  0
  -27.4061  -29.7266   25.4646 H   0  0  0  0  0  0
  -27.8770  -30.4324   23.9365 H   0  0  0  0  0  0
  -27.2699  -33.3623   26.2077 H   0  0  0  0  0  0
  -28.3883  -32.6859   25.0332 H   0  0  0  0  0  0
  -28.0730  -31.8439   26.5423 H   0  0  0  0  0  0
  -28.2606  -38.0084   24.7513 H   0  0  0  0  0  0
  -28.1048  -36.2614   24.6311 H   0  0  0  0  0  0
  -27.2291  -37.1470   25.8882 H   0  0  0  0  0  0
  -20.9352  -29.8771   21.6898 H   0  0  0  0  0  0
  -26.0174  -38.2850   24.1422 H   0  0  0  0  0  0
  -26.5672  -22.9935   20.3191 H   0  0  0  0  0  0
  -30.6825  -25.0423   21.9498 H   0  0  0  0  0  0
  -30.8397  -25.2808   20.2261 H   0  0  0  0  0  0
  -33.5759  -22.3604   20.3914 H   0  0  0  0  0  0
  -32.4407  -22.9573   19.1967 H   0  0  0  0  0  0
  -32.6054  -23.7723   22.1251 H   0  0  0  0  0  0
  -25.9855  -20.8259   19.7385 H   0  0  0  0  0  0
  -26.8334  -19.6542   20.7420 H   0  0  0  0  0  0
  -27.2207  -19.8116   19.0186 H   0  0  0  0  0  0
  -33.1854  -25.4263   19.6064 H   0  0  0  0  0  0
  -34.4076  -24.7668   20.6871 H   0  0  0  0  0  0
  -33.3019  -26.0095   21.2627 H   0  0  0  0  0  0
  -28.3596  -25.4749   21.9978 H   0  0  0  0  0  0
  -26.9120  -25.1421   21.1538 H   0  0  0  0  0  0
  -29.0390  -18.4301   21.7071 H   0  0  0  0  0  0
  -28.4718  -18.1729   20.0733 H   0  0  0  0  0  0
  -31.2462  -17.3404   21.1249 H   0  0  0  0  0  0
  -30.7569  -17.2041   19.4613 H   0  0  0  0  0  0
  -30.9555  -19.7279   20.3025 H   0  0  0  0  0  0
  -28.9523  -15.6231   21.0038 H   0  0  0  0  0  0
  1 25  1  0  0  0
  1 30  2  0  0  0
  1 86  1  0  0  0
  2  3  1  0  0  0
  2 25  1  0  0  0
  2 88  1  0  0  0
  2 89  1  0  0  0
  3  4  1  0  0  0
  3 90  1  0  0  0
  3 91  1  0  0  0
  4  5  1  0  0  0
  4 92  1  0  0  0
  4 93  1  0  0  0
  5  6  1  0  0  0
  5 26  1  0  0  0
  5 94  1  0  0  0
  6 25  1  0  0  0
  6 95  1  0  0  0
  6 96  1  0  0  0
  7  8  2  0  0  0
  7 26  1  0  0  0
  7 29  1  0  0  0
  8  9  1  0  0  0
  8 22  1  0  0  0
  9 10  1  0  0  0
  9 27  2  0  0  0
 10 11  2  0  0  0
 10 15  1  0  0  0
 11 12  1  0  0  0
 11 97  1  0  0  0
 12 13  2  0  0  0
 12 98  1  0  0  0
 13 14  1  0  0  0
 13 31  1  0  0  0
 14 15  2  0  0  0
 14 99  1  0  0  0
 15100  1  0  0  0
 16 17  2  0  0  0
 16 21  1  0  0  0
 16 31  1  0  0  0
 17 18  1  0  0  0
 17101  1  0  0  0
 18 19  2  0  0  0
 18102  1  0  0  0
 19 20  1  0  0  0
 19 24  1  0  0  0
 20 21  2  0  0  0
 20103  1  0  0  0
 21 23  1  0  0  0
 22 28  1  0  0  0
 22 32  2  0  0  0
 26 27  1  0  0  0
 28104  1  0  0  0
 28105  1  0  0  0
 29106  1  0  0  0
 29107  1  0  0  0
 33 34  1  0  0  0
 33 66  1  0  0  0
 33 70  2  0  0  0
 34 36  1  0  0  0
 34 59  1  0  0  0
 34108  1  0  0  0
 35 44  2  0  0  0
 35 45  1  0  0  0
 35 68  1  0  0  0
 36 56  1  0  0  0
 36109  1  0  0  0
 37 39  1  0  0  0
 37 47  1  0  0  0
 37 66  1  0  0  0
 37110  1  0  0  0
 38 43  2  0  0  0
 38 46  1  0  0  0
 38 47  1  0  0  0
 39 64  1  0  0  0
 39 67  2  0  0  0
 40 52  1  0  0  0
 40 53  2  0  0  0
 40 58  1  0  0  0
 41111  1  0  0  0
 41112  1  0  0  0
 41113  1  0  0  0
 41 48  1  0  0  0
 42 43  1  0  0  0
 42 66  1  0  0  0
 42114  1  0  0  0
 42115  1  0  0  0
 43 44  1  0  0  0
 44116  1  0  0  0
 45 46  2  0  0  0
 45117  1  0  0  0
 46118  1  0  0  0
 47119  1  0  0  0
 47120  1  0  0  0
 48 56  1  0  0  0
 48 65  1  0  0  0
 48121  1  0  0  0
 49 50  1  0  0  0
 49 53  1  0  0  0
 49 64  1  0  0  0
 49122  1  0  0  0
 50 51  1  0  0  0
 50123  1  0  0  0
 50124  1  0  0  0
 51 52  1  0  0  0
 51125  1  0  0  0
 51126  1  0  0  0
 52127  1  0  0  0
 52128  1  0  0  0
 53 54  1  0  0  0
 54 55  2  0  0  0
 54129  1  0  0  0
 55 57  1  0  0  0
 55130  1  0  0  0
 56 69  2  0  0  0
 57 58  2  0  0  0
 57131  1  0  0  0
 58132  1  0  0  0
 59 60  1  0  0  0
 59 61  1  0  0  0
 59 62  1  0  0  0
 60133  1  0  0  0
 60134  1  0  0  0
 60135  1  0  0  0
 61136  1  0  0  0
 61137  1  0  0  0
 61138  1  0  0  0
 62139  1  0  0  0
 62140  1  0  0  0
 62141  1  0  0  0
 63 65  1  0  0  0
 63142  1  0  0  0
 63143  1  0  0  0
 63144  1  0  0  0
 64145  1  0  0  0
 65146  1  0  0  0
 68 82  1  0  0  0
 71 73  2  0  0  0
 71 74  1  0  0  0
 71147  1  0  0  0
 72 73  1  0  0  0
 72 76  2  0  0  0
 72 77  1  0  0  0
 73 82  1  0  0  0
 74 75  2  0  0  0
 74 80  1  0  0  0
 75 76  1  0  0  0
 75 85  1  0  0  0
 76 87  1  0  0  0
 77 79  1  0  0  0
 77148  1  0  0  0
 77149  1  0  0  0
 78 79  1  0  0  0
 78 87  1  0  0  0
 78150  1  0  0  0
 78151  1  0  0  0
 79 81  1  0  0  0
 79152  1  0  0  0
 80153  1  0  0  0
 80154  1  0  0  0
 80155  1  0  0  0
 81156  1  0  0  0
 81157  1  0  0  0
 81158  1  0  0  0
 82159  1  0  0  0
 82160  1  0  0  0
 83 84  1  0  0  0
 83 85  1  0  0  0
 83161  1  0  0  0
 83162  1  0  0  0
 84 86  1  0  0  0
 84163  1  0  0  0
 84164  1  0  0  0
 85165  1  0  0  0
 86166  1  0  0  0
M  ISO  4   1 100  68 101  82 101  86 100
M  END
> <chiral flag>
0

> <version>
0

> <s_m_source_file>
/data/baiqing/PycharmProjects/Reinvent-master-3.2/result/LINK_invent/BTK/process_docking_weight1_custom_sum_contain_oxygen_bond_distance_aromatic_linkinvent_7_9_3/rearranged_h_0138.sdf

> <i_m_source_file_index>
33

> <r_mmod_Potential_Energy-OPLS-2005>
2.68437790870667

> <r_mmod_Stretch_Energy-OPLS-2005>
74.5005645751953

> <r_mmod_Bend_Energy-OPLS-2005>
152.837615966797

> <r_mmod_Torsional_Energy-OPLS-2005>
242.638519287109

> <r_mmod_Improper_Torsional_Energy-OPLS-2005>
8.44146156311035

> <r_mmod_Van_der_Waal_Energy-OPLS-2005>
153.098037719727

> <r_mmod_Electrostatic_Energy-OPLS-2005>
-459.0595703125

> <r_mmod_Solvation_Energy-OPLS-2005>
-220.2119140625

> <b_mmod_Minimization_Converged-OPLS-2005>
0

> <r_mmod_RMS_Derivative-OPLS-2005>
2.59425020217896

$$$$
33
                    3D
 Structure written by MMmdl.
162172  0  0  1  0            999 V2000
  -30.5479  -14.7978   20.4584 C   0  0  0  0  0  0
  -30.4507  -12.4879   19.4749 C   0  0  0  0  0  0
  -29.5191  -12.5184   18.2401 C   0  0  0  0  0  0
  -28.0454  -12.3281   18.6529 C   0  0  0  0  0  0
  -27.6451  -13.2248   19.8536 C   0  0  2  0  0  0
  -28.6901  -13.1470   20.9888 C   0  0  0  0  0  0
  -25.2532  -13.8172   20.5685 C   0  0  0  0  0  0
  -24.1819  -13.0431   20.9215 C   0  0  0  0  0  0
  -24.6396  -11.6905   20.8749 C   0  0  0  0  0  0
  -23.9067  -10.4288   21.0410 C   0  0  0  0  0  0
  -24.3618   -9.4201   21.9185 C   0  0  0  0  0  0
  -23.6293   -8.2238   22.0753 C   0  0  0  0  0  0
  -22.4275   -8.0278   21.3544 C   0  0  0  0  0  0
  -21.9911   -9.0252   20.4646 C   0  0  0  0  0  0
  -22.7240  -10.2130   20.3057 C   0  0  0  0  0  0
  -21.6853   -6.0734   22.5279 C   0  0  0  0  0  0
  -21.4014   -6.5638   23.8212 C   0  0  0  0  0  0
  -21.3659   -5.6792   24.9175 C   0  0  0  0  0  0
  -21.6044   -4.3054   24.7225 C   0  0  0  0  0  0
  -21.8820   -3.8146   23.4347 C   0  0  0  0  0  0
  -21.9192   -4.6962   22.3403 C   0  0  0  0  0  0
  -22.7841  -13.5222   21.1871 C   0  0  0  0  0  0
  -22.1662   -4.2147   21.0981 F   0  0  0  0  0  0
  -21.5628   -3.4539   25.7739 F   0  0  0  0  0  0
  -29.9875  -13.5357   20.4158 N   0  0  0  0  0  0
  -26.2951  -12.9362   20.3274 N   0  0  0  0  0  0
  -25.9323  -11.6514   20.5744 N   0  0  0  0  0  0
  -22.0481  -12.8214   22.0425 N   0  0  0  0  0  0
  -25.4225  -15.1893   20.4064 N   0  0  0  0  0  0
  -31.7236  -14.9618   20.1181 O   0  0  0  0  0  0
  -21.6637   -6.8876   21.4240 O   0  0  0  0  0  0
  -22.3530  -14.5529   20.6714 O   0  0  0  0  0  0
  -24.6351  -31.8514   23.1941 C   0  0  0  0  0  0
  -25.9160  -32.4734   23.8302 C   0  0  1  0  0  0
  -27.2254  -27.2234   20.1325 C   0  0  0  0  0  0
  -25.5941  -33.8537   24.2227 N   0  0  0  0  0  0
  -23.4335  -30.4723   21.5385 C   0  0  2  0  0  0
  -24.8805  -28.9090   20.1129 C   0  0  0  0  0  0
  -22.7521  -29.4584   22.4898 C   0  0  0  0  0  0
  -18.0297  -28.1393   22.8484 C   0  0  0  0  0  0
  -24.1489  -36.7270   23.2642 C   0  0  0  0  0  0
  -25.9821  -30.7527   21.3781 C   0  0  0  0  0  0
  -26.0539  -29.3710   20.7208 C   0  0  0  0  0  0
  -27.2263  -28.5429   20.7138 C   0  0  0  0  0  0
  -26.0208  -26.8322   19.5054 C   0  0  0  0  0  0
  -24.8714  -27.6493   19.4947 C   0  0  0  0  0  0
  -23.6539  -29.8019   20.1565 C   0  0  0  0  0  0
  -25.4118  -36.3057   24.0322 C   0  0  1  0  0  0
  -20.5903  -28.3706   23.1262 C   0  0  2  0  0  0
  -20.6782  -26.9419   22.5409 C   0  0  0  0  0  0
  -19.5755  -26.6385   21.5214 C   0  0  0  0  0  0
  -18.1936  -26.7934   22.1627 C   0  0  0  0  0  0
  -19.1552  -28.8867   23.2867 C   0  0  0  0  0  0
  -18.9471  -30.1467   23.8887 C   0  0  0  0  0  0
  -17.6469  -30.6592   24.0561 C   0  0  0  0  0  0
  -25.9062  -34.9430   23.5079 C   0  0  0  0  0  0
  -16.5361  -29.9087   23.6333 C   0  0  0  0  0  0
  -16.7283  -28.6506   23.0354 C   0  0  0  0  0  0
  -26.4510  -31.6578   25.0714 C   0  0  0  0  0  0
  -25.3719  -31.3751   26.1428 C   0  0  0  0  0  0
  -27.0362  -30.2988   24.6233 C   0  0  0  0  0  0
  -27.6054  -32.4330   25.7494 C   0  0  0  0  0  0
  -27.5575  -37.1792   24.8466 C   0  0  0  0  0  0
  -21.4224  -29.3046   22.3645 N   0  0  0  0  0  0
  -26.4288  -37.3762   23.9408 N   0  0  0  0  0  0
  -24.7030  -31.0448   22.0931 N   0  0  0  0  0  0
  -23.4204  -28.8131   23.3016 O   0  0  0  0  0  0
  -28.3435  -26.3433   20.1783 O   0  0  0  0  0  0
  -26.5640  -34.8913   22.4652 O   0  0  0  0  0  0
  -23.5492  -32.1352   23.7216 O   0  0  0  0  0  0
  -30.7850  -18.1959   20.2264 C   0  0  0  0  0  0
  -28.5118  -18.1084   20.8272 C   0  0  0  0  0  0
  -30.6605  -19.6370   20.1545 C   0  0  0  0  0  0
  -29.6958  -17.3532   20.5815 C   0  0  0  0  0  0
  -29.4039  -20.2974   20.4048 C   0  0  0  0  0  0
  -33.2058  -20.1321   20.5820 C   0  0  0  0  0  0
  -32.4765  -21.4369   20.7858 C   0  0  0  0  0  0
  -29.6304  -24.1774   19.5156 C   0  0  0  0  0  0
  -27.8656  -23.9145   21.1446 C   0  0  0  0  0  0
  -29.6088  -22.6062   19.2438 C   0  0  0  0  0  0
  -27.8907  -22.3322   20.8943 C   0  0  0  0  0  0
  -31.9156  -20.4003   19.8371 C   0  0  0  0  0  0
  -28.2729  -24.8378   19.9406 C   0  0  0  0  0  0
  -28.3704  -19.4770   20.7439 N   0  0  0  0  0  0
  -29.1618  -21.7538   20.3769 N   0  0  0  0  0  0
  -29.6821  -15.8571   20.7225 N   0  0  0  0  0  0
  -31.4861  -12.6466   19.1687 H   0  0  0  0  0  0
  -30.4268  -11.5081   19.9544 H   0  0  0  0  0  0
  -29.8107  -11.7456   17.5276 H   0  0  0  0  0  0
  -29.6319  -13.4710   17.7202 H   0  0  0  0  0  0
  -27.9110  -11.2786   18.9177 H   0  0  0  0  0  0
  -27.3864  -12.5144   17.8040 H   0  0  0  0  0  0
  -27.6402  -14.2468   19.4745 H   0  0  0  0  0  0
  -28.7403  -12.1378   21.4006 H   0  0  0  0  0  0
  -28.4120  -13.7967   21.8200 H   0  0  0  0  0  0
  -25.2763   -9.5677   22.4759 H   0  0  0  0  0  0
  -24.0001   -7.4629   22.7472 H   0  0  0  0  0  0
  -21.0843   -8.8773   19.8952 H   0  0  0  0  0  0
  -22.3700  -10.9670   19.6167 H   0  0  0  0  0  0
  -21.2007   -7.6146   23.9715 H   0  0  0  0  0  0
  -21.1481   -6.0522   25.9077 H   0  0  0  0  0  0
  -22.0600   -2.7608   23.2848 H   0  0  0  0  0  0
  -22.4098  -11.9874   22.4812 H   0  0  0  0  0  0
  -21.1099  -13.1238   22.2629 H   0  0  0  0  0  0
  -24.6433  -15.8330   20.4933 H   0  0  0  0  0  0
  -26.2415  -15.6158   19.9946 H   0  0  0  0  0  0
  -26.7226  -32.5368   23.1037 H   0  0  0  0  0  0
  -25.0082  -33.9666   25.0370 H   0  0  0  0  0  0
  -22.7318  -31.2956   21.3888 H   0  0  0  0  0  0
  -23.3755  -35.9598   23.3301 H   0  0  0  0  0  0
  -24.3575  -36.8900   22.2056 H   0  0  0  0  0  0
  -23.7237  -37.6467   23.6672 H   0  0  0  0  0  0
  -26.1263  -31.5112   20.6075 H   0  0  0  0  0  0
  -26.8576  -30.8020   22.0141 H   0  0  0  0  0  0
  -28.1266  -28.8968   21.1964 H   0  0  0  0  0  0
  -25.9286  -25.8717   19.0248 H   0  0  0  0  0  0
  -23.9716  -27.2886   19.0155 H   0  0  0  0  0  0
  -23.7837  -30.5761   19.3993 H   0  0  0  0  0  0
  -22.7709  -29.2383   19.8500 H   0  0  0  0  0  0
  -25.1305  -36.1894   25.0814 H   0  0  0  0  0  0
  -20.9997  -28.3288   24.1383 H   0  0  0  0  0  0
  -20.5682  -26.2317   23.3618 H   0  0  0  0  0  0
  -21.6649  -26.7438   22.1202 H   0  0  0  0  0  0
  -19.6913  -25.6293   21.1252 H   0  0  0  0  0  0
  -19.6692  -27.3189   20.6738 H   0  0  0  0  0  0
  -17.4206  -26.6683   21.4030 H   0  0  0  0  0  0
  -18.0336  -26.0082   22.9030 H   0  0  0  0  0  0
  -19.7947  -30.7287   24.2253 H   0  0  0  0  0  0
  -17.5023  -31.6271   24.5165 H   0  0  0  0  0  0
  -15.5360  -30.2985   23.7663 H   0  0  0  0  0  0
  -15.8684  -28.0819   22.7075 H   0  0  0  0  0  0
  -24.5883  -30.7116   25.7751 H   0  0  0  0  0  0
  -24.8927  -32.2934   26.4835 H   0  0  0  0  0  0
  -25.8022  -30.8931   27.0215 H   0  0  0  0  0  0
  -26.2955  -29.6729   24.1242 H   0  0  0  0  0  0
  -27.4011  -29.7265   25.4772 H   0  0  0  0  0  0
  -27.8848  -30.4250   23.9505 H   0  0  0  0  0  0
  -27.2654  -33.3641   26.2041 H   0  0  0  0  0  0
  -28.3882  -32.6874   25.0337 H   0  0  0  0  0  0
  -28.0700  -31.8475   26.5438 H   0  0  0  0  0  0
  -28.2594  -38.0088   24.7510 H   0  0  0  0  0  0
  -28.1072  -36.2619   24.6298 H   0  0  0  0  0  0
  -27.2295  -37.1447   25.8870 H   0  0  0  0  0  0
  -20.9418  -29.8765   21.6841 H   0  0  0  0  0  0
  -26.0162  -38.2834   24.1411 H   0  0  0  0  0  0
  -31.7449  -17.7428   20.0250 H   0  0  0  0  0  0
  -27.6104  -17.5847   21.1098 H   0  0  0  0  0  0
  -33.1932  -19.4253   21.4098 H   0  0  0  0  0  0
  -34.1369  -20.1749   20.0196 H   0  0  0  0  0  0
  -32.9299  -22.3277   20.3547 H   0  0  0  0  0  0
  -31.9726  -21.5847   21.7393 H   0  0  0  0  0  0
  -29.9859  -24.6758   18.6135 H   0  0  0  0  0  0
  -30.3819  -24.3880   20.2775 H   0  0  0  0  0  0
  -28.5223  -24.1370   21.9864 H   0  0  0  0  0  0
  -26.8661  -24.1977   21.4765 H   0  0  0  0  0  0
  -30.5977  -22.3107   18.9083 H   0  0  0  0  0  0
  -28.9487  -22.4039   18.3993 H   0  0  0  0  0  0
  -27.0955  -22.0702   20.1948 H   0  0  0  0  0  0
  -27.6404  -21.8302   21.8297 H   0  0  0  0  0  0
  -32.0016  -20.5761   18.7660 H   0  0  0  0  0  0
  -27.5924  -24.6430   19.1147 H   0  0  0  0  0  0
  -28.7814  -15.5005   21.0064 H   0  0  0  0  0  0
  1 25  1  0  0  0
  1 30  2  0  0  0
  1 86  1  0  0  0
  2  3  1  0  0  0
  2 25  1  0  0  0
  2 87  1  0  0  0
  2 88  1  0  0  0
  3  4  1  0  0  0
  3 89  1  0  0  0
  3 90  1  0  0  0
  4  5  1  0  0  0
  4 91  1  0  0  0
  4 92  1  0  0  0
  5  6  1  0  0  0
  5 26  1  0  0  0
  5 93  1  0  0  0
  6 25  1  0  0  0
  6 94  1  0  0  0
  6 95  1  0  0  0
  7  8  2  0  0  0
  7 26  1  0  0  0
  7 29  1  0  0  0
  8  9  1  0  0  0
  8 22  1  0  0  0
  9 10  1  0  0  0
  9 27  2  0  0  0
 10 11  2  0  0  0
 10 15  1  0  0  0
 11 12  1  0  0  0
 11 96  1  0  0  0
 12 13  2  0  0  0
 12 97  1  0  0  0
 13 14  1  0  0  0
 13 31  1  0  0  0
 14 15  2  0  0  0
 14 98  1  0  0  0
 15 99  1  0  0  0
 16 17  2  0  0  0
 16 21  1  0  0  0
 16 31  1  0  0  0
 17 18  1  0  0  0
 17100  1  0  0  0
 18 19  2  0  0  0
 18101  1  0  0  0
 19 20  1  0  0  0
 19 24  1  0  0  0
 20 21  2  0  0  0
 20102  1  0  0  0
 21 23  1  0  0  0
 22 28  1  0  0  0
 22 32  2  0  0  0
 26 27  1  0  0  0
 28103  1  0  0  0
 28104  1  0  0  0
 29105  1  0  0  0
 29106  1  0  0  0
 33 34  1  0  0  0
 33 66  1  0  0  0
 33 70  2  0  0  0
 34 36  1  0  0  0
 34 59  1  0  0  0
 34107  1  0  0  0
 35 44  2  0  0  0
 35 45  1  0  0  0
 35 68  1  0  0  0
 36 56  1  0  0  0
 36108  1  0  0  0
 37 39  1  0  0  0
 37 47  1  0  0  0
 37 66  1  0  0  0
 37109  1  0  0  0
 38 43  2  0  0  0
 38 46  1  0  0  0
 38 47  1  0  0  0
 39 64  1  0  0  0
 39 67  2  0  0  0
 40 52  1  0  0  0
 40 53  2  0  0  0
 40 58  1  0  0  0
 41110  1  0  0  0
 41111  1  0  0  0
 41112  1  0  0  0
 41 48  1  0  0  0
 42 43  1  0  0  0
 42 66  1  0  0  0
 42113  1  0  0  0
 42114  1  0  0  0
 43 44  1  0  0  0
 44115  1  0  0  0
 45 46  2  0  0  0
 45116  1  0  0  0
 46117  1  0  0  0
 47118  1  0  0  0
 47119  1  0  0  0
 48 56  1  0  0  0
 48 65  1  0  0  0
 48120  1  0  0  0
 49 50  1  0  0  0
 49 53  1  0  0  0
 49 64  1  0  0  0
 49121  1  0  0  0
 50 51  1  0  0  0
 50122  1  0  0  0
 50123  1  0  0  0
 51 52  1  0  0  0
 51124  1  0  0  0
 51125  1  0  0  0
 52126  1  0  0  0
 52127  1  0  0  0
 53 54  1  0  0  0
 54 55  2  0  0  0
 54128  1  0  0  0
 55 57  1  0  0  0
 55129  1  0  0  0
 56 69  2  0  0  0
 57 58  2  0  0  0
 57130  1  0  0  0
 58131  1  0  0  0
 59 60  1  0  0  0
 59 61  1  0  0  0
 59 62  1  0  0  0
 60132  1  0  0  0
 60133  1  0  0  0
 60134  1  0  0  0
 61135  1  0  0  0
 61136  1  0  0  0
 61137  1  0  0  0
 62138  1  0  0  0
 62139  1  0  0  0
 62140  1  0  0  0
 63 65  1  0  0  0
 63141  1  0  0  0
 63142  1  0  0  0
 63143  1  0  0  0
 64144  1  0  0  0
 65145  1  0  0  0
 68 83  1  0  0  0
 71 73  2  0  0  0
 71 74  1  0  0  0
 71146  1  0  0  0
 72 74  2  0  0  0
 72 84  1  0  0  0
 72147  1  0  0  0
 73 75  1  0  0  0
 73 82  1  0  0  0
 74 86  1  0  0  0
 75 84  2  0  0  0
 75 85  1  0  0  0
 76 77  1  0  0  0
 76 82  1  0  0  0
 76148  1  0  0  0
 76149  1  0  0  0
 77 82  1  0  0  0
 77150  1  0  0  0
 77151  1  0  0  0
 78 80  1  0  0  0
 78 83  1  0  0  0
 78152  1  0  0  0
 78153  1  0  0  0
 79 81  1  0  0  0
 79 83  1  0  0  0
 79154  1  0  0  0
 79155  1  0  0  0
 80 85  1  0  0  0
 80156  1  0  0  0
 80157  1  0  0  0
 81 85  1  0  0  0
 81158  1  0  0  0
 81159  1  0  0  0
 82160  1  0  0  0
 83161  1  0  0  0
 86162  1  0  0  0
M  ISO  4   1 100  68 101  83 101  86 100
M  END
> <chiral flag>
0

> <version>
0

> <s_m_source_file>
/data/baiqing/PycharmProjects/Reinvent-master-3.2/result/LINK_invent/BTK/process_docking_weight1_custom_sum_contain_oxygen_bond_distance_aromatic_linkinvent_7_9_3/rearranged_h_0138.sdf

> <i_m_source_file_index>
34

> <r_mmod_Potential_Energy-OPLS-2005>
58.0861282348633

> <r_mmod_Stretch_Energy-OPLS-2005>
135.826065063477

> <r_mmod_Bend_Energy-OPLS-2005>
209.874267578125

> <r_mmod_Torsional_Energy-OPLS-2005>
261.191558837891

> <r_mmod_Improper_Torsional_Energy-OPLS-2005>
7.67920112609863

> <r_mmod_Van_der_Waal_Energy-OPLS-2005>
140.105163574219

> <r_mmod_Electrostatic_Energy-OPLS-2005>
-575.939880371094

> <r_mmod_Solvation_Energy-OPLS-2005>
-227.293731689453

> <b_mmod_Minimization_Converged-OPLS-2005>
0

> <r_mmod_RMS_Derivative-OPLS-2005>
0.320996671915054

$$$$
34
                    3D
 Structure written by MMmdl.
172181  0  0  1  0            999 V2000
  -30.7152  -14.5558   20.5244 C   0  0  0  0  0  0
  -30.4269  -12.3505   19.4353 C   0  0  0  0  0  0
  -29.4915  -12.4572   18.2130 C   0  0  0  0  0  0
  -28.0239  -12.2581   18.6396 C   0  0  0  0  0  0
  -27.6371  -13.1563   19.8366 C   0  0  2  0  0  0
  -28.6929  -13.0801   20.9716 C   0  0  0  0  0  0
  -25.2548  -13.8002   20.5623 C   0  0  0  0  0  0
  -24.1798  -13.0358   20.9224 C   0  0  0  0  0  0
  -24.6308  -11.6817   20.8793 C   0  0  0  0  0  0
  -23.8975  -10.4247   21.0451 C   0  0  0  0  0  0
  -24.3565   -9.4173   21.9205 C   0  0  0  0  0  0
  -23.6263   -8.2202   22.0756 C   0  0  0  0  0  0
  -22.4245   -8.0251   21.3544 C   0  0  0  0  0  0
  -21.9866   -9.0220   20.4651 C   0  0  0  0  0  0
  -22.7172  -10.2104   20.3074 C   0  0  0  0  0  0
  -21.6842   -6.0719   22.5282 C   0  0  0  0  0  0
  -21.4002   -6.5629   23.8211 C   0  0  0  0  0  0
  -21.3651   -5.6784   24.9177 C   0  0  0  0  0  0
  -21.6044   -4.3046   24.7230 C   0  0  0  0  0  0
  -21.8824   -3.8137   23.4352 C   0  0  0  0  0  0
  -21.9192   -4.6952   22.3408 C   0  0  0  0  0  0
  -22.7841  -13.5216   21.1878 C   0  0  0  0  0  0
  -22.1667   -4.2139   21.0981 F   0  0  0  0  0  0
  -21.5627   -3.4532   25.7741 F   0  0  0  0  0  0
  -30.0172  -13.3845   20.4017 N   0  0  0  0  0  0
  -26.2894  -12.9050   20.3233 N   0  0  0  0  0  0
  -25.9201  -11.6291   20.5799 N   0  0  0  0  0  0
  -22.0465  -12.8241   22.0443 N   0  0  0  0  0  0
  -25.4229  -15.1708   20.3914 N   0  0  0  0  0  0
  -31.8971  -14.6462   20.1845 O   0  0  0  0  0  0
  -21.6618   -6.8848   21.4238 O   0  0  0  0  0  0
  -22.3564  -14.5536   20.6717 O   0  0  0  0  0  0
  -24.6123  -31.8694   23.2108 C   0  0  0  0  0  0
  -25.9019  -32.4830   23.8400 C   0  0  1  0  0  0
  -27.2453  -27.4471   20.1075 C   0  0  0  0  0  0
  -25.5875  -33.8627   24.2331 N   0  0  0  0  0  0
  -23.4017  -30.4913   21.5485 C   0  0  2  0  0  0
  -24.8540  -28.9517   20.1212 C   0  0  0  0  0  0
  -22.7392  -29.4673   22.4978 C   0  0  0  0  0  0
  -18.0280  -28.1392   22.8502 C   0  0  0  0  0  0
  -24.1478  -36.7316   23.2628 C   0  0  0  0  0  0
  -25.9280  -30.8349   21.3659 C   0  0  0  0  0  0
  -26.0089  -29.4662   20.7246 C   0  0  0  0  0  0
  -27.2078  -28.7174   20.7255 C   0  0  0  0  0  0
  -26.0809  -26.9465   19.4916 C   0  0  0  0  0  0
  -24.8823  -27.6874   19.5056 C   0  0  0  0  0  0
  -23.6148  -29.8178   20.1659 C   0  0  0  0  0  0
  -25.4091  -36.3111   24.0345 C   0  0  1  0  0  0
  -20.5868  -28.3667   23.1313 C   0  0  2  0  0  0
  -20.6761  -26.9401   22.5423 C   0  0  0  0  0  0
  -19.5751  -26.6398   21.5209 C   0  0  0  0  0  0
  -18.1923  -26.7936   22.1623 C   0  0  0  0  0  0
  -19.1530  -28.8844   23.2911 C   0  0  0  0  0  0
  -18.9463  -30.1451   23.8921 C   0  0  0  0  0  0
  -17.6466  -30.6601   24.0579 C   0  0  0  0  0  0
  -25.9027  -34.9485   23.5145 C   0  0  0  0  0  0
  -16.5354  -29.9112   23.6333 C   0  0  0  0  0  0
  -16.7267  -28.6528   23.0353 C   0  0  0  0  0  0
  -26.4456  -31.6613   25.0725 C   0  0  0  0  0  0
  -25.3733  -31.3769   26.1491 C   0  0  0  0  0  0
  -27.0256  -30.3037   24.6103 C   0  0  0  0  0  0
  -27.6034  -32.4328   25.7473 C   0  0  0  0  0  0
  -27.5602  -37.1771   24.8435 C   0  0  0  0  0  0
  -21.4122  -29.3043   22.3708 N   0  0  0  0  0  0
  -26.4267  -37.3814   23.9455 N   0  0  0  0  0  0
  -24.6645  -31.0801   22.1000 N   0  0  0  0  0  0
  -23.4160  -28.8210   23.3015 O   0  0  0  0  0  0
  -28.3956  -26.6965   20.0381 O   0  0  0  0  0  0
  -26.5595  -34.8932   22.4704 O   0  0  0  0  0  0
  -23.5316  -32.1434   23.7514 O   0  0  0  0  0  0
  -28.8549  -24.0354   22.5990 C   0  0  0  0  0  0
  -28.8560  -22.6260   22.6692 C   0  0  0  0  0  0
  -29.1885  -23.9118   20.1987 C   0  0  0  0  0  0
  -28.9849  -24.6927   21.3573 C   0  0  0  0  0  0
  -28.9874  -21.8387   21.5021 C   0  0  0  0  0  0
  -29.1845  -22.4965   20.2570 C   0  0  0  0  0  0
  -28.8750  -17.6488   20.1154 C   0  0  0  0  0  0
  -28.8922  -16.1333   20.1226 C   0  0  0  0  0  0
  -29.5257  -17.9835   21.4444 C   0  0  1  0  0  0
  -30.6422  -16.8933   21.5211 C   0  0  1  0  0  0
  -29.3314  -21.7185   18.9586 C   0  0  0  0  0  0
  -31.8651  -17.8419   23.5878 C   0  0  0  0  0  0
  -30.2412  -15.9181   23.8969 C   0  0  0  0  0  0
  -28.7315  -20.3267   21.5981 C   0  0  0  0  0  0
  -28.9252  -26.2214   21.2804 C   0  0  0  0  0  0
  -31.2288  -16.6055   22.9329 C   0  0  0  0  0  0
  -30.0319  -15.6723   20.9228 N   0  0  0  0  0  0
  -29.9156  -19.4232   21.5515 N   0  3  0  0  0  0
  -31.4665  -12.4583   19.1200 H   0  0  0  0  0  0
  -30.3557  -11.3623   19.8922 H   0  0  0  0  0  0
  -29.7641  -11.7089   17.4676 H   0  0  0  0  0  0
  -29.6121  -13.4290   17.7306 H   0  0  0  0  0  0
  -27.8955  -11.2097   18.9112 H   0  0  0  0  0  0
  -27.3552  -12.4369   17.7969 H   0  0  0  0  0  0
  -27.5978  -14.1369   19.3905 H   0  0  0  0  0  0
  -28.7050  -12.0831   21.4139 H   0  0  0  0  0  0
  -28.4378  -13.7603   21.7854 H   0  0  0  0  0  0
  -25.2717   -9.5660   22.4773 H   0  0  0  0  0  0
  -23.9986   -7.4585   22.7463 H   0  0  0  0  0  0
  -21.0801   -8.8731   19.8956 H   0  0  0  0  0  0
  -22.3634  -10.9650   19.6187 H   0  0  0  0  0  0
  -21.1989   -7.6137   23.9713 H   0  0  0  0  0  0
  -21.1466   -6.0512   25.9076 H   0  0  0  0  0  0
  -22.0611   -2.7602   23.2851 H   0  0  0  0  0  0
  -22.4058  -11.9894   22.4832 H   0  0  0  0  0  0
  -21.1095  -13.1298   22.2650 H   0  0  0  0  0  0
  -24.6477  -15.8177   20.4868 H   0  0  0  0  0  0
  -26.2536  -15.6025   20.0110 H   0  0  0  0  0  0
  -26.7082  -32.5561   23.1161 H   0  0  0  0  0  0
  -25.0012  -33.9787   25.0466 H   0  0  0  0  0  0
  -22.6927  -31.3094   21.4051 H   0  0  0  0  0  0
  -23.3757  -35.9626   23.3239 H   0  0  0  0  0  0
  -24.3592  -36.8984   22.2053 H   0  0  0  0  0  0
  -23.7190  -37.6491   23.6668 H   0  0  0  0  0  0
  -26.0397  -31.5942   20.5914 H   0  0  0  0  0  0
  -26.8152  -30.8932   21.9837 H   0  0  0  0  0  0
  -28.1006  -29.1173   21.1854 H   0  0  0  0  0  0
  -26.1054  -25.9811   19.0061 H   0  0  0  0  0  0
  -23.9943  -27.2869   19.0372 H   0  0  0  0  0  0
  -23.7245  -30.5893   19.4028 H   0  0  0  0  0  0
  -22.7396  -29.2363   19.8704 H   0  0  0  0  0  0
  -25.1251  -36.1960   25.0833 H   0  0  0  0  0  0
  -20.9987  -28.3238   24.1424 H   0  0  0  0  0  0
  -20.5649  -26.2274   23.3612 H   0  0  0  0  0  0
  -21.6631  -26.7442   22.1212 H   0  0  0  0  0  0
  -19.6904  -25.6312   21.1221 H   0  0  0  0  0  0
  -19.6692  -27.3221   20.6746 H   0  0  0  0  0  0
  -17.4194  -26.6703   21.4018 H   0  0  0  0  0  0
  -18.0331  -26.0073   22.9017 H   0  0  0  0  0  0
  -19.7939  -30.7272   24.2279 H   0  0  0  0  0  0
  -17.5029  -31.6278   24.5197 H   0  0  0  0  0  0
  -15.5358  -30.3038   23.7640 H   0  0  0  0  0  0
  -15.8665  -28.0867   22.7047 H   0  0  0  0  0  0
  -24.5879  -30.7130   25.7874 H   0  0  0  0  0  0
  -24.8956  -32.2952   26.4919 H   0  0  0  0  0  0
  -25.8100  -30.8971   27.0259 H   0  0  0  0  0  0
  -26.2795  -29.6833   24.1122 H   0  0  0  0  0  0
  -27.3961  -29.7251   25.4573 H   0  0  0  0  0  0
  -27.8663  -30.4338   23.9289 H   0  0  0  0  0  0
  -27.2639  -33.3602   26.2106 H   0  0  0  0  0  0
  -28.3804  -32.6941   25.0279 H   0  0  0  0  0  0
  -28.0735  -31.8425   26.5348 H   0  0  0  0  0  0
  -28.2522  -38.0168   24.7647 H   0  0  0  0  0  0
  -28.1202  -36.2717   24.6032 H   0  0  0  0  0  0
  -27.2366  -37.1137   25.8840 H   0  0  0  0  0  0
  -20.9277  -29.8783   21.6951 H   0  0  0  0  0  0
  -26.0156  -38.2868   24.1572 H   0  0  0  0  0  0
  -28.7144  -24.6129   23.5029 H   0  0  0  0  0  0
  -28.6894  -22.1523   23.6282 H   0  0  0  0  0  0
  -29.3107  -24.4089   19.2456 H   0  0  0  0  0  0
  -27.8581  -18.0278   20.0088 H   0  0  0  0  0  0
  -29.4687  -18.0267   19.2807 H   0  0  0  0  0  0
  -28.9161  -15.7653   19.0946 H   0  0  0  0  0  0
  -27.9891  -15.8010   20.6265 H   0  0  0  0  0  0
  -28.8029  -17.7821   22.2375 H   0  0  0  0  0  0
  -31.4602  -17.2004   20.8652 H   0  0  0  0  0  0
  -29.6501  -22.3648   18.1389 H   0  0  0  0  0  0
  -28.3808  -21.2685   18.6719 H   0  0  0  0  0  0
  -30.0770  -20.9298   19.0519 H   0  0  0  0  0  0
  -32.5354  -18.3598   22.9002 H   0  0  0  0  0  0
  -32.4607  -17.5549   24.4552 H   0  0  0  0  0  0
  -31.1159  -18.5506   23.9391 H   0  0  0  0  0  0
  -29.8742  -14.9705   23.5017 H   0  0  0  0  0  0
  -29.3759  -16.5433   24.1165 H   0  0  0  0  0  0
  -30.7241  -15.6911   24.8480 H   0  0  0  0  0  0
  -28.0386  -20.0877   20.7928 H   0  0  0  0  0  0
  -28.1764  -20.1194   22.5143 H   0  0  0  0  0  0
  -29.9373  -26.6114   21.3881 H   0  0  0  0  0  0
  -28.3579  -26.6016   22.1335 H   0  0  0  0  0  0
  -32.0492  -15.9005   22.7850 H   0  0  0  0  0  0
  -30.5018  -19.6798   20.7755 H   0  0  0  0  0  0
  -30.4470  -19.5670   22.3953 H   0  0  0  0  0  0
  1 25  1  0  0  0
  1 30  2  0  0  0
  1 87  1  0  0  0
  2  3  1  0  0  0
  2 25  1  0  0  0
  2 89  1  0  0  0
  2 90  1  0  0  0
  3  4  1  0  0  0
  3 91  1  0  0  0
  3 92  1  0  0  0
  4  5  1  0  0  0
  4 93  1  0  0  0
  4 94  1  0  0  0
  5  6  1  0  0  0
  5 26  1  0  0  0
  5 95  1  0  0  0
  6 25  1  0  0  0
  6 96  1  0  0  0
  6 97  1  0  0  0
  7  8  2  0  0  0
  7 26  1  0  0  0
  7 29  1  0  0  0
  8  9  1  0  0  0
  8 22  1  0  0  0
  9 10  1  0  0  0
  9 27  2  0  0  0
 10 11  2  0  0  0
 10 15  1  0  0  0
 11 12  1  0  0  0
 11 98  1  0  0  0
 12 13  2  0  0  0
 12 99  1  0  0  0
 13 14  1  0  0  0
 13 31  1  0  0  0
 14 15  2  0  0  0
 14100  1  0  0  0
 15101  1  0  0  0
 16 17  2  0  0  0
 16 21  1  0  0  0
 16 31  1  0  0  0
 17 18  1  0  0  0
 17102  1  0  0  0
 18 19  2  0  0  0
 18103  1  0  0  0
 19 20  1  0  0  0
 19 24  1  0  0  0
 20 21  2  0  0  0
 20104  1  0  0  0
 21 23  1  0  0  0
 22 28  1  0  0  0
 22 32  2  0  0  0
 26 27  1  0  0  0
 28105  1  0  0  0
 28106  1  0  0  0
 29107  1  0  0  0
 29108  1  0  0  0
 33 34  1  0  0  0
 33 66  1  0  0  0
 33 70  2  0  0  0
 34 36  1  0  0  0
 34 59  1  0  0  0
 34109  1  0  0  0
 35 44  2  0  0  0
 35 45  1  0  0  0
 35 68  1  0  0  0
 36 56  1  0  0  0
 36110  1  0  0  0
 37 39  1  0  0  0
 37 47  1  0  0  0
 37 66  1  0  0  0
 37111  1  0  0  0
 38 43  2  0  0  0
 38 46  1  0  0  0
 38 47  1  0  0  0
 39 64  1  0  0  0
 39 67  2  0  0  0
 40 52  1  0  0  0
 40 53  2  0  0  0
 40 58  1  0  0  0
 41112  1  0  0  0
 41113  1  0  0  0
 41114  1  0  0  0
 41 48  1  0  0  0
 42 43  1  0  0  0
 42 66  1  0  0  0
 42115  1  0  0  0
 42116  1  0  0  0
 43 44  1  0  0  0
 44117  1  0  0  0
 45 46  2  0  0  0
 45118  1  0  0  0
 46119  1  0  0  0
 47120  1  0  0  0
 47121  1  0  0  0
 48 56  1  0  0  0
 48 65  1  0  0  0
 48122  1  0  0  0
 49 50  1  0  0  0
 49 53  1  0  0  0
 49 64  1  0  0  0
 49123  1  0  0  0
 50 51  1  0  0  0
 50124  1  0  0  0
 50125  1  0  0  0
 51 52  1  0  0  0
 51126  1  0  0  0
 51127  1  0  0  0
 52128  1  0  0  0
 52129  1  0  0  0
 53 54  1  0  0  0
 54 55  2  0  0  0
 54130  1  0  0  0
 55 57  1  0  0  0
 55131  1  0  0  0
 56 69  2  0  0  0
 57 58  2  0  0  0
 57132  1  0  0  0
 58133  1  0  0  0
 59 60  1  0  0  0
 59 61  1  0  0  0
 59 62  1  0  0  0
 60134  1  0  0  0
 60135  1  0  0  0
 60136  1  0  0  0
 61137  1  0  0  0
 61138  1  0  0  0
 61139  1  0  0  0
 62140  1  0  0  0
 62141  1  0  0  0
 62142  1  0  0  0
 63 65  1  0  0  0
 63143  1  0  0  0
 63144  1  0  0  0
 63145  1  0  0  0
 64146  1  0  0  0
 65147  1  0  0  0
 68 85  1  0  0  0
 71 72  2  0  0  0
 71 74  1  0  0  0
 71148  1  0  0  0
 72 75  1  0  0  0
 72149  1  0  0  0
 73 74  2  0  0  0
 73 76  1  0  0  0
 73150  1  0  0  0
 74 85  1  0  0  0
 75 76  2  0  0  0
 75 84  1  0  0  0
 76 81  1  0  0  0
 77 78  1  0  0  0
 77 79  1  0  0  0
 77151  1  0  0  0
 77152  1  0  0  0
 78 87  1  0  0  0
 78153  1  0  0  0
 78154  1  0  0  0
 79 80  1  0  0  0
 79 88  1  0  0  0
 79155  1  0  0  0
 80 86  1  0  0  0
 80 87  1  0  0  0
 80156  1  0  0  0
 81157  1  0  0  0
 81158  1  0  0  0
 81159  1  0  0  0
 82160  1  0  0  0
 82161  1  0  0  0
 82162  1  0  0  0
 82 86  1  0  0  0
 83 86  1  0  0  0
 83163  1  0  0  0
 83164  1  0  0  0
 83165  1  0  0  0
 84 88  1  0  0  0
 84166  1  0  0  0
 84167  1  0  0  0
 85168  1  0  0  0
 85169  1  0  0  0
 86170  1  0  0  0
 88171  1  0  0  0
 88172  1  0  0  0
M  CHG  1  88   1
M  ISO  4   1 100  68 101  85 101  87 100
M  END
> <chiral flag>
0

> <version>
0

> <s_m_source_file>
/data/baiqing/PycharmProjects/Reinvent-master-3.2/result/LINK_invent/BTK/process_docking_weight1_custom_sum_contain_oxygen_bond_distance_aromatic_linkinvent_7_9_3/rearranged_h_0138.sdf

> <i_m_source_file_index>
35

> <r_mmod_Potential_Energy-OPLS-2005>
63.989818572998

> <r_mmod_Stretch_Energy-OPLS-2005>
44.0750999450684

> <r_mmod_Bend_Energy-OPLS-2005>
141.062698364258

> <r_mmod_Torsional_Energy-OPLS-2005>
367.160858154297

> <r_mmod_Improper_Torsional_Energy-OPLS-2005>
6.83105182647705

> <r_mmod_Van_der_Waal_Energy-OPLS-2005>
146.46647644043

> <r_mmod_Electrostatic_Energy-OPLS-2005>
-233.993698120117

> <r_mmod_Solvation_Energy-OPLS-2005>
-433.674713134766

> <b_mmod_Minimization_Converged-OPLS-2005>
0

> <r_mmod_RMS_Derivative-OPLS-2005>
1.6903201341629

$$$$
35
                    3D
 Structure written by MMmdl.
164172  0  0  1  0            999 V2000
  -30.6309  -14.6899   20.4699 C   0  0  0  0  0  0
  -30.4279  -12.4231   19.4697 C   0  0  0  0  0  0
  -29.5065  -12.5033   18.2341 C   0  0  0  0  0  0
  -28.0308  -12.3382   18.6440 C   0  0  0  0  0  0
  -27.6448  -13.2280   19.8571 C   0  0  2  0  0  0
  -28.6897  -13.1391   20.9914 C   0  0  0  0  0  0
  -25.2524  -13.8199   20.5710 C   0  0  0  0  0  0
  -24.1810  -13.0450   20.9228 C   0  0  0  0  0  0
  -24.6383  -11.6928   20.8752 C   0  0  0  0  0  0
  -23.9063  -10.4304   21.0398 C   0  0  0  0  0  0
  -24.3616   -9.4219   21.9176 C   0  0  0  0  0  0
  -23.6304   -8.2242   22.0735 C   0  0  0  0  0  0
  -22.4284   -8.0271   21.3531 C   0  0  0  0  0  0
  -21.9923   -9.0248   20.4633 C   0  0  0  0  0  0
  -22.7236  -10.2140   20.3049 C   0  0  0  0  0  0
  -21.6859   -6.0737   22.5275 C   0  0  0  0  0  0
  -21.4011   -6.5640   23.8208 C   0  0  0  0  0  0
  -21.3669   -5.6790   24.9168 C   0  0  0  0  0  0
  -21.6053   -4.3054   24.7218 C   0  0  0  0  0  0
  -21.8819   -3.8154   23.4335 C   0  0  0  0  0  0
  -21.9198   -4.6969   22.3393 C   0  0  0  0  0  0
  -22.7830  -13.5228   21.1891 C   0  0  0  0  0  0
  -22.1658   -4.2153   21.0967 F   0  0  0  0  0  0
  -21.5636   -3.4526   25.7731 F   0  0  0  0  0  0
  -29.9963  -13.4747   20.4151 N   0  0  0  0  0  0
  -26.2949  -12.9391   20.3311 N   0  0  0  0  0  0
  -25.9316  -11.6537   20.5769 N   0  0  0  0  0  0
  -22.0476  -12.8195   22.0431 N   0  0  0  0  0  0
  -25.4226  -15.1927   20.4142 N   0  0  0  0  0  0
  -31.8121  -14.7934   20.1268 O   0  0  0  0  0  0
  -21.6637   -6.8875   21.4234 O   0  0  0  0  0  0
  -22.3519  -14.5531   20.6744 O   0  0  0  0  0  0
  -24.6259  -31.8578   23.1981 C   0  0  0  0  0  0
  -25.9100  -32.4767   23.8326 C   0  0  1  0  0  0
  -27.2349  -27.3053   20.1220 C   0  0  0  0  0  0
  -25.5913  -33.8568   24.2262 N   0  0  0  0  0  0
  -23.4212  -30.4768   21.5392 C   0  0  2  0  0  0
  -24.8690  -28.9210   20.1079 C   0  0  0  0  0  0
  -22.7481  -29.4612   22.4921 C   0  0  0  0  0  0
  -18.0288  -28.1389   22.8488 C   0  0  0  0  0  0
  -24.1488  -36.7292   23.2641 C   0  0  0  0  0  0
  -25.9596  -30.7830   21.3686 C   0  0  0  0  0  0
  -26.0335  -29.4070   20.7137 C   0  0  0  0  0  0
  -27.2134  -28.6076   20.7126 C   0  0  0  0  0  0
  -26.0481  -26.8632   19.4989 C   0  0  0  0  0  0
  -24.8785  -27.6560   19.4925 C   0  0  0  0  0  0
  -23.6362  -29.8032   20.1563 C   0  0  0  0  0  0
  -25.4115  -36.3081   24.0331 C   0  0  1  0  0  0
  -20.5892  -28.3697   23.1281 C   0  0  2  0  0  0
  -20.6773  -26.9417   22.5411 C   0  0  0  0  0  0
  -19.5751  -26.6387   21.5209 C   0  0  0  0  0  0
  -18.1934  -26.7936   22.1619 C   0  0  0  0  0  0
  -19.1543  -28.8856   23.2882 C   0  0  0  0  0  0
  -18.9461  -30.1456   23.8901 C   0  0  0  0  0  0
  -17.6464  -30.6589   24.0564 C   0  0  0  0  0  0
  -25.9049  -34.9449   23.5099 C   0  0  0  0  0  0
  -16.5354  -29.9088   23.6331 C   0  0  0  0  0  0
  -16.7279  -28.6504   23.0353 C   0  0  0  0  0  0
  -26.4482  -31.6588   25.0704 C   0  0  0  0  0  0
  -25.3716  -31.3724   26.1432 C   0  0  0  0  0  0
  -27.0328  -30.3020   24.6163 C   0  0  0  0  0  0
  -27.6050  -32.4321   25.7472 C   0  0  0  0  0  0
  -27.5585  -37.1802   24.8467 C   0  0  0  0  0  0
  -21.4192  -29.3045   22.3668 N   0  0  0  0  0  0
  -26.4298  -37.3775   23.9407 N   0  0  0  0  0  0
  -24.6877  -31.0570   22.0926 N   0  0  0  0  0  0
  -23.4192  -28.8171   23.3022 O   0  0  0  0  0  0
  -28.3822  -26.5014   20.2080 O   0  0  0  0  0  0
  -26.5628  -34.8922   22.4671 O   0  0  0  0  0  0
  -23.5424  -32.1376   23.7304 O   0  0  0  0  0  0
  -29.9246  -19.6381   18.3829 C   0  0  0  0  0  0
  -29.6078  -20.8046   17.4381 C   0  0  0  0  0  0
  -27.6338  -20.9972   18.9266 C   0  0  0  0  0  0
  -29.6356  -19.9180   19.8878 C   0  0  2  0  0  0
  -28.0471  -24.0578   21.9059 C   0  0  0  0  0  0
  -29.2557  -18.4857   20.5510 C   0  0  0  0  0  0
  -30.2918  -17.2548   20.3842 C   0  0  0  0  0  0
  -29.1888  -22.5200   20.1657 C   0  0  0  0  0  0
  -28.5352  -25.1492   19.6163 C   0  0  0  0  0  0
  -28.1956  -23.7839   20.4005 C   0  0  2  0  0  0
  -28.2437  -21.3106   17.6247 N   0  0  0  0  0  0
  -29.8712  -15.8227   20.6787 N   0  0  0  0  0  0
  -28.6288  -21.0864   20.0295 N   0  3  1  0  0  0
  -31.4701  -12.5398   19.1682 H   0  0  0  0  0  0
  -30.3595  -11.4416   19.9422 H   0  0  0  0  0  0
  -29.7808  -11.7348   17.5099 H   0  0  0  0  0  0
  -29.6435  -13.4634   17.7332 H   0  0  0  0  0  0
  -27.8746  -11.2871   18.8926 H   0  0  0  0  0  0
  -27.3785  -12.5489   17.7955 H   0  0  0  0  0  0
  -27.6470  -14.2553   19.4927 H   0  0  0  0  0  0
  -28.7150  -12.1359   21.4190 H   0  0  0  0  0  0
  -28.4338  -13.8168   21.8083 H   0  0  0  0  0  0
  -25.2749   -9.5703   22.4763 H   0  0  0  0  0  0
  -24.0026   -7.4632   22.7448 H   0  0  0  0  0  0
  -21.0853   -8.8752   19.8947 H   0  0  0  0  0  0
  -22.3667  -10.9673   19.6165 H   0  0  0  0  0  0
  -21.1971   -7.6146   23.9708 H   0  0  0  0  0  0
  -21.1508   -6.0513   25.9072 H   0  0  0  0  0  0
  -22.0595   -2.7617   23.2824 H   0  0  0  0  0  0
  -22.4100  -11.9853   22.4809 H   0  0  0  0  0  0
  -21.1093  -13.1215   22.2646 H   0  0  0  0  0  0
  -24.6517  -15.8439   20.5129 H   0  0  0  0  0  0
  -26.2619  -15.6318   20.0604 H   0  0  0  0  0  0
  -26.7168  -32.5427   23.1073 H   0  0  0  0  0  0
  -25.0053  -33.9708   25.0403 H   0  0  0  0  0  0
  -22.7165  -31.2971   21.3922 H   0  0  0  0  0  0
  -23.3753  -35.9621   23.3303 H   0  0  0  0  0  0
  -24.3581  -36.8914   22.2056 H   0  0  0  0  0  0
  -23.7235  -37.6493   23.6662 H   0  0  0  0  0  0
  -26.0902  -31.5439   20.5975 H   0  0  0  0  0  0
  -26.8402  -30.8355   21.9973 H   0  0  0  0  0  0
  -28.1075  -28.9778   21.1951 H   0  0  0  0  0  0
  -26.0006  -25.8872   19.0402 H   0  0  0  0  0  0
  -23.9831  -27.2756   19.0195 H   0  0  0  0  0  0
  -23.7534  -30.5752   19.3954 H   0  0  0  0  0  0
  -22.7564  -29.2307   19.8580 H   0  0  0  0  0  0
  -25.1294  -36.1936   25.0827 H   0  0  0  0  0  0
  -20.9991  -28.3266   24.1398 H   0  0  0  0  0  0
  -20.5664  -26.2306   23.3613 H   0  0  0  0  0  0
  -21.6644  -26.7435   22.1211 H   0  0  0  0  0  0
  -19.6914  -25.6291   21.1249 H   0  0  0  0  0  0
  -19.6699  -27.3188   20.6731 H   0  0  0  0  0  0
  -17.4209  -26.6690   21.4018 H   0  0  0  0  0  0
  -18.0333  -26.0076   22.9012 H   0  0  0  0  0  0
  -19.7935  -30.7269   24.2283 H   0  0  0  0  0  0
  -17.5014  -31.6270   24.5161 H   0  0  0  0  0  0
  -15.5356  -30.2987   23.7645 H   0  0  0  0  0  0
  -15.8681  -28.0817   22.7071 H   0  0  0  0  0  0
  -24.5890  -30.7078   25.7750 H   0  0  0  0  0  0
  -24.8898  -32.2885   26.4865 H   0  0  0  0  0  0
  -25.8030  -30.8890   27.0208 H   0  0  0  0  0  0
  -26.2897  -29.6770   24.1201 H   0  0  0  0  0  0
  -27.4046  -29.7280   25.4661 H   0  0  0  0  0  0
  -27.8754  -30.4316   23.9368 H   0  0  0  0  0  0
  -27.2678  -33.3631   26.2047 H   0  0  0  0  0  0
  -28.3856  -32.6875   25.0292 H   0  0  0  0  0  0
  -28.0728  -31.8451   26.5388 H   0  0  0  0  0  0
  -28.2602  -38.0098   24.7512 H   0  0  0  0  0  0
  -28.1080  -36.2632   24.6295 H   0  0  0  0  0  0
  -27.2307  -37.1450   25.8871 H   0  0  0  0  0  0
  -20.9372  -29.8751   21.6866 H   0  0  0  0  0  0
  -26.0184  -38.2856   24.1392 H   0  0  0  0  0  0
  -30.9676  -19.3450   18.2577 H   0  0  0  0  0  0
  -29.3386  -18.7815   18.0430 H   0  0  0  0  0  0
  -29.7419  -20.4999   16.3993 H   0  0  0  0  0  0
  -30.3284  -21.6072   17.5970 H   0  0  0  0  0  0
  -27.2254  -19.9853   18.8961 H   0  0  0  0  0  0
  -26.7800  -21.6517   19.0986 H   0  0  0  0  0  0
  -30.5612  -20.2538   20.3578 H   0  0  0  0  0  0
  -27.7360  -23.1610   22.4443 H   0  0  0  0  0  0
  -27.2974  -24.8278   22.0931 H   0  0  0  0  0  0
  -28.9860  -24.4002   22.3427 H   0  0  0  0  0  0
  -28.2957  -18.1684   20.1438 H   0  0  0  0  0  0
  -29.0796  -18.6359   21.6164 H   0  0  0  0  0  0
  -31.1777  -17.4695   20.9855 H   0  0  0  0  0  0
  -30.6484  -17.2445   19.3540 H   0  0  0  0  0  0
  -29.9146  -22.5063   20.9798 H   0  0  0  0  0  0
  -29.7949  -22.7444   19.2932 H   0  0  0  0  0  0
  -28.0687  -25.1237   18.6308 H   0  0  0  0  0  0
  -29.6009  -25.1088   19.3913 H   0  0  0  0  0  0
  -27.2022  -23.5118   20.0529 H   0  0  0  0  0  0
  -27.6325  -20.9696   16.8855 H   0  0  0  0  0  0
  -28.9072  -15.6673   20.9372 H   0  0  0  0  0  0
  -28.1344  -20.9179   20.8938 H   0  0  0  0  0  0
  1 25  1  0  0  0
  1 30  2  0  0  0
  1 82  1  0  0  0
  2  3  1  0  0  0
  2 25  1  0  0  0
  2 84  1  0  0  0
  2 85  1  0  0  0
  3  4  1  0  0  0
  3 86  1  0  0  0
  3 87  1  0  0  0
  4  5  1  0  0  0
  4 88  1  0  0  0
  4 89  1  0  0  0
  5  6  1  0  0  0
  5 26  1  0  0  0
  5 90  1  0  0  0
  6 25  1  0  0  0
  6 91  1  0  0  0
  6 92  1  0  0  0
  7  8  2  0  0  0
  7 26  1  0  0  0
  7 29  1  0  0  0
  8  9  1  0  0  0
  8 22  1  0  0  0
  9 10  1  0  0  0
  9 27  2  0  0  0
 10 11  2  0  0  0
 10 15  1  0  0  0
 11 12  1  0  0  0
 11 93  1  0  0  0
 12 13  2  0  0  0
 12 94  1  0  0  0
 13 14  1  0  0  0
 13 31  1  0  0  0
 14 15  2  0  0  0
 14 95  1  0  0  0
 15 96  1  0  0  0
 16 17  2  0  0  0
 16 21  1  0  0  0
 16 31  1  0  0  0
 17 18  1  0  0  0
 17 97  1  0  0  0
 18 19  2  0  0  0
 18 98  1  0  0  0
 19 20  1  0  0  0
 19 24  1  0  0  0
 20 21  2  0  0  0
 20 99  1  0  0  0
 21 23  1  0  0  0
 22 28  1  0  0  0
 22 32  2  0  0  0
 26 27  1  0  0  0
 28100  1  0  0  0
 28101  1  0  0  0
 29102  1  0  0  0
 29103  1  0  0  0
 33 34  1  0  0  0
 33 66  1  0  0  0
 33 70  2  0  0  0
 34 36  1  0  0  0
 34 59  1  0  0  0
 34104  1  0  0  0
 35 44  2  0  0  0
 35 45  1  0  0  0
 35 68  1  0  0  0
 36 56  1  0  0  0
 36105  1  0  0  0
 37 39  1  0  0  0
 37 47  1  0  0  0
 37 66  1  0  0  0
 37106  1  0  0  0
 38 43  2  0  0  0
 38 46  1  0  0  0
 38 47  1  0  0  0
 39 64  1  0  0  0
 39 67  2  0  0  0
 40 52  1  0  0  0
 40 53  2  0  0  0
 40 58  1  0  0  0
 41107  1  0  0  0
 41108  1  0  0  0
 41109  1  0  0  0
 41 48  1  0  0  0
 42 43  1  0  0  0
 42 66  1  0  0  0
 42110  1  0  0  0
 42111  1  0  0  0
 43 44  1  0  0  0
 44112  1  0  0  0
 45 46  2  0  0  0
 45113  1  0  0  0
 46114  1  0  0  0
 47115  1  0  0  0
 47116  1  0  0  0
 48 56  1  0  0  0
 48 65  1  0  0  0
 48117  1  0  0  0
 49 50  1  0  0  0
 49 53  1  0  0  0
 49 64  1  0  0  0
 49118  1  0  0  0
 50 51  1  0  0  0
 50119  1  0  0  0
 50120  1  0  0  0
 51 52  1  0  0  0
 51121  1  0  0  0
 51122  1  0  0  0
 52123  1  0  0  0
 52124  1  0  0  0
 53 54  1  0  0  0
 54 55  2  0  0  0
 54125  1  0  0  0
 55 57  1  0  0  0
 55126  1  0  0  0
 56 69  2  0  0  0
 57 58  2  0  0  0
 57127  1  0  0  0
 58128  1  0  0  0
 59 60  1  0  0  0
 59 61  1  0  0  0
 59 62  1  0  0  0
 60129  1  0  0  0
 60130  1  0  0  0
 60131  1  0  0  0
 61132  1  0  0  0
 61133  1  0  0  0
 61134  1  0  0  0
 62135  1  0  0  0
 62136  1  0  0  0
 62137  1  0  0  0
 63 65  1  0  0  0
 63138  1  0  0  0
 63139  1  0  0  0
 63140  1  0  0  0
 64141  1  0  0  0
 65142  1  0  0  0
 68 79  1  0  0  0
 71 72  1  0  0  0
 71 74  1  0  0  0
 71143  1  0  0  0
 71144  1  0  0  0
 72 81  1  0  0  0
 72145  1  0  0  0
 72146  1  0  0  0
 73 81  1  0  0  0
 73 83  1  0  0  0
 73147  1  0  0  0
 73148  1  0  0  0
 74 76  1  0  0  0
 74 83  1  0  0  0
 74149  1  0  0  0
 75150  1  0  0  0
 75151  1  0  0  0
 75152  1  0  0  0
 75 80  1  0  0  0
 76 77  1  0  0  0
 76153  1  0  0  0
 76154  1  0  0  0
 77 82  1  0  0  0
 77155  1  0  0  0
 77156  1  0  0  0
 78 80  1  0  0  0
 78157  1  0  0  0
 78158  1  0  0  0
 78 83  1  0  0  0
 79 80  1  0  0  0
 79159  1  0  0  0
 79160  1  0  0  0
 80161  1  0  0  0
 81162  1  0  0  0
 82163  1  0  0  0
 83164  1  0  0  0
M  CHG  1  83   1
M  ISO  4   1 100  68 101  79 101  82 100
M  END
> <chiral flag>
0

> <version>
0

> <s_m_source_file>
/data/baiqing/PycharmProjects/Reinvent-master-3.2/result/LINK_invent/BTK/process_docking_weight1_custom_sum_contain_oxygen_bond_distance_aromatic_linkinvent_7_9_3/rearranged_h_0138.sdf

> <i_m_source_file_index>
36

> <r_mmod_Potential_Energy-OPLS-2005>
142.445053100586

> <r_mmod_Stretch_Energy-OPLS-2005>
113.959495544434

> <r_mmod_Bend_Energy-OPLS-2005>
180.870895385742

> <r_mmod_Torsional_Energy-OPLS-2005>
290.521453857422

> <r_mmod_Improper_Torsional_Energy-OPLS-2005>
5.64880561828613

> <r_mmod_Van_der_Waal_Energy-OPLS-2005>
137.999588012695

> <r_mmod_Electrostatic_Energy-OPLS-2005>
-196.867416381836

> <r_mmod_Solvation_Energy-OPLS-2005>
-450.340911865234

> <b_mmod_Minimization_Converged-OPLS-2005>
0

> <r_mmod_RMS_Derivative-OPLS-2005>
2.02625513076782

$$$$
36
                    3D
 Structure written by MMmdl.
162171  0  0  1  0            999 V2000
  -30.5790  -14.6815   20.5132 C   0  0  0  0  0  0
  -30.4516  -12.4226   19.4529 C   0  0  0  0  0  0
  -29.5135  -12.5216   18.2269 C   0  0  0  0  0  0
  -28.0363  -12.3496   18.6373 C   0  0  0  0  0  0
  -27.6562  -13.2140   19.8685 C   0  0  2  0  0  0
  -28.7017  -13.0541   20.9956 C   0  0  0  0  0  0
  -25.2556  -13.8136   20.5614 C   0  0  0  0  0  0
  -24.1833  -13.0424   20.9179 C   0  0  0  0  0  0
  -24.6407  -11.6898   20.8751 C   0  0  0  0  0  0
  -23.9073  -10.4289   21.0420 C   0  0  0  0  0  0
  -24.3620   -9.4200   21.9197 C   0  0  0  0  0  0
  -23.6294   -8.2236   22.0758 C   0  0  0  0  0  0
  -22.4276   -8.0281   21.3549 C   0  0  0  0  0  0
  -21.9916   -9.0254   20.4651 C   0  0  0  0  0  0
  -22.7245  -10.2136   20.3067 C   0  0  0  0  0  0
  -21.6853   -6.0742   22.5282 C   0  0  0  0  0  0
  -21.4010   -6.5644   23.8212 C   0  0  0  0  0  0
  -21.3657   -5.6798   24.9175 C   0  0  0  0  0  0
  -21.6046   -4.3059   24.7226 C   0  0  0  0  0  0
  -21.8818   -3.8152   23.4344 C   0  0  0  0  0  0
  -21.9190   -4.6971   22.3404 C   0  0  0  0  0  0
  -22.7861  -13.5234   21.1846 C   0  0  0  0  0  0
  -22.1662   -4.2160   21.0981 F   0  0  0  0  0  0
  -21.5629   -3.4540   25.7735 F   0  0  0  0  0  0
  -30.0129  -13.4309   20.4404 N   0  0  0  0  0  0
  -26.3006  -12.9326   20.3337 N   0  0  0  0  0  0
  -25.9344  -11.6490   20.5793 N   0  0  0  0  0  0
  -22.0505  -12.8232   22.0409 N   0  0  0  0  0  0
  -25.4220  -15.1825   20.3875 N   0  0  0  0  0  0
  -31.7241  -14.8903   20.0986 O   0  0  0  0  0  0
  -21.6635   -6.8882   21.4243 O   0  0  0  0  0  0
  -22.3549  -14.5546   20.6707 O   0  0  0  0  0  0
  -24.6261  -31.8561   23.1984 C   0  0  0  0  0  0
  -25.9103  -32.4763   23.8318 C   0  0  1  0  0  0
  -27.2340  -27.2985   20.1393 C   0  0  0  0  0  0
  -25.5910  -33.8560   24.2254 N   0  0  0  0  0  0
  -23.4215  -30.4762   21.5407 C   0  0  2  0  0  0
  -24.8696  -28.9121   20.1243 C   0  0  0  0  0  0
  -22.7478  -29.4604   22.4933 C   0  0  0  0  0  0
  -18.0286  -28.1383   22.8474 C   0  0  0  0  0  0
  -24.1491  -36.7283   23.2642 C   0  0  0  0  0  0
  -25.9613  -30.7828   21.3688 C   0  0  0  0  0  0
  -26.0365  -29.4018   20.7243 C   0  0  0  0  0  0
  -27.2215  -28.6086   20.7138 C   0  0  0  0  0  0
  -26.0425  -26.8488   19.5351 C   0  0  0  0  0  0
  -24.8745  -27.6408   19.5226 C   0  0  0  0  0  0
  -23.6402  -29.7985   20.1612 C   0  0  0  0  0  0
  -25.4111  -36.3067   24.0335 C   0  0  1  0  0  0
  -20.5886  -28.3677   23.1289 C   0  0  2  0  0  0
  -20.6775  -26.9398   22.5414 C   0  0  0  0  0  0
  -19.5756  -26.6377   21.5213 C   0  0  0  0  0  0
  -18.1934  -26.7928   22.1619 C   0  0  0  0  0  0
  -19.1538  -28.8845   23.2880 C   0  0  0  0  0  0
  -18.9464  -30.1446   23.8892 C   0  0  0  0  0  0
  -17.6465  -30.6584   24.0558 C   0  0  0  0  0  0
  -25.9042  -34.9442   23.5099 C   0  0  0  0  0  0
  -16.5355  -29.9080   23.6332 C   0  0  0  0  0  0
  -16.7272  -28.6507   23.0337 C   0  0  0  0  0  0
  -26.4492  -31.6579   25.0696 C   0  0  0  0  0  0
  -25.3730  -31.3724   26.1428 C   0  0  0  0  0  0
  -27.0334  -30.3005   24.6136 C   0  0  0  0  0  0
  -27.6045  -32.4313   25.7470 C   0  0  0  0  0  0
  -27.5580  -37.1795   24.8469 C   0  0  0  0  0  0
  -21.4190  -29.3034   22.3688 N   0  0  0  0  0  0
  -26.4287  -37.3764   23.9414 N   0  0  0  0  0  0
  -24.6886  -31.0559   22.0936 N   0  0  0  0  0  0
  -23.4199  -28.8145   23.3016 O   0  0  0  0  0  0
  -28.3980  -26.5240   20.0509 O   0  0  0  0  0  0
  -26.5613  -34.8918   22.4668 O   0  0  0  0  0  0
  -23.5423  -32.1360   23.7305 O   0  0  0  0  0  0
  -27.1549  -19.7782   22.0244 C   0  0  0  0  0  0
  -26.2344  -18.9744   22.7170 C   0  0  0  0  0  0
  -30.3778  -19.4293   20.1934 C   0  0  0  0  0  0
  -30.5531  -18.0058   20.2194 C   0  0  0  0  0  0
  -27.5687  -17.0151   22.1998 C   0  0  0  0  0  0
  -28.3152  -19.2289   21.4210 C   0  0  0  0  0  0
  -28.5134  -17.7973   21.4857 C   0  0  0  0  0  0
  -26.4479  -17.5927   22.8214 C   0  0  0  0  0  0
  -29.2693  -20.0965   20.7970 C   0  0  0  0  0  0
  -29.6366  -17.1430   20.8794 C   0  0  0  0  0  0
  -25.4719  -16.7264   23.5942 C   0  0  0  0  0  0
  -29.2218  -21.6894   20.9417 C   0  0  0  0  0  0
  -27.9580  -23.8411   19.9370 C   0  0  0  0  0  0
  -28.5388  -25.1584   20.6295 C   0  0  0  0  0  0
  -29.7364  -15.6702   20.9648 N   0  0  0  0  0  0
  -28.8092  -22.5673   19.7772 N   0  3  0  0  0  0
  -31.4885  -12.5742   19.1472 H   0  0  0  0  0  0
  -30.4127  -11.4231   19.8888 H   0  0  0  0  0  0
  -29.7831  -11.7705   17.4831 H   0  0  0  0  0  0
  -29.6467  -13.4906   17.7434 H   0  0  0  0  0  0
  -27.8757  -11.2953   18.8647 H   0  0  0  0  0  0
  -27.3809  -12.5816   17.7969 H   0  0  0  0  0  0
  -27.6758  -14.2517   19.5357 H   0  0  0  0  0  0
  -28.7274  -12.0223   21.3479 H   0  0  0  0  0  0
  -28.4364  -13.6501   21.8696 H   0  0  0  0  0  0
  -25.2766   -9.5679   22.4773 H   0  0  0  0  0  0
  -24.0003   -7.4630   22.7476 H   0  0  0  0  0  0
  -21.0847   -8.8782   19.8954 H   0  0  0  0  0  0
  -22.3708  -10.9683   19.6178 H   0  0  0  0  0  0
  -21.1998   -7.6150   23.9724 H   0  0  0  0  0  0
  -21.1482   -6.0524   25.9082 H   0  0  0  0  0  0
  -22.0597   -2.7615   23.2840 H   0  0  0  0  0  0
  -22.4103  -11.9879   22.4783 H   0  0  0  0  0  0
  -21.1129  -13.1276   22.2621 H   0  0  0  0  0  0
  -24.6581  -15.8363   20.5118 H   0  0  0  0  0  0
  -26.2751  -15.6306   20.0816 H   0  0  0  0  0  0
  -26.7161  -32.5431   23.1055 H   0  0  0  0  0  0
  -25.0086  -33.9693   25.0422 H   0  0  0  0  0  0
  -22.7159  -31.2963   21.3885 H   0  0  0  0  0  0
  -23.3754  -35.9617   23.3298 H   0  0  0  0  0  0
  -24.3590  -36.8903   22.2060 H   0  0  0  0  0  0
  -23.7250  -37.6485   23.6666 H   0  0  0  0  0  0
  -26.0873  -31.5383   20.5921 H   0  0  0  0  0  0
  -26.8438  -30.8410   21.9945 H   0  0  0  0  0  0
  -28.1287  -28.9925   21.1589 H   0  0  0  0  0  0
  -26.0162  -25.8822   19.0533 H   0  0  0  0  0  0
  -23.9789  -27.2607   19.0507 H   0  0  0  0  0  0
  -23.7671  -30.5673   19.3987 H   0  0  0  0  0  0
  -22.7607  -29.2278   19.8572 H   0  0  0  0  0  0
  -25.1295  -36.1916   25.0828 H   0  0  0  0  0  0
  -20.9967  -28.3246   24.1414 H   0  0  0  0  0  0
  -20.5669  -26.2285   23.3608 H   0  0  0  0  0  0
  -21.6644  -26.7426   22.1208 H   0  0  0  0  0  0
  -19.6919  -25.6288   21.1237 H   0  0  0  0  0  0
  -19.6701  -27.3187   20.6745 H   0  0  0  0  0  0
  -17.4203  -26.6666   21.4019 H   0  0  0  0  0  0
  -18.0326  -26.0074   22.9014 H   0  0  0  0  0  0
  -19.7942  -30.7259   24.2260 H   0  0  0  0  0  0
  -17.5026  -31.6267   24.5151 H   0  0  0  0  0  0
  -15.5357  -30.2980   23.7665 H   0  0  0  0  0  0
  -15.8676  -28.0832   22.7040 H   0  0  0  0  0  0
  -24.5900  -30.7076   25.7763 H   0  0  0  0  0  0
  -24.8928  -32.2896   26.4846 H   0  0  0  0  0  0
  -25.8053  -30.8909   27.0209 H   0  0  0  0  0  0
  -26.2898  -29.6753   24.1178 H   0  0  0  0  0  0
  -27.4073  -29.7257   25.4619 H   0  0  0  0  0  0
  -27.8747  -30.4302   23.9326 H   0  0  0  0  0  0
  -27.2653  -33.3620   26.2029 H   0  0  0  0  0  0
  -28.3869  -32.6858   25.0310 H   0  0  0  0  0  0
  -28.0697  -31.8453   26.5404 H   0  0  0  0  0  0
  -28.2585  -38.0100   24.7505 H   0  0  0  0  0  0
  -28.1085  -36.2629   24.6299 H   0  0  0  0  0  0
  -27.2303  -37.1448   25.8873 H   0  0  0  0  0  0
  -20.9362  -29.8766   21.6907 H   0  0  0  0  0  0
  -26.0170  -38.2839   24.1408 H   0  0  0  0  0  0
  -26.9260  -20.8304   21.9768 H   0  0  0  0  0  0
  -25.3669  -19.4273   23.1771 H   0  0  0  0  0  0
  -31.1471  -20.0235   19.7198 H   0  0  0  0  0  0
  -31.4246  -17.5826   19.7399 H   0  0  0  0  0  0
  -27.6833  -15.9476   22.3013 H   0  0  0  0  0  0
  -25.0305  -17.2806   24.4230 H   0  0  0  0  0  0
  -25.9689  -15.8482   24.0079 H   0  0  0  0  0  0
  -24.6666  -16.3842   22.9442 H   0  0  0  0  0  0
  -30.2337  -21.9999   21.2042 H   0  0  0  0  0  0
  -28.6474  -21.9794   21.8182 H   0  0  0  0  0  0
  -27.6823  -24.1246   18.9212 H   0  0  0  0  0  0
  -27.0180  -23.5724   20.4202 H   0  0  0  0  0  0
  -29.6160  -25.0173   20.7139 H   0  0  0  0  0  0
  -28.1911  -25.1910   21.6625 H   0  0  0  0  0  0
  -28.9074  -15.2542   21.3557 H   0  0  0  0  0  0
  -28.2850  -21.9597   19.1682 H   0  0  0  0  0  0
  -29.6472  -22.8006   19.2684 H   0  0  0  0  0  0
  1 25  1  0  0  0
  1 30  2  0  0  0
  1 85  1  0  0  0
  2  3  1  0  0  0
  2 25  1  0  0  0
  2 87  1  0  0  0
  2 88  1  0  0  0
  3  4  1  0  0  0
  3 89  1  0  0  0
  3 90  1  0  0  0
  4  5  1  0  0  0
  4 91  1  0  0  0
  4 92  1  0  0  0
  5  6  1  0  0  0
  5 26  1  0  0  0
  5 93  1  0  0  0
  6 25  1  0  0  0
  6 94  1  0  0  0
  6 95  1  0  0  0
  7  8  2  0  0  0
  7 26  1  0  0  0
  7 29  1  0  0  0
  8  9  1  0  0  0
  8 22  1  0  0  0
  9 10  1  0  0  0
  9 27  2  0  0  0
 10 11  2  0  0  0
 10 15  1  0  0  0
 11 12  1  0  0  0
 11 96  1  0  0  0
 12 13  2  0  0  0
 12 97  1  0  0  0
 13 14  1  0  0  0
 13 31  1  0  0  0
 14 15  2  0  0  0
 14 98  1  0  0  0
 15 99  1  0  0  0
 16 17  2  0  0  0
 16 21  1  0  0  0
 16 31  1  0  0  0
 17 18  1  0  0  0
 17100  1  0  0  0
 18 19  2  0  0  0
 18101  1  0  0  0
 19 20  1  0  0  0
 19 24  1  0  0  0
 20 21  2  0  0  0
 20102  1  0  0  0
 21 23  1  0  0  0
 22 28  1  0  0  0
 22 32  2  0  0  0
 26 27  1  0  0  0
 28103  1  0  0  0
 28104  1  0  0  0
 29105  1  0  0  0
 29106  1  0  0  0
 33 34  1  0  0  0
 33 66  1  0  0  0
 33 70  2  0  0  0
 34 36  1  0  0  0
 34 59  1  0  0  0
 34107  1  0  0  0
 35 44  2  0  0  0
 35 45  1  0  0  0
 35 68  1  0  0  0
 36 56  1  0  0  0
 36108  1  0  0  0
 37 39  1  0  0  0
 37 47  1  0  0  0
 37 66  1  0  0  0
 37109  1  0  0  0
 38 43  2  0  0  0
 38 46  1  0  0  0
 38 47  1  0  0  0
 39 64  1  0  0  0
 39 67  2  0  0  0
 40 52  1  0  0  0
 40 53  2  0  0  0
 40 58  1  0  0  0
 41110  1  0  0  0
 41111  1  0  0  0
 41112  1  0  0  0
 41 48  1  0  0  0
 42 43  1  0  0  0
 42 66  1  0  0  0
 42113  1  0  0  0
 42114  1  0  0  0
 43 44  1  0  0  0
 44115  1  0  0  0
 45 46  2  0  0  0
 45116  1  0  0  0
 46117  1  0  0  0
 47118  1  0  0  0
 47119  1  0  0  0
 48 56  1  0  0  0
 48 65  1  0  0  0
 48120  1  0  0  0
 49 50  1  0  0  0
 49 53  1  0  0  0
 49 64  1  0  0  0
 49121  1  0  0  0
 50 51  1  0  0  0
 50122  1  0  0  0
 50123  1  0  0  0
 51 52  1  0  0  0
 51124  1  0  0  0
 51125  1  0  0  0
 52126  1  0  0  0
 52127  1  0  0  0
 53 54  1  0  0  0
 54 55  2  0  0  0
 54128  1  0  0  0
 55 57  1  0  0  0
 55129  1  0  0  0
 56 69  2  0  0  0
 57 58  2  0  0  0
 57130  1  0  0  0
 58131  1  0  0  0
 59 60  1  0  0  0
 59 61  1  0  0  0
 59 62  1  0  0  0
 60132  1  0  0  0
 60133  1  0  0  0
 60134  1  0  0  0
 61135  1  0  0  0
 61136  1  0  0  0
 61137  1  0  0  0
 62138  1  0  0  0
 62139  1  0  0  0
 62140  1  0  0  0
 63 65  1  0  0  0
 63141  1  0  0  0
 63142  1  0  0  0
 63143  1  0  0  0
 64144  1  0  0  0
 65145  1  0  0  0
 68 84  1  0  0  0
 71 72  2  0  0  0
 71 76  1  0  0  0
 71146  1  0  0  0
 72 78  1  0  0  0
 72147  1  0  0  0
 73 74  1  0  0  0
 73 79  2  0  0  0
 73148  1  0  0  0
 74 80  2  0  0  0
 74149  1  0  0  0
 75 77  1  0  0  0
 75 78  2  0  0  0
 75150  1  0  0  0
 76 77  2  0  0  0
 76 79  1  0  0  0
 77 80  1  0  0  0
 78 81  1  0  0  0
 79 82  1  0  0  0
 80 85  1  0  0  0
 81151  1  0  0  0
 81152  1  0  0  0
 81153  1  0  0  0
 82 86  1  0  0  0
 82154  1  0  0  0
 82155  1  0  0  0
 83 84  1  0  0  0
 83 86  1  0  0  0
 83156  1  0  0  0
 83157  1  0  0  0
 84158  1  0  0  0
 84159  1  0  0  0
 85160  1  0  0  0
 86161  1  0  0  0
 86162  1  0  0  0
M  CHG  1  86   1
M  ISO  4   1 100  68 101  84 101  85 100
M  END
> <chiral flag>
0

> <version>
0

> <s_m_source_file>
/data/baiqing/PycharmProjects/Reinvent-master-3.2/result/LINK_invent/BTK/process_docking_weight1_custom_sum_contain_oxygen_bond_distance_aromatic_linkinvent_7_9_3/rearranged_h_0138.sdf

> <i_m_source_file_index>
37

> <r_mmod_Potential_Energy-OPLS-2005>
-23.2356185913086

> <r_mmod_Stretch_Energy-OPLS-2005>
99.9934844970703

> <r_mmod_Bend_Energy-OPLS-2005>
190.881973266602

> <r_mmod_Torsional_Energy-OPLS-2005>
237.612335205078

> <r_mmod_Improper_Torsional_Energy-OPLS-2005>
4.42662286758423

> <r_mmod_Van_der_Waal_Energy-OPLS-2005>
147.264556884766

> <r_mmod_Electrostatic_Energy-OPLS-2005>
-297.148742675781

> <r_mmod_Solvation_Energy-OPLS-2005>
-460.660003662109

> <b_mmod_Minimization_Converged-OPLS-2005>
0

> <r_mmod_RMS_Derivative-OPLS-2005>
1.18533897399902

$$$$
37
                    3D
 Structure written by MMmdl.
172180  0  0  1  0            999 V2000
  -30.7122  -14.5330   20.5040 C   0  0  0  0  0  0
  -30.4116  -12.3281   19.4428 C   0  0  0  0  0  0
  -29.4935  -12.4960   18.2158 C   0  0  0  0  0  0
  -28.0162  -12.3589   18.6274 C   0  0  0  0  0  0
  -27.6517  -13.2216   19.8655 C   0  0  2  0  0  0
  -28.6984  -13.0697   20.9931 C   0  0  0  0  0  0
  -25.2516  -13.8149   20.5585 C   0  0  0  0  0  0
  -24.1810  -13.0431   20.9191 C   0  0  0  0  0  0
  -24.6391  -11.6902   20.8776 C   0  0  0  0  0  0
  -23.9052  -10.4281   21.0431 C   0  0  0  0  0  0
  -24.3614   -9.4184   21.9196 C   0  0  0  0  0  0
  -23.6291   -8.2223   22.0741 C   0  0  0  0  0  0
  -22.4275   -8.0276   21.3533 C   0  0  0  0  0  0
  -21.9918   -9.0249   20.4643 C   0  0  0  0  0  0
  -22.7234  -10.2131   20.3061 C   0  0  0  0  0  0
  -21.6846   -6.0731   22.5275 C   0  0  0  0  0  0
  -21.3999   -6.5640   23.8212 C   0  0  0  0  0  0
  -21.3660   -5.6792   24.9171 C   0  0  0  0  0  0
  -21.6035   -4.3050   24.7219 C   0  0  0  0  0  0
  -21.8819   -3.8143   23.4338 C   0  0  0  0  0  0
  -21.9182   -4.6957   22.3399 C   0  0  0  0  0  0
  -22.7835  -13.5224   21.1841 C   0  0  0  0  0  0
  -22.1660   -4.2148   21.0975 F   0  0  0  0  0  0
  -21.5640   -3.4532   25.7728 F   0  0  0  0  0  0
  -30.0232  -13.3575   20.4247 N   0  0  0  0  0  0
  -26.2978  -12.9367   20.3360 N   0  0  0  0  0  0
  -25.9328  -11.6518   20.5839 N   0  0  0  0  0  0
  -22.0459  -12.8236   22.0403 N   0  0  0  0  0  0
  -25.4167  -15.1854   20.3667 N   0  0  0  0  0  0
  -31.8742  -14.6115   20.1080 O   0  0  0  0  0  0
  -21.6627   -6.8873   21.4244 O   0  0  0  0  0  0
  -22.3584  -14.5568   20.6705 O   0  0  0  0  0  0
  -24.6183  -31.8671   23.2051 C   0  0  0  0  0  0
  -25.9057  -32.4810   23.8361 C   0  0  1  0  0  0
  -27.2318  -27.3948   20.1055 C   0  0  0  0  0  0
  -25.5909  -33.8613   24.2286 N   0  0  0  0  0  0
  -23.4095  -30.4859   21.5493 C   0  0  2  0  0  0
  -24.8577  -28.9472   20.1139 C   0  0  0  0  0  0
  -22.7428  -29.4651   22.4995 C   0  0  0  0  0  0
  -18.0284  -28.1363   22.8519 C   0  0  0  0  0  0
  -24.1504  -36.7302   23.2630 C   0  0  0  0  0  0
  -25.9430  -30.8188   21.3655 C   0  0  0  0  0  0
  -26.0198  -29.4503   20.7132 C   0  0  0  0  0  0
  -27.2125  -28.6830   20.7017 C   0  0  0  0  0  0
  -26.0543  -26.9267   19.4840 C   0  0  0  0  0  0
  -24.8727  -27.6898   19.4894 C   0  0  0  0  0  0
  -23.6184  -29.8104   20.1676 C   0  0  0  0  0  0
  -25.4133  -36.3090   24.0313 C   0  0  1  0  0  0
  -20.5885  -28.3674   23.1332 C   0  0  2  0  0  0
  -20.6788  -26.9407   22.5417 C   0  0  0  0  0  0
  -19.5738  -26.6332   21.5282 C   0  0  0  0  0  0
  -18.1904  -26.7910   22.1640 C   0  0  0  0  0  0
  -19.1536  -28.8827   23.2927 C   0  0  0  0  0  0
  -18.9436  -30.1441   23.8920 C   0  0  0  0  0  0
  -17.6436  -30.6581   24.0554 C   0  0  0  0  0  0
  -25.9061  -34.9460   23.5091 C   0  0  0  0  0  0
  -16.5331  -29.9072   23.6326 C   0  0  0  0  0  0
  -16.7274  -28.6484   23.0364 C   0  0  0  0  0  0
  -26.4486  -31.6592   25.0701 C   0  0  0  0  0  0
  -25.3744  -31.3666   26.1428 C   0  0  0  0  0  0
  -27.0292  -30.3025   24.6068 C   0  0  0  0  0  0
  -27.6068  -32.4312   25.7450 C   0  0  0  0  0  0
  -27.5583  -37.1809   24.8459 C   0  0  0  0  0  0
  -21.4154  -29.3054   22.3748 N   0  0  0  0  0  0
  -26.4307  -37.3785   23.9392 N   0  0  0  0  0  0
  -24.6757  -31.0729   22.0974 N   0  0  0  0  0  0
  -23.4188  -28.8183   23.3028 O   0  0  0  0  0  0
  -28.3769  -26.6113   20.1065 O   0  0  0  0  0  0
  -26.5622  -34.8906   22.4649 O   0  0  0  0  0  0
  -23.5362  -32.1429   23.7415 O   0  0  0  0  0  0
  -31.9233  -18.8698   20.2421 C   0  0  0  0  0  0
  -30.8909  -19.8215   20.2889 C   0  0  0  0  0  0
  -31.6572  -17.5026   20.4416 C   0  0  0  0  0  0
  -29.5694  -19.4211   20.5701 C   0  0  0  0  0  0
  -30.3407  -17.0417   20.6935 C   0  0  0  0  0  0
  -29.3145  -18.0279   20.7980 C   0  0  0  0  0  0
  -28.3632  -25.3654   22.1632 C   0  0  0  0  0  0
  -24.0685  -17.2550   22.6276 C   0  0  0  0  0  0
  -28.4321  -20.4669   20.6544 C   0  0  0  0  0  0
  -28.5652  -21.8525   19.9180 C   0  0  0  0  0  0
  -26.4168  -17.9974   22.8554 C   0  0  0  0  0  0
  -29.3284  -24.2916   20.0506 C   0  0  0  0  0  0
  -27.8700  -17.6094   22.5730 C   0  0  0  0  0  0
  -28.2478  -25.2581   20.6335 C   0  0  1  0  0  0
  -30.0024  -15.6376   20.8607 N   0  0  0  0  0  0
  -25.4888  -16.8621   22.6604 N   0  3  0  0  0  0
  -29.3436  -22.9054   20.6379 N   0  3  0  0  0  0
  -28.0571  -17.6206   21.1598 O   0  0  0  0  0  0
  -31.4564  -12.4044   19.1366 H   0  0  0  0  0  0
  -30.2993  -11.3323   19.8755 H   0  0  0  0  0  0
  -29.7378  -11.7529   17.4550 H   0  0  0  0  0  0
  -29.6651  -13.4712   17.7574 H   0  0  0  0  0  0
  -27.8318  -11.3072   18.8474 H   0  0  0  0  0  0
  -27.3663  -12.6087   17.7881 H   0  0  0  0  0  0
  -27.6705  -14.2606   19.5354 H   0  0  0  0  0  0
  -28.6797  -12.0561   21.3960 H   0  0  0  0  0  0
  -28.4637  -13.7252   21.8328 H   0  0  0  0  0  0
  -25.2749   -9.5660   22.4778 H   0  0  0  0  0  0
  -23.9986   -7.4605   22.7440 H   0  0  0  0  0  0
  -21.0856   -8.8776   19.8952 H   0  0  0  0  0  0
  -22.3698  -10.9687   19.6184 H   0  0  0  0  0  0
  -21.1988   -7.6152   23.9716 H   0  0  0  0  0  0
  -21.1502   -6.0523   25.9080 H   0  0  0  0  0  0
  -22.0603   -2.7605   23.2837 H   0  0  0  0  0  0
  -22.4016  -11.9853   22.4750 H   0  0  0  0  0  0
  -21.1068  -13.1259   22.2572 H   0  0  0  0  0  0
  -24.5309  -15.5937   20.0838 H   0  0  0  0  0  0
  -26.1108  -15.3786   19.6527 H   0  0  0  0  0  0
  -26.7125  -32.5522   23.1123 H   0  0  0  0  0  0
  -25.0033  -33.9794   25.0407 H   0  0  0  0  0  0
  -22.6987  -31.3023   21.4034 H   0  0  0  0  0  0
  -23.3763  -35.9642   23.3306 H   0  0  0  0  0  0
  -24.3570  -36.8921   22.2039 H   0  0  0  0  0  0
  -23.7287  -37.6516   23.6654 H   0  0  0  0  0  0
  -26.0600  -31.5828   20.5948 H   0  0  0  0  0  0
  -26.8302  -30.8725   21.9861 H   0  0  0  0  0  0
  -28.1094  -29.0689   21.1656 H   0  0  0  0  0  0
  -26.0363  -25.9696   18.9818 H   0  0  0  0  0  0
  -23.9834  -27.3053   19.0097 H   0  0  0  0  0  0
  -23.7148  -30.5774   19.3989 H   0  0  0  0  0  0
  -22.7466  -29.2173   19.8835 H   0  0  0  0  0  0
  -25.1334  -36.1921   25.0812 H   0  0  0  0  0  0
  -20.9996  -28.3218   24.1447 H   0  0  0  0  0  0
  -20.5806  -26.2274   23.3618 H   0  0  0  0  0  0
  -21.6620  -26.7479   22.1094 H   0  0  0  0  0  0
  -19.6692  -27.3066   20.6764 H   0  0  0  0  0  0
  -19.6886  -25.6223   21.1372 H   0  0  0  0  0  0
  -17.4214  -26.6706   21.3983 H   0  0  0  0  0  0
  -18.0221  -26.0028   22.8996 H   0  0  0  0  0  0
  -19.7886  -30.7299   24.2273 H   0  0  0  0  0  0
  -17.4984  -31.6289   24.5108 H   0  0  0  0  0  0
  -15.5329  -30.2959   23.7650 H   0  0  0  0  0  0
  -15.8701  -28.0778   22.7075 H   0  0  0  0  0  0
  -24.5947  -30.6998   25.7718 H   0  0  0  0  0  0
  -24.8907  -32.2815   26.4865 H   0  0  0  0  0  0
  -25.8097  -30.8819   27.0178 H   0  0  0  0  0  0
  -26.2803  -29.6804   24.1150 H   0  0  0  0  0  0
  -27.4082  -29.7237   25.4498 H   0  0  0  0  0  0
  -27.8643  -30.4330   23.9178 H   0  0  0  0  0  0
  -27.2703  -33.3612   26.2034 H   0  0  0  0  0  0
  -28.3867  -32.6879   25.0266 H   0  0  0  0  0  0
  -28.0761  -31.8441   26.5355 H   0  0  0  0  0  0
  -28.2615  -38.0091   24.7521 H   0  0  0  0  0  0
  -28.1080  -36.2634   24.6304 H   0  0  0  0  0  0
  -27.2285  -37.1467   25.8854 H   0  0  0  0  0  0
  -20.9264  -29.8844   21.7058 H   0  0  0  0  0  0
  -26.0175  -38.2851   24.1399 H   0  0  0  0  0  0
  -32.9363  -19.1894   20.0420 H   0  0  0  0  0  0
  -31.1406  -20.8584   20.1205 H   0  0  0  0  0  0
  -32.5034  -16.8376   20.3947 H   0  0  0  0  0  0
  -28.1395  -24.4155   22.6466 H   0  0  0  0  0  0
  -27.6710  -26.1056   22.5640 H   0  0  0  0  0  0
  -29.3701  -25.6638   22.4572 H   0  0  0  0  0  0
  -23.4328  -16.3750   22.5374 H   0  0  0  0  0  0
  -23.8693  -17.9011   21.7719 H   0  0  0  0  0  0
  -23.7851  -17.7910   23.5325 H   0  0  0  0  0  0
  -28.2075  -20.6386   21.7063 H   0  0  0  0  0  0
  -27.5421  -19.9831   20.2519 H   0  0  0  0  0  0
  -27.5579  -22.2536   19.7968 H   0  0  0  0  0  0
  -28.9539  -21.7150   18.9072 H   0  0  0  0  0  0
  -26.1354  -18.8331   22.2143 H   0  0  0  0  0  0
  -26.3270  -18.3461   23.8853 H   0  0  0  0  0  0
  -30.3064  -24.7317   20.2484 H   0  0  0  0  0  0
  -29.2476  -24.2347   18.9640 H   0  0  0  0  0  0
  -28.1080  -16.6246   22.9779 H   0  0  0  0  0  0
  -28.5329  -18.3238   23.0667 H   0  0  0  0  0  0
  -27.2727  -24.8359   20.3953 H   0  0  0  0  0  0
  -29.0422  -15.4518   21.1007 H   0  0  0  0  0  0
  -25.6836  -16.3800   21.7823 H   0  0  0  0  0  0
  -25.6214  -16.1829   23.3936 H   0  0  0  0  0  0
  -30.3042  -22.6014   20.6560 H   0  0  0  0  0  0
  -29.0398  -22.9530   21.5986 H   0  0  0  0  0  0
  1 25  1  0  0  0
  1 30  2  0  0  0
  1 85  1  0  0  0
  2  3  1  0  0  0
  2 25  1  0  0  0
  2 89  1  0  0  0
  2 90  1  0  0  0
  3  4  1  0  0  0
  3 91  1  0  0  0
  3 92  1  0  0  0
  4  5  1  0  0  0
  4 93  1  0  0  0
  4 94  1  0  0  0
  5  6  1  0  0  0
  5 26  1  0  0  0
  5 95  1  0  0  0
  6 25  1  0  0  0
  6 96  1  0  0  0
  6 97  1  0  0  0
  7  8  2  0  0  0
  7 26  1  0  0  0
  7 29  1  0  0  0
  8  9  1  0  0  0
  8 22  1  0  0  0
  9 10  1  0  0  0
  9 27  2  0  0  0
 10 11  2  0  0  0
 10 15  1  0  0  0
 11 12  1  0  0  0
 11 98  1  0  0  0
 12 13  2  0  0  0
 12 99  1  0  0  0
 13 14  1  0  0  0
 13 31  1  0  0  0
 14 15  2  0  0  0
 14100  1  0  0  0
 15101  1  0  0  0
 16 17  2  0  0  0
 16 21  1  0  0  0
 16 31  1  0  0  0
 17 18  1  0  0  0
 17102  1  0  0  0
 18 19  2  0  0  0
 18103  1  0  0  0
 19 20  1  0  0  0
 19 24  1  0  0  0
 20 21  2  0  0  0
 20104  1  0  0  0
 21 23  1  0  0  0
 22 28  1  0  0  0
 22 32  2  0  0  0
 26 27  1  0  0  0
 28105  1  0  0  0
 28106  1  0  0  0
 29107  1  0  0  0
 29108  1  0  0  0
 33 34  1  0  0  0
 33 66  1  0  0  0
 33 70  2  0  0  0
 34 36  1  0  0  0
 34 59  1  0  0  0
 34109  1  0  0  0
 35 44  2  0  0  0
 35 45  1  0  0  0
 35 68  1  0  0  0
 36 56  1  0  0  0
 36110  1  0  0  0
 37 39  1  0  0  0
 37 47  1  0  0  0
 37 66  1  0  0  0
 37111  1  0  0  0
 38 43  2  0  0  0
 38 46  1  0  0  0
 38 47  1  0  0  0
 39 64  1  0  0  0
 39 67  2  0  0  0
 40 52  1  0  0  0
 40 53  2  0  0  0
 40 58  1  0  0  0
 41112  1  0  0  0
 41113  1  0  0  0
 41114  1  0  0  0
 41 48  1  0  0  0
 42 43  1  0  0  0
 42 66  1  0  0  0
 42115  1  0  0  0
 42116  1  0  0  0
 43 44  1  0  0  0
 44117  1  0  0  0
 45 46  2  0  0  0
 45118  1  0  0  0
 46119  1  0  0  0
 47120  1  0  0  0
 47121  1  0  0  0
 48 56  1  0  0  0
 48 65  1  0  0  0
 48122  1  0  0  0
 49 50  1  0  0  0
 49 53  1  0  0  0
 49 64  1  0  0  0
 49123  1  0  0  0
 50 51  1  0  0  0
 50124  1  0  0  0
 50125  1  0  0  0
 51 52  1  0  0  0
 51126  1  0  0  0
 51127  1  0  0  0
 52128  1  0  0  0
 52129  1  0  0  0
 53 54  1  0  0  0
 54 55  2  0  0  0
 54130  1  0  0  0
 55 57  1  0  0  0
 55131  1  0  0  0
 56 69  2  0  0  0
 57 58  2  0  0  0
 57132  1  0  0  0
 58133  1  0  0  0
 59 60  1  0  0  0
 59 61  1  0  0  0
 59 62  1  0  0  0
 60134  1  0  0  0
 60135  1  0  0  0
 60136  1  0  0  0
 61137  1  0  0  0
 61138  1  0  0  0
 61139  1  0  0  0
 62140  1  0  0  0
 62141  1  0  0  0
 62142  1  0  0  0
 63 65  1  0  0  0
 63143  1  0  0  0
 63144  1  0  0  0
 63145  1  0  0  0
 64146  1  0  0  0
 65147  1  0  0  0
 68 84  1  0  0  0
 71 72  2  0  0  0
 71 73  1  0  0  0
 71148  1  0  0  0
 72 74  1  0  0  0
 72149  1  0  0  0
 73 75  2  0  0  0
 73150  1  0  0  0
 74 76  2  0  0  0
 74 79  1  0  0  0
 75 76  1  0  0  0
 75 85  1  0  0  0
 76 88  1  0  0  0
 77151  1  0  0  0
 77152  1  0  0  0
 77153  1  0  0  0
 77 84  1  0  0  0
 78 86  1  0  0  0
 78154  1  0  0  0
 78155  1  0  0  0
 78156  1  0  0  0
 79 80  1  0  0  0
 79157  1  0  0  0
 79158  1  0  0  0
 80 87  1  0  0  0
 80159  1  0  0  0
 80160  1  0  0  0
 81 83  1  0  0  0
 81 86  1  0  0  0
 81161  1  0  0  0
 81162  1  0  0  0
 82 84  1  0  0  0
 82 87  1  0  0  0
 82163  1  0  0  0
 82164  1  0  0  0
 83 88  1  0  0  0
 83165  1  0  0  0
 83166  1  0  0  0
 84167  1  0  0  0
 85168  1  0  0  0
 86169  1  0  0  0
 86170  1  0  0  0
 87171  1  0  0  0
 87172  1  0  0  0
M  CHG  2  86   1  87   1
M  ISO  4   1 100  68 101  84 101  85 100
M  END
> <chiral flag>
0

> <version>
0

> <s_m_source_file>
/data/baiqing/PycharmProjects/Reinvent-master-3.2/result/LINK_invent/BTK/process_docking_weight1_custom_sum_contain_oxygen_bond_distance_aromatic_linkinvent_7_9_3/rearranged_h_0138.sdf

> <i_m_source_file_index>
38

> <r_mmod_Potential_Energy-OPLS-2005>
-315.202697753906

> <r_mmod_Stretch_Energy-OPLS-2005>
53.4693832397461

> <r_mmod_Bend_Energy-OPLS-2005>
109.170272827148

> <r_mmod_Torsional_Energy-OPLS-2005>
305.127166748047

> <r_mmod_Improper_Torsional_Energy-OPLS-2005>
10.7352924346924

> <r_mmod_Van_der_Waal_Energy-OPLS-2005>
146.817596435547

> <r_mmod_Electrostatic_Energy-OPLS-2005>
-93.0301895141602

> <r_mmod_Solvation_Energy-OPLS-2005>
-871.453918457031

> <b_mmod_Minimization_Converged-OPLS-2005>
0

> <r_mmod_RMS_Derivative-OPLS-2005>
3.29036569595337

$$$$
38
                    3D
 Structure written by MMmdl.
166174  0  0  1  0            999 V2000
  -30.6676  -14.4306   20.5858 C   0  0  0  0  0  0
  -30.4292  -12.2850   19.4090 C   0  0  0  0  0  0
  -29.4948  -12.5042   18.1990 C   0  0  0  0  0  0
  -28.0121  -12.3740   18.6070 C   0  0  0  0  0  0
  -27.6639  -13.1921   19.8787 C   0  0  2  0  0  0
  -28.7010  -12.9217   20.9931 C   0  0  0  0  0  0
  -25.2597  -13.8135   20.5660 C   0  0  0  0  0  0
  -24.1835  -13.0430   20.9161 C   0  0  0  0  0  0
  -24.6364  -11.6890   20.8705 C   0  0  0  0  0  0
  -23.9020  -10.4288   21.0372 C   0  0  0  0  0  0
  -24.3583   -9.4212   21.9153 C   0  0  0  0  0  0
  -23.6274   -8.2241   22.0737 C   0  0  0  0  0  0
  -22.4258   -8.0265   21.3531 C   0  0  0  0  0  0
  -21.9874   -9.0229   20.4632 C   0  0  0  0  0  0
  -22.7186  -10.2117   20.3031 C   0  0  0  0  0  0
  -21.6849   -6.0716   22.5265 C   0  0  0  0  0  0
  -21.4018   -6.5625   23.8198 C   0  0  0  0  0  0
  -21.3659   -5.6780   24.9158 C   0  0  0  0  0  0
  -21.6043   -4.3043   24.7210 C   0  0  0  0  0  0
  -21.8825   -3.8134   23.4336 C   0  0  0  0  0  0
  -21.9201   -4.6949   22.3390 C   0  0  0  0  0  0
  -22.7860  -13.5240   21.1838 C   0  0  0  0  0  0
  -22.1666   -4.2134   21.0968 F   0  0  0  0  0  0
  -21.5627   -3.4529   25.7729 F   0  0  0  0  0  0
  -30.0365  -13.2370   20.4548 N   0  0  0  0  0  0
  -26.3011  -12.9268   20.3349 N   0  0  0  0  0  0
  -25.9283  -11.6439   20.5722 N   0  0  0  0  0  0
  -22.0515  -12.8225   22.0401 N   0  0  0  0  0  0
  -25.4365  -15.1851   20.4069 N   0  0  0  0  0  0
  -31.7754  -14.6765   20.0981 O   0  0  0  0  0  0
  -21.6630   -6.8857   21.4228 O   0  0  0  0  0  0
  -22.3533  -14.5538   20.6678 O   0  0  0  0  0  0
  -24.6078  -31.8703   23.2128 C   0  0  0  0  0  0
  -25.8988  -32.4854   23.8416 C   0  0  1  0  0  0
  -27.2502  -27.4756   20.1173 C   0  0  0  0  0  0
  -25.5863  -33.8637   24.2348 N   0  0  0  0  0  0
  -23.3991  -30.4923   21.5455 C   0  0  2  0  0  0
  -24.8539  -28.9590   20.1157 C   0  0  0  0  0  0
  -22.7392  -29.4697   22.4971 C   0  0  0  0  0  0
  -18.0307  -28.1413   22.8506 C   0  0  0  0  0  0
  -24.1484  -36.7322   23.2640 C   0  0  0  0  0  0
  -25.9187  -30.8544   21.3553 C   0  0  0  0  0  0
  -26.0044  -29.4862   20.7163 C   0  0  0  0  0  0
  -27.2047  -28.7494   20.7206 C   0  0  0  0  0  0
  -26.0910  -26.9558   19.5020 C   0  0  0  0  0  0
  -24.8895  -27.6909   19.5059 C   0  0  0  0  0  0
  -23.6107  -29.8185   20.1623 C   0  0  0  0  0  0
  -25.4093  -36.3123   24.0354 C   0  0  1  0  0  0
  -20.5887  -28.3691   23.1328 C   0  0  2  0  0  0
  -20.6789  -26.9419   22.5433 C   0  0  0  0  0  0
  -19.5749  -26.6416   21.5236 C   0  0  0  0  0  0
  -18.1935  -26.7964   22.1649 C   0  0  0  0  0  0
  -19.1549  -28.8870   23.2934 C   0  0  0  0  0  0
  -18.9482  -30.1490   23.8926 C   0  0  0  0  0  0
  -17.6469  -30.6621   24.0597 C   0  0  0  0  0  0
  -25.9010  -34.9492   23.5149 C   0  0  0  0  0  0
  -16.5368  -29.9132   23.6330 C   0  0  0  0  0  0
  -16.7296  -28.6558   23.0338 C   0  0  0  0  0  0
  -26.4422  -31.6619   25.0714 C   0  0  0  0  0  0
  -25.3706  -31.3723   26.1490 C   0  0  0  0  0  0
  -27.0245  -30.3069   24.6044 C   0  0  0  0  0  0
  -27.6029  -32.4301   25.7468 C   0  0  0  0  0  0
  -27.5578  -37.1817   24.8467 C   0  0  0  0  0  0
  -21.4139  -29.3040   22.3704 N   0  0  0  0  0  0
  -26.4291  -37.3793   23.9419 N   0  0  0  0  0  0
  -24.6596  -31.0866   22.0984 N   0  0  0  0  0  0
  -23.4161  -28.8286   23.3059 O   0  0  0  0  0  0
  -28.4094  -26.7446   20.0766 O   0  0  0  0  0  0
  -26.5578  -34.8945   22.4703 O   0  0  0  0  0  0
  -23.5287  -32.1436   23.7557 O   0  0  0  0  0  0
  -29.0058  -19.8757   22.1597 C   0  0  0  0  0  0
  -29.0085  -21.2600   21.9039 C   0  0  0  0  0  0
  -31.3773  -21.1434   21.3886 C   0  0  0  0  0  0
  -30.1800  -19.1062   22.0064 C   0  0  0  0  0  0
  -31.3905  -19.7495   21.6276 C   0  0  0  0  0  0
  -30.1941  -21.9029   21.4856 C   0  0  0  0  0  0
  -33.6976  -19.3250   22.5775 C   0  0  0  0  0  0
  -33.3188  -19.1880   20.0615 C   0  0  0  0  0  0
  -30.0911  -17.6022   22.2374 C   0  0  0  0  0  0
  -28.5049  -24.8938   21.6348 C   0  0  0  0  0  0
  -30.0355  -16.8232   20.9112 C   0  0  0  0  0  0
  -28.9336  -26.3459   21.3473 C   0  0  0  0  0  0
  -29.0973  -23.8766   20.6397 C   0  0  0  0  0  0
  -32.7067  -18.9819   21.4581 C   0  0  0  0  0  0
  -29.8998  -15.3861   21.1264 N   0  0  0  0  0  0
  -30.2675  -23.2416   21.1625 O   0  0  0  0  0  0
  -31.4719  -12.4076   19.1088 H   0  0  0  0  0  0
  -30.3454  -11.2639   19.7844 H   0  0  0  0  0  0
  -29.7302  -11.7874   17.4105 H   0  0  0  0  0  0
  -29.6704  -13.4935   17.7734 H   0  0  0  0  0  0
  -27.8089  -11.3169   18.7790 H   0  0  0  0  0  0
  -27.3670  -12.6752   17.7807 H   0  0  0  0  0  0
  -27.7214  -14.2451   19.6036 H   0  0  0  0  0  0
  -28.6725  -11.8720   21.2869 H   0  0  0  0  0  0
  -28.4607  -13.4777   21.9004 H   0  0  0  0  0  0
  -25.2734   -9.5692   22.4705 H   0  0  0  0  0  0
  -23.9996   -7.4627   22.7444 H   0  0  0  0  0  0
  -21.0809   -8.8712   19.8932 H   0  0  0  0  0  0
  -22.3624  -10.9633   19.6124 H   0  0  0  0  0  0
  -21.2011   -7.6135   23.9691 H   0  0  0  0  0  0
  -21.1475   -6.0511   25.9059 H   0  0  0  0  0  0
  -22.0611   -2.7599   23.2828 H   0  0  0  0  0  0
  -22.4146  -11.9893   22.4792 H   0  0  0  0  0  0
  -21.1122  -13.1215   22.2608 H   0  0  0  0  0  0
  -24.6730  -15.8451   20.5066 H   0  0  0  0  0  0
  -26.2919  -15.6158   20.0792 H   0  0  0  0  0  0
  -26.7059  -32.5593   23.1196 H   0  0  0  0  0  0
  -24.9978  -33.9805   25.0475 H   0  0  0  0  0  0
  -22.6862  -31.3075   21.4026 H   0  0  0  0  0  0
  -23.3744  -35.9661   23.3331 H   0  0  0  0  0  0
  -24.3583  -36.8906   22.2048 H   0  0  0  0  0  0
  -23.7258  -37.6547   23.6622 H   0  0  0  0  0  0
  -26.0158  -31.6158   20.5790 H   0  0  0  0  0  0
  -26.8125  -30.9236   21.9646 H   0  0  0  0  0  0
  -28.0939  -29.1653   21.1764 H   0  0  0  0  0  0
  -26.1277  -25.9852   19.0263 H   0  0  0  0  0  0
  -24.0048  -27.2832   19.0364 H   0  0  0  0  0  0
  -23.7188  -30.5890   19.3983 H   0  0  0  0  0  0
  -22.7383  -29.2324   19.8691 H   0  0  0  0  0  0
  -25.1273  -36.1973   25.0849 H   0  0  0  0  0  0
  -21.0036  -28.3270   24.1433 H   0  0  0  0  0  0
  -20.5710  -26.2297   23.3627 H   0  0  0  0  0  0
  -21.6657  -26.7462   22.1196 H   0  0  0  0  0  0
  -19.6879  -25.6338   21.1260 H   0  0  0  0  0  0
  -19.6700  -27.3250   20.6777 H   0  0  0  0  0  0
  -17.4208  -26.6770   21.4032 H   0  0  0  0  0  0
  -18.0310  -26.0121   22.9051 H   0  0  0  0  0  0
  -19.7944  -30.7331   24.2283 H   0  0  0  0  0  0
  -17.5024  -31.6288   24.5232 H   0  0  0  0  0  0
  -15.5375  -30.3042   23.7638 H   0  0  0  0  0  0
  -15.8710  -28.0915   22.6964 H   0  0  0  0  0  0
  -24.5874  -30.7069   25.7841 H   0  0  0  0  0  0
  -24.8908  -32.2887   26.4929 H   0  0  0  0  0  0
  -25.8088  -30.8898   27.0240 H   0  0  0  0  0  0
  -26.2773  -29.6861   24.1079 H   0  0  0  0  0  0
  -27.4030  -29.7268   25.4480 H   0  0  0  0  0  0
  -27.8602  -30.4444   23.9174 H   0  0  0  0  0  0
  -27.2676  -33.3586   26.2096 H   0  0  0  0  0  0
  -28.3799  -32.6880   25.0259 H   0  0  0  0  0  0
  -28.0723  -31.8377   26.5331 H   0  0  0  0  0  0
  -28.2616  -38.0095   24.7493 H   0  0  0  0  0  0
  -28.1066  -36.2635   24.6309 H   0  0  0  0  0  0
  -27.2316  -37.1488   25.8880 H   0  0  0  0  0  0
  -20.9300  -29.8768   21.6925 H   0  0  0  0  0  0
  -26.0191  -38.2882   24.1403 H   0  0  0  0  0  0
  -28.0807  -19.4043   22.4633 H   0  0  0  0  0  0
  -28.0896  -21.8138   22.0300 H   0  0  0  0  0  0
  -32.2891  -21.6428   21.0951 H   0  0  0  0  0  0
  -33.2775  -19.0796   23.5533 H   0  0  0  0  0  0
  -33.9506  -20.3857   22.5823 H   0  0  0  0  0  0
  -34.6237  -18.7583   22.4699 H   0  0  0  0  0  0
  -32.6043  -18.9314   19.2779 H   0  0  0  0  0  0
  -34.1902  -18.5477   19.9222 H   0  0  0  0  0  0
  -33.6403  -20.2164   19.8951 H   0  0  0  0  0  0
  -29.1962  -17.3857   22.8221 H   0  0  0  0  0  0
  -30.9249  -17.2709   22.8564 H   0  0  0  0  0  0
  -27.4164  -24.8371   21.5951 H   0  0  0  0  0  0
  -28.7766  -24.6136   22.6529 H   0  0  0  0  0  0
  -30.8994  -17.0485   20.2852 H   0  0  0  0  0  0
  -29.1690  -17.1496   20.3334 H   0  0  0  0  0  0
  -30.0216  -26.4260   21.3312 H   0  0  0  0  0  0
  -28.6001  -26.9983   22.1581 H   0  0  0  0  0  0
  -29.3970  -24.3846   19.7230 H   0  0  0  0  0  0
  -28.3330  -23.1683   20.3172 H   0  0  0  0  0  0
  -32.5318  -17.9127   21.5383 H   0  0  0  0  0  0
  -29.0193  -15.0704   21.5076 H   0  0  0  0  0  0
  1 25  1  0  0  0
  1 30  2  0  0  0
  1 85  1  0  0  0
  2  3  1  0  0  0
  2 25  1  0  0  0
  2 87  1  0  0  0
  2 88  1  0  0  0
  3  4  1  0  0  0
  3 89  1  0  0  0
  3 90  1  0  0  0
  4  5  1  0  0  0
  4 91  1  0  0  0
  4 92  1  0  0  0
  5  6  1  0  0  0
  5 26  1  0  0  0
  5 93  1  0  0  0
  6 25  1  0  0  0
  6 94  1  0  0  0
  6 95  1  0  0  0
  7  8  2  0  0  0
  7 26  1  0  0  0
  7 29  1  0  0  0
  8  9  1  0  0  0
  8 22  1  0  0  0
  9 10  1  0  0  0
  9 27  2  0  0  0
 10 11  2  0  0  0
 10 15  1  0  0  0
 11 12  1  0  0  0
 11 96  1  0  0  0
 12 13  2  0  0  0
 12 97  1  0  0  0
 13 14  1  0  0  0
 13 31  1  0  0  0
 14 15  2  0  0  0
 14 98  1  0  0  0
 15 99  1  0  0  0
 16 17  2  0  0  0
 16 21  1  0  0  0
 16 31  1  0  0  0
 17 18  1  0  0  0
 17100  1  0  0  0
 18 19  2  0  0  0
 18101  1  0  0  0
 19 20  1  0  0  0
 19 24  1  0  0  0
 20 21  2  0  0  0
 20102  1  0  0  0
 21 23  1  0  0  0
 22 28  1  0  0  0
 22 32  2  0  0  0
 26 27  1  0  0  0
 28103  1  0  0  0
 28104  1  0  0  0
 29105  1  0  0  0
 29106  1  0  0  0
 33 34  1  0  0  0
 33 66  1  0  0  0
 33 70  2  0  0  0
 34 36  1  0  0  0
 34 59  1  0  0  0
 34107  1  0  0  0
 35 44  2  0  0  0
 35 45  1  0  0  0
 35 68  1  0  0  0
 36 56  1  0  0  0
 36108  1  0  0  0
 37 39  1  0  0  0
 37 47  1  0  0  0
 37 66  1  0  0  0
 37109  1  0  0  0
 38 43  2  0  0  0
 38 46  1  0  0  0
 38 47  1  0  0  0
 39 64  1  0  0  0
 39 67  2  0  0  0
 40 52  1  0  0  0
 40 53  2  0  0  0
 40 58  1  0  0  0
 41110  1  0  0  0
 41111  1  0  0  0
 41112  1  0  0  0
 41 48  1  0  0  0
 42 43  1  0  0  0
 42 66  1  0  0  0
 42113  1  0  0  0
 42114  1  0  0  0
 43 44  1  0  0  0
 44115  1  0  0  0
 45 46  2  0  0  0
 45116  1  0  0  0
 46117  1  0  0  0
 47118  1  0  0  0
 47119  1  0  0  0
 48 56  1  0  0  0
 48 65  1  0  0  0
 48120  1  0  0  0
 49 50  1  0  0  0
 49 53  1  0  0  0
 49 64  1  0  0  0
 49121  1  0  0  0
 50 51  1  0  0  0
 50122  1  0  0  0
 50123  1  0  0  0
 51 52  1  0  0  0
 51124  1  0  0  0
 51125  1  0  0  0
 52126  1  0  0  0
 52127  1  0  0  0
 53 54  1  0  0  0
 54 55  2  0  0  0
 54128  1  0  0  0
 55 57  1  0  0  0
 55129  1  0  0  0
 56 69  2  0  0  0
 57 58  2  0  0  0
 57130  1  0  0  0
 58131  1  0  0  0
 59 60  1  0  0  0
 59 61  1  0  0  0
 59 62  1  0  0  0
 60132  1  0  0  0
 60133  1  0  0  0
 60134  1  0  0  0
 61135  1  0  0  0
 61136  1  0  0  0
 61137  1  0  0  0
 62138  1  0  0  0
 62139  1  0  0  0
 62140  1  0  0  0
 63 65  1  0  0  0
 63141  1  0  0  0
 63142  1  0  0  0
 63143  1  0  0  0
 64144  1  0  0  0
 65145  1  0  0  0
 68 82  1  0  0  0
 71 72  2  0  0  0
 71 74  1  0  0  0
 71146  1  0  0  0
 72 76  1  0  0  0
 72147  1  0  0  0
 73 75  1  0  0  0
 73 76  2  0  0  0
 73148  1  0  0  0
 74 75  2  0  0  0
 74 79  1  0  0  0
 75 84  1  0  0  0
 76 86  1  0  0  0
 77149  1  0  0  0
 77150  1  0  0  0
 77151  1  0  0  0
 77 84  1  0  0  0
 78 84  1  0  0  0
 78152  1  0  0  0
 78153  1  0  0  0
 78154  1  0  0  0
 79 81  1  0  0  0
 79155  1  0  0  0
 79156  1  0  0  0
 80 82  1  0  0  0
 80 83  1  0  0  0
 80157  1  0  0  0
 80158  1  0  0  0
 81 85  1  0  0  0
 81159  1  0  0  0
 81160  1  0  0  0
 82161  1  0  0  0
 82162  1  0  0  0
 83 86  1  0  0  0
 83163  1  0  0  0
 83164  1  0  0  0
 84165  1  0  0  0
 85166  1  0  0  0
M  ISO  4   1 100  68 101  82 101  85 100
M  END
> <chiral flag>
0

> <version>
0

> <s_m_source_file>
/data/baiqing/PycharmProjects/Reinvent-master-3.2/result/LINK_invent/BTK/process_docking_weight1_custom_sum_contain_oxygen_bond_distance_aromatic_linkinvent_7_9_3/rearranged_h_0138.sdf

> <i_m_source_file_index>
39

> <r_mmod_Potential_Energy-OPLS-2005>
-79.8884735107422

> <r_mmod_Stretch_Energy-OPLS-2005>
33.65087890625

> <r_mmod_Bend_Energy-OPLS-2005>
94.9192810058594

> <r_mmod_Torsional_Energy-OPLS-2005>
237.276016235352

> <r_mmod_Improper_Torsional_Energy-OPLS-2005>
5.14127349853516

> <r_mmod_Van_der_Waal_Energy-OPLS-2005>
159.53271484375

> <r_mmod_Electrostatic_Energy-OPLS-2005>
-413.002075195312

> <r_mmod_Solvation_Energy-OPLS-2005>
-206.167190551758

> <b_mmod_Minimization_Converged-OPLS-2005>
0

> <r_mmod_RMS_Derivative-OPLS-2005>
3.03926515579224

$$$$
39
                    3D
 Structure written by MMmdl.
166175  0  0  1  0            999 V2000
  -30.7201  -14.4168   20.6014 C   0  0  0  0  0  0
  -30.4089  -12.2797   19.4170 C   0  0  0  0  0  0
  -29.4924  -12.5214   18.2014 C   0  0  0  0  0  0
  -28.0085  -12.4009   18.6030 C   0  0  0  0  0  0
  -27.6633  -13.2105   19.8835 C   0  0  2  0  0  0
  -28.7013  -12.9581   20.9999 C   0  0  0  0  0  0
  -25.2582  -13.8164   20.5673 C   0  0  0  0  0  0
  -24.1838  -13.0435   20.9187 C   0  0  0  0  0  0
  -24.6397  -11.6911   20.8731 C   0  0  0  0  0  0
  -23.9057  -10.4291   21.0401 C   0  0  0  0  0  0
  -24.3613   -9.4203   21.9176 C   0  0  0  0  0  0
  -23.6292   -8.2238   22.0744 C   0  0  0  0  0  0
  -22.4270   -8.0274   21.3536 C   0  0  0  0  0  0
  -21.9904   -9.0252   20.4642 C   0  0  0  0  0  0
  -22.7232  -10.2134   20.3049 C   0  0  0  0  0  0
  -21.6850   -6.0725   22.5274 C   0  0  0  0  0  0
  -21.4016   -6.5631   23.8208 C   0  0  0  0  0  0
  -21.3672   -5.6789   24.9171 C   0  0  0  0  0  0
  -21.6045   -4.3050   24.7229 C   0  0  0  0  0  0
  -21.8821   -3.8140   23.4349 C   0  0  0  0  0  0
  -21.9190   -4.6954   22.3404 C   0  0  0  0  0  0
  -22.7858  -13.5229   21.1845 C   0  0  0  0  0  0
  -22.1657   -4.2133   21.0982 F   0  0  0  0  0  0
  -21.5634   -3.4539   25.7744 F   0  0  0  0  0  0
  -30.0336  -13.2547   20.4539 N   0  0  0  0  0  0
  -26.3024  -12.9351   20.3381 N   0  0  0  0  0  0
  -25.9325  -11.6500   20.5757 N   0  0  0  0  0  0
  -22.0498  -12.8210   22.0393 N   0  0  0  0  0  0
  -25.4288  -15.1880   20.4040 N   0  0  0  0  0  0
  -31.8275  -14.6032   20.0895 O   0  0  0  0  0  0
  -21.6639   -6.8871   21.4235 O   0  0  0  0  0  0
  -22.3554  -14.5552   20.6718 O   0  0  0  0  0  0
  -24.6118  -31.8713   23.2137 C   0  0  0  0  0  0
  -25.9026  -32.4847   23.8417 C   0  0  1  0  0  0
  -27.2424  -27.4674   20.0763 C   0  0  0  0  0  0
  -25.5907  -33.8643   24.2332 N   0  0  0  0  0  0
  -23.3990  -30.4921   21.5542 C   0  0  2  0  0  0
  -24.8434  -28.9509   20.1278 C   0  0  0  0  0  0
  -22.7390  -29.4672   22.5036 C   0  0  0  0  0  0
  -18.0258  -28.1420   22.8494 C   0  0  0  0  0  0
  -24.1477  -36.7320   23.2637 C   0  0  0  0  0  0
  -25.9264  -30.8358   21.3703 C   0  0  0  0  0  0
  -26.0007  -29.4714   20.7203 C   0  0  0  0  0  0
  -27.1998  -28.7333   20.6950 C   0  0  0  0  0  0
  -26.0683  -26.9453   19.4900 C   0  0  0  0  0  0
  -24.8694  -27.6836   19.5165 C   0  0  0  0  0  0
  -23.6070  -29.8183   20.1712 C   0  0  0  0  0  0
  -25.4106  -36.3128   24.0337 C   0  0  1  0  0  0
  -20.5839  -28.3689   23.1348 C   0  0  2  0  0  0
  -20.6739  -26.9433   22.5432 C   0  0  0  0  0  0
  -19.5724  -26.6430   21.5219 C   0  0  0  0  0  0
  -18.1907  -26.7981   22.1622 C   0  0  0  0  0  0
  -19.1508  -28.8879   23.2923 C   0  0  0  0  0  0
  -18.9432  -30.1483   23.8936 C   0  0  0  0  0  0
  -17.6430  -30.6606   24.0600 C   0  0  0  0  0  0
  -25.9031  -34.9482   23.5126 C   0  0  0  0  0  0
  -16.5321  -29.9115   23.6339 C   0  0  0  0  0  0
  -16.7247  -28.6542   23.0348 C   0  0  0  0  0  0
  -26.4434  -31.6660   25.0768 C   0  0  0  0  0  0
  -25.3678  -31.3868   26.1530 C   0  0  0  0  0  0
  -27.0210  -30.3053   24.6215 C   0  0  0  0  0  0
  -27.6030  -32.4382   25.7492 C   0  0  0  0  0  0
  -27.5592  -37.1820   24.8440 C   0  0  0  0  0  0
  -21.4124  -29.3048   22.3767 N   0  0  0  0  0  0
  -26.4290  -37.3815   23.9409 N   0  0  0  0  0  0
  -24.6632  -31.0815   22.1034 N   0  0  0  0  0  0
  -23.4170  -28.8224   23.3076 O   0  0  0  0  0  0
  -28.4497  -26.8246   19.9764 O   0  0  0  0  0  0
  -26.5586  -34.8910   22.4683 O   0  0  0  0  0  0
  -23.5314  -32.1467   23.7533 O   0  0  0  0  0  0
  -29.0415  -23.2582   19.2927 C   0  0  0  0  0  0
  -28.7530  -24.6175   19.0789 C   0  0  0  0  0  0
  -28.5783  -24.9526   21.4804 C   0  0  0  0  0  0
  -29.1446  -22.7355   20.6027 C   0  0  0  0  0  0
  -28.8721  -23.5900   21.7072 C   0  0  0  0  0  0
  -28.5478  -25.4740   20.1757 C   0  0  0  0  0  0
  -31.0442  -21.0742   20.1643 C   0  0  0  0  0  0
  -31.1722  -19.5572   20.2609 C   0  0  0  0  0  0
  -28.8596  -20.1501   20.2015 C   0  0  0  0  0  0
  -29.6754  -21.3112   20.7907 C   0  0  2  0  0  0
  -28.9354  -23.1100   23.1497 C   0  0  0  0  0  0
  -31.4036  -16.9622   22.5919 C   0  0  0  0  0  0
  -29.4647  -17.8928   21.1588 C   0  0  0  0  0  0
  -30.5811  -16.8043   21.2913 C   0  0  2  0  0  0
  -30.0741  -15.4181   21.2312 N   0  0  0  0  0  0
  -29.7942  -18.9920   20.1929 N   0  3  2  0  0  0
  -31.4589  -12.3500   19.1265 H   0  0  0  0  0  0
  -30.2760  -11.2638   19.7924 H   0  0  0  0  0  0
  -29.7227  -11.8140   17.4032 H   0  0  0  0  0  0
  -29.6830  -13.5149   17.7924 H   0  0  0  0  0  0
  -27.7868  -11.3444   18.7565 H   0  0  0  0  0  0
  -27.3734  -12.7257   17.7779 H   0  0  0  0  0  0
  -27.7171  -14.2658   19.6170 H   0  0  0  0  0  0
  -28.6654  -11.9133   21.3126 H   0  0  0  0  0  0
  -28.4725  -13.5372   21.8955 H   0  0  0  0  0  0
  -25.2769   -9.5669   22.4737 H   0  0  0  0  0  0
  -24.0006   -7.4620   22.7453 H   0  0  0  0  0  0
  -21.0832   -8.8774   19.8947 H   0  0  0  0  0  0
  -22.3697  -10.9668   19.6149 H   0  0  0  0  0  0
  -21.2010   -7.6140   23.9703 H   0  0  0  0  0  0
  -21.1493   -6.0523   25.9073 H   0  0  0  0  0  0
  -22.0592   -2.7600   23.2859 H   0  0  0  0  0  0
  -22.4103  -11.9844   22.4746 H   0  0  0  0  0  0
  -21.1115  -13.1238   22.2601 H   0  0  0  0  0  0
  -24.6554  -15.8391   20.4832 H   0  0  0  0  0  0
  -26.2674  -15.6139   20.0324 H   0  0  0  0  0  0
  -26.7119  -32.5534   23.1196 H   0  0  0  0  0  0
  -25.0090  -33.9837   25.0494 H   0  0  0  0  0  0
  -22.6856  -31.3072   21.4147 H   0  0  0  0  0  0
  -23.3740  -35.9659   23.3317 H   0  0  0  0  0  0
  -24.3558  -36.8899   22.2044 H   0  0  0  0  0  0
  -23.7212  -37.6521   23.6639 H   0  0  0  0  0  0
  -26.0473  -31.6007   20.6041 H   0  0  0  0  0  0
  -26.8106  -30.8820   21.9953 H   0  0  0  0  0  0
  -28.1035  -29.1410   21.1276 H   0  0  0  0  0  0
  -26.0884  -25.9869   18.9913 H   0  0  0  0  0  0
  -23.9797  -27.2807   19.0523 H   0  0  0  0  0  0
  -23.7191  -30.5890   19.4070 H   0  0  0  0  0  0
  -22.7303  -29.2367   19.8781 H   0  0  0  0  0  0
  -25.1278  -36.2001   25.0834 H   0  0  0  0  0  0
  -20.9940  -28.3258   24.1470 H   0  0  0  0  0  0
  -20.5642  -26.2299   23.3608 H   0  0  0  0  0  0
  -21.6622  -26.7487   22.1246 H   0  0  0  0  0  0
  -19.6865  -25.6349   21.1244 H   0  0  0  0  0  0
  -19.6686  -27.3250   20.6758 H   0  0  0  0  0  0
  -17.4193  -26.6789   21.3996 H   0  0  0  0  0  0
  -18.0274  -26.0100   22.8980 H   0  0  0  0  0  0
  -19.7890  -30.7314   24.2321 H   0  0  0  0  0  0
  -17.4969  -31.6286   24.5216 H   0  0  0  0  0  0
  -15.5327  -30.3037   23.7627 H   0  0  0  0  0  0
  -15.8650  -28.0877   22.7032 H   0  0  0  0  0  0
  -24.5816  -30.7230   25.7918 H   0  0  0  0  0  0
  -24.8910  -32.3067   26.4914 H   0  0  0  0  0  0
  -25.8004  -30.9098   27.0327 H   0  0  0  0  0  0
  -26.2780  -29.6921   24.1103 H   0  0  0  0  0  0
  -27.3682  -29.7226   25.4754 H   0  0  0  0  0  0
  -27.8766  -30.4284   23.9576 H   0  0  0  0  0  0
  -27.2671  -33.3676   26.2103 H   0  0  0  0  0  0
  -28.3809  -32.6956   25.0295 H   0  0  0  0  0  0
  -28.0753  -31.8497   26.5364 H   0  0  0  0  0  0
  -28.2621  -38.0113   24.7507 H   0  0  0  0  0  0
  -28.1080  -36.2643   24.6236 H   0  0  0  0  0  0
  -27.2337  -37.1444   25.8851 H   0  0  0  0  0  0
  -20.9296  -29.8754   21.6965 H   0  0  0  0  0  0
  -26.0176  -38.2889   24.1421 H   0  0  0  0  0  0
  -29.2469  -22.6314   18.4370 H   0  0  0  0  0  0
  -28.7421  -25.0111   18.0722 H   0  0  0  0  0  0
  -28.4310  -25.6242   22.3149 H   0  0  0  0  0  0
  -31.0675  -21.3732   19.1160 H   0  0  0  0  0  0
  -31.8470  -21.6038   20.6782 H   0  0  0  0  0  0
  -31.6381  -19.3429   21.2148 H   0  0  0  0  0  0
  -31.8188  -19.1543   19.4814 H   0  0  0  0  0  0
  -28.5944  -20.3635   19.1641 H   0  0  0  0  0  0
  -27.9303  -19.9609   20.7380 H   0  0  0  0  0  0
  -29.7821  -21.1052   21.8534 H   0  0  0  0  0  0
  -28.4921  -23.8418   23.8254 H   0  0  0  0  0  0
  -29.9686  -22.9571   23.4617 H   0  0  0  0  0  0
  -28.3865  -22.1784   23.2862 H   0  0  0  0  0  0
  -31.7839  -17.9699   22.7396 H   0  0  0  0  0  0
  -32.2742  -16.3072   22.5880 H   0  0  0  0  0  0
  -30.8185  -16.7251   23.4805 H   0  0  0  0  0  0
  -29.2740  -18.3380   22.1377 H   0  0  0  0  0  0
  -28.5146  -17.4459   20.8605 H   0  0  0  0  0  0
  -31.2567  -16.9394   20.4469 H   0  0  0  0  0  0
  -29.1636  -15.2097   21.6135 H   0  0  0  0  0  0
  -29.6989  -18.5810   19.2751 H   0  0  0  0  0  0
  1 25  1  0  0  0
  1 30  2  0  0  0
  1 85  1  0  0  0
  2  3  1  0  0  0
  2 25  1  0  0  0
  2 87  1  0  0  0
  2 88  1  0  0  0
  3  4  1  0  0  0
  3 89  1  0  0  0
  3 90  1  0  0  0
  4  5  1  0  0  0
  4 91  1  0  0  0
  4 92  1  0  0  0
  5  6  1  0  0  0
  5 26  1  0  0  0
  5 93  1  0  0  0
  6 25  1  0  0  0
  6 94  1  0  0  0
  6 95  1  0  0  0
  7  8  2  0  0  0
  7 26  1  0  0  0
  7 29  1  0  0  0
  8  9  1  0  0  0
  8 22  1  0  0  0
  9 10  1  0  0  0
  9 27  2  0  0  0
 10 11  2  0  0  0
 10 15  1  0  0  0
 11 12  1  0  0  0
 11 96  1  0  0  0
 12 13  2  0  0  0
 12 97  1  0  0  0
 13 14  1  0  0  0
 13 31  1  0  0  0
 14 15  2  0  0  0
 14 98  1  0  0  0
 15 99  1  0  0  0
 16 17  2  0  0  0
 16 21  1  0  0  0
 16 31  1  0  0  0
 17 18  1  0  0  0
 17100  1  0  0  0
 18 19  2  0  0  0
 18101  1  0  0  0
 19 20  1  0  0  0
 19 24  1  0  0  0
 20 21  2  0  0  0
 20102  1  0  0  0
 21 23  1  0  0  0
 22 28  1  0  0  0
 22 32  2  0  0  0
 26 27  1  0  0  0
 28103  1  0  0  0
 28104  1  0  0  0
 29105  1  0  0  0
 29106  1  0  0  0
 33 34  1  0  0  0
 33 66  1  0  0  0
 33 70  2  0  0  0
 34 36  1  0  0  0
 34 59  1  0  0  0
 34107  1  0  0  0
 35 44  2  0  0  0
 35 45  1  0  0  0
 35 68  1  0  0  0
 36 56  1  0  0  0
 36108  1  0  0  0
 37 39  1  0  0  0
 37 47  1  0  0  0
 37 66  1  0  0  0
 37109  1  0  0  0
 38 43  2  0  0  0
 38 46  1  0  0  0
 38 47  1  0  0  0
 39 64  1  0  0  0
 39 67  2  0  0  0
 40 52  1  0  0  0
 40 53  2  0  0  0
 40 58  1  0  0  0
 41110  1  0  0  0
 41111  1  0  0  0
 41112  1  0  0  0
 41 48  1  0  0  0
 42 43  1  0  0  0
 42 66  1  0  0  0
 42113  1  0  0  0
 42114  1  0  0  0
 43 44  1  0  0  0
 44115  1  0  0  0
 45 46  2  0  0  0
 45116  1  0  0  0
 46117  1  0  0  0
 47118  1  0  0  0
 47119  1  0  0  0
 48 56  1  0  0  0
 48 65  1  0  0  0
 48120  1  0  0  0
 49 50  1  0  0  0
 49 53  1  0  0  0
 49 64  1  0  0  0
 49121  1  0  0  0
 50 51  1  0  0  0
 50122  1  0  0  0
 50123  1  0  0  0
 51 52  1  0  0  0
 51124  1  0  0  0
 51125  1  0  0  0
 52126  1  0  0  0
 52127  1  0  0  0
 53 54  1  0  0  0
 54 55  2  0  0  0
 54128  1  0  0  0
 55 57  1  0  0  0
 55129  1  0  0  0
 56 69  2  0  0  0
 57 58  2  0  0  0
 57130  1  0  0  0
 58131  1  0  0  0
 59 60  1  0  0  0
 59 61  1  0  0  0
 59 62  1  0  0  0
 60132  1  0  0  0
 60133  1  0  0  0
 60134  1  0  0  0
 61135  1  0  0  0
 61136  1  0  0  0
 61137  1  0  0  0
 62138  1  0  0  0
 62139  1  0  0  0
 62140  1  0  0  0
 63 65  1  0  0  0
 63141  1  0  0  0
 63142  1  0  0  0
 63143  1  0  0  0
 64144  1  0  0  0
 65145  1  0  0  0
 68 76  1  0  0  0
 71 72  2  0  0  0
 71 74  1  0  0  0
 71146  1  0  0  0
 72 76  1  0  0  0
 72147  1  0  0  0
 73 75  1  0  0  0
 73 76  2  0  0  0
 73148  1  0  0  0
 74 75  2  0  0  0
 74 80  1  0  0  0
 75 81  1  0  0  0
 77 78  1  0  0  0
 77 80  1  0  0  0
 77149  1  0  0  0
 77150  1  0  0  0
 78 86  1  0  0  0
 78151  1  0  0  0
 78152  1  0  0  0
 79 80  1  0  0  0
 79 86  1  0  0  0
 79153  1  0  0  0
 79154  1  0  0  0
 80155  1  0  0  0
 81156  1  0  0  0
 81157  1  0  0  0
 81158  1  0  0  0
 82159  1  0  0  0
 82160  1  0  0  0
 82161  1  0  0  0
 82 84  1  0  0  0
 83 84  1  0  0  0
 83162  1  0  0  0
 83163  1  0  0  0
 83 86  1  0  0  0
 84 85  1  0  0  0
 84164  1  0  0  0
 85165  1  0  0  0
 86166  1  0  0  0
M  CHG  1  86   1
M  ISO  4   1 100  68 101  76 101  85 100
M  END
> <chiral flag>
0

> <version>
0

> <s_m_source_file>
/data/baiqing/PycharmProjects/Reinvent-master-3.2/result/LINK_invent/BTK/process_docking_weight1_custom_sum_contain_oxygen_bond_distance_aromatic_linkinvent_7_9_3/rearranged_h_0138.sdf

> <i_m_source_file_index>
40

> <r_mmod_Potential_Energy-OPLS-2005>
-91.0431900024414

> <r_mmod_Stretch_Energy-OPLS-2005>
36.7199859619141

> <r_mmod_Bend_Energy-OPLS-2005>
129.076248168945

> <r_mmod_Torsional_Energy-OPLS-2005>
294.329528808594

> <r_mmod_Improper_Torsional_Energy-OPLS-2005>
4.44242763519287

> <r_mmod_Van_der_Waal_Energy-OPLS-2005>
158.139541625977

> <r_mmod_Electrostatic_Energy-OPLS-2005>
-271.588928222656

> <r_mmod_Solvation_Energy-OPLS-2005>
-452.201385498047

> <b_mmod_Minimization_Converged-OPLS-2005>
0

> <r_mmod_RMS_Derivative-OPLS-2005>
3.37776303291321

$$$$
40
                    3D
 Structure written by MMmdl.
161170  0  0  1  0            999 V2000
  -30.6008  -14.7354   20.4544 C   0  0  0  0  0  0
  -30.4389  -12.4459   19.4701 C   0  0  0  0  0  0
  -29.5121  -12.5026   18.2355 C   0  0  0  0  0  0
  -28.0375  -12.3273   18.6495 C   0  0  0  0  0  0
  -27.6452  -13.2244   19.8535 C   0  0  2  0  0  0
  -28.6918  -13.1450   20.9877 C   0  0  0  0  0  0
  -25.2531  -13.8177   20.5682 C   0  0  0  0  0  0
  -24.1822  -13.0438   20.9227 C   0  0  0  0  0  0
  -24.6396  -11.6913   20.8761 C   0  0  0  0  0  0
  -23.9067  -10.4291   21.0410 C   0  0  0  0  0  0
  -24.3618   -9.4209   21.9182 C   0  0  0  0  0  0
  -23.6296   -8.2239   22.0748 C   0  0  0  0  0  0
  -22.4278   -8.0278   21.3541 C   0  0  0  0  0  0
  -21.9915   -9.0254   20.4640 C   0  0  0  0  0  0
  -22.7240  -10.2133   20.3057 C   0  0  0  0  0  0
  -21.6854   -6.0734   22.5279 C   0  0  0  0  0  0
  -21.4012   -6.5639   23.8212 C   0  0  0  0  0  0
  -21.3663   -5.6789   24.9175 C   0  0  0  0  0  0
  -21.6046   -4.3052   24.7224 C   0  0  0  0  0  0
  -21.8823   -3.8145   23.4346 C   0  0  0  0  0  0
  -21.9191   -4.6962   22.3403 C   0  0  0  0  0  0
  -22.7839  -13.5228   21.1870 C   0  0  0  0  0  0
  -22.1655   -4.2150   21.0980 F   0  0  0  0  0  0
  -21.5638   -3.4538   25.7738 F   0  0  0  0  0  0
  -29.9951  -13.4998   20.4089 N   0  0  0  0  0  0
  -26.2954  -12.9371   20.3286 N   0  0  0  0  0  0
  -25.9323  -11.6524   20.5757 N   0  0  0  0  0  0
  -22.0474  -12.8217   22.0416 N   0  0  0  0  0  0
  -25.4187  -15.1899   20.4024 N   0  0  0  0  0  0
  -31.7803  -14.8654   20.1172 O   0  0  0  0  0  0
  -21.6642   -6.8878   21.4239 O   0  0  0  0  0  0
  -22.3542  -14.5534   20.6707 O   0  0  0  0  0  0
  -24.6314  -31.8552   23.1977 C   0  0  0  0  0  0
  -25.9142  -32.4753   23.8325 C   0  0  1  0  0  0
  -27.2223  -27.2675   20.1213 C   0  0  0  0  0  0
  -25.5938  -33.8556   24.2250 N   0  0  0  0  0  0
  -23.4279  -30.4784   21.5411 C   0  0  2  0  0  0
  -24.8751  -28.9263   20.1095 C   0  0  0  0  0  0
  -22.7504  -29.4606   22.4907 C   0  0  0  0  0  0
  -18.0293  -28.1389   22.8484 C   0  0  0  0  0  0
  -24.1489  -36.7282   23.2638 C   0  0  0  0  0  0
  -25.9747  -30.7699   21.3774 C   0  0  0  0  0  0
  -26.0481  -29.3939   20.7165 C   0  0  0  0  0  0
  -27.2260  -28.5780   20.7088 C   0  0  0  0  0  0
  -26.0259  -26.8704   19.4826 C   0  0  0  0  0  0
  -24.8689  -27.6721   19.4819 C   0  0  0  0  0  0
  -23.6453  -29.8119   20.1578 C   0  0  0  0  0  0
  -25.4117  -36.3067   24.0323 C   0  0  1  0  0  0
  -20.5898  -28.3700   23.1265 C   0  0  2  0  0  0
  -20.6781  -26.9418   22.5403 C   0  0  0  0  0  0
  -19.5754  -26.6386   21.5208 C   0  0  0  0  0  0
  -18.1936  -26.7931   22.1623 C   0  0  0  0  0  0
  -19.1548  -28.8862   23.2870 C   0  0  0  0  0  0
  -18.9468  -30.1464   23.8886 C   0  0  0  0  0  0
  -17.6468  -30.6589   24.0563 C   0  0  0  0  0  0
  -25.9059  -34.9438   23.5086 C   0  0  0  0  0  0
  -16.5359  -29.9086   23.6334 C   0  0  0  0  0  0
  -16.7281  -28.6505   23.0354 C   0  0  0  0  0  0
  -26.4505  -31.6583   25.0720 C   0  0  0  0  0  0
  -25.3722  -31.3744   26.1437 C   0  0  0  0  0  0
  -27.0354  -30.2995   24.6222 C   0  0  0  0  0  0
  -27.6053  -32.4329   25.7497 C   0  0  0  0  0  0
  -27.5578  -37.1796   24.8463 C   0  0  0  0  0  0
  -21.4210  -29.3046   22.3654 N   0  0  0  0  0  0
  -26.4289  -37.3769   23.9408 N   0  0  0  0  0  0
  -24.6971  -31.0521   22.0950 N   0  0  0  0  0  0
  -23.4208  -28.8147   23.3006 O   0  0  0  0  0  0
  -28.3091  -26.3622   20.1765 O   0  0  0  0  0  0
  -26.5629  -34.8914   22.4654 O   0  0  0  0  0  0
  -23.5465  -32.1371   23.7279 O   0  0  0  0  0  0
  -27.4771  -21.7559   21.1722 C   0  0  0  0  0  0
  -29.3120  -20.8929   20.2258 C   0  0  0  0  0  0
  -28.6467  -22.1097   20.4611 C   0  0  0  0  0  0
  -27.4247  -20.3927   21.3281 C   0  0  0  0  0  0
  -28.2496  -24.2487   18.8931 C   0  0  0  0  0  0
  -28.9645  -23.6283   20.0734 C   0  0  1  0  0  0
  -27.9871  -24.8918   20.2357 C   0  0  1  0  0  0
  -26.0613  -20.0875   23.4339 C   0  0  0  0  0  0
  -28.7418  -18.2566   20.7945 C   0  0  0  0  0  0
  -30.0283  -17.3447   20.4805 C   0  0  0  0  0  0
  -26.2896  -19.6342   21.9821 C   0  0  1  0  0  0
  -28.5754  -19.7937   20.7731 N   0  0  0  0  0  0
  -29.7925  -15.8379   20.6680 N   0  0  0  0  0  0
  -25.0670  -19.7790   21.1790 N   0  3  0  0  0  0
  -31.4774  -12.5799   19.1638 H   0  0  0  0  0  0
  -30.3902  -11.4656   19.9472 H   0  0  0  0  0  0
  -29.7926  -11.7306   17.5175 H   0  0  0  0  0  0
  -29.6388  -13.4576   17.7234 H   0  0  0  0  0  0
  -27.8930  -11.2783   18.9109 H   0  0  0  0  0  0
  -27.3811  -12.5199   17.7999 H   0  0  0  0  0  0
  -27.6428  -14.2473   19.4775 H   0  0  0  0  0  0
  -28.7262  -12.1423   21.4175 H   0  0  0  0  0  0
  -28.4290  -13.8164   21.8061 H   0  0  0  0  0  0
  -25.2757   -9.5696   22.4759 H   0  0  0  0  0  0
  -24.0012   -7.4635   22.7466 H   0  0  0  0  0  0
  -21.0846   -8.8778   19.8940 H   0  0  0  0  0  0
  -22.3696  -10.9680   19.6175 H   0  0  0  0  0  0
  -21.1999   -7.6145   23.9723 H   0  0  0  0  0  0
  -21.1478   -6.0513   25.9080 H   0  0  0  0  0  0
  -22.0596   -2.7607   23.2847 H   0  0  0  0  0  0
  -22.4089  -11.9879   22.4802 H   0  0  0  0  0  0
  -21.1089  -13.1237   22.2605 H   0  0  0  0  0  0
  -24.6128  -15.8041   20.4278 H   0  0  0  0  0  0
  -26.2171  -15.5993   19.9363 H   0  0  0  0  0  0
  -26.7211  -32.5398   23.1070 H   0  0  0  0  0  0
  -25.0087  -33.9694   25.0396 H   0  0  0  0  0  0
  -22.7243  -31.3008   21.3947 H   0  0  0  0  0  0
  -23.3753  -35.9614   23.3295 H   0  0  0  0  0  0
  -24.3579  -36.8910   22.2053 H   0  0  0  0  0  0
  -23.7243  -37.6481   23.6666 H   0  0  0  0  0  0
  -26.1166  -31.5332   20.6112 H   0  0  0  0  0  0
  -26.8512  -30.8155   22.0123 H   0  0  0  0  0  0
  -28.1235  -28.9309   21.1972 H   0  0  0  0  0  0
  -25.9610  -25.9123   18.9879 H   0  0  0  0  0  0
  -23.9717  -27.3097   18.9986 H   0  0  0  0  0  0
  -23.7684  -30.5874   19.4010 H   0  0  0  0  0  0
  -22.7641  -29.2442   19.8530 H   0  0  0  0  0  0
  -25.1300  -36.1907   25.0816 H   0  0  0  0  0  0
  -20.9996  -28.3280   24.1384 H   0  0  0  0  0  0
  -20.5678  -26.2313   23.3609 H   0  0  0  0  0  0
  -21.6649  -26.7438   22.1197 H   0  0  0  0  0  0
  -19.6914  -25.6294   21.1242 H   0  0  0  0  0  0
  -19.6689  -27.3192   20.6734 H   0  0  0  0  0  0
  -17.4204  -26.6678   21.4029 H   0  0  0  0  0  0
  -18.0340  -26.0075   22.9020 H   0  0  0  0  0  0
  -19.7943  -30.7286   24.2247 H   0  0  0  0  0  0
  -17.5019  -31.6266   24.5167 H   0  0  0  0  0  0
  -15.5359  -30.2983   23.7663 H   0  0  0  0  0  0
  -15.8680  -28.0819   22.7074 H   0  0  0  0  0  0
  -24.5901  -30.7087   25.7768 H   0  0  0  0  0  0
  -24.8909  -32.2917   26.4835 H   0  0  0  0  0  0
  -25.8035  -30.8941   27.0228 H   0  0  0  0  0  0
  -26.2942  -29.6741   24.1235 H   0  0  0  0  0  0
  -27.4011  -29.7265   25.4752 H   0  0  0  0  0  0
  -27.8830  -30.4258   23.9485 H   0  0  0  0  0  0
  -27.2656  -33.3633   26.2054 H   0  0  0  0  0  0
  -28.3876  -32.6881   25.0338 H   0  0  0  0  0  0
  -28.0708  -31.8468   26.5430 H   0  0  0  0  0  0
  -28.2591  -38.0100   24.7517 H   0  0  0  0  0  0
  -28.1081  -36.2630   24.6280 H   0  0  0  0  0  0
  -27.2299  -37.1433   25.8868 H   0  0  0  0  0  0
  -20.9399  -29.8767   21.6855 H   0  0  0  0  0  0
  -26.0163  -38.2839   24.1417 H   0  0  0  0  0  0
  -26.7153  -22.4395   21.5209 H   0  0  0  0  0  0
  -30.2412  -20.7017   19.7046 H   0  0  0  0  0  0
  -27.4279  -23.6913   18.4491 H   0  0  0  0  0  0
  -28.8678  -24.7917   18.1812 H   0  0  0  0  0  0
  -30.0310  -23.8215   20.1705 H   0  0  0  0  0  0
  -27.0418  -24.7001   20.7402 H   0  0  0  0  0  0
  -26.9645  -19.9389   24.0263 H   0  0  0  0  0  0
  -25.2625  -19.5192   23.9101 H   0  0  0  0  0  0
  -25.8010  -21.1444   23.4933 H   0  0  0  0  0  0
  -28.5010  -17.9626   21.8157 H   0  0  0  0  0  0
  -27.9329  -17.8661   20.1756 H   0  0  0  0  0  0
  -30.3501  -17.5194   19.4530 H   0  0  0  0  0  0
  -30.8577  -17.6508   21.1200 H   0  0  0  0  0  0
  -26.4832  -18.5650   22.0117 H   0  0  0  0  0  0
  -28.8471  -15.5896   20.9177 H   0  0  0  0  0  0
  -24.7636  -20.7350   21.1605 H   0  0  0  0  0  0
  -24.3269  -19.2106   21.5503 H   0  0  0  0  0  0
  -25.2486  -19.4887   20.2350 H   0  0  0  0  0  0
  1 25  1  0  0  0
  1 30  2  0  0  0
  1 83  1  0  0  0
  2  3  1  0  0  0
  2 25  1  0  0  0
  2 85  1  0  0  0
  2 86  1  0  0  0
  3  4  1  0  0  0
  3 87  1  0  0  0
  3 88  1  0  0  0
  4  5  1  0  0  0
  4 89  1  0  0  0
  4 90  1  0  0  0
  5  6  1  0  0  0
  5 26  1  0  0  0
  5 91  1  0  0  0
  6 25  1  0  0  0
  6 92  1  0  0  0
  6 93  1  0  0  0
  7  8  2  0  0  0
  7 26  1  0  0  0
  7 29  1  0  0  0
  8  9  1  0  0  0
  8 22  1  0  0  0
  9 10  1  0  0  0
  9 27  2  0  0  0
 10 11  2  0  0  0
 10 15  1  0  0  0
 11 12  1  0  0  0
 11 94  1  0  0  0
 12 13  2  0  0  0
 12 95  1  0  0  0
 13 14  1  0  0  0
 13 31  1  0  0  0
 14 15  2  0  0  0
 14 96  1  0  0  0
 15 97  1  0  0  0
 16 17  2  0  0  0
 16 21  1  0  0  0
 16 31  1  0  0  0
 17 18  1  0  0  0
 17 98  1  0  0  0
 18 19  2  0  0  0
 18 99  1  0  0  0
 19 20  1  0  0  0
 19 24  1  0  0  0
 20 21  2  0  0  0
 20100  1  0  0  0
 21 23  1  0  0  0
 22 28  1  0  0  0
 22 32  2  0  0  0
 26 27  1  0  0  0
 28101  1  0  0  0
 28102  1  0  0  0
 29103  1  0  0  0
 29104  1  0  0  0
 33 34  1  0  0  0
 33 66  1  0  0  0
 33 70  2  0  0  0
 34 36  1  0  0  0
 34 59  1  0  0  0
 34105  1  0  0  0
 35 44  2  0  0  0
 35 45  1  0  0  0
 35 68  1  0  0  0
 36 56  1  0  0  0
 36106  1  0  0  0
 37 39  1  0  0  0
 37 47  1  0  0  0
 37 66  1  0  0  0
 37107  1  0  0  0
 38 43  2  0  0  0
 38 46  1  0  0  0
 38 47  1  0  0  0
 39 64  1  0  0  0
 39 67  2  0  0  0
 40 52  1  0  0  0
 40 53  2  0  0  0
 40 58  1  0  0  0
 41108  1  0  0  0
 41109  1  0  0  0
 41110  1  0  0  0
 41 48  1  0  0  0
 42 43  1  0  0  0
 42 66  1  0  0  0
 42111  1  0  0  0
 42112  1  0  0  0
 43 44  1  0  0  0
 44113  1  0  0  0
 45 46  2  0  0  0
 45114  1  0  0  0
 46115  1  0  0  0
 47116  1  0  0  0
 47117  1  0  0  0
 48 56  1  0  0  0
 48 65  1  0  0  0
 48118  1  0  0  0
 49 50  1  0  0  0
 49 53  1  0  0  0
 49 64  1  0  0  0
 49119  1  0  0  0
 50 51  1  0  0  0
 50120  1  0  0  0
 50121  1  0  0  0
 51 52  1  0  0  0
 51122  1  0  0  0
 51123  1  0  0  0
 52124  1  0  0  0
 52125  1  0  0  0
 53 54  1  0  0  0
 54 55  2  0  0  0
 54126  1  0  0  0
 55 57  1  0  0  0
 55127  1  0  0  0
 56 69  2  0  0  0
 57 58  2  0  0  0
 57128  1  0  0  0
 58129  1  0  0  0
 59 60  1  0  0  0
 59 61  1  0  0  0
 59 62  1  0  0  0
 60130  1  0  0  0
 60131  1  0  0  0
 60132  1  0  0  0
 61133  1  0  0  0
 61134  1  0  0  0
 61135  1  0  0  0
 62136  1  0  0  0
 62137  1  0  0  0
 62138  1  0  0  0
 63 65  1  0  0  0
 63139  1  0  0  0
 63140  1  0  0  0
 63141  1  0  0  0
 64142  1  0  0  0
 65143  1  0  0  0
 68 77  1  0  0  0
 71 73  1  0  0  0
 71 74  2  0  0  0
 71144  1  0  0  0
 72 73  2  0  0  0
 72 82  1  0  0  0
 72145  1  0  0  0
 73 76  1  0  0  0
 74 81  1  0  0  0
 74 82  1  0  0  0
 75 76  1  0  0  0
 75 77  1  0  0  0
 75146  1  0  0  0
 75147  1  0  0  0
 76 77  1  0  0  0
 76148  1  0  0  0
 77149  1  0  0  0
 78150  1  0  0  0
 78151  1  0  0  0
 78152  1  0  0  0
 78 81  1  0  0  0
 79 80  1  0  0  0
 79 82  1  0  0  0
 79153  1  0  0  0
 79154  1  0  0  0
 80 83  1  0  0  0
 80155  1  0  0  0
 80156  1  0  0  0
 81 84  1  0  0  0
 81157  1  0  0  0
 83158  1  0  0  0
 84159  1  0  0  0
 84160  1  0  0  0
 84161  1  0  0  0
M  CHG  1  84   1
M  ISO  4   1 100  68 101  77 101  83 100
M  END
> <chiral flag>
0

> <version>
0

> <s_m_source_file>
/data/baiqing/PycharmProjects/Reinvent-master-3.2/result/LINK_invent/BTK/process_docking_weight1_custom_sum_contain_oxygen_bond_distance_aromatic_linkinvent_7_9_3/rearranged_h_0138.sdf

> <i_m_source_file_index>
41

> <r_mmod_Potential_Energy-OPLS-2005>
-97.7533798217773

> <r_mmod_Stretch_Energy-OPLS-2005>
124.746429443359

> <r_mmod_Bend_Energy-OPLS-2005>
203.240188598633

> <r_mmod_Torsional_Energy-OPLS-2005>
237.791732788086

> <r_mmod_Improper_Torsional_Energy-OPLS-2005>
6.42157459259033

> <r_mmod_Van_der_Waal_Energy-OPLS-2005>
115.45906829834

> <r_mmod_Electrostatic_Energy-OPLS-2005>
-345.425018310547

> <r_mmod_Solvation_Energy-OPLS-2005>
-522.71533203125

> <b_mmod_Minimization_Converged-OPLS-2005>
0

> <r_mmod_RMS_Derivative-OPLS-2005>
0.923771679401398

$$$$
41
                    3D
 Structure written by MMmdl.
182192  0  0  1  0            999 V2000
  -30.7512  -14.4655   20.6228 C   0  0  0  0  0  0
  -30.4171  -12.3299   19.4260 C   0  0  0  0  0  0
  -29.4874  -12.5129   18.2106 C   0  0  0  0  0  0
  -28.0134  -12.3664   18.6294 C   0  0  0  0  0  0
  -27.6593  -13.2185   19.8759 C   0  0  2  0  0  0
  -28.7012  -13.0333   21.0022 C   0  0  0  0  0  0
  -25.2578  -13.8201   20.5713 C   0  0  0  0  0  0
  -24.1833  -13.0448   20.9177 C   0  0  0  0  0  0
  -24.6408  -11.6927   20.8742 C   0  0  0  0  0  0
  -23.9086  -10.4307   21.0413 C   0  0  0  0  0  0
  -24.3640   -9.4223   21.9189 C   0  0  0  0  0  0
  -23.6311   -8.2261   22.0757 C   0  0  0  0  0  0
  -22.4293   -8.0298   21.3540 C   0  0  0  0  0  0
  -21.9933   -9.0278   20.4646 C   0  0  0  0  0  0
  -22.7266  -10.2153   20.3056 C   0  0  0  0  0  0
  -21.6851   -6.0754   22.5279 C   0  0  0  0  0  0
  -21.4012   -6.5656   23.8214 C   0  0  0  0  0  0
  -21.3658   -5.6806   24.9178 C   0  0  0  0  0  0
  -21.6042   -4.3066   24.7225 C   0  0  0  0  0  0
  -21.8825   -3.8163   23.4341 C   0  0  0  0  0  0
  -21.9198   -4.6980   22.3397 C   0  0  0  0  0  0
  -22.7855  -13.5239   21.1833 C   0  0  0  0  0  0
  -22.1666   -4.2162   21.0973 F   0  0  0  0  0  0
  -21.5632   -3.4546   25.7740 F   0  0  0  0  0  0
  -30.0349  -13.3211   20.4474 N   0  0  0  0  0  0
  -26.3024  -12.9388   20.3409 N   0  0  0  0  0  0
  -25.9336  -11.6538   20.5800 N   0  0  0  0  0  0
  -22.0508  -12.8202   22.0392 N   0  0  0  0  0  0
  -25.4294  -15.1909   20.4142 N   0  0  0  0  0  0
  -31.8409  -14.6565   20.0819 O   0  0  0  0  0  0
  -21.6643   -6.8898   21.4242 O   0  0  0  0  0  0
  -22.3532  -14.5552   20.6703 O   0  0  0  0  0  0
  -24.6131  -31.8693   23.2104 C   0  0  0  0  0  0
  -25.9050  -32.4814   23.8396 C   0  0  1  0  0  0
  -27.2359  -27.4557   20.0851 C   0  0  0  0  0  0
  -25.5914  -33.8605   24.2324 N   0  0  0  0  0  0
  -23.3978  -30.4910   21.5540 C   0  0  2  0  0  0
  -24.8425  -28.9551   20.1210 C   0  0  0  0  0  0
  -22.7404  -29.4655   22.5042 C   0  0  0  0  0  0
  -18.0264  -28.1329   22.8504 C   0  0  0  0  0  0
  -24.1483  -36.7332   23.2638 C   0  0  0  0  0  0
  -25.9216  -30.8417   21.3577 C   0  0  0  0  0  0
  -26.0019  -29.4745   20.7122 C   0  0  0  0  0  0
  -27.2028  -28.7321   20.6898 C   0  0  0  0  0  0
  -26.0631  -26.9457   19.4918 C   0  0  0  0  0  0
  -24.8659  -27.6896   19.5077 C   0  0  0  0  0  0
  -23.6029  -29.8198   20.1696 C   0  0  0  0  0  0
  -25.4098  -36.3095   24.0321 C   0  0  1  0  0  0
  -20.5852  -28.3626   23.1339 C   0  0  2  0  0  0
  -20.6740  -26.9371   22.5421 C   0  0  0  0  0  0
  -19.5730  -26.6364   21.5200 C   0  0  0  0  0  0
  -18.1906  -26.7891   22.1599 C   0  0  0  0  0  0
  -19.1509  -28.8800   23.2912 C   0  0  0  0  0  0
  -18.9446  -30.1405   23.8919 C   0  0  0  0  0  0
  -17.6452  -30.6560   24.0553 C   0  0  0  0  0  0
  -25.9026  -34.9467   23.5110 C   0  0  0  0  0  0
  -16.5347  -29.9063   23.6306 C   0  0  0  0  0  0
  -16.7257  -28.6461   23.0355 C   0  0  0  0  0  0
  -26.4478  -31.6590   25.0717 C   0  0  0  0  0  0
  -25.3745  -31.3698   26.1462 C   0  0  0  0  0  0
  -27.0295  -30.3035   24.6066 C   0  0  0  0  0  0
  -27.6065  -32.4305   25.7469 C   0  0  0  0  0  0
  -27.5563  -37.1808   24.8454 C   0  0  0  0  0  0
  -21.4138  -29.3012   22.3778 N   0  0  0  0  0  0
  -26.4284  -37.3786   23.9384 N   0  0  0  0  0  0
  -24.6638  -31.0804   22.1013 N   0  0  0  0  0  0
  -23.4181  -28.8213   23.3093 O   0  0  0  0  0  0
  -28.4204  -26.7603   20.0108 O   0  0  0  0  0  0
  -26.5618  -34.8927   22.4686 O   0  0  0  0  0  0
  -23.5339  -32.1441   23.7519 O   0  0  0  0  0  0
  -27.7352  -21.6219   18.9542 C   0  0  0  0  0  0
  -29.1851  -20.6869   20.6759 C   0  0  0  0  0  0
  -27.6868  -20.3782   18.2943 C   0  0  0  0  0  0
  -28.4169  -19.2841   18.8210 C   0  0  0  0  0  0
  -28.4935  -21.8029   20.1331 C   0  0  0  0  0  0
  -29.1553  -19.4267   20.0198 C   0  0  0  0  0  0
  -24.3244  -20.5028   17.6531 C   0  0  0  0  0  0
  -24.3623  -19.8456   16.2967 C   0  0  0  0  0  0
  -32.6979  -16.5096   16.5780 C   0  0  0  0  0  0
  -32.1501  -15.4760   15.6211 C   0  0  0  0  0  0
  -25.5054  -19.6418   17.2662 C   0  0  0  0  0  0
  -31.3596  -16.7286   15.9080 C   0  0  0  0  0  0
  -26.8658  -20.2694   17.0113 C   0  0  0  0  0  0
  -28.5010  -17.9494   18.0923 C   0  0  0  0  0  0
  -30.0616  -16.6378   16.6842 C   0  0  0  0  0  0
  -28.1701  -24.2787   20.0303 C   0  0  0  0  0  0
  -30.8647  -16.6610   21.8299 C   0  0  0  0  0  0
  -28.5241  -25.5718   20.7990 C   0  0  0  0  0  0
  -29.9951  -17.9431   21.7563 C   0  0  0  0  0  0
  -28.5854  -23.0670   20.7525 N   0  0  0  0  0  0
  -30.1895  -15.4250   21.3807 N   0  0  0  0  0  0
  -29.7645  -17.9184   17.3391 N   0  3  0  0  0  0
  -29.9096  -18.3279   20.3897 O   0  0  0  0  0  0
  -31.4595  -12.4256   19.1171 H   0  0  0  0  0  0
  -30.3231  -11.3237   19.8374 H   0  0  0  0  0  0
  -29.7305  -11.7820   17.4378 H   0  0  0  0  0  0
  -29.6467  -13.4948   17.7656 H   0  0  0  0  0  0
  -27.8325  -11.3113   18.8398 H   0  0  0  0  0  0
  -27.3599  -12.6286   17.7977 H   0  0  0  0  0  0
  -27.6947  -14.2622   19.5636 H   0  0  0  0  0  0
  -28.6763  -12.0138   21.3877 H   0  0  0  0  0  0
  -28.4533  -13.6695   21.8521 H   0  0  0  0  0  0
  -25.2782   -9.5695   22.4768 H   0  0  0  0  0  0
  -24.0014   -7.4653   22.7476 H   0  0  0  0  0  0
  -21.0867   -8.8812   19.8948 H   0  0  0  0  0  0
  -22.3738  -10.9702   19.6172 H   0  0  0  0  0  0
  -21.2005   -7.6164   23.9719 H   0  0  0  0  0  0
  -21.1469   -6.0535   25.9076 H   0  0  0  0  0  0
  -22.0608   -2.7625   23.2843 H   0  0  0  0  0  0
  -22.4138  -11.9842   22.4727 H   0  0  0  0  0  0
  -21.1137  -13.1222   22.2646 H   0  0  0  0  0  0
  -24.6683  -15.8501   20.5362 H   0  0  0  0  0  0
  -26.2996  -15.6334   20.1508 H   0  0  0  0  0  0
  -26.7131  -32.5532   23.1175 H   0  0  0  0  0  0
  -25.0015  -33.9770   25.0431 H   0  0  0  0  0  0
  -22.6850  -31.3053   21.4155 H   0  0  0  0  0  0
  -23.3737  -35.9672   23.3281 H   0  0  0  0  0  0
  -24.3584  -36.8977   22.2056 H   0  0  0  0  0  0
  -23.7236  -37.6515   23.6706 H   0  0  0  0  0  0
  -26.0177  -31.6059   20.5856 H   0  0  0  0  0  0
  -26.8133  -30.9035   21.9698 H   0  0  0  0  0  0
  -28.1050  -29.1360   21.1279 H   0  0  0  0  0  0
  -26.0755  -25.9913   18.9860 H   0  0  0  0  0  0
  -23.9767  -27.2913   19.0372 H   0  0  0  0  0  0
  -23.7003  -30.5922   19.4046 H   0  0  0  0  0  0
  -22.7260  -29.2332   19.8847 H   0  0  0  0  0  0
  -25.1263  -36.1961   25.0819 H   0  0  0  0  0  0
  -20.9909  -28.3195   24.1466 H   0  0  0  0  0  0
  -20.5615  -26.2247   23.3609 H   0  0  0  0  0  0
  -21.6620  -26.7406   22.1234 H   0  0  0  0  0  0
  -19.6905  -25.6285   21.1221 H   0  0  0  0  0  0
  -19.6675  -27.3185   20.6740 H   0  0  0  0  0  0
  -17.4179  -26.6654   21.3998 H   0  0  0  0  0  0
  -18.0287  -25.9999   22.8956 H   0  0  0  0  0  0
  -19.7928  -30.7177   24.2337 H   0  0  0  0  0  0
  -17.5016  -31.6248   24.5135 H   0  0  0  0  0  0
  -15.5341  -30.2968   23.7614 H   0  0  0  0  0  0
  -15.8646  -28.0779   22.7081 H   0  0  0  0  0  0
  -24.5895  -30.7085   25.7775 H   0  0  0  0  0  0
  -24.8973  -32.2857   26.4958 H   0  0  0  0  0  0
  -25.8078  -30.8811   27.0194 H   0  0  0  0  0  0
  -26.2810  -29.6771   24.1187 H   0  0  0  0  0  0
  -27.4123  -29.7290   25.4507 H   0  0  0  0  0  0
  -27.8630  -30.4335   23.9155 H   0  0  0  0  0  0
  -27.2727  -33.3641   26.2005 H   0  0  0  0  0  0
  -28.3904  -32.6768   25.0308 H   0  0  0  0  0  0
  -28.0690  -31.8429   26.5400 H   0  0  0  0  0  0
  -28.2584  -38.0104   24.7492 H   0  0  0  0  0  0
  -28.1053  -36.2623   24.6303 H   0  0  0  0  0  0
  -27.2294  -37.1490   25.8866 H   0  0  0  0  0  0
  -20.9307  -29.8777   21.7046 H   0  0  0  0  0  0
  -26.0170  -38.2857   24.1405 H   0  0  0  0  0  0
  -27.1874  -22.4434   18.5166 H   0  0  0  0  0  0
  -29.7885  -20.8177   21.5619 H   0  0  0  0  0  0
  -23.6351  -20.0979   18.3935 H   0  0  0  0  0  0
  -24.4787  -21.5791   17.6995 H   0  0  0  0  0  0
  -24.5317  -20.4828   15.4311 H   0  0  0  0  0  0
  -23.6874  -19.0079   16.1304 H   0  0  0  0  0  0
  -33.5390  -17.1124   16.2363 H   0  0  0  0  0  0
  -32.7009  -16.2724   17.6412 H   0  0  0  0  0  0
  -31.7854  -14.5407   16.0439 H   0  0  0  0  0  0
  -32.6133  -15.3940   14.6394 H   0  0  0  0  0  0
  -25.5467  -18.6591   17.7313 H   0  0  0  0  0  0
  -31.3485  -17.4738   15.1131 H   0  0  0  0  0  0
  -27.3986  -19.6914   16.2572 H   0  0  0  0  0  0
  -26.7341  -21.2570   16.5654 H   0  0  0  0  0  0
  -27.6561  -17.7828   17.4264 H   0  0  0  0  0  0
  -28.4687  -17.1331   18.8165 H   0  0  0  0  0  0
  -30.1299  -15.8496   17.4353 H   0  0  0  0  0  0
  -29.2554  -16.3725   15.9987 H   0  0  0  0  0  0
  -28.6585  -24.2973   19.0537 H   0  0  0  0  0  0
  -27.0948  -24.2419   19.8474 H   0  0  0  0  0  0
  -31.1766  -16.5067   22.8629 H   0  0  0  0  0  0
  -31.7874  -16.8391   21.2733 H   0  0  0  0  0  0
  -29.5689  -25.5107   21.0998 H   0  0  0  0  0  0
  -27.9470  -25.6580   21.7225 H   0  0  0  0  0  0
  -30.4727  -18.7329   22.3376 H   0  0  0  0  0  0
  -29.0083  -17.7679   22.1832 H   0  0  0  0  0  0
  -29.2269  -23.1878   21.5333 H   0  0  0  0  0  0
  -29.2705  -15.2338   21.7502 H   0  0  0  0  0  0
  -30.5069  -18.1252   17.9897 H   0  0  0  0  0  0
  -29.7472  -18.6518   16.6498 H   0  0  0  0  0  0
  1 25  1  0  0  0
  1 30  2  0  0  0
  1 91  1  0  0  0
  2  3  1  0  0  0
  2 25  1  0  0  0
  2 94  1  0  0  0
  2 95  1  0  0  0
  3  4  1  0  0  0
  3 96  1  0  0  0
  3 97  1  0  0  0
  4  5  1  0  0  0
  4 98  1  0  0  0
  4 99  1  0  0  0
  5  6  1  0  0  0
  5 26  1  0  0  0
  5100  1  0  0  0
  6 25  1  0  0  0
  6101  1  0  0  0
  6102  1  0  0  0
  7  8  2  0  0  0
  7 26  1  0  0  0
  7 29  1  0  0  0
  8  9  1  0  0  0
  8 22  1  0  0  0
  9 10  1  0  0  0
  9 27  2  0  0  0
 10 11  2  0  0  0
 10 15  1  0  0  0
 11 12  1  0  0  0
 11103  1  0  0  0
 12 13  2  0  0  0
 12104  1  0  0  0
 13 14  1  0  0  0
 13 31  1  0  0  0
 14 15  2  0  0  0
 14105  1  0  0  0
 15106  1  0  0  0
 16 17  2  0  0  0
 16 21  1  0  0  0
 16 31  1  0  0  0
 17 18  1  0  0  0
 17107  1  0  0  0
 18 19  2  0  0  0
 18108  1  0  0  0
 19 20  1  0  0  0
 19 24  1  0  0  0
 20 21  2  0  0  0
 20109  1  0  0  0
 21 23  1  0  0  0
 22 28  1  0  0  0
 22 32  2  0  0  0
 26 27  1  0  0  0
 28110  1  0  0  0
 28111  1  0  0  0
 29112  1  0  0  0
 29113  1  0  0  0
 33 34  1  0  0  0
 33 66  1  0  0  0
 33 70  2  0  0  0
 34 36  1  0  0  0
 34 59  1  0  0  0
 34114  1  0  0  0
 35 44  2  0  0  0
 35 45  1  0  0  0
 35 68  1  0  0  0
 36 56  1  0  0  0
 36115  1  0  0  0
 37 39  1  0  0  0
 37 47  1  0  0  0
 37 66  1  0  0  0
 37116  1  0  0  0
 38 43  2  0  0  0
 38 46  1  0  0  0
 38 47  1  0  0  0
 39 64  1  0  0  0
 39 67  2  0  0  0
 40 52  1  0  0  0
 40 53  2  0  0  0
 40 58  1  0  0  0
 41117  1  0  0  0
 41118  1  0  0  0
 41119  1  0  0  0
 41 48  1  0  0  0
 42 43  1  0  0  0
 42 66  1  0  0  0
 42120  1  0  0  0
 42121  1  0  0  0
 43 44  1  0  0  0
 44122  1  0  0  0
 45 46  2  0  0  0
 45123  1  0  0  0
 46124  1  0  0  0
 47125  1  0  0  0
 47126  1  0  0  0
 48 56  1  0  0  0
 48 65  1  0  0  0
 48127  1  0  0  0
 49 50  1  0  0  0
 49 53  1  0  0  0
 49 64  1  0  0  0
 49128  1  0  0  0
 50 51  1  0  0  0
 50129  1  0  0  0
 50130  1  0  0  0
 51 52  1  0  0  0
 51131  1  0  0  0
 51132  1  0  0  0
 52133  1  0  0  0
 52134  1  0  0  0
 53 54  1  0  0  0
 54 55  2  0  0  0
 54135  1  0  0  0
 55 57  1  0  0  0
 55136  1  0  0  0
 56 69  2  0  0  0
 57 58  2  0  0  0
 57137  1  0  0  0
 58138  1  0  0  0
 59 60  1  0  0  0
 59 61  1  0  0  0
 59 62  1  0  0  0
 60139  1  0  0  0
 60140  1  0  0  0
 60141  1  0  0  0
 61142  1  0  0  0
 61143  1  0  0  0
 61144  1  0  0  0
 62145  1  0  0  0
 62146  1  0  0  0
 62147  1  0  0  0
 63 65  1  0  0  0
 63148  1  0  0  0
 63149  1  0  0  0
 63150  1  0  0  0
 64151  1  0  0  0
 65152  1  0  0  0
 68 88  1  0  0  0
 71 73  2  0  0  0
 71 75  1  0  0  0
 71153  1  0  0  0
 72 75  2  0  0  0
 72 76  1  0  0  0
 72154  1  0  0  0
 73 74  1  0  0  0
 73 83  1  0  0  0
 74 76  2  0  0  0
 74 84  1  0  0  0
 75 90  1  0  0  0
 76 93  1  0  0  0
 77 78  1  0  0  0
 77 81  1  0  0  0
 77155  1  0  0  0
 77156  1  0  0  0
 78 81  1  0  0  0
 78157  1  0  0  0
 78158  1  0  0  0
 79 80  1  0  0  0
 79 82  1  0  0  0
 79159  1  0  0  0
 79160  1  0  0  0
 80 82  1  0  0  0
 80161  1  0  0  0
 80162  1  0  0  0
 81 83  1  0  0  0
 81163  1  0  0  0
 82 85  1  0  0  0
 82164  1  0  0  0
 83165  1  0  0  0
 83166  1  0  0  0
 84 92  1  0  0  0
 84167  1  0  0  0
 84168  1  0  0  0
 85 92  1  0  0  0
 85169  1  0  0  0
 85170  1  0  0  0
 86 88  1  0  0  0
 86 90  1  0  0  0
 86171  1  0  0  0
 86172  1  0  0  0
 87 89  1  0  0  0
 87 91  1  0  0  0
 87173  1  0  0  0
 87174  1  0  0  0
 88175  1  0  0  0
 88176  1  0  0  0
 89 93  1  0  0  0
 89177  1  0  0  0
 89178  1  0  0  0
 90179  1  0  0  0
 91180  1  0  0  0
 92181  1  0  0  0
 92182  1  0  0  0
M  CHG  1  92   1
M  ISO  4   1 100  68 101  88 101  91 100
M  END
> <chiral flag>
0

> <version>
0

> <s_m_source_file>
/data/baiqing/PycharmProjects/Reinvent-master-3.2/result/LINK_invent/BTK/process_docking_weight1_custom_sum_contain_oxygen_bond_distance_aromatic_linkinvent_7_9_3/rearranged_h_0138.sdf

> <i_m_source_file_index>
42

> <r_mmod_Potential_Energy-OPLS-2005>
-205.133728027344

> <r_mmod_Stretch_Energy-OPLS-2005>
38.2589302062988

> <r_mmod_Bend_Energy-OPLS-2005>
115.321197509766

> <r_mmod_Torsional_Energy-OPLS-2005>
299.476898193359

> <r_mmod_Improper_Torsional_Energy-OPLS-2005>
3.7655553817749

> <r_mmod_Van_der_Waal_Energy-OPLS-2005>
133.439697265625

> <r_mmod_Electrostatic_Energy-OPLS-2005>
-364.640563964844

> <r_mmod_Solvation_Energy-OPLS-2005>
-441.735046386719

> <b_mmod_Minimization_Converged-OPLS-2005>
0

> <r_mmod_RMS_Derivative-OPLS-2005>
3.58768534660339

$$$$
42
                    3D
 Structure written by MMmdl.
166175  0  0  1  0            999 V2000
  -30.6279  -14.6771   20.4672 C   0  0  0  0  0  0
  -30.4333  -12.4105   19.4629 C   0  0  0  0  0  0
  -29.5060  -12.5001   18.2298 C   0  0  0  0  0  0
  -28.0299  -12.3361   18.6440 C   0  0  0  0  0  0
  -27.6477  -13.2239   19.8582 C   0  0  2  0  0  0
  -28.6942  -13.1199   20.9909 C   0  0  0  0  0  0
  -25.2541  -13.8187   20.5708 C   0  0  0  0  0  0
  -24.1812  -13.0446   20.9209 C   0  0  0  0  0  0
  -24.6376  -11.6927   20.8736 C   0  0  0  0  0  0
  -23.9050  -10.4298   21.0403 C   0  0  0  0  0  0
  -24.3600   -9.4211   21.9182 C   0  0  0  0  0  0
  -23.6280   -8.2247   22.0751 C   0  0  0  0  0  0
  -22.4264   -8.0274   21.3540 C   0  0  0  0  0  0
  -21.9899   -9.0249   20.4646 C   0  0  0  0  0  0
  -22.7218  -10.2134   20.3054 C   0  0  0  0  0  0
  -21.6855   -6.0729   22.5274 C   0  0  0  0  0  0
  -21.4010   -6.5633   23.8205 C   0  0  0  0  0  0
  -21.3663   -5.6784   24.9169 C   0  0  0  0  0  0
  -21.6049   -4.3050   24.7216 C   0  0  0  0  0  0
  -21.8823   -3.8139   23.4342 C   0  0  0  0  0  0
  -21.9191   -4.6958   22.3395 C   0  0  0  0  0  0
  -22.7825  -13.5242   21.1851 C   0  0  0  0  0  0
  -22.1664   -4.2143   21.0976 F   0  0  0  0  0  0
  -21.5632   -3.4531   25.7734 F   0  0  0  0  0  0
  -30.0050  -13.4543   20.4171 N   0  0  0  0  0  0
  -26.2962  -12.9381   20.3319 N   0  0  0  0  0  0
  -25.9314  -11.6534   20.5770 N   0  0  0  0  0  0
  -22.0465  -12.8237   22.0412 N   0  0  0  0  0  0
  -25.4244  -15.1905   20.4119 N   0  0  0  0  0  0
  -31.8016  -14.8063   20.1097 O   0  0  0  0  0  0
  -21.6639   -6.8866   21.4235 O   0  0  0  0  0  0
  -22.3527  -14.5547   20.6695 O   0  0  0  0  0  0
  -24.6246  -31.8586   23.2005 C   0  0  0  0  0  0
  -25.9117  -32.4764   23.8321 C   0  0  1  0  0  0
  -27.2324  -27.3158   20.1087 C   0  0  0  0  0  0
  -25.5954  -33.8568   24.2263 N   0  0  0  0  0  0
  -23.4180  -30.4811   21.5413 C   0  0  2  0  0  0
  -24.8667  -28.9322   20.1044 C   0  0  0  0  0  0
  -22.7469  -29.4628   22.4923 C   0  0  0  0  0  0
  -18.0296  -28.1383   22.8487 C   0  0  0  0  0  0
  -24.1490  -36.7281   23.2632 C   0  0  0  0  0  0
  -25.9586  -30.7871   21.3725 C   0  0  0  0  0  0
  -26.0327  -29.4150   20.7110 C   0  0  0  0  0  0
  -27.2137  -28.6163   20.7050 C   0  0  0  0  0  0
  -26.0439  -26.8796   19.4844 C   0  0  0  0  0  0
  -24.8750  -27.6713   19.4841 C   0  0  0  0  0  0
  -23.6319  -29.8116   20.1562 C   0  0  0  0  0  0
  -25.4117  -36.3067   24.0313 C   0  0  1  0  0  0
  -20.5894  -28.3684   23.1290 C   0  0  2  0  0  0
  -20.6792  -26.9404   22.5414 C   0  0  0  0  0  0
  -19.5777  -26.6376   21.5215 C   0  0  0  0  0  0
  -18.1951  -26.7925   22.1616 C   0  0  0  0  0  0
  -19.1546  -28.8848   23.2882 C   0  0  0  0  0  0
  -18.9465  -30.1456   23.8889 C   0  0  0  0  0  0
  -17.6472  -30.6582   24.0562 C   0  0  0  0  0  0
  -25.9061  -34.9442   23.5081 C   0  0  0  0  0  0
  -16.5361  -29.9076   23.6336 C   0  0  0  0  0  0
  -16.7281  -28.6496   23.0345 C   0  0  0  0  0  0
  -26.4514  -31.6579   25.0702 C   0  0  0  0  0  0
  -25.3740  -31.3734   26.1431 C   0  0  0  0  0  0
  -27.0350  -30.2984   24.6178 C   0  0  0  0  0  0
  -27.6066  -32.4322   25.7481 C   0  0  0  0  0  0
  -27.5574  -37.1796   24.8460 C   0  0  0  0  0  0
  -21.4182  -29.3039   22.3660 N   0  0  0  0  0  0
  -26.4289  -37.3766   23.9402 N   0  0  0  0  0  0
  -24.6850  -31.0591   22.0948 N   0  0  0  0  0  0
  -23.4186  -28.8179   23.3014 O   0  0  0  0  0  0
  -28.3692  -26.4934   20.1934 O   0  0  0  0  0  0
  -26.5613  -34.8911   22.4632 O   0  0  0  0  0  0
  -23.5425  -32.1404   23.7345 O   0  0  0  0  0  0
  -25.9514  -23.8060   22.5124 C   0  0  0  0  0  0
  -25.8178  -22.4472   22.2346 C   0  0  0  0  0  0
  -26.8653  -24.5643   21.7769 C   0  0  0  0  0  0
  -26.6710  -21.8105   21.3131 C   0  0  0  0  0  0
  -27.7070  -23.9906   20.7964 C   0  0  0  0  0  0
  -27.7462  -22.5237   20.6810 C   0  0  0  0  0  0
  -29.4696  -17.8356   19.2015 C   0  0  0  0  0  0
  -29.5711  -18.1738   21.6517 C   0  0  0  0  0  0
  -29.5894  -19.3985   19.0178 C   0  0  0  0  0  0
  -29.6781  -19.7372   21.4092 C   0  0  0  0  0  0
  -30.1116  -17.2592   20.5022 C   0  0  1  0  0  0
  -26.2954  -20.3633   21.0108 C   0  0  0  0  0  0
  -28.8562  -21.7046   19.8987 C   0  0  0  0  0  0
  -28.4007  -25.0391   19.8522 C   0  0  0  0  0  0
  -29.8366  -15.7771   20.7104 N   0  0  0  0  0  0
  -29.0084  -20.1912   20.1482 N   0  3  1  0  0  0
  -31.4753  -12.5275   19.1587 H   0  0  0  0  0  0
  -30.3681  -11.4237   19.9264 H   0  0  0  0  0  0
  -29.7751  -11.7355   17.4993 H   0  0  0  0  0  0
  -29.6440  -13.4626   17.7334 H   0  0  0  0  0  0
  -27.8745  -11.2859   18.8920 H   0  0  0  0  0  0
  -27.3738  -12.5493   17.7987 H   0  0  0  0  0  0
  -27.6539  -14.2514   19.4958 H   0  0  0  0  0  0
  -28.7122  -12.1134   21.4111 H   0  0  0  0  0  0
  -28.4415  -13.7858   21.8168 H   0  0  0  0  0  0
  -25.2740   -9.5702   22.4762 H   0  0  0  0  0  0
  -23.9995   -7.4641   22.7472 H   0  0  0  0  0  0
  -21.0827   -8.8757   19.8951 H   0  0  0  0  0  0
  -22.3659  -10.9672   19.6167 H   0  0  0  0  0  0
  -21.2003   -7.6139   23.9707 H   0  0  0  0  0  0
  -21.1485   -6.0514   25.9071 H   0  0  0  0  0  0
  -22.0601   -2.7599   23.2839 H   0  0  0  0  0  0
  -22.4057  -11.9895   22.4810 H   0  0  0  0  0  0
  -21.1084  -13.1281   22.2608 H   0  0  0  0  0  0
  -24.6558  -15.8430   20.5193 H   0  0  0  0  0  0
  -26.2664  -15.6259   20.0603 H   0  0  0  0  0  0
  -26.7183  -32.5428   23.1061 H   0  0  0  0  0  0
  -25.0155  -33.9718   25.0444 H   0  0  0  0  0  0
  -22.7120  -31.3013   21.3982 H   0  0  0  0  0  0
  -23.3757  -35.9617   23.3299 H   0  0  0  0  0  0
  -24.3581  -36.8902   22.2051 H   0  0  0  0  0  0
  -23.7255  -37.6476   23.6663 H   0  0  0  0  0  0
  -26.0941  -31.5552   20.6092 H   0  0  0  0  0  0
  -26.8351  -30.8305   22.0053 H   0  0  0  0  0  0
  -28.1055  -28.9804   21.1945 H   0  0  0  0  0  0
  -25.9946  -25.9069   19.0158 H   0  0  0  0  0  0
  -23.9810  -27.2948   19.0067 H   0  0  0  0  0  0
  -23.7435  -30.5885   19.3989 H   0  0  0  0  0  0
  -22.7523  -29.2387   19.8574 H   0  0  0  0  0  0
  -25.1310  -36.1898   25.0807 H   0  0  0  0  0  0
  -20.9998  -28.3265   24.1405 H   0  0  0  0  0  0
  -20.5709  -26.2287   23.3607 H   0  0  0  0  0  0
  -21.6663  -26.7450   22.1203 H   0  0  0  0  0  0
  -19.6936  -25.6282   21.1251 H   0  0  0  0  0  0
  -19.6721  -27.3180   20.6738 H   0  0  0  0  0  0
  -17.4224  -26.6685   21.4006 H   0  0  0  0  0  0
  -18.0338  -26.0064   22.9005 H   0  0  0  0  0  0
  -19.7938  -30.7282   24.2244 H   0  0  0  0  0  0
  -17.5014  -31.6263   24.5158 H   0  0  0  0  0  0
  -15.5353  -30.2970   23.7663 H   0  0  0  0  0  0
  -15.8682  -28.0813   22.7054 H   0  0  0  0  0  0
  -24.5928  -30.7064   25.7756 H   0  0  0  0  0  0
  -24.8934  -32.2918   26.4819 H   0  0  0  0  0  0
  -25.8081  -30.8941   27.0216 H   0  0  0  0  0  0
  -26.2914  -29.6730   24.1225 H   0  0  0  0  0  0
  -27.4038  -29.7261   25.4701 H   0  0  0  0  0  0
  -27.8800  -30.4241   23.9402 H   0  0  0  0  0  0
  -27.2665  -33.3625   26.2049 H   0  0  0  0  0  0
  -28.3900  -32.6877   25.0326 H   0  0  0  0  0  0
  -28.0712  -31.8449   26.5416 H   0  0  0  0  0  0
  -28.2593  -38.0090   24.7503 H   0  0  0  0  0  0
  -28.1069  -36.2620   24.6299 H   0  0  0  0  0  0
  -27.2290  -37.1459   25.8862 H   0  0  0  0  0  0
  -20.9329  -29.8734   21.6866 H   0  0  0  0  0  0
  -26.0162  -38.2830   24.1412 H   0  0  0  0  0  0
  -25.3002  -24.2854   23.2305 H   0  0  0  0  0  0
  -25.0361  -21.8911   22.7328 H   0  0  0  0  0  0
  -26.8666  -25.6276   21.9567 H   0  0  0  0  0  0
  -29.9209  -17.3496   18.3358 H   0  0  0  0  0  0
  -28.4130  -17.5662   19.1716 H   0  0  0  0  0  0
  -28.5253  -17.9262   21.8357 H   0  0  0  0  0  0
  -30.0928  -17.9274   22.5779 H   0  0  0  0  0  0
  -29.0945  -19.6815   18.0881 H   0  0  0  0  0  0
  -30.6385  -19.6735   18.8960 H   0  0  0  0  0  0
  -30.7287  -20.0301   21.3820 H   0  0  0  0  0  0
  -29.2431  -20.2653   22.2581 H   0  0  0  0  0  0
  -31.1926  -17.4007   20.4404 H   0  0  0  0  0  0
  -25.2336  -20.2025   21.2024 H   0  0  0  0  0  0
  -26.8375  -19.6654   21.6485 H   0  0  0  0  0  0
  -26.4365  -20.1148   19.9572 H   0  0  0  0  0  0
  -29.8236  -22.1806   20.0599 H   0  0  0  0  0  0
  -28.6334  -21.8504   18.8419 H   0  0  0  0  0  0
  -29.4507  -24.7609   19.7698 H   0  0  0  0  0  0
  -27.9998  -24.9028   18.8460 H   0  0  0  0  0  0
  -28.8991  -15.5464   21.0061 H   0  0  0  0  0  0
  -28.0485  -19.8897   20.2259 H   0  0  0  0  0  0
  1 25  1  0  0  0
  1 30  2  0  0  0
  1 85  1  0  0  0
  2  3  1  0  0  0
  2 25  1  0  0  0
  2 87  1  0  0  0
  2 88  1  0  0  0
  3  4  1  0  0  0
  3 89  1  0  0  0
  3 90  1  0  0  0
  4  5  1  0  0  0
  4 91  1  0  0  0
  4 92  1  0  0  0
  5  6  1  0  0  0
  5 26  1  0  0  0
  5 93  1  0  0  0
  6 25  1  0  0  0
  6 94  1  0  0  0
  6 95  1  0  0  0
  7  8  2  0  0  0
  7 26  1  0  0  0
  7 29  1  0  0  0
  8  9  1  0  0  0
  8 22  1  0  0  0
  9 10  1  0  0  0
  9 27  2  0  0  0
 10 11  2  0  0  0
 10 15  1  0  0  0
 11 12  1  0  0  0
 11 96  1  0  0  0
 12 13  2  0  0  0
 12 97  1  0  0  0
 13 14  1  0  0  0
 13 31  1  0  0  0
 14 15  2  0  0  0
 14 98  1  0  0  0
 15 99  1  0  0  0
 16 17  2  0  0  0
 16 21  1  0  0  0
 16 31  1  0  0  0
 17 18  1  0  0  0
 17100  1  0  0  0
 18 19  2  0  0  0
 18101  1  0  0  0
 19 20  1  0  0  0
 19 24  1  0  0  0
 20 21  2  0  0  0
 20102  1  0  0  0
 21 23  1  0  0  0
 22 28  1  0  0  0
 22 32  2  0  0  0
 26 27  1  0  0  0
 28103  1  0  0  0
 28104  1  0  0  0
 29105  1  0  0  0
 29106  1  0  0  0
 33 34  1  0  0  0
 33 66  1  0  0  0
 33 70  2  0  0  0
 34 36  1  0  0  0
 34 59  1  0  0  0
 34107  1  0  0  0
 35 44  2  0  0  0
 35 45  1  0  0  0
 35 68  1  0  0  0
 36 56  1  0  0  0
 36108  1  0  0  0
 37 39  1  0  0  0
 37 47  1  0  0  0
 37 66  1  0  0  0
 37109  1  0  0  0
 38 43  2  0  0  0
 38 46  1  0  0  0
 38 47  1  0  0  0
 39 64  1  0  0  0
 39 67  2  0  0  0
 40 52  1  0  0  0
 40 53  2  0  0  0
 40 58  1  0  0  0
 41110  1  0  0  0
 41111  1  0  0  0
 41112  1  0  0  0
 41 48  1  0  0  0
 42 43  1  0  0  0
 42 66  1  0  0  0
 42113  1  0  0  0
 42114  1  0  0  0
 43 44  1  0  0  0
 44115  1  0  0  0
 45 46  2  0  0  0
 45116  1  0  0  0
 46117  1  0  0  0
 47118  1  0  0  0
 47119  1  0  0  0
 48 56  1  0  0  0
 48 65  1  0  0  0
 48120  1  0  0  0
 49 50  1  0  0  0
 49 53  1  0  0  0
 49 64  1  0  0  0
 49121  1  0  0  0
 50 51  1  0  0  0
 50122  1  0  0  0
 50123  1  0  0  0
 51 52  1  0  0  0
 51124  1  0  0  0
 51125  1  0  0  0
 52126  1  0  0  0
 52127  1  0  0  0
 53 54  1  0  0  0
 54 55  2  0  0  0
 54128  1  0  0  0
 55 57  1  0  0  0
 55129  1  0  0  0
 56 69  2  0  0  0
 57 58  2  0  0  0
 57130  1  0  0  0
 58131  1  0  0  0
 59 60  1  0  0  0
 59 61  1  0  0  0
 59 62  1  0  0  0
 60132  1  0  0  0
 60133  1  0  0  0
 60134  1  0  0  0
 61135  1  0  0  0
 61136  1  0  0  0
 61137  1  0  0  0
 62138  1  0  0  0
 62139  1  0  0  0
 62140  1  0  0  0
 63 65  1  0  0  0
 63141  1  0  0  0
 63142  1  0  0  0
 63143  1  0  0  0
 64144  1  0  0  0
 65145  1  0  0  0
 68 84  1  0  0  0
 71 72  2  0  0  0
 71 73  1  0  0  0
 71146  1  0  0  0
 72 74  1  0  0  0
 72147  1  0  0  0
 73 75  2  0  0  0
 73148  1  0  0  0
 74 76  2  0  0  0
 74 82  1  0  0  0
 75 76  1  0  0  0
 75 84  1  0  0  0
 76 83  1  0  0  0
 77 79  1  0  0  0
 77 81  1  0  0  0
 77149  1  0  0  0
 77150  1  0  0  0
 78 80  1  0  0  0
 78 81  1  0  0  0
 78151  1  0  0  0
 78152  1  0  0  0
 79 86  1  0  0  0
 79153  1  0  0  0
 79154  1  0  0  0
 80 86  1  0  0  0
 80155  1  0  0  0
 80156  1  0  0  0
 81 85  1  0  0  0
 81157  1  0  0  0
 82158  1  0  0  0
 82159  1  0  0  0
 82160  1  0  0  0
 83161  1  0  0  0
 83162  1  0  0  0
 83 86  1  0  0  0
 84163  1  0  0  0
 84164  1  0  0  0
 85165  1  0  0  0
 86166  1  0  0  0
M  CHG  1  86   1
M  ISO  4   1 100  68 101  84 101  85 100
M  END
> <chiral flag>
0

> <version>
0

> <s_m_source_file>
/data/baiqing/PycharmProjects/Reinvent-master-3.2/result/LINK_invent/BTK/process_docking_weight1_custom_sum_contain_oxygen_bond_distance_aromatic_linkinvent_7_9_3/rearranged_h_0138.sdf

> <i_m_source_file_index>
43

> <r_mmod_Potential_Energy-OPLS-2005>
45.0795860290527

> <r_mmod_Stretch_Energy-OPLS-2005>
104.470771789551

> <r_mmod_Bend_Energy-OPLS-2005>
164.950958251953

> <r_mmod_Torsional_Energy-OPLS-2005>
255.605194091797

> <r_mmod_Improper_Torsional_Energy-OPLS-2005>
5.81311893463135

> <r_mmod_Van_der_Waal_Energy-OPLS-2005>
144.55207824707

> <r_mmod_Electrostatic_Energy-OPLS-2005>
-231.707962036133

> <r_mmod_Solvation_Energy-OPLS-2005>
-454.973724365234

> <b_mmod_Minimization_Converged-OPLS-2005>
0

> <r_mmod_RMS_Derivative-OPLS-2005>
2.56498074531555

$$$$
43
                    3D
 Structure written by MMmdl.
167175  0  0  1  0            999 V2000
  -30.7200  -14.3934   20.5682 C   0  0  0  0  0  0
  -30.4070  -12.2583   19.4103 C   0  0  0  0  0  0
  -29.4792  -12.4919   18.2011 C   0  0  0  0  0  0
  -28.0016  -12.3636   18.6174 C   0  0  0  0  0  0
  -27.6611  -13.1957   19.8815 C   0  0  2  0  0  0
  -28.7018  -12.9530   20.9986 C   0  0  0  0  0  0
  -25.2582  -13.8134   20.5680 C   0  0  0  0  0  0
  -24.1827  -13.0434   20.9192 C   0  0  0  0  0  0
  -24.6354  -11.6898   20.8766 C   0  0  0  0  0  0
  -23.9030  -10.4309   21.0439 C   0  0  0  0  0  0
  -24.3596   -9.4234   21.9217 C   0  0  0  0  0  0
  -23.6289   -8.2263   22.0760 C   0  0  0  0  0  0
  -22.4275   -8.0306   21.3553 C   0  0  0  0  0  0
  -21.9908   -9.0280   20.4657 C   0  0  0  0  0  0
  -22.7215  -10.2167   20.3080 C   0  0  0  0  0  0
  -21.6844   -6.0753   22.5296 C   0  0  0  0  0  0
  -21.3994   -6.5647   23.8231 C   0  0  0  0  0  0
  -21.3659   -5.6800   24.9194 C   0  0  0  0  0  0
  -21.6049   -4.3066   24.7242 C   0  0  0  0  0  0
  -21.8816   -3.8163   23.4361 C   0  0  0  0  0  0
  -21.9179   -4.6984   22.3415 C   0  0  0  0  0  0
  -22.7877  -13.5272   21.1873 C   0  0  0  0  0  0
  -22.1666   -4.2170   21.0997 F   0  0  0  0  0  0
  -21.5622   -3.4540   25.7749 F   0  0  0  0  0  0
  -30.0362  -13.2312   20.4473 N   0  0  0  0  0  0
  -26.3008  -12.9285   20.3410 N   0  0  0  0  0  0
  -25.9275  -11.6458   20.5803 N   0  0  0  0  0  0
  -22.0506  -12.8261   22.0411 N   0  0  0  0  0  0
  -25.4308  -15.1837   20.4020 N   0  0  0  0  0  0
  -31.8521  -14.5651   20.1062 O   0  0  0  0  0  0
  -21.6649   -6.8898   21.4253 O   0  0  0  0  0  0
  -22.3618  -14.5613   20.6752 O   0  0  0  0  0  0
  -24.6094  -31.8697   23.2121 C   0  0  0  0  0  0
  -25.8996  -32.4824   23.8413 C   0  0  1  0  0  0
  -27.2307  -27.4642   20.0828 C   0  0  0  0  0  0
  -25.5869  -33.8628   24.2328 N   0  0  0  0  0  0
  -23.3929  -30.4932   21.5520 C   0  0  2  0  0  0
  -24.8361  -28.9621   20.1222 C   0  0  0  0  0  0
  -22.7378  -29.4646   22.5009 C   0  0  0  0  0  0
  -18.0247  -28.1337   22.8474 C   0  0  0  0  0  0
  -24.1487  -36.7335   23.2647 C   0  0  0  0  0  0
  -25.9181  -30.8450   21.3583 C   0  0  0  0  0  0
  -25.9952  -29.4791   20.7129 C   0  0  0  0  0  0
  -27.1920  -28.7356   20.6944 C   0  0  0  0  0  0
  -26.0444  -26.9435   19.5142 C   0  0  0  0  0  0
  -24.8540  -27.6901   19.5269 C   0  0  0  0  0  0
  -23.5988  -29.8260   20.1664 C   0  0  0  0  0  0
  -25.4092  -36.3119   24.0343 C   0  0  1  0  0  0
  -20.5836  -28.3614   23.1332 C   0  0  2  0  0  0
  -20.6734  -26.9359   22.5415 C   0  0  0  0  0  0
  -19.5727  -26.6344   21.5203 C   0  0  0  0  0  0
  -18.1895  -26.7865   22.1618 C   0  0  0  0  0  0
  -19.1497  -28.8792   23.2892 C   0  0  0  0  0  0
  -18.9443  -30.1402   23.8885 C   0  0  0  0  0  0
  -17.6452  -30.6545   24.0558 C   0  0  0  0  0  0
  -25.9020  -34.9482   23.5136 C   0  0  0  0  0  0
  -16.5339  -29.9054   23.6326 C   0  0  0  0  0  0
  -16.7241  -28.6485   23.0314 C   0  0  0  0  0  0
  -26.4428  -31.6612   25.0743 C   0  0  0  0  0  0
  -25.3719  -31.3710   26.1515 C   0  0  0  0  0  0
  -27.0244  -30.3061   24.6095 C   0  0  0  0  0  0
  -27.6005  -32.4346   25.7485 C   0  0  0  0  0  0
  -27.5555  -37.1811   24.8454 C   0  0  0  0  0  0
  -21.4104  -29.3006   22.3765 N   0  0  0  0  0  0
  -26.4264  -37.3808   23.9417 N   0  0  0  0  0  0
  -24.6580  -31.0852   22.0988 N   0  0  0  0  0  0
  -23.4189  -28.8172   23.2997 O   0  0  0  0  0  0
  -28.4471  -26.8260   20.0299 O   0  0  0  0  0  0
  -26.5597  -34.8937   22.4704 O   0  0  0  0  0  0
  -23.5296  -32.1404   23.7548 O   0  0  0  0  0  0
  -29.4573  -23.3475   20.6018 C   0  0  0  0  0  0
  -29.1561  -24.6996   20.8381 C   0  0  0  0  0  0
  -28.2435  -24.8739   18.5924 C   0  0  0  0  0  0
  -29.1475  -22.7435   19.3658 C   0  0  0  0  0  0
  -28.4848  -23.5002   18.3643 C   0  0  0  0  0  0
  -28.5695  -25.4756   19.8258 C   0  0  0  0  0  0
  -25.9036  -21.8573   17.5659 C   0  0  0  0  0  0
  -26.4292  -22.9429   15.3393 C   0  0  0  0  0  0
  -29.6348  -21.3210   19.1379 C   0  0  0  0  0  0
  -30.4054  -16.8040   20.6897 C   0  0  0  0  0  0
  -28.9819  -20.2540   20.0364 C   0  0  0  0  0  0
  -29.2487  -17.8127   20.6118 C   0  0  0  0  0  0
  -26.6633  -22.9858   16.8524 C   0  0  0  0  0  0
  -28.0937  -22.9228   17.1477 N   0  0  0  0  0  0
  -30.0045  -15.4357   21.0133 N   0  0  0  0  0  0
  -29.7466  -19.0036   19.8982 N   0  3  0  0  0  0
  -31.4532  -12.3401   19.1081 H   0  0  0  0  0  0
  -30.2905  -11.2435   19.7904 H   0  0  0  0  0  0
  -29.7044  -11.7730   17.4139 H   0  0  0  0  0  0
  -29.6561  -13.4812   17.7742 H   0  0  0  0  0  0
  -27.8008  -11.3072   18.8011 H   0  0  0  0  0  0
  -27.3469  -12.6548   17.7946 H   0  0  0  0  0  0
  -27.7133  -14.2456   19.5926 H   0  0  0  0  0  0
  -28.6617  -11.9163   21.3332 H   0  0  0  0  0  0
  -28.4800  -13.5486   21.8855 H   0  0  0  0  0  0
  -25.2731   -9.5718   22.4809 H   0  0  0  0  0  0
  -24.0002   -7.4639   22.7456 H   0  0  0  0  0  0
  -21.0849   -8.8800   19.8944 H   0  0  0  0  0  0
  -22.3682  -10.9720   19.6204 H   0  0  0  0  0  0
  -21.1992   -7.6155   23.9747 H   0  0  0  0  0  0
  -21.1464   -6.0528   25.9092 H   0  0  0  0  0  0
  -22.0582   -2.7626   23.2856 H   0  0  0  0  0  0
  -22.4077  -11.9874   22.4754 H   0  0  0  0  0  0
  -21.1135  -13.1326   22.2613 H   0  0  0  0  0  0
  -24.6557  -15.8306   20.4964 H   0  0  0  0  0  0
  -26.2671  -15.6192   20.0368 H   0  0  0  0  0  0
  -26.7079  -32.5543   23.1196 H   0  0  0  0  0  0
  -25.0010  -33.9806   25.0464 H   0  0  0  0  0  0
  -22.6822  -31.3084   21.4137 H   0  0  0  0  0  0
  -23.3732  -35.9695   23.3305 H   0  0  0  0  0  0
  -24.3582  -36.8944   22.2067 H   0  0  0  0  0  0
  -23.7266  -37.6556   23.6660 H   0  0  0  0  0  0
  -26.0218  -31.6077   20.5847 H   0  0  0  0  0  0
  -26.8112  -30.9055   21.9705 H   0  0  0  0  0  0
  -28.0965  -29.1366   21.1326 H   0  0  0  0  0  0
  -26.0120  -25.9740   19.0441 H   0  0  0  0  0  0
  -23.9616  -27.2820   19.0735 H   0  0  0  0  0  0
  -23.7055  -30.5989   19.4033 H   0  0  0  0  0  0
  -22.7244  -29.2402   19.8738 H   0  0  0  0  0  0
  -25.1267  -36.1990   25.0836 H   0  0  0  0  0  0
  -20.9930  -28.3151   24.1453 H   0  0  0  0  0  0
  -20.5616  -26.2217   23.3583 H   0  0  0  0  0  0
  -21.6602  -26.7353   22.1231 H   0  0  0  0  0  0
  -19.6906  -25.6266   21.1201 H   0  0  0  0  0  0
  -19.6677  -27.3193   20.6763 H   0  0  0  0  0  0
  -17.4165  -26.6603   21.4018 H   0  0  0  0  0  0
  -18.0306  -25.9982   22.8994 H   0  0  0  0  0  0
  -19.7934  -30.7211   24.2233 H   0  0  0  0  0  0
  -17.5016  -31.6225   24.5162 H   0  0  0  0  0  0
  -15.5348  -30.2969   23.7633 H   0  0  0  0  0  0
  -15.8629  -28.0831   22.6994 H   0  0  0  0  0  0
  -24.5898  -30.7033   25.7867 H   0  0  0  0  0  0
  -24.8904  -32.2870   26.4973 H   0  0  0  0  0  0
  -25.8088  -30.8893   27.0266 H   0  0  0  0  0  0
  -26.2771  -29.6855   24.1126 H   0  0  0  0  0  0
  -27.3996  -29.7264   25.4536 H   0  0  0  0  0  0
  -27.8616  -30.4376   23.9227 H   0  0  0  0  0  0
  -27.2613  -33.3636   26.2072 H   0  0  0  0  0  0
  -28.3783  -32.6912   25.0292 H   0  0  0  0  0  0
  -28.0705  -31.8475   26.5395 H   0  0  0  0  0  0
  -28.2563  -38.0110   24.7475 H   0  0  0  0  0  0
  -28.1042  -36.2630   24.6275 H   0  0  0  0  0  0
  -27.2269  -37.1445   25.8856 H   0  0  0  0  0  0
  -20.9232  -29.8834   21.7091 H   0  0  0  0  0  0
  -26.0152  -38.2880   24.1438 H   0  0  0  0  0  0
  -29.9725  -22.7871   21.3685 H   0  0  0  0  0  0
  -29.4313  -25.1530   21.7796 H   0  0  0  0  0  0
  -27.8220  -25.4836   17.8063 H   0  0  0  0  0  0
  -24.8347  -21.9146   17.3517 H   0  0  0  0  0  0
  -26.0142  -21.9194   18.6492 H   0  0  0  0  0  0
  -26.2424  -20.8685   17.2521 H   0  0  0  0  0  0
  -25.3684  -23.0519   15.1065 H   0  0  0  0  0  0
  -26.7699  -22.0047   14.9006 H   0  0  0  0  0  0
  -26.9539  -23.7566   14.8365 H   0  0  0  0  0  0
  -30.7114  -21.3388   19.3166 H   0  0  0  0  0  0
  -29.5252  -21.0284   18.0938 H   0  0  0  0  0  0
  -31.1445  -17.1324   21.4223 H   0  0  0  0  0  0
  -30.9128  -16.8075   19.7223 H   0  0  0  0  0  0
  -27.9388  -20.1044   19.7553 H   0  0  0  0  0  0
  -28.9945  -20.5565   21.0845 H   0  0  0  0  0  0
  -28.9133  -18.0752   21.6187 H   0  0  0  0  0  0
  -28.3917  -17.4041   20.0717 H   0  0  0  0  0  0
  -26.2499  -23.9312   17.2065 H   0  0  0  0  0  0
  -28.5166  -22.0238   16.9410 H   0  0  0  0  0  0
  -29.0805  -15.2657   21.3840 H   0  0  0  0  0  0
  -30.6788  -19.1906   20.2297 H   0  0  0  0  0  0
  -29.8161  -18.7733   18.9195 H   0  0  0  0  0  0
  1 25  1  0  0  0
  1 30  2  0  0  0
  1 85  1  0  0  0
  2  3  1  0  0  0
  2 25  1  0  0  0
  2 87  1  0  0  0
  2 88  1  0  0  0
  3  4  1  0  0  0
  3 89  1  0  0  0
  3 90  1  0  0  0
  4  5  1  0  0  0
  4 91  1  0  0  0
  4 92  1  0  0  0
  5  6  1  0  0  0
  5 26  1  0  0  0
  5 93  1  0  0  0
  6 25  1  0  0  0
  6 94  1  0  0  0
  6 95  1  0  0  0
  7  8  2  0  0  0
  7 26  1  0  0  0
  7 29  1  0  0  0
  8  9  1  0  0  0
  8 22  1  0  0  0
  9 10  1  0  0  0
  9 27  2  0  0  0
 10 11  2  0  0  0
 10 15  1  0  0  0
 11 12  1  0  0  0
 11 96  1  0  0  0
 12 13  2  0  0  0
 12 97  1  0  0  0
 13 14  1  0  0  0
 13 31  1  0  0  0
 14 15  2  0  0  0
 14 98  1  0  0  0
 15 99  1  0  0  0
 16 17  2  0  0  0
 16 21  1  0  0  0
 16 31  1  0  0  0
 17 18  1  0  0  0
 17100  1  0  0  0
 18 19  2  0  0  0
 18101  1  0  0  0
 19 20  1  0  0  0
 19 24  1  0  0  0
 20 21  2  0  0  0
 20102  1  0  0  0
 21 23  1  0  0  0
 22 28  1  0  0  0
 22 32  2  0  0  0
 26 27  1  0  0  0
 28103  1  0  0  0
 28104  1  0  0  0
 29105  1  0  0  0
 29106  1  0  0  0
 33 34  1  0  0  0
 33 66  1  0  0  0
 33 70  2  0  0  0
 34 36  1  0  0  0
 34 59  1  0  0  0
 34107  1  0  0  0
 35 44  2  0  0  0
 35 45  1  0  0  0
 35 68  1  0  0  0
 36 56  1  0  0  0
 36108  1  0  0  0
 37 39  1  0  0  0
 37 47  1  0  0  0
 37 66  1  0  0  0
 37109  1  0  0  0
 38 43  2  0  0  0
 38 46  1  0  0  0
 38 47  1  0  0  0
 39 64  1  0  0  0
 39 67  2  0  0  0
 40 52  1  0  0  0
 40 53  2  0  0  0
 40 58  1  0  0  0
 41110  1  0  0  0
 41111  1  0  0  0
 41112  1  0  0  0
 41 48  1  0  0  0
 42 43  1  0  0  0
 42 66  1  0  0  0
 42113  1  0  0  0
 42114  1  0  0  0
 43 44  1  0  0  0
 44115  1  0  0  0
 45 46  2  0  0  0
 45116  1  0  0  0
 46117  1  0  0  0
 47118  1  0  0  0
 47119  1  0  0  0
 48 56  1  0  0  0
 48 65  1  0  0  0
 48120  1  0  0  0
 49 50  1  0  0  0
 49 53  1  0  0  0
 49 64  1  0  0  0
 49121  1  0  0  0
 50 51  1  0  0  0
 50122  1  0  0  0
 50123  1  0  0  0
 51 52  1  0  0  0
 51124  1  0  0  0
 51125  1  0  0  0
 52126  1  0  0  0
 52127  1  0  0  0
 53 54  1  0  0  0
 54 55  2  0  0  0
 54128  1  0  0  0
 55 57  1  0  0  0
 55129  1  0  0  0
 56 69  2  0  0  0
 57 58  2  0  0  0
 57130  1  0  0  0
 58131  1  0  0  0
 59 60  1  0  0  0
 59 61  1  0  0  0
 59 62  1  0  0  0
 60132  1  0  0  0
 60133  1  0  0  0
 60134  1  0  0  0
 61135  1  0  0  0
 61136  1  0  0  0
 61137  1  0  0  0
 62138  1  0  0  0
 62139  1  0  0  0
 62140  1  0  0  0
 63 65  1  0  0  0
 63141  1  0  0  0
 63142  1  0  0  0
 63143  1  0  0  0
 64144  1  0  0  0
 65145  1  0  0  0
 68 76  1  0  0  0
 71 72  2  0  0  0
 71 74  1  0  0  0
 71146  1  0  0  0
 72 76  1  0  0  0
 72147  1  0  0  0
 73 75  1  0  0  0
 73 76  2  0  0  0
 73148  1  0  0  0
 74 75  2  0  0  0
 74 79  1  0  0  0
 75 84  1  0  0  0
 77149  1  0  0  0
 77150  1  0  0  0
 77151  1  0  0  0
 77 83  1  0  0  0
 78 83  1  0  0  0
 78152  1  0  0  0
 78153  1  0  0  0
 78154  1  0  0  0
 79 81  1  0  0  0
 79155  1  0  0  0
 79156  1  0  0  0
 80 82  1  0  0  0
 80 85  1  0  0  0
 80157  1  0  0  0
 80158  1  0  0  0
 81 86  1  0  0  0
 81159  1  0  0  0
 81160  1  0  0  0
 82 86  1  0  0  0
 82161  1  0  0  0
 82162  1  0  0  0
 83 84  1  0  0  0
 83163  1  0  0  0
 84164  1  0  0  0
 85165  1  0  0  0
 86166  1  0  0  0
 86167  1  0  0  0
M  CHG  1  86   1
M  ISO  4   1 100  68 101  76 101  85 100
M  END
> <chiral flag>
0

> <version>
0

> <s_m_source_file>
/data/baiqing/PycharmProjects/Reinvent-master-3.2/result/LINK_invent/BTK/process_docking_weight1_custom_sum_contain_oxygen_bond_distance_aromatic_linkinvent_7_9_3/rearranged_h_0138.sdf

> <i_m_source_file_index>
44

> <r_mmod_Potential_Energy-OPLS-2005>
-307.369171142578

> <r_mmod_Stretch_Energy-OPLS-2005>
30.3700561523438

> <r_mmod_Bend_Energy-OPLS-2005>
102.170471191406

> <r_mmod_Torsional_Energy-OPLS-2005>
219.784225463867

> <r_mmod_Improper_Torsional_Energy-OPLS-2005>
10.7295932769775

> <r_mmod_Van_der_Waal_Energy-OPLS-2005>
158.988906860352

> <r_mmod_Electrostatic_Energy-OPLS-2005>
-333.946136474609

> <r_mmod_Solvation_Energy-OPLS-2005>
-506.402160644531

> <b_mmod_Minimization_Converged-OPLS-2005>
0

> <r_mmod_RMS_Derivative-OPLS-2005>
2.95144009590149

$$$$
44
                    3D
 Structure written by MMmdl.
163173  0  0  1  0            999 V2000
  -30.6335  -14.5428   20.5660 C   0  0  0  0  0  0
  -30.4418  -12.3442   19.4299 C   0  0  0  0  0  0
  -29.5060  -12.5178   18.2129 C   0  0  0  0  0  0
  -28.0260  -12.3607   18.6199 C   0  0  0  0  0  0
  -27.6621  -13.1993   19.8734 C   0  0  2  0  0  0
  -28.7025  -12.9727   20.9936 C   0  0  0  0  0  0
  -25.2590  -13.8114   20.5625 C   0  0  0  0  0  0
  -24.1848  -13.0412   20.9184 C   0  0  0  0  0  0
  -24.6391  -11.6877   20.8742 C   0  0  0  0  0  0
  -23.9050  -10.4276   21.0411 C   0  0  0  0  0  0
  -24.3598   -9.4191   21.9189 C   0  0  0  0  0  0
  -23.6269   -8.2230   22.0756 C   0  0  0  0  0  0
  -22.4255   -8.0271   21.3544 C   0  0  0  0  0  0
  -21.9896   -9.0245   20.4646 C   0  0  0  0  0  0
  -22.7224  -10.2124   20.3057 C   0  0  0  0  0  0
  -21.6836   -6.0732   22.5284 C   0  0  0  0  0  0
  -21.4001   -6.5635   23.8219 C   0  0  0  0  0  0
  -21.3663   -5.6790   24.9183 C   0  0  0  0  0  0
  -21.6044   -4.3053   24.7237 C   0  0  0  0  0  0
  -21.8812   -3.8148   23.4357 C   0  0  0  0  0  0
  -21.9183   -4.6962   22.3411 C   0  0  0  0  0  0
  -22.7873  -13.5232   21.1844 C   0  0  0  0  0  0
  -22.1652   -4.2150   21.0988 F   0  0  0  0  0  0
  -21.5642   -3.4536   25.7751 F   0  0  0  0  0  0
  -30.0319  -13.3201   20.4541 N   0  0  0  0  0  0
  -26.3017  -12.9268   20.3315 N   0  0  0  0  0  0
  -25.9311  -11.6439   20.5743 N   0  0  0  0  0  0
  -22.0495  -12.8242   22.0399 N   0  0  0  0  0  0
  -25.4291  -15.1818   20.3923 N   0  0  0  0  0  0
  -31.7574  -14.7672   20.0997 O   0  0  0  0  0  0
  -21.6616   -6.8870   21.4245 O   0  0  0  0  0  0
  -22.3577  -14.5545   20.6692 O   0  0  0  0  0  0
  -24.6188  -31.8634   23.2058 C   0  0  0  0  0  0
  -25.9053  -32.4804   23.8382 C   0  0  1  0  0  0
  -27.2407  -27.3931   20.1140 C   0  0  0  0  0  0
  -25.5898  -33.8605   24.2322 N   0  0  0  0  0  0
  -23.4118  -30.4830   21.5463 C   0  0  2  0  0  0
  -24.8630  -28.9406   20.1164 C   0  0  0  0  0  0
  -22.7441  -29.4625   22.4965 C   0  0  0  0  0  0
  -18.0270  -28.1383   22.8487 C   0  0  0  0  0  0
  -24.1480  -36.7305   23.2643 C   0  0  0  0  0  0
  -25.9437  -30.8176   21.3649 C   0  0  0  0  0  0
  -26.0242  -29.4469   20.7145 C   0  0  0  0  0  0
  -27.2189  -28.6825   20.7052 C   0  0  0  0  0  0
  -26.0645  -26.9077   19.5089 C   0  0  0  0  0  0
  -24.8801  -27.6721   19.5072 C   0  0  0  0  0  0
  -23.6260  -29.8115   20.1630 C   0  0  0  0  0  0
  -25.4104  -36.3107   24.0344 C   0  0  1  0  0  0
  -20.5866  -28.3669   23.1307 C   0  0  2  0  0  0
  -20.6757  -26.9399   22.5418 C   0  0  0  0  0  0
  -19.5735  -26.6387   21.5215 C   0  0  0  0  0  0
  -18.1914  -26.7928   22.1626 C   0  0  0  0  0  0
  -19.1524  -28.8843   23.2893 C   0  0  0  0  0  0
  -18.9449  -30.1447   23.8911 C   0  0  0  0  0  0
  -17.6452  -30.6586   24.0566 C   0  0  0  0  0  0
  -25.9035  -34.9468   23.5135 C   0  0  0  0  0  0
  -16.5340  -29.9093   23.6321 C   0  0  0  0  0  0
  -16.7260  -28.6508   23.0341 C   0  0  0  0  0  0
  -26.4475  -31.6585   25.0716 C   0  0  0  0  0  0
  -25.3733  -31.3681   26.1457 C   0  0  0  0  0  0
  -27.0314  -30.3028   24.6103 C   0  0  0  0  0  0
  -27.6058  -32.4299   25.7474 C   0  0  0  0  0  0
  -27.5579  -37.1812   24.8470 C   0  0  0  0  0  0
  -21.4162  -29.3031   22.3709 N   0  0  0  0  0  0
  -26.4294  -37.3789   23.9408 N   0  0  0  0  0  0
  -24.6765  -31.0694   22.0979 N   0  0  0  0  0  0
  -23.4183  -28.8166   23.3028 O   0  0  0  0  0  0
  -28.3821  -26.6079   20.0991 O   0  0  0  0  0  0
  -26.5596  -34.8923   22.4699 O   0  0  0  0  0  0
  -23.5362  -32.1405   23.7414 O   0  0  0  0  0  0
  -28.0333  -18.7115   21.0674 C   0  0  0  0  0  0
  -28.3637  -17.3464   21.1894 C   0  0  0  0  0  0
  -28.7494  -21.0316   20.6627 C   0  0  0  0  0  0
  -31.3601  -20.0871   20.3079 C   0  0  0  0  0  0
  -29.0431  -19.6403   20.7568 C   0  0  0  0  0  0
  -31.0921  -21.4790   20.2532 C   0  0  0  0  0  0
  -30.3546  -19.1343   20.5684 C   0  0  0  0  0  0
  -29.7759  -21.9860   20.4209 C   0  0  0  0  0  0
  -29.6814  -16.8943   20.9636 C   0  0  0  0  0  0
  -33.7294  -23.9682   21.5989 C   0  0  0  0  0  0
  -32.4849  -23.6232   22.3782 C   0  0  0  0  0  0
  -33.0162  -22.6589   21.3412 C   0  0  0  0  0  0
  -32.2631  -22.4275   20.0441 C   0  0  0  0  0  0
  -28.3890  -25.4814   21.0170 C   0  0  0  0  0  0
  -28.3149  -24.0208   20.4403 C   0  0  0  0  0  0
  -30.6512  -17.7997   20.6534 N   0  0  0  0  0  0
  -29.8480  -15.4790   21.1550 N   0  0  0  0  0  0
  -29.6063  -23.3746   20.3650 O   0  0  0  0  0  0
  -31.4832  -12.4734   19.1307 H   0  0  0  0  0  0
  -30.3724  -11.3301   19.8270 H   0  0  0  0  0  0
  -29.7590  -11.7937   17.4377 H   0  0  0  0  0  0
  -29.6607  -13.5039   17.7714 H   0  0  0  0  0  0
  -27.8486  -11.3031   18.8193 H   0  0  0  0  0  0
  -27.3735  -12.6249   17.7867 H   0  0  0  0  0  0
  -27.7042  -14.2473   19.5760 H   0  0  0  0  0  0
  -28.6942  -11.9272   21.3059 H   0  0  0  0  0  0
  -28.4432  -13.5358   21.8910 H   0  0  0  0  0  0
  -25.2739   -9.5660   22.4770 H   0  0  0  0  0  0
  -23.9970   -7.4613   22.7467 H   0  0  0  0  0  0
  -21.0832   -8.8763   19.8947 H   0  0  0  0  0  0
  -22.3685  -10.9665   19.6168 H   0  0  0  0  0  0
  -21.1983   -7.6140   23.9730 H   0  0  0  0  0  0
  -21.1495   -6.0521   25.9088 H   0  0  0  0  0  0
  -22.0593   -2.7613   23.2862 H   0  0  0  0  0  0
  -22.4070  -11.9890   22.4791 H   0  0  0  0  0  0
  -21.1128  -13.1308   22.2614 H   0  0  0  0  0  0
  -24.6375  -15.8133   20.4463 H   0  0  0  0  0  0
  -26.2322  -15.5950   19.9358 H   0  0  0  0  0  0
  -26.7125  -32.5514   23.1148 H   0  0  0  0  0  0
  -25.0060  -33.9765   25.0475 H   0  0  0  0  0  0
  -22.7032  -31.3008   21.4012 H   0  0  0  0  0  0
  -23.3756  -35.9624   23.3296 H   0  0  0  0  0  0
  -24.3577  -36.8931   22.2060 H   0  0  0  0  0  0
  -23.7209  -37.6498   23.6661 H   0  0  0  0  0  0
  -26.0574  -31.5787   20.5917 H   0  0  0  0  0  0
  -26.8307  -30.8754   21.9848 H   0  0  0  0  0  0
  -28.1181  -29.0697   21.1646 H   0  0  0  0  0  0
  -26.0637  -25.9342   19.0395 H   0  0  0  0  0  0
  -23.9891  -27.2778   19.0387 H   0  0  0  0  0  0
  -23.7397  -30.5852   19.4025 H   0  0  0  0  0  0
  -22.7496  -29.2332   19.8642 H   0  0  0  0  0  0
  -25.1275  -36.1986   25.0838 H   0  0  0  0  0  0
  -20.9955  -28.3232   24.1428 H   0  0  0  0  0  0
  -20.5653  -26.2275   23.3608 H   0  0  0  0  0  0
  -21.6623  -26.7433   22.1203 H   0  0  0  0  0  0
  -19.6890  -25.6301   21.1229 H   0  0  0  0  0  0
  -19.6675  -27.3212   20.6754 H   0  0  0  0  0  0
  -17.4183  -26.6677   21.4028 H   0  0  0  0  0  0
  -18.0309  -26.0072   22.9022 H   0  0  0  0  0  0
  -19.7926  -30.7253   24.2294 H   0  0  0  0  0  0
  -17.5005  -31.6265   24.5165 H   0  0  0  0  0  0
  -15.5341  -30.2999   23.7637 H   0  0  0  0  0  0
  -15.8658  -28.0836   22.7048 H   0  0  0  0  0  0
  -24.5888  -30.7067   25.7760 H   0  0  0  0  0  0
  -24.8956  -32.2834   26.4959 H   0  0  0  0  0  0
  -25.8073  -30.8781   27.0183 H   0  0  0  0  0  0
  -26.2864  -29.6775   24.1172 H   0  0  0  0  0  0
  -27.4099  -29.7274   25.4563 H   0  0  0  0  0  0
  -27.8688  -30.4347   23.9248 H   0  0  0  0  0  0
  -27.2702  -33.3614   26.2043 H   0  0  0  0  0  0
  -28.3870  -32.6827   25.0293 H   0  0  0  0  0  0
  -28.0717  -31.8421   26.5392 H   0  0  0  0  0  0
  -28.2598  -38.0106   24.7510 H   0  0  0  0  0  0
  -28.1072  -36.2637   24.6304 H   0  0  0  0  0  0
  -27.2294  -37.1469   25.8872 H   0  0  0  0  0  0
  -20.9331  -29.8760   21.6930 H   0  0  0  0  0  0
  -26.0188  -38.2873   24.1399 H   0  0  0  0  0  0
  -27.0170  -19.0385   21.2352 H   0  0  0  0  0  0
  -27.5778  -16.6528   21.4608 H   0  0  0  0  0  0
  -27.7271  -21.3449   20.8059 H   0  0  0  0  0  0
  -32.3732  -19.7365   20.1764 H   0  0  0  0  0  0
  -34.6850  -23.9193   22.1170 H   0  0  0  0  0  0
  -33.6490  -24.7534   20.8493 H   0  0  0  0  0  0
  -31.5697  -24.1627   22.1404 H   0  0  0  0  0  0
  -32.5991  -23.3447   23.4244 H   0  0  0  0  0  0
  -33.4880  -21.7620   21.7404 H   0  0  0  0  0  0
  -31.9293  -23.3801   19.6319 H   0  0  0  0  0  0
  -32.9490  -22.0068   19.3083 H   0  0  0  0  0  0
  -29.2852  -25.5641   21.6321 H   0  0  0  0  0  0
  -27.5662  -25.6007   21.7258 H   0  0  0  0  0  0
  -27.8302  -24.0130   19.4637 H   0  0  0  0  0  0
  -27.6710  -23.4588   21.1147 H   0  0  0  0  0  0
  -29.0384  -15.0433   21.5648 H   0  0  0  0  0  0
  1 25  1  0  0  0
  1 30  2  0  0  0
  1 87  1  0  0  0
  2  3  1  0  0  0
  2 25  1  0  0  0
  2 89  1  0  0  0
  2 90  1  0  0  0
  3  4  1  0  0  0
  3 91  1  0  0  0
  3 92  1  0  0  0
  4  5  1  0  0  0
  4 93  1  0  0  0
  4 94  1  0  0  0
  5  6  1  0  0  0
  5 26  1  0  0  0
  5 95  1  0  0  0
  6 25  1  0  0  0
  6 96  1  0  0  0
  6 97  1  0  0  0
  7  8  2  0  0  0
  7 26  1  0  0  0
  7 29  1  0  0  0
  8  9  1  0  0  0
  8 22  1  0  0  0
  9 10  1  0  0  0
  9 27  2  0  0  0
 10 11  2  0  0  0
 10 15  1  0  0  0
 11 12  1  0  0  0
 11 98  1  0  0  0
 12 13  2  0  0  0
 12 99  1  0  0  0
 13 14  1  0  0  0
 13 31  1  0  0  0
 14 15  2  0  0  0
 14100  1  0  0  0
 15101  1  0  0  0
 16 17  2  0  0  0
 16 21  1  0  0  0
 16 31  1  0  0  0
 17 18  1  0  0  0
 17102  1  0  0  0
 18 19  2  0  0  0
 18103  1  0  0  0
 19 20  1  0  0  0
 19 24  1  0  0  0
 20 21  2  0  0  0
 20104  1  0  0  0
 21 23  1  0  0  0
 22 28  1  0  0  0
 22 32  2  0  0  0
 26 27  1  0  0  0
 28105  1  0  0  0
 28106  1  0  0  0
 29107  1  0  0  0
 29108  1  0  0  0
 33 34  1  0  0  0
 33 66  1  0  0  0
 33 70  2  0  0  0
 34 36  1  0  0  0
 34 59  1  0  0  0
 34109  1  0  0  0
 35 44  2  0  0  0
 35 45  1  0  0  0
 35 68  1  0  0  0
 36 56  1  0  0  0
 36110  1  0  0  0
 37 39  1  0  0  0
 37 47  1  0  0  0
 37 66  1  0  0  0
 37111  1  0  0  0
 38 43  2  0  0  0
 38 46  1  0  0  0
 38 47  1  0  0  0
 39 64  1  0  0  0
 39 67  2  0  0  0
 40 52  1  0  0  0
 40 53  2  0  0  0
 40 58  1  0  0  0
 41112  1  0  0  0
 41113  1  0  0  0
 41114  1  0  0  0
 41 48  1  0  0  0
 42 43  1  0  0  0
 42 66  1  0  0  0
 42115  1  0  0  0
 42116  1  0  0  0
 43 44  1  0  0  0
 44117  1  0  0  0
 45 46  2  0  0  0
 45118  1  0  0  0
 46119  1  0  0  0
 47120  1  0  0  0
 47121  1  0  0  0
 48 56  1  0  0  0
 48 65  1  0  0  0
 48122  1  0  0  0
 49 50  1  0  0  0
 49 53  1  0  0  0
 49 64  1  0  0  0
 49123  1  0  0  0
 50 51  1  0  0  0
 50124  1  0  0  0
 50125  1  0  0  0
 51 52  1  0  0  0
 51126  1  0  0  0
 51127  1  0  0  0
 52128  1  0  0  0
 52129  1  0  0  0
 53 54  1  0  0  0
 54 55  2  0  0  0
 54130  1  0  0  0
 55 57  1  0  0  0
 55131  1  0  0  0
 56 69  2  0  0  0
 57 58  2  0  0  0
 57132  1  0  0  0
 58133  1  0  0  0
 59 60  1  0  0  0
 59 61  1  0  0  0
 59 62  1  0  0  0
 60134  1  0  0  0
 60135  1  0  0  0
 60136  1  0  0  0
 61137  1  0  0  0
 61138  1  0  0  0
 61139  1  0  0  0
 62140  1  0  0  0
 62141  1  0  0  0
 62142  1  0  0  0
 63 65  1  0  0  0
 63143  1  0  0  0
 63144  1  0  0  0
 63145  1  0  0  0
 64146  1  0  0  0
 65147  1  0  0  0
 68 84  1  0  0  0
 71 72  2  0  0  0
 71 75  1  0  0  0
 71148  1  0  0  0
 72 79  1  0  0  0
 72149  1  0  0  0
 73 75  2  0  0  0
 73 78  1  0  0  0
 73150  1  0  0  0
 74 76  1  0  0  0
 74 77  2  0  0  0
 74151  1  0  0  0
 75 77  1  0  0  0
 76 78  2  0  0  0
 76 83  1  0  0  0
 77 86  1  0  0  0
 78 88  1  0  0  0
 79 86  2  0  0  0
 79 87  1  0  0  0
 80 81  1  0  0  0
 80 82  1  0  0  0
 80152  1  0  0  0
 80153  1  0  0  0
 81 82  1  0  0  0
 81154  1  0  0  0
 81155  1  0  0  0
 82 83  1  0  0  0
 82156  1  0  0  0
 83157  1  0  0  0
 83158  1  0  0  0
 84 85  1  0  0  0
 84159  1  0  0  0
 84160  1  0  0  0
 85 88  1  0  0  0
 85161  1  0  0  0
 85162  1  0  0  0
 87163  1  0  0  0
M  ISO  4   1 100  68 101  84 101  87 100
M  END
> <chiral flag>
0

> <version>
0

> <s_m_source_file>
/data/baiqing/PycharmProjects/Reinvent-master-3.2/result/LINK_invent/BTK/process_docking_weight1_custom_sum_contain_oxygen_bond_distance_aromatic_linkinvent_7_9_3/rearranged_h_0138.sdf

> <i_m_source_file_index>
45

> <r_mmod_Potential_Energy-OPLS-2005>
-79.3694305419922

> <r_mmod_Stretch_Energy-OPLS-2005>
52.2784996032715

> <r_mmod_Bend_Energy-OPLS-2005>
135.063446044922

> <r_mmod_Torsional_Energy-OPLS-2005>
270.255065917969

> <r_mmod_Improper_Torsional_Energy-OPLS-2005>
4.99100685119629

> <r_mmod_Van_der_Waal_Energy-OPLS-2005>
158.388565063477

> <r_mmod_Electrostatic_Energy-OPLS-2005>
-484.487396240234

> <r_mmod_Solvation_Energy-OPLS-2005>
-237.433120727539

> <b_mmod_Minimization_Converged-OPLS-2005>
0

> <r_mmod_RMS_Derivative-OPLS-2005>
1.26953101158142

$$$$
45
                    3D
 Structure written by MMmdl.
156164  0  0  1  0            999 V2000
  -30.6246  -14.6976   20.4816 C   0  0  0  0  0  0
  -30.4274  -12.4250   19.4666 C   0  0  0  0  0  0
  -29.5031  -12.4955   18.2322 C   0  0  0  0  0  0
  -28.0300  -12.3257   18.6495 C   0  0  0  0  0  0
  -27.6416  -13.2254   19.8514 C   0  0  2  0  0  0
  -28.6857  -13.1423   20.9857 C   0  0  0  0  0  0
  -25.2511  -13.8189   20.5713 C   0  0  0  0  0  0
  -24.1797  -13.0449   20.9232 C   0  0  0  0  0  0
  -24.6377  -11.6920   20.8773 C   0  0  0  0  0  0
  -23.9051  -10.4292   21.0424 C   0  0  0  0  0  0
  -24.3595   -9.4208   21.9208 C   0  0  0  0  0  0
  -23.6284   -8.2242   22.0759 C   0  0  0  0  0  0
  -22.4270   -8.0279   21.3539 C   0  0  0  0  0  0
  -21.9907   -9.0255   20.4644 C   0  0  0  0  0  0
  -22.7228  -10.2141   20.3074 C   0  0  0  0  0  0
  -21.6846   -6.0738   22.5295 C   0  0  0  0  0  0
  -21.3995   -6.5644   23.8223 C   0  0  0  0  0  0
  -21.3669   -5.6808   24.9193 C   0  0  0  0  0  0
  -21.6049   -4.3072   24.7240 C   0  0  0  0  0  0
  -21.8818   -3.8155   23.4364 C   0  0  0  0  0  0
  -21.9178   -4.6964   22.3416 C   0  0  0  0  0  0
  -22.7816  -13.5227   21.1908 C   0  0  0  0  0  0
  -22.1661   -4.2145   21.0998 F   0  0  0  0  0  0
  -21.5636   -3.4563   25.7752 F   0  0  0  0  0  0
  -29.9909  -13.4824   20.4040 N   0  0  0  0  0  0
  -26.2925  -12.9392   20.3293 N   0  0  0  0  0  0
  -25.9300  -11.6536   20.5766 N   0  0  0  0  0  0
  -22.0454  -12.8199   22.0438 N   0  0  0  0  0  0
  -25.4220  -15.1913   20.4113 N   0  0  0  0  0  0
  -31.8126  -14.8061   20.1684 O   0  0  0  0  0  0
  -21.6643   -6.8875   21.4249 O   0  0  0  0  0  0
  -22.3509  -14.5557   20.6773 O   0  0  0  0  0  0
  -24.6276  -31.8561   23.2021 C   0  0  0  0  0  0
  -25.9115  -32.4773   23.8366 C   0  0  1  0  0  0
  -27.2170  -27.2810   20.1419 C   0  0  0  0  0  0
  -25.5895  -33.8571   24.2249 N   0  0  0  0  0  0
  -23.4245  -30.4781   21.5453 C   0  0  2  0  0  0
  -24.8746  -28.9253   20.1200 C   0  0  0  0  0  0
  -22.7459  -29.4602   22.4920 C   0  0  0  0  0  0
  -18.0272  -28.1374   22.8467 C   0  0  0  0  0  0
  -24.1487  -36.7337   23.2635 C   0  0  0  0  0  0
  -25.9684  -30.7770   21.3806 C   0  0  0  0  0  0
  -26.0430  -29.3971   20.7329 C   0  0  0  0  0  0
  -27.2208  -28.5863   20.7336 C   0  0  0  0  0  0
  -26.0365  -26.8826   19.4827 C   0  0  0  0  0  0
  -24.8739  -27.6744   19.4858 C   0  0  0  0  0  0
  -23.6448  -29.8100   20.1624 C   0  0  0  0  0  0
  -25.4109  -36.3078   24.0300 C   0  0  1  0  0  0
  -20.5868  -28.3695   23.1265 C   0  0  2  0  0  0
  -20.6767  -26.9419   22.5387 C   0  0  0  0  0  0
  -19.5752  -26.6383   21.5180 C   0  0  0  0  0  0
  -18.1928  -26.7923   22.1601 C   0  0  0  0  0  0
  -19.1527  -28.8848   23.2862 C   0  0  0  0  0  0
  -18.9457  -30.1438   23.8887 C   0  0  0  0  0  0
  -17.6459  -30.6580   24.0556 C   0  0  0  0  0  0
  -25.9054  -34.9438   23.5081 C   0  0  0  0  0  0
  -16.5343  -29.9086   23.6334 C   0  0  0  0  0  0
  -16.7264  -28.6496   23.0354 C   0  0  0  0  0  0
  -26.4488  -31.6609   25.0754 C   0  0  0  0  0  0
  -25.3706  -31.3776   26.1468 C   0  0  0  0  0  0
  -27.0348  -30.3013   24.6266 C   0  0  0  0  0  0
  -27.6027  -32.4376   25.7533 C   0  0  0  0  0  0
  -27.5581  -37.1803   24.8444 C   0  0  0  0  0  0
  -21.4164  -29.3073   22.3679 N   0  0  0  0  0  0
  -26.4281  -37.3775   23.9405 N   0  0  0  0  0  0
  -24.6928  -31.0536   22.1008 N   0  0  0  0  0  0
  -23.4161  -28.8116   23.2993 O   0  0  0  0  0  0
  -28.3301  -26.4223   20.0983 O   0  0  0  0  0  0
  -26.5642  -34.8899   22.4659 O   0  0  0  0  0  0
  -23.5429  -32.1375   23.7317 O   0  0  0  0  0  0
  -27.3959  -22.8754   21.4926 C   0  0  0  0  0  0
  -27.0012  -24.3164   21.0495 C   0  0  0  0  0  0
  -29.0573  -23.8337   20.0011 C   0  0  0  0  0  0
  -28.7753  -22.5236   20.8651 C   0  0  2  0  0  0
  -28.3152  -25.0474   20.7049 C   0  0  1  0  0  0
  -29.2819  -18.4617   20.3769 C   0  0  0  0  0  0
  -30.2815  -17.2799   20.8352 C   0  0  0  0  0  0
  -29.5719  -19.9809   20.8620 C   0  0  0  0  0  0
  -29.8553  -15.8199   20.7183 N   0  0  0  0  0  0
  -28.8121  -21.1369   20.1975 N   0  3  0  0  0  0
  -31.4707  -12.5404   19.1662 H   0  0  0  0  0  0
  -30.3604  -11.4461   19.9434 H   0  0  0  0  0  0
  -29.7769  -11.7260   17.5106 H   0  0  0  0  0  0
  -29.6365  -13.4510   17.7247 H   0  0  0  0  0  0
  -27.8857  -11.2785   18.9152 H   0  0  0  0  0  0
  -27.3701  -12.5154   17.8033 H   0  0  0  0  0  0
  -27.6424  -14.2484   19.4743 H   0  0  0  0  0  0
  -28.7109  -12.1412   21.4195 H   0  0  0  0  0  0
  -28.4274  -13.8190   21.8015 H   0  0  0  0  0  0
  -25.2721   -9.5713   22.4805 H   0  0  0  0  0  0
  -24.0001   -7.4636   22.7473 H   0  0  0  0  0  0
  -21.0848   -8.8766   19.8943 H   0  0  0  0  0  0
  -22.3670  -10.9687   19.6198 H   0  0  0  0  0  0
  -21.1981   -7.6146   23.9715 H   0  0  0  0  0  0
  -21.1503   -6.0546   25.9091 H   0  0  0  0  0  0
  -22.0579   -2.7615   23.2877 H   0  0  0  0  0  0
  -22.4042  -11.9835   22.4800 H   0  0  0  0  0  0
  -21.1072  -13.1224   22.2659 H   0  0  0  0  0  0
  -24.6539  -15.8450   20.5152 H   0  0  0  0  0  0
  -26.2656  -15.6257   20.0607 H   0  0  0  0  0  0
  -26.7178  -32.5395   23.1114 H   0  0  0  0  0  0
  -24.9935  -33.9726   25.0316 H   0  0  0  0  0  0
  -22.7204  -31.2989   21.3986 H   0  0  0  0  0  0
  -23.3714  -35.9711   23.3287 H   0  0  0  0  0  0
  -24.3557  -36.8997   22.2057 H   0  0  0  0  0  0
  -23.7280  -37.6529   23.6708 H   0  0  0  0  0  0
  -26.0936  -31.5298   20.6009 H   0  0  0  0  0  0
  -26.8485  -30.8355   22.0099 H   0  0  0  0  0  0
  -28.1246  -28.9465   21.2053 H   0  0  0  0  0  0
  -26.0077  -25.9461   18.9454 H   0  0  0  0  0  0
  -23.9835  -27.3172   18.9881 H   0  0  0  0  0  0
  -23.7688  -30.5806   19.4015 H   0  0  0  0  0  0
  -22.7631  -29.2414   19.8636 H   0  0  0  0  0  0
  -25.1297  -36.1923   25.0793 H   0  0  0  0  0  0
  -20.9967  -28.3282   24.1390 H   0  0  0  0  0  0
  -20.5650  -26.2316   23.3587 H   0  0  0  0  0  0
  -21.6648  -26.7450   22.1206 H   0  0  0  0  0  0
  -19.6920  -25.6288   21.1229 H   0  0  0  0  0  0
  -19.6693  -27.3171   20.6683 H   0  0  0  0  0  0
  -17.4207  -26.6649   21.4003 H   0  0  0  0  0  0
  -18.0342  -26.0038   22.8976 H   0  0  0  0  0  0
  -19.7927  -30.7224   24.2302 H   0  0  0  0  0  0
  -17.5027  -31.6262   24.5152 H   0  0  0  0  0  0
  -15.5345  -30.2997   23.7666 H   0  0  0  0  0  0
  -15.8647  -28.0804   22.7127 H   0  0  0  0  0  0
  -24.5854  -30.7159   25.7789 H   0  0  0  0  0  0
  -24.8935  -32.2975   26.4870 H   0  0  0  0  0  0
  -25.8005  -30.8945   27.0258 H   0  0  0  0  0  0
  -26.2952  -29.6725   24.1289 H   0  0  0  0  0  0
  -27.4002  -29.7310   25.4815 H   0  0  0  0  0  0
  -27.8845  -30.4262   23.9543 H   0  0  0  0  0  0
  -27.2626  -33.3708   26.2042 H   0  0  0  0  0  0
  -28.3889  -32.6886   25.0404 H   0  0  0  0  0  0
  -28.0665  -31.8562   26.5517 H   0  0  0  0  0  0
  -28.2566  -38.0130   24.7510 H   0  0  0  0  0  0
  -28.1110  -36.2653   24.6262 H   0  0  0  0  0  0
  -27.2296  -37.1430   25.8839 H   0  0  0  0  0  0
  -20.9333  -29.8837   21.6922 H   0  0  0  0  0  0
  -26.0150  -38.2841   24.1423 H   0  0  0  0  0  0
  -26.6126  -22.1701   21.2151 H   0  0  0  0  0  0
  -27.4759  -22.8268   22.5807 H   0  0  0  0  0  0
  -26.4021  -24.8344   21.8028 H   0  0  0  0  0  0
  -26.3814  -24.2179   20.1571 H   0  0  0  0  0  0
  -28.6636  -23.7060   18.9906 H   0  0  0  0  0  0
  -30.1280  -24.0163   19.9003 H   0  0  0  0  0  0
  -29.5179  -22.5176   21.6652 H   0  0  0  0  0  0
  -28.8220  -25.2010   21.6597 H   0  0  0  0  0  0
  -28.2777  -18.1995   20.7074 H   0  0  0  0  0  0
  -29.2411  -18.4477   19.2869 H   0  0  0  0  0  0
  -30.5374  -17.4449   21.8822 H   0  0  0  0  0  0
  -31.2189  -17.4071   20.2896 H   0  0  0  0  0  0
  -30.6373  -20.1862   20.7477 H   0  0  0  0  0  0
  -29.3773  -20.0325   21.9349 H   0  0  0  0  0  0
  -28.8808  -15.6312   20.8983 H   0  0  0  0  0  0
  -29.1870  -21.2454   19.2697 H   0  0  0  0  0  0
  -27.8535  -20.8504   20.0858 H   0  0  0  0  0  0
  1 25  1  0  0  0
  1 30  2  0  0  0
  1 79  1  0  0  0
  2  3  1  0  0  0
  2 25  1  0  0  0
  2 81  1  0  0  0
  2 82  1  0  0  0
  3  4  1  0  0  0
  3 83  1  0  0  0
  3 84  1  0  0  0
  4  5  1  0  0  0
  4 85  1  0  0  0
  4 86  1  0  0  0
  5  6  1  0  0  0
  5 26  1  0  0  0
  5 87  1  0  0  0
  6 25  1  0  0  0
  6 88  1  0  0  0
  6 89  1  0  0  0
  7  8  2  0  0  0
  7 26  1  0  0  0
  7 29  1  0  0  0
  8  9  1  0  0  0
  8 22  1  0  0  0
  9 10  1  0  0  0
  9 27  2  0  0  0
 10 11  2  0  0  0
 10 15  1  0  0  0
 11 12  1  0  0  0
 11 90  1  0  0  0
 12 13  2  0  0  0
 12 91  1  0  0  0
 13 14  1  0  0  0
 13 31  1  0  0  0
 14 15  2  0  0  0
 14 92  1  0  0  0
 15 93  1  0  0  0
 16 17  2  0  0  0
 16 21  1  0  0  0
 16 31  1  0  0  0
 17 18  1  0  0  0
 17 94  1  0  0  0
 18 19  2  0  0  0
 18 95  1  0  0  0
 19 20  1  0  0  0
 19 24  1  0  0  0
 20 21  2  0  0  0
 20 96  1  0  0  0
 21 23  1  0  0  0
 22 28  1  0  0  0
 22 32  2  0  0  0
 26 27  1  0  0  0
 28 97  1  0  0  0
 28 98  1  0  0  0
 29 99  1  0  0  0
 29100  1  0  0  0
 33 34  1  0  0  0
 33 66  1  0  0  0
 33 70  2  0  0  0
 34 36  1  0  0  0
 34 59  1  0  0  0
 34101  1  0  0  0
 35 44  2  0  0  0
 35 45  1  0  0  0
 35 68  1  0  0  0
 36 56  1  0  0  0
 36102  1  0  0  0
 37 39  1  0  0  0
 37 47  1  0  0  0
 37 66  1  0  0  0
 37103  1  0  0  0
 38 43  2  0  0  0
 38 46  1  0  0  0
 38 47  1  0  0  0
 39 64  1  0  0  0
 39 67  2  0  0  0
 40 52  1  0  0  0
 40 53  2  0  0  0
 40 58  1  0  0  0
 41104  1  0  0  0
 41105  1  0  0  0
 41106  1  0  0  0
 41 48  1  0  0  0
 42 43  1  0  0  0
 42 66  1  0  0  0
 42107  1  0  0  0
 42108  1  0  0  0
 43 44  1  0  0  0
 44109  1  0  0  0
 45 46  2  0  0  0
 45110  1  0  0  0
 46111  1  0  0  0
 47112  1  0  0  0
 47113  1  0  0  0
 48 56  1  0  0  0
 48 65  1  0  0  0
 48114  1  0  0  0
 49 50  1  0  0  0
 49 53  1  0  0  0
 49 64  1  0  0  0
 49115  1  0  0  0
 50 51  1  0  0  0
 50116  1  0  0  0
 50117  1  0  0  0
 51 52  1  0  0  0
 51118  1  0  0  0
 51119  1  0  0  0
 52120  1  0  0  0
 52121  1  0  0  0
 53 54  1  0  0  0
 54 55  2  0  0  0
 54122  1  0  0  0
 55 57  1  0  0  0
 55123  1  0  0  0
 56 69  2  0  0  0
 57 58  2  0  0  0
 57124  1  0  0  0
 58125  1  0  0  0
 59 60  1  0  0  0
 59 61  1  0  0  0
 59 62  1  0  0  0
 60126  1  0  0  0
 60127  1  0  0  0
 60128  1  0  0  0
 61129  1  0  0  0
 61130  1  0  0  0
 61131  1  0  0  0
 62132  1  0  0  0
 62133  1  0  0  0
 62134  1  0  0  0
 63 65  1  0  0  0
 63135  1  0  0  0
 63136  1  0  0  0
 63137  1  0  0  0
 64138  1  0  0  0
 65139  1  0  0  0
 68 75  1  0  0  0
 71 72  1  0  0  0
 71 74  1  0  0  0
 71140  1  0  0  0
 71141  1  0  0  0
 72 75  1  0  0  0
 72142  1  0  0  0
 72143  1  0  0  0
 73 74  1  0  0  0
 73 75  1  0  0  0
 73144  1  0  0  0
 73145  1  0  0  0
 74 80  1  0  0  0
 74146  1  0  0  0
 75147  1  0  0  0
 76 77  1  0  0  0
 76 78  1  0  0  0
 76148  1  0  0  0
 76149  1  0  0  0
 77 79  1  0  0  0
 77150  1  0  0  0
 77151  1  0  0  0
 78 80  1  0  0  0
 78152  1  0  0  0
 78153  1  0  0  0
 79154  1  0  0  0
 80155  1  0  0  0
 80156  1  0  0  0
M  CHG  1  80   1
M  ISO  4   1 100  68 101  75 101  79 100
M  END
> <chiral flag>
0

> <version>
0

> <s_m_source_file>
/data/baiqing/PycharmProjects/Reinvent-master-3.2/result/LINK_invent/BTK/process_docking_weight1_custom_sum_contain_oxygen_bond_distance_aromatic_linkinvent_7_9_3/rearranged_h_0138.sdf

> <i_m_source_file_index>
46

> <r_mmod_Potential_Energy-OPLS-2005>
44.4912414550781

> <r_mmod_Stretch_Energy-OPLS-2005>
104.549491882324

> <r_mmod_Bend_Energy-OPLS-2005>
199.547729492188

> <r_mmod_Torsional_Energy-OPLS-2005>
281.634094238281

> <r_mmod_Improper_Torsional_Energy-OPLS-2005>
4.51611375808716

> <r_mmod_Van_der_Waal_Energy-OPLS-2005>
116.324966430664

> <r_mmod_Electrostatic_Energy-OPLS-2005>
-245.935699462891

> <r_mmod_Solvation_Energy-OPLS-2005>
-483.216430664062

> <b_mmod_Minimization_Converged-OPLS-2005>
0

> <r_mmod_RMS_Derivative-OPLS-2005>
3.44953632354736

$$$$
46
                    3D
 Structure written by MMmdl.
173182  0  0  1  0            999 V2000
  -30.6654  -14.4406   20.5679 C   0  0  0  0  0  0
  -30.4214  -12.2597   19.4362 C   0  0  0  0  0  0
  -29.5055  -12.4829   18.2111 C   0  0  0  0  0  0
  -28.0216  -12.3532   18.6225 C   0  0  0  0  0  0
  -27.6742  -13.1851   19.8913 C   0  0  2  0  0  0
  -28.7073  -12.9183   21.0089 C   0  0  0  0  0  0
  -25.2661  -13.8099   20.5700 C   0  0  0  0  0  0
  -24.1906  -13.0445   20.9181 C   0  0  0  0  0  0
  -24.6408  -11.6884   20.8753 C   0  0  0  0  0  0
  -23.9079  -10.4285   21.0391 C   0  0  0  0  0  0
  -24.3643   -9.4199   21.9176 C   0  0  0  0  0  0
  -23.6326   -8.2225   22.0756 C   0  0  0  0  0  0
  -22.4296   -8.0291   21.3540 C   0  0  0  0  0  0
  -21.9924   -9.0255   20.4627 C   0  0  0  0  0  0
  -22.7245  -10.2134   20.3034 C   0  0  0  0  0  0
  -21.6852   -6.0786   22.5290 C   0  0  0  0  0  0
  -21.4019   -6.5689   23.8233 C   0  0  0  0  0  0
  -21.3650   -5.6810   24.9183 C   0  0  0  0  0  0
  -21.6042   -4.3066   24.7209 C   0  0  0  0  0  0
  -21.8817   -3.8183   23.4315 C   0  0  0  0  0  0
  -21.9209   -4.7019   22.3389 C   0  0  0  0  0  0
  -22.7929  -13.5212   21.1896 C   0  0  0  0  0  0
  -22.1656   -4.2211   21.0959 F   0  0  0  0  0  0
  -21.5610   -3.4551   25.7714 F   0  0  0  0  0  0
  -30.0398  -13.2384   20.4654 N   0  0  0  0  0  0
  -26.3110  -12.9257   20.3429 N   0  0  0  0  0  0
  -25.9358  -11.6450   20.5815 N   0  0  0  0  0  0
  -22.0617  -12.8137   22.0420 N   0  0  0  0  0  0
  -25.4472  -15.1819   20.3999 N   0  0  0  0  0  0
  -31.7892  -14.6572   20.0939 O   0  0  0  0  0  0
  -21.6645   -6.8910   21.4246 O   0  0  0  0  0  0
  -22.3585  -14.5578   20.6820 O   0  0  0  0  0  0
  -24.6118  -31.8772   23.2042 C   0  0  0  0  0  0
  -25.9036  -32.4889   23.8315 C   0  0  1  0  0  0
  -27.1978  -27.4557   20.1773 C   0  0  0  0  0  0
  -25.5967  -33.8672   24.2361 N   0  0  0  0  0  0
  -23.3929  -30.5048   21.5450 C   0  0  2  0  0  0
  -24.8251  -28.9835   20.0965 C   0  0  0  0  0  0
  -22.7387  -29.4792   22.4958 C   0  0  0  0  0  0
  -18.0280  -28.1484   22.8578 C   0  0  0  0  0  0
  -24.1497  -36.7316   23.2611 C   0  0  0  0  0  0
  -25.9006  -30.8825   21.3194 C   0  0  0  0  0  0
  -25.9828  -29.5096   20.6852 C   0  0  0  0  0  0
  -27.1682  -28.7598   20.7091 C   0  0  0  0  0  0
  -26.0442  -26.9560   19.5276 C   0  0  0  0  0  0
  -24.8561  -27.7126   19.5006 C   0  0  0  0  0  0
  -23.5885  -29.8428   20.1509 C   0  0  0  0  0  0
  -25.4099  -36.3167   24.0354 C   0  0  1  0  0  0
  -20.5876  -28.3715   23.1440 C   0  0  2  0  0  0
  -20.6779  -26.9477   22.5476 C   0  0  0  0  0  0
  -19.5735  -26.6496   21.5290 C   0  0  0  0  0  0
  -18.1911  -26.8066   22.1683 C   0  0  0  0  0  0
  -19.1543  -28.8919   23.3032 C   0  0  0  0  0  0
  -18.9433  -30.1502   23.9048 C   0  0  0  0  0  0
  -17.6438  -30.6679   24.0655 C   0  0  0  0  0  0
  -25.9003  -34.9505   23.5160 C   0  0  0  0  0  0
  -16.5322  -29.9215   23.6354 C   0  0  0  0  0  0
  -16.7282  -28.6640   23.0404 C   0  0  0  0  0  0
  -26.4422  -31.6563   25.0578 C   0  0  0  0  0  0
  -25.3737  -31.3631   26.1371 C   0  0  0  0  0  0
  -26.9996  -30.2994   24.5646 C   0  0  0  0  0  0
  -27.6059  -32.4081   25.7376 C   0  0  0  0  0  0
  -27.5581  -37.1832   24.8477 C   0  0  0  0  0  0
  -21.4115  -29.3069   22.3749 N   0  0  0  0  0  0
  -26.4275  -37.3859   23.9444 N   0  0  0  0  0  0
  -24.6582  -31.0992   22.0851 N   0  0  0  0  0  0
  -23.4203  -28.8360   23.3010 O   0  0  0  0  0  0
  -28.2918  -26.6431   20.3555 O   0  0  0  0  0  0
  -26.5561  -34.8983   22.4713 O   0  0  0  0  0  0
  -23.5360  -32.1445   23.7531 O   0  0  0  0  0  0
  -29.6585  -17.8362   22.8126 C   0  0  0  0  0  0
  -30.6428  -19.1400   21.0353 C   0  0  0  0  0  0
  -30.0842  -17.9304   21.4810 C   0  0  0  0  0  0
  -29.7169  -18.9614   23.6622 C   0  0  0  0  0  0
  -30.7148  -20.2819   21.8576 C   0  0  0  0  0  0
  -30.1320  -20.2418   23.1682 C   0  0  0  0  0  0
  -28.9014  -24.3761   24.7783 C   0  0  0  0  0  0
  -30.3299  -23.8067   24.7647 C   0  0  0  0  0  0
  -29.5461  -23.5094   22.5781 C   0  0  0  0  0  0
  -28.4178  -24.2655   23.3133 C   0  0  1  0  0  0
  -29.3020  -18.7147   25.1131 C   0  0  0  0  0  0
  -31.4163  -21.4798   21.2091 C   0  0  0  0  0  0
  -29.9136  -16.8009   20.4731 C   0  0  0  0  0  0
  -29.8326  -21.4854   24.0521 C   0  0  0  0  0  0
  -28.6842  -26.4790   21.7554 C   0  0  0  0  0  0
  -27.7781  -25.5159   22.6189 C   0  0  2  0  0  0
  -29.8663  -15.4324   20.9904 N   0  0  0  0  0  0
  -30.3374  -22.8310   23.6437 N   0  3  2  0  0  0
  -27.0460  -26.2261   23.6165 O   0  0  0  0  0  0
  -31.4751  -12.3250   19.1580 H   0  0  0  0  0  0
  -30.2855  -11.2490   19.8195 H   0  0  0  0  0  0
  -29.7380  -11.7528   17.4360 H   0  0  0  0  0  0
  -29.6934  -13.4678   17.7731 H   0  0  0  0  0  0
  -27.8217  -11.2990   18.8219 H   0  0  0  0  0  0
  -27.3725  -12.6325   17.7946 H   0  0  0  0  0  0
  -27.7363  -14.2358   19.6068 H   0  0  0  0  0  0
  -28.6843  -11.8659   21.3032 H   0  0  0  0  0  0
  -28.4873  -13.4814   21.9168 H   0  0  0  0  0  0
  -25.2813   -9.5693   22.4762 H   0  0  0  0  0  0
  -24.0077   -7.4589   22.7442 H   0  0  0  0  0  0
  -21.0880   -8.8741   19.8922 H   0  0  0  0  0  0
  -22.3695  -10.9693   19.6120 H   0  0  0  0  0  0
  -21.2024   -7.6195   23.9757 H   0  0  0  0  0  0
  -21.1461   -6.0537   25.9085 H   0  0  0  0  0  0
  -22.0623   -2.7655   23.2797 H   0  0  0  0  0  0
  -22.4242  -11.9662   22.4555 H   0  0  0  0  0  0
  -21.1220  -13.1152   22.2798 H   0  0  0  0  0  0
  -24.6906  -15.8470   20.5061 H   0  0  0  0  0  0
  -26.2975  -15.6062   20.0607 H   0  0  0  0  0  0
  -26.7143  -32.5645   23.1161 H   0  0  0  0  0  0
  -25.0227  -33.9809   25.0593 H   0  0  0  0  0  0
  -22.6719  -31.3171   21.4260 H   0  0  0  0  0  0
  -23.3744  -35.9670   23.3268 H   0  0  0  0  0  0
  -24.3584  -36.8879   22.2009 H   0  0  0  0  0  0
  -23.7223  -37.6537   23.6553 H   0  0  0  0  0  0
  -25.9466  -31.6276   20.5234 H   0  0  0  0  0  0
  -26.8143  -30.9801   21.8910 H   0  0  0  0  0  0
  -28.0565  -29.1696   21.1720 H   0  0  0  0  0  0
  -26.0360  -25.9594   19.1000 H   0  0  0  0  0  0
  -23.9615  -27.3148   19.0387 H   0  0  0  0  0  0
  -23.6880  -30.6249   19.3951 H   0  0  0  0  0  0
  -22.7114  -29.2600   19.8639 H   0  0  0  0  0  0
  -25.1227  -36.2037   25.0831 H   0  0  0  0  0  0
  -20.9963  -28.3235   24.1588 H   0  0  0  0  0  0
  -20.5725  -26.2294   23.3617 H   0  0  0  0  0  0
  -21.6653  -26.7555   22.1246 H   0  0  0  0  0  0
  -19.6834  -25.6407   21.1325 H   0  0  0  0  0  0
  -19.6742  -27.3299   20.6813 H   0  0  0  0  0  0
  -17.4218  -26.6974   21.4016 H   0  0  0  0  0  0
  -18.0239  -26.0134   22.8974 H   0  0  0  0  0  0
  -19.7840  -30.7350   24.2504 H   0  0  0  0  0  0
  -17.4951  -31.6363   24.5207 H   0  0  0  0  0  0
  -15.5333  -30.3186   23.7547 H   0  0  0  0  0  0
  -15.8685  -28.0974   22.7100 H   0  0  0  0  0  0
  -24.6200  -30.6631   25.7806 H   0  0  0  0  0  0
  -24.8666  -32.2724   26.4543 H   0  0  0  0  0  0
  -25.8221  -30.9169   27.0272 H   0  0  0  0  0  0
  -26.2537  -29.7197   24.0258 H   0  0  0  0  0  0
  -27.3250  -29.6730   25.3930 H   0  0  0  0  0  0
  -27.8555  -30.4198   23.9019 H   0  0  0  0  0  0
  -27.2890  -33.3491   26.1870 H   0  0  0  0  0  0
  -28.4072  -32.6396   25.0339 H   0  0  0  0  0  0
  -28.0517  -31.8192   26.5410 H   0  0  0  0  0  0
  -28.2638  -38.0091   24.7584 H   0  0  0  0  0  0
  -28.1058  -36.2641   24.6318 H   0  0  0  0  0  0
  -27.2310  -37.1518   25.8880 H   0  0  0  0  0  0
  -20.9231  -29.8771   21.6974 H   0  0  0  0  0  0
  -26.0153  -38.2920   24.1524 H   0  0  0  0  0  0
  -29.2211  -16.9172   23.1840 H   0  0  0  0  0  0
  -31.0006  -19.2074   20.0148 H   0  0  0  0  0  0
  -28.8291  -25.3658   25.2307 H   0  0  0  0  0  0
  -28.2682  -23.7200   25.3916 H   0  0  0  0  0  0
  -30.6329  -23.4068   25.7291 H   0  0  0  0  0  0
  -31.0451  -24.6034   24.5441 H   0  0  0  0  0  0
  -30.2531  -24.1555   22.0415 H   0  0  0  0  0  0
  -29.0988  -22.8616   21.8254 H   0  0  0  0  0  0
  -27.6060  -23.5385   23.3548 H   0  0  0  0  0  0
  -29.1353  -17.6481   25.2914 H   0  0  0  0  0  0
  -28.3685  -19.2152   25.3567 H   0  0  0  0  0  0
  -30.0852  -19.0009   25.8172 H   0  0  0  0  0  0
  -32.0955  -21.1614   20.4145 H   0  0  0  0  0  0
  -32.0313  -22.0626   21.8986 H   0  0  0  0  0  0
  -30.6967  -22.1092   20.6955 H   0  0  0  0  0  0
  -28.9726  -16.9883   19.9554 H   0  0  0  0  0  0
  -30.6754  -16.8973   19.6991 H   0  0  0  0  0  0
  -30.2450  -21.2902   25.0439 H   0  0  0  0  0  0
  -28.7412  -21.5413   24.1674 H   0  0  0  0  0  0
  -29.7164  -26.1579   21.7660 H   0  0  0  0  0  0
  -28.7667  -27.4346   22.2679 H   0  0  0  0  0  0
  -27.0078  -25.1210   21.9513 H   0  0  0  0  0  0
  -28.9650  -15.1428   21.3347 H   0  0  0  0  0  0
  -31.2918  -22.6933   23.3407 H   0  0  0  0  0  0
  -27.6204  -26.3512   24.3661 H   0  0  0  0  0  0
  1 25  1  0  0  0
  1 30  2  0  0  0
  1 87  1  0  0  0
  2  3  1  0  0  0
  2 25  1  0  0  0
  2 90  1  0  0  0
  2 91  1  0  0  0
  3  4  1  0  0  0
  3 92  1  0  0  0
  3 93  1  0  0  0
  4  5  1  0  0  0
  4 94  1  0  0  0
  4 95  1  0  0  0
  5  6  1  0  0  0
  5 26  1  0  0  0
  5 96  1  0  0  0
  6 25  1  0  0  0
  6 97  1  0  0  0
  6 98  1  0  0  0
  7  8  2  0  0  0
  7 26  1  0  0  0
  7 29  1  0  0  0
  8  9  1  0  0  0
  8 22  1  0  0  0
  9 10  1  0  0  0
  9 27  2  0  0  0
 10 11  2  0  0  0
 10 15  1  0  0  0
 11 12  1  0  0  0
 11 99  1  0  0  0
 12 13  2  0  0  0
 12100  1  0  0  0
 13 14  1  0  0  0
 13 31  1  0  0  0
 14 15  2  0  0  0
 14101  1  0  0  0
 15102  1  0  0  0
 16 17  2  0  0  0
 16 21  1  0  0  0
 16 31  1  0  0  0
 17 18  1  0  0  0
 17103  1  0  0  0
 18 19  2  0  0  0
 18104  1  0  0  0
 19 20  1  0  0  0
 19 24  1  0  0  0
 20 21  2  0  0  0
 20105  1  0  0  0
 21 23  1  0  0  0
 22 28  1  0  0  0
 22 32  2  0  0  0
 26 27  1  0  0  0
 28106  1  0  0  0
 28107  1  0  0  0
 29108  1  0  0  0
 29109  1  0  0  0
 33 34  1  0  0  0
 33 66  1  0  0  0
 33 70  2  0  0  0
 34 36  1  0  0  0
 34 59  1  0  0  0
 34110  1  0  0  0
 35 44  2  0  0  0
 35 45  1  0  0  0
 35 68  1  0  0  0
 36 56  1  0  0  0
 36111  1  0  0  0
 37 39  1  0  0  0
 37 47  1  0  0  0
 37 66  1  0  0  0
 37112  1  0  0  0
 38 43  2  0  0  0
 38 46  1  0  0  0
 38 47  1  0  0  0
 39 64  1  0  0  0
 39 67  2  0  0  0
 40 52  1  0  0  0
 40 53  2  0  0  0
 40 58  1  0  0  0
 41113  1  0  0  0
 41114  1  0  0  0
 41115  1  0  0  0
 41 48  1  0  0  0
 42 43  1  0  0  0
 42 66  1  0  0  0
 42116  1  0  0  0
 42117  1  0  0  0
 43 44  1  0  0  0
 44118  1  0  0  0
 45 46  2  0  0  0
 45119  1  0  0  0
 46120  1  0  0  0
 47121  1  0  0  0
 47122  1  0  0  0
 48 56  1  0  0  0
 48 65  1  0  0  0
 48123  1  0  0  0
 49 50  1  0  0  0
 49 53  1  0  0  0
 49 64  1  0  0  0
 49124  1  0  0  0
 50 51  1  0  0  0
 50125  1  0  0  0
 50126  1  0  0  0
 51 52  1  0  0  0
 51127  1  0  0  0
 51128  1  0  0  0
 52129  1  0  0  0
 52130  1  0  0  0
 53 54  1  0  0  0
 54 55  2  0  0  0
 54131  1  0  0  0
 55 57  1  0  0  0
 55132  1  0  0  0
 56 69  2  0  0  0
 57 58  2  0  0  0
 57133  1  0  0  0
 58134  1  0  0  0
 59 60  1  0  0  0
 59 61  1  0  0  0
 59 62  1  0  0  0
 60135  1  0  0  0
 60136  1  0  0  0
 60137  1  0  0  0
 61138  1  0  0  0
 61139  1  0  0  0
 61140  1  0  0  0
 62141  1  0  0  0
 62142  1  0  0  0
 62143  1  0  0  0
 63 65  1  0  0  0
 63144  1  0  0  0
 63145  1  0  0  0
 63146  1  0  0  0
 64147  1  0  0  0
 65148  1  0  0  0
 68 85  1  0  0  0
 71 73  2  0  0  0
 71 74  1  0  0  0
 71149  1  0  0  0
 72 73  1  0  0  0
 72 75  2  0  0  0
 72150  1  0  0  0
 73 83  1  0  0  0
 74 76  2  0  0  0
 74 81  1  0  0  0
 75 76  1  0  0  0
 75 82  1  0  0  0
 76 84  1  0  0  0
 77 78  1  0  0  0
 77151  1  0  0  0
 77152  1  0  0  0
 77 80  1  0  0  0
 78 88  1  0  0  0
 78153  1  0  0  0
 78154  1  0  0  0
 79 80  1  0  0  0
 79 88  1  0  0  0
 79155  1  0  0  0
 79156  1  0  0  0
 80 86  1  0  0  0
 80157  1  0  0  0
 81158  1  0  0  0
 81159  1  0  0  0
 81160  1  0  0  0
 82161  1  0  0  0
 82162  1  0  0  0
 82163  1  0  0  0
 83 87  1  0  0  0
 83164  1  0  0  0
 83165  1  0  0  0
 84166  1  0  0  0
 84167  1  0  0  0
 84 88  1  0  0  0
 85 86  1  0  0  0
 85168  1  0  0  0
 85169  1  0  0  0
 86 89  1  0  0  0
 86170  1  0  0  0
 87171  1  0  0  0
 88172  1  0  0  0
 89173  1  0  0  0
M  CHG  1  88   1
M  ISO  4   1 100  68 101  85 101  87 100
M  END
> <chiral flag>
0

> <version>
0

> <s_m_source_file>
/data/baiqing/PycharmProjects/Reinvent-master-3.2/result/LINK_invent/BTK/process_docking_weight1_custom_sum_contain_oxygen_bond_distance_aromatic_linkinvent_7_9_3/rearranged_h_0138.sdf

> <i_m_source_file_index>
47

> <r_mmod_Potential_Energy-OPLS-2005>
-19.1357498168945

> <r_mmod_Stretch_Energy-OPLS-2005>
50.6645240783691

> <r_mmod_Bend_Energy-OPLS-2005>
170.913040161133

> <r_mmod_Torsional_Energy-OPLS-2005>
325.331390380859

> <r_mmod_Improper_Torsional_Energy-OPLS-2005>
8.61974716186523

> <r_mmod_Van_der_Waal_Energy-OPLS-2005>
167.490325927734

> <r_mmod_Electrostatic_Energy-OPLS-2005>
-293.994537353516

> <r_mmod_Solvation_Energy-OPLS-2005>
-473.879150390625

> <b_mmod_Minimization_Converged-OPLS-2005>
0

> <r_mmod_RMS_Derivative-OPLS-2005>
13.96116065979

$$$$
47
                    3D
 Structure written by MMmdl.
165174  0  0  1  0            999 V2000
  -30.7261  -14.5847   20.5069 C   0  0  0  0  0  0
  -30.4115  -12.3803   19.4230 C   0  0  0  0  0  0
  -29.4832  -12.5061   18.1993 C   0  0  0  0  0  0
  -28.0073  -12.3639   18.6208 C   0  0  0  0  0  0
  -27.6480  -13.2254   19.8637 C   0  0  2  0  0  0
  -28.7057  -13.0677   20.9760 C   0  0  0  0  0  0
  -25.2542  -13.8197   20.5707 C   0  0  0  0  0  0
  -24.1812  -13.0448   20.9191 C   0  0  0  0  0  0
  -24.6391  -11.6925   20.8743 C   0  0  0  0  0  0
  -23.9053  -10.4308   21.0407 C   0  0  0  0  0  0
  -24.3598   -9.4219   21.9182 C   0  0  0  0  0  0
  -23.6268   -8.2257   22.0758 C   0  0  0  0  0  0
  -22.4261   -8.0286   21.3544 C   0  0  0  0  0  0
  -21.9897   -9.0255   20.4640 C   0  0  0  0  0  0
  -22.7227  -10.2136   20.3043 C   0  0  0  0  0  0
  -21.6854   -6.0726   22.5272 C   0  0  0  0  0  0
  -21.4021   -6.5632   23.8198 C   0  0  0  0  0  0
  -21.3662   -5.6785   24.9163 C   0  0  0  0  0  0
  -21.6045   -4.3047   24.7218 C   0  0  0  0  0  0
  -21.8823   -3.8137   23.4346 C   0  0  0  0  0  0
  -21.9192   -4.6952   22.3398 C   0  0  0  0  0  0
  -22.7838  -13.5245   21.1851 C   0  0  0  0  0  0
  -22.1660   -4.2138   21.0978 F   0  0  0  0  0  0
  -21.5632   -3.4532   25.7730 F   0  0  0  0  0  0
  -29.9973  -13.4290   20.3796 N   0  0  0  0  0  0
  -26.2978  -12.9386   20.3377 N   0  0  0  0  0  0
  -25.9323  -11.6532   20.5782 N   0  0  0  0  0  0
  -22.0488  -12.8214   22.0400 N   0  0  0  0  0  0
  -25.4258  -15.1910   20.4125 N   0  0  0  0  0  0
  -31.9340  -14.5492   20.2523 O   0  0  0  0  0  0
  -21.6639   -6.8874   21.4240 O   0  0  0  0  0  0
  -22.3516  -14.5556   20.6714 O   0  0  0  0  0  0
  -24.6244  -31.8644   23.2087 C   0  0  0  0  0  0
  -25.9110  -32.4801   23.8393 C   0  0  1  0  0  0
  -27.2102  -27.3435   20.0970 C   0  0  0  0  0  0
  -25.5939  -33.8602   24.2309 N   0  0  0  0  0  0
  -23.4140  -30.4942   21.5529 C   0  0  2  0  0  0
  -24.8564  -28.9637   20.1097 C   0  0  0  0  0  0
  -22.7455  -29.4654   22.4955 C   0  0  0  0  0  0
  -18.0283  -28.1386   22.8501 C   0  0  0  0  0  0
  -24.1485  -36.7290   23.2628 C   0  0  0  0  0  0
  -25.9571  -30.8015   21.3781 C   0  0  0  0  0  0
  -26.0287  -29.4347   20.7144 C   0  0  0  0  0  0
  -27.2102  -28.6363   20.7028 C   0  0  0  0  0  0
  -26.0111  -26.9366   19.4568 C   0  0  0  0  0  0
  -24.8487  -27.7183   19.4740 C   0  0  0  0  0  0
  -23.6238  -29.8391   20.1652 C   0  0  0  0  0  0
  -25.4103  -36.3095   24.0332 C   0  0  1  0  0  0
  -20.5881  -28.3690   23.1290 C   0  0  2  0  0  0
  -20.6775  -26.9418   22.5412 C   0  0  0  0  0  0
  -19.5742  -26.6389   21.5216 C   0  0  0  0  0  0
  -18.1924  -26.7930   22.1631 C   0  0  0  0  0  0
  -19.1536  -28.8855   23.2886 C   0  0  0  0  0  0
  -18.9454  -30.1460   23.8897 C   0  0  0  0  0  0
  -17.6453  -30.6590   24.0567 C   0  0  0  0  0  0
  -25.9061  -34.9466   23.5120 C   0  0  0  0  0  0
  -16.5346  -29.9089   23.6332 C   0  0  0  0  0  0
  -16.7268  -28.6500   23.0366 C   0  0  0  0  0  0
  -26.4499  -31.6581   25.0738 C   0  0  0  0  0  0
  -25.3732  -31.3690   26.1454 C   0  0  0  0  0  0
  -27.0342  -30.3017   24.6166 C   0  0  0  0  0  0
  -27.6046  -32.4313   25.7522 C   0  0  0  0  0  0
  -27.5599  -37.1770   24.8435 C   0  0  0  0  0  0
  -21.4174  -29.3056   22.3694 N   0  0  0  0  0  0
  -26.4266  -37.3806   23.9452 N   0  0  0  0  0  0
  -24.6842  -31.0679   22.1034 N   0  0  0  0  0  0
  -23.4204  -28.8167   23.2994 O   0  0  0  0  0  0
  -28.3159  -26.4791   20.1523 O   0  0  0  0  0  0
  -26.5618  -34.8924   22.4678 O   0  0  0  0  0  0
  -23.5416  -32.1425   23.7437 O   0  0  0  0  0  0
  -28.4712  -17.7044   21.1050 C   0  0  0  0  0  0
  -30.1244  -18.1814   19.3508 C   0  0  0  0  0  0
  -28.5912  -22.5652   19.4144 C   0  0  0  0  0  0
  -29.2554  -16.4062   21.5060 C   0  0  0  0  0  0
  -30.9005  -16.9127   19.7919 C   0  0  0  0  0  0
  -29.6374  -21.9768   21.4944 C   0  0  0  0  0  0
  -29.3466  -18.8434   20.5113 C   0  0  0  0  0  0
  -29.3222  -21.3664   20.0993 C   0  0  1  0  0  0
  -29.0471  -23.8755   20.1143 C   0  0  1  0  0  0
  -27.7953  -19.8513   18.9075 C   0  0  0  0  0  0
  -28.0185  -25.0565   19.9009 C   0  0  0  0  0  0
  -30.1020  -15.8225   20.4328 N   0  0  0  0  0  0
  -28.5624  -20.0711   20.1422 N   0  0  0  0  0  0
  -29.1981  -23.4031   21.5093 N   0  3  0  0  0  0
  -31.4521  -12.4691   19.1055 H   0  0  0  0  0  0
  -30.3280  -11.3895   19.8723 H   0  0  0  0  0  0
  -29.7327  -11.7510   17.4524 H   0  0  0  0  0  0
  -29.6351  -13.4729   17.7164 H   0  0  0  0  0  0
  -27.8277  -11.3102   18.8343 H   0  0  0  0  0  0
  -27.3521  -12.6195   17.7880 H   0  0  0  0  0  0
  -27.6682  -14.2660   19.5397 H   0  0  0  0  0  0
  -28.7316  -12.0330   21.3242 H   0  0  0  0  0  0
  -28.4707  -13.6465   21.8630 H   0  0  0  0  0  0
  -25.2738   -9.5690   22.4754 H   0  0  0  0  0  0
  -23.9969   -7.4650   22.7483 H   0  0  0  0  0  0
  -21.0835   -8.8769   19.8935 H   0  0  0  0  0  0
  -22.3684  -10.9667   19.6134 H   0  0  0  0  0  0
  -21.2026   -7.6140   23.9699 H   0  0  0  0  0  0
  -21.1477   -6.0518   25.9066 H   0  0  0  0  0  0
  -22.0607   -2.7599   23.2842 H   0  0  0  0  0  0
  -22.4096  -11.9828   22.4703 H   0  0  0  0  0  0
  -21.1112  -13.1225   22.2640 H   0  0  0  0  0  0
  -24.6656  -15.8510   20.5338 H   0  0  0  0  0  0
  -26.2899  -15.6282   20.1206 H   0  0  0  0  0  0
  -26.7171  -32.5483   23.1139 H   0  0  0  0  0  0
  -25.0086  -33.9762   25.0449 H   0  0  0  0  0  0
  -22.7063  -31.3148   21.4184 H   0  0  0  0  0  0
  -23.3799  -35.9564   23.3196 H   0  0  0  0  0  0
  -24.3603  -36.9020   22.2065 H   0  0  0  0  0  0
  -23.7168  -37.6426   23.6717 H   0  0  0  0  0  0
  -26.0906  -31.5694   20.6153 H   0  0  0  0  0  0
  -26.8377  -30.8433   22.0075 H   0  0  0  0  0  0
  -28.1072  -28.9934   21.1895 H   0  0  0  0  0  0
  -25.9144  -25.9986   18.9340 H   0  0  0  0  0  0
  -23.9522  -27.3559   18.9902 H   0  0  0  0  0  0
  -23.7352  -30.6192   19.4110 H   0  0  0  0  0  0
  -22.7431  -29.2670   19.8657 H   0  0  0  0  0  0
  -25.1263  -36.1933   25.0816 H   0  0  0  0  0  0
  -20.9971  -28.3271   24.1410 H   0  0  0  0  0  0
  -20.5686  -26.2297   23.3606 H   0  0  0  0  0  0
  -21.6640  -26.7464   22.1195 H   0  0  0  0  0  0
  -19.6906  -25.6302   21.1233 H   0  0  0  0  0  0
  -19.6663  -27.3197   20.6746 H   0  0  0  0  0  0
  -17.4192  -26.6696   21.4032 H   0  0  0  0  0  0
  -18.0312  -26.0059   22.9015 H   0  0  0  0  0  0
  -19.7933  -30.7280   24.2257 H   0  0  0  0  0  0
  -17.5013  -31.6271   24.5175 H   0  0  0  0  0  0
  -15.5347  -30.2993   23.7648 H   0  0  0  0  0  0
  -15.8666  -28.0808   22.7092 H   0  0  0  0  0  0
  -24.5922  -30.7028   25.7771 H   0  0  0  0  0  0
  -24.8899  -32.2844   26.4890 H   0  0  0  0  0  0
  -25.8062  -30.8857   27.0224 H   0  0  0  0  0  0
  -26.2917  -29.6776   24.1193 H   0  0  0  0  0  0
  -27.4058  -29.7264   25.4653 H   0  0  0  0  0  0
  -27.8777  -30.4319   23.9388 H   0  0  0  0  0  0
  -27.2655  -33.3623   26.2082 H   0  0  0  0  0  0
  -28.3876  -32.6856   25.0366 H   0  0  0  0  0  0
  -28.0686  -31.8446   26.5462 H   0  0  0  0  0  0
  -28.2476  -38.0204   24.7713 H   0  0  0  0  0  0
  -28.1239  -36.2764   24.5974 H   0  0  0  0  0  0
  -27.2357  -37.1058   25.8829 H   0  0  0  0  0  0
  -20.9336  -29.8794   21.6925 H   0  0  0  0  0  0
  -26.0143  -38.2847   24.1585 H   0  0  0  0  0  0
  -27.9361  -18.0800   21.9774 H   0  0  0  0  0  0
  -27.6992  -17.4121   20.3938 H   0  0  0  0  0  0
  -29.4556  -17.8846   18.5422 H   0  0  0  0  0  0
  -30.8268  -18.8951   18.9190 H   0  0  0  0  0  0
  -27.5138  -22.4816   19.5658 H   0  0  0  0  0  0
  -28.7650  -22.5927   18.3381 H   0  0  0  0  0  0
  -28.5175  -15.6945   21.8632 H   0  0  0  0  0  0
  -29.8981  -16.6242   22.3614 H   0  0  0  0  0  0
  -31.6967  -17.2041   20.4800 H   0  0  0  0  0  0
  -31.4002  -16.5309   18.8973 H   0  0  0  0  0  0
  -30.7098  -21.9220   21.6867 H   0  0  0  0  0  0
  -29.1415  -21.4383   22.3032 H   0  0  0  0  0  0
  -30.0615  -19.1325   21.2843 H   0  0  0  0  0  0
  -30.2607  -21.2056   19.5646 H   0  0  0  0  0  0
  -30.0272  -24.1611   19.7289 H   0  0  0  0  0  0
  -27.2995  -18.8817   18.8943 H   0  0  0  0  0  0
  -28.4342  -19.9079   18.0244 H   0  0  0  0  0  0
  -26.9971  -20.5814   18.7815 H   0  0  0  0  0  0
  -27.1127  -24.7825   20.4455 H   0  0  0  0  0  0
  -27.7771  -25.0020   18.8388 H   0  0  0  0  0  0
  -29.8409  -23.9768   22.0335 H   0  0  0  0  0  0
  -28.3044  -23.4354   21.9750 H   0  0  0  0  0  0
  1 25  1  0  0  0
  1 30  2  0  0  0
  1 82  1  0  0  0
  2  3  1  0  0  0
  2 25  1  0  0  0
  2 85  1  0  0  0
  2 86  1  0  0  0
  3  4  1  0  0  0
  3 87  1  0  0  0
  3 88  1  0  0  0
  4  5  1  0  0  0
  4 89  1  0  0  0
  4 90  1  0  0  0
  5  6  1  0  0  0
  5 26  1  0  0  0
  5 91  1  0  0  0
  6 25  1  0  0  0
  6 92  1  0  0  0
  6 93  1  0  0  0
  7  8  2  0  0  0
  7 26  1  0  0  0
  7 29  1  0  0  0
  8  9  1  0  0  0
  8 22  1  0  0  0
  9 10  1  0  0  0
  9 27  2  0  0  0
 10 11  2  0  0  0
 10 15  1  0  0  0
 11 12  1  0  0  0
 11 94  1  0  0  0
 12 13  2  0  0  0
 12 95  1  0  0  0
 13 14  1  0  0  0
 13 31  1  0  0  0
 14 15  2  0  0  0
 14 96  1  0  0  0
 15 97  1  0  0  0
 16 17  2  0  0  0
 16 21  1  0  0  0
 16 31  1  0  0  0
 17 18  1  0  0  0
 17 98  1  0  0  0
 18 19  2  0  0  0
 18 99  1  0  0  0
 19 20  1  0  0  0
 19 24  1  0  0  0
 20 21  2  0  0  0
 20100  1  0  0  0
 21 23  1  0  0  0
 22 28  1  0  0  0
 22 32  2  0  0  0
 26 27  1  0  0  0
 28101  1  0  0  0
 28102  1  0  0  0
 29103  1  0  0  0
 29104  1  0  0  0
 33 34  1  0  0  0
 33 66  1  0  0  0
 33 70  2  0  0  0
 34 36  1  0  0  0
 34 59  1  0  0  0
 34105  1  0  0  0
 35 44  2  0  0  0
 35 45  1  0  0  0
 35 68  1  0  0  0
 36 56  1  0  0  0
 36106  1  0  0  0
 37 39  1  0  0  0
 37 47  1  0  0  0
 37 66  1  0  0  0
 37107  1  0  0  0
 38 43  2  0  0  0
 38 46  1  0  0  0
 38 47  1  0  0  0
 39 64  1  0  0  0
 39 67  2  0  0  0
 40 52  1  0  0  0
 40 53  2  0  0  0
 40 58  1  0  0  0
 41108  1  0  0  0
 41109  1  0  0  0
 41110  1  0  0  0
 41 48  1  0  0  0
 42 43  1  0  0  0
 42 66  1  0  0  0
 42111  1  0  0  0
 42112  1  0  0  0
 43 44  1  0  0  0
 44113  1  0  0  0
 45 46  2  0  0  0
 45114  1  0  0  0
 46115  1  0  0  0
 47116  1  0  0  0
 47117  1  0  0  0
 48 56  1  0  0  0
 48 65  1  0  0  0
 48118  1  0  0  0
 49 50  1  0  0  0
 49 53  1  0  0  0
 49 64  1  0  0  0
 49119  1  0  0  0
 50 51  1  0  0  0
 50120  1  0  0  0
 50121  1  0  0  0
 51 52  1  0  0  0
 51122  1  0  0  0
 51123  1  0  0  0
 52124  1  0  0  0
 52125  1  0  0  0
 53 54  1  0  0  0
 54 55  2  0  0  0
 54126  1  0  0  0
 55 57  1  0  0  0
 55127  1  0  0  0
 56 69  2  0  0  0
 57 58  2  0  0  0
 57128  1  0  0  0
 58129  1  0  0  0
 59 60  1  0  0  0
 59 61  1  0  0  0
 59 62  1  0  0  0
 60130  1  0  0  0
 60131  1  0  0  0
 60132  1  0  0  0
 61133  1  0  0  0
 61134  1  0  0  0
 61135  1  0  0  0
 62136  1  0  0  0
 62137  1  0  0  0
 62138  1  0  0  0
 63 65  1  0  0  0
 63139  1  0  0  0
 63140  1  0  0  0
 63141  1  0  0  0
 64142  1  0  0  0
 65143  1  0  0  0
 68 81  1  0  0  0
 71 74  1  0  0  0
 71 77  1  0  0  0
 71144  1  0  0  0
 71145  1  0  0  0
 72 75  1  0  0  0
 72 77  1  0  0  0
 72146  1  0  0  0
 72147  1  0  0  0
 73 78  1  0  0  0
 73 79  1  0  0  0
 73148  1  0  0  0
 73149  1  0  0  0
 74 82  1  0  0  0
 74150  1  0  0  0
 74151  1  0  0  0
 75 82  1  0  0  0
 75152  1  0  0  0
 75153  1  0  0  0
 76 78  1  0  0  0
 76 84  1  0  0  0
 76154  1  0  0  0
 76155  1  0  0  0
 77 83  1  0  0  0
 77156  1  0  0  0
 78 83  1  0  0  0
 78157  1  0  0  0
 79 81  1  0  0  0
 79 84  1  0  0  0
 79158  1  0  0  0
 80 83  1  0  0  0
 80159  1  0  0  0
 80160  1  0  0  0
 80161  1  0  0  0
 81162  1  0  0  0
 81163  1  0  0  0
 84164  1  0  0  0
 84165  1  0  0  0
M  CHG  1  84   1
M  ISO  4   1 100  68 101  81 101  82 100
M  END
> <chiral flag>
0

> <version>
0

> <s_m_source_file>
/data/baiqing/PycharmProjects/Reinvent-master-3.2/result/LINK_invent/BTK/process_docking_weight1_custom_sum_contain_oxygen_bond_distance_aromatic_linkinvent_7_9_3/rearranged_h_0138.sdf

> <i_m_source_file_index>
48

> <r_mmod_Potential_Energy-OPLS-2005>
225.8330078125

> <r_mmod_Stretch_Energy-OPLS-2005>
73.5562286376953

> <r_mmod_Bend_Energy-OPLS-2005>
190.154754638672

> <r_mmod_Torsional_Energy-OPLS-2005>
373.694915771484

> <r_mmod_Improper_Torsional_Energy-OPLS-2005>
18.0760383605957

> <r_mmod_Van_der_Waal_Energy-OPLS-2005>
158.626266479492

> <r_mmod_Electrostatic_Energy-OPLS-2005>
-207.953033447266

> <r_mmod_Solvation_Energy-OPLS-2005>
-427.863372802734

> <b_mmod_Minimization_Converged-OPLS-2005>
0

> <r_mmod_RMS_Derivative-OPLS-2005>
1.58744013309479

$$$$
48
                    3D
 Structure written by MMmdl.
163171  0  0  1  0            999 V2000
  -30.6085  -14.7722   20.4639 C   0  0  0  0  0  0
  -30.4418  -12.4767   19.4713 C   0  0  0  0  0  0
  -29.5148  -12.4992   18.2352 C   0  0  0  0  0  0
  -28.0311  -12.3574   18.6329 C   0  0  0  0  0  0
  -27.6419  -13.2418   19.8487 C   0  0  2  0  0  0
  -28.6908  -13.1704   20.9791 C   0  0  0  0  0  0
  -25.2514  -13.8224   20.5714 C   0  0  0  0  0  0
  -24.1811  -13.0443   20.9227 C   0  0  0  0  0  0
  -24.6421  -11.6927   20.8737 C   0  0  0  0  0  0
  -23.9113  -10.4292   21.0403 C   0  0  0  0  0  0
  -24.3657   -9.4212   21.9193 C   0  0  0  0  0  0
  -23.6311   -8.2252   22.0756 C   0  0  0  0  0  0
  -22.4307   -8.0270   21.3529 C   0  0  0  0  0  0
  -21.9940   -9.0249   20.4635 C   0  0  0  0  0  0
  -22.7279  -10.2134   20.3049 C   0  0  0  0  0  0
  -21.6847   -6.0739   22.5282 C   0  0  0  0  0  0
  -21.4024   -6.5640   23.8220 C   0  0  0  0  0  0
  -21.3664   -5.6790   24.9174 C   0  0  0  0  0  0
  -21.6057   -4.3052   24.7218 C   0  0  0  0  0  0
  -21.8819   -3.8144   23.4338 C   0  0  0  0  0  0
  -21.9196   -4.6972   22.3406 C   0  0  0  0  0  0
  -22.7820  -13.5198   21.1838 C   0  0  0  0  0  0
  -22.1650   -4.2161   21.0980 F   0  0  0  0  0  0
  -21.5638   -3.4532   25.7728 F   0  0  0  0  0  0
  -29.9864  -13.5437   20.3953 N   0  0  0  0  0  0
  -26.2952  -12.9457   20.3288 N   0  0  0  0  0  0
  -25.9363  -11.6579   20.5733 N   0  0  0  0  0  0
  -22.0440  -12.8205   22.0406 N   0  0  0  0  0  0
  -25.4190  -15.1943   20.4106 N   0  0  0  0  0  0
  -31.8004  -14.8732   20.1577 O   0  0  0  0  0  0
  -21.6642   -6.8878   21.4241 O   0  0  0  0  0  0
  -22.3508  -14.5488   20.6653 O   0  0  0  0  0  0
  -24.6299  -31.8536   23.1959 C   0  0  0  0  0  0
  -25.9123  -32.4754   23.8318 C   0  0  1  0  0  0
  -27.2333  -27.2687   20.1244 C   0  0  0  0  0  0
  -25.5911  -33.8564   24.2241 N   0  0  0  0  0  0
  -23.4271  -30.4706   21.5393 C   0  0  2  0  0  0
  -24.8763  -28.9099   20.1098 C   0  0  0  0  0  0
  -22.7490  -29.4577   22.4923 C   0  0  0  0  0  0
  -18.0288  -28.1382   22.8484 C   0  0  0  0  0  0
  -24.1479  -36.7277   23.2640 C   0  0  0  0  0  0
  -25.9705  -30.7672   21.3762 C   0  0  0  0  0  0
  -26.0432  -29.3873   20.7205 C   0  0  0  0  0  0
  -27.2197  -28.5775   20.7158 C   0  0  0  0  0  0
  -26.0467  -26.8490   19.4904 C   0  0  0  0  0  0
  -24.8826  -27.6492   19.4850 C   0  0  0  0  0  0
  -23.6448  -29.7941   20.1585 C   0  0  0  0  0  0
  -25.4111  -36.3073   24.0329 C   0  0  1  0  0  0
  -20.5884  -28.3697   23.1276 C   0  0  2  0  0  0
  -20.6776  -26.9415   22.5416 C   0  0  0  0  0  0
  -19.5751  -26.6375   21.5219 C   0  0  0  0  0  0
  -18.1929  -26.7928   22.1621 C   0  0  0  0  0  0
  -19.1536  -28.8859   23.2876 C   0  0  0  0  0  0
  -18.9460  -30.1457   23.8898 C   0  0  0  0  0  0
  -17.6457  -30.6586   24.0565 C   0  0  0  0  0  0
  -25.9051  -34.9443   23.5092 C   0  0  0  0  0  0
  -16.5352  -29.9080   23.6330 C   0  0  0  0  0  0
  -16.7275  -28.6499   23.0358 C   0  0  0  0  0  0
  -26.4492  -31.6597   25.0722 C   0  0  0  0  0  0
  -25.3716  -31.3740   26.1443 C   0  0  0  0  0  0
  -27.0361  -30.3018   24.6231 C   0  0  0  0  0  0
  -27.6032  -32.4361   25.7502 C   0  0  0  0  0  0
  -27.5583  -37.1789   24.8462 C   0  0  0  0  0  0
  -21.4203  -29.3031   22.3671 N   0  0  0  0  0  0
  -26.4281  -37.3777   23.9416 N   0  0  0  0  0  0
  -24.6945  -31.0489   22.0939 N   0  0  0  0  0  0
  -23.4193  -28.8141   23.3039 O   0  0  0  0  0  0
  -28.3648  -26.4297   20.1938 O   0  0  0  0  0  0
  -26.5630  -34.8917   22.4667 O   0  0  0  0  0  0
  -23.5446  -32.1360   23.7247 O   0  0  0  0  0  0
  -28.2489  -23.8301   20.5950 C   0  0  0  0  0  0
  -28.4475  -25.0498   19.8265 C   0  0  0  0  0  0
  -28.6010  -22.6737   19.8820 C   0  0  0  0  0  0
  -28.9665  -24.5933   18.6448 C   0  0  0  0  0  0
  -29.4397  -25.4372   17.4980 C   0  0  0  0  0  0
  -28.8712  -21.2037   17.0220 C   0  0  0  0  0  0
  -31.1302  -22.1448   17.7864 C   0  0  0  0  0  0
  -28.3924  -21.1250   20.2252 C   0  0  0  0  0  0
  -30.2414  -17.4041   20.6055 C   0  0  0  0  0  0
  -29.1133  -18.5732   20.4224 C   0  0  0  0  0  0
  -29.6482  -22.4357   17.5147 C   0  0  0  0  0  0
  -29.0589  -23.1805   18.6461 N   0  0  0  0  0  0
  -29.8402  -15.9149   20.6652 N   0  0  0  0  0  0
  -29.5093  -20.0755   20.3924 N   0  3  0  0  0  0
  -31.4798  -12.6147   19.1624 H   0  0  0  0  0  0
  -30.4059  -11.5034   19.9617 H   0  0  0  0  0  0
  -29.7914  -11.6986   17.5487 H   0  0  0  0  0  0
  -29.6539  -13.4292   17.6820 H   0  0  0  0  0  0
  -27.8424  -11.3067   18.8532 H   0  0  0  0  0  0
  -27.3949  -12.6015   17.7809 H   0  0  0  0  0  0
  -27.6333  -14.2680   19.4794 H   0  0  0  0  0  0
  -28.7389  -12.1628   21.3909 H   0  0  0  0  0  0
  -28.4275  -13.8278   21.8091 H   0  0  0  0  0  0
  -25.2812   -9.5673   22.4761 H   0  0  0  0  0  0
  -24.0020   -7.4644   22.7459 H   0  0  0  0  0  0
  -21.0881   -8.8753   19.8920 H   0  0  0  0  0  0
  -22.3739  -10.9661   19.6134 H   0  0  0  0  0  0
  -21.2012   -7.6148   23.9726 H   0  0  0  0  0  0
  -21.1498   -6.0512   25.9085 H   0  0  0  0  0  0
  -22.0602   -2.7609   23.2820 H   0  0  0  0  0  0
  -22.4056  -11.9917   22.4877 H   0  0  0  0  0  0
  -21.0998  -13.1167   22.2462 H   0  0  0  0  0  0
  -24.6563  -15.8466   20.5555 H   0  0  0  0  0  0
  -26.2496  -15.6308   20.0312 H   0  0  0  0  0  0
  -26.7200  -32.5397   23.1069 H   0  0  0  0  0  0
  -25.0089  -33.9705   25.0408 H   0  0  0  0  0  0
  -22.7252  -31.2929   21.3888 H   0  0  0  0  0  0
  -23.3763  -35.9583   23.3275 H   0  0  0  0  0  0
  -24.3573  -36.8933   22.2057 H   0  0  0  0  0  0
  -23.7199  -37.6453   23.6693 H   0  0  0  0  0  0
  -26.1099  -31.5268   20.6044 H   0  0  0  0  0  0
  -26.8486  -30.8150   22.0107 H   0  0  0  0  0  0
  -28.1155  -28.9390   21.2017 H   0  0  0  0  0  0
  -26.0100  -25.8771   19.0212 H   0  0  0  0  0  0
  -23.9898  -27.2773   19.0011 H   0  0  0  0  0  0
  -23.7643  -30.5647   19.3966 H   0  0  0  0  0  0
  -22.7658  -29.2210   19.8591 H   0  0  0  0  0  0
  -25.1287  -36.1917   25.0823 H   0  0  0  0  0  0
  -20.9979  -28.3280   24.1394 H   0  0  0  0  0  0
  -20.5665  -26.2318   23.3625 H   0  0  0  0  0  0
  -21.6649  -26.7435   22.1215 H   0  0  0  0  0  0
  -19.6916  -25.6281   21.1261 H   0  0  0  0  0  0
  -19.6687  -27.3175   20.6740 H   0  0  0  0  0  0
  -17.4202  -26.6692   21.4016 H   0  0  0  0  0  0
  -18.0318  -26.0069   22.9012 H   0  0  0  0  0  0
  -19.7935  -30.7277   24.2280 H   0  0  0  0  0  0
  -17.5009  -31.6267   24.5155 H   0  0  0  0  0  0
  -15.5352  -30.2982   23.7649 H   0  0  0  0  0  0
  -15.8682  -28.0811   22.7083 H   0  0  0  0  0  0
  -24.5872  -30.7126   25.7753 H   0  0  0  0  0  0
  -24.8935  -32.2908   26.4897 H   0  0  0  0  0  0
  -25.8013  -30.8877   27.0208 H   0  0  0  0  0  0
  -26.2961  -29.6750   24.1249 H   0  0  0  0  0  0
  -27.4032  -29.7296   25.4759 H   0  0  0  0  0  0
  -27.8830  -30.4294   23.9489 H   0  0  0  0  0  0
  -27.2630  -33.3675   26.2040 H   0  0  0  0  0  0
  -28.3856  -32.6912   25.0344 H   0  0  0  0  0  0
  -28.0698  -31.8532   26.5451 H   0  0  0  0  0  0
  -28.2568  -38.0115   24.7561 H   0  0  0  0  0  0
  -28.1108  -36.2654   24.6222 H   0  0  0  0  0  0
  -27.2317  -37.1360   25.8865 H   0  0  0  0  0  0
  -20.9409  -29.8744   21.6851 H   0  0  0  0  0  0
  -26.0159  -38.2843   24.1439 H   0  0  0  0  0  0
  -27.8643  -23.8041   21.6065 H   0  0  0  0  0  0
  -29.4059  -26.4971   17.7506 H   0  0  0  0  0  0
  -28.8171  -25.2960   16.6138 H   0  0  0  0  0  0
  -30.4718  -25.2033   17.2361 H   0  0  0  0  0  0
  -28.9573  -20.3412   17.6762 H   0  0  0  0  0  0
  -29.2763  -20.8802   16.0612 H   0  0  0  0  0  0
  -27.8159  -21.4225   16.8583 H   0  0  0  0  0  0
  -31.5976  -21.6623   16.9290 H   0  0  0  0  0  0
  -31.2716  -21.5023   18.6533 H   0  0  0  0  0  0
  -31.6730  -23.0744   17.9683 H   0  0  0  0  0  0
  -27.6934  -20.7287   19.4882 H   0  0  0  0  0  0
  -27.8253  -21.0800   21.1551 H   0  0  0  0  0  0
  -30.7995  -17.6105   21.5204 H   0  0  0  0  0  0
  -30.9687  -17.5209   19.8023 H   0  0  0  0  0  0
  -28.3727  -18.4503   21.2147 H   0  0  0  0  0  0
  -28.5772  -18.3741   19.4935 H   0  0  0  0  0  0
  -29.6281  -23.0925   16.6473 H   0  0  0  0  0  0
  -28.8740  -15.7342   20.8830 H   0  0  0  0  0  0
  -29.9717  -20.2925   21.2622 H   0  0  0  0  0  0
  -30.1843  -20.2213   19.6633 H   0  0  0  0  0  0
  1 25  1  0  0  0
  1 30  2  0  0  0
  1 83  1  0  0  0
  2  3  1  0  0  0
  2 25  1  0  0  0
  2 85  1  0  0  0
  2 86  1  0  0  0
  3  4  1  0  0  0
  3 87  1  0  0  0
  3 88  1  0  0  0
  4  5  1  0  0  0
  4 89  1  0  0  0
  4 90  1  0  0  0
  5  6  1  0  0  0
  5 26  1  0  0  0
  5 91  1  0  0  0
  6 25  1  0  0  0
  6 92  1  0  0  0
  6 93  1  0  0  0
  7  8  2  0  0  0
  7 26  1  0  0  0
  7 29  1  0  0  0
  8  9  1  0  0  0
  8 22  1  0  0  0
  9 10  1  0  0  0
  9 27  2  0  0  0
 10 11  2  0  0  0
 10 15  1  0  0  0
 11 12  1  0  0  0
 11 94  1  0  0  0
 12 13  2  0  0  0
 12 95  1  0  0  0
 13 14  1  0  0  0
 13 31  1  0  0  0
 14 15  2  0  0  0
 14 96  1  0  0  0
 15 97  1  0  0  0
 16 17  2  0  0  0
 16 21  1  0  0  0
 16 31  1  0  0  0
 17 18  1  0  0  0
 17 98  1  0  0  0
 18 19  2  0  0  0
 18 99  1  0  0  0
 19 20  1  0  0  0
 19 24  1  0  0  0
 20 21  2  0  0  0
 20100  1  0  0  0
 21 23  1  0  0  0
 22 28  1  0  0  0
 22 32  2  0  0  0
 26 27  1  0  0  0
 28101  1  0  0  0
 28102  1  0  0  0
 29103  1  0  0  0
 29104  1  0  0  0
 33 34  1  0  0  0
 33 66  1  0  0  0
 33 70  2  0  0  0
 34 36  1  0  0  0
 34 59  1  0  0  0
 34105  1  0  0  0
 35 44  2  0  0  0
 35 45  1  0  0  0
 35 68  1  0  0  0
 36 56  1  0  0  0
 36106  1  0  0  0
 37 39  1  0  0  0
 37 47  1  0  0  0
 37 66  1  0  0  0
 37107  1  0  0  0
 38 43  2  0  0  0
 38 46  1  0  0  0
 38 47  1  0  0  0
 39 64  1  0  0  0
 39 67  2  0  0  0
 40 52  1  0  0  0
 40 53  2  0  0  0
 40 58  1  0  0  0
 41108  1  0  0  0
 41109  1  0  0  0
 41110  1  0  0  0
 41 48  1  0  0  0
 42 43  1  0  0  0
 42 66  1  0  0  0
 42111  1  0  0  0
 42112  1  0  0  0
 43 44  1  0  0  0
 44113  1  0  0  0
 45 46  2  0  0  0
 45114  1  0  0  0
 46115  1  0  0  0
 47116  1  0  0  0
 47117  1  0  0  0
 48 56  1  0  0  0
 48 65  1  0  0  0
 48118  1  0  0  0
 49 50  1  0  0  0
 49 53  1  0  0  0
 49 64  1  0  0  0
 49119  1  0  0  0
 50 51  1  0  0  0
 50120  1  0  0  0
 50121  1  0  0  0
 51 52  1  0  0  0
 51122  1  0  0  0
 51123  1  0  0  0
 52124  1  0  0  0
 52125  1  0  0  0
 53 54  1  0  0  0
 54 55  2  0  0  0
 54126  1  0  0  0
 55 57  1  0  0  0
 55127  1  0  0  0
 56 69  2  0  0  0
 57 58  2  0  0  0
 57128  1  0  0  0
 58129  1  0  0  0
 59 60  1  0  0  0
 59 61  1  0  0  0
 59 62  1  0  0  0
 60130  1  0  0  0
 60131  1  0  0  0
 60132  1  0  0  0
 61133  1  0  0  0
 61134  1  0  0  0
 61135  1  0  0  0
 62136  1  0  0  0
 62137  1  0  0  0
 62138  1  0  0  0
 63 65  1  0  0  0
 63139  1  0  0  0
 63140  1  0  0  0
 63141  1  0  0  0
 64142  1  0  0  0
 65143  1  0  0  0
 68 72  1  0  0  0
 71 72  1  0  0  0
 71 73  2  0  0  0
 71144  1  0  0  0
 72 74  2  0  0  0
 73 78  1  0  0  0
 73 82  1  0  0  0
 74 75  1  0  0  0
 74 82  1  0  0  0
 75145  1  0  0  0
 75146  1  0  0  0
 75147  1  0  0  0
 76148  1  0  0  0
 76149  1  0  0  0
 76150  1  0  0  0
 76 81  1  0  0  0
 77 81  1  0  0  0
 77151  1  0  0  0
 77152  1  0  0  0
 77153  1  0  0  0
 78 84  1  0  0  0
 78154  1  0  0  0
 78155  1  0  0  0
 79 80  1  0  0  0
 79 83  1  0  0  0
 79156  1  0  0  0
 79157  1  0  0  0
 80 84  1  0  0  0
 80158  1  0  0  0
 80159  1  0  0  0
 81 82  1  0  0  0
 81160  1  0  0  0
 83161  1  0  0  0
 84162  1  0  0  0
 84163  1  0  0  0
M  CHG  1  84   1
M  ISO  4   1 100  68 101  72 101  83 100
M  END
> <chiral flag>
0

> <version>
0

> <s_m_source_file>
/data/baiqing/PycharmProjects/Reinvent-master-3.2/result/LINK_invent/BTK/process_docking_weight1_custom_sum_contain_oxygen_bond_distance_aromatic_linkinvent_7_9_3/rearranged_h_0138.sdf

> <i_m_source_file_index>
49

> <r_mmod_Potential_Energy-OPLS-2005>
-104.824333190918

> <r_mmod_Stretch_Energy-OPLS-2005>
126.610145568848

> <r_mmod_Bend_Energy-OPLS-2005>
187.381546020508

> <r_mmod_Torsional_Energy-OPLS-2005>
230.986511230469

> <r_mmod_Improper_Torsional_Energy-OPLS-2005>
6.086745262146

> <r_mmod_Van_der_Waal_Energy-OPLS-2005>
109.690002441406

> <r_mmod_Electrostatic_Energy-OPLS-2005>
-362.289855957031

> <r_mmod_Solvation_Energy-OPLS-2005>
-490.157073974609

> <b_mmod_Minimization_Converged-OPLS-2005>
0

> <r_mmod_RMS_Derivative-OPLS-2005>
4.1257905960083

$$$$
49
                    3D
 Structure written by MMmdl.
158167  0  0  1  0            999 V2000
  -30.6708  -14.8450   20.4431 C   0  0  0  0  0  0
  -30.4053  -12.5314   19.4944 C   0  0  0  0  0  0
  -29.5000  -12.5090   18.2464 C   0  0  0  0  0  0
  -28.0331  -12.3155   18.6674 C   0  0  0  0  0  0
  -27.6229  -13.2492   19.8383 C   0  0  2  0  0  0
  -28.6705  -13.2830   20.9735 C   0  0  0  0  0  0
  -25.2418  -13.8221   20.5747 C   0  0  0  0  0  0
  -24.1744  -13.0436   20.9259 C   0  0  0  0  0  0
  -24.6373  -11.6927   20.8790 C   0  0  0  0  0  0
  -23.9074  -10.4289   21.0420 C   0  0  0  0  0  0
  -24.3622   -9.4198   21.9193 C   0  0  0  0  0  0
  -23.6295   -8.2234   22.0765 C   0  0  0  0  0  0
  -22.4272   -8.0286   21.3561 C   0  0  0  0  0  0
  -21.9910   -9.0261   20.4660 C   0  0  0  0  0  0
  -22.7247  -10.2135   20.3068 C   0  0  0  0  0  0
  -21.6846   -6.0740   22.5284 C   0  0  0  0  0  0
  -21.4014   -6.5642   23.8220 C   0  0  0  0  0  0
  -21.3664   -5.6791   24.9181 C   0  0  0  0  0  0
  -21.6042   -4.3057   24.7230 C   0  0  0  0  0  0
  -21.8809   -3.8153   23.4348 C   0  0  0  0  0  0
  -21.9186   -4.6970   22.3401 C   0  0  0  0  0  0
  -22.7756  -13.5214   21.1884 C   0  0  0  0  0  0
  -22.1649   -4.2149   21.0979 F   0  0  0  0  0  0
  -21.5630   -3.4549   25.7746 F   0  0  0  0  0  0
  -29.9490  -13.6580   20.3599 N   0  0  0  0  0  0
  -26.2847  -12.9463   20.3295 N   0  0  0  0  0  0
  -25.9300  -11.6588   20.5786 N   0  0  0  0  0  0
  -22.0375  -12.8230   22.0435 N   0  0  0  0  0  0
  -25.4029  -15.1951   20.4145 N   0  0  0  0  0  0
  -31.8787  -14.7512   20.2003 O   0  0  0  0  0  0
  -21.6636   -6.8883   21.4253 O   0  0  0  0  0  0
  -22.3452  -14.5519   20.6715 O   0  0  0  0  0  0
  -24.6368  -31.8515   23.1943 C   0  0  0  0  0  0
  -25.9170  -32.4733   23.8305 C   0  0  1  0  0  0
  -27.2083  -27.1934   20.1552 C   0  0  0  0  0  0
  -25.5955  -33.8540   24.2228 N   0  0  0  0  0  0
  -23.4374  -30.4729   21.5379 C   0  0  2  0  0  0
  -24.8856  -28.9133   20.1065 C   0  0  0  0  0  0
  -22.7539  -29.4582   22.4875 C   0  0  0  0  0  0
  -18.0301  -28.1390   22.8479 C   0  0  0  0  0  0
  -24.1496  -36.7261   23.2640 C   0  0  0  0  0  0
  -25.9890  -30.7440   21.3850 C   0  0  0  0  0  0
  -26.0586  -29.3608   20.7273 C   0  0  0  0  0  0
  -27.2217  -28.5134   20.7391 C   0  0  0  0  0  0
  -26.0186  -26.8415   19.4775 C   0  0  0  0  0  0
  -24.8760  -27.6665   19.4650 C   0  0  0  0  0  0
  -23.6602  -29.8091   20.1528 C   0  0  0  0  0  0
  -25.4127  -36.3049   24.0316 C   0  0  1  0  0  0
  -20.5911  -28.3713   23.1246 C   0  0  2  0  0  0
  -20.6795  -26.9425   22.5404 C   0  0  0  0  0  0
  -19.5769  -26.6381   21.5210 C   0  0  0  0  0  0
  -18.1944  -26.7929   22.1619 C   0  0  0  0  0  0
  -19.1552  -28.8866   23.2855 C   0  0  0  0  0  0
  -18.9476  -30.1464   23.8885 C   0  0  0  0  0  0
  -17.6471  -30.6589   24.0556 C   0  0  0  0  0  0
  -25.9069  -34.9426   23.5072 C   0  0  0  0  0  0
  -16.5365  -29.9087   23.6330 C   0  0  0  0  0  0
  -16.7279  -28.6502   23.0352 C   0  0  0  0  0  0
  -26.4513  -31.6579   25.0719 C   0  0  0  0  0  0
  -25.3714  -31.3756   26.1423 C   0  0  0  0  0  0
  -27.0373  -30.2991   24.6249 C   0  0  0  0  0  0
  -27.6056  -32.4330   25.7498 C   0  0  0  0  0  0
  -27.5578  -37.1789   24.8461 C   0  0  0  0  0  0
  -21.4236  -29.3047   22.3618 N   0  0  0  0  0  0
  -26.4287  -37.3759   23.9407 N   0  0  0  0  0  0
  -24.7072  -31.0425   22.0944 N   0  0  0  0  0  0
  -23.4205  -28.8122   23.2997 O   0  0  0  0  0  0
  -28.2653  -26.2371   20.2634 O   0  0  0  0  0  0
  -26.5640  -34.8911   22.4640 O   0  0  0  0  0  0
  -23.5506  -32.1371   23.7190 O   0  0  0  0  0  0
  -28.8089  -22.0310   20.0880 C   0  0  0  0  0  0
  -30.1549  -23.8603   21.3953 C   0  0  0  0  0  0
  -28.9698  -23.5537   22.2606 C   0  0  0  0  0  0
  -28.3877  -18.2344   20.7336 C   0  0  0  0  0  0
  -30.6888  -18.7826   20.9881 C   0  0  0  0  0  0
  -28.7558  -16.6998   20.3579 C   0  0  0  0  0  0
  -31.1054  -17.3183   20.5320 C   0  0  0  0  0  0
  -29.3987  -19.3917   20.3630 C   0  0  0  0  0  0
  -28.8277  -23.5038   20.7438 C   0  0  0  0  0  0
  -28.0059  -24.7370   20.0504 C   0  0  0  0  0  0
  -30.1369  -16.1614   20.6113 N   0  0  0  0  0  0
  -29.1001  -20.8596   20.8083 N   0  0  0  0  0  0
  -28.5707  -21.9214   18.8851 O   0  0  0  0  0  0
  -31.4474  -12.6208   19.1860 H   0  0  0  0  0  0
  -30.3466  -11.5849   20.0355 H   0  0  0  0  0  0
  -29.8054  -11.7082   17.5722 H   0  0  0  0  0  0
  -29.6097  -13.4401   17.6881 H   0  0  0  0  0  0
  -27.9203  -11.2739   18.9725 H   0  0  0  0  0  0
  -27.3664  -12.4570   17.8153 H   0  0  0  0  0  0
  -27.5849  -14.2473   19.4036 H   0  0  0  0  0  0
  -28.7426  -12.3125   21.4680 H   0  0  0  0  0  0
  -28.3898  -13.9963   21.7484 H   0  0  0  0  0  0
  -25.2753   -9.5682   22.4787 H   0  0  0  0  0  0
  -24.0002   -7.4622   22.7475 H   0  0  0  0  0  0
  -21.0841   -8.8805   19.8963 H   0  0  0  0  0  0
  -22.3713  -10.9693   19.6197 H   0  0  0  0  0  0
  -21.2018   -7.6149   23.9738 H   0  0  0  0  0  0
  -21.1488   -6.0513   25.9085 H   0  0  0  0  0  0
  -22.0582   -2.7618   23.2844 H   0  0  0  0  0  0
  -22.3965  -11.9927   22.4904 H   0  0  0  0  0  0
  -21.0990  -13.1281   22.2593 H   0  0  0  0  0  0
  -24.6353  -15.8458   20.5417 H   0  0  0  0  0  0
  -26.2491  -15.6435   20.0916 H   0  0  0  0  0  0
  -26.7238  -32.5367   23.1039 H   0  0  0  0  0  0
  -25.0112  -33.9674   25.0381 H   0  0  0  0  0  0
  -22.7380  -31.2982   21.3894 H   0  0  0  0  0  0
  -23.3765  -35.9585   23.3288 H   0  0  0  0  0  0
  -24.3587  -36.8901   22.2058 H   0  0  0  0  0  0
  -23.7242  -37.6451   23.6680 H   0  0  0  0  0  0
  -26.1379  -31.5030   20.6152 H   0  0  0  0  0  0
  -26.8615  -30.7922   22.0244 H   0  0  0  0  0  0
  -28.1126  -28.8464   21.2537 H   0  0  0  0  0  0
  -25.9354  -25.8929   18.9695 H   0  0  0  0  0  0
  -23.9826  -27.3237   18.9615 H   0  0  0  0  0  0
  -23.7941  -30.5879   19.4003 H   0  0  0  0  0  0
  -22.7763  -29.2497   19.8397 H   0  0  0  0  0  0
  -25.1312  -36.1886   25.0806 H   0  0  0  0  0  0
  -20.9996  -28.3300   24.1366 H   0  0  0  0  0  0
  -20.5714  -26.2318   23.3612 H   0  0  0  0  0  0
  -21.6666  -26.7463   22.1196 H   0  0  0  0  0  0
  -19.6942  -25.6284   21.1260 H   0  0  0  0  0  0
  -19.6707  -27.3175   20.6725 H   0  0  0  0  0  0
  -17.4221  -26.6662   21.4017 H   0  0  0  0  0  0
  -18.0350  -26.0073   22.9021 H   0  0  0  0  0  0
  -19.7950  -30.7279   24.2254 H   0  0  0  0  0  0
  -17.5028  -31.6270   24.5156 H   0  0  0  0  0  0
  -15.5366  -30.2988   23.7662 H   0  0  0  0  0  0
  -15.8677  -28.0818   22.7081 H   0  0  0  0  0  0
  -24.5868  -30.7135   25.7737 H   0  0  0  0  0  0
  -24.8935  -32.2943   26.4840 H   0  0  0  0  0  0
  -25.8005  -30.8925   27.0208 H   0  0  0  0  0  0
  -26.2977  -29.6724   24.1252 H   0  0  0  0  0  0
  -27.4012  -29.7274   25.4793 H   0  0  0  0  0  0
  -27.8871  -30.4251   23.9535 H   0  0  0  0  0  0
  -27.2648  -33.3625   26.2068 H   0  0  0  0  0  0
  -28.3868  -32.6898   25.0331 H   0  0  0  0  0  0
  -28.0717  -31.8464   26.5422 H   0  0  0  0  0  0
  -28.2589  -38.0094   24.7520 H   0  0  0  0  0  0
  -28.1081  -36.2625   24.6273 H   0  0  0  0  0  0
  -27.2296  -37.1419   25.8863 H   0  0  0  0  0  0
  -20.9426  -29.8749   21.6804 H   0  0  0  0  0  0
  -26.0156  -38.2826   24.1416 H   0  0  0  0  0  0
  -30.9576  -23.1248   21.3694 H   0  0  0  0  0  0
  -30.4816  -24.8959   21.3238 H   0  0  0  0  0  0
  -28.4840  -24.3816   22.7723 H   0  0  0  0  0  0
  -28.9965  -22.6268   22.8307 H   0  0  0  0  0  0
  -28.2141  -18.2707   21.8102 H   0  0  0  0  0  0
  -27.4189  -18.4697   20.2910 H   0  0  0  0  0  0
  -31.5229  -19.4517   20.7777 H   0  0  0  0  0  0
  -30.5921  -18.7835   22.0755 H   0  0  0  0  0  0
  -28.5726  -16.5655   19.2903 H   0  0  0  0  0  0
  -28.0447  -16.0561   20.8699 H   0  0  0  0  0  0
  -32.0003  -17.0642   21.1038 H   0  0  0  0  0  0
  -31.4342  -17.3805   19.4923 H   0  0  0  0  0  0
  -29.5196  -19.4046   19.2794 H   0  0  0  0  0  0
  -26.9768  -24.5523   20.3581 H   0  0  0  0  0  0
  -28.0193  -24.5733   18.9736 H   0  0  0  0  0  0
  -29.2425  -21.0264   21.7955 H   0  0  0  0  0  0
  1 25  1  0  0  0
  1 30  2  0  0  0
  1 81  1  0  0  0
  2  3  1  0  0  0
  2 25  1  0  0  0
  2 84  1  0  0  0
  2 85  1  0  0  0
  3  4  1  0  0  0
  3 86  1  0  0  0
  3 87  1  0  0  0
  4  5  1  0  0  0
  4 88  1  0  0  0
  4 89  1  0  0  0
  5  6  1  0  0  0
  5 26  1  0  0  0
  5 90  1  0  0  0
  6 25  1  0  0  0
  6 91  1  0  0  0
  6 92  1  0  0  0
  7  8  2  0  0  0
  7 26  1  0  0  0
  7 29  1  0  0  0
  8  9  1  0  0  0
  8 22  1  0  0  0
  9 10  1  0  0  0
  9 27  2  0  0  0
 10 11  2  0  0  0
 10 15  1  0  0  0
 11 12  1  0  0  0
 11 93  1  0  0  0
 12 13  2  0  0  0
 12 94  1  0  0  0
 13 14  1  0  0  0
 13 31  1  0  0  0
 14 15  2  0  0  0
 14 95  1  0  0  0
 15 96  1  0  0  0
 16 17  2  0  0  0
 16 21  1  0  0  0
 16 31  1  0  0  0
 17 18  1  0  0  0
 17 97  1  0  0  0
 18 19  2  0  0  0
 18 98  1  0  0  0
 19 20  1  0  0  0
 19 24  1  0  0  0
 20 21  2  0  0  0
 20 99  1  0  0  0
 21 23  1  0  0  0
 22 28  1  0  0  0
 22 32  2  0  0  0
 26 27  1  0  0  0
 28100  1  0  0  0
 28101  1  0  0  0
 29102  1  0  0  0
 29103  1  0  0  0
 33 34  1  0  0  0
 33 66  1  0  0  0
 33 70  2  0  0  0
 34 36  1  0  0  0
 34 59  1  0  0  0
 34104  1  0  0  0
 35 44  2  0  0  0
 35 45  1  0  0  0
 35 68  1  0  0  0
 36 56  1  0  0  0
 36105  1  0  0  0
 37 39  1  0  0  0
 37 47  1  0  0  0
 37 66  1  0  0  0
 37106  1  0  0  0
 38 43  2  0  0  0
 38 46  1  0  0  0
 38 47  1  0  0  0
 39 64  1  0  0  0
 39 67  2  0  0  0
 40 52  1  0  0  0
 40 53  2  0  0  0
 40 58  1  0  0  0
 41107  1  0  0  0
 41108  1  0  0  0
 41109  1  0  0  0
 41 48  1  0  0  0
 42 43  1  0  0  0
 42 66  1  0  0  0
 42110  1  0  0  0
 42111  1  0  0  0
 43 44  1  0  0  0
 44112  1  0  0  0
 45 46  2  0  0  0
 45113  1  0  0  0
 46114  1  0  0  0
 47115  1  0  0  0
 47116  1  0  0  0
 48 56  1  0  0  0
 48 65  1  0  0  0
 48117  1  0  0  0
 49 50  1  0  0  0
 49 53  1  0  0  0
 49 64  1  0  0  0
 49118  1  0  0  0
 50 51  1  0  0  0
 50119  1  0  0  0
 50120  1  0  0  0
 51 52  1  0  0  0
 51121  1  0  0  0
 51122  1  0  0  0
 52123  1  0  0  0
 52124  1  0  0  0
 53 54  1  0  0  0
 54 55  2  0  0  0
 54125  1  0  0  0
 55 57  1  0  0  0
 55126  1  0  0  0
 56 69  2  0  0  0
 57 58  2  0  0  0
 57127  1  0  0  0
 58128  1  0  0  0
 59 60  1  0  0  0
 59 61  1  0  0  0
 59 62  1  0  0  0
 60129  1  0  0  0
 60130  1  0  0  0
 60131  1  0  0  0
 61132  1  0  0  0
 61133  1  0  0  0
 61134  1  0  0  0
 62135  1  0  0  0
 62136  1  0  0  0
 62137  1  0  0  0
 63 65  1  0  0  0
 63138  1  0  0  0
 63139  1  0  0  0
 63140  1  0  0  0
 64141  1  0  0  0
 65142  1  0  0  0
 68 80  1  0  0  0
 71 79  1  0  0  0
 71 82  1  0  0  0
 71 83  2  0  0  0
 72 73  1  0  0  0
 72 79  1  0  0  0
 72143  1  0  0  0
 72144  1  0  0  0
 73 79  1  0  0  0
 73145  1  0  0  0
 73146  1  0  0  0
 74 76  1  0  0  0
 74 78  1  0  0  0
 74147  1  0  0  0
 74148  1  0  0  0
 75 77  1  0  0  0
 75 78  1  0  0  0
 75149  1  0  0  0
 75150  1  0  0  0
 76 81  1  0  0  0
 76151  1  0  0  0
 76152  1  0  0  0
 77 81  1  0  0  0
 77153  1  0  0  0
 77154  1  0  0  0
 78 82  1  0  0  0
 78155  1  0  0  0
 79 80  1  0  0  0
 80156  1  0  0  0
 80157  1  0  0  0
 82158  1  0  0  0
M  ISO  4   1 100  68 101  80 101  81 100
M  END
> <chiral flag>
0

> <version>
0

> <s_m_source_file>
/data/baiqing/PycharmProjects/Reinvent-master-3.2/result/LINK_invent/BTK/process_docking_weight1_custom_sum_contain_oxygen_bond_distance_aromatic_linkinvent_7_9_3/rearranged_h_0138.sdf

> <i_m_source_file_index>
50

> <r_mmod_Potential_Energy-OPLS-2005>
511.742767333984

> <r_mmod_Stretch_Energy-OPLS-2005>
189.163757324219

> <r_mmod_Bend_Energy-OPLS-2005>
256.465087890625

> <r_mmod_Torsional_Energy-OPLS-2005>
335.263122558594

> <r_mmod_Improper_Torsional_Energy-OPLS-2005>
5.2299222946167

> <r_mmod_Van_der_Waal_Energy-OPLS-2005>
127.330375671387

> <r_mmod_Electrostatic_Energy-OPLS-2005>
-317.556518554688

> <r_mmod_Solvation_Energy-OPLS-2005>
-226.987152099609

> <b_mmod_Minimization_Converged-OPLS-2005>
0

> <r_mmod_RMS_Derivative-OPLS-2005>
2.03279137611389

$$$$
50
                    3D
 Structure written by MMmdl.
173181  0  0  1  0            999 V2000
  -30.7736  -14.3806   20.6863 C   0  0  0  0  0  0
  -30.4160  -12.3043   19.3957 C   0  0  0  0  0  0
  -29.4822  -12.5288   18.1923 C   0  0  0  0  0  0
  -28.0084  -12.3804   18.6116 C   0  0  0  0  0  0
  -27.6651  -13.2073   19.8776 C   0  0  2  0  0  0
  -28.7044  -12.9640   20.9940 C   0  0  0  0  0  0
  -25.2603  -13.8170   20.5675 C   0  0  0  0  0  0
  -24.1851  -13.0447   20.9168 C   0  0  0  0  0  0
  -24.6404  -11.6912   20.8730 C   0  0  0  0  0  0
  -23.9068  -10.4299   21.0404 C   0  0  0  0  0  0
  -24.3616   -9.4215   21.9186 C   0  0  0  0  0  0
  -23.6288   -8.2249   22.0758 C   0  0  0  0  0  0
  -22.4274   -8.0289   21.3545 C   0  0  0  0  0  0
  -21.9911   -9.0264   20.4647 C   0  0  0  0  0  0
  -22.7239  -10.2142   20.3056 C   0  0  0  0  0  0
  -21.6854   -6.0743   22.5281 C   0  0  0  0  0  0
  -21.4014   -6.5648   23.8217 C   0  0  0  0  0  0
  -21.3659   -5.6796   24.9179 C   0  0  0  0  0  0
  -21.6042   -4.3059   24.7225 C   0  0  0  0  0  0
  -21.8821   -3.8152   23.4348 C   0  0  0  0  0  0
  -21.9194   -4.6969   22.3403 C   0  0  0  0  0  0
  -22.7875  -13.5249   21.1832 C   0  0  0  0  0  0
  -22.1663   -4.2156   21.0979 F   0  0  0  0  0  0
  -21.5629   -3.4541   25.7737 F   0  0  0  0  0  0
  -30.0451  -13.2568   20.4540 N   0  0  0  0  0  0
  -26.3045  -12.9343   20.3377 N   0  0  0  0  0  0
  -25.9331  -11.6499   20.5759 N   0  0  0  0  0  0
  -22.0515  -12.8237   22.0391 N   0  0  0  0  0  0
  -25.4331  -15.1885   20.4094 N   0  0  0  0  0  0
  -31.8007  -14.6602   20.0616 O   0  0  0  0  0  0
  -21.6641   -6.8882   21.4241 O   0  0  0  0  0  0
  -22.3554  -14.5555   20.6688 O   0  0  0  0  0  0
  -24.6136  -31.8683   23.2118 C   0  0  0  0  0  0
  -25.9035  -32.4816   23.8407 C   0  0  1  0  0  0
  -27.2343  -27.4368   20.0861 C   0  0  0  0  0  0
  -25.5890  -33.8618   24.2331 N   0  0  0  0  0  0
  -23.4010  -30.4925   21.5532 C   0  0  2  0  0  0
  -24.8444  -28.9595   20.1149 C   0  0  0  0  0  0
  -22.7405  -29.4657   22.5006 C   0  0  0  0  0  0
  -18.0264  -28.1377   22.8502 C   0  0  0  0  0  0
  -24.1481  -36.7327   23.2640 C   0  0  0  0  0  0
  -25.9295  -30.8329   21.3651 C   0  0  0  0  0  0
  -26.0045  -29.4676   20.7114 C   0  0  0  0  0  0
  -27.1991  -28.7124   20.6961 C   0  0  0  0  0  0
  -26.0516  -26.9427   19.4850 C   0  0  0  0  0  0
  -24.8628  -27.6952   19.5023 C   0  0  0  0  0  0
  -23.6071  -29.8262   20.1669 C   0  0  0  0  0  0
  -25.4100  -36.3116   24.0340 C   0  0  1  0  0  0
  -20.5855  -28.3660   23.1335 C   0  0  2  0  0  0
  -20.6754  -26.9397   22.5431 C   0  0  0  0  0  0
  -19.5732  -26.6388   21.5223 C   0  0  0  0  0  0
  -18.1909  -26.7927   22.1635 C   0  0  0  0  0  0
  -19.1515  -28.8836   23.2912 C   0  0  0  0  0  0
  -18.9443  -30.1444   23.8914 C   0  0  0  0  0  0
  -17.6443  -30.6581   24.0568 C   0  0  0  0  0  0
  -25.9029  -34.9476   23.5137 C   0  0  0  0  0  0
  -16.5334  -29.9084   23.6331 C   0  0  0  0  0  0
  -16.7252  -28.6505   23.0347 C   0  0  0  0  0  0
  -26.4471  -31.6595   25.0736 C   0  0  0  0  0  0
  -25.3744  -31.3668   26.1487 C   0  0  0  0  0  0
  -27.0324  -30.3045   24.6115 C   0  0  0  0  0  0
  -27.6042  -32.4316   25.7503 C   0  0  0  0  0  0
  -27.5578  -37.1811   24.8463 C   0  0  0  0  0  0
  -21.4133  -29.3030   22.3748 N   0  0  0  0  0  0
  -26.4290  -37.3802   23.9413 N   0  0  0  0  0  0
  -24.6665  -31.0790   22.1016 N   0  0  0  0  0  0
  -23.4183  -28.8199   23.3046 O   0  0  0  0  0  0
  -28.4206  -26.7287   20.1056 O   0  0  0  0  0  0
  -26.5600  -34.8924   22.4705 O   0  0  0  0  0  0
  -23.5329  -32.1438   23.7513 O   0  0  0  0  0  0
  -29.7786  -20.6682   22.7283 C   0  0  0  0  0  0
  -29.8049  -22.0618   22.5388 C   0  0  0  0  0  0
  -29.4714  -21.7495   20.1564 C   0  0  0  0  0  0
  -29.6137  -19.7947   21.6347 C   0  0  0  0  0  0
  -29.4707  -20.3362   20.3308 C   0  0  0  0  0  0
  -29.6588  -22.6260   21.2578 C   0  0  0  0  0  0
  -29.2439  -19.5775   17.9324 C   0  0  0  0  0  0
  -26.7694  -17.8561   16.9235 C   0  0  0  0  0  0
  -28.3467  -16.9339   15.1805 C   0  0  0  0  0  0
  -29.5945  -18.2854   21.9035 C   0  0  0  0  0  0
  -29.2943  -18.2932   17.0955 C   0  0  0  0  0  0
  -30.9663  -17.6153   21.6884 C   0  0  0  0  0  0
  -31.1168  -16.2209   22.3386 C   0  0  0  0  0  0
  -28.4312  -25.3783   19.6224 C   0  0  0  0  0  0
  -29.7782  -24.7019   19.9459 C   0  0  0  0  0  0
  -28.0834  -18.0922   16.1562 C   0  0  0  0  0  0
  -29.3624  -19.4033   19.2587 N   0  0  0  0  0  0
  -30.3446  -15.1519   21.6966 N   0  0  0  0  0  0
  -29.1007  -20.6649   17.3705 O   0  0  0  0  0  0
  -29.7255  -24.0081   21.1975 O   0  0  0  0  0  0
  -31.4581  -12.4062   19.0872 H   0  0  0  0  0  0
  -30.3187  -11.2833   19.7682 H   0  0  0  0  0  0
  -29.7163  -11.8213   17.3957 H   0  0  0  0  0  0
  -29.6498  -13.5241   17.7773 H   0  0  0  0  0  0
  -27.8195  -11.3225   18.7978 H   0  0  0  0  0  0
  -27.3528  -12.6656   17.7882 H   0  0  0  0  0  0
  -27.7198  -14.2598   19.5979 H   0  0  0  0  0  0
  -28.6707  -11.9241   21.3235 H   0  0  0  0  0  0
  -28.4497  -13.5521   21.8755 H   0  0  0  0  0  0
  -25.2764   -9.5695   22.4763 H   0  0  0  0  0  0
  -24.0000   -7.4647   22.7485 H   0  0  0  0  0  0
  -21.0842   -8.8784   19.8952 H   0  0  0  0  0  0
  -22.3699  -10.9684   19.6167 H   0  0  0  0  0  0
  -21.2005   -7.6158   23.9718 H   0  0  0  0  0  0
  -21.1479   -6.0530   25.9082 H   0  0  0  0  0  0
  -22.0601   -2.7616   23.2848 H   0  0  0  0  0  0
  -22.4122  -11.9887   22.4762 H   0  0  0  0  0  0
  -21.1140  -13.1270   22.2603 H   0  0  0  0  0  0
  -24.6697  -15.8463   20.5212 H   0  0  0  0  0  0
  -26.2928  -15.6268   20.1046 H   0  0  0  0  0  0
  -26.7103  -32.5541   23.1166 H   0  0  0  0  0  0
  -25.0010  -33.9775   25.0452 H   0  0  0  0  0  0
  -22.6884  -31.3086   21.4165 H   0  0  0  0  0  0
  -23.3742  -35.9664   23.3303 H   0  0  0  0  0  0
  -24.3565  -36.8955   22.2055 H   0  0  0  0  0  0
  -23.7231  -37.6528   23.6664 H   0  0  0  0  0  0
  -26.0415  -31.5988   20.5963 H   0  0  0  0  0  0
  -26.8173  -30.8838   21.9837 H   0  0  0  0  0  0
  -28.0961  -29.1036   21.1565 H   0  0  0  0  0  0
  -26.0230  -25.9809   18.9950 H   0  0  0  0  0  0
  -23.9712  -27.2982   19.0369 H   0  0  0  0  0  0
  -23.7133  -30.6022   19.4079 H   0  0  0  0  0  0
  -22.7303  -29.2458   19.8740 H   0  0  0  0  0  0
  -25.1268  -36.1982   25.0834 H   0  0  0  0  0  0
  -20.9940  -28.3226   24.1460 H   0  0  0  0  0  0
  -20.5669  -26.2261   23.3615 H   0  0  0  0  0  0
  -21.6623  -26.7455   22.1212 H   0  0  0  0  0  0
  -19.6894  -25.6307   21.1230 H   0  0  0  0  0  0
  -19.6668  -27.3221   20.6768 H   0  0  0  0  0  0
  -17.4188  -26.6691   21.4026 H   0  0  0  0  0  0
  -18.0288  -26.0056   22.9016 H   0  0  0  0  0  0
  -19.7920  -30.7257   24.2284 H   0  0  0  0  0  0
  -17.5006  -31.6265   24.5171 H   0  0  0  0  0  0
  -15.5333  -30.2990   23.7656 H   0  0  0  0  0  0
  -15.8652  -28.0831   22.7045 H   0  0  0  0  0  0
  -24.5943  -30.6978   25.7835 H   0  0  0  0  0  0
  -24.8889  -32.2800   26.4944 H   0  0  0  0  0  0
  -25.8116  -30.8855   27.0244 H   0  0  0  0  0  0
  -26.2876  -29.6776   24.1198 H   0  0  0  0  0  0
  -27.4139  -29.7302   25.4566 H   0  0  0  0  0  0
  -27.8684  -30.4376   23.9243 H   0  0  0  0  0  0
  -27.2659  -33.3611   26.2096 H   0  0  0  0  0  0
  -28.3844  -32.6880   25.0323 H   0  0  0  0  0  0
  -28.0723  -31.8435   26.5409 H   0  0  0  0  0  0
  -28.2586  -38.0116   24.7533 H   0  0  0  0  0  0
  -28.1084  -36.2652   24.6264 H   0  0  0  0  0  0
  -27.2303  -37.1430   25.8867 H   0  0  0  0  0  0
  -20.9293  -29.8754   21.6972 H   0  0  0  0  0  0
  -26.0185  -38.2883   24.1429 H   0  0  0  0  0  0
  -29.8976  -20.2717   23.7269 H   0  0  0  0  0  0
  -29.9457  -22.7081   23.3941 H   0  0  0  0  0  0
  -29.3346  -22.1604   19.1725 H   0  0  0  0  0  0
  -25.9358  -17.7048   16.2364 H   0  0  0  0  0  0
  -26.5117  -18.7063   17.5563 H   0  0  0  0  0  0
  -26.8329  -16.9744   17.5625 H   0  0  0  0  0  0
  -27.5186  -16.8078   14.4820 H   0  0  0  0  0  0
  -28.4813  -15.9896   15.7099 H   0  0  0  0  0  0
  -29.2458  -17.1119   14.5890 H   0  0  0  0  0  0
  -28.8299  -17.7951   21.3001 H   0  0  0  0  0  0
  -29.2803  -18.1316   22.9367 H   0  0  0  0  0  0
  -29.4056  -17.4226   17.7435 H   0  0  0  0  0  0
  -30.2098  -18.3406   16.5049 H   0  0  0  0  0  0
  -31.7229  -18.2560   22.1449 H   0  0  0  0  0  0
  -31.2171  -17.5772   20.6274 H   0  0  0  0  0  0
  -30.8247  -16.2701   23.3887 H   0  0  0  0  0  0
  -32.1732  -15.9434   22.3468 H   0  0  0  0  0  0
  -27.6184  -24.7851   20.0442 H   0  0  0  0  0  0
  -28.2971  -25.4030   18.5401 H   0  0  0  0  0  0
  -30.5517  -25.4668   20.0202 H   0  0  0  0  0  0
  -30.1059  -24.0748   19.1198 H   0  0  0  0  0  0
  -27.9611  -18.9971   15.5581 H   0  0  0  0  0  0
  -29.4329  -18.4363   19.5388 H   0  0  0  0  0  0
  -29.4996  -14.8504   22.1596 H   0  0  0  0  0  0
  1 25  1  0  0  0
  1 30  2  0  0  0
  1 88  1  0  0  0
  2  3  1  0  0  0
  2 25  1  0  0  0
  2 91  1  0  0  0
  2 92  1  0  0  0
  3  4  1  0  0  0
  3 93  1  0  0  0
  3 94  1  0  0  0
  4  5  1  0  0  0
  4 95  1  0  0  0
  4 96  1  0  0  0
  5  6  1  0  0  0
  5 26  1  0  0  0
  5 97  1  0  0  0
  6 25  1  0  0  0
  6 98  1  0  0  0
  6 99  1  0  0  0
  7  8  2  0  0  0
  7 26  1  0  0  0
  7 29  1  0  0  0
  8  9  1  0  0  0
  8 22  1  0  0  0
  9 10  1  0  0  0
  9 27  2  0  0  0
 10 11  2  0  0  0
 10 15  1  0  0  0
 11 12  1  0  0  0
 11100  1  0  0  0
 12 13  2  0  0  0
 12101  1  0  0  0
 13 14  1  0  0  0
 13 31  1  0  0  0
 14 15  2  0  0  0
 14102  1  0  0  0
 15103  1  0  0  0
 16 17  2  0  0  0
 16 21  1  0  0  0
 16 31  1  0  0  0
 17 18  1  0  0  0
 17104  1  0  0  0
 18 19  2  0  0  0
 18105  1  0  0  0
 19 20  1  0  0  0
 19 24  1  0  0  0
 20 21  2  0  0  0
 20106  1  0  0  0
 21 23  1  0  0  0
 22 28  1  0  0  0
 22 32  2  0  0  0
 26 27  1  0  0  0
 28107  1  0  0  0
 28108  1  0  0  0
 29109  1  0  0  0
 29110  1  0  0  0
 33 34  1  0  0  0
 33 66  1  0  0  0
 33 70  2  0  0  0
 34 36  1  0  0  0
 34 59  1  0  0  0
 34111  1  0  0  0
 35 44  2  0  0  0
 35 45  1  0  0  0
 35 68  1  0  0  0
 36 56  1  0  0  0
 36112  1  0  0  0
 37 39  1  0  0  0
 37 47  1  0  0  0
 37 66  1  0  0  0
 37113  1  0  0  0
 38 43  2  0  0  0
 38 46  1  0  0  0
 38 47  1  0  0  0
 39 64  1  0  0  0
 39 67  2  0  0  0
 40 52  1  0  0  0
 40 53  2  0  0  0
 40 58  1  0  0  0
 41114  1  0  0  0
 41115  1  0  0  0
 41116  1  0  0  0
 41 48  1  0  0  0
 42 43  1  0  0  0
 42 66  1  0  0  0
 42117  1  0  0  0
 42118  1  0  0  0
 43 44  1  0  0  0
 44119  1  0  0  0
 45 46  2  0  0  0
 45120  1  0  0  0
 46121  1  0  0  0
 47122  1  0  0  0
 47123  1  0  0  0
 48 56  1  0  0  0
 48 65  1  0  0  0
 48124  1  0  0  0
 49 50  1  0  0  0
 49 53  1  0  0  0
 49 64  1  0  0  0
 49125  1  0  0  0
 50 51  1  0  0  0
 50126  1  0  0  0
 50127  1  0  0  0
 51 52  1  0  0  0
 51128  1  0  0  0
 51129  1  0  0  0
 52130  1  0  0  0
 52131  1  0  0  0
 53 54  1  0  0  0
 54 55  2  0  0  0
 54132  1  0  0  0
 55 57  1  0  0  0
 55133  1  0  0  0
 56 69  2  0  0  0
 57 58  2  0  0  0
 57134  1  0  0  0
 58135  1  0  0  0
 59 60  1  0  0  0
 59 61  1  0  0  0
 59 62  1  0  0  0
 60136  1  0  0  0
 60137  1  0  0  0
 60138  1  0  0  0
 61139  1  0  0  0
 61140  1  0  0  0
 61141  1  0  0  0
 62142  1  0  0  0
 62143  1  0  0  0
 62144  1  0  0  0
 63 65  1  0  0  0
 63145  1  0  0  0
 63146  1  0  0  0
 63147  1  0  0  0
 64148  1  0  0  0
 65149  1  0  0  0
 68 84  1  0  0  0
 71 72  2  0  0  0
 71 74  1  0  0  0
 71150  1  0  0  0
 72 76  1  0  0  0
 72151  1  0  0  0
 73 75  1  0  0  0
 73 76  2  0  0  0
 73152  1  0  0  0
 74 75  2  0  0  0
 74 80  1  0  0  0
 75 87  1  0  0  0
 76 90  1  0  0  0
 77 81  1  0  0  0
 77 87  1  0  0  0
 77 89  2  0  0  0
 78153  1  0  0  0
 78154  1  0  0  0
 78155  1  0  0  0
 78 86  1  0  0  0
 79 86  1  0  0  0
 79156  1  0  0  0
 79157  1  0  0  0
 79158  1  0  0  0
 80 82  1  0  0  0
 80159  1  0  0  0
 80160  1  0  0  0
 81 86  1  0  0  0
 81161  1  0  0  0
 81162  1  0  0  0
 82 83  1  0  0  0
 82163  1  0  0  0
 82164  1  0  0  0
 83 88  1  0  0  0
 83165  1  0  0  0
 83166  1  0  0  0
 84 85  1  0  0  0
 84167  1  0  0  0
 84168  1  0  0  0
 85 90  1  0  0  0
 85169  1  0  0  0
 85170  1  0  0  0
 86171  1  0  0  0
 87172  1  0  0  0
 88173  1  0  0  0
M  ISO  4   1 100  68 101  84 101  88 100
M  END
> <chiral flag>
0

> <version>
0

> <s_m_source_file>
/data/baiqing/PycharmProjects/Reinvent-master-3.2/result/LINK_invent/BTK/process_docking_weight1_custom_sum_contain_oxygen_bond_distance_aromatic_linkinvent_7_9_3/rearranged_h_0138.sdf

> <i_m_source_file_index>
51

> <r_mmod_Potential_Energy-OPLS-2005>
-87.1055297851562

> <r_mmod_Stretch_Energy-OPLS-2005>
38.4466705322266

> <r_mmod_Bend_Energy-OPLS-2005>
126.210922241211

> <r_mmod_Torsional_Energy-OPLS-2005>
196.171997070312

> <r_mmod_Improper_Torsional_Energy-OPLS-2005>
2.24926805496216

> <r_mmod_Van_der_Waal_Energy-OPLS-2005>
157.052307128906

> <r_mmod_Electrostatic_Energy-OPLS-2005>
-382.893859863281

> <r_mmod_Solvation_Energy-OPLS-2005>
-233.035568237305

> <b_mmod_Minimization_Converged-OPLS-2005>
0

> <r_mmod_RMS_Derivative-OPLS-2005>
0.926892340183258

$$$$
51
                    3D
 Structure written by MMmdl.
163171  0  0  1  0            999 V2000
  -30.5420  -14.9304   20.4264 C   0  0  0  0  0  0
  -30.4349  -12.5787   19.4809 C   0  0  0  0  0  0
  -29.5127  -12.5282   18.2426 C   0  0  0  0  0  0
  -28.0457  -12.3186   18.6646 C   0  0  0  0  0  0
  -27.6252  -13.2464   19.8340 C   0  0  2  0  0  0
  -28.6712  -13.2692   20.9665 C   0  0  0  0  0  0
  -25.2429  -13.8200   20.5710 C   0  0  0  0  0  0
  -24.1746  -13.0431   20.9253 C   0  0  0  0  0  0
  -24.6353  -11.6931   20.8754 C   0  0  0  0  0  0
  -23.9054  -10.4289   21.0398 C   0  0  0  0  0  0
  -24.3604   -9.4209   21.9185 C   0  0  0  0  0  0
  -23.6288   -8.2234   22.0743 C   0  0  0  0  0  0
  -22.4277   -8.0251   21.3518 C   0  0  0  0  0  0
  -21.9905   -9.0235   20.4638 C   0  0  0  0  0  0
  -22.7228  -10.2124   20.3051 C   0  0  0  0  0  0
  -21.6865   -6.0709   22.5258 C   0  0  0  0  0  0
  -21.4025   -6.5622   23.8192 C   0  0  0  0  0  0
  -21.3676   -5.6784   24.9158 C   0  0  0  0  0  0
  -21.6048   -4.3040   24.7220 C   0  0  0  0  0  0
  -21.8827   -3.8129   23.4340 C   0  0  0  0  0  0
  -21.9199   -4.6930   22.3395 C   0  0  0  0  0  0
  -22.7775  -13.5194   21.1941 C   0  0  0  0  0  0
  -22.1661   -4.2114   21.0967 F   0  0  0  0  0  0
  -21.5644   -3.4536   25.7740 F   0  0  0  0  0  0
  -29.9422  -13.6776   20.3546 N   0  0  0  0  0  0
  -26.2845  -12.9437   20.3235 N   0  0  0  0  0  0
  -25.9281  -11.6571   20.5738 N   0  0  0  0  0  0
  -22.0457  -12.8130   22.0477 N   0  0  0  0  0  0
  -25.4114  -15.1934   20.4094 N   0  0  0  0  0  0
  -31.7622  -14.9904   20.2420 O   0  0  0  0  0  0
  -21.6638   -6.8843   21.4220 O   0  0  0  0  0  0
  -22.3450  -14.5513   20.6820 O   0  0  0  0  0  0
  -24.6427  -31.8445   23.1819 C   0  0  0  0  0  0
  -25.9170  -32.4720   23.8233 C   0  0  1  0  0  0
  -27.2279  -27.1310   20.1780 C   0  0  0  0  0  0
  -25.5905  -33.8516   24.2200 N   0  0  0  0  0  0
  -23.4511  -30.4602   21.5271 C   0  0  2  0  0  0
  -24.9026  -28.8741   20.1172 C   0  0  0  0  0  0
  -22.7568  -29.4560   22.4818 C   0  0  0  0  0  0
  -18.0304  -28.1419   22.8496 C   0  0  0  0  0  0
  -24.1468  -36.7268   23.2650 C   0  0  0  0  0  0
  -26.0050  -30.7189   21.3758 C   0  0  0  0  0  0
  -26.0792  -29.3227   20.7327 C   0  0  0  0  0  0
  -27.2454  -28.4712   20.7363 C   0  0  0  0  0  0
  -26.0271  -26.7761   19.5269 C   0  0  0  0  0  0
  -24.8882  -27.6119   19.4976 C   0  0  0  0  0  0
  -23.6840  -29.7828   20.1490 C   0  0  0  0  0  0
  -25.4104  -36.3078   24.0350 C   0  0  1  0  0  0
  -20.5916  -28.3742   23.1233 C   0  0  2  0  0  0
  -20.6797  -26.9433   22.5406 C   0  0  0  0  0  0
  -19.5769  -26.6397   21.5214 C   0  0  0  0  0  0
  -18.1949  -26.7973   22.1613 C   0  0  0  0  0  0
  -19.1566  -28.8890   23.2867 C   0  0  0  0  0  0
  -18.9481  -30.1489   23.8901 C   0  0  0  0  0  0
  -17.6483  -30.6618   24.0581 C   0  0  0  0  0  0
  -25.9053  -34.9454   23.5111 C   0  0  0  0  0  0
  -16.5374  -29.9125   23.6329 C   0  0  0  0  0  0
  -16.7285  -28.6541   23.0365 C   0  0  0  0  0  0
  -26.4494  -31.6572   25.0678 C   0  0  0  0  0  0
  -25.3674  -31.3776   26.1394 C   0  0  0  0  0  0
  -27.0340  -30.2983   24.6235 C   0  0  0  0  0  0
  -27.6052  -32.4293   25.7469 C   0  0  0  0  0  0
  -27.5581  -37.1813   24.8468 C   0  0  0  0  0  0
  -21.4257  -29.3091   22.3611 N   0  0  0  0  0  0
  -26.4279  -37.3793   23.9439 N   0  0  0  0  0  0
  -24.7208  -31.0307   22.0851 N   0  0  0  0  0  0
  -23.4214  -28.8111   23.2958 O   0  0  0  0  0  0
  -28.2965  -26.1653   20.1792 O   0  0  0  0  0  0
  -26.5630  -34.8953   22.4689 O   0  0  0  0  0  0
  -23.5542  -32.1252   23.7058 O   0  0  0  0  0  0
  -30.1245  -22.4137   21.8176 C   0  0  0  0  0  0
  -30.0636  -21.5066   23.0273 C   0  0  0  0  0  0
  -29.2710  -20.2779   22.5773 C   0  0  2  0  0  0
  -28.9630  -20.4765   21.0677 C   0  0  2  0  0  0
  -25.8542  -18.5573   23.4310 C   0  0  0  0  0  0
  -27.9992  -19.9833   23.4020 C   0  0  0  0  0  0
  -29.5025  -19.0742   20.2545 C   0  0  0  0  0  0
  -27.3055  -18.6721   22.9708 C   0  0  0  0  0  0
  -28.6393  -23.2174   20.0364 C   0  0  0  0  0  0
  -30.0281  -17.6020   20.9503 C   0  0  0  0  0  0
  -28.1318  -24.7044   20.7040 C   0  0  0  0  0  0
  -29.3099  -22.0145   20.8268 N   0  0  0  0  0  0
  -29.7523  -16.1109   20.5000 N   0  0  0  0  0  0
  -30.7758  -23.4623   21.8359 O   0  0  0  0  0  0
  -31.4689  -12.7405   19.1740 H   0  0  0  0  0  0
  -30.4217  -11.6267   20.0127 H   0  0  0  0  0  0
  -29.8247  -11.7322   17.5657 H   0  0  0  0  0  0
  -29.6010  -13.4613   17.6831 H   0  0  0  0  0  0
  -27.9380  -11.2770   18.9674 H   0  0  0  0  0  0
  -27.3811  -12.4592   17.8106 H   0  0  0  0  0  0
  -27.5872  -14.2496   19.4083 H   0  0  0  0  0  0
  -28.7587  -12.2933   21.4455 H   0  0  0  0  0  0
  -28.3786  -13.9747   21.7455 H   0  0  0  0  0  0
  -25.2746   -9.5690   22.4775 H   0  0  0  0  0  0
  -24.0004   -7.4620   22.7453 H   0  0  0  0  0  0
  -21.0847   -8.8744   19.8941 H   0  0  0  0  0  0
  -22.3674  -10.9651   19.6158 H   0  0  0  0  0  0
  -21.2013   -7.6141   23.9681 H   0  0  0  0  0  0
  -21.1504   -6.0519   25.9058 H   0  0  0  0  0  0
  -22.0596   -2.7593   23.2853 H   0  0  0  0  0  0
  -22.4091  -11.9740   22.4762 H   0  0  0  0  0  0
  -21.1075  -13.1119   22.2759 H   0  0  0  0  0  0
  -24.6498  -15.8512   20.5203 H   0  0  0  0  0  0
  -26.2538  -15.6266   20.0581 H   0  0  0  0  0  0
  -26.7268  -32.5368   23.0975 H   0  0  0  0  0  0
  -25.0068  -33.9614   25.0382 H   0  0  0  0  0  0
  -22.7564  -31.2865   21.3664 H   0  0  0  0  0  0
  -23.3747  -35.9582   23.3300 H   0  0  0  0  0  0
  -24.3556  -36.8875   22.2055 H   0  0  0  0  0  0
  -23.7180  -37.6467   23.6650 H   0  0  0  0  0  0
  -26.1486  -31.4608   20.5888 H   0  0  0  0  0  0
  -26.8838  -30.7870   22.0058 H   0  0  0  0  0  0
  -28.1476  -28.8258   21.2174 H   0  0  0  0  0  0
  -25.9653  -25.8100   19.0438 H   0  0  0  0  0  0
  -23.9917  -27.2598   19.0053 H   0  0  0  0  0  0
  -23.8333  -30.5541   19.3917 H   0  0  0  0  0  0
  -22.7997  -29.2280   19.8302 H   0  0  0  0  0  0
  -25.1285  -36.1927   25.0842 H   0  0  0  0  0  0
  -21.0027  -28.3336   24.1335 H   0  0  0  0  0  0
  -20.5681  -26.2358   23.3642 H   0  0  0  0  0  0
  -21.6677  -26.7440   22.1207 H   0  0  0  0  0  0
  -19.6919  -25.6302   21.1253 H   0  0  0  0  0  0
  -19.6722  -27.3224   20.6759 H   0  0  0  0  0  0
  -17.4234  -26.6721   21.4007 H   0  0  0  0  0  0
  -18.0313  -26.0137   22.9013 H   0  0  0  0  0  0
  -19.7949  -30.7305   24.2277 H   0  0  0  0  0  0
  -17.5033  -31.6281   24.5194 H   0  0  0  0  0  0
  -15.5386  -30.3044   23.7643 H   0  0  0  0  0  0
  -15.8675  -28.0862   22.7080 H   0  0  0  0  0  0
  -24.5886  -30.7078   25.7753 H   0  0  0  0  0  0
  -24.8815  -32.2949   26.4716 H   0  0  0  0  0  0
  -25.7961  -30.9046   27.0236 H   0  0  0  0  0  0
  -26.2943  -29.6749   24.1215 H   0  0  0  0  0  0
  -27.3935  -29.7258   25.4785 H   0  0  0  0  0  0
  -27.8849  -30.4250   23.9551 H   0  0  0  0  0  0
  -27.2693  -33.3634   26.1972 H   0  0  0  0  0  0
  -28.3911  -32.6754   25.0324 H   0  0  0  0  0  0
  -28.0647  -31.8426   26.5423 H   0  0  0  0  0  0
  -28.2634  -38.0096   24.7561 H   0  0  0  0  0  0
  -28.1045  -36.2635   24.6226 H   0  0  0  0  0  0
  -27.2307  -37.1397   25.8878 H   0  0  0  0  0  0
  -20.9436  -29.8803   21.6814 H   0  0  0  0  0  0
  -26.0139  -38.2884   24.1431 H   0  0  0  0  0  0
  -29.5727  -22.0319   23.8469 H   0  0  0  0  0  0
  -31.0716  -21.2490   23.3551 H   0  0  0  0  0  0
  -29.9633  -19.4579   22.7403 H   0  0  0  0  0  0
  -27.8811  -20.4799   20.9343 H   0  0  0  0  0  0
  -25.4294  -17.6174   23.0744 H   0  0  0  0  0  0
  -25.2511  -19.3676   23.0211 H   0  0  0  0  0  0
  -25.7743  -18.5833   24.5188 H   0  0  0  0  0  0
  -27.3071  -20.8207   23.3030 H   0  0  0  0  0  0
  -28.2537  -19.9286   24.4636 H   0  0  0  0  0  0
  -30.2866  -19.3914   19.5693 H   0  0  0  0  0  0
  -28.6815  -18.8051   19.5891 H   0  0  0  0  0  0
  -27.2986  -18.5720   21.8875 H   0  0  0  0  0  0
  -27.8704  -17.8172   23.3402 H   0  0  0  0  0  0
  -29.3617  -23.4654   19.2596 H   0  0  0  0  0  0
  -27.7974  -22.7928   19.4897 H   0  0  0  0  0  0
  -29.6341  -17.5573   21.9612 H   0  0  0  0  0  0
  -31.1065  -17.6852   21.0962 H   0  0  0  0  0  0
  -28.5657  -24.7692   21.6999 H   0  0  0  0  0  0
  -27.0708  -24.5789   20.9205 H   0  0  0  0  0  0
  -28.7662  -15.9000   20.4466 H   0  0  0  0  0  0
  1 25  1  0  0  0
  1 30  2  0  0  0
  1 83  1  0  0  0
  2  3  1  0  0  0
  2 25  1  0  0  0
  2 85  1  0  0  0
  2 86  1  0  0  0
  3  4  1  0  0  0
  3 87  1  0  0  0
  3 88  1  0  0  0
  4  5  1  0  0  0
  4 89  1  0  0  0
  4 90  1  0  0  0
  5  6  1  0  0  0
  5 26  1  0  0  0
  5 91  1  0  0  0
  6 25  1  0  0  0
  6 92  1  0  0  0
  6 93  1  0  0  0
  7  8  2  0  0  0
  7 26  1  0  0  0
  7 29  1  0  0  0
  8  9  1  0  0  0
  8 22  1  0  0  0
  9 10  1  0  0  0
  9 27  2  0  0  0
 10 11  2  0  0  0
 10 15  1  0  0  0
 11 12  1  0  0  0
 11 94  1  0  0  0
 12 13  2  0  0  0
 12 95  1  0  0  0
 13 14  1  0  0  0
 13 31  1  0  0  0
 14 15  2  0  0  0
 14 96  1  0  0  0
 15 97  1  0  0  0
 16 17  2  0  0  0
 16 21  1  0  0  0
 16 31  1  0  0  0
 17 18  1  0  0  0
 17 98  1  0  0  0
 18 19  2  0  0  0
 18 99  1  0  0  0
 19 20  1  0  0  0
 19 24  1  0  0  0
 20 21  2  0  0  0
 20100  1  0  0  0
 21 23  1  0  0  0
 22 28  1  0  0  0
 22 32  2  0  0  0
 26 27  1  0  0  0
 28101  1  0  0  0
 28102  1  0  0  0
 29103  1  0  0  0
 29104  1  0  0  0
 33 34  1  0  0  0
 33 66  1  0  0  0
 33 70  2  0  0  0
 34 36  1  0  0  0
 34 59  1  0  0  0
 34105  1  0  0  0
 35 44  2  0  0  0
 35 45  1  0  0  0
 35 68  1  0  0  0
 36 56  1  0  0  0
 36106  1  0  0  0
 37 39  1  0  0  0
 37 47  1  0  0  0
 37 66  1  0  0  0
 37107  1  0  0  0
 38 43  2  0  0  0
 38 46  1  0  0  0
 38 47  1  0  0  0
 39 64  1  0  0  0
 39 67  2  0  0  0
 40 52  1  0  0  0
 40 53  2  0  0  0
 40 58  1  0  0  0
 41108  1  0  0  0
 41109  1  0  0  0
 41110  1  0  0  0
 41 48  1  0  0  0
 42 43  1  0  0  0
 42 66  1  0  0  0
 42111  1  0  0  0
 42112  1  0  0  0
 43 44  1  0  0  0
 44113  1  0  0  0
 45 46  2  0  0  0
 45114  1  0  0  0
 46115  1  0  0  0
 47116  1  0  0  0
 47117  1  0  0  0
 48 56  1  0  0  0
 48 65  1  0  0  0
 48118  1  0  0  0
 49 50  1  0  0  0
 49 53  1  0  0  0
 49 64  1  0  0  0
 49119  1  0  0  0
 50 51  1  0  0  0
 50120  1  0  0  0
 50121  1  0  0  0
 51 52  1  0  0  0
 51122  1  0  0  0
 51123  1  0  0  0
 52124  1  0  0  0
 52125  1  0  0  0
 53 54  1  0  0  0
 54 55  2  0  0  0
 54126  1  0  0  0
 55 57  1  0  0  0
 55127  1  0  0  0
 56 69  2  0  0  0
 57 58  2  0  0  0
 57128  1  0  0  0
 58129  1  0  0  0
 59 60  1  0  0  0
 59 61  1  0  0  0
 59 62  1  0  0  0
 60130  1  0  0  0
 60131  1  0  0  0
 60132  1  0  0  0
 61133  1  0  0  0
 61134  1  0  0  0
 61135  1  0  0  0
 62136  1  0  0  0
 62137  1  0  0  0
 62138  1  0  0  0
 63 65  1  0  0  0
 63139  1  0  0  0
 63140  1  0  0  0
 63141  1  0  0  0
 64142  1  0  0  0
 65143  1  0  0  0
 68 81  1  0  0  0
 71 72  1  0  0  0
 71 82  1  0  0  0
 71 84  2  0  0  0
 72 73  1  0  0  0
 72144  1  0  0  0
 72145  1  0  0  0
 73 74  1  0  0  0
 73 76  1  0  0  0
 73146  1  0  0  0
 74 77  1  0  0  0
 74 82  1  0  0  0
 74147  1  0  0  0
 75 78  1  0  0  0
 75148  1  0  0  0
 75149  1  0  0  0
 75150  1  0  0  0
 76 78  1  0  0  0
 76151  1  0  0  0
 76152  1  0  0  0
 77 80  1  0  0  0
 77153  1  0  0  0
 77154  1  0  0  0
 78155  1  0  0  0
 78156  1  0  0  0
 79 81  1  0  0  0
 79 82  1  0  0  0
 79157  1  0  0  0
 79158  1  0  0  0
 80 83  1  0  0  0
 80159  1  0  0  0
 80160  1  0  0  0
 81161  1  0  0  0
 81162  1  0  0  0
 83163  1  0  0  0
M  ISO  4   1 100  68 101  81 101  83 100
M  END
> <chiral flag>
0

> <version>
0

> <s_m_source_file>
/data/baiqing/PycharmProjects/Reinvent-master-3.2/result/LINK_invent/BTK/process_docking_weight1_custom_sum_contain_oxygen_bond_distance_aromatic_linkinvent_7_9_3/rearranged_h_0138.sdf

> <i_m_source_file_index>
52

> <r_mmod_Potential_Energy-OPLS-2005>
692.362548828125

> <r_mmod_Stretch_Energy-OPLS-2005>
298.344787597656

> <r_mmod_Bend_Energy-OPLS-2005>
350.269866943359

> <r_mmod_Torsional_Energy-OPLS-2005>
337.682586669922

> <r_mmod_Improper_Torsional_Energy-OPLS-2005>
6.49450635910034

> <r_mmod_Van_der_Waal_Energy-OPLS-2005>
113.630645751953

> <r_mmod_Electrostatic_Energy-OPLS-2005>
-365.642028808594

> <r_mmod_Solvation_Energy-OPLS-2005>
-236.090286254883

> <b_mmod_Minimization_Converged-OPLS-2005>
0

> <r_mmod_RMS_Derivative-OPLS-2005>
4.26637077331543

$$$$
52
                    3D
 Structure written by MMmdl.
178187  0  0  1  0            999 V2000
  -30.6992  -14.5454   20.4871 C   0  0  0  0  0  0
  -30.4099  -12.3314   19.4408 C   0  0  0  0  0  0
  -29.4905  -12.4868   18.2119 C   0  0  0  0  0  0
  -28.0137  -12.3436   18.6254 C   0  0  0  0  0  0
  -27.6492  -13.2153   19.8579 C   0  0  2  0  0  0
  -28.6957  -13.0827   20.9860 C   0  0  0  0  0  0
  -25.2566  -13.8099   20.5714 C   0  0  0  0  0  0
  -24.1814  -13.0401   20.9192 C   0  0  0  0  0  0
  -24.6383  -11.6869   20.8741 C   0  0  0  0  0  0
  -23.9048  -10.4261   21.0406 C   0  0  0  0  0  0
  -24.3603   -9.4185   21.9185 C   0  0  0  0  0  0
  -23.6278   -8.2226   22.0763 C   0  0  0  0  0  0
  -22.4263   -8.0265   21.3543 C   0  0  0  0  0  0
  -21.9884   -9.0234   20.4648 C   0  0  0  0  0  0
  -22.7218  -10.2113   20.3058 C   0  0  0  0  0  0
  -21.6845   -6.0728   22.5280 C   0  0  0  0  0  0
  -21.4013   -6.5640   23.8212 C   0  0  0  0  0  0
  -21.3658   -5.6798   24.9180 C   0  0  0  0  0  0
  -21.6045   -4.3059   24.7227 C   0  0  0  0  0  0
  -21.8820   -3.8148   23.4350 C   0  0  0  0  0  0
  -21.9191   -4.6960   22.3405 C   0  0  0  0  0  0
  -22.7851  -13.5226   21.1851 C   0  0  0  0  0  0
  -22.1660   -4.2147   21.0977 F   0  0  0  0  0  0
  -21.5621   -3.4543   25.7737 F   0  0  0  0  0  0
  -30.0127  -13.3696   20.4058 N   0  0  0  0  0  0
  -26.2984  -12.9306   20.3337 N   0  0  0  0  0  0
  -25.9317  -11.6461   20.5772 N   0  0  0  0  0  0
  -22.0492  -12.8216   22.0407 N   0  0  0  0  0  0
  -25.4323  -15.1773   20.4146 N   0  0  0  0  0  0
  -31.8885  -14.6176   20.1609 O   0  0  0  0  0  0
  -21.6640   -6.8861   21.4234 O   0  0  0  0  0  0
  -22.3553  -14.5544   20.6719 O   0  0  0  0  0  0
  -24.6166  -31.8669   23.2056 C   0  0  0  0  0  0
  -25.9041  -32.4813   23.8384 C   0  0  1  0  0  0
  -27.2222  -27.3790   20.0917 C   0  0  0  0  0  0
  -25.5908  -33.8611   24.2304 N   0  0  0  0  0  0
  -23.4063  -30.4912   21.5460 C   0  0  2  0  0  0
  -24.8527  -28.9528   20.1067 C   0  0  0  0  0  0
  -22.7423  -29.4650   22.4929 C   0  0  0  0  0  0
  -18.0276  -28.1342   22.8490 C   0  0  0  0  0  0
  -24.1488  -36.7282   23.2635 C   0  0  0  0  0  0
  -25.9426  -30.8084   21.3738 C   0  0  0  0  0  0
  -26.0133  -29.4397   20.7174 C   0  0  0  0  0  0
  -27.1953  -28.6549   20.7178 C   0  0  0  0  0  0
  -26.0424  -26.9278   19.4595 C   0  0  0  0  0  0
  -24.8635  -27.6969   19.4763 C   0  0  0  0  0  0
  -23.6171  -29.8254   20.1599 C   0  0  0  0  0  0
  -25.4114  -36.3093   24.0333 C   0  0  1  0  0  0
  -20.5875  -28.3649   23.1269 C   0  0  2  0  0  0
  -20.6773  -26.9370   22.5391 C   0  0  0  0  0  0
  -19.5753  -26.6347   21.5187 C   0  0  0  0  0  0
  -18.1928  -26.7890   22.1603 C   0  0  0  0  0  0
  -19.1532  -28.8802   23.2890 C   0  0  0  0  0  0
  -18.9467  -30.1406   23.8901 C   0  0  0  0  0  0
  -17.6475  -30.6566   24.0545 C   0  0  0  0  0  0
  -25.9048  -34.9464   23.5109 C   0  0  0  0  0  0
  -16.5363  -29.9067   23.6318 C   0  0  0  0  0  0
  -16.7268  -28.6471   23.0365 C   0  0  0  0  0  0
  -26.4465  -31.6621   25.0742 C   0  0  0  0  0  0
  -25.3717  -31.3730   26.1489 C   0  0  0  0  0  0
  -27.0315  -30.3066   24.6150 C   0  0  0  0  0  0
  -27.6050  -32.4358   25.7479 C   0  0  0  0  0  0
  -27.5578  -37.1792   24.8466 C   0  0  0  0  0  0
  -21.4142  -29.3031   22.3681 N   0  0  0  0  0  0
  -26.4290  -37.3788   23.9417 N   0  0  0  0  0  0
  -24.6723  -31.0712   22.0981 N   0  0  0  0  0  0
  -23.4190  -28.8184   23.2971 O   0  0  0  0  0  0
  -28.3715  -26.6003   20.1608 O   0  0  0  0  0  0
  -26.5607  -34.8924   22.4669 O   0  0  0  0  0  0
  -23.5347  -32.1459   23.7411 O   0  0  0  0  0  0
  -25.0267  -20.7876   20.3379 C   0  0  0  0  0  0
  -26.2225  -21.5066   20.5027 C   0  0  0  0  0  0
  -26.3095  -18.7457   20.2197 C   0  0  0  0  0  0
  -27.5297  -19.4355   20.4143 C   0  0  0  0  0  0
  -25.0655  -19.3950   20.1725 C   0  0  0  0  0  0
  -27.4953  -20.8785   20.4875 C   0  0  0  0  0  0
  -28.6262  -17.4774   21.7019 C   0  0  0  0  0  0
  -29.0954  -17.7324   19.2629 C   0  0  0  0  0  0
  -29.7501  -16.4040   21.7820 C   0  0  0  0  0  0
  -30.2305  -16.6923   19.4476 C   0  0  0  0  0  0
  -28.7852  -18.5266   20.5554 C   0  0  0  0  0  0
  -23.4244  -18.5899   18.4437 C   0  0  0  0  0  0
  -22.6255  -18.9845   20.8267 C   0  0  0  0  0  0
  -28.0947  -23.3144   18.0857 C   0  0  0  0  0  0
  -28.7701  -21.7685   20.5171 C   0  0  0  0  0  0
  -28.6174  -25.5215   19.2216 C   0  0  0  0  0  0
  -23.8029  -18.5751   19.9290 C   0  0  0  0  0  0
  -28.0171  -24.0717   19.4336 C   0  0  2  0  0  0
  -29.9523  -15.6925   20.5067 N   0  0  0  0  0  0
  -28.6417  -23.2797   20.5627 N   0  3  0  0  0  0
  -31.4559  -12.4102   19.1417 H   0  0  0  0  0  0
  -30.2994  -11.3401   19.8837 H   0  0  0  0  0  0
  -29.7400  -11.7412   17.4555 H   0  0  0  0  0  0
  -29.6504  -13.4616   17.7478 H   0  0  0  0  0  0
  -27.8321  -11.2907   18.8474 H   0  0  0  0  0  0
  -27.3626  -12.5910   17.7871 H   0  0  0  0  0  0
  -27.6660  -14.2498   19.5151 H   0  0  0  0  0  0
  -28.6857  -12.0784   21.4131 H   0  0  0  0  0  0
  -28.4614  -13.7640   21.8045 H   0  0  0  0  0  0
  -25.2748   -9.5676   22.4753 H   0  0  0  0  0  0
  -23.9991   -7.4622   22.7490 H   0  0  0  0  0  0
  -21.0819   -8.8756   19.8944 H   0  0  0  0  0  0
  -22.3681  -10.9657   19.6171 H   0  0  0  0  0  0
  -21.2010   -7.6147   23.9713 H   0  0  0  0  0  0
  -21.1476   -6.0531   25.9083 H   0  0  0  0  0  0
  -22.0598   -2.7607   23.2858 H   0  0  0  0  0  0
  -22.4103  -11.9849   22.4736 H   0  0  0  0  0  0
  -21.1121  -13.1254   22.2642 H   0  0  0  0  0  0
  -24.6691  -15.8303   20.5411 H   0  0  0  0  0  0
  -26.2984  -15.6067   20.1188 H   0  0  0  0  0  0
  -26.7100  -32.5506   23.1125 H   0  0  0  0  0  0
  -25.0129  -33.9801   25.0498 H   0  0  0  0  0  0
  -22.6952  -31.3083   21.4052 H   0  0  0  0  0  0
  -23.3772  -35.9597   23.3304 H   0  0  0  0  0  0
  -24.3561  -36.8886   22.2045 H   0  0  0  0  0  0
  -23.7220  -37.6470   23.6659 H   0  0  0  0  0  0
  -26.0752  -31.5722   20.6071 H   0  0  0  0  0  0
  -26.8229  -30.8527   22.0026 H   0  0  0  0  0  0
  -28.0873  -29.0205   21.2076 H   0  0  0  0  0  0
  -25.9974  -25.9746   18.9588 H   0  0  0  0  0  0
  -23.9701  -27.3173   18.9994 H   0  0  0  0  0  0
  -23.7272  -30.6038   19.4063 H   0  0  0  0  0  0
  -22.7396  -29.2496   19.8591 H   0  0  0  0  0  0
  -25.1289  -36.1936   25.0828 H   0  0  0  0  0  0
  -21.0000  -28.3218   24.1374 H   0  0  0  0  0  0
  -20.5604  -26.2270   23.3595 H   0  0  0  0  0  0
  -21.6656  -26.7355   22.1207 H   0  0  0  0  0  0
  -19.6915  -25.6248   21.1227 H   0  0  0  0  0  0
  -19.6689  -27.3150   20.6710 H   0  0  0  0  0  0
  -17.4194  -26.6623   21.4013 H   0  0  0  0  0  0
  -18.0340  -26.0003   22.8972 H   0  0  0  0  0  0
  -19.7948  -30.7219   24.2270 H   0  0  0  0  0  0
  -17.5039  -31.6261   24.5130 H   0  0  0  0  0  0
  -15.5369  -30.2988   23.7623 H   0  0  0  0  0  0
  -15.8666  -28.0794   22.7090 H   0  0  0  0  0  0
  -24.5892  -30.7077   25.7824 H   0  0  0  0  0  0
  -24.8924  -32.2890   26.4965 H   0  0  0  0  0  0
  -25.8060  -30.8879   27.0243 H   0  0  0  0  0  0
  -26.2877  -29.6826   24.1193 H   0  0  0  0  0  0
  -27.4058  -29.7314   25.4628 H   0  0  0  0  0  0
  -27.8723  -30.4376   23.9334 H   0  0  0  0  0  0
  -27.2679  -33.3664   26.2050 H   0  0  0  0  0  0
  -28.3839  -32.6904   25.0283 H   0  0  0  0  0  0
  -28.0749  -31.8500   26.5388 H   0  0  0  0  0  0
  -28.2585  -38.0105   24.7556 H   0  0  0  0  0  0
  -28.1075  -36.2632   24.6242 H   0  0  0  0  0  0
  -27.2294  -37.1389   25.8868 H   0  0  0  0  0  0
  -20.9273  -29.8806   21.6965 H   0  0  0  0  0  0
  -26.0165  -38.2848   24.1473 H   0  0  0  0  0  0
  -24.0850  -21.3178   20.3184 H   0  0  0  0  0  0
  -26.1172  -22.5689   20.6301 H   0  0  0  0  0  0
  -26.3201  -17.6751   20.0999 H   0  0  0  0  0  0
  -28.5413  -17.9940   22.6582 H   0  0  0  0  0  0
  -27.6927  -16.9295   21.5866 H   0  0  0  0  0  0
  -28.2080  -17.2014   18.9184 H   0  0  0  0  0  0
  -29.3578  -18.4259   18.4622 H   0  0  0  0  0  0
  -29.5056  -15.6904   22.5710 H   0  0  0  0  0  0
  -30.6905  -16.8727   22.0813 H   0  0  0  0  0  0
  -31.1666  -17.2081   19.6736 H   0  0  0  0  0  0
  -30.3890  -16.1839   18.4937 H   0  0  0  0  0  0
  -29.6502  -19.1490   20.7846 H   0  0  0  0  0  0
  -24.2479  -18.2222   17.8301 H   0  0  0  0  0  0
  -23.1802  -19.5963   18.1034 H   0  0  0  0  0  0
  -22.5635  -17.9506   18.2475 H   0  0  0  0  0  0
  -22.9068  -18.9528   21.8796 H   0  0  0  0  0  0
  -21.7847  -18.3025   20.6951 H   0  0  0  0  0  0
  -22.2663  -19.9889   20.6035 H   0  0  0  0  0  0
  -27.6065  -23.8777   17.2888 H   0  0  0  0  0  0
  -27.5925  -22.3480   18.1152 H   0  0  0  0  0  0
  -29.1283  -23.1516   17.7773 H   0  0  0  0  0  0
  -29.4007  -21.4905   19.6722 H   0  0  0  0  0  0
  -29.3368  -21.4763   21.4009 H   0  0  0  0  0  0
  -28.3066  -25.8927   18.2435 H   0  0  0  0  0  0
  -29.7005  -25.4344   19.1356 H   0  0  0  0  0  0
  -24.0322  -17.5425   20.1877 H   0  0  0  0  0  0
  -26.9633  -24.1924   19.6668 H   0  0  0  0  0  0
  -29.5874  -23.6145   20.6615 H   0  0  0  0  0  0
  -28.1851  -23.5264   21.4276 H   0  0  0  0  0  0
  1 25  1  0  0  0
  1 30  2  0  0  0
  1 89  1  0  0  0
  2  3  1  0  0  0
  2 25  1  0  0  0
  2 91  1  0  0  0
  2 92  1  0  0  0
  3  4  1  0  0  0
  3 93  1  0  0  0
  3 94  1  0  0  0
  4  5  1  0  0  0
  4 95  1  0  0  0
  4 96  1  0  0  0
  5  6  1  0  0  0
  5 26  1  0  0  0
  5 97  1  0  0  0
  6 25  1  0  0  0
  6 98  1  0  0  0
  6 99  1  0  0  0
  7  8  2  0  0  0
  7 26  1  0  0  0
  7 29  1  0  0  0
  8  9  1  0  0  0
  8 22  1  0  0  0
  9 10  1  0  0  0
  9 27  2  0  0  0
 10 11  2  0  0  0
 10 15  1  0  0  0
 11 12  1  0  0  0
 11100  1  0  0  0
 12 13  2  0  0  0
 12101  1  0  0  0
 13 14  1  0  0  0
 13 31  1  0  0  0
 14 15  2  0  0  0
 14102  1  0  0  0
 15103  1  0  0  0
 16 17  2  0  0  0
 16 21  1  0  0  0
 16 31  1  0  0  0
 17 18  1  0  0  0
 17104  1  0  0  0
 18 19  2  0  0  0
 18105  1  0  0  0
 19 20  1  0  0  0
 19 24  1  0  0  0
 20 21  2  0  0  0
 20106  1  0  0  0
 21 23  1  0  0  0
 22 28  1  0  0  0
 22 32  2  0  0  0
 26 27  1  0  0  0
 28107  1  0  0  0
 28108  1  0  0  0
 29109  1  0  0  0
 29110  1  0  0  0
 33 34  1  0  0  0
 33 66  1  0  0  0
 33 70  2  0  0  0
 34 36  1  0  0  0
 34 59  1  0  0  0
 34111  1  0  0  0
 35 44  2  0  0  0
 35 45  1  0  0  0
 35 68  1  0  0  0
 36 56  1  0  0  0
 36112  1  0  0  0
 37 39  1  0  0  0
 37 47  1  0  0  0
 37 66  1  0  0  0
 37113  1  0  0  0
 38 43  2  0  0  0
 38 46  1  0  0  0
 38 47  1  0  0  0
 39 64  1  0  0  0
 39 67  2  0  0  0
 40 52  1  0  0  0
 40 53  2  0  0  0
 40 58  1  0  0  0
 41114  1  0  0  0
 41115  1  0  0  0
 41116  1  0  0  0
 41 48  1  0  0  0
 42 43  1  0  0  0
 42 66  1  0  0  0
 42117  1  0  0  0
 42118  1  0  0  0
 43 44  1  0  0  0
 44119  1  0  0  0
 45 46  2  0  0  0
 45120  1  0  0  0
 46121  1  0  0  0
 47122  1  0  0  0
 47123  1  0  0  0
 48 56  1  0  0  0
 48 65  1  0  0  0
 48124  1  0  0  0
 49 50  1  0  0  0
 49 53  1  0  0  0
 49 64  1  0  0  0
 49125  1  0  0  0
 50 51  1  0  0  0
 50126  1  0  0  0
 50127  1  0  0  0
 51 52  1  0  0  0
 51128  1  0  0  0
 51129  1  0  0  0
 52130  1  0  0  0
 52131  1  0  0  0
 53 54  1  0  0  0
 54 55  2  0  0  0
 54132  1  0  0  0
 55 57  1  0  0  0
 55133  1  0  0  0
 56 69  2  0  0  0
 57 58  2  0  0  0
 57134  1  0  0  0
 58135  1  0  0  0
 59 60  1  0  0  0
 59 61  1  0  0  0
 59 62  1  0  0  0
 60136  1  0  0  0
 60137  1  0  0  0
 60138  1  0  0  0
 61139  1  0  0  0
 61140  1  0  0  0
 61141  1  0  0  0
 62142  1  0  0  0
 62143  1  0  0  0
 62144  1  0  0  0
 63 65  1  0  0  0
 63145  1  0  0  0
 63146  1  0  0  0
 63147  1  0  0  0
 64148  1  0  0  0
 65149  1  0  0  0
 68 86  1  0  0  0
 71 72  2  0  0  0
 71 75  1  0  0  0
 71150  1  0  0  0
 72 76  1  0  0  0
 72151  1  0  0  0
 73 74  1  0  0  0
 73 75  2  0  0  0
 73152  1  0  0  0
 74 76  2  0  0  0
 74 81  1  0  0  0
 75 87  1  0  0  0
 76 85  1  0  0  0
 77 79  1  0  0  0
 77 81  1  0  0  0
 77153  1  0  0  0
 77154  1  0  0  0
 78 80  1  0  0  0
 78 81  1  0  0  0
 78155  1  0  0  0
 78156  1  0  0  0
 79 89  1  0  0  0
 79157  1  0  0  0
 79158  1  0  0  0
 80 89  1  0  0  0
 80159  1  0  0  0
 80160  1  0  0  0
 81161  1  0  0  0
 82162  1  0  0  0
 82163  1  0  0  0
 82164  1  0  0  0
 82 87  1  0  0  0
 83 87  1  0  0  0
 83165  1  0  0  0
 83166  1  0  0  0
 83167  1  0  0  0
 84168  1  0  0  0
 84169  1  0  0  0
 84170  1  0  0  0
 84 88  1  0  0  0
 85 90  1  0  0  0
 85171  1  0  0  0
 85172  1  0  0  0
 86 88  1  0  0  0
 86173  1  0  0  0
 86174  1  0  0  0
 87175  1  0  0  0
 88 90  1  0  0  0
 88176  1  0  0  0
 90177  1  0  0  0
 90178  1  0  0  0
M  CHG  1  90   1
M  ISO  4   1 100  68 101  86 101  89 100
M  END
> <chiral flag>
0

> <version>
0

> <s_m_source_file>
/data/baiqing/PycharmProjects/Reinvent-master-3.2/result/LINK_invent/BTK/process_docking_weight1_custom_sum_contain_oxygen_bond_distance_aromatic_linkinvent_7_9_3/rearranged_h_0138.sdf

> <i_m_source_file_index>
53

> <r_mmod_Potential_Energy-OPLS-2005>
115.651596069336

> <r_mmod_Stretch_Energy-OPLS-2005>
63.0738906860352

> <r_mmod_Bend_Energy-OPLS-2005>
157.384628295898

> <r_mmod_Torsional_Energy-OPLS-2005>
330.928405761719

> <r_mmod_Improper_Torsional_Energy-OPLS-2005>
16.7502880096436

> <r_mmod_Van_der_Waal_Energy-OPLS-2005>
147.457458496094

> <r_mmod_Electrostatic_Energy-OPLS-2005>
-216.968460083008

> <r_mmod_Solvation_Energy-OPLS-2005>
-413.750946044922

> <b_mmod_Minimization_Converged-OPLS-2005>
0

> <r_mmod_RMS_Derivative-OPLS-2005>
2.18500900268555

$$$$
53
                    3D
 Structure written by MMmdl.
167176  0  0  1  0            999 V2000
  -30.6563  -14.4740   20.6806 C   0  0  0  0  0  0
  -30.4453  -12.3576   19.3984 C   0  0  0  0  0  0
  -29.4898  -12.5347   18.1958 C   0  0  0  0  0  0
  -28.0127  -12.3839   18.6164 C   0  0  0  0  0  0
  -27.6598  -13.2029   19.8819 C   0  0  2  0  0  0
  -28.6989  -12.9102   20.9863 C   0  0  0  0  0  0
  -25.2509  -13.8163   20.5658 C   0  0  0  0  0  0
  -24.1819  -13.0371   20.9218 C   0  0  0  0  0  0
  -24.6395  -11.6859   20.8701 C   0  0  0  0  0  0
  -23.9072  -10.4206   21.0340 C   0  0  0  0  0  0
  -24.3592   -9.4127   21.9143 C   0  0  0  0  0  0
  -23.6257   -8.2169   22.0721 C   0  0  0  0  0  0
  -22.4256   -8.0199   21.3490 C   0  0  0  0  0  0
  -21.9872   -9.0187   20.4640 C   0  0  0  0  0  0
  -22.7221  -10.2054   20.3023 C   0  0  0  0  0  0
  -21.6865   -6.0676   22.5256 C   0  0  0  0  0  0
  -21.4014   -6.5587   23.8190 C   0  0  0  0  0  0
  -21.3667   -5.6758   24.9169 C   0  0  0  0  0  0
  -21.6053   -4.3015   24.7239 C   0  0  0  0  0  0
  -21.8833   -3.8086   23.4370 C   0  0  0  0  0  0
  -21.9202   -4.6895   22.3421 C   0  0  0  0  0  0
  -22.7827  -13.5116   21.1894 C   0  0  0  0  0  0
  -22.1677   -4.2069   21.1004 F   0  0  0  0  0  0
  -21.5639   -3.4524   25.7766 F   0  0  0  0  0  0
  -30.0329  -13.2824   20.4700 N   0  0  0  0  0  0
  -26.2959  -12.9328   20.3351 N   0  0  0  0  0  0
  -25.9310  -11.6472   20.5739 N   0  0  0  0  0  0
  -22.0587  -12.8061   22.0521 N   0  0  0  0  0  0
  -25.4150  -15.1887   20.4025 N   0  0  0  0  0  0
  -31.7355  -14.7709   20.1508 O   0  0  0  0  0  0
  -21.6632   -6.8795   21.4199 O   0  0  0  0  0  0
  -22.3421  -14.5400   20.6779 O   0  0  0  0  0  0
  -24.6388  -31.8682   23.2016 C   0  0  0  0  0  0
  -25.9247  -32.4823   23.8290 C   0  0  1  0  0  0
  -27.2485  -27.4158   20.0732 C   0  0  0  0  0  0
  -25.6062  -33.8602   24.2280 N   0  0  0  0  0  0
  -23.4365  -30.4903   21.5637 C   0  0  2  0  0  0
  -24.8581  -28.9499   20.1191 C   0  0  0  0  0  0
  -22.7848  -29.4732   22.5239 C   0  0  0  0  0  0
  -18.0101  -28.1130   22.8669 C   0  0  0  0  0  0
  -24.1570  -36.7326   23.2610 C   0  0  0  0  0  0
  -25.9586  -30.8207   21.3577 C   0  0  0  0  0  0
  -26.0271  -29.4560   20.7022 C   0  0  0  0  0  0
  -27.2233  -28.6993   20.6728 C   0  0  0  0  0  0
  -26.0584  -26.9407   19.4740 C   0  0  0  0  0  0
  -24.8709  -27.6915   19.5013 C   0  0  0  0  0  0
  -23.6193  -29.8094   20.1800 C   0  0  0  0  0  0
  -25.4185  -36.3094   24.0308 C   0  0  1  0  0  0
  -20.4896  -28.4512   22.7854 C   0  0  2  0  0  0
  -20.7087  -26.9533   22.5493 C   0  0  0  0  0  0
  -19.5841  -26.4345   21.6298 C   0  0  0  0  0  0
  -18.1769  -26.7478   22.1943 C   0  0  0  0  0  0
  -19.1262  -28.8894   23.2525 C   0  0  0  0  0  0
  -18.9457  -30.1414   23.8731 C   0  0  0  0  0  0
  -17.6489  -30.6441   24.0733 C   0  0  0  0  0  0
  -25.9131  -34.9468   23.5080 C   0  0  0  0  0  0
  -16.5323  -29.8908   23.6689 C   0  0  0  0  0  0
  -16.7137  -28.6248   23.0798 C   0  0  0  0  0  0
  -26.4590  -31.6581   25.0630 C   0  0  0  0  0  0
  -25.3742  -31.3701   26.1250 C   0  0  0  0  0  0
  -27.0414  -30.2998   24.6088 C   0  0  0  0  0  0
  -27.6181  -32.4176   25.7476 C   0  0  0  0  0  0
  -27.5641  -37.1812   24.8447 C   0  0  0  0  0  0
  -21.4618  -29.4450   22.4210 N   0  0  0  0  0  0
  -26.4364  -37.3783   23.9389 N   0  0  0  0  0  0
  -24.6980  -31.0734   22.0970 N   0  0  0  0  0  0
  -23.4397  -28.7438   23.2685 O   0  0  0  0  0  0
  -28.4166  -26.6589   20.1047 O   0  0  0  0  0  0
  -26.5628  -34.8912   22.4607 O   0  0  0  0  0  0
  -23.5570  -32.1461   23.7416 O   0  0  0  0  0  0
  -30.5807  -19.6623   19.3677 C   0  0  0  0  0  0
  -30.1940  -20.9614   19.0080 C   0  0  0  0  0  0
  -29.6965  -21.4505   21.3225 C   0  0  0  0  0  0
  -30.0499  -20.1194   21.6995 C   0  0  0  0  0  0
  -30.5145  -19.2003   20.6994 C   0  0  0  0  0  0
  -29.7594  -21.8805   19.9721 C   0  0  0  0  0  0
  -27.9195  -19.7296   24.7403 C   0  0  0  0  0  0
  -28.7651  -20.9821   24.9699 C   0  0  0  0  0  0
  -28.2919  -19.3172   23.3257 C   0  0  0  0  0  0
  -30.1024  -20.7068   24.2566 C   0  0  0  0  0  0
  -29.7864  -19.6797   23.1472 C   0  0  0  0  0  0
  -30.9389  -17.7217   20.9264 C   0  0  0  0  0  0
  -29.8456  -16.8047   21.5370 C   0  0  0  0  0  0
  -28.2976  -25.2479   19.8167 C   0  0  0  0  0  0
  -29.4844  -24.3325   20.2184 C   0  0  0  0  0  0
  -29.9355  -15.3293   21.4267 N   0  0  0  0  0  0
  -29.3321  -23.1041   19.4841 O   0  0  0  0  0  0
  -31.4770  -12.5366   19.0860 H   0  0  0  0  0  0
  -30.4146  -11.3292   19.7644 H   0  0  0  0  0  0
  -29.7304  -11.8150   17.4121 H   0  0  0  0  0  0
  -29.6343  -13.5131   17.7392 H   0  0  0  0  0  0
  -27.8317  -11.3312   18.8215 H   0  0  0  0  0  0
  -27.3527  -12.6570   17.7913 H   0  0  0  0  0  0
  -27.7200  -14.2585   19.6177 H   0  0  0  0  0  0
  -28.7062  -11.8429   21.2189 H   0  0  0  0  0  0
  -28.4401  -13.4019   21.9230 H   0  0  0  0  0  0
  -25.2734   -9.5621   22.4722 H   0  0  0  0  0  0
  -23.9992   -7.4579   22.7424 H   0  0  0  0  0  0
  -21.0805   -8.8657   19.8991 H   0  0  0  0  0  0
  -22.3631  -10.9545   19.6111 H   0  0  0  0  0  0
  -21.1995   -7.6101   23.9664 H   0  0  0  0  0  0
  -21.1496   -6.0505   25.9070 H   0  0  0  0  0  0
  -22.0632   -2.7537   23.2914 H   0  0  0  0  0  0
  -22.4239  -11.9676   22.4792 H   0  0  0  0  0  0
  -21.1190  -13.0956   22.2834 H   0  0  0  0  0  0
  -24.6275  -15.8297   20.4557 H   0  0  0  0  0  0
  -26.2497  -15.6160   20.0205 H   0  0  0  0  0  0
  -26.7341  -32.5504   23.1056 H   0  0  0  0  0  0
  -25.0145  -33.9729   25.0376 H   0  0  0  0  0  0
  -22.7366  -31.3178   21.4099 H   0  0  0  0  0  0
  -23.3824  -35.9671   23.3256 H   0  0  0  0  0  0
  -24.3639  -36.8954   22.2019 H   0  0  0  0  0  0
  -23.7340  -37.6540   23.6627 H   0  0  0  0  0  0
  -26.0802  -31.5825   20.5886 H   0  0  0  0  0  0
  -26.8477  -30.8637   21.9732 H   0  0  0  0  0  0
  -28.1295  -29.0884   21.1194 H   0  0  0  0  0  0
  -26.0194  -25.9824   18.9786 H   0  0  0  0  0  0
  -23.9780  -27.2898   19.0425 H   0  0  0  0  0  0
  -23.7026  -30.5683   19.4033 H   0  0  0  0  0  0
  -22.7439  -29.2157   19.9092 H   0  0  0  0  0  0
  -25.1401  -36.1924   25.0809 H   0  0  0  0  0  0
  -20.1829  -28.6625   21.7593 H   0  0  0  0  0  0
  -21.6924  -26.7492   22.1183 H   0  0  0  0  0  0
  -20.6613  -26.4335   23.5035 H   0  0  0  0  0  0
  -19.6954  -26.8646   20.6336 H   0  0  0  0  0  0
  -19.6887  -25.3562   21.4892 H   0  0  0  0  0  0
  -17.4418  -26.6531   21.3959 H   0  0  0  0  0  0
  -17.9187  -25.9841   22.9292 H   0  0  0  0  0  0
  -19.8048  -30.7397   24.1494 H   0  0  0  0  0  0
  -17.5141  -31.6191   24.5202 H   0  0  0  0  0  0
  -15.5320  -30.2755   23.8241 H   0  0  0  0  0  0
  -15.8571  -28.0468   22.7697 H   0  0  0  0  0  0
  -24.6011  -30.7033   25.7418 H   0  0  0  0  0  0
  -24.8835  -32.2869   26.4542 H   0  0  0  0  0  0
  -25.7939  -30.8860   27.0082 H   0  0  0  0  0  0
  -26.2986  -29.6684   24.1206 H   0  0  0  0  0  0
  -27.4207  -29.7326   25.4606 H   0  0  0  0  0  0
  -27.8826  -30.4257   23.9261 H   0  0  0  0  0  0
  -27.2890  -33.3451   26.2170 H   0  0  0  0  0  0
  -28.4031  -32.6712   25.0338 H   0  0  0  0  0  0
  -28.0806  -31.8120   26.5285 H   0  0  0  0  0  0
  -28.2639  -38.0133   24.7564 H   0  0  0  0  0  0
  -28.1176  -36.2664   24.6264 H   0  0  0  0  0  0
  -27.2309  -37.1437   25.8826 H   0  0  0  0  0  0
  -21.0812  -30.1873   21.8509 H   0  0  0  0  0  0
  -26.0259  -38.2888   24.1312 H   0  0  0  0  0  0
  -30.9046  -19.0071   18.5748 H   0  0  0  0  0  0
  -30.2192  -21.2537   17.9691 H   0  0  0  0  0  0
  -29.3048  -22.1188   22.0700 H   0  0  0  0  0  0
  -26.8477  -19.9038   24.8597 H   0  0  0  0  0  0
  -28.1921  -18.9297   25.4286 H   0  0  0  0  0  0
  -28.8843  -21.2101   26.0343 H   0  0  0  0  0  0
  -28.2815  -21.8307   24.4853 H   0  0  0  0  0  0
  -27.6743  -19.8980   22.6370 H   0  0  0  0  0  0
  -28.0731  -18.2704   23.1353 H   0  0  0  0  0  0
  -30.7723  -20.2401   24.9820 H   0  0  0  0  0  0
  -30.6335  -21.5938   23.9012 H   0  0  0  0  0  0
  -30.4174  -18.8305   23.4026 H   0  0  0  0  0  0
  -31.8750  -17.6764   21.4903 H   0  0  0  0  0  0
  -31.1719  -17.3108   19.9414 H   0  0  0  0  0  0
  -29.7415  -17.0042   22.5977 H   0  0  0  0  0  0
  -28.8992  -17.0927   21.0812 H   0  0  0  0  0  0
  -27.4169  -24.8416   20.3157 H   0  0  0  0  0  0
  -28.1488  -25.1494   18.7400 H   0  0  0  0  0  0
  -29.5506  -24.2159   21.2987 H   0  0  0  0  0  0
  -30.4225  -24.7837   19.8976 H   0  0  0  0  0  0
  -29.1454  -14.8681   21.8567 H   0  0  0  0  0  0
  1 25  1  0  0  0
  1 30  2  0  0  0
  1 86  1  0  0  0
  2  3  1  0  0  0
  2 25  1  0  0  0
  2 88  1  0  0  0
  2 89  1  0  0  0
  3  4  1  0  0  0
  3 90  1  0  0  0
  3 91  1  0  0  0
  4  5  1  0  0  0
  4 92  1  0  0  0
  4 93  1  0  0  0
  5  6  1  0  0  0
  5 26  1  0  0  0
  5 94  1  0  0  0
  6 25  1  0  0  0
  6 95  1  0  0  0
  6 96  1  0  0  0
  7  8  2  0  0  0
  7 26  1  0  0  0
  7 29  1  0  0  0
  8  9  1  0  0  0
  8 22  1  0  0  0
  9 10  1  0  0  0
  9 27  2  0  0  0
 10 11  2  0  0  0
 10 15  1  0  0  0
 11 12  1  0  0  0
 11 97  1  0  0  0
 12 13  2  0  0  0
 12 98  1  0  0  0
 13 14  1  0  0  0
 13 31  1  0  0  0
 14 15  2  0  0  0
 14 99  1  0  0  0
 15100  1  0  0  0
 16 17  2  0  0  0
 16 21  1  0  0  0
 16 31  1  0  0  0
 17 18  1  0  0  0
 17101  1  0  0  0
 18 19  2  0  0  0
 18102  1  0  0  0
 19 20  1  0  0  0
 19 24  1  0  0  0
 20 21  2  0  0  0
 20103  1  0  0  0
 21 23  1  0  0  0
 22 28  1  0  0  0
 22 32  2  0  0  0
 26 27  1  0  0  0
 28104  1  0  0  0
 28105  1  0  0  0
 29106  1  0  0  0
 29107  1  0  0  0
 33 34  1  0  0  0
 33 66  1  0  0  0
 33 70  2  0  0  0
 34 36  1  0  0  0
 34 59  1  0  0  0
 34108  1  0  0  0
 35 44  2  0  0  0
 35 45  1  0  0  0
 35 68  1  0  0  0
 36 56  1  0  0  0
 36109  1  0  0  0
 37 39  1  0  0  0
 37 47  1  0  0  0
 37 66  1  0  0  0
 37110  1  0  0  0
 38 43  2  0  0  0
 38 46  1  0  0  0
 38 47  1  0  0  0
 39 64  1  0  0  0
 39 67  2  0  0  0
 40 52  1  0  0  0
 40 53  2  0  0  0
 40 58  1  0  0  0
 41111  1  0  0  0
 41112  1  0  0  0
 41113  1  0  0  0
 41 48  1  0  0  0
 42 43  1  0  0  0
 42 66  1  0  0  0
 42114  1  0  0  0
 42115  1  0  0  0
 43 44  1  0  0  0
 44116  1  0  0  0
 45 46  2  0  0  0
 45117  1  0  0  0
 46118  1  0  0  0
 47119  1  0  0  0
 47120  1  0  0  0
 48 56  1  0  0  0
 48 65  1  0  0  0
 48121  1  0  0  0
 49 50  1  0  0  0
 49 53  1  0  0  0
 49 64  1  0  0  0
 49122  1  0  0  0
 50 51  1  0  0  0
 50123  1  0  0  0
 50124  1  0  0  0
 51 52  1  0  0  0
 51125  1  0  0  0
 51126  1  0  0  0
 52127  1  0  0  0
 52128  1  0  0  0
 53 54  1  0  0  0
 54 55  2  0  0  0
 54129  1  0  0  0
 55 57  1  0  0  0
 55130  1  0  0  0
 56 69  2  0  0  0
 57 58  2  0  0  0
 57131  1  0  0  0
 58132  1  0  0  0
 59 60  1  0  0  0
 59 61  1  0  0  0
 59 62  1  0  0  0
 60133  1  0  0  0
 60134  1  0  0  0
 60135  1  0  0  0
 61136  1  0  0  0
 61137  1  0  0  0
 61138  1  0  0  0
 62139  1  0  0  0
 62140  1  0  0  0
 62141  1  0  0  0
 63 65  1  0  0  0
 63142  1  0  0  0
 63143  1  0  0  0
 63144  1  0  0  0
 64145  1  0  0  0
 65146  1  0  0  0
 68 84  1  0  0  0
 71 72  2  0  0  0
 71 75  1  0  0  0
 71147  1  0  0  0
 72 76  1  0  0  0
 72148  1  0  0  0
 73 74  1  0  0  0
 73 76  2  0  0  0
 73149  1  0  0  0
 74 75  2  0  0  0
 74 81  1  0  0  0
 75 82  1  0  0  0
 76 87  1  0  0  0
 77 78  1  0  0  0
 77 79  1  0  0  0
 77150  1  0  0  0
 77151  1  0  0  0
 78 80  1  0  0  0
 78152  1  0  0  0
 78153  1  0  0  0
 79 81  1  0  0  0
 79154  1  0  0  0
 79155  1  0  0  0
 80 81  1  0  0  0
 80156  1  0  0  0
 80157  1  0  0  0
 81158  1  0  0  0
 82 83  1  0  0  0
 82159  1  0  0  0
 82160  1  0  0  0
 83 86  1  0  0  0
 83161  1  0  0  0
 83162  1  0  0  0
 84 85  1  0  0  0
 84163  1  0  0  0
 84164  1  0  0  0
 85 87  1  0  0  0
 85165  1  0  0  0
 85166  1  0  0  0
 86167  1  0  0  0
M  ISO  4   1 100  68 101  84 101  86 100
M  END
> <chiral flag>
0

> <version>
0

> <s_m_source_file>
/data/baiqing/PycharmProjects/Reinvent-master-3.2/result/LINK_invent/BTK/process_docking_weight1_custom_sum_contain_oxygen_bond_distance_aromatic_linkinvent_7_9_3/rearranged_h_0138.sdf

> <i_m_source_file_index>
54

> <r_mmod_Potential_Energy-OPLS-2005>
216.767517089844

> <r_mmod_Stretch_Energy-OPLS-2005>
45.4504547119141

> <r_mmod_Bend_Energy-OPLS-2005>
275.979614257812

> <r_mmod_Torsional_Energy-OPLS-2005>
273.316192626953

> <r_mmod_Improper_Torsional_Energy-OPLS-2005>
6.01776504516602

> <r_mmod_Van_der_Waal_Energy-OPLS-2005>
165.937652587891

> <r_mmod_Electrostatic_Energy-OPLS-2005>
-373.801971435547

> <r_mmod_Solvation_Energy-OPLS-2005>
-214.005264282227

> <b_mmod_Minimization_Converged-OPLS-2005>
0

> <r_mmod_RMS_Derivative-OPLS-2005>
10.2532367706299

$$$$
54
                    3D
 Structure written by MMmdl.
172181  0  0  1  0            999 V2000
  -30.8243  -14.3130   20.7369 C   0  0  0  0  0  0
  -30.4134  -12.2923   19.3810 C   0  0  0  0  0  0
  -29.4794  -12.5365   18.1835 C   0  0  0  0  0  0
  -28.0079  -12.3855   18.6072 C   0  0  0  0  0  0
  -27.6688  -13.2065   19.8784 C   0  0  2  0  0  0
  -28.7084  -12.9576   20.9937 C   0  0  0  0  0  0
  -25.2616  -13.8160   20.5682 C   0  0  0  0  0  0
  -24.1867  -13.0438   20.9173 C   0  0  0  0  0  0
  -24.6415  -11.6901   20.8716 C   0  0  0  0  0  0
  -23.9081  -10.4289   21.0388 C   0  0  0  0  0  0
  -24.3625   -9.4204   21.9173 C   0  0  0  0  0  0
  -23.6296   -8.2245   22.0750 C   0  0  0  0  0  0
  -22.4278   -8.0280   21.3539 C   0  0  0  0  0  0
  -21.9921   -9.0259   20.4640 C   0  0  0  0  0  0
  -22.7256  -10.2133   20.3042 C   0  0  0  0  0  0
  -21.6849   -6.0735   22.5279 C   0  0  0  0  0  0
  -21.4014   -6.5642   23.8213 C   0  0  0  0  0  0
  -21.3658   -5.6789   24.9175 C   0  0  0  0  0  0
  -21.6043   -4.3053   24.7229 C   0  0  0  0  0  0
  -21.8818   -3.8147   23.4349 C   0  0  0  0  0  0
  -21.9197   -4.6964   22.3402 C   0  0  0  0  0  0
  -22.7889  -13.5228   21.1843 C   0  0  0  0  0  0
  -22.1663   -4.2151   21.0979 F   0  0  0  0  0  0
  -21.5629   -3.4535   25.7745 F   0  0  0  0  0  0
  -30.0564  -13.2282   20.4579 N   0  0  0  0  0  0
  -26.3064  -12.9334   20.3370 N   0  0  0  0  0  0
  -25.9341  -11.6491   20.5737 N   0  0  0  0  0  0
  -22.0528  -12.8215   22.0387 N   0  0  0  0  0  0
  -25.4335  -15.1887   20.4104 N   0  0  0  0  0  0
  -31.7990  -14.6417   20.0566 O   0  0  0  0  0  0
  -21.6634   -6.8880   21.4236 O   0  0  0  0  0  0
  -22.3568  -14.5540   20.6715 O   0  0  0  0  0  0
  -24.6103  -31.8710   23.2150 C   0  0  0  0  0  0
  -25.9029  -32.4839   23.8409 C   0  0  1  0  0  0
  -27.2380  -27.4767   20.0774 C   0  0  0  0  0  0
  -25.5938  -33.8641   24.2357 N   0  0  0  0  0  0
  -23.3948  -30.4956   21.5541 C   0  0  2  0  0  0
  -24.8423  -28.9700   20.1151 C   0  0  0  0  0  0
  -22.7361  -29.4668   22.5003 C   0  0  0  0  0  0
  -18.0261  -28.1354   22.8510 C   0  0  0  0  0  0
  -24.1495  -36.7296   23.2642 C   0  0  0  0  0  0
  -25.9211  -30.8455   21.3656 C   0  0  0  0  0  0
  -25.9996  -29.4833   20.7129 C   0  0  0  0  0  0
  -27.1983  -28.7397   20.7011 C   0  0  0  0  0  0
  -26.0627  -26.9727   19.4734 C   0  0  0  0  0  0
  -24.8653  -27.7098   19.4981 C   0  0  0  0  0  0
  -23.6022  -29.8289   20.1681 C   0  0  0  0  0  0
  -25.4106  -36.3107   24.0347 C   0  0  1  0  0  0
  -20.5836  -28.3648   23.1336 C   0  0  2  0  0  0
  -20.6774  -26.9406   22.5403 C   0  0  0  0  0  0
  -19.5752  -26.6382   21.5211 C   0  0  0  0  0  0
  -18.1917  -26.7915   22.1599 C   0  0  0  0  0  0
  -19.1504  -28.8818   23.2927 C   0  0  0  0  0  0
  -18.9439  -30.1435   23.8926 C   0  0  0  0  0  0
  -17.6439  -30.6595   24.0549 C   0  0  0  0  0  0
  -25.9034  -34.9483   23.5126 C   0  0  0  0  0  0
  -16.5331  -29.9074   23.6339 C   0  0  0  0  0  0
  -16.7252  -28.6475   23.0386 C   0  0  0  0  0  0
  -26.4494  -31.6602   25.0703 C   0  0  0  0  0  0
  -25.3801  -31.3642   26.1472 C   0  0  0  0  0  0
  -27.0376  -30.3094   24.6015 C   0  0  0  0  0  0
  -27.6055  -32.4345   25.7471 C   0  0  0  0  0  0
  -27.5599  -37.1764   24.8457 C   0  0  0  0  0  0
  -21.4096  -29.3016   22.3744 N   0  0  0  0  0  0
  -26.4289  -37.3791   23.9442 N   0  0  0  0  0  0
  -24.6598  -31.0829   22.1047 N   0  0  0  0  0  0
  -23.4147  -28.8214   23.3040 O   0  0  0  0  0  0
  -28.4172  -26.7704   20.0500 O   0  0  0  0  0  0
  -26.5536  -34.8922   22.4648 O   0  0  0  0  0  0
  -23.5310  -32.1460   23.7568 O   0  0  0  0  0  0
  -28.1293  -24.8304   21.4444 C   0  0  0  0  0  0
  -28.3732  -24.5962   19.0373 C   0  0  0  0  0  0
  -27.9276  -23.4417   21.5687 C   0  0  0  0  0  0
  -28.1545  -23.2078   19.1341 C   0  0  0  0  0  0
  -27.9332  -22.6141   20.4089 C   0  0  0  0  0  0
  -28.3315  -25.4105   20.1815 C   0  0  0  0  0  0
  -30.9939  -19.1691   20.5622 C   0  0  0  0  0  0
  -29.6442  -18.5091   22.5439 C   0  0  0  0  0  0
  -29.7935  -19.9648   20.0123 C   0  0  0  0  0  0
  -28.4353  -19.2621   21.9663 C   0  0  0  0  0  0
  -30.5377  -17.9729   21.4144 C   0  0  2  0  0  0
  -27.6823  -22.8898   22.9668 C   0  0  0  0  0  0
  -28.1127  -22.4097   17.8380 C   0  0  0  0  0  0
  -27.6678  -21.1124   20.5450 C   0  0  0  0  0  0
  -31.7429  -17.1624   21.9301 C   0  0  0  0  0  0
  -31.3967  -15.8394   22.6496 C   0  0  0  0  0  0
  -30.5351  -14.9216   21.8962 N   0  0  0  0  0  0
  -28.8450  -20.3841   21.0804 N   0  3  2  0  0  0
  -31.4556  -12.3897   19.0709 H   0  0  0  0  0  0
  -30.3084  -11.2666   19.7388 H   0  0  0  0  0  0
  -29.7092  -11.8372   17.3783 H   0  0  0  0  0  0
  -29.6497  -13.5360   17.7791 H   0  0  0  0  0  0
  -27.8214  -11.3269   18.7882 H   0  0  0  0  0  0
  -27.3510  -12.6753   17.7871 H   0  0  0  0  0  0
  -27.7257  -14.2603   19.6049 H   0  0  0  0  0  0
  -28.6605  -11.9208   21.3293 H   0  0  0  0  0  0
  -28.4539  -13.5579   21.8673 H   0  0  0  0  0  0
  -25.2765   -9.5682   22.4746 H   0  0  0  0  0  0
  -24.0006   -7.4639   22.7467 H   0  0  0  0  0  0
  -21.0850   -8.8773   19.8942 H   0  0  0  0  0  0
  -22.3712  -10.9667   19.6150 H   0  0  0  0  0  0
  -21.1998   -7.6148   23.9721 H   0  0  0  0  0  0
  -21.1481   -6.0517   25.9079 H   0  0  0  0  0  0
  -22.0597   -2.7612   23.2849 H   0  0  0  0  0  0
  -22.4129  -11.9857   22.4764 H   0  0  0  0  0  0
  -21.1147  -13.1229   22.2597 H   0  0  0  0  0  0
  -24.6654  -15.8432   20.5117 H   0  0  0  0  0  0
  -26.2926  -15.6272   20.1024 H   0  0  0  0  0  0
  -26.7093  -32.5573   23.1163 H   0  0  0  0  0  0
  -25.0271  -33.9837   25.0628 H   0  0  0  0  0  0
  -22.6840  -31.3120   21.4138 H   0  0  0  0  0  0
  -23.3793  -35.9591   23.3264 H   0  0  0  0  0  0
  -24.3612  -36.8941   22.2063 H   0  0  0  0  0  0
  -23.7201  -37.6467   23.6681 H   0  0  0  0  0  0
  -26.0229  -31.6122   20.5965 H   0  0  0  0  0  0
  -26.8153  -30.9032   21.9756 H   0  0  0  0  0  0
  -28.0941  -29.1309   21.1626 H   0  0  0  0  0  0
  -26.0626  -26.0162   18.9717 H   0  0  0  0  0  0
  -23.9772  -27.3091   19.0294 H   0  0  0  0  0  0
  -23.7013  -30.6026   19.4062 H   0  0  0  0  0  0
  -22.7312  -29.2379   19.8785 H   0  0  0  0  0  0
  -25.1265  -36.1955   25.0837 H   0  0  0  0  0  0
  -20.9918  -28.3222   24.1462 H   0  0  0  0  0  0
  -20.5724  -26.2246   23.3571 H   0  0  0  0  0  0
  -21.6645  -26.7493   22.1174 H   0  0  0  0  0  0
  -19.6921  -25.6299   21.1228 H   0  0  0  0  0  0
  -19.6702  -27.3199   20.6759 H   0  0  0  0  0  0
  -17.4194  -26.6717   21.3985 H   0  0  0  0  0  0
  -18.0290  -26.0040   22.8968 H   0  0  0  0  0  0
  -19.7924  -30.7242   24.2309 H   0  0  0  0  0  0
  -17.5006  -31.6296   24.5114 H   0  0  0  0  0  0
  -15.5342  -30.2968   23.7677 H   0  0  0  0  0  0
  -15.8649  -28.0787   22.7120 H   0  0  0  0  0  0
  -24.5987  -30.6969   25.7806 H   0  0  0  0  0  0
  -24.8971  -32.2779   26.4967 H   0  0  0  0  0  0
  -25.8199  -30.8788   27.0198 H   0  0  0  0  0  0
  -26.2896  -29.6757   24.1233 H   0  0  0  0  0  0
  -27.4421  -29.7390   25.4382 H   0  0  0  0  0  0
  -27.8586  -30.4492   23.8976 H   0  0  0  0  0  0
  -27.2680  -33.3664   26.2027 H   0  0  0  0  0  0
  -28.3884  -32.6884   25.0312 H   0  0  0  0  0  0
  -28.0714  -31.8491   26.5413 H   0  0  0  0  0  0
  -28.2508  -38.0162   24.7664 H   0  0  0  0  0  0
  -28.1192  -36.2697   24.6090 H   0  0  0  0  0  0
  -27.2328  -37.1170   25.8852 H   0  0  0  0  0  0
  -20.9247  -29.8731   21.6975 H   0  0  0  0  0  0
  -26.0172  -38.2843   24.1534 H   0  0  0  0  0  0
  -28.1001  -25.4679   22.3188 H   0  0  0  0  0  0
  -28.5168  -25.0620   18.0733 H   0  0  0  0  0  0
  -31.6376  -19.8268   21.1501 H   0  0  0  0  0  0
  -31.6015  -18.8211   19.7251 H   0  0  0  0  0  0
  -29.2848  -17.6936   23.1712 H   0  0  0  0  0  0
  -30.2167  -19.1686   23.2001 H   0  0  0  0  0  0
  -29.2680  -19.3583   19.2727 H   0  0  0  0  0  0
  -30.1670  -20.8466   19.4918 H   0  0  0  0  0  0
  -27.8317  -19.6447   22.7905 H   0  0  0  0  0  0
  -27.8014  -18.5696   21.4095 H   0  0  0  0  0  0
  -29.9383  -17.3199   20.7776 H   0  0  0  0  0  0
  -27.5359  -23.6949   23.6880 H   0  0  0  0  0  0
  -28.5325  -22.3032   23.3134 H   0  0  0  0  0  0
  -26.7851  -22.2727   23.0078 H   0  0  0  0  0  0
  -28.2037  -23.0619   16.9685 H   0  0  0  0  0  0
  -27.1670  -21.8771   17.7333 H   0  0  0  0  0  0
  -28.9284  -21.6922   17.7802 H   0  0  0  0  0  0
  -27.3483  -20.6583   19.6090 H   0  0  0  0  0  0
  -26.8021  -20.9851   21.1945 H   0  0  0  0  0  0
  -32.3358  -17.7828   22.6049 H   0  0  0  0  0  0
  -32.4060  -16.9430   21.0923 H   0  0  0  0  0  0
  -30.9061  -16.0519   23.5997 H   0  0  0  0  0  0
  -32.3205  -15.3189   22.9084 H   0  0  0  0  0  0
  -29.7230  -14.5676   22.3809 H   0  0  0  0  0  0
  -29.3360  -21.0453   21.6609 H   0  0  0  0  0  0
  1 25  1  0  0  0
  1 30  2  0  0  0
  1 87  1  0  0  0
  2  3  1  0  0  0
  2 25  1  0  0  0
  2 89  1  0  0  0
  2 90  1  0  0  0
  3  4  1  0  0  0
  3 91  1  0  0  0
  3 92  1  0  0  0
  4  5  1  0  0  0
  4 93  1  0  0  0
  4 94  1  0  0  0
  5  6  1  0  0  0
  5 26  1  0  0  0
  5 95  1  0  0  0
  6 25  1  0  0  0
  6 96  1  0  0  0
  6 97  1  0  0  0
  7  8  2  0  0  0
  7 26  1  0  0  0
  7 29  1  0  0  0
  8  9  1  0  0  0
  8 22  1  0  0  0
  9 10  1  0  0  0
  9 27  2  0  0  0
 10 11  2  0  0  0
 10 15  1  0  0  0
 11 12  1  0  0  0
 11 98  1  0  0  0
 12 13  2  0  0  0
 12 99  1  0  0  0
 13 14  1  0  0  0
 13 31  1  0  0  0
 14 15  2  0  0  0
 14100  1  0  0  0
 15101  1  0  0  0
 16 17  2  0  0  0
 16 21  1  0  0  0
 16 31  1  0  0  0
 17 18  1  0  0  0
 17102  1  0  0  0
 18 19  2  0  0  0
 18103  1  0  0  0
 19 20  1  0  0  0
 19 24  1  0  0  0
 20 21  2  0  0  0
 20104  1  0  0  0
 21 23  1  0  0  0
 22 28  1  0  0  0
 22 32  2  0  0  0
 26 27  1  0  0  0
 28105  1  0  0  0
 28106  1  0  0  0
 29107  1  0  0  0
 29108  1  0  0  0
 33 34  1  0  0  0
 33 66  1  0  0  0
 33 70  2  0  0  0
 34 36  1  0  0  0
 34 59  1  0  0  0
 34109  1  0  0  0
 35 44  2  0  0  0
 35 45  1  0  0  0
 35 68  1  0  0  0
 36 56  1  0  0  0
 36110  1  0  0  0
 37 39  1  0  0  0
 37 47  1  0  0  0
 37 66  1  0  0  0
 37111  1  0  0  0
 38 43  2  0  0  0
 38 46  1  0  0  0
 38 47  1  0  0  0
 39 64  1  0  0  0
 39 67  2  0  0  0
 40 52  1  0  0  0
 40 53  2  0  0  0
 40 58  1  0  0  0
 41112  1  0  0  0
 41113  1  0  0  0
 41114  1  0  0  0
 41 48  1  0  0  0
 42 43  1  0  0  0
 42 66  1  0  0  0
 42115  1  0  0  0
 42116  1  0  0  0
 43 44  1  0  0  0
 44117  1  0  0  0
 45 46  2  0  0  0
 45118  1  0  0  0
 46119  1  0  0  0
 47120  1  0  0  0
 47121  1  0  0  0
 48 56  1  0  0  0
 48 65  1  0  0  0
 48122  1  0  0  0
 49 50  1  0  0  0
 49 53  1  0  0  0
 49 64  1  0  0  0
 49123  1  0  0  0
 50 51  1  0  0  0
 50124  1  0  0  0
 50125  1  0  0  0
 51 52  1  0  0  0
 51126  1  0  0  0
 51127  1  0  0  0
 52128  1  0  0  0
 52129  1  0  0  0
 53 54  1  0  0  0
 54 55  2  0  0  0
 54130  1  0  0  0
 55 57  1  0  0  0
 55131  1  0  0  0
 56 69  2  0  0  0
 57 58  2  0  0  0
 57132  1  0  0  0
 58133  1  0  0  0
 59 60  1  0  0  0
 59 61  1  0  0  0
 59 62  1  0  0  0
 60134  1  0  0  0
 60135  1  0  0  0
 60136  1  0  0  0
 61137  1  0  0  0
 61138  1  0  0  0
 61139  1  0  0  0
 62140  1  0  0  0
 62141  1  0  0  0
 62142  1  0  0  0
 63 65  1  0  0  0
 63143  1  0  0  0
 63144  1  0  0  0
 63145  1  0  0  0
 64146  1  0  0  0
 65147  1  0  0  0
 68 76  1  0  0  0
 71 73  2  0  0  0
 71 76  1  0  0  0
 71148  1  0  0  0
 72 74  1  0  0  0
 72 76  2  0  0  0
 72149  1  0  0  0
 73 75  1  0  0  0
 73 82  1  0  0  0
 74 75  2  0  0  0
 74 83  1  0  0  0
 75 84  1  0  0  0
 77 79  1  0  0  0
 77 81  1  0  0  0
 77150  1  0  0  0
 77151  1  0  0  0
 78 80  1  0  0  0
 78 81  1  0  0  0
 78152  1  0  0  0
 78153  1  0  0  0
 79 88  1  0  0  0
 79154  1  0  0  0
 79155  1  0  0  0
 80 88  1  0  0  0
 80156  1  0  0  0
 80157  1  0  0  0
 81 85  1  0  0  0
 81158  1  0  0  0
 82159  1  0  0  0
 82160  1  0  0  0
 82161  1  0  0  0
 83162  1  0  0  0
 83163  1  0  0  0
 83164  1  0  0  0
 84165  1  0  0  0
 84166  1  0  0  0
 84 88  1  0  0  0
 85 86  1  0  0  0
 85167  1  0  0  0
 85168  1  0  0  0
 86 87  1  0  0  0
 86169  1  0  0  0
 86170  1  0  0  0
 87171  1  0  0  0
 88172  1  0  0  0
M  CHG  1  88   1
M  ISO  4   1 100  68 101  76 101  87 100
M  END
> <chiral flag>
0

> <version>
0

> <s_m_source_file>
/data/baiqing/PycharmProjects/Reinvent-master-3.2/result/LINK_invent/BTK/process_docking_weight1_custom_sum_contain_oxygen_bond_distance_aromatic_linkinvent_7_9_3/rearranged_h_0138.sdf

> <i_m_source_file_index>
55

> <r_mmod_Potential_Energy-OPLS-2005>
-144.338668823242

> <r_mmod_Stretch_Energy-OPLS-2005>
34.6598129272461

> <r_mmod_Bend_Energy-OPLS-2005>
93.680908203125

> <r_mmod_Torsional_Energy-OPLS-2005>
231.972290039062

> <r_mmod_Improper_Torsional_Energy-OPLS-2005>
3.4108293056488

> <r_mmod_Van_der_Waal_Energy-OPLS-2005>
158.145477294922

> <r_mmod_Electrostatic_Energy-OPLS-2005>
-248.86946105957

> <r_mmod_Solvation_Energy-OPLS-2005>
-425.145050048828

> <b_mmod_Minimization_Converged-OPLS-2005>
0

> <r_mmod_RMS_Derivative-OPLS-2005>
2.64972805976868

$$$$
55
                    3D
 Structure written by MMmdl.
159168  0  0  1  0            999 V2000
  -30.6042  -14.7170   20.4607 C   0  0  0  0  0  0
  -30.4331  -12.4374   19.4724 C   0  0  0  0  0  0
  -29.5153  -12.5239   18.2332 C   0  0  0  0  0  0
  -28.0367  -12.3620   18.6351 C   0  0  0  0  0  0
  -27.6493  -13.2361   19.8590 C   0  0  2  0  0  0
  -28.6908  -13.1389   20.9947 C   0  0  0  0  0  0
  -25.2530  -13.8205   20.5667 C   0  0  0  0  0  0
  -24.1830  -13.0435   20.9184 C   0  0  0  0  0  0
  -24.6421  -11.6913   20.8708 C   0  0  0  0  0  0
  -23.9087  -10.4288   21.0384 C   0  0  0  0  0  0
  -24.3637   -9.4211   21.9170 C   0  0  0  0  0  0
  -23.6312   -8.2247   22.0752 C   0  0  0  0  0  0
  -22.4312   -8.0279   21.3530 C   0  0  0  0  0  0
  -21.9925   -9.0260   20.4649 C   0  0  0  0  0  0
  -22.7248  -10.2132   20.3041 C   0  0  0  0  0  0
  -21.6860   -6.0738   22.5280 C   0  0  0  0  0  0
  -21.4023   -6.5637   23.8209 C   0  0  0  0  0  0
  -21.3660   -5.6792   24.9170 C   0  0  0  0  0  0
  -21.6057   -4.3053   24.7215 C   0  0  0  0  0  0
  -21.8821   -3.8139   23.4344 C   0  0  0  0  0  0
  -21.9193   -4.6951   22.3394 C   0  0  0  0  0  0
  -22.7844  -13.5217   21.1849 C   0  0  0  0  0  0
  -22.1655   -4.2135   21.0968 F   0  0  0  0  0  0
  -21.5634   -3.4540   25.7733 F   0  0  0  0  0  0
  -29.9985  -13.4831   20.4279 N   0  0  0  0  0  0
  -26.2984  -12.9425   20.3295 N   0  0  0  0  0  0
  -25.9369  -11.6545   20.5728 N   0  0  0  0  0  0
  -22.0460  -12.8233   22.0401 N   0  0  0  0  0  0
  -25.4180  -15.1938   20.4054 N   0  0  0  0  0  0
  -31.7809  -14.8325   20.1023 O   0  0  0  0  0  0
  -21.6646   -6.8891   21.4246 O   0  0  0  0  0  0
  -22.3520  -14.5509   20.6677 O   0  0  0  0  0  0
  -24.6292  -31.8608   23.2044 C   0  0  0  0  0  0
  -25.9138  -32.4784   23.8362 C   0  0  1  0  0  0
  -27.1690  -27.2543   20.1407 C   0  0  0  0  0  0
  -25.5963  -33.8590   24.2293 N   0  0  0  0  0  0
  -23.4191  -30.4911   21.5524 C   0  0  2  0  0  0
  -24.8538  -28.9477   20.1058 C   0  0  0  0  0  0
  -22.7504  -29.4623   22.4960 C   0  0  0  0  0  0
  -18.0290  -28.1361   22.8496 C   0  0  0  0  0  0
  -24.1496  -36.7285   23.2638 C   0  0  0  0  0  0
  -25.9664  -30.7716   21.3825 C   0  0  0  0  0  0
  -26.0284  -29.3967   20.7234 C   0  0  0  0  0  0
  -27.1916  -28.5615   20.7307 C   0  0  0  0  0  0
  -25.9765  -26.8836   19.4756 C   0  0  0  0  0  0
  -24.8327  -27.7011   19.4700 C   0  0  0  0  0  0
  -23.6322  -29.8443   20.1607 C   0  0  0  0  0  0
  -25.4124  -36.3098   24.0335 C   0  0  1  0  0  0
  -20.5900  -28.3675   23.1302 C   0  0  2  0  0  0
  -20.6794  -26.9402   22.5422 C   0  0  0  0  0  0
  -19.5768  -26.6368   21.5232 C   0  0  0  0  0  0
  -18.1940  -26.7906   22.1629 C   0  0  0  0  0  0
  -19.1543  -28.8832   23.2883 C   0  0  0  0  0  0
  -18.9469  -30.1443   23.8888 C   0  0  0  0  0  0
  -17.6469  -30.6576   24.0556 C   0  0  0  0  0  0
  -25.9067  -34.9462   23.5116 C   0  0  0  0  0  0
  -16.5356  -29.9075   23.6325 C   0  0  0  0  0  0
  -16.7277  -28.6481   23.0364 C   0  0  0  0  0  0
  -26.4502  -31.6584   25.0726 C   0  0  0  0  0  0
  -25.3728  -31.3718   26.1449 C   0  0  0  0  0  0
  -27.0345  -30.3022   24.6152 C   0  0  0  0  0  0
  -27.6062  -32.4309   25.7501 C   0  0  0  0  0  0
  -27.5589  -37.1804   24.8468 C   0  0  0  0  0  0
  -21.4210  -29.3029   22.3694 N   0  0  0  0  0  0
  -26.4295  -37.3797   23.9419 N   0  0  0  0  0  0
  -24.6913  -31.0594   22.1027 N   0  0  0  0  0  0
  -23.4230  -28.8166   23.3029 O   0  0  0  0  0  0
  -28.2278  -26.3234   20.2334 O   0  0  0  0  0  0
  -26.5635  -34.8923   22.4678 O   0  0  0  0  0  0
  -23.5446  -32.1447   23.7363 O   0  0  0  0  0  0
  -30.2359  -18.4487   18.0460 C   0  0  0  0  0  0
  -30.1575  -17.2252   18.7345 C   0  0  0  0  0  0
  -29.5914  -18.4433   20.7691 C   0  0  0  0  0  0
  -29.6858  -19.7227   20.0774 C   0  0  0  0  0  0
  -30.0603  -19.6742   18.7136 C   0  0  0  0  0  0
  -29.8749  -17.1701   20.1178 C   0  0  0  0  0  0
  -31.1124  -21.6888   20.3095 C   0  0  0  0  0  0
  -31.1883  -21.8349   18.7680 C   0  0  0  0  0  0
  -29.7233  -21.1733   20.7391 C   0  0  1  0  0  0
  -28.9425  -23.7320   20.6403 C   0  0  0  0  0  0
  -27.8781  -24.8559   20.1954 C   0  0  0  0  0  0
  -30.3751  -20.8593   18.0323 N   0  0  0  0  0  0
  -29.8318  -15.8330   20.7503 N   0  0  0  0  0  0
  -28.6543  -22.2282   20.3819 N   0  3  0  0  0  0
  -31.4745  -12.5605   19.1705 H   0  0  0  0  0  0
  -30.3715  -11.4471   19.9264 H   0  0  0  0  0  0
  -29.7930  -11.7641   17.5022 H   0  0  0  0  0  0
  -29.6587  -13.4854   17.7375 H   0  0  0  0  0  0
  -27.8737  -11.3095   18.8646 H   0  0  0  0  0  0
  -27.3877  -12.5932   17.7894 H   0  0  0  0  0  0
  -27.6511  -14.2667   19.5037 H   0  0  0  0  0  0
  -28.7139  -12.1338   21.4187 H   0  0  0  0  0  0
  -28.4347  -13.8123   21.8115 H   0  0  0  0  0  0
  -25.2765   -9.5703   22.4757 H   0  0  0  0  0  0
  -24.0021   -7.4643   22.7485 H   0  0  0  0  0  0
  -21.0840   -8.8793   19.8971 H   0  0  0  0  0  0
  -22.3699  -10.9686   19.6165 H   0  0  0  0  0  0
  -21.2012   -7.6143   23.9724 H   0  0  0  0  0  0
  -21.1490   -6.0503   25.9085 H   0  0  0  0  0  0
  -22.0592   -2.7602   23.2832 H   0  0  0  0  0  0
  -22.4044  -11.9920   22.4870 H   0  0  0  0  0  0
  -21.1077  -13.1303   22.2547 H   0  0  0  0  0  0
  -24.6452  -15.8423   20.5140 H   0  0  0  0  0  0
  -26.2688  -15.6390   20.0845 H   0  0  0  0  0  0
  -26.7190  -32.5424   23.1080 H   0  0  0  0  0  0
  -25.0132  -33.9744   25.0459 H   0  0  0  0  0  0
  -22.7124  -31.3142   21.4238 H   0  0  0  0  0  0
  -23.3781  -35.9593   23.3286 H   0  0  0  0  0  0
  -24.3586  -36.8915   22.2058 H   0  0  0  0  0  0
  -23.7214  -37.6468   23.6662 H   0  0  0  0  0  0
  -26.1054  -31.5313   20.6123 H   0  0  0  0  0  0
  -26.8450  -30.8172   22.0136 H   0  0  0  0  0  0
  -28.0819  -28.8900   21.2477 H   0  0  0  0  0  0
  -25.8765  -25.9356   18.9713 H   0  0  0  0  0  0
  -23.9333  -27.3599   18.9743 H   0  0  0  0  0  0
  -23.7679  -30.6337   19.4208 H   0  0  0  0  0  0
  -22.7416  -29.2989   19.8429 H   0  0  0  0  0  0
  -25.1295  -36.1952   25.0830 H   0  0  0  0  0  0
  -20.9973  -28.3232   24.1440 H   0  0  0  0  0  0
  -20.5745  -26.2276   23.3620 H   0  0  0  0  0  0
  -21.6657  -26.7480   22.1192 H   0  0  0  0  0  0
  -19.6947  -25.6289   21.1249 H   0  0  0  0  0  0
  -19.6698  -27.3189   20.6773 H   0  0  0  0  0  0
  -17.4237  -26.6686   21.4002 H   0  0  0  0  0  0
  -18.0306  -26.0026   22.8997 H   0  0  0  0  0  0
  -19.7946  -30.7251   24.2259 H   0  0  0  0  0  0
  -17.5029  -31.6258   24.5157 H   0  0  0  0  0  0
  -15.5358  -30.2980   23.7645 H   0  0  0  0  0  0
  -15.8674  -28.0788   22.7104 H   0  0  0  0  0  0
  -24.5899  -30.7070   25.7771 H   0  0  0  0  0  0
  -24.8919  -32.2885   26.4879 H   0  0  0  0  0  0
  -25.8048  -30.8887   27.0227 H   0  0  0  0  0  0
  -26.2906  -29.6774   24.1190 H   0  0  0  0  0  0
  -27.4097  -29.7255   25.4615 H   0  0  0  0  0  0
  -27.8755  -30.4339   23.9340 H   0  0  0  0  0  0
  -27.2679  -33.3608   26.2083 H   0  0  0  0  0  0
  -28.3875  -32.6867   25.0330 H   0  0  0  0  0  0
  -28.0726  -31.8425   26.5416 H   0  0  0  0  0  0
  -28.2602  -38.0112   24.7545 H   0  0  0  0  0  0
  -28.1093  -36.2645   24.6257 H   0  0  0  0  0  0
  -27.2310  -37.1403   25.8871 H   0  0  0  0  0  0
  -20.9398  -29.8742   21.6898 H   0  0  0  0  0  0
  -26.0178  -38.2868   24.1433 H   0  0  0  0  0  0
  -30.5028  -18.4285   16.9992 H   0  0  0  0  0  0
  -30.3403  -16.3204   18.1727 H   0  0  0  0  0  0
  -29.3767  -18.4534   21.8277 H   0  0  0  0  0  0
  -31.3943  -22.6108   20.8177 H   0  0  0  0  0  0
  -31.8634  -20.9642   20.6298 H   0  0  0  0  0  0
  -32.2244  -21.7482   18.4405 H   0  0  0  0  0  0
  -30.8656  -22.8327   18.4646 H   0  0  0  0  0  0
  -29.7186  -21.0484   21.8231 H   0  0  0  0  0  0
  -29.1308  -23.8541   21.7062 H   0  0  0  0  0  0
  -29.8637  -24.0062   20.1328 H   0  0  0  0  0  0
  -26.9854  -24.7111   20.8100 H   0  0  0  0  0  0
  -27.5773  -24.6146   19.1757 H   0  0  0  0  0  0
  -30.6556  -20.7348   17.0610 H   0  0  0  0  0  0
  -28.9823  -15.6326   21.2564 H   0  0  0  0  0  0
  -27.8147  -21.9646   20.8751 H   0  0  0  0  0  0
  -28.4593  -22.1022   19.3998 H   0  0  0  0  0  0
  1 25  1  0  0  0
  1 30  2  0  0  0
  1 83  1  0  0  0
  2  3  1  0  0  0
  2 25  1  0  0  0
  2 85  1  0  0  0
  2 86  1  0  0  0
  3  4  1  0  0  0
  3 87  1  0  0  0
  3 88  1  0  0  0
  4  5  1  0  0  0
  4 89  1  0  0  0
  4 90  1  0  0  0
  5  6  1  0  0  0
  5 26  1  0  0  0
  5 91  1  0  0  0
  6 25  1  0  0  0
  6 92  1  0  0  0
  6 93  1  0  0  0
  7  8  2  0  0  0
  7 26  1  0  0  0
  7 29  1  0  0  0
  8  9  1  0  0  0
  8 22  1  0  0  0
  9 10  1  0  0  0
  9 27  2  0  0  0
 10 11  2  0  0  0
 10 15  1  0  0  0
 11 12  1  0  0  0
 11 94  1  0  0  0
 12 13  2  0  0  0
 12 95  1  0  0  0
 13 14  1  0  0  0
 13 31  1  0  0  0
 14 15  2  0  0  0
 14 96  1  0  0  0
 15 97  1  0  0  0
 16 17  2  0  0  0
 16 21  1  0  0  0
 16 31  1  0  0  0
 17 18  1  0  0  0
 17 98  1  0  0  0
 18 19  2  0  0  0
 18 99  1  0  0  0
 19 20  1  0  0  0
 19 24  1  0  0  0
 20 21  2  0  0  0
 20100  1  0  0  0
 21 23  1  0  0  0
 22 28  1  0  0  0
 22 32  2  0  0  0
 26 27  1  0  0  0
 28101  1  0  0  0
 28102  1  0  0  0
 29103  1  0  0  0
 29104  1  0  0  0
 33 34  1  0  0  0
 33 66  1  0  0  0
 33 70  2  0  0  0
 34 36  1  0  0  0
 34 59  1  0  0  0
 34105  1  0  0  0
 35 44  2  0  0  0
 35 45  1  0  0  0
 35 68  1  0  0  0
 36 56  1  0  0  0
 36106  1  0  0  0
 37 39  1  0  0  0
 37 47  1  0  0  0
 37 66  1  0  0  0
 37107  1  0  0  0
 38 43  2  0  0  0
 38 46  1  0  0  0
 38 47  1  0  0  0
 39 64  1  0  0  0
 39 67  2  0  0  0
 40 52  1  0  0  0
 40 53  2  0  0  0
 40 58  1  0  0  0
 41108  1  0  0  0
 41109  1  0  0  0
 41110  1  0  0  0
 41 48  1  0  0  0
 42 43  1  0  0  0
 42 66  1  0  0  0
 42111  1  0  0  0
 42112  1  0  0  0
 43 44  1  0  0  0
 44113  1  0  0  0
 45 46  2  0  0  0
 45114  1  0  0  0
 46115  1  0  0  0
 47116  1  0  0  0
 47117  1  0  0  0
 48 56  1  0  0  0
 48 65  1  0  0  0
 48118  1  0  0  0
 49 50  1  0  0  0
 49 53  1  0  0  0
 49 64  1  0  0  0
 49119  1  0  0  0
 50 51  1  0  0  0
 50120  1  0  0  0
 50121  1  0  0  0
 51 52  1  0  0  0
 51122  1  0  0  0
 51123  1  0  0  0
 52124  1  0  0  0
 52125  1  0  0  0
 53 54  1  0  0  0
 54 55  2  0  0  0
 54126  1  0  0  0
 55 57  1  0  0  0
 55127  1  0  0  0
 56 69  2  0  0  0
 57 58  2  0  0  0
 57128  1  0  0  0
 58129  1  0  0  0
 59 60  1  0  0  0
 59 61  1  0  0  0
 59 62  1  0  0  0
 60130  1  0  0  0
 60131  1  0  0  0
 60132  1  0  0  0
 61133  1  0  0  0
 61134  1  0  0  0
 61135  1  0  0  0
 62136  1  0  0  0
 62137  1  0  0  0
 62138  1  0  0  0
 63 65  1  0  0  0
 63139  1  0  0  0
 63140  1  0  0  0
 63141  1  0  0  0
 64142  1  0  0  0
 65143  1  0  0  0
 68 81  1  0  0  0
 71 72  2  0  0  0
 71 75  1  0  0  0
 71144  1  0  0  0
 72 76  1  0  0  0
 72145  1  0  0  0
 73 74  1  0  0  0
 73 76  2  0  0  0
 73146  1  0  0  0
 74 75  2  0  0  0
 74 79  1  0  0  0
 75 82  1  0  0  0
 76 83  1  0  0  0
 77 78  1  0  0  0
 77 79  1  0  0  0
 77147  1  0  0  0
 77148  1  0  0  0
 78 82  1  0  0  0
 78149  1  0  0  0
 78150  1  0  0  0
 79 84  1  0  0  0
 79151  1  0  0  0
 80 81  1  0  0  0
 80 84  1  0  0  0
 80152  1  0  0  0
 80153  1  0  0  0
 81154  1  0  0  0
 81155  1  0  0  0
 82156  1  0  0  0
 83157  1  0  0  0
 84158  1  0  0  0
 84159  1  0  0  0
M  CHG  1  84   1
M  ISO  4   1 100  68 101  81 101  83 100
M  END
> <chiral flag>
0

> <version>
0

> <s_m_source_file>
/data/baiqing/PycharmProjects/Reinvent-master-3.2/result/LINK_invent/BTK/process_docking_weight1_custom_sum_contain_oxygen_bond_distance_aromatic_linkinvent_7_9_3/rearranged_h_0138.sdf

> <i_m_source_file_index>
56

> <r_mmod_Potential_Energy-OPLS-2005>
-11.6678733825684

> <r_mmod_Stretch_Energy-OPLS-2005>
119.95386505127

> <r_mmod_Bend_Energy-OPLS-2005>
163.939025878906

> <r_mmod_Torsional_Energy-OPLS-2005>
268.560394287109

> <r_mmod_Improper_Torsional_Energy-OPLS-2005>
10.7872610092163

> <r_mmod_Van_der_Waal_Energy-OPLS-2005>
161.147430419922

> <r_mmod_Electrostatic_Energy-OPLS-2005>
-365.484344482422

> <r_mmod_Solvation_Energy-OPLS-2005>
-457.532836914062

> <b_mmod_Minimization_Converged-OPLS-2005>
0

> <r_mmod_RMS_Derivative-OPLS-2005>
3.45840167999268

$$$$
56
                    3D
 Structure written by MMmdl.
151159  0  0  1  0            999 V2000
  -30.5184  -14.9133   20.4488 C   0  0  0  0  0  0
  -30.4537  -12.5641   19.4961 C   0  0  0  0  0  0
  -29.5267  -12.5371   18.2565 C   0  0  0  0  0  0
  -28.0568  -12.3264   18.6694 C   0  0  0  0  0  0
  -27.6400  -13.2395   19.8514 C   0  0  2  0  0  0
  -28.6835  -13.2143   20.9904 C   0  0  0  0  0  0
  -25.2468  -13.8172   20.5628 C   0  0  0  0  0  0
  -24.1792  -13.0419   20.9214 C   0  0  0  0  0  0
  -24.6407  -11.6906   20.8765 C   0  0  0  0  0  0
  -23.9083  -10.4284   21.0418 C   0  0  0  0  0  0
  -24.3628   -9.4197   21.9194 C   0  0  0  0  0  0
  -23.6296   -8.2236   22.0758 C   0  0  0  0  0  0
  -22.4278   -8.0280   21.3546 C   0  0  0  0  0  0
  -21.9919   -9.0257   20.4650 C   0  0  0  0  0  0
  -22.7255  -10.2133   20.3064 C   0  0  0  0  0  0
  -21.6852   -6.0736   22.5279 C   0  0  0  0  0  0
  -21.4014   -6.5640   23.8213 C   0  0  0  0  0  0
  -21.3659   -5.6793   24.9175 C   0  0  0  0  0  0
  -21.6045   -4.3056   24.7225 C   0  0  0  0  0  0
  -21.8819   -3.8147   23.4347 C   0  0  0  0  0  0
  -21.9192   -4.6963   22.3402 C   0  0  0  0  0  0
  -22.7814  -13.5203   21.1870 C   0  0  0  0  0  0
  -22.1662   -4.2149   21.0979 F   0  0  0  0  0  0
  -21.5627   -3.4540   25.7738 F   0  0  0  0  0  0
  -29.9702  -13.6335   20.4127 N   0  0  0  0  0  0
  -26.2929  -12.9407   20.3270 N   0  0  0  0  0  0
  -25.9347  -11.6548   20.5776 N   0  0  0  0  0  0
  -22.0463  -12.8201   22.0434 N   0  0  0  0  0  0
  -25.4061  -15.1875   20.3876 N   0  0  0  0  0  0
  -31.6950  -15.0540   20.0961 O   0  0  0  0  0  0
  -21.6639   -6.8880   21.4242 O   0  0  0  0  0  0
  -22.3498  -14.5508   20.6714 O   0  0  0  0  0  0
  -24.6430  -31.8455   23.1896 C   0  0  0  0  0  0
  -25.9205  -32.4704   23.8283 C   0  0  1  0  0  0
  -27.2207  -27.1482   20.1460 C   0  0  0  0  0  0
  -25.5955  -33.8509   24.2199 N   0  0  0  0  0  0
  -23.4460  -30.4658   21.5353 C   0  0  2  0  0  0
  -24.8954  -28.8957   20.1121 C   0  0  0  0  0  0
  -22.7567  -29.4556   22.4865 C   0  0  0  0  0  0
  -18.0306  -28.1395   22.8477 C   0  0  0  0  0  0
  -24.1491  -36.7258   23.2641 C   0  0  0  0  0  0
  -26.0022  -30.7231   21.3870 C   0  0  0  0  0  0
  -26.0741  -29.3359   20.7276 C   0  0  0  0  0  0
  -27.2381  -28.4795   20.7258 C   0  0  0  0  0  0
  -26.0118  -26.8081   19.4964 C   0  0  0  0  0  0
  -24.8766  -27.6443   19.4819 C   0  0  0  0  0  0
  -23.6721  -29.7967   20.1545 C   0  0  0  0  0  0
  -25.4123  -36.3037   24.0316 C   0  0  1  0  0  0
  -20.5918  -28.3721   23.1235 C   0  0  2  0  0  0
  -20.6790  -26.9425   22.5401 C   0  0  0  0  0  0
  -19.5762  -26.6380   21.5211 C   0  0  0  0  0  0
  -18.1945  -26.7933   22.1625 C   0  0  0  0  0  0
  -19.1563  -28.8876   23.2848 C   0  0  0  0  0  0
  -18.9479  -30.1472   23.8874 C   0  0  0  0  0  0
  -17.6475  -30.6590   24.0559 C   0  0  0  0  0  0
  -25.9073  -34.9412   23.5065 C   0  0  0  0  0  0
  -16.5366  -29.9083   23.6336 C   0  0  0  0  0  0
  -16.7290  -28.6502   23.0356 C   0  0  0  0  0  0
  -26.4528  -31.6568   25.0720 C   0  0  0  0  0  0
  -25.3715  -31.3756   26.1417 C   0  0  0  0  0  0
  -27.0394  -30.2966   24.6296 C   0  0  0  0  0  0
  -27.6057  -32.4336   25.7507 C   0  0  0  0  0  0
  -27.5577  -37.1785   24.8465 C   0  0  0  0  0  0
  -21.4260  -29.3049   22.3611 N   0  0  0  0  0  0
  -26.4288  -37.3748   23.9409 N   0  0  0  0  0  0
  -24.7169  -31.0321   22.0925 N   0  0  0  0  0  0
  -23.4213  -28.8102   23.3012 O   0  0  0  0  0  0
  -28.2809  -26.1712   20.2041 O   0  0  0  0  0  0
  -26.5657  -34.8906   22.4643 O   0  0  0  0  0  0
  -23.5550  -32.1327   23.7121 O   0  0  0  0  0  0
  -30.3184  -18.4859   19.9208 C   0  0  0  0  0  0
  -30.0266  -19.9256   19.8717 C   0  0  0  0  0  0
  -28.2468  -19.5938   21.3713 C   0  0  0  0  0  0
  -28.5369  -18.1795   21.4468 C   0  0  0  0  0  0
  -29.5729  -17.5237   20.6995 C   0  0  0  0  0  0
  -28.9452  -20.5599   20.5850 C   0  0  0  0  0  0
  -27.6801  -17.3480   22.3878 C   0  0  0  0  0  0
  -27.9766  -24.6459   20.1466 C   0  0  0  0  0  0
  -28.9948  -23.3065   20.2617 C   0  0  0  0  0  0
  -29.6630  -15.9932   20.7657 N   0  0  0  0  0  0
  -28.4123  -21.9248   20.5748 O   0  0  0  0  0  0
  -31.4859  -12.7347   19.1864 H   0  0  0  0  0  0
  -30.4510  -11.5975   20.0023 H   0  0  0  0  0  0
  -29.8382  -11.7510   17.5675 H   0  0  0  0  0  0
  -29.6208  -13.4770   17.7103 H   0  0  0  0  0  0
  -27.9424  -11.2803   18.9560 H   0  0  0  0  0  0
  -27.3958  -12.4827   17.8161 H   0  0  0  0  0  0
  -27.6191  -14.2531   19.4504 H   0  0  0  0  0  0
  -28.7597  -12.2172   21.4265 H   0  0  0  0  0  0
  -28.3839  -13.8768   21.8040 H   0  0  0  0  0  0
  -25.2772   -9.5668   22.4773 H   0  0  0  0  0  0
  -24.0000   -7.4625   22.7477 H   0  0  0  0  0  0
  -21.0850   -8.8784   19.8955 H   0  0  0  0  0  0
  -22.3718  -10.9676   19.6176 H   0  0  0  0  0  0
  -21.2007   -7.6149   23.9716 H   0  0  0  0  0  0
  -21.1480   -6.0524   25.9079 H   0  0  0  0  0  0
  -22.0598   -2.7608   23.2848 H   0  0  0  0  0  0
  -22.4086  -11.9868   22.4827 H   0  0  0  0  0  0
  -21.1082  -13.1227   22.2642 H   0  0  0  0  0  0
  -24.6229  -15.8264   20.4705 H   0  0  0  0  0  0
  -26.2250  -15.6191   19.9796 H   0  0  0  0  0  0
  -26.7272  -32.5316   23.1014 H   0  0  0  0  0  0
  -25.0086  -33.9627   25.0335 H   0  0  0  0  0  0
  -22.7479  -31.2915   21.3819 H   0  0  0  0  0  0
  -23.3759  -35.9583   23.3292 H   0  0  0  0  0  0
  -24.3576  -36.8901   22.2058 H   0  0  0  0  0  0
  -23.7239  -37.6447   23.6686 H   0  0  0  0  0  0
  -26.1575  -31.4788   20.6158 H   0  0  0  0  0  0
  -26.8728  -30.7722   22.0294 H   0  0  0  0  0  0
  -28.1370  -28.8137   21.2247 H   0  0  0  0  0  0
  -25.9006  -25.8572   19.0008 H   0  0  0  0  0  0
  -23.9769  -27.3015   18.9893 H   0  0  0  0  0  0
  -23.8091  -30.5716   19.3995 H   0  0  0  0  0  0
  -22.7870  -29.2388   19.8433 H   0  0  0  0  0  0
  -25.1310  -36.1867   25.0808 H   0  0  0  0  0  0
  -21.0011  -28.3309   24.1356 H   0  0  0  0  0  0
  -20.5685  -26.2335   23.3620 H   0  0  0  0  0  0
  -21.6656  -26.7431   22.1199 H   0  0  0  0  0  0
  -19.6923  -25.6285   21.1255 H   0  0  0  0  0  0
  -19.6697  -27.3178   20.6730 H   0  0  0  0  0  0
  -17.4213  -26.6675   21.4031 H   0  0  0  0  0  0
  -18.0347  -26.0081   22.9028 H   0  0  0  0  0  0
  -19.7955  -30.7295   24.2232 H   0  0  0  0  0  0
  -17.5028  -31.6268   24.5164 H   0  0  0  0  0  0
  -15.5365  -30.2978   23.7671 H   0  0  0  0  0  0
  -15.8692  -28.0812   22.7084 H   0  0  0  0  0  0
  -24.5892  -30.7108   25.7736 H   0  0  0  0  0  0
  -24.8908  -32.2939   26.4799 H   0  0  0  0  0  0
  -25.7998  -30.8953   27.0223 H   0  0  0  0  0  0
  -26.3012  -29.6688   24.1293 H   0  0  0  0  0  0
  -27.4000  -29.7265   25.4869 H   0  0  0  0  0  0
  -27.8923  -30.4206   23.9620 H   0  0  0  0  0  0
  -27.2646  -33.3651   26.2038 H   0  0  0  0  0  0
  -28.3893  -32.6875   25.0355 H   0  0  0  0  0  0
  -28.0699  -31.8495   26.5463 H   0  0  0  0  0  0
  -28.2586  -38.0089   24.7516 H   0  0  0  0  0  0
  -28.1081  -36.2619   24.6289 H   0  0  0  0  0  0
  -27.2295  -37.1427   25.8868 H   0  0  0  0  0  0
  -20.9470  -29.8765   21.6792 H   0  0  0  0  0  0
  -26.0155  -38.2816   24.1415 H   0  0  0  0  0  0
  -31.1286  -18.1183   19.3072 H   0  0  0  0  0  0
  -30.6357  -20.5409   19.2249 H   0  0  0  0  0  0
  -27.4171  -19.9665   21.9553 H   0  0  0  0  0  0
  -26.9652  -17.9613   22.9370 H   0  0  0  0  0  0
  -28.3053  -16.8382   23.1216 H   0  0  0  0  0  0
  -27.1161  -16.5983   21.8387 H   0  0  0  0  0  0
  -27.2255  -24.4986   20.9233 H   0  0  0  0  0  0
  -27.4511  -24.4744   19.2093 H   0  0  0  0  0  0
  -29.7196  -23.5100   21.0500 H   0  0  0  0  0  0
  -29.5768  -23.2284   19.3433 H   0  0  0  0  0  0
  -28.8076  -15.6037   21.1294 H   0  0  0  0  0  0
  1 25  1  0  0  0
  1 30  2  0  0  0
  1 80  1  0  0  0
  2  3  1  0  0  0
  2 25  1  0  0  0
  2 82  1  0  0  0
  2 83  1  0  0  0
  3  4  1  0  0  0
  3 84  1  0  0  0
  3 85  1  0  0  0
  4  5  1  0  0  0
  4 86  1  0  0  0
  4 87  1  0  0  0
  5  6  1  0  0  0
  5 26  1  0  0  0
  5 88  1  0  0  0
  6 25  1  0  0  0
  6 89  1  0  0  0
  6 90  1  0  0  0
  7  8  2  0  0  0
  7 26  1  0  0  0
  7 29  1  0  0  0
  8  9  1  0  0  0
  8 22  1  0  0  0
  9 10  1  0  0  0
  9 27  2  0  0  0
 10 11  2  0  0  0
 10 15  1  0  0  0
 11 12  1  0  0  0
 11 91  1  0  0  0
 12 13  2  0  0  0
 12 92  1  0  0  0
 13 14  1  0  0  0
 13 31  1  0  0  0
 14 15  2  0  0  0
 14 93  1  0  0  0
 15 94  1  0  0  0
 16 17  2  0  0  0
 16 21  1  0  0  0
 16 31  1  0  0  0
 17 18  1  0  0  0
 17 95  1  0  0  0
 18 19  2  0  0  0
 18 96  1  0  0  0
 19 20  1  0  0  0
 19 24  1  0  0  0
 20 21  2  0  0  0
 20 97  1  0  0  0
 21 23  1  0  0  0
 22 28  1  0  0  0
 22 32  2  0  0  0
 26 27  1  0  0  0
 28 98  1  0  0  0
 28 99  1  0  0  0
 29100  1  0  0  0
 29101  1  0  0  0
 33 34  1  0  0  0
 33 66  1  0  0  0
 33 70  2  0  0  0
 34 36  1  0  0  0
 34 59  1  0  0  0
 34102  1  0  0  0
 35 44  2  0  0  0
 35 45  1  0  0  0
 35 68  1  0  0  0
 36 56  1  0  0  0
 36103  1  0  0  0
 37 39  1  0  0  0
 37 47  1  0  0  0
 37 66  1  0  0  0
 37104  1  0  0  0
 38 43  2  0  0  0
 38 46  1  0  0  0
 38 47  1  0  0  0
 39 64  1  0  0  0
 39 67  2  0  0  0
 40 52  1  0  0  0
 40 53  2  0  0  0
 40 58  1  0  0  0
 41105  1  0  0  0
 41106  1  0  0  0
 41107  1  0  0  0
 41 48  1  0  0  0
 42 43  1  0  0  0
 42 66  1  0  0  0
 42108  1  0  0  0
 42109  1  0  0  0
 43 44  1  0  0  0
 44110  1  0  0  0
 45 46  2  0  0  0
 45111  1  0  0  0
 46112  1  0  0  0
 47113  1  0  0  0
 47114  1  0  0  0
 48 56  1  0  0  0
 48 65  1  0  0  0
 48115  1  0  0  0
 49 50  1  0  0  0
 49 53  1  0  0  0
 49 64  1  0  0  0
 49116  1  0  0  0
 50 51  1  0  0  0
 50117  1  0  0  0
 50118  1  0  0  0
 51 52  1  0  0  0
 51119  1  0  0  0
 51120  1  0  0  0
 52121  1  0  0  0
 52122  1  0  0  0
 53 54  1  0  0  0
 54 55  2  0  0  0
 54123  1  0  0  0
 55 57  1  0  0  0
 55124  1  0  0  0
 56 69  2  0  0  0
 57 58  2  0  0  0
 57125  1  0  0  0
 58126  1  0  0  0
 59 60  1  0  0  0
 59 61  1  0  0  0
 59 62  1  0  0  0
 60127  1  0  0  0
 60128  1  0  0  0
 60129  1  0  0  0
 61130  1  0  0  0
 61131  1  0  0  0
 61132  1  0  0  0
 62133  1  0  0  0
 62134  1  0  0  0
 62135  1  0  0  0
 63 65  1  0  0  0
 63136  1  0  0  0
 63137  1  0  0  0
 63138  1  0  0  0
 64139  1  0  0  0
 65140  1  0  0  0
 68 78  1  0  0  0
 71 72  2  0  0  0
 71 75  1  0  0  0
 71141  1  0  0  0
 72 76  1  0  0  0
 72142  1  0  0  0
 73 74  1  0  0  0
 73 76  2  0  0  0
 73143  1  0  0  0
 74 75  2  0  0  0
 74 77  1  0  0  0
 75 80  1  0  0  0
 76 81  1  0  0  0
 77144  1  0  0  0
 77145  1  0  0  0
 77146  1  0  0  0
 78 79  1  0  0  0
 78147  1  0  0  0
 78148  1  0  0  0
 79 81  1  0  0  0
 79149  1  0  0  0
 79150  1  0  0  0
 80151  1  0  0  0
M  ISO  4   1 100  68 101  78 101  80 100
M  END
> <chiral flag>
0

> <version>
0

> <s_m_source_file>
/data/baiqing/PycharmProjects/Reinvent-master-3.2/result/LINK_invent/BTK/process_docking_weight1_custom_sum_contain_oxygen_bond_distance_aromatic_linkinvent_7_9_3/rearranged_h_0138.sdf

> <i_m_source_file_index>
57

> <r_mmod_Potential_Energy-OPLS-2005>
450.374176025391

> <r_mmod_Stretch_Energy-OPLS-2005>
220.072540283203

> <r_mmod_Bend_Energy-OPLS-2005>
300.924438476562

> <r_mmod_Torsional_Energy-OPLS-2005>
220.343322753906

> <r_mmod_Improper_Torsional_Energy-OPLS-2005>
3.81109833717346

> <r_mmod_Van_der_Waal_Energy-OPLS-2005>
132.919097900391

> <r_mmod_Electrostatic_Energy-OPLS-2005>
-390.617248535156

> <r_mmod_Solvation_Energy-OPLS-2005>
-211.13166809082

> <b_mmod_Minimization_Converged-OPLS-2005>
0

> <r_mmod_RMS_Derivative-OPLS-2005>
0.254078179597855

$$$$
57
                    3D
 Structure written by MMmdl.
159167  0  0  1  0            999 V2000
  -30.6577  -14.4926   20.6039 C   0  0  0  0  0  0
  -30.4360  -12.3264   19.4194 C   0  0  0  0  0  0
  -29.4990  -12.5295   18.2082 C   0  0  0  0  0  0
  -28.0205  -12.3719   18.6174 C   0  0  0  0  0  0
  -27.6674  -13.1979   19.8820 C   0  0  2  0  0  0
  -28.7058  -12.9441   20.9994 C   0  0  0  0  0  0
  -25.2606  -13.8139   20.5671 C   0  0  0  0  0  0
  -24.1841  -13.0434   20.9171 C   0  0  0  0  0  0
  -24.6388  -11.6900   20.8733 C   0  0  0  0  0  0
  -23.9052  -10.4297   21.0411 C   0  0  0  0  0  0
  -24.3610   -9.4219   21.9195 C   0  0  0  0  0  0
  -23.6296   -8.2251   22.0768 C   0  0  0  0  0  0
  -22.4279   -8.0291   21.3561 C   0  0  0  0  0  0
  -21.9908   -9.0254   20.4659 C   0  0  0  0  0  0
  -22.7225  -10.2135   20.3064 C   0  0  0  0  0  0
  -21.6851   -6.0746   22.5291 C   0  0  0  0  0  0
  -21.4005   -6.5649   23.8228 C   0  0  0  0  0  0
  -21.3649   -5.6805   24.9190 C   0  0  0  0  0  0
  -21.6040   -4.3070   24.7238 C   0  0  0  0  0  0
  -21.8812   -3.8160   23.4361 C   0  0  0  0  0  0
  -21.9190   -4.6973   22.3417 C   0  0  0  0  0  0
  -22.7864  -13.5247   21.1845 C   0  0  0  0  0  0
  -22.1663   -4.2161   21.0994 F   0  0  0  0  0  0
  -21.5629   -3.4553   25.7748 F   0  0  0  0  0  0
  -30.0435  -13.2819   20.4701 N   0  0  0  0  0  0
  -26.3046  -12.9294   20.3376 N   0  0  0  0  0  0
  -25.9316  -11.6465   20.5762 N   0  0  0  0  0  0
  -22.0487  -12.8247   22.0395 N   0  0  0  0  0  0
  -25.4330  -15.1849   20.4067 N   0  0  0  0  0  0
  -31.7211  -14.7764   20.0452 O   0  0  0  0  0  0
  -21.6644   -6.8888   21.4255 O   0  0  0  0  0  0
  -22.3565  -14.5566   20.6718 O   0  0  0  0  0  0
  -24.6172  -31.8662   23.2101 C   0  0  0  0  0  0
  -25.9052  -32.4812   23.8392 C   0  0  1  0  0  0
  -27.2283  -27.4073   20.1008 C   0  0  0  0  0  0
  -25.5897  -33.8617   24.2322 N   0  0  0  0  0  0
  -23.4074  -30.4907   21.5503 C   0  0  2  0  0  0
  -24.8552  -28.9600   20.1123 C   0  0  0  0  0  0
  -22.7431  -29.4647   22.4972 C   0  0  0  0  0  0
  -18.0269  -28.1375   22.8487 C   0  0  0  0  0  0
  -24.1490  -36.7315   23.2639 C   0  0  0  0  0  0
  -25.9406  -30.8249   21.3681 C   0  0  0  0  0  0
  -26.0182  -29.4589   20.7128 C   0  0  0  0  0  0
  -27.2118  -28.6920   20.7007 C   0  0  0  0  0  0
  -26.0509  -26.9430   19.4738 C   0  0  0  0  0  0
  -24.8674  -27.7020   19.4877 C   0  0  0  0  0  0
  -23.6177  -29.8273   20.1640 C   0  0  0  0  0  0
  -25.4110  -36.3111   24.0332 C   0  0  1  0  0  0
  -20.5871  -28.3674   23.1308 C   0  0  2  0  0  0
  -20.6769  -26.9409   22.5414 C   0  0  0  0  0  0
  -19.5755  -26.6384   21.5205 C   0  0  0  0  0  0
  -18.1929  -26.7922   22.1607 C   0  0  0  0  0  0
  -19.1525  -28.8837   23.2890 C   0  0  0  0  0  0
  -18.9448  -30.1434   23.8914 C   0  0  0  0  0  0
  -17.6454  -30.6584   24.0562 C   0  0  0  0  0  0
  -25.9036  -34.9474   23.5126 C   0  0  0  0  0  0
  -16.5342  -29.9091   23.6325 C   0  0  0  0  0  0
  -16.7258  -28.6505   23.0354 C   0  0  0  0  0  0
  -26.4475  -31.6600   25.0721 C   0  0  0  0  0  0
  -25.3736  -31.3693   26.1463 C   0  0  0  0  0  0
  -27.0307  -30.3039   24.6107 C   0  0  0  0  0  0
  -27.6069  -32.4312   25.7476 C   0  0  0  0  0  0
  -27.5581  -37.1808   24.8459 C   0  0  0  0  0  0
  -21.4159  -29.3033   22.3710 N   0  0  0  0  0  0
  -26.4298  -37.3791   23.9401 N   0  0  0  0  0  0
  -24.6736  -31.0751   22.1005 N   0  0  0  0  0  0
  -23.4189  -28.8179   23.3010 O   0  0  0  0  0  0
  -28.3583  -26.6056   20.1234 O   0  0  0  0  0  0
  -26.5610  -34.8925   22.4693 O   0  0  0  0  0  0
  -23.5356  -32.1419   23.7475 O   0  0  0  0  0  0
  -30.5460  -20.2872   21.1595 C   0  0  0  0  0  0
  -30.2142  -19.2177   20.2950 C   0  0  0  0  0  0
  -29.3976  -19.5263   19.1763 C   0  0  0  0  0  0
  -28.9386  -20.8607   19.0149 C   0  0  0  0  0  0
  -29.3314  -21.8563   19.9381 C   0  0  0  0  0  0
  -29.0071  -18.4664   18.1508 C   0  0  0  0  0  0
  -28.0363  -21.2291   17.8416 C   0  0  0  0  0  0
  -30.7473  -17.7912   20.5803 C   0  0  0  0  0  0
  -29.6365  -16.8187   21.0640 C   0  0  0  0  0  0
  -28.1458  -25.3047   20.7315 C   0  0  0  0  0  0
  -29.2917  -24.2602   20.5842 C   0  0  0  0  0  0
  -30.1304  -21.5675   20.9881 N   0  0  0  0  0  0
  -29.9399  -15.3909   21.3066 N   0  0  0  0  0  0
  -28.8689  -23.1576   19.7579 O   0  0  0  0  0  0
  -31.4784  -12.4484   19.1196 H   0  0  0  0  0  0
  -30.3514  -11.3054   19.7949 H   0  0  0  0  0  0
  -29.7457  -11.8223   17.4159 H   0  0  0  0  0  0
  -29.6533  -13.5239   17.7870 H   0  0  0  0  0  0
  -27.8359  -11.3126   18.8013 H   0  0  0  0  0  0
  -27.3686  -12.6523   17.7891 H   0  0  0  0  0  0
  -27.7222  -14.2500   19.6025 H   0  0  0  0  0  0
  -28.6865  -11.8938   21.2937 H   0  0  0  0  0  0
  -28.4441  -13.4910   21.9059 H   0  0  0  0  0  0
  -25.2745   -9.5706   22.4779 H   0  0  0  0  0  0
  -24.0004   -7.4647   22.7485 H   0  0  0  0  0  0
  -21.0846   -8.8765   19.8964 H   0  0  0  0  0  0
  -22.3680  -10.9679   19.6184 H   0  0  0  0  0  0
  -21.1988   -7.6157   23.9732 H   0  0  0  0  0  0
  -21.1477   -6.0541   25.9090 H   0  0  0  0  0  0
  -22.0591   -2.7623   23.2865 H   0  0  0  0  0  0
  -22.4079  -11.9888   22.4756 H   0  0  0  0  0  0
  -21.1116  -13.1293   22.2611 H   0  0  0  0  0  0
  -24.6653  -15.8396   20.5122 H   0  0  0  0  0  0
  -26.2893  -15.6227   20.0913 H   0  0  0  0  0  0
  -26.7116  -32.5517   23.1158 H   0  0  0  0  0  0
  -25.0046  -33.9778   25.0466 H   0  0  0  0  0  0
  -22.6965  -31.3085   21.4103 H   0  0  0  0  0  0
  -23.3750  -35.9649   23.3305 H   0  0  0  0  0  0
  -24.3586  -36.8934   22.2050 H   0  0  0  0  0  0
  -23.7249  -37.6519   23.6664 H   0  0  0  0  0  0
  -26.0574  -31.5910   20.6008 H   0  0  0  0  0  0
  -26.8273  -30.8770   21.9881 H   0  0  0  0  0  0
  -28.1081  -29.0695   21.1746 H   0  0  0  0  0  0
  -26.0386  -25.9887   18.9678 H   0  0  0  0  0  0
  -23.9757  -27.3193   19.0100 H   0  0  0  0  0  0
  -23.7261  -30.6044   19.4056 H   0  0  0  0  0  0
  -22.7417  -29.2469   19.8672 H   0  0  0  0  0  0
  -25.1292  -36.1979   25.0822 H   0  0  0  0  0  0
  -20.9949  -28.3243   24.1431 H   0  0  0  0  0  0
  -20.5680  -26.2278   23.3597 H   0  0  0  0  0  0
  -21.6641  -26.7458   22.1203 H   0  0  0  0  0  0
  -19.6930  -25.6301   21.1229 H   0  0  0  0  0  0
  -19.6707  -27.3199   20.6745 H   0  0  0  0  0  0
  -17.4203  -26.6662   21.4004 H   0  0  0  0  0  0
  -18.0325  -26.0058   22.8996 H   0  0  0  0  0  0
  -19.7927  -30.7229   24.2320 H   0  0  0  0  0  0
  -17.5013  -31.6277   24.5144 H   0  0  0  0  0  0
  -15.5349  -30.2994   23.7653 H   0  0  0  0  0  0
  -15.8652  -28.0828   22.7076 H   0  0  0  0  0  0
  -24.5945  -30.7003   25.7798 H   0  0  0  0  0  0
  -24.8876  -32.2825   26.4901 H   0  0  0  0  0  0
  -25.8079  -30.8882   27.0238 H   0  0  0  0  0  0
  -26.2852  -29.6779   24.1189 H   0  0  0  0  0  0
  -27.4107  -29.7294   25.4570 H   0  0  0  0  0  0
  -27.8673  -30.4354   23.9243 H   0  0  0  0  0  0
  -27.2731  -33.3630   26.2068 H   0  0  0  0  0  0
  -28.3871  -32.6845   25.0280 H   0  0  0  0  0  0
  -28.0746  -31.8412   26.5375 H   0  0  0  0  0  0
  -28.2611  -38.0096   24.7517 H   0  0  0  0  0  0
  -28.1075  -36.2633   24.6292 H   0  0  0  0  0  0
  -27.2299  -37.1462   25.8863 H   0  0  0  0  0  0
  -20.9327  -29.8748   21.6926 H   0  0  0  0  0  0
  -26.0189  -38.2872   24.1404 H   0  0  0  0  0  0
  -31.1744  -20.1156   22.0208 H   0  0  0  0  0  0
  -29.6295  -17.5752   18.1842 H   0  0  0  0  0  0
  -29.0991  -18.8581   17.1379 H   0  0  0  0  0  0
  -27.9724  -18.1570   18.3007 H   0  0  0  0  0  0
  -28.6161  -21.2623   16.9197 H   0  0  0  0  0  0
  -27.5576  -22.2000   17.9659 H   0  0  0  0  0  0
  -27.2370  -20.4992   17.7183 H   0  0  0  0  0  0
  -31.5317  -17.8460   21.3370 H   0  0  0  0  0  0
  -31.2377  -17.4132   19.6828 H   0  0  0  0  0  0
  -28.8061  -16.8340   20.3596 H   0  0  0  0  0  0
  -29.2260  -17.2097   21.9957 H   0  0  0  0  0  0
  -27.9860  -25.4839   21.7962 H   0  0  0  0  0  0
  -27.2261  -24.8316   20.3898 H   0  0  0  0  0  0
  -29.5781  -23.9328   21.5839 H   0  0  0  0  0  0
  -30.1713  -24.7256   20.1397 H   0  0  0  0  0  0
  -29.2131  -14.9334   21.8384 H   0  0  0  0  0  0
  1 25  1  0  0  0
  1 30  2  0  0  0
  1 83  1  0  0  0
  2  3  1  0  0  0
  2 25  1  0  0  0
  2 85  1  0  0  0
  2 86  1  0  0  0
  3  4  1  0  0  0
  3 87  1  0  0  0
  3 88  1  0  0  0
  4  5  1  0  0  0
  4 89  1  0  0  0
  4 90  1  0  0  0
  5  6  1  0  0  0
  5 26  1  0  0  0
  5 91  1  0  0  0
  6 25  1  0  0  0
  6 92  1  0  0  0
  6 93  1  0  0  0
  7  8  2  0  0  0
  7 26  1  0  0  0
  7 29  1  0  0  0
  8  9  1  0  0  0
  8 22  1  0  0  0
  9 10  1  0  0  0
  9 27  2  0  0  0
 10 11  2  0  0  0
 10 15  1  0  0  0
 11 12  1  0  0  0
 11 94  1  0  0  0
 12 13  2  0  0  0
 12 95  1  0  0  0
 13 14  1  0  0  0
 13 31  1  0  0  0
 14 15  2  0  0  0
 14 96  1  0  0  0
 15 97  1  0  0  0
 16 17  2  0  0  0
 16 21  1  0  0  0
 16 31  1  0  0  0
 17 18  1  0  0  0
 17 98  1  0  0  0
 18 19  2  0  0  0
 18 99  1  0  0  0
 19 20  1  0  0  0
 19 24  1  0  0  0
 20 21  2  0  0  0
 20100  1  0  0  0
 21 23  1  0  0  0
 22 28  1  0  0  0
 22 32  2  0  0  0
 26 27  1  0  0  0
 28101  1  0  0  0
 28102  1  0  0  0
 29103  1  0  0  0
 29104  1  0  0  0
 33 34  1  0  0  0
 33 66  1  0  0  0
 33 70  2  0  0  0
 34 36  1  0  0  0
 34 59  1  0  0  0
 34105  1  0  0  0
 35 44  2  0  0  0
 35 45  1  0  0  0
 35 68  1  0  0  0
 36 56  1  0  0  0
 36106  1  0  0  0
 37 39  1  0  0  0
 37 47  1  0  0  0
 37 66  1  0  0  0
 37107  1  0  0  0
 38 43  2  0  0  0
 38 46  1  0  0  0
 38 47  1  0  0  0
 39 64  1  0  0  0
 39 67  2  0  0  0
 40 52  1  0  0  0
 40 53  2  0  0  0
 40 58  1  0  0  0
 41108  1  0  0  0
 41109  1  0  0  0
 41110  1  0  0  0
 41 48  1  0  0  0
 42 43  1  0  0  0
 42 66  1  0  0  0
 42111  1  0  0  0
 42112  1  0  0  0
 43 44  1  0  0  0
 44113  1  0  0  0
 45 46  2  0  0  0
 45114  1  0  0  0
 46115  1  0  0  0
 47116  1  0  0  0
 47117  1  0  0  0
 48 56  1  0  0  0
 48 65  1  0  0  0
 48118  1  0  0  0
 49 50  1  0  0  0
 49 53  1  0  0  0
 49 64  1  0  0  0
 49119  1  0  0  0
 50 51  1  0  0  0
 50120  1  0  0  0
 50121  1  0  0  0
 51 52  1  0  0  0
 51122  1  0  0  0
 51123  1  0  0  0
 52124  1  0  0  0
 52125  1  0  0  0
 53 54  1  0  0  0
 54 55  2  0  0  0
 54126  1  0  0  0
 55 57  1  0  0  0
 55127  1  0  0  0
 56 69  2  0  0  0
 57 58  2  0  0  0
 57128  1  0  0  0
 58129  1  0  0  0
 59 60  1  0  0  0
 59 61  1  0  0  0
 59 62  1  0  0  0
 60130  1  0  0  0
 60131  1  0  0  0
 60132  1  0  0  0
 61133  1  0  0  0
 61134  1  0  0  0
 61135  1  0  0  0
 62136  1  0  0  0
 62137  1  0  0  0
 62138  1  0  0  0
 63 65  1  0  0  0
 63139  1  0  0  0
 63140  1  0  0  0
 63141  1  0  0  0
 64142  1  0  0  0
 65143  1  0  0  0
 68 80  1  0  0  0
 71 72  2  0  0  0
 71 82  1  0  0  0
 71144  1  0  0  0
 72 73  1  0  0  0
 72 78  1  0  0  0
 73 74  2  0  0  0
 73 76  1  0  0  0
 74 75  1  0  0  0
 74 77  1  0  0  0
 75 82  2  0  0  0
 75 84  1  0  0  0
 76145  1  0  0  0
 76146  1  0  0  0
 76147  1  0  0  0
 77148  1  0  0  0
 77149  1  0  0  0
 77150  1  0  0  0
 78 79  1  0  0  0
 78151  1  0  0  0
 78152  1  0  0  0
 79 83  1  0  0  0
 79153  1  0  0  0
 79154  1  0  0  0
 80 81  1  0  0  0
 80155  1  0  0  0
 80156  1  0  0  0
 81 84  1  0  0  0
 81157  1  0  0  0
 81158  1  0  0  0
 83159  1  0  0  0
M  ISO  4   1 100  68 101  80 101  83 100
M  END
> <chiral flag>
0

> <version>
0

> <s_m_source_file>
/data/baiqing/PycharmProjects/Reinvent-master-3.2/result/LINK_invent/BTK/process_docking_weight1_custom_sum_contain_oxygen_bond_distance_aromatic_linkinvent_7_9_3/rearranged_h_0138.sdf

> <i_m_source_file_index>
58

> <r_mmod_Potential_Energy-OPLS-2005>
-253.578170776367

> <r_mmod_Stretch_Energy-OPLS-2005>
46.0327491760254

> <r_mmod_Bend_Energy-OPLS-2005>
125.999626159668

> <r_mmod_Torsional_Energy-OPLS-2005>
217.902465820312

> <r_mmod_Improper_Torsional_Energy-OPLS-2005>
4.91782379150391

> <r_mmod_Van_der_Waal_Energy-OPLS-2005>
162.070755004883

> <r_mmod_Electrostatic_Energy-OPLS-2005>
-604.069702148438

> <r_mmod_Solvation_Energy-OPLS-2005>
-224.183898925781

> <b_mmod_Minimization_Converged-OPLS-2005>
0

> <r_mmod_RMS_Derivative-OPLS-2005>
1.92914283275604

$$$$
58
                    3D
 Structure written by MMmdl.
155164  0  0  1  0            999 V2000
  -30.4908  -15.0793   20.3975 C   0  0  0  0  0  0
  -30.4391  -12.6782   19.5103 C   0  0  0  0  0  0
  -29.5276  -12.5541   18.2659 C   0  0  0  0  0  0
  -28.0654  -12.3144   18.6846 C   0  0  0  0  0  0
  -27.6216  -13.2601   19.8307 C   0  0  2  0  0  0
  -28.6596  -13.3435   20.9690 C   0  0  0  0  0  0
  -25.2432  -13.8227   20.5716 C   0  0  0  0  0  0
  -24.1766  -13.0435   20.9234 C   0  0  0  0  0  0
  -24.6399  -11.6924   20.8745 C   0  0  0  0  0  0
  -23.9088  -10.4288   21.0403 C   0  0  0  0  0  0
  -24.3636   -9.4208   21.9184 C   0  0  0  0  0  0
  -23.6301   -8.2250   22.0762 C   0  0  0  0  0  0
  -22.4284   -8.0287   21.3554 C   0  0  0  0  0  0
  -21.9923   -9.0255   20.4651 C   0  0  0  0  0  0
  -22.7258  -10.2131   20.3054 C   0  0  0  0  0  0
  -21.6860   -6.0735   22.5276 C   0  0  0  0  0  0
  -21.4020   -6.5638   23.8210 C   0  0  0  0  0  0
  -21.3665   -5.6792   24.9173 C   0  0  0  0  0  0
  -21.6047   -4.3055   24.7222 C   0  0  0  0  0  0
  -21.8817   -3.8146   23.4341 C   0  0  0  0  0  0
  -21.9194   -4.6962   22.3398 C   0  0  0  0  0  0
  -22.7785  -13.5203   21.1880 C   0  0  0  0  0  0
  -22.1664   -4.2151   21.0973 F   0  0  0  0  0  0
  -21.5630   -3.4542   25.7737 F   0  0  0  0  0  0
  -29.9160  -13.7970   20.3591 N   0  0  0  0  0  0
  -26.2854  -12.9475   20.3214 N   0  0  0  0  0  0
  -25.9334  -11.6593   20.5711 N   0  0  0  0  0  0
  -22.0443  -12.8194   22.0437 N   0  0  0  0  0  0
  -25.4066  -15.1959   20.4136 N   0  0  0  0  0  0
  -31.7021  -15.1216   20.1496 O   0  0  0  0  0  0
  -21.6649   -6.8883   21.4243 O   0  0  0  0  0  0
  -22.3461  -14.5500   20.6710 O   0  0  0  0  0  0
  -24.6525  -31.8337   23.1781 C   0  0  0  0  0  0
  -25.9255  -32.4637   23.8214 C   0  0  1  0  0  0
  -27.2161  -27.0333   20.1672 C   0  0  0  0  0  0
  -25.5964  -33.8449   24.2130 N   0  0  0  0  0  0
  -23.4616  -30.4482   21.5256 C   0  0  2  0  0  0
  -24.9109  -28.8516   20.1106 C   0  0  0  0  0  0
  -22.7610  -29.4493   22.4823 C   0  0  0  0  0  0
  -18.0311  -28.1399   22.8464 C   0  0  0  0  0  0
  -24.1493  -36.7234   23.2644 C   0  0  0  0  0  0
  -26.0229  -30.6738   21.3913 C   0  0  0  0  0  0
  -26.0908  -29.2740   20.7350 C   0  0  0  0  0  0
  -27.2400  -28.3827   20.7404 C   0  0  0  0  0  0
  -26.0073  -26.7317   19.5038 C   0  0  0  0  0  0
  -24.8878  -27.5981   19.4778 C   0  0  0  0  0  0
  -23.6933  -29.7679   20.1487 C   0  0  0  0  0  0
  -25.4130  -36.3001   24.0306 C   0  0  1  0  0  0
  -20.5928  -28.3736   23.1210 C   0  0  2  0  0  0
  -20.6789  -26.9427   22.5403 C   0  0  0  0  0  0
  -19.5767  -26.6375   21.5209 C   0  0  0  0  0  0
  -18.1948  -26.7934   22.1617 C   0  0  0  0  0  0
  -19.1569  -28.8885   23.2827 C   0  0  0  0  0  0
  -18.9484  -30.1480   23.8861 C   0  0  0  0  0  0
  -17.6479  -30.6589   24.0557 C   0  0  0  0  0  0
  -25.9086  -34.9376   23.5038 C   0  0  0  0  0  0
  -16.5370  -29.9081   23.6336 C   0  0  0  0  0  0
  -16.7296  -28.6501   23.0352 C   0  0  0  0  0  0
  -26.4535  -31.6541   25.0703 C   0  0  0  0  0  0
  -25.3689  -31.3766   26.1377 C   0  0  0  0  0  0
  -27.0418  -30.2920   24.6367 C   0  0  0  0  0  0
  -27.6045  -32.4325   25.7506 C   0  0  0  0  0  0
  -27.5577  -37.1773   24.8462 C   0  0  0  0  0  0
  -21.4291  -29.3048   22.3572 N   0  0  0  0  0  0
  -26.4286  -37.3723   23.9406 N   0  0  0  0  0  0
  -24.7329  -31.0097   22.0864 N   0  0  0  0  0  0
  -23.4203  -28.8055   23.3025 O   0  0  0  0  0  0
  -28.2688  -26.0184   20.2416 O   0  0  0  0  0  0
  -26.5688  -34.8892   22.4626 O   0  0  0  0  0  0
  -23.5619  -32.1262   23.6938 O   0  0  0  0  0  0
  -29.5109  -21.9741   19.3671 C   0  0  0  0  0  0
  -27.7227  -21.7713   20.9070 C   0  0  0  0  0  0
  -29.5038  -23.6097   19.6051 C   0  0  0  0  0  0
  -27.7140  -23.4033   21.1544 C   0  0  0  0  0  0
  -30.2334  -18.2626   18.9249 C   0  0  0  0  0  0
  -29.0620  -20.9525   20.5267 C   0  0  1  0  0  0
  -30.0506  -17.8837   20.3979 C   0  0  1  0  0  0
  -28.9723  -19.2129   20.2974 C   0  0  2  0  0  0
  -28.1717  -24.4309   20.0066 C   0  0  1  0  0  0
  -29.7152  -16.2979   20.5074 N   0  0  0  0  0  0
  -28.9794  -19.0230   18.8610 O   0  0  0  0  0  0
  -31.4686  -12.8536   19.1955 H   0  0  0  0  0  0
  -30.4581  -11.7418   20.0702 H   0  0  0  0  0  0
  -29.8709  -11.7459   17.6191 H   0  0  0  0  0  0
  -29.5943  -13.4690   17.6750 H   0  0  0  0  0  0
  -27.9823  -11.2766   19.0091 H   0  0  0  0  0  0
  -27.4017  -12.4194   17.8253 H   0  0  0  0  0  0
  -27.5650  -14.2509   19.3782 H   0  0  0  0  0  0
  -28.7820  -12.3802   21.4668 H   0  0  0  0  0  0
  -28.3349  -14.0516   21.7330 H   0  0  0  0  0  0
  -25.2782   -9.5686   22.4758 H   0  0  0  0  0  0
  -24.0009   -7.4644   22.7482 H   0  0  0  0  0  0
  -21.0858   -8.8772   19.8946 H   0  0  0  0  0  0
  -22.3719  -10.9669   19.6161 H   0  0  0  0  0  0
  -21.2017   -7.6147   23.9713 H   0  0  0  0  0  0
  -21.1495   -6.0523   25.9076 H   0  0  0  0  0  0
  -22.0591   -2.7605   23.2839 H   0  0  0  0  0  0
  -22.4070  -11.9874   22.4854 H   0  0  0  0  0  0
  -21.1052  -13.1200   22.2621 H   0  0  0  0  0  0
  -24.6319  -15.8414   20.5215 H   0  0  0  0  0  0
  -26.2366  -15.6373   20.0396 H   0  0  0  0  0  0
  -26.7327  -32.5205   23.0936 H   0  0  0  0  0  0
  -25.0068  -33.9546   25.0252 H   0  0  0  0  0  0
  -22.7698  -31.2770   21.3622 H   0  0  0  0  0  0
  -23.3767  -35.9554   23.3276 H   0  0  0  0  0  0
  -24.3578  -36.8903   22.2065 H   0  0  0  0  0  0
  -23.7237  -37.6412   23.6712 H   0  0  0  0  0  0
  -26.1906  -31.4209   20.6145 H   0  0  0  0  0  0
  -26.8882  -30.7268   22.0403 H   0  0  0  0  0  0
  -28.1388  -28.7025   21.2487 H   0  0  0  0  0  0
  -25.8938  -25.7736   19.0204 H   0  0  0  0  0  0
  -23.9877  -27.2693   18.9771 H   0  0  0  0  0  0
  -23.8388  -30.5379   19.3903 H   0  0  0  0  0  0
  -22.8052  -29.2161   19.8363 H   0  0  0  0  0  0
  -25.1324  -36.1813   25.0799 H   0  0  0  0  0  0
  -21.0018  -28.3336   24.1332 H   0  0  0  0  0  0
  -20.5666  -26.2356   23.3635 H   0  0  0  0  0  0
  -21.6655  -26.7409   22.1215 H   0  0  0  0  0  0
  -19.6928  -25.6274   21.1265 H   0  0  0  0  0  0
  -19.6707  -27.3163   20.6720 H   0  0  0  0  0  0
  -17.4216  -26.6670   21.4023 H   0  0  0  0  0  0
  -18.0350  -26.0088   22.9026 H   0  0  0  0  0  0
  -19.7962  -30.7305   24.2210 H   0  0  0  0  0  0
  -17.5032  -31.6266   24.5170 H   0  0  0  0  0  0
  -15.5371  -30.2971   23.7683 H   0  0  0  0  0  0
  -15.8693  -28.0813   22.7081 H   0  0  0  0  0  0
  -24.5880  -30.7101   25.7695 H   0  0  0  0  0  0
  -24.8868  -32.2960   26.4712 H   0  0  0  0  0  0
  -25.7939  -30.8997   27.0218 H   0  0  0  0  0  0
  -26.3059  -29.6609   24.1370 H   0  0  0  0  0  0
  -27.3979  -29.7260   25.4988 H   0  0  0  0  0  0
  -27.8988  -30.4123   23.9738 H   0  0  0  0  0  0
  -27.2618  -33.3646   26.2012 H   0  0  0  0  0  0
  -28.3898  -32.6846   25.0370 H   0  0  0  0  0  0
  -28.0666  -31.8501   26.5487 H   0  0  0  0  0  0
  -28.2568  -38.0094   24.7520 H   0  0  0  0  0  0
  -28.1098  -36.2621   24.6272 H   0  0  0  0  0  0
  -27.2297  -37.1395   25.8864 H   0  0  0  0  0  0
  -20.9522  -29.8752   21.6725 H   0  0  0  0  0  0
  -26.0143  -38.2786   24.1412 H   0  0  0  0  0  0
  -30.5154  -21.6864   19.0556 H   0  0  0  0  0  0
  -28.8869  -21.7725   18.4954 H   0  0  0  0  0  0
  -26.9816  -21.5605   20.1345 H   0  0  0  0  0  0
  -27.3138  -21.3083   21.8055 H   0  0  0  0  0  0
  -29.8963  -24.0681   18.6966 H   0  0  0  0  0  0
  -30.2564  -23.8221   20.3651 H   0  0  0  0  0  0
  -28.3238  -23.5993   22.0369 H   0  0  0  0  0  0
  -26.7031  -23.6836   21.4499 H   0  0  0  0  0  0
  -30.2465  -17.4139   18.2393 H   0  0  0  0  0  0
  -31.1058  -18.8975   18.7545 H   0  0  0  0  0  0
  -29.7518  -21.1088   21.3566 H   0  0  0  0  0  0
  -30.9317  -18.1515   20.9823 H   0  0  0  0  0  0
  -28.0298  -18.8596   20.7189 H   0  0  0  0  0  0
  -27.4873  -24.2978   19.1703 H   0  0  0  0  0  0
  -28.7358  -16.1126   20.6661 H   0  0  0  0  0  0
  1 25  1  0  0  0
  1 30  2  0  0  0
  1 80  1  0  0  0
  2  3  1  0  0  0
  2 25  1  0  0  0
  2 82  1  0  0  0
  2 83  1  0  0  0
  3  4  1  0  0  0
  3 84  1  0  0  0
  3 85  1  0  0  0
  4  5  1  0  0  0
  4 86  1  0  0  0
  4 87  1  0  0  0
  5  6  1  0  0  0
  5 26  1  0  0  0
  5 88  1  0  0  0
  6 25  1  0  0  0
  6 89  1  0  0  0
  6 90  1  0  0  0
  7  8  2  0  0  0
  7 26  1  0  0  0
  7 29  1  0  0  0
  8  9  1  0  0  0
  8 22  1  0  0  0
  9 10  1  0  0  0
  9 27  2  0  0  0
 10 11  2  0  0  0
 10 15  1  0  0  0
 11 12  1  0  0  0
 11 91  1  0  0  0
 12 13  2  0  0  0
 12 92  1  0  0  0
 13 14  1  0  0  0
 13 31  1  0  0  0
 14 15  2  0  0  0
 14 93  1  0  0  0
 15 94  1  0  0  0
 16 17  2  0  0  0
 16 21  1  0  0  0
 16 31  1  0  0  0
 17 18  1  0  0  0
 17 95  1  0  0  0
 18 19  2  0  0  0
 18 96  1  0  0  0
 19 20  1  0  0  0
 19 24  1  0  0  0
 20 21  2  0  0  0
 20 97  1  0  0  0
 21 23  1  0  0  0
 22 28  1  0  0  0
 22 32  2  0  0  0
 26 27  1  0  0  0
 28 98  1  0  0  0
 28 99  1  0  0  0
 29100  1  0  0  0
 29101  1  0  0  0
 33 34  1  0  0  0
 33 66  1  0  0  0
 33 70  2  0  0  0
 34 36  1  0  0  0
 34 59  1  0  0  0
 34102  1  0  0  0
 35 44  2  0  0  0
 35 45  1  0  0  0
 35 68  1  0  0  0
 36 56  1  0  0  0
 36103  1  0  0  0
 37 39  1  0  0  0
 37 47  1  0  0  0
 37 66  1  0  0  0
 37104  1  0  0  0
 38 43  2  0  0  0
 38 46  1  0  0  0
 38 47  1  0  0  0
 39 64  1  0  0  0
 39 67  2  0  0  0
 40 52  1  0  0  0
 40 53  2  0  0  0
 40 58  1  0  0  0
 41105  1  0  0  0
 41106  1  0  0  0
 41107  1  0  0  0
 41 48  1  0  0  0
 42 43  1  0  0  0
 42 66  1  0  0  0
 42108  1  0  0  0
 42109  1  0  0  0
 43 44  1  0  0  0
 44110  1  0  0  0
 45 46  2  0  0  0
 45111  1  0  0  0
 46112  1  0  0  0
 47113  1  0  0  0
 47114  1  0  0  0
 48 56  1  0  0  0
 48 65  1  0  0  0
 48115  1  0  0  0
 49 50  1  0  0  0
 49 53  1  0  0  0
 49 64  1  0  0  0
 49116  1  0  0  0
 50 51  1  0  0  0
 50117  1  0  0  0
 50118  1  0  0  0
 51 52  1  0  0  0
 51119  1  0  0  0
 51120  1  0  0  0
 52121  1  0  0  0
 52122  1  0  0  0
 53 54  1  0  0  0
 54 55  2  0  0  0
 54123  1  0  0  0
 55 57  1  0  0  0
 55124  1  0  0  0
 56 69  2  0  0  0
 57 58  2  0  0  0
 57125  1  0  0  0
 58126  1  0  0  0
 59 60  1  0  0  0
 59 61  1  0  0  0
 59 62  1  0  0  0
 60127  1  0  0  0
 60128  1  0  0  0
 60129  1  0  0  0
 61130  1  0  0  0
 61131  1  0  0  0
 61132  1  0  0  0
 62133  1  0  0  0
 62134  1  0  0  0
 62135  1  0  0  0
 63 65  1  0  0  0
 63136  1  0  0  0
 63137  1  0  0  0
 63138  1  0  0  0
 64139  1  0  0  0
 65140  1  0  0  0
 68 79  1  0  0  0
 71 73  1  0  0  0
 71141  1  0  0  0
 71142  1  0  0  0
 71 76  1  0  0  0
 72 74  1  0  0  0
 72 76  1  0  0  0
 72143  1  0  0  0
 72144  1  0  0  0
 73 79  1  0  0  0
 73145  1  0  0  0
 73146  1  0  0  0
 74 79  1  0  0  0
 74147  1  0  0  0
 74148  1  0  0  0
 75 77  1  0  0  0
 75 81  1  0  0  0
 75149  1  0  0  0
 75150  1  0  0  0
 76 78  1  0  0  0
 76151  1  0  0  0
 77 78  1  0  0  0
 77 80  1  0  0  0
 77152  1  0  0  0
 78 81  1  0  0  0
 78153  1  0  0  0
 79154  1  0  0  0
 80155  1  0  0  0
M  ISO  4   1 100  68 101  79 101  80 100
M  END
> <chiral flag>
0

> <version>
0

> <s_m_source_file>
/data/baiqing/PycharmProjects/Reinvent-master-3.2/result/LINK_invent/BTK/process_docking_weight1_custom_sum_contain_oxygen_bond_distance_aromatic_linkinvent_7_9_3/rearranged_h_0138.sdf

> <i_m_source_file_index>
59

> <r_mmod_Potential_Energy-OPLS-2005>
794.554870605469

> <r_mmod_Stretch_Energy-OPLS-2005>
368.210418701172

> <r_mmod_Bend_Energy-OPLS-2005>
372.147155761719

> <r_mmod_Torsional_Energy-OPLS-2005>
255.341125488281

> <r_mmod_Improper_Torsional_Energy-OPLS-2005>
4.22489643096924

> <r_mmod_Van_der_Waal_Energy-OPLS-2005>
109.919273376465

> <r_mmod_Electrostatic_Energy-OPLS-2005>
-393.470825195312

> <r_mmod_Solvation_Energy-OPLS-2005>
-214.063812255859

> <b_mmod_Minimization_Converged-OPLS-2005>
0

> <r_mmod_RMS_Derivative-OPLS-2005>
1.00263249874115

$$$$
59
                    3D
 Structure written by MMmdl.
159167  0  0  1  0            999 V2000
  -30.6213  -14.6736   20.4540 C   0  0  0  0  0  0
  -30.4297  -12.4016   19.4729 C   0  0  0  0  0  0
  -29.5090  -12.4911   18.2357 C   0  0  0  0  0  0
  -28.0316  -12.3304   18.6448 C   0  0  0  0  0  0
  -27.6464  -13.2217   19.8562 C   0  0  2  0  0  0
  -28.6887  -13.1209   20.9929 C   0  0  0  0  0  0
  -25.2526  -13.8184   20.5686 C   0  0  0  0  0  0
  -24.1801  -13.0443   20.9192 C   0  0  0  0  0  0
  -24.6376  -11.6916   20.8738 C   0  0  0  0  0  0
  -23.9056  -10.4292   21.0402 C   0  0  0  0  0  0
  -24.3609   -9.4204   21.9179 C   0  0  0  0  0  0
  -23.6281   -8.2239   22.0758 C   0  0  0  0  0  0
  -22.4263   -8.0276   21.3547 C   0  0  0  0  0  0
  -21.9895   -9.0253   20.4653 C   0  0  0  0  0  0
  -22.7228  -10.2129   20.3052 C   0  0  0  0  0  0
  -21.6849   -6.0726   22.5274 C   0  0  0  0  0  0
  -21.4020   -6.5633   23.8208 C   0  0  0  0  0  0
  -21.3659   -5.6786   24.9169 C   0  0  0  0  0  0
  -21.6041   -4.3049   24.7221 C   0  0  0  0  0  0
  -21.8821   -3.8139   23.4343 C   0  0  0  0  0  0
  -21.9191   -4.6955   22.3399 C   0  0  0  0  0  0
  -22.7822  -13.5231   21.1848 C   0  0  0  0  0  0
  -22.1659   -4.2143   21.0974 F   0  0  0  0  0  0
  -21.5625   -3.4537   25.7735 F   0  0  0  0  0  0
  -30.0000  -13.4521   20.4211 N   0  0  0  0  0  0
  -26.2949  -12.9376   20.3289 N   0  0  0  0  0  0
  -25.9302  -11.6527   20.5745 N   0  0  0  0  0  0
  -22.0471  -12.8237   22.0417 N   0  0  0  0  0  0
  -25.4230  -15.1906   20.4107 N   0  0  0  0  0  0
  -31.7969  -14.7912   20.0971 O   0  0  0  0  0  0
  -21.6632   -6.8867   21.4235 O   0  0  0  0  0  0
  -22.3505  -14.5528   20.6681 O   0  0  0  0  0  0
  -24.6275  -31.8586   23.2010 C   0  0  0  0  0  0
  -25.9114  -32.4763   23.8343 C   0  0  1  0  0  0
  -27.2238  -27.3019   20.1084 C   0  0  0  0  0  0
  -25.5922  -33.8566   24.2262 N   0  0  0  0  0  0
  -23.4211  -30.4839   21.5444 C   0  0  2  0  0  0
  -24.8649  -28.9346   20.1112 C   0  0  0  0  0  0
  -22.7478  -29.4627   22.4925 C   0  0  0  0  0  0
  -18.0288  -28.1413   22.8481 C   0  0  0  0  0  0
  -24.1494  -36.7291   23.2639 C   0  0  0  0  0  0
  -25.9641  -30.7841   21.3741 C   0  0  0  0  0  0
  -26.0345  -29.4094   20.7149 C   0  0  0  0  0  0
  -27.2119  -28.6046   20.7045 C   0  0  0  0  0  0
  -26.0215  -26.8748   19.4978 C   0  0  0  0  0  0
  -24.8604  -27.6730   19.4982 C   0  0  0  0  0  0
  -23.6364  -29.8213   20.1589 C   0  0  0  0  0  0
  -25.4118  -36.3072   24.0324 C   0  0  1  0  0  0
  -20.5890  -28.3717   23.1283 C   0  0  2  0  0  0
  -20.6779  -26.9441   22.5417 C   0  0  0  0  0  0
  -19.5752  -26.6403   21.5221 C   0  0  0  0  0  0
  -18.1930  -26.7952   22.1631 C   0  0  0  0  0  0
  -19.1543  -28.8880   23.2881 C   0  0  0  0  0  0
  -18.9467  -30.1476   23.8904 C   0  0  0  0  0  0
  -17.6467  -30.6604   24.0575 C   0  0  0  0  0  0
  -25.9059  -34.9439   23.5096 C   0  0  0  0  0  0
  -16.5356  -29.9108   23.6331 C   0  0  0  0  0  0
  -16.7278  -28.6535   23.0335 C   0  0  0  0  0  0
  -26.4488  -31.6579   25.0723 C   0  0  0  0  0  0
  -25.3719  -31.3719   26.1459 C   0  0  0  0  0  0
  -27.0323  -30.2996   24.6185 C   0  0  0  0  0  0
  -27.6051  -32.4311   25.7482 C   0  0  0  0  0  0
  -27.5579  -37.1800   24.8461 C   0  0  0  0  0  0
  -21.4193  -29.3062   22.3668 N   0  0  0  0  0  0
  -26.4284  -37.3774   23.9406 N   0  0  0  0  0  0
  -24.6899  -31.0591   22.0962 N   0  0  0  0  0  0
  -23.4201  -28.8155   23.3002 O   0  0  0  0  0  0
  -28.3660  -26.4818   20.1736 O   0  0  0  0  0  0
  -26.5640  -34.8908   22.4674 O   0  0  0  0  0  0
  -23.5438  -32.1392   23.7334 O   0  0  0  0  0  0
  -31.5595  -22.2081   20.4238 C   0  0  0  0  0  0
  -30.6633  -22.6734   19.2669 C   0  0  0  0  0  0
  -30.6300  -21.4541   21.3903 C   0  0  0  0  0  0
  -29.2257  -22.4585   19.7716 C   0  0  2  0  0  0
  -28.6987  -23.8215   20.4688 C   0  0  0  0  0  0
  -29.4490  -18.4771   20.7687 C   0  0  0  0  0  0
  -30.0852  -17.1783   20.0717 C   0  0  0  0  0  0
  -29.4359  -19.8521   19.9210 C   0  0  0  0  0  0
  -28.4698  -25.1286   19.5603 C   0  0  0  0  0  0
  -29.8340  -15.7900   20.6344 N   0  0  0  0  0  0
  -29.3733  -21.2073   20.6467 N   0  3  1  0  0  0
  -31.4734  -12.5102   19.1742 H   0  0  0  0  0  0
  -30.3587  -11.4191   19.9409 H   0  0  0  0  0  0
  -29.7820  -11.7260   17.5080 H   0  0  0  0  0  0
  -29.6505  -13.4512   17.7370 H   0  0  0  0  0  0
  -27.8710  -11.2800   18.8929 H   0  0  0  0  0  0
  -27.3792  -12.5420   17.7967 H   0  0  0  0  0  0
  -27.6544  -14.2484   19.4902 H   0  0  0  0  0  0
  -28.7027  -12.1143   21.4130 H   0  0  0  0  0  0
  -28.4346  -13.7912   21.8155 H   0  0  0  0  0  0
  -25.2759   -9.5673   22.4747 H   0  0  0  0  0  0
  -23.9991   -7.4624   22.7479 H   0  0  0  0  0  0
  -21.0824   -8.8769   19.8956 H   0  0  0  0  0  0
  -22.3693  -10.9660   19.6149 H   0  0  0  0  0  0
  -21.2027   -7.6144   23.9713 H   0  0  0  0  0  0
  -21.1475   -6.0515   25.9071 H   0  0  0  0  0  0
  -22.0604   -2.7602   23.2842 H   0  0  0  0  0  0
  -22.4082  -11.9893   22.4802 H   0  0  0  0  0  0
  -21.1090  -13.1259   22.2618 H   0  0  0  0  0  0
  -24.6556  -15.8443   20.5270 H   0  0  0  0  0  0
  -26.2644  -15.6286   20.0590 H   0  0  0  0  0  0
  -26.7181  -32.5423   23.1088 H   0  0  0  0  0  0
  -25.0025  -33.9696   25.0380 H   0  0  0  0  0  0
  -22.7162  -31.3062   21.4032 H   0  0  0  0  0  0
  -23.3746  -35.9634   23.3289 H   0  0  0  0  0  0
  -24.3596  -36.8929   22.2059 H   0  0  0  0  0  0
  -23.7254  -37.6487   23.6679 H   0  0  0  0  0  0
  -26.1025  -31.5479   20.6074 H   0  0  0  0  0  0
  -26.8423  -30.8293   22.0062 H   0  0  0  0  0  0
  -28.1111  -28.9685   21.1813 H   0  0  0  0  0  0
  -25.9266  -25.9077   19.0342 H   0  0  0  0  0  0
  -23.9589  -27.2981   19.0325 H   0  0  0  0  0  0
  -23.7650  -30.6014   19.4074 H   0  0  0  0  0  0
  -22.7529  -29.2603   19.8486 H   0  0  0  0  0  0
  -25.1295  -36.1913   25.0811 H   0  0  0  0  0  0
  -20.9997  -28.3308   24.1400 H   0  0  0  0  0  0
  -20.5698  -26.2330   23.3623 H   0  0  0  0  0  0
  -21.6645  -26.7481   22.1203 H   0  0  0  0  0  0
  -19.6910  -25.6313   21.1252 H   0  0  0  0  0  0
  -19.6677  -27.3210   20.6747 H   0  0  0  0  0  0
  -17.4199  -26.6700   21.4029 H   0  0  0  0  0  0
  -18.0327  -26.0106   22.9040 H   0  0  0  0  0  0
  -19.7941  -30.7293   24.2279 H   0  0  0  0  0  0
  -17.5021  -31.6278   24.5188 H   0  0  0  0  0  0
  -15.5361  -30.3014   23.7654 H   0  0  0  0  0  0
  -15.8678  -28.0864   22.7033 H   0  0  0  0  0  0
  -24.5894  -30.7063   25.7795 H   0  0  0  0  0  0
  -24.8908  -32.2884   26.4888 H   0  0  0  0  0  0
  -25.8052  -30.8897   27.0235 H   0  0  0  0  0  0
  -26.2895  -29.6752   24.1211 H   0  0  0  0  0  0
  -27.4015  -29.7246   25.4687 H   0  0  0  0  0  0
  -27.8771  -30.4266   23.9410 H   0  0  0  0  0  0
  -27.2672  -33.3615   26.2060 H   0  0  0  0  0  0
  -28.3860  -32.6873   25.0306 H   0  0  0  0  0  0
  -28.0735  -31.8442   26.5395 H   0  0  0  0  0  0
  -28.2591  -38.0101   24.7518 H   0  0  0  0  0  0
  -28.1076  -36.2636   24.6269 H   0  0  0  0  0  0
  -27.2303  -37.1438   25.8863 H   0  0  0  0  0  0
  -20.9378  -29.8802   21.6887 H   0  0  0  0  0  0
  -26.0154  -38.2838   24.1420 H   0  0  0  0  0  0
  -32.0374  -23.0487   20.9284 H   0  0  0  0  0  0
  -32.3520  -21.5575   20.0518 H   0  0  0  0  0  0
  -30.8378  -22.0486   18.3893 H   0  0  0  0  0  0
  -30.8857  -23.6956   18.9676 H   0  0  0  0  0  0
  -30.4043  -22.0870   22.2496 H   0  0  0  0  0  0
  -31.0963  -20.5522   21.7859 H   0  0  0  0  0  0
  -28.5570  -22.2339   18.9388 H   0  0  0  0  0  0
  -29.3985  -24.0942   21.2583 H   0  0  0  0  0  0
  -27.7591  -23.6065   20.9773 H   0  0  0  0  0  0
  -29.9764  -18.6293   21.7089 H   0  0  0  0  0  0
  -28.4199  -18.2554   21.0546 H   0  0  0  0  0  0
  -31.1629  -17.3322   19.9964 H   0  0  0  0  0  0
  -29.7320  -17.1495   19.0395 H   0  0  0  0  0  0
  -28.5867  -19.8072   19.2379 H   0  0  0  0  0  0
  -30.3156  -19.8580   19.2777 H   0  0  0  0  0  0
  -27.6791  -24.9168   18.8467 H   0  0  0  0  0  0
  -29.3410  -25.2298   18.9163 H   0  0  0  0  0  0
  -28.8890  -15.5983   20.9336 H   0  0  0  0  0  0
  -28.5991  -21.1640   21.2929 H   0  0  0  0  0  0
  1 25  1  0  0  0
  1 30  2  0  0  0
  1 80  1  0  0  0
  2  3  1  0  0  0
  2 25  1  0  0  0
  2 82  1  0  0  0
  2 83  1  0  0  0
  3  4  1  0  0  0
  3 84  1  0  0  0
  3 85  1  0  0  0
  4  5  1  0  0  0
  4 86  1  0  0  0
  4 87  1  0  0  0
  5  6  1  0  0  0
  5 26  1  0  0  0
  5 88  1  0  0  0
  6 25  1  0  0  0
  6 89  1  0  0  0
  6 90  1  0  0  0
  7  8  2  0  0  0
  7 26  1  0  0  0
  7 29  1  0  0  0
  8  9  1  0  0  0
  8 22  1  0  0  0
  9 10  1  0  0  0
  9 27  2  0  0  0
 10 11  2  0  0  0
 10 15  1  0  0  0
 11 12  1  0  0  0
 11 91  1  0  0  0
 12 13  2  0  0  0
 12 92  1  0  0  0
 13 14  1  0  0  0
 13 31  1  0  0  0
 14 15  2  0  0  0
 14 93  1  0  0  0
 15 94  1  0  0  0
 16 17  2  0  0  0
 16 21  1  0  0  0
 16 31  1  0  0  0
 17 18  1  0  0  0
 17 95  1  0  0  0
 18 19  2  0  0  0
 18 96  1  0  0  0
 19 20  1  0  0  0
 19 24  1  0  0  0
 20 21  2  0  0  0
 20 97  1  0  0  0
 21 23  1  0  0  0
 22 28  1  0  0  0
 22 32  2  0  0  0
 26 27  1  0  0  0
 28 98  1  0  0  0
 28 99  1  0  0  0
 29100  1  0  0  0
 29101  1  0  0  0
 33 34  1  0  0  0
 33 66  1  0  0  0
 33 70  2  0  0  0
 34 36  1  0  0  0
 34 59  1  0  0  0
 34102  1  0  0  0
 35 44  2  0  0  0
 35 45  1  0  0  0
 35 68  1  0  0  0
 36 56  1  0  0  0
 36103  1  0  0  0
 37 39  1  0  0  0
 37 47  1  0  0  0
 37 66  1  0  0  0
 37104  1  0  0  0
 38 43  2  0  0  0
 38 46  1  0  0  0
 38 47  1  0  0  0
 39 64  1  0  0  0
 39 67  2  0  0  0
 40 52  1  0  0  0
 40 53  2  0  0  0
 40 58  1  0  0  0
 41105  1  0  0  0
 41106  1  0  0  0
 41107  1  0  0  0
 41 48  1  0  0  0
 42 43  1  0  0  0
 42 66  1  0  0  0
 42108  1  0  0  0
 42109  1  0  0  0
 43 44  1  0  0  0
 44110  1  0  0  0
 45 46  2  0  0  0
 45111  1  0  0  0
 46112  1  0  0  0
 47113  1  0  0  0
 47114  1  0  0  0
 48 56  1  0  0  0
 48 65  1  0  0  0
 48115  1  0  0  0
 49 50  1  0  0  0
 49 53  1  0  0  0
 49 64  1  0  0  0
 49116  1  0  0  0
 50 51  1  0  0  0
 50117  1  0  0  0
 50118  1  0  0  0
 51 52  1  0  0  0
 51119  1  0  0  0
 51120  1  0  0  0
 52121  1  0  0  0
 52122  1  0  0  0
 53 54  1  0  0  0
 54 55  2  0  0  0
 54123  1  0  0  0
 55 57  1  0  0  0
 55124  1  0  0  0
 56 69  2  0  0  0
 57 58  2  0  0  0
 57125  1  0  0  0
 58126  1  0  0  0
 59 60  1  0  0  0
 59 61  1  0  0  0
 59 62  1  0  0  0
 60127  1  0  0  0
 60128  1  0  0  0
 60129  1  0  0  0
 61130  1  0  0  0
 61131  1  0  0  0
 61132  1  0  0  0
 62133  1  0  0  0
 62134  1  0  0  0
 62135  1  0  0  0
 63 65  1  0  0  0
 63136  1  0  0  0
 63137  1  0  0  0
 63138  1  0  0  0
 64139  1  0  0  0
 65140  1  0  0  0
 68 79  1  0  0  0
 71 72  1  0  0  0
 71 73  1  0  0  0
 71141  1  0  0  0
 71142  1  0  0  0
 72 74  1  0  0  0
 72143  1  0  0  0
 72144  1  0  0  0
 73 81  1  0  0  0
 73145  1  0  0  0
 73146  1  0  0  0
 74 75  1  0  0  0
 74 81  1  0  0  0
 74147  1  0  0  0
 75 79  1  0  0  0
 75148  1  0  0  0
 75149  1  0  0  0
 76 77  1  0  0  0
 76 78  1  0  0  0
 76150  1  0  0  0
 76151  1  0  0  0
 77 80  1  0  0  0
 77152  1  0  0  0
 77153  1  0  0  0
 78154  1  0  0  0
 78155  1  0  0  0
 78 81  1  0  0  0
 79156  1  0  0  0
 79157  1  0  0  0
 80158  1  0  0  0
 81159  1  0  0  0
M  CHG  1  81   1
M  ISO  4   1 100  68 101  79 101  80 100
M  END
> <chiral flag>
0

> <version>
0

> <s_m_source_file>
/data/baiqing/PycharmProjects/Reinvent-master-3.2/result/LINK_invent/BTK/process_docking_weight1_custom_sum_contain_oxygen_bond_distance_aromatic_linkinvent_7_9_3/rearranged_h_0138.sdf

> <i_m_source_file_index>
60

> <r_mmod_Potential_Energy-OPLS-2005>
88.1025848388672

> <r_mmod_Stretch_Energy-OPLS-2005>
102.272285461426

> <r_mmod_Bend_Energy-OPLS-2005>
185.425552368164

> <r_mmod_Torsional_Energy-OPLS-2005>
286.099884033203

> <r_mmod_Improper_Torsional_Energy-OPLS-2005>
7.16063117980957

> <r_mmod_Van_der_Waal_Energy-OPLS-2005>
125.454902648926

> <r_mmod_Electrostatic_Energy-OPLS-2005>
-219.803619384766

> <r_mmod_Solvation_Energy-OPLS-2005>
-456.403900146484

> <b_mmod_Minimization_Converged-OPLS-2005>
0

> <r_mmod_RMS_Derivative-OPLS-2005>
1.57747554779053

$$$$
60
                    3D
 Structure written by MMmdl.
147156  0  0  1  0            999 V2000
  -30.2995  -15.5251   20.3219 C   0  0  0  0  0  0
  -30.4470  -12.9832   19.5546 C   0  0  0  0  0  0
  -29.5606  -12.6335   18.3237 C   0  0  0  0  0  0
  -28.1216  -12.2967   18.7505 C   0  0  0  0  0  0
  -27.6055  -13.2912   19.8145 C   0  0  2  0  0  0
  -28.6236  -13.5646   20.9430 C   0  0  0  0  0  0
  -25.2371  -13.8247   20.5772 C   0  0  0  0  0  0
  -24.1737  -13.0420   20.9260 C   0  0  0  0  0  0
  -24.6417  -11.6926   20.8742 C   0  0  0  0  0  0
  -23.9111  -10.4285   21.0391 C   0  0  0  0  0  0
  -24.3649   -9.4202   21.9176 C   0  0  0  0  0  0
  -23.6310   -8.2244   22.0752 C   0  0  0  0  0  0
  -22.4290   -8.0286   21.3545 C   0  0  0  0  0  0
  -21.9935   -9.0260   20.4643 C   0  0  0  0  0  0
  -22.7277  -10.2130   20.3046 C   0  0  0  0  0  0
  -21.6857   -6.0741   22.5280 C   0  0  0  0  0  0
  -21.4017   -6.5642   23.8214 C   0  0  0  0  0  0
  -21.3660   -5.6794   24.9175 C   0  0  0  0  0  0
  -21.6044   -4.3057   24.7224 C   0  0  0  0  0  0
  -21.8819   -3.8150   23.4345 C   0  0  0  0  0  0
  -21.9194   -4.6968   22.3402 C   0  0  0  0  0  0
  -22.7753  -13.5168   21.1912 C   0  0  0  0  0  0
  -22.1663   -4.2154   21.0979 F   0  0  0  0  0  0
  -21.5627   -3.4539   25.7736 F   0  0  0  0  0  0
  -29.8352  -14.1468   20.3263 N   0  0  0  0  0  0
  -26.2808  -12.9550   20.3192 N   0  0  0  0  0  0
  -25.9359  -11.6640   20.5673 N   0  0  0  0  0  0
  -22.0416  -12.8148   22.0466 N   0  0  0  0  0  0
  -25.3983  -15.1988   20.4276 N   0  0  0  0  0  0
  -31.5304  -15.5179   20.1277 O   0  0  0  0  0  0
  -21.6646   -6.8887   21.4243 O   0  0  0  0  0  0
  -22.3430  -14.5473   20.6758 O   0  0  0  0  0  0
  -24.6782  -31.8065   23.1566 C   0  0  0  0  0  0
  -25.9389  -32.4501   23.8092 C   0  0  1  0  0  0
  -27.2285  -26.7670   20.2067 C   0  0  0  0  0  0
  -25.5990  -33.8322   24.1986 N   0  0  0  0  0  0
  -23.5021  -30.4111   21.5091 C   0  0  2  0  0  0
  -24.9599  -28.7654   20.1172 C   0  0  0  0  0  0
  -22.7745  -29.4351   22.4728 C   0  0  0  0  0  0
  -18.0337  -28.1420   22.8461 C   0  0  0  0  0  0
  -24.1493  -36.7166   23.2652 C   0  0  0  0  0  0
  -26.0800  -30.5608   21.4119 C   0  0  0  0  0  0
  -26.1477  -29.1325   20.7611 C   0  0  0  0  0  0
  -27.2705  -28.1595   20.7753 C   0  0  0  0  0  0
  -26.0078  -26.5950   19.5078 C   0  0  0  0  0  0
  -24.9250  -27.5206   19.4675 C   0  0  0  0  0  0
  -23.7531  -29.7130   20.1424 C   0  0  0  0  0  0
  -25.4141  -36.2914   24.0289 C   0  0  1  0  0  0
  -20.5971  -28.3776   23.1153 C   0  0  2  0  0  0
  -20.6804  -26.9441   22.5402 C   0  0  0  0  0  0
  -19.5778  -26.6375   21.5217 C   0  0  0  0  0  0
  -18.1962  -26.7950   22.1623 C   0  0  0  0  0  0
  -19.1603  -28.8922   23.2791 C   0  0  0  0  0  0
  -18.9509  -30.1507   23.8833 C   0  0  0  0  0  0
  -17.6500  -30.6605   24.0554 C   0  0  0  0  0  0
  -25.9117  -34.9303   23.4971 C   0  0  0  0  0  0
  -16.5389  -29.9088   23.6350 C   0  0  0  0  0  0
  -16.7318  -28.6510   23.0367 C   0  0  0  0  0  0
  -26.4587  -31.6508   25.0687 C   0  0  0  0  0  0
  -25.3669  -31.3807   26.1313 C   0  0  0  0  0  0
  -27.0510  -30.2854   24.6538 C   0  0  0  0  0  0
  -27.6047  -32.4353   25.7503 C   0  0  0  0  0  0
  -27.5565  -37.1741   24.8469 C   0  0  0  0  0  0
  -21.4398  -29.3037   22.3482 N   0  0  0  0  0  0
  -26.4271  -37.3668   23.9411 N   0  0  0  0  0  0
  -24.7763  -30.9575   22.0787 N   0  0  0  0  0  0
  -23.4217  -28.7941   23.3042 O   0  0  0  0  0  0
  -28.1921  -25.5694   20.2805 O   0  0  0  0  0  0
  -26.5748  -34.8870   22.4581 O   0  0  0  0  0  0
  -23.5814  -32.1108   23.6556 O   0  0  0  0  0  0
  -29.9028  -20.0240   21.2536 C   0  0  0  0  0  0
  -29.5282  -21.5021   21.1568 C   0  0  0  0  0  0
  -28.1662  -21.0218   19.4198 C   0  0  0  0  0  0
  -29.4413  -18.8938   20.4129 C   0  0  0  0  0  0
  -28.6068  -22.2029   20.2211 C   0  0  0  0  0  0
  -28.5373  -19.5525   19.5173 C   0  0  0  0  0  0
  -28.4905  -17.2058   19.0696 C   0  0  0  0  0  0
  -29.3506  -17.1104   20.3775 C   0  0  1  0  0  0
  -27.8551  -23.8862   20.1374 C   0  0  0  0  0  0
  -27.9420  -18.5471   18.7845 O   0  0  0  0  0  0
  -31.4510  -13.2311   19.2085 H   0  0  0  0  0  0
  -30.5740  -12.1121   20.1996 H   0  0  0  0  0  0
  -29.9932  -11.8012   17.7673 H   0  0  0  0  0  0
  -29.5461  -13.4847   17.6413 H   0  0  0  0  0  0
  -28.1250  -11.2884   19.1666 H   0  0  0  0  0  0
  -27.4571  -12.2715   17.8859 H   0  0  0  0  0  0
  -27.4869  -14.2255   19.2683 H   0  0  0  0  0  0
  -28.8430  -12.6600   21.5124 H   0  0  0  0  0  0
  -28.2099  -14.2802   21.6550 H   0  0  0  0  0  0
  -25.2791   -9.5676   22.4757 H   0  0  0  0  0  0
  -24.0011   -7.4637   22.7478 H   0  0  0  0  0  0
  -21.0863   -8.8788   19.8951 H   0  0  0  0  0  0
  -22.3738  -10.9671   19.6156 H   0  0  0  0  0  0
  -21.2011   -7.6150   23.9720 H   0  0  0  0  0  0
  -21.1481   -6.0522   25.9078 H   0  0  0  0  0  0
  -22.0597   -2.7612   23.2843 H   0  0  0  0  0  0
  -22.4052  -11.9815   22.4848 H   0  0  0  0  0  0
  -21.1028  -13.1152   22.2675 H   0  0  0  0  0  0
  -24.6272  -15.8458   20.5530 H   0  0  0  0  0  0
  -26.2458  -15.6505   20.1154 H   0  0  0  0  0  0
  -26.7468  -32.4994   23.0806 H   0  0  0  0  0  0
  -25.0062  -33.9371   25.0088 H   0  0  0  0  0  0
  -22.8244  -31.2470   21.3238 H   0  0  0  0  0  0
  -23.3770  -35.9479   23.3269 H   0  0  0  0  0  0
  -24.3565  -36.8864   22.2075 H   0  0  0  0  0  0
  -23.7237  -37.6331   23.6746 H   0  0  0  0  0  0
  -26.2759  -31.2895   20.6242 H   0  0  0  0  0  0
  -26.9340  -30.6269   22.0738 H   0  0  0  0  0  0
  -28.1644  -28.4450   21.3119 H   0  0  0  0  0  0
  -25.8489  -25.6506   19.0079 H   0  0  0  0  0  0
  -24.0273  -27.2313   18.9383 H   0  0  0  0  0  0
  -23.9236  -30.4755   19.3814 H   0  0  0  0  0  0
  -22.8596  -29.1763   19.8191 H   0  0  0  0  0  0
  -25.1346  -36.1685   25.0779 H   0  0  0  0  0  0
  -21.0057  -28.3393   24.1276 H   0  0  0  0  0  0
  -20.5668  -26.2401   23.3660 H   0  0  0  0  0  0
  -21.6666  -26.7388   22.1220 H   0  0  0  0  0  0
  -19.6932  -25.6269   21.1289 H   0  0  0  0  0  0
  -19.6716  -27.3150   20.6718 H   0  0  0  0  0  0
  -17.4231  -26.6694   21.4028 H   0  0  0  0  0  0
  -18.0351  -26.0110   22.9036 H   0  0  0  0  0  0
  -19.7984  -30.7344   24.2169 H   0  0  0  0  0  0
  -17.5049  -31.6277   24.5171 H   0  0  0  0  0  0
  -15.5385  -30.2969   23.7710 H   0  0  0  0  0  0
  -15.8720  -28.0807   22.7114 H   0  0  0  0  0  0
  -24.5882  -30.7123   25.7622 H   0  0  0  0  0  0
  -24.8826  -32.3020   26.4556 H   0  0  0  0  0  0
  -25.7865  -30.9100   27.0213 H   0  0  0  0  0  0
  -26.3216  -29.6487   24.1522 H   0  0  0  0  0  0
  -27.3956  -29.7276   25.5256 H   0  0  0  0  0  0
  -27.9187  -30.3998   24.0039 H   0  0  0  0  0  0
  -27.2596  -33.3719   26.1893 H   0  0  0  0  0  0
  -28.3953  -32.6809   25.0400 H   0  0  0  0  0  0
  -28.0605  -31.8605   26.5574 H   0  0  0  0  0  0
  -28.2556  -38.0062   24.7514 H   0  0  0  0  0  0
  -28.1086  -36.2585   24.6295 H   0  0  0  0  0  0
  -27.2280  -37.1377   25.8871 H   0  0  0  0  0  0
  -20.9684  -29.8709   21.6573 H   0  0  0  0  0  0
  -26.0103  -38.2717   24.1424 H   0  0  0  0  0  0
  -30.5462  -19.7591   22.0812 H   0  0  0  0  0  0
  -29.9604  -22.1327   21.9216 H   0  0  0  0  0  0
  -27.4123  -21.2439   18.6779 H   0  0  0  0  0  0
  -27.6741  -16.4869   19.0942 H   0  0  0  0  0  0
  -29.1113  -16.9313   18.2158 H   0  0  0  0  0  0
  -28.6707  -16.9210   21.2080 H   0  0  0  0  0  0
  -27.0154  -23.7758   20.8237 H   0  0  0  0  0  0
  -27.3868  -23.8487   19.1540 H   0  0  0  0  0  0
  1 25  1  0  0  0
  1 30  2  0  0  0
  1 78  1  0  0  0
  2  3  1  0  0  0
  2 25  1  0  0  0
  2 81  1  0  0  0
  2 82  1  0  0  0
  3  4  1  0  0  0
  3 83  1  0  0  0
  3 84  1  0  0  0
  4  5  1  0  0  0
  4 85  1  0  0  0
  4 86  1  0  0  0
  5  6  1  0  0  0
  5 26  1  0  0  0
  5 87  1  0  0  0
  6 25  1  0  0  0
  6 88  1  0  0  0
  6 89  1  0  0  0
  7  8  2  0  0  0
  7 26  1  0  0  0
  7 29  1  0  0  0
  8  9  1  0  0  0
  8 22  1  0  0  0
  9 10  1  0  0  0
  9 27  2  0  0  0
 10 11  2  0  0  0
 10 15  1  0  0  0
 11 12  1  0  0  0
 11 90  1  0  0  0
 12 13  2  0  0  0
 12 91  1  0  0  0
 13 14  1  0  0  0
 13 31  1  0  0  0
 14 15  2  0  0  0
 14 92  1  0  0  0
 15 93  1  0  0  0
 16 17  2  0  0  0
 16 21  1  0  0  0
 16 31  1  0  0  0
 17 18  1  0  0  0
 17 94  1  0  0  0
 18 19  2  0  0  0
 18 95  1  0  0  0
 19 20  1  0  0  0
 19 24  1  0  0  0
 20 21  2  0  0  0
 20 96  1  0  0  0
 21 23  1  0  0  0
 22 28  1  0  0  0
 22 32  2  0  0  0
 26 27  1  0  0  0
 28 97  1  0  0  0
 28 98  1  0  0  0
 29 99  1  0  0  0
 29100  1  0  0  0
 33 34  1  0  0  0
 33 66  1  0  0  0
 33 70  2  0  0  0
 34 36  1  0  0  0
 34 59  1  0  0  0
 34101  1  0  0  0
 35 44  2  0  0  0
 35 45  1  0  0  0
 35 68  1  0  0  0
 36 56  1  0  0  0
 36102  1  0  0  0
 37 39  1  0  0  0
 37 47  1  0  0  0
 37 66  1  0  0  0
 37103  1  0  0  0
 38 43  2  0  0  0
 38 46  1  0  0  0
 38 47  1  0  0  0
 39 64  1  0  0  0
 39 67  2  0  0  0
 40 52  1  0  0  0
 40 53  2  0  0  0
 40 58  1  0  0  0
 41104  1  0  0  0
 41105  1  0  0  0
 41106  1  0  0  0
 41 48  1  0  0  0
 42 43  1  0  0  0
 42 66  1  0  0  0
 42107  1  0  0  0
 42108  1  0  0  0
 43 44  1  0  0  0
 44109  1  0  0  0
 45 46  2  0  0  0
 45110  1  0  0  0
 46111  1  0  0  0
 47112  1  0  0  0
 47113  1  0  0  0
 48 56  1  0  0  0
 48 65  1  0  0  0
 48114  1  0  0  0
 49 50  1  0  0  0
 49 53  1  0  0  0
 49 64  1  0  0  0
 49115  1  0  0  0
 50 51  1  0  0  0
 50116  1  0  0  0
 50117  1  0  0  0
 51 52  1  0  0  0
 51118  1  0  0  0
 51119  1  0  0  0
 52120  1  0  0  0
 52121  1  0  0  0
 53 54  1  0  0  0
 54 55  2  0  0  0
 54122  1  0  0  0
 55 57  1  0  0  0
 55123  1  0  0  0
 56 69  2  0  0  0
 57 58  2  0  0  0
 57124  1  0  0  0
 58125  1  0  0  0
 59 60  1  0  0  0
 59 61  1  0  0  0
 59 62  1  0  0  0
 60126  1  0  0  0
 60127  1  0  0  0
 60128  1  0  0  0
 61129  1  0  0  0
 61130  1  0  0  0
 61131  1  0  0  0
 62132  1  0  0  0
 62133  1  0  0  0
 62134  1  0  0  0
 63 65  1  0  0  0
 63135  1  0  0  0
 63136  1  0  0  0
 63137  1  0  0  0
 64138  1  0  0  0
 65139  1  0  0  0
 68 79  1  0  0  0
 71 72  2  0  0  0
 71 74  1  0  0  0
 71140  1  0  0  0
 72 75  1  0  0  0
 72141  1  0  0  0
 73 75  2  0  0  0
 73 76  1  0  0  0
 73142  1  0  0  0
 74 76  2  0  0  0
 74 78  1  0  0  0
 75 79  1  0  0  0
 76 80  1  0  0  0
 77 78  1  0  0  0
 77 80  1  0  0  0
 77143  1  0  0  0
 77144  1  0  0  0
 78145  1  0  0  0
 79146  1  0  0  0
 79147  1  0  0  0
M  ISO  4   1 100  68 101  78 100  79 101
M  END
> <chiral flag>
0

> <version>
0

> <s_m_source_file>
/data/baiqing/PycharmProjects/Reinvent-master-3.2/result/LINK_invent/BTK/process_docking_weight1_custom_sum_contain_oxygen_bond_distance_aromatic_linkinvent_7_9_3/rearranged_h_0138.sdf

> <i_m_source_file_index>
61

> <r_mmod_Potential_Energy-OPLS-2005>
2126.58569335938

> <r_mmod_Stretch_Energy-OPLS-2005>
812.516723632812

> <r_mmod_Bend_Energy-OPLS-2005>
703.761535644531

> <r_mmod_Torsional_Energy-OPLS-2005>
215.866195678711

> <r_mmod_Improper_Torsional_Energy-OPLS-2005>
9.19887733459473

> <r_mmod_Van_der_Waal_Energy-OPLS-2005>
122.143539428711

> <r_mmod_Electrostatic_Energy-OPLS-2005>
-287.036499023438

> <r_mmod_Solvation_Energy-OPLS-2005>
-209.769943237305

> <b_mmod_Minimization_Converged-OPLS-2005>
0

> <r_mmod_RMS_Derivative-OPLS-2005>
0.347064107656479

$$$$
61
                    3D
 Structure written by MMmdl.
159167  0  0  1  0            999 V2000
  -30.6464  -14.5163   20.5576 C   0  0  0  0  0  0
  -30.4296  -12.3263   19.4407 C   0  0  0  0  0  0
  -29.5058  -12.5211   18.2184 C   0  0  0  0  0  0
  -28.0247  -12.3747   18.6207 C   0  0  0  0  0  0
  -27.6636  -13.2053   19.8818 C   0  0  2  0  0  0
  -28.7000  -12.9888   21.0105 C   0  0  0  0  0  0
  -25.2579  -13.8155   20.5665 C   0  0  0  0  0  0
  -24.1844  -13.0446   20.9173 C   0  0  0  0  0  0
  -24.6389  -11.6906   20.8718 C   0  0  0  0  0  0
  -23.9050  -10.4290   21.0380 C   0  0  0  0  0  0
  -24.3604   -9.4218   21.9166 C   0  0  0  0  0  0
  -23.6288   -8.2258   22.0761 C   0  0  0  0  0  0
  -22.4274   -8.0290   21.3549 C   0  0  0  0  0  0
  -21.9888   -9.0256   20.4641 C   0  0  0  0  0  0
  -22.7215  -10.2137   20.3046 C   0  0  0  0  0  0
  -21.6857   -6.0728   22.5272 C   0  0  0  0  0  0
  -21.4010   -6.5626   23.8200 C   0  0  0  0  0  0
  -21.3670   -5.6775   24.9170 C   0  0  0  0  0  0
  -21.6053   -4.3035   24.7214 C   0  0  0  0  0  0
  -21.8818   -3.8131   23.4329 C   0  0  0  0  0  0
  -21.9198   -4.6958   22.3386 C   0  0  0  0  0  0
  -22.7868  -13.5250   21.1820 C   0  0  0  0  0  0
  -22.1664   -4.2138   21.0974 F   0  0  0  0  0  0
  -21.5643   -3.4537   25.7727 F   0  0  0  0  0  0
  -30.0297  -13.3060   20.4644 N   0  0  0  0  0  0
  -26.3023  -12.9318   20.3361 N   0  0  0  0  0  0
  -25.9318  -11.6478   20.5747 N   0  0  0  0  0  0
  -22.0498  -12.8260   22.0369 N   0  0  0  0  0  0
  -25.4274  -15.1884   20.4124 N   0  0  0  0  0  0
  -31.7728  -14.7313   20.0986 O   0  0  0  0  0  0
  -21.6651   -6.8880   21.4240 O   0  0  0  0  0  0
  -22.3576  -14.5565   20.6658 O   0  0  0  0  0  0
  -24.6207  -31.8643   23.2063 C   0  0  0  0  0  0
  -25.9093  -32.4804   23.8355 C   0  0  1  0  0  0
  -27.2113  -27.3640   20.0932 C   0  0  0  0  0  0
  -25.5927  -33.8599   24.2279 N   0  0  0  0  0  0
  -23.4081  -30.4881   21.5534 C   0  0  2  0  0  0
  -24.8468  -28.9522   20.1077 C   0  0  0  0  0  0
  -22.7439  -29.4620   22.4990 C   0  0  0  0  0  0
  -18.0269  -28.1353   22.8482 C   0  0  0  0  0  0
  -24.1501  -36.7302   23.2640 C   0  0  0  0  0  0
  -25.9461  -30.8058   21.3679 C   0  0  0  0  0  0
  -26.0147  -29.4367   20.7103 C   0  0  0  0  0  0
  -27.2007  -28.6531   20.6947 C   0  0  0  0  0  0
  -26.0223  -26.9217   19.4673 C   0  0  0  0  0  0
  -24.8496  -27.6979   19.4773 C   0  0  0  0  0  0
  -23.6154  -29.8305   20.1629 C   0  0  0  0  0  0
  -25.4123  -36.3088   24.0330 C   0  0  1  0  0  0
  -20.5877  -28.3639   23.1313 C   0  0  2  0  0  0
  -20.6760  -26.9368   22.5409 C   0  0  0  0  0  0
  -19.5752  -26.6385   21.5192 C   0  0  0  0  0  0
  -18.1939  -26.7906   22.1585 C   0  0  0  0  0  0
  -19.1525  -28.8824   23.2897 C   0  0  0  0  0  0
  -18.9442  -30.1428   23.8922 C   0  0  0  0  0  0
  -17.6441  -30.6562   24.0552 C   0  0  0  0  0  0
  -25.9061  -34.9462   23.5104 C   0  0  0  0  0  0
  -16.5331  -29.9068   23.6306 C   0  0  0  0  0  0
  -16.7253  -28.6475   23.0332 C   0  0  0  0  0  0
  -26.4502  -31.6589   25.0705 C   0  0  0  0  0  0
  -25.3735  -31.3704   26.1431 C   0  0  0  0  0  0
  -27.0321  -30.3024   24.6095 C   0  0  0  0  0  0
  -27.6072  -32.4305   25.7479 C   0  0  0  0  0  0
  -27.5584  -37.1810   24.8466 C   0  0  0  0  0  0
  -21.4157  -29.3025   22.3736 N   0  0  0  0  0  0
  -26.4293  -37.3790   23.9413 N   0  0  0  0  0  0
  -24.6778  -31.0667   22.1005 N   0  0  0  0  0  0
  -23.4205  -28.8138   23.3010 O   0  0  0  0  0  0
  -28.3531  -26.5672   20.1366 O   0  0  0  0  0  0
  -26.5614  -34.8933   22.4675 O   0  0  0  0  0  0
  -23.5391  -32.1416   23.7433 O   0  0  0  0  0  0
  -27.5554  -21.4320   20.7428 C   0  0  0  0  0  0
  -27.3723  -19.9674   21.1597 C   0  0  0  0  0  0
  -29.0599  -21.6564   20.9246 C   0  0  2  0  0  0
  -28.6244  -19.2653   20.6106 C   0  0  2  0  0  0
  -29.6546  -22.8224   20.0586 C   0  0  0  0  0  0
  -28.9236  -17.8805   21.2981 C   0  0  0  0  0  0
  -29.3948  -24.3112   20.5044 C   0  0  0  0  0  0
  -29.9784  -16.9520   20.6163 C   0  0  0  0  0  0
  -28.2457  -25.1395   19.8423 C   0  0  0  0  0  0
  -29.8535  -15.5239   20.9864 N   0  0  0  0  0  0
  -29.6830  -20.3122   20.6922 N   0  3  0  0  0  0
  -31.4747  -12.4440   19.1467 H   0  0  0  0  0  0
  -30.3376  -11.3126   19.8339 H   0  0  0  0  0  0
  -29.7549  -11.8039   17.4363 H   0  0  0  0  0  0
  -29.6691  -13.5101   17.7855 H   0  0  0  0  0  0
  -27.8317  -11.3166   18.8041 H   0  0  0  0  0  0
  -27.3794  -12.6626   17.7897 H   0  0  0  0  0  0
  -27.7023  -14.2552   19.5886 H   0  0  0  0  0  0
  -28.6810  -11.9556   21.3595 H   0  0  0  0  0  0
  -28.4520  -13.5924   21.8856 H   0  0  0  0  0  0
  -25.2756   -9.5714   22.4733 H   0  0  0  0  0  0
  -23.9997   -7.4667   22.7485 H   0  0  0  0  0  0
  -21.0820   -8.8762   19.8959 H   0  0  0  0  0  0
  -22.3649  -10.9680   19.6157 H   0  0  0  0  0  0
  -21.1986   -7.6132   23.9696 H   0  0  0  0  0  0
  -21.1509   -6.0510   25.9065 H   0  0  0  0  0  0
  -22.0585   -2.7603   23.2825 H   0  0  0  0  0  0
  -22.4119  -11.9944   22.4784 H   0  0  0  0  0  0
  -21.1115  -13.1301   22.2561 H   0  0  0  0  0  0
  -24.6475  -15.8277   20.5079 H   0  0  0  0  0  0
  -26.2685  -15.6382   20.0769 H   0  0  0  0  0  0
  -26.7159  -32.5488   23.1095 H   0  0  0  0  0  0
  -25.0094  -33.9745   25.0441 H   0  0  0  0  0  0
  -22.6994  -31.3088   21.4206 H   0  0  0  0  0  0
  -23.3750  -35.9636   23.3303 H   0  0  0  0  0  0
  -24.3577  -36.8912   22.2049 H   0  0  0  0  0  0
  -23.7248  -37.6514   23.6647 H   0  0  0  0  0  0
  -26.0675  -31.5699   20.5984 H   0  0  0  0  0  0
  -26.8321  -30.8539   21.9886 H   0  0  0  0  0  0
  -28.1014  -29.0186   21.1691 H   0  0  0  0  0  0
  -25.9699  -25.9687   18.9633 H   0  0  0  0  0  0
  -23.9555  -27.3283   18.9914 H   0  0  0  0  0  0
  -23.7294  -30.6146   19.4114 H   0  0  0  0  0  0
  -22.7329  -29.2620   19.8635 H   0  0  0  0  0  0
  -25.1299  -36.1949   25.0805 H   0  0  0  0  0  0
  -20.9940  -28.3194   24.1451 H   0  0  0  0  0  0
  -20.5606  -26.2248   23.3604 H   0  0  0  0  0  0
  -21.6639  -26.7399   22.1232 H   0  0  0  0  0  0
  -19.6909  -25.6312   21.1188 H   0  0  0  0  0  0
  -19.6701  -27.3214   20.6745 H   0  0  0  0  0  0
  -17.4217  -26.6684   21.3987 H   0  0  0  0  0  0
  -18.0291  -26.0038   22.8939 H   0  0  0  0  0  0
  -19.7929  -30.7233   24.2315 H   0  0  0  0  0  0
  -17.4995  -31.6232   24.5157 H   0  0  0  0  0  0
  -15.5325  -30.2965   23.7638 H   0  0  0  0  0  0
  -15.8641  -28.0791   22.7047 H   0  0  0  0  0  0
  -24.5920  -30.7051   25.7746 H   0  0  0  0  0  0
  -24.8927  -32.2865   26.4865 H   0  0  0  0  0  0
  -25.8069  -30.8870   27.0193 H   0  0  0  0  0  0
  -26.2859  -29.6801   24.1146 H   0  0  0  0  0  0
  -27.4081  -29.7251   25.4548 H   0  0  0  0  0  0
  -27.8701  -30.4338   23.9247 H   0  0  0  0  0  0
  -27.2692  -33.3596   26.2076 H   0  0  0  0  0  0
  -28.3882  -32.6869   25.0309 H   0  0  0  0  0  0
  -28.0737  -31.8407   26.5379 H   0  0  0  0  0  0
  -28.2611  -38.0109   24.7508 H   0  0  0  0  0  0
  -28.1070  -36.2633   24.6290 H   0  0  0  0  0  0
  -27.2295  -37.1464   25.8870 H   0  0  0  0  0  0
  -20.9319  -29.8797   21.7023 H   0  0  0  0  0  0
  -26.0179  -38.2855   24.1414 H   0  0  0  0  0  0
  -26.9574  -22.1242   21.3367 H   0  0  0  0  0  0
  -27.2698  -21.5587   19.6979 H   0  0  0  0  0  0
  -26.4400  -19.5330   20.7948 H   0  0  0  0  0  0
  -27.3600  -19.9054   22.2473 H   0  0  0  0  0  0
  -29.2394  -21.8730   21.9776 H   0  0  0  0  0  0
  -28.4446  -19.0835   19.5493 H   0  0  0  0  0  0
  -29.4062  -22.6843   19.0072 H   0  0  0  0  0  0
  -30.7389  -22.6885   20.0944 H   0  0  0  0  0  0
  -27.9747  -17.3416   21.3043 H   0  0  0  0  0  0
  -29.1773  -18.0096   22.3525 H   0  0  0  0  0  0
  -30.3163  -24.8533   20.2892 H   0  0  0  0  0  0
  -29.2868  -24.3529   21.5884 H   0  0  0  0  0  0
  -30.9860  -17.3097   20.8375 H   0  0  0  0  0  0
  -29.8542  -17.0070   19.5331 H   0  0  0  0  0  0
  -27.2969  -24.7272   20.1948 H   0  0  0  0  0  0
  -28.2655  -25.0075   18.7584 H   0  0  0  0  0  0
  -28.9715  -15.2289   21.3842 H   0  0  0  0  0  0
  -30.2068  -20.3036   19.8313 H   0  0  0  0  0  0
  -30.3193  -20.1077   21.4487 H   0  0  0  0  0  0
  1 25  1  0  0  0
  1 30  2  0  0  0
  1 80  1  0  0  0
  2  3  1  0  0  0
  2 25  1  0  0  0
  2 82  1  0  0  0
  2 83  1  0  0  0
  3  4  1  0  0  0
  3 84  1  0  0  0
  3 85  1  0  0  0
  4  5  1  0  0  0
  4 86  1  0  0  0
  4 87  1  0  0  0
  5  6  1  0  0  0
  5 26  1  0  0  0
  5 88  1  0  0  0
  6 25  1  0  0  0
  6 89  1  0  0  0
  6 90  1  0  0  0
  7  8  2  0  0  0
  7 26  1  0  0  0
  7 29  1  0  0  0
  8  9  1  0  0  0
  8 22  1  0  0  0
  9 10  1  0  0  0
  9 27  2  0  0  0
 10 11  2  0  0  0
 10 15  1  0  0  0
 11 12  1  0  0  0
 11 91  1  0  0  0
 12 13  2  0  0  0
 12 92  1  0  0  0
 13 14  1  0  0  0
 13 31  1  0  0  0
 14 15  2  0  0  0
 14 93  1  0  0  0
 15 94  1  0  0  0
 16 17  2  0  0  0
 16 21  1  0  0  0
 16 31  1  0  0  0
 17 18  1  0  0  0
 17 95  1  0  0  0
 18 19  2  0  0  0
 18 96  1  0  0  0
 19 20  1  0  0  0
 19 24  1  0  0  0
 20 21  2  0  0  0
 20 97  1  0  0  0
 21 23  1  0  0  0
 22 28  1  0  0  0
 22 32  2  0  0  0
 26 27  1  0  0  0
 28 98  1  0  0  0
 28 99  1  0  0  0
 29100  1  0  0  0
 29101  1  0  0  0
 33 34  1  0  0  0
 33 66  1  0  0  0
 33 70  2  0  0  0
 34 36  1  0  0  0
 34 59  1  0  0  0
 34102  1  0  0  0
 35 44  2  0  0  0
 35 45  1  0  0  0
 35 68  1  0  0  0
 36 56  1  0  0  0
 36103  1  0  0  0
 37 39  1  0  0  0
 37 47  1  0  0  0
 37 66  1  0  0  0
 37104  1  0  0  0
 38 43  2  0  0  0
 38 46  1  0  0  0
 38 47  1  0  0  0
 39 64  1  0  0  0
 39 67  2  0  0  0
 40 52  1  0  0  0
 40 53  2  0  0  0
 40 58  1  0  0  0
 41105  1  0  0  0
 41106  1  0  0  0
 41107  1  0  0  0
 41 48  1  0  0  0
 42 43  1  0  0  0
 42 66  1  0  0  0
 42108  1  0  0  0
 42109  1  0  0  0
 43 44  1  0  0  0
 44110  1  0  0  0
 45 46  2  0  0  0
 45111  1  0  0  0
 46112  1  0  0  0
 47113  1  0  0  0
 47114  1  0  0  0
 48 56  1  0  0  0
 48 65  1  0  0  0
 48115  1  0  0  0
 49 50  1  0  0  0
 49 53  1  0  0  0
 49 64  1  0  0  0
 49116  1  0  0  0
 50 51  1  0  0  0
 50117  1  0  0  0
 50118  1  0  0  0
 51 52  1  0  0  0
 51119  1  0  0  0
 51120  1  0  0  0
 52121  1  0  0  0
 52122  1  0  0  0
 53 54  1  0  0  0
 54 55  2  0  0  0
 54123  1  0  0  0
 55 57  1  0  0  0
 55124  1  0  0  0
 56 69  2  0  0  0
 57 58  2  0  0  0
 57125  1  0  0  0
 58126  1  0  0  0
 59 60  1  0  0  0
 59 61  1  0  0  0
 59 62  1  0  0  0
 60127  1  0  0  0
 60128  1  0  0  0
 60129  1  0  0  0
 61130  1  0  0  0
 61131  1  0  0  0
 61132  1  0  0  0
 62133  1  0  0  0
 62134  1  0  0  0
 62135  1  0  0  0
 63 65  1  0  0  0
 63136  1  0  0  0
 63137  1  0  0  0
 63138  1  0  0  0
 64139  1  0  0  0
 65140  1  0  0  0
 68 79  1  0  0  0
 71 72  1  0  0  0
 71 73  1  0  0  0
 71141  1  0  0  0
 71142  1  0  0  0
 72 74  1  0  0  0
 72143  1  0  0  0
 72144  1  0  0  0
 73 75  1  0  0  0
 73 81  1  0  0  0
 73145  1  0  0  0
 74 76  1  0  0  0
 74 81  1  0  0  0
 74146  1  0  0  0
 75 77  1  0  0  0
 75147  1  0  0  0
 75148  1  0  0  0
 76 78  1  0  0  0
 76149  1  0  0  0
 76150  1  0  0  0
 77 79  1  0  0  0
 77151  1  0  0  0
 77152  1  0  0  0
 78 80  1  0  0  0
 78153  1  0  0  0
 78154  1  0  0  0
 79155  1  0  0  0
 79156  1  0  0  0
 80157  1  0  0  0
 81158  1  0  0  0
 81159  1  0  0  0
M  CHG  1  81   1
M  ISO  4   1 100  68 101  79 101  80 100
M  END
> <chiral flag>
0

> <version>
0

> <s_m_source_file>
/data/baiqing/PycharmProjects/Reinvent-master-3.2/result/LINK_invent/BTK/process_docking_weight1_custom_sum_contain_oxygen_bond_distance_aromatic_linkinvent_7_9_3/rearranged_h_0138.sdf

> <i_m_source_file_index>
62

> <r_mmod_Potential_Energy-OPLS-2005>
-93.0598220825195

> <r_mmod_Stretch_Energy-OPLS-2005>
50.1327095031738

> <r_mmod_Bend_Energy-OPLS-2005>
137.573684692383

> <r_mmod_Torsional_Energy-OPLS-2005>
280.938140869141

> <r_mmod_Improper_Torsional_Energy-OPLS-2005>
5.93618679046631

> <r_mmod_Van_der_Waal_Energy-OPLS-2005>
123.313484191895

> <r_mmod_Electrostatic_Energy-OPLS-2005>
-240.881561279297

> <r_mmod_Solvation_Energy-OPLS-2005>
-474.177947998047

> <b_mmod_Minimization_Converged-OPLS-2005>
0

> <r_mmod_RMS_Derivative-OPLS-2005>
4.56574296951294

$$$$
62
                    3D
 Structure written by MMmdl.
160168  0  0  1  0            999 V2000
  -30.6973  -14.4459   20.5907 C   0  0  0  0  0  0
  -30.4290  -12.2935   19.4188 C   0  0  0  0  0  0
  -29.5001  -12.5138   18.2065 C   0  0  0  0  0  0
  -28.0194  -12.3781   18.6152 C   0  0  0  0  0  0
  -27.6697  -13.2032   19.8827 C   0  0  2  0  0  0
  -28.7075  -12.9494   20.9998 C   0  0  0  0  0  0
  -25.2624  -13.8150   20.5669 C   0  0  0  0  0  0
  -24.1865  -13.0437   20.9161 C   0  0  0  0  0  0
  -24.6408  -11.6898   20.8728 C   0  0  0  0  0  0
  -23.9066  -10.4284   21.0405 C   0  0  0  0  0  0
  -24.3613   -9.4198   21.9182 C   0  0  0  0  0  0
  -23.6288   -8.2232   22.0751 C   0  0  0  0  0  0
  -22.4269   -8.0275   21.3538 C   0  0  0  0  0  0
  -21.9906   -9.0254   20.4645 C   0  0  0  0  0  0
  -22.7239  -10.2131   20.3053 C   0  0  0  0  0  0
  -21.6853   -6.0734   22.5273 C   0  0  0  0  0  0
  -21.4014   -6.5638   23.8207 C   0  0  0  0  0  0
  -21.3658   -5.6789   24.9166 C   0  0  0  0  0  0
  -21.6047   -4.3053   24.7218 C   0  0  0  0  0  0
  -21.8823   -3.8146   23.4338 C   0  0  0  0  0  0
  -21.9189   -4.6961   22.3395 C   0  0  0  0  0  0
  -22.7886  -13.5245   21.1834 C   0  0  0  0  0  0
  -22.1661   -4.2147   21.0974 F   0  0  0  0  0  0
  -21.5628   -3.4538   25.7732 F   0  0  0  0  0  0
  -30.0472  -13.2572   20.4622 N   0  0  0  0  0  0
  -26.3071  -12.9315   20.3381 N   0  0  0  0  0  0
  -25.9338  -11.6477   20.5761 N   0  0  0  0  0  0
  -22.0512  -12.8239   22.0387 N   0  0  0  0  0  0
  -25.4375  -15.1866   20.4092 N   0  0  0  0  0  0
  -31.7934  -14.6723   20.0691 O   0  0  0  0  0  0
  -21.6634   -6.8875   21.4235 O   0  0  0  0  0  0
  -22.3574  -14.5553   20.6688 O   0  0  0  0  0  0
  -24.6143  -31.8682   23.2102 C   0  0  0  0  0  0
  -25.9041  -32.4824   23.8394 C   0  0  1  0  0  0
  -27.2445  -27.4395   20.0786 C   0  0  0  0  0  0
  -25.5898  -33.8624   24.2324 N   0  0  0  0  0  0
  -23.4015  -30.4914   21.5512 C   0  0  2  0  0  0
  -24.8477  -28.9566   20.1140 C   0  0  0  0  0  0
  -22.7411  -29.4655   22.4995 C   0  0  0  0  0  0
  -18.0269  -28.1377   22.8494 C   0  0  0  0  0  0
  -24.1487  -36.7318   23.2638 C   0  0  0  0  0  0
  -25.9302  -30.8325   21.3636 C   0  0  0  0  0  0
  -26.0060  -29.4665   20.7106 C   0  0  0  0  0  0
  -27.2003  -28.7114   20.6973 C   0  0  0  0  0  0
  -26.0569  -26.9337   19.4978 C   0  0  0  0  0  0
  -24.8672  -27.6872   19.5114 C   0  0  0  0  0  0
  -23.6101  -29.8247   20.1651 C   0  0  0  0  0  0
  -25.4109  -36.3113   24.0336 C   0  0  1  0  0  0
  -20.5862  -28.3663   23.1326 C   0  0  2  0  0  0
  -20.6764  -26.9401   22.5423 C   0  0  0  0  0  0
  -19.5739  -26.6387   21.5221 C   0  0  0  0  0  0
  -18.1915  -26.7923   22.1631 C   0  0  0  0  0  0
  -19.1519  -28.8836   23.2904 C   0  0  0  0  0  0
  -18.9447  -30.1444   23.8910 C   0  0  0  0  0  0
  -17.6451  -30.6584   24.0568 C   0  0  0  0  0  0
  -25.9036  -34.9478   23.5126 C   0  0  0  0  0  0
  -16.5342  -29.9089   23.6324 C   0  0  0  0  0  0
  -16.7260  -28.6507   23.0343 C   0  0  0  0  0  0
  -26.4469  -31.6604   25.0721 C   0  0  0  0  0  0
  -25.3741  -31.3718   26.1478 C   0  0  0  0  0  0
  -27.0295  -30.3043   24.6095 C   0  0  0  0  0  0
  -27.6036  -32.4334   25.7485 C   0  0  0  0  0  0
  -27.5581  -37.1814   24.8465 C   0  0  0  0  0  0
  -21.4142  -29.3029   22.3734 N   0  0  0  0  0  0
  -26.4296  -37.3796   23.9407 N   0  0  0  0  0  0
  -24.6667  -31.0790   22.0998 N   0  0  0  0  0  0
  -23.4189  -28.8198   23.3032 O   0  0  0  0  0  0
  -28.4357  -26.7380   20.1221 O   0  0  0  0  0  0
  -26.5601  -34.8930   22.4689 O   0  0  0  0  0  0
  -23.5340  -32.1434   23.7501 O   0  0  0  0  0  0
  -28.3737  -18.7077   21.3226 C   0  0  0  0  0  0
  -28.7550  -17.3961   21.6603 C   0  0  0  0  0  0
  -30.5120  -17.4783   19.9830 C   0  0  0  0  0  0
  -29.0327  -19.4085   20.2904 C   0  0  0  0  0  0
  -29.8025  -16.7500   20.9728 C   0  0  0  0  0  0
  -30.1332  -18.8060   19.6331 C   0  0  0  0  0  0
  -31.9389  -19.0245   18.0558 C   0  0  0  0  0  0
  -28.4712  -20.7590   19.8319 C   0  0  0  0  0  0
  -29.3055  -22.0143   20.1820 C   0  0  0  0  0  0
  -29.4387  -24.5035   19.8002 C   0  0  0  0  0  0
  -28.7506  -25.7333   19.1456 C   0  0  0  0  0  0
  -30.0289  -15.3756   21.2974 N   0  0  0  0  0  0
  -28.6229  -23.2603   19.7353 N   0  3  0  0  0  0
  -30.7590  -19.5484   18.6537 O   0  0  0  0  0  0
  -31.4746  -12.3928   19.1215 H   0  0  0  0  0  0
  -30.3280  -11.2749   19.7967 H   0  0  0  0  0  0
  -29.7365  -11.7973   17.4188 H   0  0  0  0  0  0
  -29.6778  -13.5037   17.7821 H   0  0  0  0  0  0
  -27.8213  -11.3214   18.7969 H   0  0  0  0  0  0
  -27.3708  -12.6684   17.7875 H   0  0  0  0  0  0
  -27.7265  -14.2568   19.6075 H   0  0  0  0  0  0
  -28.6756  -11.9049   21.3136 H   0  0  0  0  0  0
  -28.4602  -13.5196   21.8960 H   0  0  0  0  0  0
  -25.2755   -9.5674   22.4760 H   0  0  0  0  0  0
  -23.9993   -7.4627   22.7483 H   0  0  0  0  0  0
  -21.0827   -8.8787   19.8959 H   0  0  0  0  0  0
  -22.3706  -10.9673   19.6163 H   0  0  0  0  0  0
  -21.2012   -7.6148   23.9715 H   0  0  0  0  0  0
  -21.1478   -6.0512   25.9071 H   0  0  0  0  0  0
  -22.0606   -2.7608   23.2836 H   0  0  0  0  0  0
  -22.4107  -11.9890   22.4774 H   0  0  0  0  0  0
  -21.1139  -13.1293   22.2590 H   0  0  0  0  0  0
  -24.6768  -15.8469   20.5248 H   0  0  0  0  0  0
  -26.2972  -15.6223   20.0988 H   0  0  0  0  0  0
  -26.7106  -32.5535   23.1154 H   0  0  0  0  0  0
  -25.0050  -33.9787   25.0470 H   0  0  0  0  0  0
  -22.6890  -31.3072   21.4140 H   0  0  0  0  0  0
  -23.3743  -35.9658   23.3314 H   0  0  0  0  0  0
  -24.3574  -36.8922   22.2049 H   0  0  0  0  0  0
  -23.7251  -37.6531   23.6644 H   0  0  0  0  0  0
  -26.0436  -31.5988   20.5951 H   0  0  0  0  0  0
  -26.8182  -30.8851   21.9822 H   0  0  0  0  0  0
  -28.0941  -29.1050   21.1615 H   0  0  0  0  0  0
  -26.0082  -25.9517   19.0544 H   0  0  0  0  0  0
  -23.9712  -27.2807   19.0633 H   0  0  0  0  0  0
  -23.7200  -30.6019   19.4075 H   0  0  0  0  0  0
  -22.7333  -29.2474   19.8673 H   0  0  0  0  0  0
  -25.1285  -36.1973   25.0828 H   0  0  0  0  0  0
  -20.9947  -28.3227   24.1451 H   0  0  0  0  0  0
  -20.5688  -26.2267   23.3606 H   0  0  0  0  0  0
  -21.6632  -26.7461   22.1201 H   0  0  0  0  0  0
  -19.6902  -25.6304   21.1234 H   0  0  0  0  0  0
  -19.6676  -27.3216   20.6765 H   0  0  0  0  0  0
  -17.4190  -26.6677   21.4025 H   0  0  0  0  0  0
  -18.0308  -26.0063   22.9025 H   0  0  0  0  0  0
  -19.7922  -30.7253   24.2288 H   0  0  0  0  0  0
  -17.5007  -31.6264   24.5171 H   0  0  0  0  0  0
  -15.5343  -30.2998   23.7640 H   0  0  0  0  0  0
  -15.8660  -28.0840   22.7043 H   0  0  0  0  0  0
  -24.5891  -30.7087   25.7825 H   0  0  0  0  0  0
  -24.8962  -32.2885   26.4948 H   0  0  0  0  0  0
  -25.8100  -30.8869   27.0223 H   0  0  0  0  0  0
  -26.2834  -29.6812   24.1148 H   0  0  0  0  0  0
  -27.4061  -29.7267   25.4548 H   0  0  0  0  0  0
  -27.8672  -30.4356   23.9241 H   0  0  0  0  0  0
  -27.2632  -33.3615   26.2093 H   0  0  0  0  0  0
  -28.3827  -32.6939   25.0306 H   0  0  0  0  0  0
  -28.0728  -31.8451   26.5382 H   0  0  0  0  0  0
  -28.2608  -38.0102   24.7502 H   0  0  0  0  0  0
  -28.1064  -36.2632   24.6299 H   0  0  0  0  0  0
  -27.2296  -37.1478   25.8868 H   0  0  0  0  0  0
  -20.9300  -29.8744   21.6952 H   0  0  0  0  0  0
  -26.0184  -38.2876   24.1396 H   0  0  0  0  0  0
  -27.5351  -19.1557   21.8373 H   0  0  0  0  0  0
  -28.2006  -16.8738   22.4279 H   0  0  0  0  0  0
  -31.3281  -17.0001   19.4642 H   0  0  0  0  0  0
  -32.3634  -19.7705   17.3838 H   0  0  0  0  0  0
  -31.7245  -18.1345   17.4635 H   0  0  0  0  0  0
  -32.6997  -18.7876   18.8015 H   0  0  0  0  0  0
  -27.4669  -20.8696   20.2422 H   0  0  0  0  0  0
  -28.3383  -20.7033   18.7508 H   0  0  0  0  0  0
  -30.2835  -21.9449   19.7043 H   0  0  0  0  0  0
  -29.4829  -22.0630   21.2569 H   0  0  0  0  0  0
  -29.7111  -24.7201   20.8341 H   0  0  0  0  0  0
  -30.3753  -24.3184   19.2728 H   0  0  0  0  0  0
  -27.9323  -25.4286   18.4980 H   0  0  0  0  0  0
  -29.4680  -26.2028   18.4715 H   0  0  0  0  0  0
  -29.3088  -14.9690   21.8751 H   0  0  0  0  0  0
  -27.7892  -23.3858   20.2894 H   0  0  0  0  0  0
  -28.3332  -23.1216   18.7793 H   0  0  0  0  0  0
  1 25  1  0  0  0
  1 30  2  0  0  0
  1 82  1  0  0  0
  2  3  1  0  0  0
  2 25  1  0  0  0
  2 85  1  0  0  0
  2 86  1  0  0  0
  3  4  1  0  0  0
  3 87  1  0  0  0
  3 88  1  0  0  0
  4  5  1  0  0  0
  4 89  1  0  0  0
  4 90  1  0  0  0
  5  6  1  0  0  0
  5 26  1  0  0  0
  5 91  1  0  0  0
  6 25  1  0  0  0
  6 92  1  0  0  0
  6 93  1  0  0  0
  7  8  2  0  0  0
  7 26  1  0  0  0
  7 29  1  0  0  0
  8  9  1  0  0  0
  8 22  1  0  0  0
  9 10  1  0  0  0
  9 27  2  0  0  0
 10 11  2  0  0  0
 10 15  1  0  0  0
 11 12  1  0  0  0
 11 94  1  0  0  0
 12 13  2  0  0  0
 12 95  1  0  0  0
 13 14  1  0  0  0
 13 31  1  0  0  0
 14 15  2  0  0  0
 14 96  1  0  0  0
 15 97  1  0  0  0
 16 17  2  0  0  0
 16 21  1  0  0  0
 16 31  1  0  0  0
 17 18  1  0  0  0
 17 98  1  0  0  0
 18 19  2  0  0  0
 18 99  1  0  0  0
 19 20  1  0  0  0
 19 24  1  0  0  0
 20 21  2  0  0  0
 20100  1  0  0  0
 21 23  1  0  0  0
 22 28  1  0  0  0
 22 32  2  0  0  0
 26 27  1  0  0  0
 28101  1  0  0  0
 28102  1  0  0  0
 29103  1  0  0  0
 29104  1  0  0  0
 33 34  1  0  0  0
 33 66  1  0  0  0
 33 70  2  0  0  0
 34 36  1  0  0  0
 34 59  1  0  0  0
 34105  1  0  0  0
 35 44  2  0  0  0
 35 45  1  0  0  0
 35 68  1  0  0  0
 36 56  1  0  0  0
 36106  1  0  0  0
 37 39  1  0  0  0
 37 47  1  0  0  0
 37 66  1  0  0  0
 37107  1  0  0  0
 38 43  2  0  0  0
 38 46  1  0  0  0
 38 47  1  0  0  0
 39 64  1  0  0  0
 39 67  2  0  0  0
 40 52  1  0  0  0
 40 53  2  0  0  0
 40 58  1  0  0  0
 41108  1  0  0  0
 41109  1  0  0  0
 41110  1  0  0  0
 41 48  1  0  0  0
 42 43  1  0  0  0
 42 66  1  0  0  0
 42111  1  0  0  0
 42112  1  0  0  0
 43 44  1  0  0  0
 44113  1  0  0  0
 45 46  2  0  0  0
 45114  1  0  0  0
 46115  1  0  0  0
 47116  1  0  0  0
 47117  1  0  0  0
 48 56  1  0  0  0
 48 65  1  0  0  0
 48118  1  0  0  0
 49 50  1  0  0  0
 49 53  1  0  0  0
 49 64  1  0  0  0
 49119  1  0  0  0
 50 51  1  0  0  0
 50120  1  0  0  0
 50121  1  0  0  0
 51 52  1  0  0  0
 51122  1  0  0  0
 51123  1  0  0  0
 52124  1  0  0  0
 52125  1  0  0  0
 53 54  1  0  0  0
 54 55  2  0  0  0
 54126  1  0  0  0
 55 57  1  0  0  0
 55127  1  0  0  0
 56 69  2  0  0  0
 57 58  2  0  0  0
 57128  1  0  0  0
 58129  1  0  0  0
 59 60  1  0  0  0
 59 61  1  0  0  0
 59 62  1  0  0  0
 60130  1  0  0  0
 60131  1  0  0  0
 60132  1  0  0  0
 61133  1  0  0  0
 61134  1  0  0  0
 61135  1  0  0  0
 62136  1  0  0  0
 62137  1  0  0  0
 62138  1  0  0  0
 63 65  1  0  0  0
 63139  1  0  0  0
 63140  1  0  0  0
 63141  1  0  0  0
 64142  1  0  0  0
 65143  1  0  0  0
 68 81  1  0  0  0
 71 72  2  0  0  0
 71 74  1  0  0  0
 71144  1  0  0  0
 72 75  1  0  0  0
 72145  1  0  0  0
 73 75  2  0  0  0
 73 76  1  0  0  0
 73146  1  0  0  0
 74 76  2  0  0  0
 74 78  1  0  0  0
 75 82  1  0  0  0
 76 84  1  0  0  0
 77 84  1  0  0  0
 77147  1  0  0  0
 77148  1  0  0  0
 77149  1  0  0  0
 78 79  1  0  0  0
 78150  1  0  0  0
 78151  1  0  0  0
 79 83  1  0  0  0
 79152  1  0  0  0
 79153  1  0  0  0
 80 81  1  0  0  0
 80 83  1  0  0  0
 80154  1  0  0  0
 80155  1  0  0  0
 81156  1  0  0  0
 81157  1  0  0  0
 82158  1  0  0  0
 83159  1  0  0  0
 83160  1  0  0  0
M  CHG  1  83   1
M  ISO  4   1 100  68 101  81 101  82 100
M  END
> <chiral flag>
0

> <version>
0

> <s_m_source_file>
/data/baiqing/PycharmProjects/Reinvent-master-3.2/result/LINK_invent/BTK/process_docking_weight1_custom_sum_contain_oxygen_bond_distance_aromatic_linkinvent_7_9_3/rearranged_h_0138.sdf

> <i_m_source_file_index>
63

> <r_mmod_Potential_Energy-OPLS-2005>
-174.462539672852

> <r_mmod_Stretch_Energy-OPLS-2005>
38.8285026550293

> <r_mmod_Bend_Energy-OPLS-2005>
116.405807495117

> <r_mmod_Torsional_Energy-OPLS-2005>
231.389724731445

> <r_mmod_Improper_Torsional_Energy-OPLS-2005>
4.50092458724976

> <r_mmod_Van_der_Waal_Energy-OPLS-2005>
157.125793457031

> <r_mmod_Electrostatic_Energy-OPLS-2005>
-285.513031005859

> <r_mmod_Solvation_Energy-OPLS-2005>
-448.098236083984

> <b_mmod_Minimization_Converged-OPLS-2005>
0

> <r_mmod_RMS_Derivative-OPLS-2005>
1.14426064491272

$$$$
63
                    3D
 Structure written by MMmdl.
170179  0  0  1  0            999 V2000
  -30.6262  -14.7203   20.4735 C   0  0  0  0  0  0
  -30.4352  -12.4476   19.4524 C   0  0  0  0  0  0
  -29.5025  -12.4980   18.2227 C   0  0  0  0  0  0
  -28.0318  -12.3180   18.6483 C   0  0  0  0  0  0
  -27.6423  -13.2254   19.8450 C   0  0  2  0  0  0
  -28.6914  -13.1560   20.9744 C   0  0  0  0  0  0
  -25.2534  -13.8195   20.5703 C   0  0  0  0  0  0
  -24.1815  -13.0448   20.9216 C   0  0  0  0  0  0
  -24.6388  -11.6924   20.8755 C   0  0  0  0  0  0
  -23.9066  -10.4297   21.0410 C   0  0  0  0  0  0
  -24.3617   -9.4206   21.9182 C   0  0  0  0  0  0
  -23.6289   -8.2239   22.0752 C   0  0  0  0  0  0
  -22.4275   -8.0280   21.3545 C   0  0  0  0  0  0
  -21.9912   -9.0251   20.4645 C   0  0  0  0  0  0
  -22.7242  -10.2131   20.3048 C   0  0  0  0  0  0
  -21.6859   -6.0736   22.5282 C   0  0  0  0  0  0
  -21.4008   -6.5632   23.8213 C   0  0  0  0  0  0
  -21.3652   -5.6789   24.9178 C   0  0  0  0  0  0
  -21.6047   -4.3051   24.7232 C   0  0  0  0  0  0
  -21.8818   -3.8141   23.4352 C   0  0  0  0  0  0
  -21.9193   -4.6965   22.3411 C   0  0  0  0  0  0
  -22.7832  -13.5224   21.1877 C   0  0  0  0  0  0
  -22.1665   -4.2142   21.0995 F   0  0  0  0  0  0
  -21.5631   -3.4535   25.7742 F   0  0  0  0  0  0
  -29.9908  -13.5047   20.3859 N   0  0  0  0  0  0
  -26.2943  -12.9386   20.3274 N   0  0  0  0  0  0
  -25.9315  -11.6540   20.5749 N   0  0  0  0  0  0
  -22.0476  -12.8205   22.0426 N   0  0  0  0  0  0
  -25.4237  -15.1910   20.4118 N   0  0  0  0  0  0
  -31.8215  -14.8187   20.1855 O   0  0  0  0  0  0
  -21.6640   -6.8876   21.4240 O   0  0  0  0  0  0
  -22.3518  -14.5538   20.6738 O   0  0  0  0  0  0
  -24.6291  -31.8575   23.1976 C   0  0  0  0  0  0
  -25.9112  -32.4768   23.8324 C   0  0  1  0  0  0
  -27.2263  -27.2882   20.1349 C   0  0  0  0  0  0
  -25.5936  -33.8569   24.2257 N   0  0  0  0  0  0
  -23.4260  -30.4771   21.5396 C   0  0  2  0  0  0
  -24.8740  -28.9222   20.1143 C   0  0  0  0  0  0
  -22.7499  -29.4605   22.4909 C   0  0  0  0  0  0
  -18.0299  -28.1397   22.8519 C   0  0  0  0  0  0
  -24.1486  -36.7260   23.2643 C   0  0  0  0  0  0
  -25.9675  -30.7810   21.3693 C   0  0  0  0  0  0
  -26.0441  -29.4024   20.7184 C   0  0  0  0  0  0
  -27.2276  -28.5993   20.7138 C   0  0  0  0  0  0
  -26.0359  -26.8653   19.5097 C   0  0  0  0  0  0
  -24.8722  -27.6600   19.4993 C   0  0  0  0  0  0
  -23.6432  -29.8056   20.1569 C   0  0  0  0  0  0
  -25.4111  -36.3067   24.0344 C   0  0  1  0  0  0
  -20.5922  -28.3687   23.1282 C   0  0  2  0  0  0
  -20.6785  -26.9403   22.5419 C   0  0  0  0  0  0
  -19.5758  -26.6400   21.5220 C   0  0  0  0  0  0
  -18.1937  -26.7947   22.1635 C   0  0  0  0  0  0
  -19.1561  -28.8859   23.2903 C   0  0  0  0  0  0
  -18.9476  -30.1464   23.8903 C   0  0  0  0  0  0
  -17.6478  -30.6596   24.0569 C   0  0  0  0  0  0
  -25.9072  -34.9449   23.5108 C   0  0  0  0  0  0
  -16.5361  -29.9093   23.6344 C   0  0  0  0  0  0
  -16.7293  -28.6514   23.0362 C   0  0  0  0  0  0
  -26.4497  -31.6591   25.0702 C   0  0  0  0  0  0
  -25.3730  -31.3735   26.1433 C   0  0  0  0  0  0
  -27.0339  -30.3026   24.6146 C   0  0  0  0  0  0
  -27.6058  -32.4322   25.7466 C   0  0  0  0  0  0
  -27.5576  -37.1772   24.8466 C   0  0  0  0  0  0
  -21.4216  -29.3029   22.3646 N   0  0  0  0  0  0
  -26.4278  -37.3776   23.9446 N   0  0  0  0  0  0
  -24.6930  -31.0566   22.0921 N   0  0  0  0  0  0
  -23.4207  -28.8161   23.3016 O   0  0  0  0  0  0
  -28.3316  -26.4154   20.1352 O   0  0  0  0  0  0
  -26.5621  -34.8933   22.4660 O   0  0  0  0  0  0
  -23.5445  -32.1361   23.7303 O   0  0  0  0  0  0
  -30.2570  -21.5743   18.8440 C   0  0  0  0  0  0
  -28.9491  -22.4838   20.6691 C   0  0  0  0  0  0
  -29.4987  -23.9166   18.7802 C   0  0  0  0  0  0
  -29.6843  -21.3570   20.1166 C   0  0  0  0  0  0
  -30.1736  -22.8254   18.1897 C   0  0  0  0  0  0
  -28.8742  -23.7876   20.0354 C   0  0  0  0  0  0
  -30.6169  -18.7878   23.0686 C   0  0  0  0  0  0
  -30.0429  -17.4634   22.5495 C   0  0  0  0  0  0
  -29.5978  -18.5544   20.3248 C   0  0  0  0  0  0
  -30.0887  -19.9996   20.8651 C   0  0  2  0  0  0
  -30.0166  -20.0624   22.4210 C   0  0  2  0  0  0
  -30.2758  -17.2740   21.0417 C   0  0  2  0  0  0
  -30.8508  -23.0089   16.8455 C   0  0  0  0  0  0
  -30.7618  -22.6376   24.9805 C   0  0  0  0  0  0
  -28.1268  -25.0333   20.6668 C   0  0  0  0  0  0
  -30.7520  -21.2753   23.0485 C   0  0  0  0  0  0
  -29.8550  -15.8468   20.7012 N   0  0  0  0  0  0
  -30.3187  -21.4234   24.3944 O   0  0  0  0  0  0
  -31.4709  -12.5842   19.1368 H   0  0  0  0  0  0
  -30.3940  -11.4701   19.9349 H   0  0  0  0  0  0
  -29.7815  -11.7246   17.5049 H   0  0  0  0  0  0
  -29.6212  -13.4523   17.7071 H   0  0  0  0  0  0
  -27.8964  -11.2714   18.9230 H   0  0  0  0  0  0
  -27.3673  -12.4984   17.8028 H   0  0  0  0  0  0
  -27.6367  -14.2449   19.4587 H   0  0  0  0  0  0
  -28.7267  -12.1569   21.4111 H   0  0  0  0  0  0
  -28.4298  -13.8375   21.7854 H   0  0  0  0  0  0
  -25.2760   -9.5688   22.4760 H   0  0  0  0  0  0
  -24.0004   -7.4626   22.7466 H   0  0  0  0  0  0
  -21.0848   -8.8761   19.8943 H   0  0  0  0  0  0
  -22.3692  -10.9667   19.6153 H   0  0  0  0  0  0
  -21.1982   -7.6136   23.9718 H   0  0  0  0  0  0
  -21.1479   -6.0517   25.9084 H   0  0  0  0  0  0
  -22.0598   -2.7601   23.2859 H   0  0  0  0  0  0
  -22.4088  -11.9843   22.4776 H   0  0  0  0  0  0
  -21.1086  -13.1218   22.2624 H   0  0  0  0  0  0
  -24.6562  -15.8458   20.5169 H   0  0  0  0  0  0
  -26.2709  -15.6296   20.0746 H   0  0  0  0  0  0
  -26.7172  -32.5436   23.1063 H   0  0  0  0  0  0
  -25.0109  -33.9709   25.0424 H   0  0  0  0  0  0
  -22.7228  -31.2995   21.3920 H   0  0  0  0  0  0
  -23.3777  -35.9554   23.3289 H   0  0  0  0  0  0
  -24.3590  -36.8893   22.2060 H   0  0  0  0  0  0
  -23.7195  -37.6444   23.6668 H   0  0  0  0  0  0
  -26.1029  -31.5399   20.5972 H   0  0  0  0  0  0
  -26.8453  -30.8340   22.0008 H   0  0  0  0  0  0
  -28.1275  -28.9674   21.1851 H   0  0  0  0  0  0
  -25.9975  -25.8965   19.0306 H   0  0  0  0  0  0
  -23.9773  -27.2839   19.0233 H   0  0  0  0  0  0
  -23.7616  -30.5793   19.3973 H   0  0  0  0  0  0
  -22.7639  -29.2332   19.8566 H   0  0  0  0  0  0
  -25.1286  -36.1904   25.0833 H   0  0  0  0  0  0
  -21.0031  -28.3247   24.1401 H   0  0  0  0  0  0
  -20.5680  -26.2290   23.3624 H   0  0  0  0  0  0
  -21.6649  -26.7425   22.1192 H   0  0  0  0  0  0
  -19.6905  -25.6314   21.1239 H   0  0  0  0  0  0
  -19.6705  -27.3219   20.6761 H   0  0  0  0  0  0
  -17.4220  -26.6750   21.4024 H   0  0  0  0  0  0
  -18.0304  -26.0079   22.9015 H   0  0  0  0  0  0
  -19.7943  -30.7300   24.2264 H   0  0  0  0  0  0
  -17.5021  -31.6262   24.5174 H   0  0  0  0  0  0
  -15.5360  -30.2981   23.7667 H   0  0  0  0  0  0
  -15.8711  -28.0829   22.7051 H   0  0  0  0  0  0
  -24.5908  -30.7077   25.7774 H   0  0  0  0  0  0
  -24.8906  -32.2901   26.4830 H   0  0  0  0  0  0
  -25.8052  -30.8944   27.0226 H   0  0  0  0  0  0
  -26.2894  -29.6785   24.1188 H   0  0  0  0  0  0
  -27.4078  -29.7283   25.4628 H   0  0  0  0  0  0
  -27.8761  -30.4349   23.9348 H   0  0  0  0  0  0
  -27.2682  -33.3662   26.1968 H   0  0  0  0  0  0
  -28.3892  -32.6804   25.0295 H   0  0  0  0  0  0
  -28.0689  -31.8486   26.5430 H   0  0  0  0  0  0
  -28.2558  -38.0104   24.7558 H   0  0  0  0  0  0
  -28.1097  -36.2634   24.6213 H   0  0  0  0  0  0
  -27.2321  -37.1320   25.8875 H   0  0  0  0  0  0
  -20.9379  -29.8762   21.6877 H   0  0  0  0  0  0
  -26.0151  -38.2845   24.1474 H   0  0  0  0  0  0
  -30.8251  -20.7789   18.3824 H   0  0  0  0  0  0
  -28.4846  -22.3748   21.6394 H   0  0  0  0  0  0
  -29.4633  -24.8688   18.2681 H   0  0  0  0  0  0
  -31.6981  -18.7760   22.9203 H   0  0  0  0  0  0
  -30.4666  -18.8299   24.1490 H   0  0  0  0  0  0
  -28.9764  -17.4182   22.7754 H   0  0  0  0  0  0
  -30.5071  -16.6472   23.1060 H   0  0  0  0  0  0
  -29.7898  -18.4923   19.2537 H   0  0  0  0  0  0
  -28.5153  -18.4968   20.4353 H   0  0  0  0  0  0
  -31.1628  -19.9686   20.6740 H   0  0  0  0  0  0
  -28.9602  -20.1347   22.6842 H   0  0  0  0  0  0
  -31.3500  -17.3361   20.8569 H   0  0  0  0  0  0
  -31.7676  -22.4205   16.7862 H   0  0  0  0  0  0
  -31.1184  -24.0525   16.6761 H   0  0  0  0  0  0
  -30.1860  -22.6938   16.0411 H   0  0  0  0  0  0
  -30.4523  -22.6770   26.0251 H   0  0  0  0  0  0
  -30.3234  -23.4980   24.4721 H   0  0  0  0  0  0
  -31.8486  -22.7240   24.9434 H   0  0  0  0  0  0
  -28.4487  -25.0724   21.7085 H   0  0  0  0  0  0
  -27.0687  -24.7779   20.7163 H   0  0  0  0  0  0
  -30.5790  -22.2082   22.5219 H   0  0  0  0  0  0
  -31.8335  -21.1284   23.0192 H   0  0  0  0  0  0
  -28.8699  -15.6559   20.7960 H   0  0  0  0  0  0
  1 25  1  0  0  0
  1 30  2  0  0  0
  1 87  1  0  0  0
  2  3  1  0  0  0
  2 25  1  0  0  0
  2 89  1  0  0  0
  2 90  1  0  0  0
  3  4  1  0  0  0
  3 91  1  0  0  0
  3 92  1  0  0  0
  4  5  1  0  0  0
  4 93  1  0  0  0
  4 94  1  0  0  0
  5  6  1  0  0  0
  5 26  1  0  0  0
  5 95  1  0  0  0
  6 25  1  0  0  0
  6 96  1  0  0  0
  6 97  1  0  0  0
  7  8  2  0  0  0
  7 26  1  0  0  0
  7 29  1  0  0  0
  8  9  1  0  0  0
  8 22  1  0  0  0
  9 10  1  0  0  0
  9 27  2  0  0  0
 10 11  2  0  0  0
 10 15  1  0  0  0
 11 12  1  0  0  0
 11 98  1  0  0  0
 12 13  2  0  0  0
 12 99  1  0  0  0
 13 14  1  0  0  0
 13 31  1  0  0  0
 14 15  2  0  0  0
 14100  1  0  0  0
 15101  1  0  0  0
 16 17  2  0  0  0
 16 21  1  0  0  0
 16 31  1  0  0  0
 17 18  1  0  0  0
 17102  1  0  0  0
 18 19  2  0  0  0
 18103  1  0  0  0
 19 20  1  0  0  0
 19 24  1  0  0  0
 20 21  2  0  0  0
 20104  1  0  0  0
 21 23  1  0  0  0
 22 28  1  0  0  0
 22 32  2  0  0  0
 26 27  1  0  0  0
 28105  1  0  0  0
 28106  1  0  0  0
 29107  1  0  0  0
 29108  1  0  0  0
 33 34  1  0  0  0
 33 66  1  0  0  0
 33 70  2  0  0  0
 34 36  1  0  0  0
 34 59  1  0  0  0
 34109  1  0  0  0
 35 44  2  0  0  0
 35 45  1  0  0  0
 35 68  1  0  0  0
 36 56  1  0  0  0
 36110  1  0  0  0
 37 39  1  0  0  0
 37 47  1  0  0  0
 37 66  1  0  0  0
 37111  1  0  0  0
 38 43  2  0  0  0
 38 46  1  0  0  0
 38 47  1  0  0  0
 39 64  1  0  0  0
 39 67  2  0  0  0
 40 52  1  0  0  0
 40 53  2  0  0  0
 40 58  1  0  0  0
 41112  1  0  0  0
 41113  1  0  0  0
 41114  1  0  0  0
 41 48  1  0  0  0
 42 43  1  0  0  0
 42 66  1  0  0  0
 42115  1  0  0  0
 42116  1  0  0  0
 43 44  1  0  0  0
 44117  1  0  0  0
 45 46  2  0  0  0
 45118  1  0  0  0
 46119  1  0  0  0
 47120  1  0  0  0
 47121  1  0  0  0
 48 56  1  0  0  0
 48 65  1  0  0  0
 48122  1  0  0  0
 49 50  1  0  0  0
 49 53  1  0  0  0
 49 64  1  0  0  0
 49123  1  0  0  0
 50 51  1  0  0  0
 50124  1  0  0  0
 50125  1  0  0  0
 51 52  1  0  0  0
 51126  1  0  0  0
 51127  1  0  0  0
 52128  1  0  0  0
 52129  1  0  0  0
 53 54  1  0  0  0
 54 55  2  0  0  0
 54130  1  0  0  0
 55 57  1  0  0  0
 55131  1  0  0  0
 56 69  2  0  0  0
 57 58  2  0  0  0
 57132  1  0  0  0
 58133  1  0  0  0
 59 60  1  0  0  0
 59 61  1  0  0  0
 59 62  1  0  0  0
 60134  1  0  0  0
 60135  1  0  0  0
 60136  1  0  0  0
 61137  1  0  0  0
 61138  1  0  0  0
 61139  1  0  0  0
 62140  1  0  0  0
 62141  1  0  0  0
 62142  1  0  0  0
 63 65  1  0  0  0
 63143  1  0  0  0
 63144  1  0  0  0
 63145  1  0  0  0
 64146  1  0  0  0
 65147  1  0  0  0
 68 85  1  0  0  0
 71 74  2  0  0  0
 71 75  1  0  0  0
 71148  1  0  0  0
 72 74  1  0  0  0
 72 76  2  0  0  0
 72149  1  0  0  0
 73 75  2  0  0  0
 73 76  1  0  0  0
 73150  1  0  0  0
 74 80  1  0  0  0
 75 83  1  0  0  0
 76 85  1  0  0  0
 77 78  1  0  0  0
 77 81  1  0  0  0
 77151  1  0  0  0
 77152  1  0  0  0
 78 82  1  0  0  0
 78153  1  0  0  0
 78154  1  0  0  0
 79 80  1  0  0  0
 79 82  1  0  0  0
 79155  1  0  0  0
 79156  1  0  0  0
 80 81  1  0  0  0
 80157  1  0  0  0
 81 86  1  0  0  0
 81158  1  0  0  0
 82 87  1  0  0  0
 82159  1  0  0  0
 83160  1  0  0  0
 83161  1  0  0  0
 83162  1  0  0  0
 84 88  1  0  0  0
 84163  1  0  0  0
 84164  1  0  0  0
 84165  1  0  0  0
 85166  1  0  0  0
 85167  1  0  0  0
 86 88  1  0  0  0
 86168  1  0  0  0
 86169  1  0  0  0
 87170  1  0  0  0
M  ISO  4   1 100  68 101  85 101  87 100
M  END
> <chiral flag>
0

> <version>
0

> <s_m_source_file>
/data/baiqing/PycharmProjects/Reinvent-master-3.2/result/LINK_invent/BTK/process_docking_weight1_custom_sum_contain_oxygen_bond_distance_aromatic_linkinvent_7_9_3/rearranged_h_0138.sdf

> <i_m_source_file_index>
64

> <r_mmod_Potential_Energy-OPLS-2005>
191.794357299805

> <r_mmod_Stretch_Energy-OPLS-2005>
113.686111450195

> <r_mmod_Bend_Energy-OPLS-2005>
163.774703979492

> <r_mmod_Torsional_Energy-OPLS-2005>
256.497497558594

> <r_mmod_Improper_Torsional_Energy-OPLS-2005>
5.23186874389648

> <r_mmod_Van_der_Waal_Energy-OPLS-2005>
142.228485107422

> <r_mmod_Electrostatic_Energy-OPLS-2005>
-358.554718017578

> <r_mmod_Solvation_Energy-OPLS-2005>
-204.157958984375

> <b_mmod_Minimization_Converged-OPLS-2005>
0

> <r_mmod_RMS_Derivative-OPLS-2005>
2.49176645278931

$$$$
64
                    3D
 Structure written by MMmdl.
156165  0  0  1  0            999 V2000
  -30.4762  -15.1914   20.3798 C   0  0  0  0  0  0
  -30.4374  -12.7579   19.5174 C   0  0  0  0  0  0
  -29.5302  -12.5634   18.2780 C   0  0  0  0  0  0
  -28.0752  -12.3028   18.7052 C   0  0  0  0  0  0
  -27.6144  -13.2705   19.8244 C   0  0  2  0  0  0
  -28.6520  -13.4187   20.9577 C   0  0  0  0  0  0
  -25.2401  -13.8243   20.5744 C   0  0  0  0  0  0
  -24.1748  -13.0437   20.9257 C   0  0  0  0  0  0
  -24.6398  -11.6933   20.8764 C   0  0  0  0  0  0
  -23.9092  -10.4293   21.0409 C   0  0  0  0  0  0
  -24.3636   -9.4206   21.9187 C   0  0  0  0  0  0
  -23.6305   -8.2244   22.0755 C   0  0  0  0  0  0
  -22.4286   -8.0284   21.3546 C   0  0  0  0  0  0
  -21.9928   -9.0259   20.4646 C   0  0  0  0  0  0
  -22.7263  -10.2135   20.3056 C   0  0  0  0  0  0
  -21.6856   -6.0740   22.5280 C   0  0  0  0  0  0
  -21.4016   -6.5643   23.8214 C   0  0  0  0  0  0
  -21.3659   -5.6794   24.9175 C   0  0  0  0  0  0
  -21.6042   -4.3056   24.7225 C   0  0  0  0  0  0
  -21.8819   -3.8150   23.4345 C   0  0  0  0  0  0
  -21.9193   -4.6967   22.3402 C   0  0  0  0  0  0
  -22.7766  -13.5193   21.1903 C   0  0  0  0  0  0
  -22.1662   -4.2152   21.0979 F   0  0  0  0  0  0
  -21.5627   -3.4540   25.7737 F   0  0  0  0  0  0
  -29.8932  -13.9007   20.3326 N   0  0  0  0  0  0
  -26.2828  -12.9512   20.3225 N   0  0  0  0  0  0
  -25.9334  -11.6621   20.5727 N   0  0  0  0  0  0
  -22.0422  -12.8172   22.0454 N   0  0  0  0  0  0
  -25.4033  -15.1975   20.4177 N   0  0  0  0  0  0
  -31.6960  -15.1905   20.1681 O   0  0  0  0  0  0
  -21.6644   -6.8884   21.4242 O   0  0  0  0  0  0
  -22.3446  -14.5496   20.6745 O   0  0  0  0  0  0
  -24.6600  -31.8283   23.1755 C   0  0  0  0  0  0
  -25.9297  -32.4614   23.8202 C   0  0  1  0  0  0
  -27.2131  -26.9665   20.1721 C   0  0  0  0  0  0
  -25.5981  -33.8427   24.2106 N   0  0  0  0  0  0
  -23.4725  -30.4439   21.5245 C   0  0  2  0  0  0
  -24.9249  -28.8443   20.1114 C   0  0  0  0  0  0
  -22.7655  -29.4468   22.4795 C   0  0  0  0  0  0
  -18.0320  -28.1408   22.8470 C   0  0  0  0  0  0
  -24.1492  -36.7216   23.2644 C   0  0  0  0  0  0
  -26.0414  -30.6473   21.4017 C   0  0  0  0  0  0
  -26.1097  -29.2425   20.7434 C   0  0  0  0  0  0
  -27.2508  -28.3244   20.7518 C   0  0  0  0  0  0
  -25.9990  -26.7202   19.4888 C   0  0  0  0  0  0
  -24.8932  -27.6020   19.4646 C   0  0  0  0  0  0
  -23.7101  -29.7671   20.1483 C   0  0  0  0  0  0
  -25.4132  -36.2982   24.0302 C   0  0  1  0  0  0
  -20.5944  -28.3750   23.1195 C   0  0  2  0  0  0
  -20.6800  -26.9436   22.5399 C   0  0  0  0  0  0
  -19.5770  -26.6379   21.5214 C   0  0  0  0  0  0
  -18.1954  -26.7942   22.1625 C   0  0  0  0  0  0
  -19.1581  -28.8900   23.2820 C   0  0  0  0  0  0
  -18.9492  -30.1490   23.8854 C   0  0  0  0  0  0
  -17.6486  -30.6599   24.0556 C   0  0  0  0  0  0
  -25.9096  -34.9363   23.5022 C   0  0  0  0  0  0
  -16.5376  -29.9087   23.6342 C   0  0  0  0  0  0
  -16.7302  -28.6506   23.0363 C   0  0  0  0  0  0
  -26.4558  -31.6544   25.0714 C   0  0  0  0  0  0
  -25.3692  -31.3788   26.1375 C   0  0  0  0  0  0
  -27.0444  -30.2913   24.6425 C   0  0  0  0  0  0
  -27.6057  -32.4344   25.7513 C   0  0  0  0  0  0
  -27.5572  -37.1765   24.8464 C   0  0  0  0  0  0
  -21.4327  -29.3049   22.3548 N   0  0  0  0  0  0
  -26.4278  -37.3716   23.9411 N   0  0  0  0  0  0
  -24.7458  -30.9985   22.0876 N   0  0  0  0  0  0
  -23.4222  -28.8023   23.3010 O   0  0  0  0  0  0
  -28.1983  -25.8552   20.2502 O   0  0  0  0  0  0
  -26.5698  -34.8889   22.4612 O   0  0  0  0  0  0
  -23.5677  -32.1233   23.6871 O   0  0  0  0  0  0
  -27.9535  -21.5652   19.4222 C   0  0  0  0  0  0
  -29.9203  -20.8171   21.0747 C   0  0  0  0  0  0
  -29.4187  -19.6312   20.3606 C   0  0  0  0  0  0
  -28.3697  -20.1417   19.4978 C   0  0  0  0  0  0
  -28.4942  -22.7088   20.1503 C   0  0  0  0  0  0
  -25.9269  -19.9488   17.0308 C   0  0  0  0  0  0
  -25.7106  -18.4787   17.3079 C   0  0  0  0  0  0
  -26.3365  -19.3611   18.3607 C   0  0  0  0  0  0
  -30.1652  -18.0554   20.4268 C   0  0  0  0  0  0
  -27.7795  -24.2940   20.0538 C   0  0  0  0  0  0
  -29.4848  -22.1771   20.9736 N   0  3  0  0  0  0
  -27.7478  -19.1930   18.6716 N   0  0  0  0  0  0
  -29.7337  -16.4611   20.4609 N   0  0  0  0  0  0
  -31.4605  -12.9468   19.1896 H   0  0  0  0  0  0
  -30.4846  -11.8436   20.1114 H   0  0  0  0  0  0
  -29.8953  -11.7395   17.6634 H   0  0  0  0  0  0
  -29.5732  -13.4561   17.6521 H   0  0  0  0  0  0
  -28.0182  -11.2748   19.0648 H   0  0  0  0  0  0
  -27.4067  -12.3632   17.8456 H   0  0  0  0  0  0
  -27.5380  -14.2442   19.3394 H   0  0  0  0  0  0
  -28.8025  -12.4773   21.4881 H   0  0  0  0  0  0
  -28.3062  -14.1420   21.6979 H   0  0  0  0  0  0
  -25.2778   -9.5681   22.4766 H   0  0  0  0  0  0
  -24.0010   -7.4634   22.7476 H   0  0  0  0  0  0
  -21.0859   -8.8782   19.8951 H   0  0  0  0  0  0
  -22.3722  -10.9676   19.6167 H   0  0  0  0  0  0
  -21.2009   -7.6151   23.9718 H   0  0  0  0  0  0
  -21.1481   -6.0524   25.9078 H   0  0  0  0  0  0
  -22.0597   -2.7612   23.2844 H   0  0  0  0  0  0
  -22.4053  -11.9839   22.4840 H   0  0  0  0  0  0
  -21.1032  -13.1176   22.2655 H   0  0  0  0  0  0
  -24.6295  -15.8441   20.5257 H   0  0  0  0  0  0
  -26.2388  -15.6381   20.0579 H   0  0  0  0  0  0
  -26.7366  -32.5162   23.0919 H   0  0  0  0  0  0
  -25.0088  -33.9517   25.0228 H   0  0  0  0  0  0
  -22.7836  -31.2749   21.3589 H   0  0  0  0  0  0
  -23.3769  -35.9531   23.3272 H   0  0  0  0  0  0
  -24.3575  -36.8893   22.2066 H   0  0  0  0  0  0
  -23.7230  -37.6390   23.6717 H   0  0  0  0  0  0
  -26.2193  -31.3921   20.6248 H   0  0  0  0  0  0
  -26.9029  -30.7011   22.0553 H   0  0  0  0  0  0
  -28.1460  -28.6261   21.2770 H   0  0  0  0  0  0
  -25.8522  -25.7792   18.9831 H   0  0  0  0  0  0
  -23.9936  -27.2921   18.9506 H   0  0  0  0  0  0
  -23.8642  -30.5390   19.3935 H   0  0  0  0  0  0
  -22.8203  -29.2217   19.8287 H   0  0  0  0  0  0
  -25.1326  -36.1784   25.0792 H   0  0  0  0  0  0
  -21.0033  -28.3351   24.1318 H   0  0  0  0  0  0
  -20.5687  -26.2368   23.3636 H   0  0  0  0  0  0
  -21.6662  -26.7419   22.1200 H   0  0  0  0  0  0
  -19.6928  -25.6279   21.1272 H   0  0  0  0  0  0
  -19.6706  -27.3166   20.6726 H   0  0  0  0  0  0
  -17.4221  -26.6683   21.4031 H   0  0  0  0  0  0
  -18.0351  -26.0098   22.9035 H   0  0  0  0  0  0
  -19.7966  -30.7320   24.2205 H   0  0  0  0  0  0
  -17.5036  -31.6274   24.5164 H   0  0  0  0  0  0
  -15.5374  -30.2973   23.7693 H   0  0  0  0  0  0
  -15.8703  -28.0809   22.7105 H   0  0  0  0  0  0
  -24.5884  -30.7126   25.7688 H   0  0  0  0  0  0
  -24.8869  -32.2988   26.4688 H   0  0  0  0  0  0
  -25.7929  -30.9029   27.0227 H   0  0  0  0  0  0
  -26.3102  -29.6601   24.1407 H   0  0  0  0  0  0
  -27.3958  -29.7265   25.5070 H   0  0  0  0  0  0
  -27.9053  -30.4102   23.9845 H   0  0  0  0  0  0
  -27.2637  -33.3695   26.1961 H   0  0  0  0  0  0
  -28.3938  -32.6822   25.0388 H   0  0  0  0  0  0
  -28.0646  -31.8551   26.5536 H   0  0  0  0  0  0
  -28.2561  -38.0087   24.7531 H   0  0  0  0  0  0
  -28.1095  -36.2615   24.6266 H   0  0  0  0  0  0
  -27.2292  -37.1376   25.8867 H   0  0  0  0  0  0
  -20.9572  -29.8753   21.6695 H   0  0  0  0  0  0
  -26.0127  -38.2772   24.1433 H   0  0  0  0  0  0
  -27.1509  -21.8071   18.7435 H   0  0  0  0  0  0
  -30.7398  -20.7015   21.7694 H   0  0  0  0  0  0
  -25.0446  -20.5863   17.0101 H   0  0  0  0  0  0
  -26.7096  -20.2151   16.3224 H   0  0  0  0  0  0
  -26.3478  -17.7718   16.7790 H   0  0  0  0  0  0
  -24.6858  -18.1482   17.4699 H   0  0  0  0  0  0
  -25.7373  -19.5942   19.2410 H   0  0  0  0  0  0
  -30.8191  -18.1364   21.2953 H   0  0  0  0  0  0
  -30.8586  -18.0939   19.5860 H   0  0  0  0  0  0
  -26.8874  -24.1897   20.6717 H   0  0  0  0  0  0
  -27.4067  -24.2800   19.0307 H   0  0  0  0  0  0
  -29.9576  -22.8471   21.5847 H   0  0  0  0  0  0
  -28.0656  -18.2397   18.8070 H   0  0  0  0  0  0
  -28.7445  -16.3143   20.5947 H   0  0  0  0  0  0
  1 25  1  0  0  0
  1 30  2  0  0  0
  1 83  1  0  0  0
  2  3  1  0  0  0
  2 25  1  0  0  0
  2 84  1  0  0  0
  2 85  1  0  0  0
  3  4  1  0  0  0
  3 86  1  0  0  0
  3 87  1  0  0  0
  4  5  1  0  0  0
  4 88  1  0  0  0
  4 89  1  0  0  0
  5  6  1  0  0  0
  5 26  1  0  0  0
  5 90  1  0  0  0
  6 25  1  0  0  0
  6 91  1  0  0  0
  6 92  1  0  0  0
  7  8  2  0  0  0
  7 26  1  0  0  0
  7 29  1  0  0  0
  8  9  1  0  0  0
  8 22  1  0  0  0
  9 10  1  0  0  0
  9 27  2  0  0  0
 10 11  2  0  0  0
 10 15  1  0  0  0
 11 12  1  0  0  0
 11 93  1  0  0  0
 12 13  2  0  0  0
 12 94  1  0  0  0
 13 14  1  0  0  0
 13 31  1  0  0  0
 14 15  2  0  0  0
 14 95  1  0  0  0
 15 96  1  0  0  0
 16 17  2  0  0  0
 16 21  1  0  0  0
 16 31  1  0  0  0
 17 18  1  0  0  0
 17 97  1  0  0  0
 18 19  2  0  0  0
 18 98  1  0  0  0
 19 20  1  0  0  0
 19 24  1  0  0  0
 20 21  2  0  0  0
 20 99  1  0  0  0
 21 23  1  0  0  0
 22 28  1  0  0  0
 22 32  2  0  0  0
 26 27  1  0  0  0
 28100  1  0  0  0
 28101  1  0  0  0
 29102  1  0  0  0
 29103  1  0  0  0
 33 34  1  0  0  0
 33 66  1  0  0  0
 33 70  2  0  0  0
 34 36  1  0  0  0
 34 59  1  0  0  0
 34104  1  0  0  0
 35 44  2  0  0  0
 35 45  1  0  0  0
 35 68  1  0  0  0
 36 56  1  0  0  0
 36105  1  0  0  0
 37 39  1  0  0  0
 37 47  1  0  0  0
 37 66  1  0  0  0
 37106  1  0  0  0
 38 43  2  0  0  0
 38 46  1  0  0  0
 38 47  1  0  0  0
 39 64  1  0  0  0
 39 67  2  0  0  0
 40 52  1  0  0  0
 40 53  2  0  0  0
 40 58  1  0  0  0
 41107  1  0  0  0
 41108  1  0  0  0
 41109  1  0  0  0
 41 48  1  0  0  0
 42 43  1  0  0  0
 42 66  1  0  0  0
 42110  1  0  0  0
 42111  1  0  0  0
 43 44  1  0  0  0
 44112  1  0  0  0
 45 46  2  0  0  0
 45113  1  0  0  0
 46114  1  0  0  0
 47115  1  0  0  0
 47116  1  0  0  0
 48 56  1  0  0  0
 48 65  1  0  0  0
 48117  1  0  0  0
 49 50  1  0  0  0
 49 53  1  0  0  0
 49 64  1  0  0  0
 49118  1  0  0  0
 50 51  1  0  0  0
 50119  1  0  0  0
 50120  1  0  0  0
 51 52  1  0  0  0
 51121  1  0  0  0
 51122  1  0  0  0
 52123  1  0  0  0
 52124  1  0  0  0
 53 54  1  0  0  0
 54 55  2  0  0  0
 54125  1  0  0  0
 55 57  1  0  0  0
 55126  1  0  0  0
 56 69  2  0  0  0
 57 58  2  0  0  0
 57127  1  0  0  0
 58128  1  0  0  0
 59 60  1  0  0  0
 59 61  1  0  0  0
 59 62  1  0  0  0
 60129  1  0  0  0
 60130  1  0  0  0
 60131  1  0  0  0
 61132  1  0  0  0
 61133  1  0  0  0
 61134  1  0  0  0
 62135  1  0  0  0
 62136  1  0  0  0
 62137  1  0  0  0
 63 65  1  0  0  0
 63138  1  0  0  0
 63139  1  0  0  0
 63140  1  0  0  0
 64141  1  0  0  0
 65142  1  0  0  0
 68 80  1  0  0  0
 71 74  2  0  0  0
 71 75  1  0  0  0
 71143  1  0  0  0
 72 73  2  0  0  0
 72 81  1  0  0  0
 72144  1  0  0  0
 73 74  1  0  0  0
 73 79  1  0  0  0
 74 82  1  0  0  0
 75 80  1  0  0  0
 75 81  2  0  0  0
 76 77  1  0  0  0
 76 78  1  0  0  0
 76145  1  0  0  0
 76146  1  0  0  0
 77 78  1  0  0  0
 77147  1  0  0  0
 77148  1  0  0  0
 78 82  1  0  0  0
 78149  1  0  0  0
 79 83  1  0  0  0
 79150  1  0  0  0
 79151  1  0  0  0
 80152  1  0  0  0
 80153  1  0  0  0
 81154  1  0  0  0
 82155  1  0  0  0
 83156  1  0  0  0
M  CHG  1  81   1
M  ISO  4   1 100  68 101  80 101  83 100
M  END
> <chiral flag>
0

> <version>
0

> <s_m_source_file>
/data/baiqing/PycharmProjects/Reinvent-master-3.2/result/LINK_invent/BTK/process_docking_weight1_custom_sum_contain_oxygen_bond_distance_aromatic_linkinvent_7_9_3/rearranged_h_0138.sdf

> <i_m_source_file_index>
65

> <r_mmod_Potential_Energy-OPLS-2005>
979.962036132812

> <r_mmod_Stretch_Energy-OPLS-2005>
465.273529052734

> <r_mmod_Bend_Energy-OPLS-2005>
442.024261474609

> <r_mmod_Torsional_Energy-OPLS-2005>
245.04460144043

> <r_mmod_Improper_Torsional_Energy-OPLS-2005>
8.94252014160156

> <r_mmod_Van_der_Waal_Energy-OPLS-2005>
131.818481445312

> <r_mmod_Electrostatic_Energy-OPLS-2005>
-260.271179199219

> <r_mmod_Solvation_Energy-OPLS-2005>
-448.590972900391

> <b_mmod_Minimization_Converged-OPLS-2005>
0

> <r_mmod_RMS_Derivative-OPLS-2005>
0.292312920093536

$$$$
65
                    3D
 Structure written by MMmdl.
153161  0  0  1  0            999 V2000
  -30.5363  -14.8800   20.4349 C   0  0  0  0  0  0
  -30.4500  -12.5390   19.4877 C   0  0  0  0  0  0
  -29.5233  -12.5277   18.2488 C   0  0  0  0  0  0
  -28.0514  -12.3281   18.6604 C   0  0  0  0  0  0
  -27.6413  -13.2359   19.8488 C   0  0  2  0  0  0
  -28.6863  -13.2015   20.9854 C   0  0  0  0  0  0
  -25.2521  -13.8193   20.5722 C   0  0  0  0  0  0
  -24.1814  -13.0440   20.9230 C   0  0  0  0  0  0
  -24.6409  -11.6919   20.8752 C   0  0  0  0  0  0
  -23.9087  -10.4296   21.0407 C   0  0  0  0  0  0
  -24.3629   -9.4209   21.9186 C   0  0  0  0  0  0
  -23.6299   -8.2248   22.0765 C   0  0  0  0  0  0
  -22.4279   -8.0285   21.3554 C   0  0  0  0  0  0
  -21.9918   -9.0262   20.4653 C   0  0  0  0  0  0
  -22.7259  -10.2134   20.3062 C   0  0  0  0  0  0
  -21.6853   -6.0739   22.5282 C   0  0  0  0  0  0
  -21.4010   -6.5638   23.8215 C   0  0  0  0  0  0
  -21.3660   -5.6790   24.9178 C   0  0  0  0  0  0
  -21.6044   -4.3055   24.7224 C   0  0  0  0  0  0
  -21.8824   -3.8149   23.4346 C   0  0  0  0  0  0
  -21.9197   -4.6968   22.3404 C   0  0  0  0  0  0
  -22.7834  -13.5227   21.1870 C   0  0  0  0  0  0
  -22.1670   -4.2156   21.0981 F   0  0  0  0  0  0
  -21.5631   -3.4542   25.7737 F   0  0  0  0  0  0
  -29.9754  -13.6081   20.4059 N   0  0  0  0  0  0
  -26.2941  -12.9404   20.3267 N   0  0  0  0  0  0
  -25.9337  -11.6543   20.5736 N   0  0  0  0  0  0
  -22.0463  -12.8217   22.0411 N   0  0  0  0  0  0
  -25.4207  -15.1923   20.4165 N   0  0  0  0  0  0
  -31.7212  -14.9992   20.1002 O   0  0  0  0  0  0
  -21.6639   -6.8883   21.4248 O   0  0  0  0  0  0
  -22.3530  -14.5536   20.6713 O   0  0  0  0  0  0
  -24.6424  -31.8470   23.1927 C   0  0  0  0  0  0
  -25.9214  -32.4713   23.8291 C   0  0  1  0  0  0
  -27.2149  -27.1572   20.1395 C   0  0  0  0  0  0
  -25.5981  -33.8513   24.2222 N   0  0  0  0  0  0
  -23.4442  -30.4715   21.5359 C   0  0  2  0  0  0
  -24.8943  -28.9094   20.1052 C   0  0  0  0  0  0
  -22.7560  -29.4577   22.4842 C   0  0  0  0  0  0
  -18.0320  -28.1404   22.8487 C   0  0  0  0  0  0
  -24.1484  -36.7242   23.2637 C   0  0  0  0  0  0
  -25.9999  -30.7246   21.3942 C   0  0  0  0  0  0
  -26.0696  -29.3393   20.7335 C   0  0  0  0  0  0
  -27.2274  -28.4759   20.7441 C   0  0  0  0  0  0
  -26.0205  -26.8430   19.4469 C   0  0  0  0  0  0
  -24.8828  -27.6738   19.4465 C   0  0  0  0  0  0
  -23.6717  -29.8104   20.1516 C   0  0  0  0  0  0
  -25.4116  -36.3036   24.0320 C   0  0  1  0  0  0
  -20.5930  -28.3731   23.1236 C   0  0  2  0  0  0
  -20.6805  -26.9435   22.5405 C   0  0  0  0  0  0
  -19.5774  -26.6397   21.5216 C   0  0  0  0  0  0
  -18.1957  -26.7946   22.1629 C   0  0  0  0  0  0
  -19.1575  -28.8883   23.2858 C   0  0  0  0  0  0
  -18.9489  -30.1484   23.8887 C   0  0  0  0  0  0
  -17.6479  -30.6595   24.0575 C   0  0  0  0  0  0
  -25.9067  -34.9413   23.5069 C   0  0  0  0  0  0
  -16.5374  -29.9088   23.6341 C   0  0  0  0  0  0
  -16.7305  -28.6511   23.0356 C   0  0  0  0  0  0
  -26.4534  -31.6561   25.0721 C   0  0  0  0  0  0
  -25.3724  -31.3759   26.1425 C   0  0  0  0  0  0
  -27.0398  -30.2960   24.6291 C   0  0  0  0  0  0
  -27.6072  -32.4312   25.7509 C   0  0  0  0  0  0
  -27.5573  -37.1783   24.8466 C   0  0  0  0  0  0
  -21.4251  -29.3058   22.3588 N   0  0  0  0  0  0
  -26.4275  -37.3755   23.9418 N   0  0  0  0  0  0
  -24.7150  -31.0342   22.0963 N   0  0  0  0  0  0
  -23.4212  -28.8111   23.2972 O   0  0  0  0  0  0
  -28.2537  -26.1593   20.2371 O   0  0  0  0  0  0
  -26.5634  -34.8903   22.4639 O   0  0  0  0  0  0
  -23.5550  -32.1342   23.7160 O   0  0  0  0  0  0
  -28.2284  -19.5644   20.8928 C   0  0  0  0  0  0
  -28.4728  -18.1515   21.0446 C   0  0  0  0  0  0
  -29.1355  -20.4490   20.2387 C   0  0  0  0  0  0
  -29.6372  -17.4829   20.5574 C   0  0  0  0  0  0
  -30.3031  -19.7234   19.8109 C   0  0  0  0  0  0
  -32.4932  -19.8013   18.8125 C   0  0  0  0  0  0
  -28.6994  -21.9702   19.7553 C   0  0  0  0  0  0
  -27.9494  -24.7277   19.8258 C   0  0  0  0  0  0
  -30.5332  -18.3470   19.9682 N   0  0  0  0  0  0
  -29.6858  -15.9696   20.7114 N   0  0  0  0  0  0
  -28.9005  -23.3793   20.4280 N   0  3  0  0  0  0
  -31.2674  -20.4491   19.1442 O   0  0  0  0  0  0
  -31.4846  -12.6978   19.1792 H   0  0  0  0  0  0
  -30.4349  -11.5709   19.9910 H   0  0  0  0  0  0
  -29.8279  -11.7419   17.5562 H   0  0  0  0  0  0
  -29.6262  -13.4688   17.7063 H   0  0  0  0  0  0
  -27.9243  -11.2802   18.9348 H   0  0  0  0  0  0
  -27.3947  -12.5009   17.8074 H   0  0  0  0  0  0
  -27.6237  -14.2513   19.4516 H   0  0  0  0  0  0
  -28.7551  -12.2026   21.4197 H   0  0  0  0  0  0
  -28.3947  -13.8651   21.8009 H   0  0  0  0  0  0
  -25.2776   -9.5675   22.4766 H   0  0  0  0  0  0
  -24.0002   -7.4639   22.7488 H   0  0  0  0  0  0
  -21.0854   -8.8787   19.8958 H   0  0  0  0  0  0
  -22.3723  -10.9676   19.6172 H   0  0  0  0  0  0
  -21.1994   -7.6144   23.9718 H   0  0  0  0  0  0
  -21.1479   -6.0519   25.9076 H   0  0  0  0  0  0
  -22.0598   -2.7614   23.2847 H   0  0  0  0  0  0
  -22.4051  -11.9864   22.4790 H   0  0  0  0  0  0
  -21.1089  -13.1259   22.2611 H   0  0  0  0  0  0
  -24.6494  -15.8410   20.5351 H   0  0  0  0  0  0
  -26.2447  -15.6310   20.0283 H   0  0  0  0  0  0
  -26.7279  -32.5330   23.1013 H   0  0  0  0  0  0
  -25.0150  -33.9626   25.0389 H   0  0  0  0  0  0
  -22.7467  -31.2984   21.3879 H   0  0  0  0  0  0
  -23.3761  -35.9558   23.3281 H   0  0  0  0  0  0
  -24.3573  -36.8883   22.2056 H   0  0  0  0  0  0
  -23.7215  -37.6424   23.6677 H   0  0  0  0  0  0
  -26.1575  -31.4821   20.6248 H   0  0  0  0  0  0
  -26.8696  -30.7705   22.0380 H   0  0  0  0  0  0
  -28.1144  -28.7950   21.2736 H   0  0  0  0  0  0
  -25.9160  -25.9170   18.9031 H   0  0  0  0  0  0
  -23.9927  -27.3485   18.9258 H   0  0  0  0  0  0
  -23.8116  -30.5913   19.4025 H   0  0  0  0  0  0
  -22.7856  -29.2572   19.8346 H   0  0  0  0  0  0
  -25.1298  -36.1860   25.0809 H   0  0  0  0  0  0
  -21.0046  -28.3335   24.1347 H   0  0  0  0  0  0
  -20.5719  -26.2334   23.3617 H   0  0  0  0  0  0
  -21.6667  -26.7454   22.1191 H   0  0  0  0  0  0
  -19.6923  -25.6306   21.1254 H   0  0  0  0  0  0
  -19.6707  -27.3200   20.6739 H   0  0  0  0  0  0
  -17.4225  -26.6711   21.4030 H   0  0  0  0  0  0
  -18.0345  -26.0089   22.9024 H   0  0  0  0  0  0
  -19.7961  -30.7315   24.2232 H   0  0  0  0  0  0
  -17.5033  -31.6270   24.5191 H   0  0  0  0  0  0
  -15.5374  -30.2984   23.7672 H   0  0  0  0  0  0
  -15.8707  -28.0832   22.7061 H   0  0  0  0  0  0
  -24.5910  -30.7088   25.7763 H   0  0  0  0  0  0
  -24.8906  -32.2944   26.4784 H   0  0  0  0  0  0
  -25.8020  -30.8990   27.0241 H   0  0  0  0  0  0
  -26.3015  -29.6682   24.1292 H   0  0  0  0  0  0
  -27.4012  -29.7260   25.4856 H   0  0  0  0  0  0
  -27.8918  -30.4198   23.9605 H   0  0  0  0  0  0
  -27.2684  -33.3641   26.2022 H   0  0  0  0  0  0
  -28.3927  -32.6812   25.0368 H   0  0  0  0  0  0
  -28.0676  -31.8464   26.5481 H   0  0  0  0  0  0
  -28.2578  -38.0091   24.7534 H   0  0  0  0  0  0
  -28.1076  -36.2624   24.6264 H   0  0  0  0  0  0
  -27.2292  -37.1402   25.8867 H   0  0  0  0  0  0
  -20.9442  -29.8758   21.6771 H   0  0  0  0  0  0
  -26.0137  -38.2812   24.1451 H   0  0  0  0  0  0
  -27.2803  -19.9539   21.2351 H   0  0  0  0  0  0
  -27.7007  -17.5671   21.5261 H   0  0  0  0  0  0
  -33.1821  -20.5306   18.3878 H   0  0  0  0  0  0
  -32.3465  -19.0146   18.0711 H   0  0  0  0  0  0
  -32.9742  -19.3759   19.6948 H   0  0  0  0  0  0
  -27.6228  -21.9004   19.5966 H   0  0  0  0  0  0
  -29.1011  -22.0793   18.7481 H   0  0  0  0  0  0
  -26.9348  -24.4733   20.1315 H   0  0  0  0  0  0
  -27.9967  -24.6847   18.7374 H   0  0  0  0  0  0
  -28.8077  -15.6115   21.0479 H   0  0  0  0  0  0
  -29.8764  -23.6073   20.3493 H   0  0  0  0  0  0
  -28.7148  -23.2713   21.4098 H   0  0  0  0  0  0
  1 25  1  0  0  0
  1 30  2  0  0  0
  1 80  1  0  0  0
  2  3  1  0  0  0
  2 25  1  0  0  0
  2 83  1  0  0  0
  2 84  1  0  0  0
  3  4  1  0  0  0
  3 85  1  0  0  0
  3 86  1  0  0  0
  4  5  1  0  0  0
  4 87  1  0  0  0
  4 88  1  0  0  0
  5  6  1  0  0  0
  5 26  1  0  0  0
  5 89  1  0  0  0
  6 25  1  0  0  0
  6 90  1  0  0  0
  6 91  1  0  0  0
  7  8  2  0  0  0
  7 26  1  0  0  0
  7 29  1  0  0  0
  8  9  1  0  0  0
  8 22  1  0  0  0
  9 10  1  0  0  0
  9 27  2  0  0  0
 10 11  2  0  0  0
 10 15  1  0  0  0
 11 12  1  0  0  0
 11 92  1  0  0  0
 12 13  2  0  0  0
 12 93  1  0  0  0
 13 14  1  0  0  0
 13 31  1  0  0  0
 14 15  2  0  0  0
 14 94  1  0  0  0
 15 95  1  0  0  0
 16 17  2  0  0  0
 16 21  1  0  0  0
 16 31  1  0  0  0
 17 18  1  0  0  0
 17 96  1  0  0  0
 18 19  2  0  0  0
 18 97  1  0  0  0
 19 20  1  0  0  0
 19 24  1  0  0  0
 20 21  2  0  0  0
 20 98  1  0  0  0
 21 23  1  0  0  0
 22 28  1  0  0  0
 22 32  2  0  0  0
 26 27  1  0  0  0
 28 99  1  0  0  0
 28100  1  0  0  0
 29101  1  0  0  0
 29102  1  0  0  0
 33 34  1  0  0  0
 33 66  1  0  0  0
 33 70  2  0  0  0
 34 36  1  0  0  0
 34 59  1  0  0  0
 34103  1  0  0  0
 35 44  2  0  0  0
 35 45  1  0  0  0
 35 68  1  0  0  0
 36 56  1  0  0  0
 36104  1  0  0  0
 37 39  1  0  0  0
 37 47  1  0  0  0
 37 66  1  0  0  0
 37105  1  0  0  0
 38 43  2  0  0  0
 38 46  1  0  0  0
 38 47  1  0  0  0
 39 64  1  0  0  0
 39 67  2  0  0  0
 40 52  1  0  0  0
 40 53  2  0  0  0
 40 58  1  0  0  0
 41106  1  0  0  0
 41107  1  0  0  0
 41108  1  0  0  0
 41 48  1  0  0  0
 42 43  1  0  0  0
 42 66  1  0  0  0
 42109  1  0  0  0
 42110  1  0  0  0
 43 44  1  0  0  0
 44111  1  0  0  0
 45 46  2  0  0  0
 45112  1  0  0  0
 46113  1  0  0  0
 47114  1  0  0  0
 47115  1  0  0  0
 48 56  1  0  0  0
 48 65  1  0  0  0
 48116  1  0  0  0
 49 50  1  0  0  0
 49 53  1  0  0  0
 49 64  1  0  0  0
 49117  1  0  0  0
 50 51  1  0  0  0
 50118  1  0  0  0
 50119  1  0  0  0
 51 52  1  0  0  0
 51120  1  0  0  0
 51121  1  0  0  0
 52122  1  0  0  0
 52123  1  0  0  0
 53 54  1  0  0  0
 54 55  2  0  0  0
 54124  1  0  0  0
 55 57  1  0  0  0
 55125  1  0  0  0
 56 69  2  0  0  0
 57 58  2  0  0  0
 57126  1  0  0  0
 58127  1  0  0  0
 59 60  1  0  0  0
 59 61  1  0  0  0
 59 62  1  0  0  0
 60128  1  0  0  0
 60129  1  0  0  0
 60130  1  0  0  0
 61131  1  0  0  0
 61132  1  0  0  0
 61133  1  0  0  0
 62134  1  0  0  0
 62135  1  0  0  0
 62136  1  0  0  0
 63 65  1  0  0  0
 63137  1  0  0  0
 63138  1  0  0  0
 63139  1  0  0  0
 64140  1  0  0  0
 65141  1  0  0  0
 68 78  1  0  0  0
 71 72  2  0  0  0
 71 73  1  0  0  0
 71142  1  0  0  0
 72 74  1  0  0  0
 72143  1  0  0  0
 73 75  2  0  0  0
 73 77  1  0  0  0
 74 79  2  0  0  0
 74 80  1  0  0  0
 75 79  1  0  0  0
 75 82  1  0  0  0
 76 82  1  0  0  0
 76144  1  0  0  0
 76145  1  0  0  0
 76146  1  0  0  0
 77 81  1  0  0  0
 77147  1  0  0  0
 77148  1  0  0  0
 78 81  1  0  0  0
 78149  1  0  0  0
 78150  1  0  0  0
 80151  1  0  0  0
 81152  1  0  0  0
 81153  1  0  0  0
M  CHG  1  81   1
M  ISO  4   1 100  68 101  78 101  80 100
M  END
> <chiral flag>
0

> <version>
0

> <s_m_source_file>
/data/baiqing/PycharmProjects/Reinvent-master-3.2/result/LINK_invent/BTK/process_docking_weight1_custom_sum_contain_oxygen_bond_distance_aromatic_linkinvent_7_9_3/rearranged_h_0138.sdf

> <i_m_source_file_index>
66

> <r_mmod_Potential_Energy-OPLS-2005>
9.21641826629639

> <r_mmod_Stretch_Energy-OPLS-2005>
212.636032104492

> <r_mmod_Bend_Energy-OPLS-2005>
268.070892333984

> <r_mmod_Torsional_Energy-OPLS-2005>
190.110107421875

> <r_mmod_Improper_Torsional_Energy-OPLS-2005>
6.032546043396

> <r_mmod_Van_der_Waal_Energy-OPLS-2005>
147.398025512695

> <r_mmod_Electrostatic_Energy-OPLS-2005>
-475.552856445312

> <r_mmod_Solvation_Energy-OPLS-2005>
-502.519653320312

> <b_mmod_Minimization_Converged-OPLS-2005>
0

> <r_mmod_RMS_Derivative-OPLS-2005>
1.47491025924683

$$$$
66
                    3D
 Structure written by MMmdl.
173182  0  0  1  0            999 V2000
  -30.8650  -14.3604   20.6484 C   0  0  0  0  0  0
  -30.4315  -12.2846   19.4247 C   0  0  0  0  0  0
  -29.5167  -12.5760   18.2215 C   0  0  0  0  0  0
  -28.0433  -12.4435   18.6404 C   0  0  0  0  0  0
  -27.7058  -13.2376   19.9307 C   0  0  2  0  0  0
  -28.7638  -12.9591   21.0386 C   0  0  0  0  0  0
  -25.2747  -13.8211   20.5857 C   0  0  0  0  0  0
  -24.1930  -13.0409   20.9249 C   0  0  0  0  0  0
  -24.6532  -11.6928   20.8749 C   0  0  0  0  0  0
  -23.9171  -10.4267   21.0398 C   0  0  0  0  0  0
  -24.3643   -9.4192   21.9201 C   0  0  0  0  0  0
  -23.6268   -8.2245   22.0783 C   0  0  0  0  0  0
  -22.4249   -8.0315   21.3559 C   0  0  0  0  0  0
  -21.9930   -9.0322   20.4664 C   0  0  0  0  0  0
  -22.7323  -10.2183   20.3060 C   0  0  0  0  0  0
  -21.6861   -6.0737   22.5278 C   0  0  0  0  0  0
  -21.4013   -6.5644   23.8216 C   0  0  0  0  0  0
  -21.3654   -5.6808   24.9175 C   0  0  0  0  0  0
  -21.6055   -4.3059   24.7233 C   0  0  0  0  0  0
  -21.8816   -3.8174   23.4343 C   0  0  0  0  0  0
  -21.9171   -4.6973   22.3402 C   0  0  0  0  0  0
  -22.7920  -13.5238   21.1821 C   0  0  0  0  0  0
  -22.1668   -4.2169   21.0961 F   0  0  0  0  0  0
  -21.5631   -3.4532   25.7732 F   0  0  0  0  0  0
  -30.1279  -13.2128   20.5283 N   0  0  0  0  0  0
  -26.3308  -12.9455   20.3686 N   0  0  0  0  0  0
  -25.9529  -11.6561   20.5874 N   0  0  0  0  0  0
  -22.0536  -12.8229   22.0408 N   0  0  0  0  0  0
  -25.4343  -15.1884   20.4176 N   0  0  0  0  0  0
  -31.5155  -14.7887   19.6948 O   0  0  0  0  0  0
  -21.6619   -6.8886   21.4245 O   0  0  0  0  0  0
  -22.3562  -14.5513   20.6704 O   0  0  0  0  0  0
  -24.6127  -31.8668   23.2089 C   0  0  0  0  0  0
  -25.9031  -32.4773   23.8406 C   0  0  1  0  0  0
  -27.2669  -27.4310   20.0599 C   0  0  0  0  0  0
  -25.5923  -33.8589   24.2293 N   0  0  0  0  0  0
  -23.4063  -30.4869   21.5424 C   0  0  2  0  0  0
  -24.8586  -28.9533   20.1094 C   0  0  0  0  0  0
  -22.7442  -29.4648   22.4925 C   0  0  0  0  0  0
  -18.0285  -28.1373   22.8447 C   0  0  0  0  0  0
  -24.1529  -36.7264   23.2640 C   0  0  0  0  0  0
  -25.9440  -30.8039   21.3960 C   0  0  0  0  0  0
  -26.0177  -29.4496   20.7209 C   0  0  0  0  0  0
  -27.2192  -28.6979   20.6984 C   0  0  0  0  0  0
  -26.0878  -26.9545   19.4448 C   0  0  0  0  0  0
  -24.8952  -27.7018   19.4693 C   0  0  0  0  0  0
  -23.6164  -29.8161   20.1587 C   0  0  0  0  0  0
  -25.4158  -36.3057   24.0305 C   0  0  1  0  0  0
  -20.5864  -28.3701   23.1264 C   0  0  2  0  0  0
  -20.6779  -26.9445   22.5393 C   0  0  0  0  0  0
  -19.5746  -26.6399   21.5208 C   0  0  0  0  0  0
  -18.1921  -26.7903   22.1622 C   0  0  0  0  0  0
  -19.1532  -28.8866   23.2840 C   0  0  0  0  0  0
  -18.9462  -30.1455   23.8876 C   0  0  0  0  0  0
  -17.6460  -30.6585   24.0556 C   0  0  0  0  0  0
  -25.9087  -34.9423   23.5108 C   0  0  0  0  0  0
  -16.5340  -29.9060   23.6311 C   0  0  0  0  0  0
  -16.7274  -28.6463   23.0341 C   0  0  0  0  0  0
  -26.4505  -31.6594   25.0775 C   0  0  0  0  0  0
  -25.3709  -31.3708   26.1466 C   0  0  0  0  0  0
  -27.0368  -30.2953   24.6338 C   0  0  0  0  0  0
  -27.6072  -32.4357   25.7481 C   0  0  0  0  0  0
  -27.5611  -37.1792   24.8458 C   0  0  0  0  0  0
  -21.4168  -29.3082   22.3732 N   0  0  0  0  0  0
  -26.4327  -37.3743   23.9401 N   0  0  0  0  0  0
  -24.6688  -31.0679   22.1046 N   0  0  0  0  0  0
  -23.4135  -28.8219   23.3064 O   0  0  0  0  0  0
  -28.4643  -26.7206   20.0042 O   0  0  0  0  0  0
  -26.5694  -34.8920   22.4678 O   0  0  0  0  0  0
  -23.5307  -32.1488   23.7458 O   0  0  0  0  0  0
  -30.6970  -19.1245   21.6460 C   0  0  0  0  0  0
  -30.3276  -20.3458   21.0603 C   0  0  0  0  0  0
  -32.3717  -20.2896   19.8056 C   0  0  0  0  0  0
  -31.8546  -18.3797   21.3156 C   0  0  0  0  0  0
  -32.7281  -19.0293   20.3748 C   0  0  0  0  0  0
  -31.1819  -20.9814   20.1455 C   0  0  0  0  0  0
  -33.2657  -16.0861   21.6832 C   0  0  0  0  0  0
  -32.7673  -14.6716   22.0391 C   0  0  0  0  0  0
  -32.1475  -17.0504   22.1206 C   0  0  2  0  0  0
  -31.0221  -16.0123   22.5267 C   0  0  2  0  0  0
  -34.1200  -18.5224   20.0290 C   0  0  0  0  0  0
  -29.8319  -17.9606   24.7624 C   0  0  0  0  0  0
  -29.5288  -16.3681   22.6917 C   0  0  0  0  0  0
  -29.1336  -16.7400   24.1374 C   0  0  0  0  0  0
  -29.7060  -24.4838   19.5912 C   0  0  0  0  0  0
  -28.4457  -25.2709   20.1404 C   0  0  0  0  0  0
  -29.7272  -22.9586   19.9603 C   0  0  0  0  0  0
  -31.2965  -14.7020   21.8912 N   0  0  0  0  0  0
  -30.9409  -22.2458   19.6014 O   0  0  0  0  0  0
  -31.4765  -12.3501   19.1388 H   0  0  0  0  0  0
  -30.3092  -11.2597   19.7736 H   0  0  0  0  0  0
  -29.7544  -11.8959   17.3989 H   0  0  0  0  0  0
  -29.7163  -13.5830   17.8394 H   0  0  0  0  0  0
  -27.8422  -11.3798   18.7950 H   0  0  0  0  0  0
  -27.4067  -12.7764   17.8221 H   0  0  0  0  0  0
  -27.7603  -14.3009   19.6905 H   0  0  0  0  0  0
  -28.7152  -11.9092   21.3334 H   0  0  0  0  0  0
  -28.5412  -13.5218   21.9385 H   0  0  0  0  0  0
  -25.2780   -9.5668   22.4768 H   0  0  0  0  0  0
  -24.0011   -7.4620   22.7480 H   0  0  0  0  0  0
  -21.0865   -8.8796   19.8933 H   0  0  0  0  0  0
  -22.3746  -10.9704   19.6148 H   0  0  0  0  0  0
  -21.2002   -7.6140   23.9724 H   0  0  0  0  0  0
  -21.1505   -6.0520   25.9076 H   0  0  0  0  0  0
  -22.0588   -2.7630   23.2824 H   0  0  0  0  0  0
  -22.4093  -11.9885   22.4806 H   0  0  0  0  0  0
  -21.1188  -13.1321   22.2566 H   0  0  0  0  0  0
  -24.6681  -15.8476   20.4974 H   0  0  0  0  0  0
  -26.2956  -15.6335   20.1315 H   0  0  0  0  0  0
  -26.7105  -32.5417   23.1184 H   0  0  0  0  0  0
  -24.9949  -33.9711   25.0365 H   0  0  0  0  0  0
  -22.6946  -31.3058   21.4109 H   0  0  0  0  0  0
  -23.3780  -35.9614   23.3315 H   0  0  0  0  0  0
  -24.3589  -36.8879   22.2050 H   0  0  0  0  0  0
  -23.7323  -37.6483   23.6665 H   0  0  0  0  0  0
  -26.1315  -31.5890   20.6570 H   0  0  0  0  0  0
  -26.7937  -30.7986   22.0709 H   0  0  0  0  0  0
  -28.1168  -29.0875   21.1642 H   0  0  0  0  0  0
  -26.0719  -26.0312   18.8828 H   0  0  0  0  0  0
  -24.0233  -27.3230   18.9537 H   0  0  0  0  0  0
  -23.7090  -30.5932   19.4015 H   0  0  0  0  0  0
  -22.7425  -29.2301   19.8735 H   0  0  0  0  0  0
  -25.1372  -36.1903   25.0796 H   0  0  0  0  0  0
  -20.9937  -28.3279   24.1366 H   0  0  0  0  0  0
  -20.5712  -26.2317   23.3580 H   0  0  0  0  0  0
  -21.6649  -26.7498   22.1221 H   0  0  0  0  0  0
  -19.6965  -25.6326   21.1211 H   0  0  0  0  0  0
  -19.6690  -27.3210   20.6733 H   0  0  0  0  0  0
  -17.4222  -26.6617   21.3990 H   0  0  0  0  0  0
  -18.0381  -26.0048   22.9032 H   0  0  0  0  0  0
  -19.7954  -30.7295   24.2205 H   0  0  0  0  0  0
  -17.5008  -31.6239   24.5204 H   0  0  0  0  0  0
  -15.5326  -30.2970   23.7671 H   0  0  0  0  0  0
  -15.8643  -28.0787   22.7071 H   0  0  0  0  0  0
  -24.5880  -30.7086   25.7773 H   0  0  0  0  0  0
  -24.8880  -32.2842   26.4910 H   0  0  0  0  0  0
  -25.7956  -30.8831   27.0227 H   0  0  0  0  0  0
  -26.2972  -29.6638   24.1368 H   0  0  0  0  0  0
  -27.4005  -29.7268   25.4923 H   0  0  0  0  0  0
  -27.8907  -30.4182   23.9649 H   0  0  0  0  0  0
  -27.2695  -33.3663   26.2043 H   0  0  0  0  0  0
  -28.3826  -32.6911   25.0251 H   0  0  0  0  0  0
  -28.0822  -31.8495   26.5358 H   0  0  0  0  0  0
  -28.2624  -38.0093   24.7502 H   0  0  0  0  0  0
  -28.1119  -36.2608   24.6315 H   0  0  0  0  0  0
  -27.2284  -37.1494   25.8847 H   0  0  0  0  0  0
  -20.9379  -29.8583   21.6753 H   0  0  0  0  0  0
  -26.0200  -38.2835   24.1295 H   0  0  0  0  0  0
  -30.0488  -18.8083   22.4245 H   0  0  0  0  0  0
  -29.4008  -20.7842   21.3921 H   0  0  0  0  0  0
  -33.0592  -20.7695   19.1152 H   0  0  0  0  0  0
  -33.4630  -16.1027   20.6134 H   0  0  0  0  0  0
  -34.1897  -16.2894   22.2113 H   0  0  0  0  0  0
  -33.0421  -14.4068   23.0615 H   0  0  0  0  0  0
  -33.2537  -13.9296   21.4052 H   0  0  0  0  0  0
  -32.4965  -17.4496   23.0720 H   0  0  0  0  0  0
  -31.3051  -15.7660   23.5494 H   0  0  0  0  0  0
  -34.1184  -17.7182   19.2950 H   0  0  0  0  0  0
  -34.6446  -18.1983   20.9209 H   0  0  0  0  0  0
  -34.7150  -19.3287   19.6078 H   0  0  0  0  0  0
  -29.2524  -18.8731   24.6368 H   0  0  0  0  0  0
  -30.8359  -18.1191   24.3735 H   0  0  0  0  0  0
  -29.9560  -17.8351   25.8300 H   0  0  0  0  0  0
  -28.9483  -15.4824   22.4855 H   0  0  0  0  0  0
  -29.1837  -17.0771   21.9441 H   0  0  0  0  0  0
  -29.3381  -15.8613   24.7487 H   0  0  0  0  0  0
  -28.0510  -16.8697   24.2153 H   0  0  0  0  0  0
  -30.6178  -24.9376   19.9690 H   0  0  0  0  0  0
  -29.7588  -24.5734   18.5049 H   0  0  0  0  0  0
  -27.5968  -24.8218   19.6287 H   0  0  0  0  0  0
  -28.3117  -25.0719   21.2039 H   0  0  0  0  0  0
  -28.8669  -22.4699   19.4838 H   0  0  0  0  0  0
  -29.5862  -22.9030   21.0385 H   0  0  0  0  0  0
  1 25  1  0  0  0
  1 30  2  0  0  0
  1 88  1  0  0  0
  2  3  1  0  0  0
  2 25  1  0  0  0
  2 90  1  0  0  0
  2 91  1  0  0  0
  3  4  1  0  0  0
  3 92  1  0  0  0
  3 93  1  0  0  0
  4  5  1  0  0  0
  4 94  1  0  0  0
  4 95  1  0  0  0
  5  6  1  0  0  0
  5 26  1  0  0  0
  5 96  1  0  0  0
  6 25  1  0  0  0
  6 97  1  0  0  0
  6 98  1  0  0  0
  7  8  2  0  0  0
  7 26  1  0  0  0
  7 29  1  0  0  0
  8  9  1  0  0  0
  8 22  1  0  0  0
  9 10  1  0  0  0
  9 27  2  0  0  0
 10 11  2  0  0  0
 10 15  1  0  0  0
 11 12  1  0  0  0
 11 99  1  0  0  0
 12 13  2  0  0  0
 12100  1  0  0  0
 13 14  1  0  0  0
 13 31  1  0  0  0
 14 15  2  0  0  0
 14101  1  0  0  0
 15102  1  0  0  0
 16 17  2  0  0  0
 16 21  1  0  0  0
 16 31  1  0  0  0
 17 18  1  0  0  0
 17103  1  0  0  0
 18 19  2  0  0  0
 18104  1  0  0  0
 19 20  1  0  0  0
 19 24  1  0  0  0
 20 21  2  0  0  0
 20105  1  0  0  0
 21 23  1  0  0  0
 22 28  1  0  0  0
 22 32  2  0  0  0
 26 27  1  0  0  0
 28106  1  0  0  0
 28107  1  0  0  0
 29108  1  0  0  0
 29109  1  0  0  0
 33 34  1  0  0  0
 33 66  1  0  0  0
 33 70  2  0  0  0
 34 36  1  0  0  0
 34 59  1  0  0  0
 34110  1  0  0  0
 35 44  2  0  0  0
 35 45  1  0  0  0
 35 68  1  0  0  0
 36 56  1  0  0  0
 36111  1  0  0  0
 37 39  1  0  0  0
 37 47  1  0  0  0
 37 66  1  0  0  0
 37112  1  0  0  0
 38 43  2  0  0  0
 38 46  1  0  0  0
 38 47  1  0  0  0
 39 64  1  0  0  0
 39 67  2  0  0  0
 40 52  1  0  0  0
 40 53  2  0  0  0
 40 58  1  0  0  0
 41113  1  0  0  0
 41114  1  0  0  0
 41115  1  0  0  0
 41 48  1  0  0  0
 42 43  1  0  0  0
 42 66  1  0  0  0
 42116  1  0  0  0
 42117  1  0  0  0
 43 44  1  0  0  0
 44118  1  0  0  0
 45 46  2  0  0  0
 45119  1  0  0  0
 46120  1  0  0  0
 47121  1  0  0  0
 47122  1  0  0  0
 48 56  1  0  0  0
 48 65  1  0  0  0
 48123  1  0  0  0
 49 50  1  0  0  0
 49 53  1  0  0  0
 49 64  1  0  0  0
 49124  1  0  0  0
 50 51  1  0  0  0
 50125  1  0  0  0
 50126  1  0  0  0
 51 52  1  0  0  0
 51127  1  0  0  0
 51128  1  0  0  0
 52129  1  0  0  0
 52130  1  0  0  0
 53 54  1  0  0  0
 54 55  2  0  0  0
 54131  1  0  0  0
 55 57  1  0  0  0
 55132  1  0  0  0
 56 69  2  0  0  0
 57 58  2  0  0  0
 57133  1  0  0  0
 58134  1  0  0  0
 59 60  1  0  0  0
 59 61  1  0  0  0
 59 62  1  0  0  0
 60135  1  0  0  0
 60136  1  0  0  0
 60137  1  0  0  0
 61138  1  0  0  0
 61139  1  0  0  0
 61140  1  0  0  0
 62141  1  0  0  0
 62142  1  0  0  0
 62143  1  0  0  0
 63 65  1  0  0  0
 63144  1  0  0  0
 63145  1  0  0  0
 63146  1  0  0  0
 64147  1  0  0  0
 65148  1  0  0  0
 68 86  1  0  0  0
 71 72  2  0  0  0
 71 74  1  0  0  0
 71149  1  0  0  0
 72 76  1  0  0  0
 72150  1  0  0  0
 73 75  1  0  0  0
 73 76  2  0  0  0
 73151  1  0  0  0
 74 75  2  0  0  0
 74 79  1  0  0  0
 75 81  1  0  0  0
 76 89  1  0  0  0
 77 78  1  0  0  0
 77 79  1  0  0  0
 77152  1  0  0  0
 77153  1  0  0  0
 78 88  1  0  0  0
 78154  1  0  0  0
 78155  1  0  0  0
 79 80  1  0  0  0
 79156  1  0  0  0
 80 83  1  0  0  0
 80 88  1  0  0  0
 80157  1  0  0  0
 81158  1  0  0  0
 81159  1  0  0  0
 81160  1  0  0  0
 82 84  1  0  0  0
 82161  1  0  0  0
 82162  1  0  0  0
 82163  1  0  0  0
 83 84  1  0  0  0
 83164  1  0  0  0
 83165  1  0  0  0
 84166  1  0  0  0
 84167  1  0  0  0
 85 86  1  0  0  0
 85 87  1  0  0  0
 85168  1  0  0  0
 85169  1  0  0  0
 86170  1  0  0  0
 86171  1  0  0  0
 87 89  1  0  0  0
 87172  1  0  0  0
 87173  1  0  0  0
M  ISO  4   1 100  68 101  86 101  88 100
M  END
> <chiral flag>
0

> <version>
0

> <s_m_source_file>
/data/baiqing/PycharmProjects/Reinvent-master-3.2/result/LINK_invent/BTK/process_docking_weight1_custom_sum_contain_oxygen_bond_distance_aromatic_linkinvent_7_9_3/rearranged_h_0138.sdf

> <i_m_source_file_index>
67

> <r_mmod_Potential_Energy-OPLS-2005>
424.794647216797

> <r_mmod_Stretch_Energy-OPLS-2005>
70.0334320068359

> <r_mmod_Bend_Energy-OPLS-2005>
233.138610839844

> <r_mmod_Torsional_Energy-OPLS-2005>
361.043273925781

> <r_mmod_Improper_Torsional_Energy-OPLS-2005>
25.759937286377

> <r_mmod_Van_der_Waal_Energy-OPLS-2005>
183.912170410156

> <r_mmod_Electrostatic_Energy-OPLS-2005>
-288.738800048828

> <r_mmod_Solvation_Energy-OPLS-2005>
-196.606475830078

> <b_mmod_Minimization_Converged-OPLS-2005>
0

> <r_mmod_RMS_Derivative-OPLS-2005>
12.9722900390625

$$$$
67
                    3D
 Structure written by MMmdl.
150158  0  0  1  0            999 V2000
  -30.5024  -14.9527   20.4154 C   0  0  0  0  0  0
  -30.4512  -12.5896   19.4868 C   0  0  0  0  0  0
  -29.5233  -12.5304   18.2504 C   0  0  0  0  0  0
  -28.0554  -12.3122   18.6686 C   0  0  0  0  0  0
  -27.6306  -13.2384   19.8372 C   0  0  2  0  0  0
  -28.6763  -13.2493   20.9719 C   0  0  0  0  0  0
  -25.2462  -13.8172   20.5697 C   0  0  0  0  0  0
  -24.1770  -13.0418   20.9215 C   0  0  0  0  0  0
  -24.6383  -11.6904   20.8747 C   0  0  0  0  0  0
  -23.9068  -10.4283   21.0410 C   0  0  0  0  0  0
  -24.3623   -9.4200   21.9186 C   0  0  0  0  0  0
  -23.6291   -8.2241   22.0758 C   0  0  0  0  0  0
  -22.4272   -8.0283   21.3551 C   0  0  0  0  0  0
  -21.9907   -9.0256   20.4652 C   0  0  0  0  0  0
  -22.7241  -10.2130   20.3057 C   0  0  0  0  0  0
  -21.6856   -6.0726   22.5278 C   0  0  0  0  0  0
  -21.4012   -6.5627   23.8210 C   0  0  0  0  0  0
  -21.3659   -5.6784   24.9174 C   0  0  0  0  0  0
  -21.6046   -4.3046   24.7228 C   0  0  0  0  0  0
  -21.8816   -3.8136   23.4347 C   0  0  0  0  0  0
  -21.9191   -4.6952   22.3400 C   0  0  0  0  0  0
  -22.7797  -13.5212   21.1866 C   0  0  0  0  0  0
  -22.1656   -4.2135   21.0977 F   0  0  0  0  0  0
  -21.5641   -3.4536   25.7744 F   0  0  0  0  0  0
  -29.9507  -13.6736   20.3749 N   0  0  0  0  0  0
  -26.2884  -12.9391   20.3228 N   0  0  0  0  0  0
  -25.9312  -11.6538   20.5737 N   0  0  0  0  0  0
  -22.0439  -12.8221   22.0432 N   0  0  0  0  0  0
  -25.4111  -15.1896   20.4125 N   0  0  0  0  0  0
  -31.7091  -15.0704   20.1777 O   0  0  0  0  0  0
  -21.6643   -6.8875   21.4243 O   0  0  0  0  0  0
  -22.3494  -14.5514   20.6689 O   0  0  0  0  0  0
  -24.6432  -31.8432   23.1856 C   0  0  0  0  0  0
  -25.9204  -32.4686   23.8256 C   0  0  1  0  0  0
  -27.2272  -27.1372   20.1642 C   0  0  0  0  0  0
  -25.5951  -33.8491   24.2183 N   0  0  0  0  0  0
  -23.4479  -30.4592   21.5315 C   0  0  2  0  0  0
  -24.8999  -28.8800   20.1158 C   0  0  0  0  0  0
  -22.7576  -29.4529   22.4854 C   0  0  0  0  0  0
  -18.0311  -28.1396   22.8472 C   0  0  0  0  0  0
  -24.1492  -36.7256   23.2640 C   0  0  0  0  0  0
  -26.0023  -30.7181   21.3835 C   0  0  0  0  0  0
  -26.0769  -29.3264   20.7314 C   0  0  0  0  0  0
  -27.2434  -28.4732   20.7326 C   0  0  0  0  0  0
  -26.0247  -26.7861   19.5149 C   0  0  0  0  0  0
  -24.8868  -27.6223   19.4910 C   0  0  0  0  0  0
  -23.6762  -29.7828   20.1533 C   0  0  0  0  0  0
  -25.4125  -36.3026   24.0312 C   0  0  1  0  0  0
  -20.5921  -28.3717   23.1234 C   0  0  2  0  0  0
  -20.6795  -26.9418   22.5403 C   0  0  0  0  0  0
  -19.5766  -26.6377   21.5209 C   0  0  0  0  0  0
  -18.1950  -26.7933   22.1622 C   0  0  0  0  0  0
  -19.1566  -28.8877   23.2842 C   0  0  0  0  0  0
  -18.9478  -30.1475   23.8863 C   0  0  0  0  0  0
  -17.6474  -30.6588   24.0561 C   0  0  0  0  0  0
  -25.9076  -34.9400   23.5061 C   0  0  0  0  0  0
  -16.5368  -29.9080   23.6336 C   0  0  0  0  0  0
  -16.7296  -28.6503   23.0346 C   0  0  0  0  0  0
  -26.4521  -31.6550   25.0699 C   0  0  0  0  0  0
  -25.3711  -31.3761   26.1407 C   0  0  0  0  0  0
  -27.0371  -30.2936   24.6284 C   0  0  0  0  0  0
  -27.6053  -32.4311   25.7486 C   0  0  0  0  0  0
  -27.5577  -37.1785   24.8463 C   0  0  0  0  0  0
  -21.4265  -29.3035   22.3605 N   0  0  0  0  0  0
  -26.4288  -37.3738   23.9404 N   0  0  0  0  0  0
  -24.7175  -31.0285   22.0892 N   0  0  0  0  0  0
  -23.4218  -28.8096   23.3020 O   0  0  0  0  0  0
  -28.2964  -26.1704   20.1758 O   0  0  0  0  0  0
  -26.5659  -34.8899   22.4638 O   0  0  0  0  0  0
  -23.5551  -32.1304   23.7078 O   0  0  0  0  0  0
  -30.5643  -18.4563   21.1392 C   0  0  0  0  0  0
  -30.3877  -19.8944   21.2230 C   0  0  0  0  0  0
  -29.6602  -17.6060   20.4289 C   0  0  0  0  0  0
  -28.6422  -18.4171   19.7872 C   0  0  0  0  0  0
  -29.3293  -20.6091   20.5754 C   0  0  0  0  0  0
  -27.5608  -17.7518   18.9591 C   0  0  0  0  0  0
  -28.0772  -24.6824   20.5916 C   0  0  0  0  0  0
  -28.7860  -23.2505   20.0241 C   0  0  0  0  0  0
  -28.4888  -19.8082   19.8501 N   0  0  0  0  0  0
  -29.6196  -16.0648   20.4719 N   0  0  0  0  0  0
  -28.9927  -21.9998   20.9010 O   0  0  0  0  0  0
  -31.4798  -12.7703   19.1725 H   0  0  0  0  0  0
  -30.4612  -11.6331   20.0114 H   0  0  0  0  0  0
  -29.8404  -11.7368   17.5727 H   0  0  0  0  0  0
  -29.6067  -13.4603   17.6869 H   0  0  0  0  0  0
  -27.9496  -11.2699   18.9705 H   0  0  0  0  0  0
  -27.3943  -12.4493   17.8126 H   0  0  0  0  0  0
  -27.5939  -14.2403   19.4123 H   0  0  0  0  0  0
  -28.7652  -12.2640   21.4324 H   0  0  0  0  0  0
  -28.3764  -13.9338   21.7668 H   0  0  0  0  0  0
  -25.2764   -9.5680   22.4766 H   0  0  0  0  0  0
  -23.9999   -7.4626   22.7474 H   0  0  0  0  0  0
  -21.0837   -8.8773   19.8956 H   0  0  0  0  0  0
  -22.3693  -10.9672   19.6171 H   0  0  0  0  0  0
  -21.1993   -7.6131   23.9705 H   0  0  0  0  0  0
  -21.1493   -6.0518   25.9078 H   0  0  0  0  0  0
  -22.0592   -2.7597   23.2855 H   0  0  0  0  0  0
  -22.4047  -11.9888   22.4834 H   0  0  0  0  0  0
  -21.1053  -13.1255   22.2622 H   0  0  0  0  0  0
  -24.6361  -15.8353   20.5211 H   0  0  0  0  0  0
  -26.2420  -15.6283   20.0456 H   0  0  0  0  0  0
  -26.7275  -32.5298   23.0990 H   0  0  0  0  0  0
  -25.0077  -33.9603   25.0317 H   0  0  0  0  0  0
  -22.7503  -31.2841   21.3742 H   0  0  0  0  0  0
  -23.3747  -35.9593   23.3296 H   0  0  0  0  0  0
  -24.3579  -36.8899   22.2056 H   0  0  0  0  0  0
  -23.7261  -37.6459   23.6678 H   0  0  0  0  0  0
  -26.1558  -31.4694   20.6079 H   0  0  0  0  0  0
  -26.8735  -30.7723   22.0240 H   0  0  0  0  0  0
  -28.1446  -28.8160   21.2216 H   0  0  0  0  0  0
  -25.9528  -25.8238   19.0282 H   0  0  0  0  0  0
  -23.9902  -27.2748   18.9963 H   0  0  0  0  0  0
  -23.8148  -30.5545   19.3949 H   0  0  0  0  0  0
  -22.7907  -29.2244   19.8438 H   0  0  0  0  0  0
  -25.1309  -36.1854   25.0802 H   0  0  0  0  0  0
  -21.0004  -28.3310   24.1358 H   0  0  0  0  0  0
  -20.5685  -26.2327   23.3623 H   0  0  0  0  0  0
  -21.6666  -26.7425   22.1206 H   0  0  0  0  0  0
  -19.6929  -25.6281   21.1255 H   0  0  0  0  0  0
  -19.6704  -27.3173   20.6726 H   0  0  0  0  0  0
  -17.4216  -26.6667   21.4032 H   0  0  0  0  0  0
  -18.0351  -26.0087   22.9027 H   0  0  0  0  0  0
  -19.7951  -30.7306   24.2210 H   0  0  0  0  0  0
  -17.5024  -31.6265   24.5169 H   0  0  0  0  0  0
  -15.5365  -30.2970   23.7674 H   0  0  0  0  0  0
  -15.8697  -28.0818   22.7060 H   0  0  0  0  0  0
  -24.5867  -30.7130   25.7744 H   0  0  0  0  0  0
  -24.8927  -32.2953   26.4794 H   0  0  0  0  0  0
  -25.7993  -30.8959   27.0215 H   0  0  0  0  0  0
  -26.2981  -29.6668   24.1278 H   0  0  0  0  0  0
  -27.3962  -29.7230   25.4862 H   0  0  0  0  0  0
  -27.8901  -30.4158   23.9606 H   0  0  0  0  0  0
  -27.2642  -33.3619   26.2028 H   0  0  0  0  0  0
  -28.3883  -32.6863   25.0332 H   0  0  0  0  0  0
  -28.0697  -31.8464   26.5440 H   0  0  0  0  0  0
  -28.2587  -38.0087   24.7499 H   0  0  0  0  0  0
  -28.1081  -36.2618   24.6291 H   0  0  0  0  0  0
  -27.2298  -37.1443   25.8868 H   0  0  0  0  0  0
  -20.9474  -29.8747   21.6785 H   0  0  0  0  0  0
  -26.0153  -38.2806   24.1401 H   0  0  0  0  0  0
  -31.3709  -18.0028   21.6976 H   0  0  0  0  0  0
  -31.0683  -20.4530   21.8491 H   0  0  0  0  0  0
  -27.8427  -16.7507   18.6354 H   0  0  0  0  0  0
  -27.3583  -18.3342   18.0603 H   0  0  0  0  0  0
  -26.6363  -17.6904   19.5317 H   0  0  0  0  0  0
  -28.3497  -24.7061   21.6470 H   0  0  0  0  0  0
  -27.0040  -24.4995   20.6176 H   0  0  0  0  0  0
  -29.7911  -23.5156   19.6969 H   0  0  0  0  0  0
  -28.2668  -22.9416   19.1163 H   0  0  0  0  0  0
  -28.6735  -15.7168   20.4974 H   0  0  0  0  0  0
  1 25  1  0  0  0
  1 30  2  0  0  0
  1 80  1  0  0  0
  2  3  1  0  0  0
  2 25  1  0  0  0
  2 82  1  0  0  0
  2 83  1  0  0  0
  3  4  1  0  0  0
  3 84  1  0  0  0
  3 85  1  0  0  0
  4  5  1  0  0  0
  4 86  1  0  0  0
  4 87  1  0  0  0
  5  6  1  0  0  0
  5 26  1  0  0  0
  5 88  1  0  0  0
  6 25  1  0  0  0
  6 89  1  0  0  0
  6 90  1  0  0  0
  7  8  2  0  0  0
  7 26  1  0  0  0
  7 29  1  0  0  0
  8  9  1  0  0  0
  8 22  1  0  0  0
  9 10  1  0  0  0
  9 27  2  0  0  0
 10 11  2  0  0  0
 10 15  1  0  0  0
 11 12  1  0  0  0
 11 91  1  0  0  0
 12 13  2  0  0  0
 12 92  1  0  0  0
 13 14  1  0  0  0
 13 31  1  0  0  0
 14 15  2  0  0  0
 14 93  1  0  0  0
 15 94  1  0  0  0
 16 17  2  0  0  0
 16 21  1  0  0  0
 16 31  1  0  0  0
 17 18  1  0  0  0
 17 95  1  0  0  0
 18 19  2  0  0  0
 18 96  1  0  0  0
 19 20  1  0  0  0
 19 24  1  0  0  0
 20 21  2  0  0  0
 20 97  1  0  0  0
 21 23  1  0  0  0
 22 28  1  0  0  0
 22 32  2  0  0  0
 26 27  1  0  0  0
 28 98  1  0  0  0
 28 99  1  0  0  0
 29100  1  0  0  0
 29101  1  0  0  0
 33 34  1  0  0  0
 33 66  1  0  0  0
 33 70  2  0  0  0
 34 36  1  0  0  0
 34 59  1  0  0  0
 34102  1  0  0  0
 35 44  2  0  0  0
 35 45  1  0  0  0
 35 68  1  0  0  0
 36 56  1  0  0  0
 36103  1  0  0  0
 37 39  1  0  0  0
 37 47  1  0  0  0
 37 66  1  0  0  0
 37104  1  0  0  0
 38 43  2  0  0  0
 38 46  1  0  0  0
 38 47  1  0  0  0
 39 64  1  0  0  0
 39 67  2  0  0  0
 40 52  1  0  0  0
 40 53  2  0  0  0
 40 58  1  0  0  0
 41105  1  0  0  0
 41106  1  0  0  0
 41107  1  0  0  0
 41 48  1  0  0  0
 42 43  1  0  0  0
 42 66  1  0  0  0
 42108  1  0  0  0
 42109  1  0  0  0
 43 44  1  0  0  0
 44110  1  0  0  0
 45 46  2  0  0  0
 45111  1  0  0  0
 46112  1  0  0  0
 47113  1  0  0  0
 47114  1  0  0  0
 48 56  1  0  0  0
 48 65  1  0  0  0
 48115  1  0  0  0
 49 50  1  0  0  0
 49 53  1  0  0  0
 49 64  1  0  0  0
 49116  1  0  0  0
 50 51  1  0  0  0
 50117  1  0  0  0
 50118  1  0  0  0
 51 52  1  0  0  0
 51119  1  0  0  0
 51120  1  0  0  0
 52121  1  0  0  0
 52122  1  0  0  0
 53 54  1  0  0  0
 54 55  2  0  0  0
 54123  1  0  0  0
 55 57  1  0  0  0
 55124  1  0  0  0
 56 69  2  0  0  0
 57 58  2  0  0  0
 57125  1  0  0  0
 58126  1  0  0  0
 59 60  1  0  0  0
 59 61  1  0  0  0
 59 62  1  0  0  0
 60127  1  0  0  0
 60128  1  0  0  0
 60129  1  0  0  0
 61130  1  0  0  0
 61131  1  0  0  0
 61132  1  0  0  0
 62133  1  0  0  0
 62134  1  0  0  0
 62135  1  0  0  0
 63 65  1  0  0  0
 63136  1  0  0  0
 63137  1  0  0  0
 63138  1  0  0  0
 64139  1  0  0  0
 65140  1  0  0  0
 68 77  1  0  0  0
 71 72  2  0  0  0
 71 73  1  0  0  0
 71141  1  0  0  0
 72 75  1  0  0  0
 72142  1  0  0  0
 73 74  2  0  0  0
 73 80  1  0  0  0
 74 76  1  0  0  0
 74 79  1  0  0  0
 75 79  2  0  0  0
 75 81  1  0  0  0
 76143  1  0  0  0
 76144  1  0  0  0
 76145  1  0  0  0
 77 78  1  0  0  0
 77146  1  0  0  0
 77147  1  0  0  0
 78 81  1  0  0  0
 78148  1  0  0  0
 78149  1  0  0  0
 80150  1  0  0  0
M  ISO  4   1 100  68 101  77 101  80 100
M  END
> <chiral flag>
0

> <version>
0

> <s_m_source_file>
/data/baiqing/PycharmProjects/Reinvent-master-3.2/result/LINK_invent/BTK/process_docking_weight1_custom_sum_contain_oxygen_bond_distance_aromatic_linkinvent_7_9_3/rearranged_h_0138.sdf

> <i_m_source_file_index>
68

> <r_mmod_Potential_Energy-OPLS-2005>
294.429046630859

> <r_mmod_Stretch_Energy-OPLS-2005>
232.652801513672

> <r_mmod_Bend_Energy-OPLS-2005>
279.278503417969

> <r_mmod_Torsional_Energy-OPLS-2005>
261.586608886719

> <r_mmod_Improper_Torsional_Energy-OPLS-2005>
8.86223793029785

> <r_mmod_Van_der_Waal_Energy-OPLS-2005>
126.637054443359

> <r_mmod_Electrostatic_Energy-OPLS-2005>
-586.496704101562

> <r_mmod_Solvation_Energy-OPLS-2005>
-221.498870849609

> <b_mmod_Minimization_Converged-OPLS-2005>
0

> <r_mmod_RMS_Derivative-OPLS-2005>
1.41139757633209

$$$$
68
                    3D
 Structure written by MMmdl.
176185  0  0  1  0            999 V2000
  -30.7549  -14.3939   20.6726 C   0  0  0  0  0  0
  -30.4190  -12.3038   19.3987 C   0  0  0  0  0  0
  -29.4845  -12.5235   18.1943 C   0  0  0  0  0  0
  -28.0095  -12.3758   18.6128 C   0  0  0  0  0  0
  -27.6640  -13.2041   19.8779 C   0  0  2  0  0  0
  -28.7027  -12.9573   20.9934 C   0  0  0  0  0  0
  -25.2599  -13.8163   20.5673 C   0  0  0  0  0  0
  -24.1843  -13.0442   20.9168 C   0  0  0  0  0  0
  -24.6392  -11.6908   20.8725 C   0  0  0  0  0  0
  -23.9058  -10.4294   21.0402 C   0  0  0  0  0  0
  -24.3610   -9.4212   21.9183 C   0  0  0  0  0  0
  -23.6290   -8.2246   22.0756 C   0  0  0  0  0  0
  -22.4273   -8.0282   21.3544 C   0  0  0  0  0  0
  -21.9905   -9.0255   20.4647 C   0  0  0  0  0  0
  -22.7232  -10.2133   20.3053 C   0  0  0  0  0  0
  -21.6851   -6.0739   22.5276 C   0  0  0  0  0  0
  -21.4012   -6.5640   23.8211 C   0  0  0  0  0  0
  -21.3656   -5.6791   24.9172 C   0  0  0  0  0  0
  -21.6043   -4.3056   24.7222 C   0  0  0  0  0  0
  -21.8822   -3.8149   23.4342 C   0  0  0  0  0  0
  -21.9195   -4.6967   22.3401 C   0  0  0  0  0  0
  -22.7869  -13.5246   21.1837 C   0  0  0  0  0  0
  -22.1663   -4.2153   21.0980 F   0  0  0  0  0  0
  -21.5629   -3.4541   25.7736 F   0  0  0  0  0  0
  -30.0417  -13.2580   20.4524 N   0  0  0  0  0  0
  -26.3034  -12.9326   20.3372 N   0  0  0  0  0  0
  -25.9317  -11.6487   20.5757 N   0  0  0  0  0  0
  -22.0506  -12.8232   22.0389 N   0  0  0  0  0  0
  -25.4339  -15.1877   20.4088 N   0  0  0  0  0  0
  -31.8020  -14.6614   20.0759 O   0  0  0  0  0  0
  -21.6635   -6.8882   21.4239 O   0  0  0  0  0  0
  -22.3559  -14.5558   20.6697 O   0  0  0  0  0  0
  -24.6139  -31.8683   23.2117 C   0  0  0  0  0  0
  -25.9043  -32.4818   23.8404 C   0  0  1  0  0  0
  -27.2400  -27.4488   20.0734 C   0  0  0  0  0  0
  -25.5913  -33.8620   24.2339 N   0  0  0  0  0  0
  -23.4002  -30.4923   21.5518 C   0  0  2  0  0  0
  -24.8452  -28.9592   20.1150 C   0  0  0  0  0  0
  -22.7388  -29.4668   22.5001 C   0  0  0  0  0  0
  -18.0264  -28.1368   22.8498 C   0  0  0  0  0  0
  -24.1485  -36.7304   23.2635 C   0  0  0  0  0  0
  -25.9282  -30.8341   21.3645 C   0  0  0  0  0  0
  -26.0040  -29.4694   20.7116 C   0  0  0  0  0  0
  -27.1992  -28.7166   20.6970 C   0  0  0  0  0  0
  -26.0522  -26.9383   19.4996 C   0  0  0  0  0  0
  -24.8625  -27.6898   19.5129 C   0  0  0  0  0  0
  -23.6072  -29.8246   20.1663 C   0  0  0  0  0  0
  -25.4105  -36.3108   24.0336 C   0  0  1  0  0  0
  -20.5849  -28.3656   23.1317 C   0  0  2  0  0  0
  -20.6760  -26.9395   22.5414 C   0  0  0  0  0  0
  -19.5740  -26.6380   21.5209 C   0  0  0  0  0  0
  -18.1914  -26.7921   22.1616 C   0  0  0  0  0  0
  -19.1511  -28.8831   23.2907 C   0  0  0  0  0  0
  -18.9444  -30.1439   23.8918 C   0  0  0  0  0  0
  -17.6448  -30.6582   24.0568 C   0  0  0  0  0  0
  -25.9036  -34.9474   23.5131 C   0  0  0  0  0  0
  -16.5340  -29.9083   23.6331 C   0  0  0  0  0  0
  -16.7254  -28.6493   23.0366 C   0  0  0  0  0  0
  -26.4478  -31.6592   25.0728 C   0  0  0  0  0  0
  -25.3750  -31.3677   26.1477 C   0  0  0  0  0  0
  -27.0308  -30.3037   24.6099 C   0  0  0  0  0  0
  -27.6067  -32.4301   25.7482 C   0  0  0  0  0  0
  -27.5587  -37.1794   24.8456 C   0  0  0  0  0  0
  -21.4118  -29.3034   22.3732 N   0  0  0  0  0  0
  -26.4283  -37.3798   23.9424 N   0  0  0  0  0  0
  -24.6656  -31.0791   22.1012 N   0  0  0  0  0  0
  -23.4158  -28.8213   23.3044 O   0  0  0  0  0  0
  -28.4251  -26.7414   20.0905 O   0  0  0  0  0  0
  -26.5592  -34.8921   22.4688 O   0  0  0  0  0  0
  -23.5334  -32.1441   23.7514 O   0  0  0  0  0  0
  -29.8426  -20.2274   19.7582 C   0  0  0  0  0  0
  -29.5857  -21.5875   19.4722 C   0  0  0  0  0  0
  -29.2231  -19.6904   20.8988 C   0  0  0  0  0  0
  -28.3971  -20.5019   21.6593 C   0  0  0  0  0  0
  -28.7382  -22.3411   20.3227 C   0  0  0  0  0  0
  -28.7035  -18.4764   22.8908 C   0  0  0  0  0  0
  -29.3178  -18.2873   21.4728 C   0  0  2  0  0  0
  -27.8533  -19.7791   22.8568 C   0  0  1  0  0  0
  -28.8502  -21.1645   26.9773 C   0  0  0  0  0  0
  -26.8898  -22.5742   26.1696 C   0  0  0  0  0  0
  -30.7502  -17.6998   21.4604 C   0  0  0  0  0  0
  -30.9496  -16.3593   22.2096 C   0  0  0  0  0  0
  -29.3850  -24.5724   19.4537 C   0  0  0  0  0  0
  -27.2290  -20.2054   25.2279 C   0  0  0  0  0  0
  -28.7519  -25.8957   18.9822 C   0  0  0  0  0  0
  -27.4093  -21.1506   26.4376 C   0  0  0  0  0  0
  -28.1512  -21.8077   21.4158 N   0  0  0  0  0  0
  -28.4177  -23.6839   20.0957 N   0  0  0  0  0  0
  -30.2603  -15.2091   21.6165 N   0  0  0  0  0  0
  -28.0013  -20.6355   24.0437 N   0  3  0  0  0  0
  -31.4610  -12.4099   19.0916 H   0  0  0  0  0  0
  -30.3259  -11.2833   19.7735 H   0  0  0  0  0  0
  -29.7202  -11.8137   17.4001 H   0  0  0  0  0  0
  -29.6499  -13.5179   17.7764 H   0  0  0  0  0  0
  -27.8221  -11.3178   18.8005 H   0  0  0  0  0  0
  -27.3540  -12.6586   17.7882 H   0  0  0  0  0  0
  -27.7189  -14.2567   19.5986 H   0  0  0  0  0  0
  -28.6716  -11.9149   21.3137 H   0  0  0  0  0  0
  -28.4470  -13.5350   21.8819 H   0  0  0  0  0  0
  -25.2757   -9.5689   22.4753 H   0  0  0  0  0  0
  -24.0002   -7.4639   22.7476 H   0  0  0  0  0  0
  -21.0837   -8.8774   19.8951 H   0  0  0  0  0  0
  -22.3698  -10.9672   19.6159 H   0  0  0  0  0  0
  -21.2000   -7.6145   23.9715 H   0  0  0  0  0  0
  -21.1474   -6.0521   25.9075 H   0  0  0  0  0  0
  -22.0604   -2.7611   23.2842 H   0  0  0  0  0  0
  -22.4116  -11.9881   22.4759 H   0  0  0  0  0  0
  -21.1128  -13.1264   22.2601 H   0  0  0  0  0  0
  -24.6673  -15.8445   20.5054 H   0  0  0  0  0  0
  -26.2898  -15.6216   20.0865 H   0  0  0  0  0  0
  -26.7113  -32.5525   23.1167 H   0  0  0  0  0  0
  -25.0116  -33.9791   25.0519 H   0  0  0  0  0  0
  -22.6897  -31.3093   21.4126 H   0  0  0  0  0  0
  -23.3756  -35.9625   23.3278 H   0  0  0  0  0  0
  -24.3593  -36.8940   22.2056 H   0  0  0  0  0  0
  -23.7221  -37.6496   23.6661 H   0  0  0  0  0  0
  -26.0412  -31.6006   20.5963 H   0  0  0  0  0  0
  -26.8162  -30.8855   21.9829 H   0  0  0  0  0  0
  -28.0957  -29.1099   21.1559 H   0  0  0  0  0  0
  -26.0154  -25.9536   19.0584 H   0  0  0  0  0  0
  -23.9657  -27.2830   19.0660 H   0  0  0  0  0  0
  -23.7126  -30.5987   19.4056 H   0  0  0  0  0  0
  -22.7315  -29.2435   19.8723 H   0  0  0  0  0  0
  -25.1273  -36.1969   25.0827 H   0  0  0  0  0  0
  -20.9944  -28.3228   24.1435 H   0  0  0  0  0  0
  -20.5662  -26.2269   23.3599 H   0  0  0  0  0  0
  -21.6635  -26.7444   22.1210 H   0  0  0  0  0  0
  -19.6906  -25.6293   21.1236 H   0  0  0  0  0  0
  -19.6683  -27.3196   20.6744 H   0  0  0  0  0  0
  -17.4189  -26.6687   21.4010 H   0  0  0  0  0  0
  -18.0305  -26.0039   22.8986 H   0  0  0  0  0  0
  -19.7920  -30.7252   24.2296 H   0  0  0  0  0  0
  -17.5001  -31.6265   24.5161 H   0  0  0  0  0  0
  -15.5343  -30.2998   23.7636 H   0  0  0  0  0  0
  -15.8651  -28.0812   22.7092 H   0  0  0  0  0  0
  -24.5952  -30.6983   25.7818 H   0  0  0  0  0  0
  -24.8901  -32.2814   26.4927 H   0  0  0  0  0  0
  -25.8121  -30.8863   27.0235 H   0  0  0  0  0  0
  -26.2843  -29.6789   24.1179 H   0  0  0  0  0  0
  -27.4107  -29.7284   25.4552 H   0  0  0  0  0  0
  -27.8662  -30.4356   23.9218 H   0  0  0  0  0  0
  -27.2713  -33.3603   26.2079 H   0  0  0  0  0  0
  -28.3870  -32.6854   25.0301 H   0  0  0  0  0  0
  -28.0737  -31.8405   26.5381 H   0  0  0  0  0  0
  -28.2566  -38.0131   24.7575 H   0  0  0  0  0  0
  -28.1124  -36.2669   24.6187 H   0  0  0  0  0  0
  -27.2318  -37.1331   25.8859 H   0  0  0  0  0  0
  -20.9275  -29.8753   21.6955 H   0  0  0  0  0  0
  -26.0165  -38.2862   24.1474 H   0  0  0  0  0  0
  -30.4870  -19.6320   19.1274 H   0  0  0  0  0  0
  -30.0388  -22.0155   18.5903 H   0  0  0  0  0  0
  -29.5223  -18.6159   23.5976 H   0  0  0  0  0  0
  -28.1396  -17.6080   23.2325 H   0  0  0  0  0  0
  -28.6598  -17.6473   20.8821 H   0  0  0  0  0  0
  -26.8034  -19.5559   22.6605 H   0  0  0  0  0  0
  -28.9125  -21.7385   27.9028 H   0  0  0  0  0  0
  -29.5487  -21.6138   26.2712 H   0  0  0  0  0  0
  -29.2004  -20.1555   27.2001 H   0  0  0  0  0  0
  -26.9251  -23.1779   27.0774 H   0  0  0  0  0  0
  -25.8527  -22.5615   25.8311 H   0  0  0  0  0  0
  -27.4820  -23.0922   25.4149 H   0  0  0  0  0  0
  -31.4236  -18.4294   21.9129 H   0  0  0  0  0  0
  -31.0928  -17.5885   20.4309 H   0  0  0  0  0  0
  -30.6212  -16.4550   23.2445 H   0  0  0  0  0  0
  -32.0178  -16.1415   22.2693 H   0  0  0  0  0  0
  -30.2098  -24.7709   20.1391 H   0  0  0  0  0  0
  -29.8159  -24.0905   18.5778 H   0  0  0  0  0  0
  -26.1715  -20.1480   24.9642 H   0  0  0  0  0  0
  -27.5286  -19.1935   25.5059 H   0  0  0  0  0  0
  -27.9407  -25.6941   18.2854 H   0  0  0  0  0  0
  -29.4941  -26.4387   18.3961 H   0  0  0  0  0  0
  -26.7865  -20.7403   27.2345 H   0  0  0  0  0  0
  -27.8309  -24.1224   20.7962 H   0  0  0  0  0  0
  -29.4025  -14.9073   22.0550 H   0  0  0  0  0  0
  -27.6823  -21.5396   23.7293 H   0  0  0  0  0  0
  -28.9803  -20.7231   24.2535 H   0  0  0  0  0  0
  1 25  1  0  0  0
  1 30  2  0  0  0
  1 89  1  0  0  0
  2  3  1  0  0  0
  2 25  1  0  0  0
  2 91  1  0  0  0
  2 92  1  0  0  0
  3  4  1  0  0  0
  3 93  1  0  0  0
  3 94  1  0  0  0
  4  5  1  0  0  0
  4 95  1  0  0  0
  4 96  1  0  0  0
  5  6  1  0  0  0
  5 26  1  0  0  0
  5 97  1  0  0  0
  6 25  1  0  0  0
  6 98  1  0  0  0
  6 99  1  0  0  0
  7  8  2  0  0  0
  7 26  1  0  0  0
  7 29  1  0  0  0
  8  9  1  0  0  0
  8 22  1  0  0  0
  9 10  1  0  0  0
  9 27  2  0  0  0
 10 11  2  0  0  0
 10 15  1  0  0  0
 11 12  1  0  0  0
 11100  1  0  0  0
 12 13  2  0  0  0
 12101  1  0  0  0
 13 14  1  0  0  0
 13 31  1  0  0  0
 14 15  2  0  0  0
 14102  1  0  0  0
 15103  1  0  0  0
 16 17  2  0  0  0
 16 21  1  0  0  0
 16 31  1  0  0  0
 17 18  1  0  0  0
 17104  1  0  0  0
 18 19  2  0  0  0
 18105  1  0  0  0
 19 20  1  0  0  0
 19 24  1  0  0  0
 20 21  2  0  0  0
 20106  1  0  0  0
 21 23  1  0  0  0
 22 28  1  0  0  0
 22 32  2  0  0  0
 26 27  1  0  0  0
 28107  1  0  0  0
 28108  1  0  0  0
 29109  1  0  0  0
 29110  1  0  0  0
 33 34  1  0  0  0
 33 66  1  0  0  0
 33 70  2  0  0  0
 34 36  1  0  0  0
 34 59  1  0  0  0
 34111  1  0  0  0
 35 44  2  0  0  0
 35 45  1  0  0  0
 35 68  1  0  0  0
 36 56  1  0  0  0
 36112  1  0  0  0
 37 39  1  0  0  0
 37 47  1  0  0  0
 37 66  1  0  0  0
 37113  1  0  0  0
 38 43  2  0  0  0
 38 46  1  0  0  0
 38 47  1  0  0  0
 39 64  1  0  0  0
 39 67  2  0  0  0
 40 52  1  0  0  0
 40 53  2  0  0  0
 40 58  1  0  0  0
 41114  1  0  0  0
 41115  1  0  0  0
 41116  1  0  0  0
 41 48  1  0  0  0
 42 43  1  0  0  0
 42 66  1  0  0  0
 42117  1  0  0  0
 42118  1  0  0  0
 43 44  1  0  0  0
 44119  1  0  0  0
 45 46  2  0  0  0
 45120  1  0  0  0
 46121  1  0  0  0
 47122  1  0  0  0
 47123  1  0  0  0
 48 56  1  0  0  0
 48 65  1  0  0  0
 48124  1  0  0  0
 49 50  1  0  0  0
 49 53  1  0  0  0
 49 64  1  0  0  0
 49125  1  0  0  0
 50 51  1  0  0  0
 50126  1  0  0  0
 50127  1  0  0  0
 51 52  1  0  0  0
 51128  1  0  0  0
 51129  1  0  0  0
 52130  1  0  0  0
 52131  1  0  0  0
 53 54  1  0  0  0
 54 55  2  0  0  0
 54132  1  0  0  0
 55 57  1  0  0  0
 55133  1  0  0  0
 56 69  2  0  0  0
 57 58  2  0  0  0
 57134  1  0  0  0
 58135  1  0  0  0
 59 60  1  0  0  0
 59 61  1  0  0  0
 59 62  1  0  0  0
 60136  1  0  0  0
 60137  1  0  0  0
 60138  1  0  0  0
 61139  1  0  0  0
 61140  1  0  0  0
 61141  1  0  0  0
 62142  1  0  0  0
 62143  1  0  0  0
 62144  1  0  0  0
 63 65  1  0  0  0
 63145  1  0  0  0
 63146  1  0  0  0
 63147  1  0  0  0
 64148  1  0  0  0
 65149  1  0  0  0
 68 85  1  0  0  0
 71 72  2  0  0  0
 71 73  1  0  0  0
 71150  1  0  0  0
 72 75  1  0  0  0
 72151  1  0  0  0
 73 74  2  0  0  0
 73 77  1  0  0  0
 74 78  1  0  0  0
 74 87  1  0  0  0
 75 87  2  0  0  0
 75 88  1  0  0  0
 76 77  1  0  0  0
 76 78  1  0  0  0
 76152  1  0  0  0
 76153  1  0  0  0
 77 81  1  0  0  0
 77154  1  0  0  0
 78 90  1  0  0  0
 78155  1  0  0  0
 79156  1  0  0  0
 79157  1  0  0  0
 79158  1  0  0  0
 79 86  1  0  0  0
 80 86  1  0  0  0
 80159  1  0  0  0
 80160  1  0  0  0
 80161  1  0  0  0
 81 82  1  0  0  0
 81162  1  0  0  0
 81163  1  0  0  0
 82 89  1  0  0  0
 82164  1  0  0  0
 82165  1  0  0  0
 83 85  1  0  0  0
 83 88  1  0  0  0
 83166  1  0  0  0
 83167  1  0  0  0
 84 86  1  0  0  0
 84 90  1  0  0  0
 84168  1  0  0  0
 84169  1  0  0  0
 85170  1  0  0  0
 85171  1  0  0  0
 86172  1  0  0  0
 88173  1  0  0  0
 89174  1  0  0  0
 90175  1  0  0  0
 90176  1  0  0  0
M  CHG  1  90   1
M  ISO  4   1 100  68 101  85 101  89 100
M  END
> <chiral flag>
0

> <version>
0

> <s_m_source_file>
/data/baiqing/PycharmProjects/Reinvent-master-3.2/result/LINK_invent/BTK/process_docking_weight1_custom_sum_contain_oxygen_bond_distance_aromatic_linkinvent_7_9_3/rearranged_h_0138.sdf

> <i_m_source_file_index>
69

> <r_mmod_Potential_Energy-OPLS-2005>
-518.208190917969

> <r_mmod_Stretch_Energy-OPLS-2005>
36.4055557250977

> <r_mmod_Bend_Energy-OPLS-2005>
158.039199829102

> <r_mmod_Torsional_Energy-OPLS-2005>
240.971633911133

> <r_mmod_Improper_Torsional_Energy-OPLS-2005>
4.84507417678833

> <r_mmod_Van_der_Waal_Energy-OPLS-2005>
150.487716674805

> <r_mmod_Electrostatic_Energy-OPLS-2005>
-661.148132324219

> <r_mmod_Solvation_Energy-OPLS-2005>
-456.130096435547

> <b_mmod_Minimization_Converged-OPLS-2005>
0

> <r_mmod_RMS_Derivative-OPLS-2005>
0.75233405828476

$$$$
69
                    3D
 Structure written by MMmdl.
146155  0  0  1  0            999 V2000
  -30.3638  -15.4790   20.3509 C   0  0  0  0  0  0
  -30.4318  -12.9696   19.5215 C   0  0  0  0  0  0
  -29.5410  -12.6153   18.3008 C   0  0  0  0  0  0
  -28.1043  -12.2931   18.7432 C   0  0  0  0  0  0
  -27.6000  -13.2917   19.8117 C   0  0  2  0  0  0
  -28.6278  -13.5645   20.9318 C   0  0  0  0  0  0
  -25.2349  -13.8260   20.5779 C   0  0  0  0  0  0
  -24.1722  -13.0429   20.9280 C   0  0  0  0  0  0
  -24.6403  -11.6934   20.8767 C   0  0  0  0  0  0
  -23.9103  -10.4289   21.0403 C   0  0  0  0  0  0
  -24.3643   -9.4202   21.9183 C   0  0  0  0  0  0
  -23.6307   -8.2242   22.0754 C   0  0  0  0  0  0
  -22.4288   -8.0283   21.3544 C   0  0  0  0  0  0
  -21.9933   -9.0259   20.4644 C   0  0  0  0  0  0
  -22.7273  -10.2131   20.3052 C   0  0  0  0  0  0
  -21.6857   -6.0738   22.5279 C   0  0  0  0  0  0
  -21.4017   -6.5641   23.8213 C   0  0  0  0  0  0
  -21.3660   -5.6793   24.9174 C   0  0  0  0  0  0
  -21.6044   -4.3056   24.7224 C   0  0  0  0  0  0
  -21.8819   -3.8148   23.4345 C   0  0  0  0  0  0
  -21.9194   -4.6965   22.3402 C   0  0  0  0  0  0
  -22.7736  -13.5171   21.1918 C   0  0  0  0  0  0
  -22.1662   -4.2151   21.0979 F   0  0  0  0  0  0
  -21.5628   -3.4539   25.7736 F   0  0  0  0  0  0
  -29.8194  -14.1412   20.2759 N   0  0  0  0  0  0
  -26.2782  -12.9563   20.3219 N   0  0  0  0  0  0
  -25.9343  -11.6652   20.5708 N   0  0  0  0  0  0
  -22.0399  -12.8149   22.0470 N   0  0  0  0  0  0
  -25.3953  -15.2000   20.4226 N   0  0  0  0  0  0
  -31.5999  -15.4300   20.2204 O   0  0  0  0  0  0
  -21.6646   -6.8884   21.4242 O   0  0  0  0  0  0
  -22.3414  -14.5471   20.6756 O   0  0  0  0  0  0
  -24.6759  -31.8094   23.1589 C   0  0  0  0  0  0
  -25.9379  -32.4516   23.8104 C   0  0  1  0  0  0
  -27.2209  -26.7893   20.2079 C   0  0  0  0  0  0
  -25.5991  -33.8336   24.1999 N   0  0  0  0  0  0
  -23.4972  -30.4154   21.5118 C   0  0  2  0  0  0
  -24.9516  -28.7720   20.1209 C   0  0  0  0  0  0
  -22.7728  -29.4368   22.4746 C   0  0  0  0  0  0
  -18.0332  -28.1415   22.8460 C   0  0  0  0  0  0
  -24.1495  -36.7175   23.2651 C   0  0  0  0  0  0
  -26.0740  -30.5719   21.4088 C   0  0  0  0  0  0
  -26.1406  -29.1453   20.7593 C   0  0  0  0  0  0
  -27.2668  -28.1812   20.7680 C   0  0  0  0  0  0
  -25.9979  -26.6015   19.5203 C   0  0  0  0  0  0
  -24.9136  -27.5235   19.4786 C   0  0  0  0  0  0
  -23.7456  -29.7185   20.1446 C   0  0  0  0  0  0
  -25.4142  -36.2924   24.0288 C   0  0  1  0  0  0
  -20.5964  -28.3770   23.1161 C   0  0  2  0  0  0
  -20.6804  -26.9438   22.5402 C   0  0  0  0  0  0
  -19.5778  -26.6374   21.5215 C   0  0  0  0  0  0
  -18.1961  -26.7945   22.1621 C   0  0  0  0  0  0
  -19.1597  -28.8916   23.2793 C   0  0  0  0  0  0
  -18.9504  -30.1501   23.8835 C   0  0  0  0  0  0
  -17.6495  -30.6601   24.0551 C   0  0  0  0  0  0
  -25.9116  -34.9311   23.4974 C   0  0  0  0  0  0
  -16.5385  -29.9084   23.6347 C   0  0  0  0  0  0
  -16.7313  -28.6506   23.0365 C   0  0  0  0  0  0
  -26.4583  -31.6514   25.0689 C   0  0  0  0  0  0
  -25.3672  -31.3802   26.1319 C   0  0  0  0  0  0
  -27.0502  -30.2864   24.6520 C   0  0  0  0  0  0
  -27.6046  -32.4356   25.7504 C   0  0  0  0  0  0
  -27.5565  -37.1746   24.8468 C   0  0  0  0  0  0
  -21.4384  -29.3037   22.3496 N   0  0  0  0  0  0
  -26.4276  -37.3673   23.9405 N   0  0  0  0  0  0
  -24.7719  -30.9627   22.0795 N   0  0  0  0  0  0
  -23.4212  -28.7955   23.3049 O   0  0  0  0  0  0
  -28.2139  -25.6258   20.2302 O   0  0  0  0  0  0
  -26.5744  -34.8872   22.4583 O   0  0  0  0  0  0
  -23.5798  -32.1126   23.6600 O   0  0  0  0  0  0
  -31.7179  -20.0138   21.3720 C   0  0  0  0  0  0
  -31.0997  -21.2805   21.1527 C   0  0  0  0  0  0
  -31.1529  -18.7258   21.0651 C   0  0  0  0  0  0
  -29.8151  -21.2464   20.6139 C   0  0  0  0  0  0
  -29.8692  -18.4524   20.4954 C   0  0  0  0  0  0
  -29.2043  -19.8927   20.2869 C   0  0  0  0  0  0
  -28.7429  -22.2381   19.9611 C   0  0  2  0  0  0
  -27.9950  -23.9269   20.4058 C   0  0  0  0  0  0
  -29.6019  -16.8087   20.3270 N   0  0  0  0  0  0
  -28.1016  -20.7477   19.8194 O   0  0  0  0  0  0
  -31.4331  -13.2143   19.1650 H   0  0  0  0  0  0
  -30.5612  -12.1045   20.1740 H   0  0  0  0  0  0
  -29.9637  -11.7746   17.7492 H   0  0  0  0  0  0
  -29.5267  -13.4600   17.6103 H   0  0  0  0  0  0
  -28.1046  -11.2850   19.1595 H   0  0  0  0  0  0
  -27.4322  -12.2715   17.8845 H   0  0  0  0  0  0
  -27.4807  -14.2300   19.2683 H   0  0  0  0  0  0
  -28.8560  -12.6624   21.5014 H   0  0  0  0  0  0
  -28.2265  -14.2878   21.6434 H   0  0  0  0  0  0
  -25.2782   -9.5677   22.4767 H   0  0  0  0  0  0
  -24.0009   -7.4634   22.7478 H   0  0  0  0  0  0
  -21.0863   -8.8784   19.8949 H   0  0  0  0  0  0
  -22.3731  -10.9673   19.6164 H   0  0  0  0  0  0
  -21.2011   -7.6149   23.9717 H   0  0  0  0  0  0
  -21.1482   -6.0522   25.9077 H   0  0  0  0  0  0
  -22.0596   -2.7610   23.2845 H   0  0  0  0  0  0
  -22.4037  -11.9822   22.4862 H   0  0  0  0  0  0
  -21.1007  -13.1149   22.2671 H   0  0  0  0  0  0
  -24.6237  -15.8480   20.5394 H   0  0  0  0  0  0
  -26.2358  -15.6450   20.0792 H   0  0  0  0  0  0
  -26.7455  -32.5014   23.0816 H   0  0  0  0  0  0
  -25.0065  -33.9390   25.0102 H   0  0  0  0  0  0
  -22.8179  -31.2505   21.3289 H   0  0  0  0  0  0
  -23.3769  -35.9493   23.3281 H   0  0  0  0  0  0
  -24.3564  -36.8862   22.2071 H   0  0  0  0  0  0
  -23.7247  -37.6346   23.6740 H   0  0  0  0  0  0
  -26.2667  -31.3024   20.6220 H   0  0  0  0  0  0
  -26.9290  -30.6370   22.0696 H   0  0  0  0  0  0
  -28.1691  -28.4750   21.2856 H   0  0  0  0  0  0
  -25.8474  -25.6567   19.0183 H   0  0  0  0  0  0
  -24.0145  -27.2304   18.9541 H   0  0  0  0  0  0
  -23.9154  -30.4809   19.3835 H   0  0  0  0  0  0
  -22.8518  -29.1815   19.8223 H   0  0  0  0  0  0
  -25.1349  -36.1700   25.0779 H   0  0  0  0  0  0
  -21.0046  -28.3387   24.1286 H   0  0  0  0  0  0
  -20.5675  -26.2391   23.3656 H   0  0  0  0  0  0
  -21.6666  -26.7395   22.1214 H   0  0  0  0  0  0
  -19.6936  -25.6268   21.1285 H   0  0  0  0  0  0
  -19.6719  -27.3151   20.6718 H   0  0  0  0  0  0
  -17.4230  -26.6687   21.4025 H   0  0  0  0  0  0
  -18.0351  -26.0103   22.9032 H   0  0  0  0  0  0
  -19.7979  -30.7333   24.2178 H   0  0  0  0  0  0
  -17.5046  -31.6275   24.5164 H   0  0  0  0  0  0
  -15.5382  -30.2965   23.7708 H   0  0  0  0  0  0
  -15.8715  -28.0803   22.7116 H   0  0  0  0  0  0
  -24.5882  -30.7123   25.7622 H   0  0  0  0  0  0
  -24.8830  -32.3013   26.4571 H   0  0  0  0  0  0
  -25.7871  -30.9083   27.0211 H   0  0  0  0  0  0
  -26.3200  -29.6503   24.1507 H   0  0  0  0  0  0
  -27.3962  -29.7277   25.5227 H   0  0  0  0  0  0
  -27.9169  -30.4013   24.0008 H   0  0  0  0  0  0
  -27.2594  -33.3713   26.1911 H   0  0  0  0  0  0
  -28.3945  -32.6827   25.0398 H   0  0  0  0  0  0
  -28.0619  -31.8599   26.5561 H   0  0  0  0  0  0
  -28.2561  -38.0061   24.7504 H   0  0  0  0  0  0
  -28.1082  -36.2583   24.6311 H   0  0  0  0  0  0
  -27.2277  -37.1403   25.8869 H   0  0  0  0  0  0
  -20.9670  -29.8706   21.6586 H   0  0  0  0  0  0
  -26.0112  -38.2727   24.1410 H   0  0  0  0  0  0
  -32.7154  -20.0225   21.7896 H   0  0  0  0  0  0
  -31.6100  -22.2118   21.3565 H   0  0  0  0  0  0
  -31.7824  -17.8793   21.2983 H   0  0  0  0  0  0
  -29.1952  -22.4421   18.9901 H   0  0  0  0  0  0
  -27.7383  -23.8445   21.4616 H   0  0  0  0  0  0
  -27.0224  -23.8582   19.9208 H   0  0  0  0  0  0
  -28.6186  -16.6151   20.2075 H   0  0  0  0  0  0
  1 25  1  0  0  0
  1 30  2  0  0  0
  1 79  1  0  0  0
  2  3  1  0  0  0
  2 25  1  0  0  0
  2 81  1  0  0  0
  2 82  1  0  0  0
  3  4  1  0  0  0
  3 83  1  0  0  0
  3 84  1  0  0  0
  4  5  1  0  0  0
  4 85  1  0  0  0
  4 86  1  0  0  0
  5  6  1  0  0  0
  5 26  1  0  0  0
  5 87  1  0  0  0
  6 25  1  0  0  0
  6 88  1  0  0  0
  6 89  1  0  0  0
  7  8  2  0  0  0
  7 26  1  0  0  0
  7 29  1  0  0  0
  8  9  1  0  0  0
  8 22  1  0  0  0
  9 10  1  0  0  0
  9 27  2  0  0  0
 10 11  2  0  0  0
 10 15  1  0  0  0
 11 12  1  0  0  0
 11 90  1  0  0  0
 12 13  2  0  0  0
 12 91  1  0  0  0
 13 14  1  0  0  0
 13 31  1  0  0  0
 14 15  2  0  0  0
 14 92  1  0  0  0
 15 93  1  0  0  0
 16 17  2  0  0  0
 16 21  1  0  0  0
 16 31  1  0  0  0
 17 18  1  0  0  0
 17 94  1  0  0  0
 18 19  2  0  0  0
 18 95  1  0  0  0
 19 20  1  0  0  0
 19 24  1  0  0  0
 20 21  2  0  0  0
 20 96  1  0  0  0
 21 23  1  0  0  0
 22 28  1  0  0  0
 22 32  2  0  0  0
 26 27  1  0  0  0
 28 97  1  0  0  0
 28 98  1  0  0  0
 29 99  1  0  0  0
 29100  1  0  0  0
 33 34  1  0  0  0
 33 66  1  0  0  0
 33 70  2  0  0  0
 34 36  1  0  0  0
 34 59  1  0  0  0
 34101  1  0  0  0
 35 44  2  0  0  0
 35 45  1  0  0  0
 35 68  1  0  0  0
 36 56  1  0  0  0
 36102  1  0  0  0
 37 39  1  0  0  0
 37 47  1  0  0  0
 37 66  1  0  0  0
 37103  1  0  0  0
 38 43  2  0  0  0
 38 46  1  0  0  0
 38 47  1  0  0  0
 39 64  1  0  0  0
 39 67  2  0  0  0
 40 52  1  0  0  0
 40 53  2  0  0  0
 40 58  1  0  0  0
 41104  1  0  0  0
 41105  1  0  0  0
 41106  1  0  0  0
 41 48  1  0  0  0
 42 43  1  0  0  0
 42 66  1  0  0  0
 42107  1  0  0  0
 42108  1  0  0  0
 43 44  1  0  0  0
 44109  1  0  0  0
 45 46  2  0  0  0
 45110  1  0  0  0
 46111  1  0  0  0
 47112  1  0  0  0
 47113  1  0  0  0
 48 56  1  0  0  0
 48 65  1  0  0  0
 48114  1  0  0  0
 49 50  1  0  0  0
 49 53  1  0  0  0
 49 64  1  0  0  0
 49115  1  0  0  0
 50 51  1  0  0  0
 50116  1  0  0  0
 50117  1  0  0  0
 51 52  1  0  0  0
 51118  1  0  0  0
 51119  1  0  0  0
 52120  1  0  0  0
 52121  1  0  0  0
 53 54  1  0  0  0
 54 55  2  0  0  0
 54122  1  0  0  0
 55 57  1  0  0  0
 55123  1  0  0  0
 56 69  2  0  0  0
 57 58  2  0  0  0
 57124  1  0  0  0
 58125  1  0  0  0
 59 60  1  0  0  0
 59 61  1  0  0  0
 59 62  1  0  0  0
 60126  1  0  0  0
 60127  1  0  0  0
 60128  1  0  0  0
 61129  1  0  0  0
 61130  1  0  0  0
 61131  1  0  0  0
 62132  1  0  0  0
 62133  1  0  0  0
 62134  1  0  0  0
 63 65  1  0  0  0
 63135  1  0  0  0
 63136  1  0  0  0
 63137  1  0  0  0
 64138  1  0  0  0
 65139  1  0  0  0
 68 78  1  0  0  0
 71 72  2  0  0  0
 71 73  1  0  0  0
 71140  1  0  0  0
 72 74  1  0  0  0
 72141  1  0  0  0
 73 75  2  0  0  0
 73142  1  0  0  0
 74 76  2  0  0  0
 74 77  1  0  0  0
 75 76  1  0  0  0
 75 79  1  0  0  0
 76 80  1  0  0  0
 77 78  1  0  0  0
 77 80  1  0  0  0
 77143  1  0  0  0
 78144  1  0  0  0
 78145  1  0  0  0
 79146  1  0  0  0
M  ISO  4   1 100  68 101  78 101  79 100
M  END
> <chiral flag>
0

> <version>
0

> <s_m_source_file>
/data/baiqing/PycharmProjects/Reinvent-master-3.2/result/LINK_invent/BTK/process_docking_weight1_custom_sum_contain_oxygen_bond_distance_aromatic_linkinvent_7_9_3/rearranged_h_0138.sdf

> <i_m_source_file_index>
70

> <r_mmod_Potential_Energy-OPLS-2005>
2268.99560546875

> <r_mmod_Stretch_Energy-OPLS-2005>
803.973815917969

> <r_mmod_Bend_Energy-OPLS-2005>
985.927124023438

> <r_mmod_Torsional_Energy-OPLS-2005>
237.906799316406

> <r_mmod_Improper_Torsional_Energy-OPLS-2005>
6.84732246398926

> <r_mmod_Van_der_Waal_Energy-OPLS-2005>
123.65795135498

> <r_mmod_Electrostatic_Energy-OPLS-2005>
-363.204986572266

> <r_mmod_Solvation_Energy-OPLS-2005>
-223.476898193359

> <b_mmod_Minimization_Converged-OPLS-2005>
0

> <r_mmod_RMS_Derivative-OPLS-2005>
0.136111661791801

$$$$
70
                    3D
 Structure written by MMmdl.
154162  0  0  1  0            999 V2000
  -30.6927  -14.6011   20.4959 C   0  0  0  0  0  0
  -30.4243  -12.3680   19.4635 C   0  0  0  0  0  0
  -29.5011  -12.4817   18.2328 C   0  0  0  0  0  0
  -28.0304  -12.3217   18.6540 C   0  0  0  0  0  0
  -27.6549  -13.2182   19.8637 C   0  0  2  0  0  0
  -28.6993  -13.1197   20.9997 C   0  0  0  0  0  0
  -25.2572  -13.8193   20.5733 C   0  0  0  0  0  0
  -24.1850  -13.0449   20.9235 C   0  0  0  0  0  0
  -24.6432  -11.6928   20.8797 C   0  0  0  0  0  0
  -23.9098  -10.4307   21.0473 C   0  0  0  0  0  0
  -24.3630   -9.4210   21.9249 C   0  0  0  0  0  0
  -23.6309   -8.2245   22.0791 C   0  0  0  0  0  0
  -22.4295   -8.0306   21.3571 C   0  0  0  0  0  0
  -21.9957   -9.0286   20.4666 C   0  0  0  0  0  0
  -22.7284  -10.2168   20.3103 C   0  0  0  0  0  0
  -21.6848   -6.0767   22.5291 C   0  0  0  0  0  0
  -21.4003   -6.5657   23.8225 C   0  0  0  0  0  0
  -21.3657   -5.6808   24.9191 C   0  0  0  0  0  0
  -21.6034   -4.3075   24.7234 C   0  0  0  0  0  0
  -21.8819   -3.8173   23.4359 C   0  0  0  0  0  0
  -21.9191   -4.6995   22.3410 C   0  0  0  0  0  0
  -22.7867  -13.5250   21.1850 C   0  0  0  0  0  0
  -22.1665   -4.2187   21.0991 F   0  0  0  0  0  0
  -21.5623   -3.4555   25.7738 F   0  0  0  0  0  0
  -30.0187  -13.4138   20.4236 N   0  0  0  0  0  0
  -26.3016  -12.9384   20.3370 N   0  0  0  0  0  0
  -25.9361  -11.6540   20.5825 N   0  0  0  0  0  0
  -22.0482  -12.8255   22.0387 N   0  0  0  0  0  0
  -25.4276  -15.1921   20.4145 N   0  0  0  0  0  0
  -31.8563  -14.7049   20.1030 O   0  0  0  0  0  0
  -21.6637   -6.8922   21.4262 O   0  0  0  0  0  0
  -22.3585  -14.5573   20.6704 O   0  0  0  0  0  0
  -24.6177  -31.8625   23.2088 C   0  0  0  0  0  0
  -25.9060  -32.4784   23.8379 C   0  0  1  0  0  0
  -27.2231  -27.3715   20.0977 C   0  0  0  0  0  0
  -25.5913  -33.8581   24.2313 N   0  0  0  0  0  0
  -23.4084  -30.4904   21.5463 C   0  0  2  0  0  0
  -24.8540  -28.9561   20.1086 C   0  0  0  0  0  0
  -22.7410  -29.4643   22.4913 C   0  0  0  0  0  0
  -18.0280  -28.1360   22.8461 C   0  0  0  0  0  0
  -24.1472  -36.7297   23.2641 C   0  0  0  0  0  0
  -25.9450  -30.8074   21.3741 C   0  0  0  0  0  0
  -26.0195  -29.4406   20.7154 C   0  0  0  0  0  0
  -27.2047  -28.6565   20.7073 C   0  0  0  0  0  0
  -26.0409  -26.9366   19.4527 C   0  0  0  0  0  0
  -24.8637  -27.7074   19.4705 C   0  0  0  0  0  0
  -23.6203  -29.8311   20.1594 C   0  0  0  0  0  0
  -25.4101  -36.3085   24.0316 C   0  0  1  0  0  0
  -20.5869  -28.3673   23.1259 C   0  0  2  0  0  0
  -20.6741  -26.9405   22.5381 C   0  0  0  0  0  0
  -19.5736  -26.6378   21.5166 C   0  0  0  0  0  0
  -18.1917  -26.7908   22.1583 C   0  0  0  0  0  0
  -19.1525  -28.8829   23.2869 C   0  0  0  0  0  0
  -18.9465  -30.1422   23.8892 C   0  0  0  0  0  0
  -17.6476  -30.6569   24.0550 C   0  0  0  0  0  0
  -25.9041  -34.9447   23.5117 C   0  0  0  0  0  0
  -16.5359  -29.9083   23.6329 C   0  0  0  0  0  0
  -16.7268  -28.6493   23.0351 C   0  0  0  0  0  0
  -26.4491  -31.6586   25.0727 C   0  0  0  0  0  0
  -25.3759  -31.3672   26.1467 C   0  0  0  0  0  0
  -27.0368  -30.3025   24.6166 C   0  0  0  0  0  0
  -27.6037  -32.4330   25.7526 C   0  0  0  0  0  0
  -27.5568  -37.1806   24.8471 C   0  0  0  0  0  0
  -21.4139  -29.3040   22.3649 N   0  0  0  0  0  0
  -26.4286  -37.3773   23.9412 N   0  0  0  0  0  0
  -24.6753  -31.0700   22.0997 N   0  0  0  0  0  0
  -23.4157  -28.8147   23.2945 O   0  0  0  0  0  0
  -28.3624  -26.5682   20.1592 O   0  0  0  0  0  0
  -26.5623  -34.8893   22.4687 O   0  0  0  0  0  0
  -23.5361  -32.1423   23.7435 O   0  0  0  0  0  0
  -29.1832  -24.2381   20.7335 C   0  0  0  0  0  0
  -30.6118  -22.1746   20.8443 C   0  0  0  0  0  0
  -28.5238  -21.8008   20.6588 C   0  0  0  0  0  0
  -29.7189  -20.9496   21.1688 C   0  0  0  0  0  0
  -28.2298  -25.1317   19.8834 C   0  0  0  0  0  0
  -30.4562  -17.1183   20.4744 C   0  0  0  0  0  0
  -29.5750  -18.3606   20.9141 C   0  0  0  0  0  0
  -29.4448  -22.8979   20.3185 N   0  0  0  0  0  0
  -29.9809  -15.7276   20.7898 N   0  0  0  0  0  0
  -30.0849  -19.6952   20.4106 N   0  3  0  0  0  0
  -29.7877  -24.7312   21.6894 O   0  0  0  0  0  0
  -31.4684  -12.4571   19.1587 H   0  0  0  0  0  0
  -30.3312  -11.3835   19.9259 H   0  0  0  0  0  0
  -29.7636  -11.7222   17.4948 H   0  0  0  0  0  0
  -29.6438  -13.4446   17.7412 H   0  0  0  0  0  0
  -27.8808  -11.2734   18.9164 H   0  0  0  0  0  0
  -27.3676  -12.5220   17.8121 H   0  0  0  0  0  0
  -27.6653  -14.2437   19.4953 H   0  0  0  0  0  0
  -28.6973  -12.1248   21.4476 H   0  0  0  0  0  0
  -28.4547  -13.8158   21.8029 H   0  0  0  0  0  0
  -25.2775   -9.5667   22.4835 H   0  0  0  0  0  0
  -24.0010   -7.4636   22.7524 H   0  0  0  0  0  0
  -21.0905   -8.8828   19.8968 H   0  0  0  0  0  0
  -22.3785  -10.9724   19.6208 H   0  0  0  0  0  0
  -21.1985   -7.6171   23.9747 H   0  0  0  0  0  0
  -21.1471   -6.0540   25.9100 H   0  0  0  0  0  0
  -22.0594   -2.7636   23.2847 H   0  0  0  0  0  0
  -22.4080  -11.9865   22.4706 H   0  0  0  0  0  0
  -21.1120  -13.1321   22.2599 H   0  0  0  0  0  0
  -24.6533  -15.8389   20.5174 H   0  0  0  0  0  0
  -26.2695  -15.6333   20.0648 H   0  0  0  0  0  0
  -26.7112  -32.5467   23.1115 H   0  0  0  0  0  0
  -25.0056  -33.9746   25.0448 H   0  0  0  0  0  0
  -22.7004  -31.3103   21.4087 H   0  0  0  0  0  0
  -23.3735  -35.9636   23.3285 H   0  0  0  0  0  0
  -24.3566  -36.8956   22.2064 H   0  0  0  0  0  0
  -23.7222  -37.6475   23.6695 H   0  0  0  0  0  0
  -26.0702  -31.5723   20.6072 H   0  0  0  0  0  0
  -26.8262  -30.8553   22.0019 H   0  0  0  0  0  0
  -28.0978  -29.0215   21.1952 H   0  0  0  0  0  0
  -25.9944  -25.9949   18.9243 H   0  0  0  0  0  0
  -23.9731  -27.3396   18.9806 H   0  0  0  0  0  0
  -23.7317  -30.6115   19.4048 H   0  0  0  0  0  0
  -22.7390  -29.2579   19.8619 H   0  0  0  0  0  0
  -25.1274  -36.1942   25.0816 H   0  0  0  0  0  0
  -20.9985  -28.3260   24.1371 H   0  0  0  0  0  0
  -20.5610  -26.2287   23.3568 H   0  0  0  0  0  0
  -21.6617  -26.7389   22.1225 H   0  0  0  0  0  0
  -19.6907  -25.6295   21.1200 H   0  0  0  0  0  0
  -19.6692  -27.3160   20.6669 H   0  0  0  0  0  0
  -17.4183  -26.6634   21.3999 H   0  0  0  0  0  0
  -18.0355  -26.0040   22.8986 H   0  0  0  0  0  0
  -19.7956  -30.7210   24.2291 H   0  0  0  0  0  0
  -17.5050  -31.6257   24.5149 H   0  0  0  0  0  0
  -15.5372  -30.2991   23.7646 H   0  0  0  0  0  0
  -15.8669  -28.0819   22.7089 H   0  0  0  0  0  0
  -24.5968  -30.6976   25.7810 H   0  0  0  0  0  0
  -24.8898  -32.2800   26.4913 H   0  0  0  0  0  0
  -25.8120  -30.8866   27.0237 H   0  0  0  0  0  0
  -26.2943  -29.6726   24.1247 H   0  0  0  0  0  0
  -27.4147  -29.7320   25.4668 H   0  0  0  0  0  0
  -27.8772  -30.4333   23.9340 H   0  0  0  0  0  0
  -27.2665  -33.3670   26.2042 H   0  0  0  0  0  0
  -28.3910  -32.6823   25.0398 H   0  0  0  0  0  0
  -28.0633  -31.8486   26.5513 H   0  0  0  0  0  0
  -28.2576  -38.0107   24.7522 H   0  0  0  0  0  0
  -28.1072  -36.2630   24.6317 H   0  0  0  0  0  0
  -27.2272  -37.1491   25.8870 H   0  0  0  0  0  0
  -20.9276  -29.8839   21.6958 H   0  0  0  0  0  0
  -26.0156  -38.2844   24.1433 H   0  0  0  0  0  0
  -31.3592  -22.0166   20.0649 H   0  0  0  0  0  0
  -31.0686  -22.6044   21.7387 H   0  0  0  0  0  0
  -27.8156  -22.0527   21.4535 H   0  0  0  0  0  0
  -28.0136  -21.3798   19.7898 H   0  0  0  0  0  0
  -29.6774  -20.7813   22.2451 H   0  0  0  0  0  0
  -27.2322  -24.7582   20.1119 H   0  0  0  0  0  0
  -28.4202  -24.9568   18.8241 H   0  0  0  0  0  0
  -31.4427  -17.2323   20.9285 H   0  0  0  0  0  0
  -30.6173  -17.1666   19.3954 H   0  0  0  0  0  0
  -29.5490  -18.3878   22.0043 H   0  0  0  0  0  0
  -28.5436  -18.2372   20.5831 H   0  0  0  0  0  0
  -29.0249  -15.6010   21.0869 H   0  0  0  0  0  0
  -31.0897  -19.6372   20.4551 H   0  0  0  0  0  0
  -29.8556  -19.8067   19.4358 H   0  0  0  0  0  0
  1 25  1  0  0  0
  1 30  2  0  0  0
  1 79  1  0  0  0
  2  3  1  0  0  0
  2 25  1  0  0  0
  2 82  1  0  0  0
  2 83  1  0  0  0
  3  4  1  0  0  0
  3 84  1  0  0  0
  3 85  1  0  0  0
  4  5  1  0  0  0
  4 86  1  0  0  0
  4 87  1  0  0  0
  5  6  1  0  0  0
  5 26  1  0  0  0
  5 88  1  0  0  0
  6 25  1  0  0  0
  6 89  1  0  0  0
  6 90  1  0  0  0
  7  8  2  0  0  0
  7 26  1  0  0  0
  7 29  1  0  0  0
  8  9  1  0  0  0
  8 22  1  0  0  0
  9 10  1  0  0  0
  9 27  2  0  0  0
 10 11  2  0  0  0
 10 15  1  0  0  0
 11 12  1  0  0  0
 11 91  1  0  0  0
 12 13  2  0  0  0
 12 92  1  0  0  0
 13 14  1  0  0  0
 13 31  1  0  0  0
 14 15  2  0  0  0
 14 93  1  0  0  0
 15 94  1  0  0  0
 16 17  2  0  0  0
 16 21  1  0  0  0
 16 31  1  0  0  0
 17 18  1  0  0  0
 17 95  1  0  0  0
 18 19  2  0  0  0
 18 96  1  0  0  0
 19 20  1  0  0  0
 19 24  1  0  0  0
 20 21  2  0  0  0
 20 97  1  0  0  0
 21 23  1  0  0  0
 22 28  1  0  0  0
 22 32  2  0  0  0
 26 27  1  0  0  0
 28 98  1  0  0  0
 28 99  1  0  0  0
 29100  1  0  0  0
 29101  1  0  0  0
 33 34  1  0  0  0
 33 66  1  0  0  0
 33 70  2  0  0  0
 34 36  1  0  0  0
 34 59  1  0  0  0
 34102  1  0  0  0
 35 44  2  0  0  0
 35 45  1  0  0  0
 35 68  1  0  0  0
 36 56  1  0  0  0
 36103  1  0  0  0
 37 39  1  0  0  0
 37 47  1  0  0  0
 37 66  1  0  0  0
 37104  1  0  0  0
 38 43  2  0  0  0
 38 46  1  0  0  0
 38 47  1  0  0  0
 39 64  1  0  0  0
 39 67  2  0  0  0
 40 52  1  0  0  0
 40 53  2  0  0  0
 40 58  1  0  0  0
 41105  1  0  0  0
 41106  1  0  0  0
 41107  1  0  0  0
 41 48  1  0  0  0
 42 43  1  0  0  0
 42 66  1  0  0  0
 42108  1  0  0  0
 42109  1  0  0  0
 43 44  1  0  0  0
 44110  1  0  0  0
 45 46  2  0  0  0
 45111  1  0  0  0
 46112  1  0  0  0
 47113  1  0  0  0
 47114  1  0  0  0
 48 56  1  0  0  0
 48 65  1  0  0  0
 48115  1  0  0  0
 49 50  1  0  0  0
 49 53  1  0  0  0
 49 64  1  0  0  0
 49116  1  0  0  0
 50 51  1  0  0  0
 50117  1  0  0  0
 50118  1  0  0  0
 51 52  1  0  0  0
 51119  1  0  0  0
 51120  1  0  0  0
 52121  1  0  0  0
 52122  1  0  0  0
 53 54  1  0  0  0
 54 55  2  0  0  0
 54123  1  0  0  0
 55 57  1  0  0  0
 55124  1  0  0  0
 56 69  2  0  0  0
 57 58  2  0  0  0
 57125  1  0  0  0
 58126  1  0  0  0
 59 60  1  0  0  0
 59 61  1  0  0  0
 59 62  1  0  0  0
 60127  1  0  0  0
 60128  1  0  0  0
 60129  1  0  0  0
 61130  1  0  0  0
 61131  1  0  0  0
 61132  1  0  0  0
 62133  1  0  0  0
 62134  1  0  0  0
 62135  1  0  0  0
 63 65  1  0  0  0
 63136  1  0  0  0
 63137  1  0  0  0
 63138  1  0  0  0
 64139  1  0  0  0
 65140  1  0  0  0
 68 75  1  0  0  0
 71 75  1  0  0  0
 71 78  1  0  0  0
 71 81  2  0  0  0
 72 74  1  0  0  0
 72 78  1  0  0  0
 72141  1  0  0  0
 72142  1  0  0  0
 73 74  1  0  0  0
 73 78  1  0  0  0
 73143  1  0  0  0
 73144  1  0  0  0
 74 80  1  0  0  0
 74145  1  0  0  0
 75146  1  0  0  0
 75147  1  0  0  0
 76 77  1  0  0  0
 76 79  1  0  0  0
 76148  1  0  0  0
 76149  1  0  0  0
 77 80  1  0  0  0
 77150  1  0  0  0
 77151  1  0  0  0
 79152  1  0  0  0
 80153  1  0  0  0
 80154  1  0  0  0
M  CHG  1  80   1
M  ISO  4   1 100  68 101  75 101  79 100
M  END
> <chiral flag>
0

> <version>
0

> <s_m_source_file>
/data/baiqing/PycharmProjects/Reinvent-master-3.2/result/LINK_invent/BTK/process_docking_weight1_custom_sum_contain_oxygen_bond_distance_aromatic_linkinvent_7_9_3/rearranged_h_0138.sdf

> <i_m_source_file_index>
71

> <r_mmod_Potential_Energy-OPLS-2005>
-273.202484130859

> <r_mmod_Stretch_Energy-OPLS-2005>
61.1204299926758

> <r_mmod_Bend_Energy-OPLS-2005>
131.266906738281

> <r_mmod_Torsional_Energy-OPLS-2005>
227.347671508789

> <r_mmod_Improper_Torsional_Energy-OPLS-2005>
13.5037803649902

> <r_mmod_Van_der_Waal_Energy-OPLS-2005>
134.3359375

> <r_mmod_Electrostatic_Energy-OPLS-2005>
-316.321533203125

> <r_mmod_Solvation_Energy-OPLS-2005>
-561.15869140625

> <b_mmod_Minimization_Converged-OPLS-2005>
0

> <r_mmod_RMS_Derivative-OPLS-2005>
3.41325283050537

$$$$
71
                    3D
 Structure written by MMmdl.
160168  0  0  1  0            999 V2000
  -30.4823  -15.0865   20.3858 C   0  0  0  0  0  0
  -30.4393  -12.6730   19.5320 C   0  0  0  0  0  0
  -29.5327  -12.5606   18.2814 C   0  0  0  0  0  0
  -28.0697  -12.3206   18.6935 C   0  0  0  0  0  0
  -27.6259  -13.2630   19.8415 C   0  0  2  0  0  0
  -28.6600  -13.3387   20.9865 C   0  0  0  0  0  0
  -25.2436  -13.8243   20.5735 C   0  0  0  0  0  0
  -24.1766  -13.0447   20.9234 C   0  0  0  0  0  0
  -24.6401  -11.6938   20.8751 C   0  0  0  0  0  0
  -23.9089  -10.4299   21.0404 C   0  0  0  0  0  0
  -24.3636   -9.4212   21.9181 C   0  0  0  0  0  0
  -23.6305   -8.2248   22.0752 C   0  0  0  0  0  0
  -22.4284   -8.0288   21.3547 C   0  0  0  0  0  0
  -21.9923   -9.0262   20.4647 C   0  0  0  0  0  0
  -22.7259  -10.2137   20.3055 C   0  0  0  0  0  0
  -21.6855   -6.0741   22.5281 C   0  0  0  0  0  0
  -21.4018   -6.5643   23.8215 C   0  0  0  0  0  0
  -21.3660   -5.6794   24.9175 C   0  0  0  0  0  0
  -21.6043   -4.3056   24.7225 C   0  0  0  0  0  0
  -21.8818   -3.8150   23.4346 C   0  0  0  0  0  0
  -21.9195   -4.6968   22.3403 C   0  0  0  0  0  0
  -22.7785  -13.5208   21.1887 C   0  0  0  0  0  0
  -22.1663   -4.2156   21.0980 F   0  0  0  0  0  0
  -21.5625   -3.4540   25.7737 F   0  0  0  0  0  0
  -29.9284  -13.7900   20.3968 N   0  0  0  0  0  0
  -26.2868  -12.9499   20.3254 N   0  0  0  0  0  0
  -25.9337  -11.6614   20.5732 N   0  0  0  0  0  0
  -22.0441  -12.8191   22.0442 N   0  0  0  0  0  0
  -25.4098  -15.1976   20.4186 N   0  0  0  0  0  0
  -31.6677  -15.1360   20.0275 O   0  0  0  0  0  0
  -21.6645   -6.8885   21.4244 O   0  0  0  0  0  0
  -22.3466  -14.5511   20.6729 O   0  0  0  0  0  0
  -24.6509  -31.8327   23.1780 C   0  0  0  0  0  0
  -25.9241  -32.4632   23.8205 C   0  0  1  0  0  0
  -27.2237  -27.0425   20.1671 C   0  0  0  0  0  0
  -25.5953  -33.8443   24.2118 N   0  0  0  0  0  0
  -23.4602  -30.4461   21.5235 C   0  0  2  0  0  0
  -24.9132  -28.8515   20.1038 C   0  0  0  0  0  0
  -22.7607  -29.4479   22.4811 C   0  0  0  0  0  0
  -18.0310  -28.1398   22.8471 C   0  0  0  0  0  0
  -24.1494  -36.7234   23.2646 C   0  0  0  0  0  0
  -26.0197  -30.6759   21.3903 C   0  0  0  0  0  0
  -26.0884  -29.2772   20.7336 C   0  0  0  0  0  0
  -27.2365  -28.3874   20.7486 C   0  0  0  0  0  0
  -26.0258  -26.7368   19.4873 C   0  0  0  0  0  0
  -24.9002  -27.5994   19.4633 C   0  0  0  0  0  0
  -23.6921  -29.7643   20.1459 C   0  0  0  0  0  0
  -25.4130  -36.2995   24.0305 C   0  0  1  0  0  0
  -20.5927  -28.3729   23.1217 C   0  0  2  0  0  0
  -20.6788  -26.9420   22.5409 C   0  0  0  0  0  0
  -19.5765  -26.6375   21.5213 C   0  0  0  0  0  0
  -18.1946  -26.7935   22.1621 C   0  0  0  0  0  0
  -19.1569  -28.8883   23.2835 C   0  0  0  0  0  0
  -18.9483  -30.1476   23.8866 C   0  0  0  0  0  0
  -17.6478  -30.6591   24.0556 C   0  0  0  0  0  0
  -25.9083  -34.9373   23.5030 C   0  0  0  0  0  0
  -16.5369  -29.9081   23.6339 C   0  0  0  0  0  0
  -16.7294  -28.6501   23.0357 C   0  0  0  0  0  0
  -26.4535  -31.6546   25.0695 C   0  0  0  0  0  0
  -25.3696  -31.3767   26.1376 C   0  0  0  0  0  0
  -27.0418  -30.2928   24.6353 C   0  0  0  0  0  0
  -27.6040  -32.4339   25.7493 C   0  0  0  0  0  0
  -27.5573  -37.1775   24.8463 C   0  0  0  0  0  0
  -21.4288  -29.3035   22.3571 N   0  0  0  0  0  0
  -26.4284  -37.3720   23.9403 N   0  0  0  0  0  0
  -24.7304  -31.0096   22.0852 N   0  0  0  0  0  0
  -23.4208  -28.8046   23.3008 O   0  0  0  0  0  0
  -28.2698  -26.0308   20.3131 O   0  0  0  0  0  0
  -26.5686  -34.8892   22.4620 O   0  0  0  0  0  0
  -23.5608  -32.1242   23.6949 O   0  0  0  0  0  0
  -29.1094  -17.6975   18.7614 C   0  0  0  0  0  0
  -28.5868  -20.1081   18.7151 C   0  0  0  0  0  0
  -28.6402  -18.8425   18.0749 C   0  0  0  0  0  0
  -29.5244  -17.7215   20.1080 C   0  0  0  0  0  0
  -29.0210  -20.2589   20.0373 C   0  0  0  0  0  0
  -27.3041  -19.2353   14.6393 C   0  0  0  0  0  0
  -26.6962  -20.3522   13.7694 C   0  0  0  0  0  0
  -27.7088  -19.7286   16.0352 C   0  0  0  0  0  0
  -28.3942  -24.5305   19.7667 C   0  0  0  0  0  0
  -28.1761  -22.9169   20.3933 C   0  0  0  0  0  0
  -29.4670  -19.0484   20.7005 N   0  0  0  0  0  0
  -29.7356  -16.2872   20.7128 N   0  0  0  0  0  0
  -26.3100  -19.8743   12.4300 N   0  3  0  0  0  0
  -28.2435  -18.6329   16.7702 O   0  0  0  0  0  0
  -29.1102  -21.6379   20.5941 O   0  0  0  0  0  0
  -31.4723  -12.8362   19.2213 H   0  0  0  0  0  0
  -30.4492  -11.7325   20.0851 H   0  0  0  0  0  0
  -29.8765  -11.7550   17.6313 H   0  0  0  0  0  0
  -29.6029  -13.4783   17.6955 H   0  0  0  0  0  0
  -27.9852  -11.2824   19.0169 H   0  0  0  0  0  0
  -27.4083  -12.4281   17.8330 H   0  0  0  0  0  0
  -27.5746  -14.2561   19.3938 H   0  0  0  0  0  0
  -28.7724  -12.3732   21.4816 H   0  0  0  0  0  0
  -28.3295  -14.0401   21.7537 H   0  0  0  0  0  0
  -25.2780   -9.5687   22.4759 H   0  0  0  0  0  0
  -24.0015   -7.4638   22.7469 H   0  0  0  0  0  0
  -21.0854   -8.8784   19.8952 H   0  0  0  0  0  0
  -22.3718  -10.9677   19.6166 H   0  0  0  0  0  0
  -21.2013   -7.6151   23.9721 H   0  0  0  0  0  0
  -21.1481   -6.0523   25.9078 H   0  0  0  0  0  0
  -22.0596   -2.7612   23.2844 H   0  0  0  0  0  0
  -22.4070  -11.9863   22.4840 H   0  0  0  0  0  0
  -21.1053  -13.1197   22.2642 H   0  0  0  0  0  0
  -24.6384  -15.8467   20.5286 H   0  0  0  0  0  0
  -26.2504  -15.6389   20.0692 H   0  0  0  0  0  0
  -26.7305  -32.5205   23.0923 H   0  0  0  0  0  0
  -25.0058  -33.9536   25.0239 H   0  0  0  0  0  0
  -22.7678  -31.2745   21.3600 H   0  0  0  0  0  0
  -23.3757  -35.9565   23.3286 H   0  0  0  0  0  0
  -24.3576  -36.8897   22.2065 H   0  0  0  0  0  0
  -23.7253  -37.6421   23.6708 H   0  0  0  0  0  0
  -26.1867  -31.4239   20.6139 H   0  0  0  0  0  0
  -26.8852  -30.7294   22.0392 H   0  0  0  0  0  0
  -28.1257  -28.7045   21.2750 H   0  0  0  0  0  0
  -25.9232  -25.7722   19.0126 H   0  0  0  0  0  0
  -24.0027  -27.2684   18.9591 H   0  0  0  0  0  0
  -23.8344  -30.5342   19.3867 H   0  0  0  0  0  0
  -22.8051  -29.2094   19.8351 H   0  0  0  0  0  0
  -25.1326  -36.1806   25.0797 H   0  0  0  0  0  0
  -21.0020  -28.3330   24.1337 H   0  0  0  0  0  0
  -20.5669  -26.2342   23.3637 H   0  0  0  0  0  0
  -21.6654  -26.7407   22.1217 H   0  0  0  0  0  0
  -19.6924  -25.6278   21.1264 H   0  0  0  0  0  0
  -19.6708  -27.3167   20.6729 H   0  0  0  0  0  0
  -17.4216  -26.6676   21.4025 H   0  0  0  0  0  0
  -18.0345  -26.0086   22.9027 H   0  0  0  0  0  0
  -19.7957  -30.7301   24.2223 H   0  0  0  0  0  0
  -17.5027  -31.6269   24.5162 H   0  0  0  0  0  0
  -15.5365  -30.2970   23.7681 H   0  0  0  0  0  0
  -15.8695  -28.0808   22.7088 H   0  0  0  0  0  0
  -24.5882  -30.7108   25.7697 H   0  0  0  0  0  0
  -24.8880  -32.2960   26.4719 H   0  0  0  0  0  0
  -25.7958  -30.8996   27.0209 H   0  0  0  0  0  0
  -26.3057  -29.6624   24.1351 H   0  0  0  0  0  0
  -27.3978  -29.7266   25.4970 H   0  0  0  0  0  0
  -27.8985  -30.4134   23.9720 H   0  0  0  0  0  0
  -27.2609  -33.3664   26.1986 H   0  0  0  0  0  0
  -28.3897  -32.6861   25.0359 H   0  0  0  0  0  0
  -28.0656  -31.8525   26.5485 H   0  0  0  0  0  0
  -28.2576  -38.0084   24.7504 H   0  0  0  0  0  0
  -28.1083  -36.2610   24.6296 H   0  0  0  0  0  0
  -27.2289  -37.1427   25.8867 H   0  0  0  0  0  0
  -20.9513  -29.8733   21.6727 H   0  0  0  0  0  0
  -26.0140  -38.2783   24.1402 H   0  0  0  0  0  0
  -29.0927  -16.7543   18.2333 H   0  0  0  0  0  0
  -28.2612  -20.9929   18.1908 H   0  0  0  0  0  0
  -28.1805  -18.8164   14.1437 H   0  0  0  0  0  0
  -26.5876  -18.4201   14.7448 H   0  0  0  0  0  0
  -27.4098  -21.1698   13.6575 H   0  0  0  0  0  0
  -25.8158  -20.7707   14.2595 H   0  0  0  0  0  0
  -26.8363  -20.1368   16.5486 H   0  0  0  0  0  0
  -28.4542  -20.5206   15.9449 H   0  0  0  0  0  0
  -27.8451  -24.5396   18.8256 H   0  0  0  0  0  0
  -29.4293  -24.5154   19.4261 H   0  0  0  0  0  0
  -27.3035  -22.5268   19.8692 H   0  0  0  0  0  0
  -27.7934  -23.0816   21.4001 H   0  0  0  0  0  0
  -28.9683  -16.0473   21.3209 H   0  0  0  0  0  0
  -27.1071  -19.5299   11.9256 H   0  0  0  0  0  0
  -25.9117  -20.6298   11.9006 H   0  0  0  0  0  0
  -25.6240  -19.1435   12.4907 H   0  0  0  0  0  0
  1 25  1  0  0  0
  1 30  2  0  0  0
  1 82  1  0  0  0
  2  3  1  0  0  0
  2 25  1  0  0  0
  2 86  1  0  0  0
  2 87  1  0  0  0
  3  4  1  0  0  0
  3 88  1  0  0  0
  3 89  1  0  0  0
  4  5  1  0  0  0
  4 90  1  0  0  0
  4 91  1  0  0  0
  5  6  1  0  0  0
  5 26  1  0  0  0
  5 92  1  0  0  0
  6 25  1  0  0  0
  6 93  1  0  0  0
  6 94  1  0  0  0
  7  8  2  0  0  0
  7 26  1  0  0  0
  7 29  1  0  0  0
  8  9  1  0  0  0
  8 22  1  0  0  0
  9 10  1  0  0  0
  9 27  2  0  0  0
 10 11  2  0  0  0
 10 15  1  0  0  0
 11 12  1  0  0  0
 11 95  1  0  0  0
 12 13  2  0  0  0
 12 96  1  0  0  0
 13 14  1  0  0  0
 13 31  1  0  0  0
 14 15  2  0  0  0
 14 97  1  0  0  0
 15 98  1  0  0  0
 16 17  2  0  0  0
 16 21  1  0  0  0
 16 31  1  0  0  0
 17 18  1  0  0  0
 17 99  1  0  0  0
 18 19  2  0  0  0
 18100  1  0  0  0
 19 20  1  0  0  0
 19 24  1  0  0  0
 20 21  2  0  0  0
 20101  1  0  0  0
 21 23  1  0  0  0
 22 28  1  0  0  0
 22 32  2  0  0  0
 26 27  1  0  0  0
 28102  1  0  0  0
 28103  1  0  0  0
 29104  1  0  0  0
 29105  1  0  0  0
 33 34  1  0  0  0
 33 66  1  0  0  0
 33 70  2  0  0  0
 34 36  1  0  0  0
 34 59  1  0  0  0
 34106  1  0  0  0
 35 44  2  0  0  0
 35 45  1  0  0  0
 35 68  1  0  0  0
 36 56  1  0  0  0
 36107  1  0  0  0
 37 39  1  0  0  0
 37 47  1  0  0  0
 37 66  1  0  0  0
 37108  1  0  0  0
 38 43  2  0  0  0
 38 46  1  0  0  0
 38 47  1  0  0  0
 39 64  1  0  0  0
 39 67  2  0  0  0
 40 52  1  0  0  0
 40 53  2  0  0  0
 40 58  1  0  0  0
 41109  1  0  0  0
 41110  1  0  0  0
 41111  1  0  0  0
 41 48  1  0  0  0
 42 43  1  0  0  0
 42 66  1  0  0  0
 42112  1  0  0  0
 42113  1  0  0  0
 43 44  1  0  0  0
 44114  1  0  0  0
 45 46  2  0  0  0
 45115  1  0  0  0
 46116  1  0  0  0
 47117  1  0  0  0
 47118  1  0  0  0
 48 56  1  0  0  0
 48 65  1  0  0  0
 48119  1  0  0  0
 49 50  1  0  0  0
 49 53  1  0  0  0
 49 64  1  0  0  0
 49120  1  0  0  0
 50 51  1  0  0  0
 50121  1  0  0  0
 50122  1  0  0  0
 51 52  1  0  0  0
 51123  1  0  0  0
 51124  1  0  0  0
 52125  1  0  0  0
 52126  1  0  0  0
 53 54  1  0  0  0
 54 55  2  0  0  0
 54127  1  0  0  0
 55 57  1  0  0  0
 55128  1  0  0  0
 56 69  2  0  0  0
 57 58  2  0  0  0
 57129  1  0  0  0
 58130  1  0  0  0
 59 60  1  0  0  0
 59 61  1  0  0  0
 59 62  1  0  0  0
 60131  1  0  0  0
 60132  1  0  0  0
 60133  1  0  0  0
 61134  1  0  0  0
 61135  1  0  0  0
 61136  1  0  0  0
 62137  1  0  0  0
 62138  1  0  0  0
 62139  1  0  0  0
 63 65  1  0  0  0
 63140  1  0  0  0
 63141  1  0  0  0
 63142  1  0  0  0
 64143  1  0  0  0
 65144  1  0  0  0
 68 79  1  0  0  0
 71 73  2  0  0  0
 71 74  1  0  0  0
 71145  1  0  0  0
 72 73  1  0  0  0
 72 75  2  0  0  0
 72146  1  0  0  0
 73 84  1  0  0  0
 74 81  2  0  0  0
 74 82  1  0  0  0
 75 81  1  0  0  0
 75 85  1  0  0  0
 76 77  1  0  0  0
 76 78  1  0  0  0
 76147  1  0  0  0
 76148  1  0  0  0
 77 83  1  0  0  0
 77149  1  0  0  0
 77150  1  0  0  0
 78 84  1  0  0  0
 78151  1  0  0  0
 78152  1  0  0  0
 79 80  1  0  0  0
 79153  1  0  0  0
 79154  1  0  0  0
 80 85  1  0  0  0
 80155  1  0  0  0
 80156  1  0  0  0
 82157  1  0  0  0
 83158  1  0  0  0
 83159  1  0  0  0
 83160  1  0  0  0
M  CHG  1  83   1
M  ISO  4   1 100  68 101  79 101  82 100
M  END
> <chiral flag>
0

> <version>
0

> <s_m_source_file>
/data/baiqing/PycharmProjects/Reinvent-master-3.2/result/LINK_invent/BTK/process_docking_weight1_custom_sum_contain_oxygen_bond_distance_aromatic_linkinvent_7_9_3/rearranged_h_0138.sdf

> <i_m_source_file_index>
72

> <r_mmod_Potential_Energy-OPLS-2005>
434.672058105469

> <r_mmod_Stretch_Energy-OPLS-2005>
382.629760742188

> <r_mmod_Bend_Energy-OPLS-2005>
400.875274658203

> <r_mmod_Torsional_Energy-OPLS-2005>
256.906097412109

> <r_mmod_Improper_Torsional_Energy-OPLS-2005>
5.06282758712769

> <r_mmod_Van_der_Waal_Energy-OPLS-2005>
128.10791015625

> <r_mmod_Electrostatic_Energy-OPLS-2005>
-471.862884521484

> <r_mmod_Solvation_Energy-OPLS-2005>
-560.949279785156

> <b_mmod_Minimization_Converged-OPLS-2005>
0

> <r_mmod_RMS_Derivative-OPLS-2005>
0.472803980112076

$$$$
72
                    3D
 Structure written by MMmdl.
162171  0  0  1  0            999 V2000
  -30.5053  -14.9644   20.4198 C   0  0  0  0  0  0
  -30.4527  -12.5961   19.5013 C   0  0  0  0  0  0
  -29.5309  -12.5414   18.2587 C   0  0  0  0  0  0
  -28.0624  -12.3215   18.6723 C   0  0  0  0  0  0
  -27.6359  -13.2455   19.8422 C   0  0  2  0  0  0
  -28.6772  -13.2522   20.9821 C   0  0  0  0  0  0
  -25.2477  -13.8200   20.5709 C   0  0  0  0  0  0
  -24.1781  -13.0429   20.9212 C   0  0  0  0  0  0
  -24.6396  -11.6917   20.8721 C   0  0  0  0  0  0
  -23.9072  -10.4287   21.0390 C   0  0  0  0  0  0
  -24.3625   -9.4205   21.9172 C   0  0  0  0  0  0
  -23.6295   -8.2242   22.0750 C   0  0  0  0  0  0
  -22.4271   -8.0276   21.3547 C   0  0  0  0  0  0
  -21.9903   -9.0246   20.4642 C   0  0  0  0  0  0
  -22.7241  -10.2120   20.3044 C   0  0  0  0  0  0
  -21.6846   -6.0728   22.5278 C   0  0  0  0  0  0
  -21.4018   -6.5630   23.8210 C   0  0  0  0  0  0
  -21.3662   -5.6787   24.9174 C   0  0  0  0  0  0
  -21.6048   -4.3049   24.7226 C   0  0  0  0  0  0
  -21.8823   -3.8139   23.4346 C   0  0  0  0  0  0
  -21.9193   -4.6956   22.3403 C   0  0  0  0  0  0
  -22.7798  -13.5208   21.1872 C   0  0  0  0  0  0
  -22.1665   -4.2142   21.0977 F   0  0  0  0  0  0
  -21.5622   -3.4533   25.7741 F   0  0  0  0  0  0
  -29.9594  -13.6789   20.4002 N   0  0  0  0  0  0
  -26.2907  -12.9434   20.3231 N   0  0  0  0  0  0
  -25.9327  -11.6564   20.5696 N   0  0  0  0  0  0
  -22.0445  -12.8201   22.0423 N   0  0  0  0  0  0
  -25.4147  -15.1930   20.4187 N   0  0  0  0  0  0
  -31.6887  -15.0860   20.0819 O   0  0  0  0  0  0
  -21.6639   -6.8872   21.4239 O   0  0  0  0  0  0
  -22.3478  -14.5512   20.6709 O   0  0  0  0  0  0
  -24.6449  -31.8429   23.1864 C   0  0  0  0  0  0
  -25.9223  -32.4679   23.8251 C   0  0  1  0  0  0
  -27.2172  -27.1246   20.1530 C   0  0  0  0  0  0
  -25.5966  -33.8483   24.2172 N   0  0  0  0  0  0
  -23.4481  -30.4621   21.5325 C   0  0  2  0  0  0
  -24.8972  -28.8844   20.1118 C   0  0  0  0  0  0
  -22.7565  -29.4554   22.4857 C   0  0  0  0  0  0
  -18.0304  -28.1400   22.8462 C   0  0  0  0  0  0
  -24.1494  -36.7257   23.2643 C   0  0  0  0  0  0
  -26.0046  -30.7119   21.3868 C   0  0  0  0  0  0
  -26.0756  -29.3209   20.7305 C   0  0  0  0  0  0
  -27.2378  -28.4586   20.7317 C   0  0  0  0  0  0
  -26.0164  -26.7970   19.4873 C   0  0  0  0  0  0
  -24.8816  -27.6361   19.4731 C   0  0  0  0  0  0
  -23.6745  -29.7890   20.1523 C   0  0  0  0  0  0
  -25.4122  -36.3019   24.0314 C   0  0  1  0  0  0
  -20.5914  -28.3729   23.1226 C   0  0  2  0  0  0
  -20.6787  -26.9431   22.5398 C   0  0  0  0  0  0
  -19.5764  -26.6383   21.5201 C   0  0  0  0  0  0
  -18.1946  -26.7934   22.1614 C   0  0  0  0  0  0
  -19.1561  -28.8880   23.2835 C   0  0  0  0  0  0
  -18.9480  -30.1473   23.8865 C   0  0  0  0  0  0
  -17.6479  -30.6594   24.0555 C   0  0  0  0  0  0
  -25.9075  -34.9400   23.5052 C   0  0  0  0  0  0
  -16.5369  -29.9088   23.6335 C   0  0  0  0  0  0
  -16.7290  -28.6510   23.0348 C   0  0  0  0  0  0
  -26.4536  -31.6555   25.0708 C   0  0  0  0  0  0
  -25.3724  -31.3751   26.1411 C   0  0  0  0  0  0
  -27.0402  -30.2944   24.6313 C   0  0  0  0  0  0
  -27.6052  -32.4331   25.7510 C   0  0  0  0  0  0
  -27.5570  -37.1786   24.8464 C   0  0  0  0  0  0
  -21.4258  -29.3059   22.3602 N   0  0  0  0  0  0
  -26.4278  -37.3738   23.9410 N   0  0  0  0  0  0
  -24.7194  -31.0268   22.0905 N   0  0  0  0  0  0
  -23.4205  -28.8102   23.3010 O   0  0  0  0  0  0
  -28.2726  -26.1367   20.1764 O   0  0  0  0  0  0
  -26.5655  -34.8909   22.4628 O   0  0  0  0  0  0
  -23.5569  -32.1318   23.7080 O   0  0  0  0  0  0
  -27.7485  -19.2356   19.5414 C   0  0  0  0  0  0
  -28.2253  -17.8969   19.7383 C   0  0  0  0  0  0
  -30.1812  -18.7711   20.7677 C   0  0  0  0  0  0
  -29.6970  -20.1640   20.5689 C   0  0  0  0  0  0
  -28.4495  -20.4043   19.9599 C   0  0  0  0  0  0
  -29.4586  -17.5570   20.3681 C   0  0  0  0  0  0
  -30.4467  -21.4211   21.0402 C   0  0  0  0  0  0
  -27.8453  -21.8714   19.8088 C   0  0  1  0  0  0
  -28.7777  -23.1832   19.9947 C   0  0  1  0  0  0
  -32.2855  -23.7645   20.2123 C   0  0  0  0  0  0
  -31.1125  -24.2085   22.4532 C   0  0  0  0  0  0
  -27.9960  -24.6250   20.4854 C   0  0  0  0  0  0
  -30.9400  -23.8824   20.9583 C   0  0  0  0  0  0
  -30.0293  -22.7287   20.7260 N   0  0  0  0  0  0
  -29.6615  -16.0686   20.7252 N   0  0  0  0  0  0
  -31.4734  -21.2095   21.6913 O   0  0  0  0  0  0
  -27.1865  -21.9895   18.5606 O   0  0  0  0  0  0
  -31.4855  -12.7668   19.1939 H   0  0  0  0  0  0
  -30.4536  -11.6383   20.0239 H   0  0  0  0  0  0
  -29.8531  -11.7504   17.5800 H   0  0  0  0  0  0
  -29.6176  -13.4752   17.7007 H   0  0  0  0  0  0
  -27.9550  -11.2774   18.9697 H   0  0  0  0  0  0
  -27.4025  -12.4638   17.8160 H   0  0  0  0  0  0
  -27.6036  -14.2523   19.4244 H   0  0  0  0  0  0
  -28.7624  -12.2646   21.4364 H   0  0  0  0  0  0
  -28.3690  -13.9299   21.7791 H   0  0  0  0  0  0
  -25.2775   -9.5678   22.4736 H   0  0  0  0  0  0
  -23.9998   -7.4636   22.7471 H   0  0  0  0  0  0
  -21.0827   -8.8776   19.8950 H   0  0  0  0  0  0
  -22.3710  -10.9655   19.6145 H   0  0  0  0  0  0
  -21.2020   -7.6143   23.9714 H   0  0  0  0  0  0
  -21.1476   -6.0514   25.9077 H   0  0  0  0  0  0
  -22.0599   -2.7601   23.2851 H   0  0  0  0  0  0
  -22.4074  -11.9884   22.4848 H   0  0  0  0  0  0
  -21.1054  -13.1210   22.2624 H   0  0  0  0  0  0
  -24.6449  -15.8435   20.5359 H   0  0  0  0  0  0
  -26.2590  -15.6337   20.0825 H   0  0  0  0  0  0
  -26.7288  -32.5282   23.0973 H   0  0  0  0  0  0
  -25.0082  -33.9573   25.0301 H   0  0  0  0  0  0
  -22.7528  -31.2898   21.3767 H   0  0  0  0  0  0
  -23.3753  -35.9591   23.3290 H   0  0  0  0  0  0
  -24.3574  -36.8906   22.2060 H   0  0  0  0  0  0
  -23.7265  -37.6456   23.6689 H   0  0  0  0  0  0
  -26.1597  -31.4646   20.6127 H   0  0  0  0  0  0
  -26.8748  -30.7627   22.0295 H   0  0  0  0  0  0
  -28.1383  -28.7904   21.2295 H   0  0  0  0  0  0
  -25.9316  -25.8533   18.9698 H   0  0  0  0  0  0
  -23.9865  -27.3007   18.9679 H   0  0  0  0  0  0
  -23.8125  -30.5633   19.3966 H   0  0  0  0  0  0
  -22.7880  -29.2332   19.8408 H   0  0  0  0  0  0
  -25.1313  -36.1829   25.0804 H   0  0  0  0  0  0
  -20.9995  -28.3322   24.1351 H   0  0  0  0  0  0
  -20.5666  -26.2349   23.3620 H   0  0  0  0  0  0
  -21.6660  -26.7429   22.1211 H   0  0  0  0  0  0
  -19.6926  -25.6285   21.1257 H   0  0  0  0  0  0
  -19.6701  -27.3173   20.6714 H   0  0  0  0  0  0
  -17.4210  -26.6659   21.4026 H   0  0  0  0  0  0
  -18.0359  -26.0087   22.9025 H   0  0  0  0  0  0
  -19.7962  -30.7288   24.2226 H   0  0  0  0  0  0
  -17.5041  -31.6271   24.5168 H   0  0  0  0  0  0
  -15.5372  -30.2980   23.7685 H   0  0  0  0  0  0
  -15.8689  -28.0822   22.7077 H   0  0  0  0  0  0
  -24.5907  -30.7085   25.7753 H   0  0  0  0  0  0
  -24.8912  -32.2935   26.4783 H   0  0  0  0  0  0
  -25.8024  -30.8974   27.0224 H   0  0  0  0  0  0
  -26.3021  -29.6660   24.1315 H   0  0  0  0  0  0
  -27.3992  -29.7254   25.4901 H   0  0  0  0  0  0
  -27.8941  -30.4166   23.9646 H   0  0  0  0  0  0
  -27.2622  -33.3648   26.2019 H   0  0  0  0  0  0
  -28.3908  -32.6861   25.0380 H   0  0  0  0  0  0
  -28.0667  -31.8503   26.5492 H   0  0  0  0  0  0
  -28.2580  -38.0090   24.7498 H   0  0  0  0  0  0
  -28.1072  -36.2617   24.6295 H   0  0  0  0  0  0
  -27.2285  -37.1443   25.8866 H   0  0  0  0  0  0
  -20.9468  -29.8777   21.6782 H   0  0  0  0  0  0
  -26.0140  -38.2804   24.1408 H   0  0  0  0  0  0
  -26.7813  -19.3622   19.0750 H   0  0  0  0  0  0
  -27.5750  -17.0964   19.4179 H   0  0  0  0  0  0
  -31.1185  -18.6416   21.2908 H   0  0  0  0  0  0
  -27.0755  -21.9271   20.5807 H   0  0  0  0  0  0
  -29.1655  -23.4000   18.9980 H   0  0  0  0  0  0
  -32.8186  -24.7154   20.2346 H   0  0  0  0  0  0
  -32.1341  -23.5059   19.1634 H   0  0  0  0  0  0
  -32.9482  -23.0188   20.6497 H   0  0  0  0  0  0
  -31.6457  -25.1510   22.5826 H   0  0  0  0  0  0
  -31.6795  -23.4427   22.9814 H   0  0  0  0  0  0
  -30.1464  -24.3088   22.9485 H   0  0  0  0  0  0
  -27.9596  -24.5821   21.5745 H   0  0  0  0  0  0
  -26.9575  -24.4541   20.2116 H   0  0  0  0  0  0
  -30.5005  -24.7763   20.5186 H   0  0  0  0  0  0
  -28.7938  -15.6708   21.0498 H   0  0  0  0  0  0
  -26.7132  -22.8151   18.5526 H   0  0  0  0  0  0
  1 25  1  0  0  0
  1 30  2  0  0  0
  1 85  1  0  0  0
  2  3  1  0  0  0
  2 25  1  0  0  0
  2 88  1  0  0  0
  2 89  1  0  0  0
  3  4  1  0  0  0
  3 90  1  0  0  0
  3 91  1  0  0  0
  4  5  1  0  0  0
  4 92  1  0  0  0
  4 93  1  0  0  0
  5  6  1  0  0  0
  5 26  1  0  0  0
  5 94  1  0  0  0
  6 25  1  0  0  0
  6 95  1  0  0  0
  6 96  1  0  0  0
  7  8  2  0  0  0
  7 26  1  0  0  0
  7 29  1  0  0  0
  8  9  1  0  0  0
  8 22  1  0  0  0
  9 10  1  0  0  0
  9 27  2  0  0  0
 10 11  2  0  0  0
 10 15  1  0  0  0
 11 12  1  0  0  0
 11 97  1  0  0  0
 12 13  2  0  0  0
 12 98  1  0  0  0
 13 14  1  0  0  0
 13 31  1  0  0  0
 14 15  2  0  0  0
 14 99  1  0  0  0
 15100  1  0  0  0
 16 17  2  0  0  0
 16 21  1  0  0  0
 16 31  1  0  0  0
 17 18  1  0  0  0
 17101  1  0  0  0
 18 19  2  0  0  0
 18102  1  0  0  0
 19 20  1  0  0  0
 19 24  1  0  0  0
 20 21  2  0  0  0
 20103  1  0  0  0
 21 23  1  0  0  0
 22 28  1  0  0  0
 22 32  2  0  0  0
 26 27  1  0  0  0
 28104  1  0  0  0
 28105  1  0  0  0
 29106  1  0  0  0
 29107  1  0  0  0
 33 34  1  0  0  0
 33 66  1  0  0  0
 33 70  2  0  0  0
 34 36  1  0  0  0
 34 59  1  0  0  0
 34108  1  0  0  0
 35 44  2  0  0  0
 35 45  1  0  0  0
 35 68  1  0  0  0
 36 56  1  0  0  0
 36109  1  0  0  0
 37 39  1  0  0  0
 37 47  1  0  0  0
 37 66  1  0  0  0
 37110  1  0  0  0
 38 43  2  0  0  0
 38 46  1  0  0  0
 38 47  1  0  0  0
 39 64  1  0  0  0
 39 67  2  0  0  0
 40 52  1  0  0  0
 40 53  2  0  0  0
 40 58  1  0  0  0
 41111  1  0  0  0
 41112  1  0  0  0
 41113  1  0  0  0
 41 48  1  0  0  0
 42 43  1  0  0  0
 42 66  1  0  0  0
 42114  1  0  0  0
 42115  1  0  0  0
 43 44  1  0  0  0
 44116  1  0  0  0
 45 46  2  0  0  0
 45117  1  0  0  0
 46118  1  0  0  0
 47119  1  0  0  0
 47120  1  0  0  0
 48 56  1  0  0  0
 48 65  1  0  0  0
 48121  1  0  0  0
 49 50  1  0  0  0
 49 53  1  0  0  0
 49 64  1  0  0  0
 49122  1  0  0  0
 50 51  1  0  0  0
 50123  1  0  0  0
 50124  1  0  0  0
 51 52  1  0  0  0
 51125  1  0  0  0
 51126  1  0  0  0
 52127  1  0  0  0
 52128  1  0  0  0
 53 54  1  0  0  0
 54 55  2  0  0  0
 54129  1  0  0  0
 55 57  1  0  0  0
 55130  1  0  0  0
 56 69  2  0  0  0
 57 58  2  0  0  0
 57131  1  0  0  0
 58132  1  0  0  0
 59 60  1  0  0  0
 59 61  1  0  0  0
 59 62  1  0  0  0
 60133  1  0  0  0
 60134  1  0  0  0
 60135  1  0  0  0
 61136  1  0  0  0
 61137  1  0  0  0
 61138  1  0  0  0
 62139  1  0  0  0
 62140  1  0  0  0
 62141  1  0  0  0
 63 65  1  0  0  0
 63142  1  0  0  0
 63143  1  0  0  0
 63144  1  0  0  0
 64145  1  0  0  0
 65146  1  0  0  0
 68 82  1  0  0  0
 71 72  2  0  0  0
 71 75  1  0  0  0
 71147  1  0  0  0
 72 76  1  0  0  0
 72148  1  0  0  0
 73 74  1  0  0  0
 73 76  2  0  0  0
 73149  1  0  0  0
 74 75  2  0  0  0
 74 77  1  0  0  0
 75 78  1  0  0  0
 76 85  1  0  0  0
 77 84  1  0  0  0
 77 86  2  0  0  0
 78 79  1  0  0  0
 78 87  1  0  0  0
 78150  1  0  0  0
 79 82  1  0  0  0
 79 84  1  0  0  0
 79151  1  0  0  0
 80152  1  0  0  0
 80153  1  0  0  0
 80154  1  0  0  0
 80 83  1  0  0  0
 81 83  1  0  0  0
 81155  1  0  0  0
 81156  1  0  0  0
 81157  1  0  0  0
 82158  1  0  0  0
 82159  1  0  0  0
 83 84  1  0  0  0
 83160  1  0  0  0
 85161  1  0  0  0
 87162  1  0  0  0
M  ISO  4   1 100  68 101  82 101  85 100
M  END
> <chiral flag>
0

> <version>
0

> <s_m_source_file>
/data/baiqing/PycharmProjects/Reinvent-master-3.2/result/LINK_invent/BTK/process_docking_weight1_custom_sum_contain_oxygen_bond_distance_aromatic_linkinvent_7_9_3/rearranged_h_0138.sdf

> <i_m_source_file_index>
73

> <r_mmod_Potential_Energy-OPLS-2005>
599.796264648438

> <r_mmod_Stretch_Energy-OPLS-2005>
252.667098999023

> <r_mmod_Bend_Energy-OPLS-2005>
282.164794921875

> <r_mmod_Torsional_Energy-OPLS-2005>
308.855407714844

> <r_mmod_Improper_Torsional_Energy-OPLS-2005>
6.06850051879883

> <r_mmod_Van_der_Waal_Energy-OPLS-2005>
143.756240844727

> <r_mmod_Electrostatic_Energy-OPLS-2005>
-349.044860839844

> <r_mmod_Solvation_Energy-OPLS-2005>
-246.689361572266

> <b_mmod_Minimization_Converged-OPLS-2005>
0

> <r_mmod_RMS_Derivative-OPLS-2005>
1.67081391811371

$$$$
73
                    3D
 Structure written by MMmdl.
177187  0  0  1  0            999 V2000
  -30.6654  -14.7941   20.3845 C   0  0  0  0  0  0
  -30.4204  -12.4522   19.5078 C   0  0  0  0  0  0
  -29.5405  -12.3601   18.2390 C   0  0  0  0  0  0
  -28.0293  -12.5301   18.5399 C   0  0  0  0  0  0
  -27.7148  -12.7387   20.0309 C   0  0  2  0  0  0
  -28.6926  -13.4071   20.9890 C   0  0  0  0  0  0
  -25.3056  -13.7464   20.5767 C   0  0  0  0  0  0
  -24.1884  -13.0310   20.9260 C   0  0  0  0  0  0
  -24.5724  -11.6652   20.8845 C   0  0  0  0  0  0
  -23.8451  -10.4246   21.0599 C   0  0  0  0  0  0
  -24.3299   -9.4236   21.9255 C   0  0  0  0  0  0
  -23.6118   -8.2208   22.0781 C   0  0  0  0  0  0
  -22.4078   -8.0266   21.3574 C   0  0  0  0  0  0
  -21.9542   -9.0229   20.4718 C   0  0  0  0  0  0
  -22.6750  -10.2132   20.3180 C   0  0  0  0  0  0
  -21.6836   -6.0662   22.5277 C   0  0  0  0  0  0
  -21.4009   -6.5604   23.8173 C   0  0  0  0  0  0
  -21.3628   -5.6749   24.9123 C   0  0  0  0  0  0
  -21.6056   -4.3011   24.7204 C   0  0  0  0  0  0
  -21.8822   -3.8127   23.4318 C   0  0  0  0  0  0
  -21.9161   -4.6920   22.3396 C   0  0  0  0  0  0
  -22.8084  -13.5503   21.1815 C   0  0  0  0  0  0
  -22.1701   -4.2098   21.0987 F   0  0  0  0  0  0
  -21.5580   -3.4561   25.7739 F   0  0  0  0  0  0
  -29.9741  -13.6152   20.3187 N   0  0  0  0  0  0
  -26.3040  -12.7780   20.3837 N   0  0  0  0  0  0
  -25.8324  -11.5441   20.5897 N   0  0  0  0  0  0
  -22.0310  -12.8630   22.0182 N   0  0  0  0  0  0
  -25.5216  -15.1077   20.4225 N   0  0  0  0  0  0
  -31.8761  -14.8064   20.1667 O   0  0  0  0  0  0
  -21.6581   -6.8812   21.4216 O   0  0  0  0  0  0
  -22.4146  -14.5894   20.6578 O   0  0  0  0  0  0
  -24.6311  -31.8573   23.1991 C   0  0  0  0  0  0
  -25.9143  -32.4768   23.8332 C   0  0  1  0  0  0
  -27.2155  -27.2861   20.1264 C   0  0  0  0  0  0
  -25.5943  -33.8568   24.2260 N   0  0  0  0  0  0
  -23.4265  -30.4811   21.5449 C   0  0  2  0  0  0
  -24.8659  -28.9279   20.1235 C   0  0  0  0  0  0
  -22.7495  -29.4625   22.4943 C   0  0  0  0  0  0
  -18.0295  -28.1384   22.8487 C   0  0  0  0  0  0
  -24.1491  -36.7269   23.2645 C   0  0  0  0  0  0
  -25.9731  -30.7822   21.3697 C   0  0  0  0  0  0
  -26.0442  -29.4092   20.7065 C   0  0  0  0  0  0
  -27.2277  -28.6073   20.6836 C   0  0  0  0  0  0
  -26.0034  -26.8585   19.5384 C   0  0  0  0  0  0
  -24.8458  -27.6552   19.5388 C   0  0  0  0  0  0
  -23.6416  -29.8155   20.1642 C   0  0  0  0  0  0
  -25.4122  -36.3066   24.0332 C   0  0  1  0  0  0
  -20.5894  -28.3700   23.1274 C   0  0  2  0  0  0
  -20.6787  -26.9423   22.5411 C   0  0  0  0  0  0
  -19.5750  -26.6380   21.5221 C   0  0  0  0  0  0
  -18.1930  -26.7930   22.1633 C   0  0  0  0  0  0
  -19.1547  -28.8856   23.2874 C   0  0  0  0  0  0
  -18.9463  -30.1460   23.8888 C   0  0  0  0  0  0
  -17.6454  -30.6584   24.0561 C   0  0  0  0  0  0
  -25.9057  -34.9446   23.5095 C   0  0  0  0  0  0
  -16.5349  -29.9071   23.6332 C   0  0  0  0  0  0
  -16.7282  -28.6489   23.0360 C   0  0  0  0  0  0
  -26.4497  -31.6586   25.0723 C   0  0  0  0  0  0
  -25.3700  -31.3741   26.1431 C   0  0  0  0  0  0
  -27.0351  -30.3006   24.6219 C   0  0  0  0  0  0
  -27.6050  -32.4326   25.7493 C   0  0  0  0  0  0
  -27.5576  -37.1801   24.8467 C   0  0  0  0  0  0
  -21.4203  -29.3055   22.3671 N   0  0  0  0  0  0
  -26.4285  -37.3768   23.9409 N   0  0  0  0  0  0
  -24.6971  -31.0573   22.0940 N   0  0  0  0  0  0
  -23.4202  -28.8162   23.3037 O   0  0  0  0  0  0
  -28.3193  -26.4109   20.1783 O   0  0  0  0  0  0
  -26.5626  -34.8920   22.4664 O   0  0  0  0  0  0
  -23.5465  -32.1386   23.7300 O   0  0  0  0  0  0
  -28.7018  -15.8124   18.3600 C   0  0  0  0  0  0
  -26.6066  -16.9235   18.0300 C   0  0  0  0  0  0
  -28.9692  -16.5584   19.5343 C   0  0  0  0  0  0
  -28.1856  -17.7795   19.7263 C   0  0  0  0  0  0
  -27.5517  -15.9946   17.5766 C   0  0  0  0  0  0
  -26.8727  -17.7742   19.1285 C   0  0  0  0  0  0
  -22.1387  -19.4463   19.5052 C   0  0  0  0  0  0
  -22.2139  -18.2101   20.3594 C   0  0  0  0  0  0
  -27.6174  -22.6433   19.1816 C   0  0  0  0  0  0
  -28.8284  -22.5849   21.3478 C   0  0  0  0  0  0
  -28.0345  -24.1395   18.9760 C   0  0  0  0  0  0
  -29.1359  -24.1345   21.1505 C   0  0  0  0  0  0
  -28.5716  -21.7437   20.0515 C   0  0  1  0  0  0
  -23.4764  -19.0053   20.0707 C   0  0  0  0  0  0
  -28.0804  -24.9386   20.3105 C   0  0  1  0  0  0
  -26.0150  -14.7812   16.1989 C   0  0  0  0  0  0
  -27.8990  -20.2919   20.2437 C   0  0  0  0  0  0
  -24.5285  -18.4068   19.1624 C   0  0  0  0  0  0
  -29.9889  -16.0090   20.4335 N   0  0  0  0  0  0
  -28.6453  -18.9806   20.3973 N   0  0  0  0  0  0
  -27.3583  -15.1899   16.4745 O   0  0  0  0  0  0
  -25.8576  -18.5562   19.6670 O   0  0  0  0  0  0
  -31.4788  -12.4968   19.2359 H   0  0  0  0  0  0
  -30.3280  -11.5450   20.0978 H   0  0  0  0  0  0
  -29.7148  -11.3925   17.7697 H   0  0  0  0  0  0
  -29.8686  -13.0843   17.4990 H   0  0  0  0  0  0
  -27.4975  -11.6542   18.1572 H   0  0  0  0  0  0
  -27.6312  -13.3581   17.9795 H   0  0  0  0  0  0
  -28.0162  -11.7260   20.3215 H   0  0  0  0  0  0
  -28.8517  -12.8171   21.8908 H   0  0  0  0  0  0
  -28.2615  -14.3420   21.3482 H   0  0  0  0  0  0
  -25.2543   -9.5765   22.4623 H   0  0  0  0  0  0
  -24.0023   -7.4565   22.7368 H   0  0  0  0  0  0
  -21.0503   -8.8786   19.8930 H   0  0  0  0  0  0
  -22.3302  -10.9689   19.6274 H   0  0  0  0  0  0
  -21.2106   -7.6157   23.9672 H   0  0  0  0  0  0
  -21.1408   -6.0518   25.8999 H   0  0  0  0  0  0
  -22.0614   -2.7621   23.2872 H   0  0  0  0  0  0
  -22.3439  -12.0027   22.4506 H   0  0  0  0  0  0
  -21.1007  -13.2006   22.2032 H   0  0  0  0  0  0
  -24.7810  -15.7981   20.5090 H   0  0  0  0  0  0
  -26.3977  -15.4935   20.1099 H   0  0  0  0  0  0
  -26.7218  -32.5410   23.1080 H   0  0  0  0  0  0
  -25.0108  -33.9691   25.0417 H   0  0  0  0  0  0
  -22.7226  -31.3039   21.3975 H   0  0  0  0  0  0
  -23.3754  -35.9594   23.3317 H   0  0  0  0  0  0
  -24.3573  -36.8877   22.2050 H   0  0  0  0  0  0
  -23.7233  -37.6477   23.6654 H   0  0  0  0  0  0
  -26.1168  -31.5501   20.6083 H   0  0  0  0  0  0
  -26.8484  -30.8211   22.0077 H   0  0  0  0  0  0
  -28.1393  -28.9800   21.1293 H   0  0  0  0  0  0
  -25.9070  -25.8789   19.1007 H   0  0  0  0  0  0
  -23.9306  -27.2622   19.1200 H   0  0  0  0  0  0
  -23.7805  -30.5904   19.4102 H   0  0  0  0  0  0
  -22.7603  -29.2526   19.8527 H   0  0  0  0  0  0
  -25.1302  -36.1921   25.0820 H   0  0  0  0  0  0
  -20.9984  -28.3277   24.1391 H   0  0  0  0  0  0
  -20.5697  -26.2307   23.3614 H   0  0  0  0  0  0
  -21.6653  -26.7454   22.1193 H   0  0  0  0  0  0
  -19.6918  -25.6281   21.1256 H   0  0  0  0  0  0
  -19.6689  -27.3181   20.6737 H   0  0  0  0  0  0
  -17.4211  -26.6683   21.4031 H   0  0  0  0  0  0
  -18.0334  -26.0068   22.9021 H   0  0  0  0  0  0
  -19.7940  -30.7290   24.2249 H   0  0  0  0  0  0
  -17.5011  -31.6271   24.5162 H   0  0  0  0  0  0
  -15.5351  -30.2972   23.7666 H   0  0  0  0  0  0
  -15.8687  -28.0809   22.7082 H   0  0  0  0  0  0
  -24.5899  -30.7071   25.7748 H   0  0  0  0  0  0
  -24.8856  -32.2903   26.4813 H   0  0  0  0  0  0
  -25.7994  -30.8947   27.0236 H   0  0  0  0  0  0
  -26.2950  -29.6758   24.1216 H   0  0  0  0  0  0
  -27.4003  -29.7277   25.4753 H   0  0  0  0  0  0
  -27.8831  -30.4292   23.9494 H   0  0  0  0  0  0
  -27.2677  -33.3653   26.2037 H   0  0  0  0  0  0
  -28.3871  -32.6857   25.0315 H   0  0  0  0  0  0
  -28.0711  -31.8472   26.5431 H   0  0  0  0  0  0
  -28.2600  -38.0096   24.7513 H   0  0  0  0  0  0
  -28.1073  -36.2626   24.6300 H   0  0  0  0  0  0
  -27.2294  -37.1455   25.8872 H   0  0  0  0  0  0
  -20.9391  -29.8767   21.6865 H   0  0  0  0  0  0
  -26.0172  -38.2846   24.1400 H   0  0  0  0  0  0
  -29.3826  -15.0428   18.0500 H   0  0  0  0  0  0
  -25.6697  -16.9733   17.5038 H   0  0  0  0  0  0
  -21.6607  -20.3152   19.9617 H   0  0  0  0  0  0
  -21.9764  -19.3337   18.4305 H   0  0  0  0  0  0
  -22.1038  -17.2445   19.8615 H   0  0  0  0  0  0
  -21.8097  -18.2681   21.3703 H   0  0  0  0  0  0
  -27.5035  -22.1810   18.1994 H   0  0  0  0  0  0
  -26.6193  -22.6331   19.6257 H   0  0  0  0  0  0
  -27.9659  -22.4883   22.0051 H   0  0  0  0  0  0
  -29.6593  -22.1232   21.8886 H   0  0  0  0  0  0
  -27.3506  -24.5981   18.2624 H   0  0  0  0  0  0
  -29.0098  -24.1780   18.4930 H   0  0  0  0  0  0
  -30.1145  -24.2373   20.6826 H   0  0  0  0  0  0
  -29.2410  -24.5921   22.1345 H   0  0  0  0  0  0
  -29.5031  -21.6299   19.4994 H   0  0  0  0  0  0
  -23.8765  -19.6499   20.8551 H   0  0  0  0  0  0
  -27.1289  -24.8114   20.8280 H   0  0  0  0  0  0
  -26.0103  -13.8885   15.5697 H   0  0  0  0  0  0
  -25.4502  -15.5539   15.6700 H   0  0  0  0  0  0
  -25.4842  -14.5272   17.1209 H   0  0  0  0  0  0
  -27.3252  -20.2079   19.3266 H   0  0  0  0  0  0
  -27.1557  -20.3497   21.0375 H   0  0  0  0  0  0
  -24.4644  -18.8894   18.1930 H   0  0  0  0  0  0
  -24.2710  -17.3526   19.0486 H   0  0  0  0  0  0
  -30.5022  -16.7315   20.9153 H   0  0  0  0  0  0
  -29.5780  -18.9918   20.7984 H   0  0  0  0  0  0
  1 25  1  0  0  0
  1 30  2  0  0  0
  1 89  1  0  0  0
  2  3  1  0  0  0
  2 25  1  0  0  0
  2 93  1  0  0  0
  2 94  1  0  0  0
  3  4  1  0  0  0
  3 95  1  0  0  0
  3 96  1  0  0  0
  4  5  1  0  0  0
  4 97  1  0  0  0
  4 98  1  0  0  0
  5  6  1  0  0  0
  5 26  1  0  0  0
  5 99  1  0  0  0
  6 25  1  0  0  0
  6100  1  0  0  0
  6101  1  0  0  0
  7  8  2  0  0  0
  7 26  1  0  0  0
  7 29  1  0  0  0
  8  9  1  0  0  0
  8 22  1  0  0  0
  9 10  1  0  0  0
  9 27  2  0  0  0
 10 11  2  0  0  0
 10 15  1  0  0  0
 11 12  1  0  0  0
 11102  1  0  0  0
 12 13  2  0  0  0
 12103  1  0  0  0
 13 14  1  0  0  0
 13 31  1  0  0  0
 14 15  2  0  0  0
 14104  1  0  0  0
 15105  1  0  0  0
 16 17  2  0  0  0
 16 21  1  0  0  0
 16 31  1  0  0  0
 17 18  1  0  0  0
 17106  1  0  0  0
 18 19  2  0  0  0
 18107  1  0  0  0
 19 20  1  0  0  0
 19 24  1  0  0  0
 20 21  2  0  0  0
 20108  1  0  0  0
 21 23  1  0  0  0
 22 28  1  0  0  0
 22 32  2  0  0  0
 26 27  1  0  0  0
 28109  1  0  0  0
 28110  1  0  0  0
 29111  1  0  0  0
 29112  1  0  0  0
 33 34  1  0  0  0
 33 66  1  0  0  0
 33 70  2  0  0  0
 34 36  1  0  0  0
 34 59  1  0  0  0
 34113  1  0  0  0
 35 44  2  0  0  0
 35 45  1  0  0  0
 35 68  1  0  0  0
 36 56  1  0  0  0
 36114  1  0  0  0
 37 39  1  0  0  0
 37 47  1  0  0  0
 37 66  1  0  0  0
 37115  1  0  0  0
 38 43  2  0  0  0
 38 46  1  0  0  0
 38 47  1  0  0  0
 39 64  1  0  0  0
 39 67  2  0  0  0
 40 52  1  0  0  0
 40 53  2  0  0  0
 40 58  1  0  0  0
 41116  1  0  0  0
 41117  1  0  0  0
 41118  1  0  0  0
 41 48  1  0  0  0
 42 43  1  0  0  0
 42 66  1  0  0  0
 42119  1  0  0  0
 42120  1  0  0  0
 43 44  1  0  0  0
 44121  1  0  0  0
 45 46  2  0  0  0
 45122  1  0  0  0
 46123  1  0  0  0
 47124  1  0  0  0
 47125  1  0  0  0
 48 56  1  0  0  0
 48 65  1  0  0  0
 48126  1  0  0  0
 49 50  1  0  0  0
 49 53  1  0  0  0
 49 64  1  0  0  0
 49127  1  0  0  0
 50 51  1  0  0  0
 50128  1  0  0  0
 50129  1  0  0  0
 51 52  1  0  0  0
 51130  1  0  0  0
 51131  1  0  0  0
 52132  1  0  0  0
 52133  1  0  0  0
 53 54  1  0  0  0
 54 55  2  0  0  0
 54134  1  0  0  0
 55 57  1  0  0  0
 55135  1  0  0  0
 56 69  2  0  0  0
 57 58  2  0  0  0
 57136  1  0  0  0
 58137  1  0  0  0
 59 60  1  0  0  0
 59 61  1  0  0  0
 59 62  1  0  0  0
 60138  1  0  0  0
 60139  1  0  0  0
 60140  1  0  0  0
 61141  1  0  0  0
 61142  1  0  0  0
 61143  1  0  0  0
 62144  1  0  0  0
 62145  1  0  0  0
 62146  1  0  0  0
 63 65  1  0  0  0
 63147  1  0  0  0
 63148  1  0  0  0
 63149  1  0  0  0
 64150  1  0  0  0
 65151  1  0  0  0
 68 85  1  0  0  0
 71 73  2  0  0  0
 71 75  1  0  0  0
 71152  1  0  0  0
 72 75  2  0  0  0
 72 76  1  0  0  0
 72153  1  0  0  0
 73 74  1  0  0  0
 73 89  1  0  0  0
 74 76  2  0  0  0
 74 90  1  0  0  0
 75 91  1  0  0  0
 76 92  1  0  0  0
 77 78  1  0  0  0
 77 84  1  0  0  0
 77154  1  0  0  0
 77155  1  0  0  0
 78 84  1  0  0  0
 78156  1  0  0  0
 78157  1  0  0  0
 79 81  1  0  0  0
 79 83  1  0  0  0
 79158  1  0  0  0
 79159  1  0  0  0
 80 82  1  0  0  0
 80 83  1  0  0  0
 80160  1  0  0  0
 80161  1  0  0  0
 81 85  1  0  0  0
 81162  1  0  0  0
 81163  1  0  0  0
 82 85  1  0  0  0
 82164  1  0  0  0
 82165  1  0  0  0
 83 87  1  0  0  0
 83166  1  0  0  0
 84 88  1  0  0  0
 84167  1  0  0  0
 85168  1  0  0  0
 86 91  1  0  0  0
 86169  1  0  0  0
 86170  1  0  0  0
 86171  1  0  0  0
 87 90  1  0  0  0
 87172  1  0  0  0
 87173  1  0  0  0
 88 92  1  0  0  0
 88174  1  0  0  0
 88175  1  0  0  0
 89176  1  0  0  0
 90177  1  0  0  0
M  ISO  4   1 100  68 101  85 101  89 100
M  END
> <chiral flag>
0

> <version>
0

> <s_m_source_file>
/data/baiqing/PycharmProjects/Reinvent-master-3.2/result/LINK_invent/BTK/process_docking_weight1_custom_sum_contain_oxygen_bond_distance_aromatic_linkinvent_7_9_3/rearranged_h_0138.sdf

> <i_m_source_file_index>
74

> <r_mmod_Potential_Energy-OPLS-2005>
474.966430664062

> <r_mmod_Stretch_Energy-OPLS-2005>
112.960502624512

> <r_mmod_Bend_Energy-OPLS-2005>
257.58056640625

> <r_mmod_Torsional_Energy-OPLS-2005>
416.566467285156

> <r_mmod_Improper_Torsional_Energy-OPLS-2005>
7.98770523071289

> <r_mmod_Van_der_Waal_Energy-OPLS-2005>
176.883377075195

> <r_mmod_Electrostatic_Energy-OPLS-2005>
-444.865234375

> <r_mmod_Solvation_Energy-OPLS-2005>
-203.128005981445

> <b_mmod_Minimization_Converged-OPLS-2005>
0

> <r_mmod_RMS_Derivative-OPLS-2005>
9.41993236541748

$$$$
74
                    3D
 Structure written by MMmdl.
168178  0  0  1  0            999 V2000
  -30.3463  -15.4803   20.3639 C   0  0  0  0  0  0
  -30.4251  -12.9829   19.4941 C   0  0  0  0  0  0
  -29.5307  -12.6059   18.2830 C   0  0  0  0  0  0
  -28.1000  -12.2757   18.7387 C   0  0  0  0  0  0
  -27.5926  -13.2836   19.7976 C   0  0  2  0  0  0
  -28.6228  -13.5637   20.9108 C   0  0  0  0  0  0
  -25.2330  -13.8227   20.5760 C   0  0  0  0  0  0
  -24.1692  -13.0413   20.9245 C   0  0  0  0  0  0
  -24.6368  -11.6908   20.8747 C   0  0  0  0  0  0
  -23.9063  -10.4268   21.0400 C   0  0  0  0  0  0
  -24.3606   -9.4182   21.9184 C   0  0  0  0  0  0
  -23.6268   -8.2230   22.0759 C   0  0  0  0  0  0
  -22.4250   -8.0279   21.3558 C   0  0  0  0  0  0
  -21.9894   -9.0240   20.4655 C   0  0  0  0  0  0
  -22.7229  -10.2111   20.3050 C   0  0  0  0  0  0
  -21.6850   -6.0715   22.5270 C   0  0  0  0  0  0
  -21.4026   -6.5624   23.8203 C   0  0  0  0  0  0
  -21.3651   -5.6780   24.9166 C   0  0  0  0  0  0
  -21.6030   -4.3042   24.7222 C   0  0  0  0  0  0
  -21.8819   -3.8129   23.4350 C   0  0  0  0  0  0
  -21.9194   -4.6942   22.3402 C   0  0  0  0  0  0
  -22.7715  -13.5178   21.1880 C   0  0  0  0  0  0
  -22.1662   -4.2118   21.0981 F   0  0  0  0  0  0
  -21.5621   -3.4540   25.7743 F   0  0  0  0  0  0
  -29.7984  -14.1518   20.2370 N   0  0  0  0  0  0
  -26.2738  -12.9512   20.3153 N   0  0  0  0  0  0
  -25.9303  -11.6610   20.5680 N   0  0  0  0  0  0
  -22.0371  -12.8177   22.0448 N   0  0  0  0  0  0
  -25.3964  -15.1958   20.4247 N   0  0  0  0  0  0
  -31.5882  -15.4210   20.3123 O   0  0  0  0  0  0
  -21.6635   -6.8862   21.4232 O   0  0  0  0  0  0
  -22.3398  -14.5469   20.6697 O   0  0  0  0  0  0
  -24.6761  -31.8078   23.1586 C   0  0  0  0  0  0
  -25.9384  -32.4523   23.8093 C   0  0  1  0  0  0
  -27.2110  -26.7808   20.2059 C   0  0  0  0  0  0
  -25.6007  -33.8337   24.2001 N   0  0  0  0  0  0
  -23.4966  -30.4141   21.5122 C   0  0  2  0  0  0
  -24.9478  -28.7693   20.1188 C   0  0  0  0  0  0
  -22.7719  -29.4364   22.4740 C   0  0  0  0  0  0
  -18.0336  -28.1416   22.8460 C   0  0  0  0  0  0
  -24.1482  -36.7175   23.2646 C   0  0  0  0  0  0
  -26.0710  -30.5666   21.4082 C   0  0  0  0  0  0
  -26.1364  -29.1396   20.7599 C   0  0  0  0  0  0
  -27.2585  -28.1721   20.7687 C   0  0  0  0  0  0
  -25.9901  -26.5980   19.5137 C   0  0  0  0  0  0
  -24.9095  -27.5230   19.4727 C   0  0  0  0  0  0
  -23.7453  -29.7201   20.1442 C   0  0  0  0  0  0
  -25.4131  -36.2922   24.0283 C   0  0  1  0  0  0
  -20.5963  -28.3769   23.1158 C   0  0  2  0  0  0
  -20.6799  -26.9430   22.5410 C   0  0  0  0  0  0
  -19.5787  -26.6367   21.5206 C   0  0  0  0  0  0
  -18.1969  -26.7943   22.1612 C   0  0  0  0  0  0
  -19.1600  -28.8914   23.2797 C   0  0  0  0  0  0
  -18.9509  -30.1501   23.8841 C   0  0  0  0  0  0
  -17.6502  -30.6600   24.0543 C   0  0  0  0  0  0
  -25.9118  -34.9319   23.4974 C   0  0  0  0  0  0
  -16.5391  -29.9082   23.6342 C   0  0  0  0  0  0
  -16.7318  -28.6502   23.0361 C   0  0  0  0  0  0
  -26.4588  -31.6519   25.0678 C   0  0  0  0  0  0
  -25.3677  -31.3842   26.1322 C   0  0  0  0  0  0
  -27.0511  -30.2863   24.6525 C   0  0  0  0  0  0
  -27.6049  -32.4357   25.7505 C   0  0  0  0  0  0
  -27.5555  -37.1737   24.8465 C   0  0  0  0  0  0
  -21.4376  -29.3039   22.3488 N   0  0  0  0  0  0
  -26.4262  -37.3672   23.9428 N   0  0  0  0  0  0
  -24.7712  -30.9615   22.0796 N   0  0  0  0  0  0
  -23.4188  -28.7941   23.3047 O   0  0  0  0  0  0
  -28.2118  -25.6262   20.2439 O   0  0  0  0  0  0
  -26.5727  -34.8873   22.4573 O   0  0  0  0  0  0
  -23.5812  -32.1131   23.6589 O   0  0  0  0  0  0
  -30.0727  -18.9941   23.2808 C   0  0  0  0  0  0
  -29.7136  -20.3286   23.1074 C   0  0  0  0  0  0
  -30.0503  -18.0802   22.2246 C   0  0  0  0  0  0
  -29.3181  -20.8512   21.8629 C   0  0  0  0  0  0
  -29.2334  -19.9309   20.7066 C   0  0  0  0  0  0
  -29.6238  -18.3515   20.9021 C   0  0  0  0  0  0
  -29.2368  -22.4301   21.8687 C   0  0  0  0  0  0
  -28.6692  -20.9597   19.4886 C   0  0  0  0  0  0
  -28.7568  -22.7422   19.2863 C   0  0  0  0  0  0
  -23.8380  -21.3135   23.6188 C   0  0  0  0  0  0
  -24.3927  -22.3662   24.5482 C   0  0  0  0  0  0
  -24.6568  -22.4568   23.0619 C   0  0  0  0  0  0
  -27.9576  -23.9557   20.2666 C   0  0  1  0  0  0
  -27.4899  -23.6202   23.9718 C   0  0  0  0  0  0
  -26.0214  -22.1824   22.4478 C   0  0  0  0  0  0
  -26.9966  -23.3791   22.5300 C   0  0  2  0  0  0
  -28.1099  -23.2105   21.5764 N   0  0  0  0  0  0
  -29.6151  -16.8244   20.2296 N   0  0  0  0  0  0
  -30.3020  -23.0136   22.0931 O   0  0  0  0  0  0
  -31.4180  -13.2431   19.1249 H   0  0  0  0  0  0
  -30.5755  -12.1257   20.1535 H   0  0  0  0  0  0
  -29.9561  -11.7620   17.7377 H   0  0  0  0  0  0
  -29.5042  -13.4403   17.5804 H   0  0  0  0  0  0
  -28.1169  -11.2741   19.1709 H   0  0  0  0  0  0
  -27.4209  -12.2310   17.8862 H   0  0  0  0  0  0
  -27.4688  -14.2179   19.2463 H   0  0  0  0  0  0
  -28.8643  -12.6628   21.4768 H   0  0  0  0  0  0
  -28.2200  -14.2849   21.6249 H   0  0  0  0  0  0
  -25.2756   -9.5640   22.4752 H   0  0  0  0  0  0
  -23.9959   -7.4621   22.7479 H   0  0  0  0  0  0
  -21.0821   -8.8753   19.8974 H   0  0  0  0  0  0
  -22.3687  -10.9641   19.6144 H   0  0  0  0  0  0
  -21.2039   -7.6138   23.9688 H   0  0  0  0  0  0
  -21.1470   -6.0526   25.9061 H   0  0  0  0  0  0
  -22.0609   -2.7591   23.2857 H   0  0  0  0  0  0
  -22.4051  -11.9888   22.4881 H   0  0  0  0  0  0
  -21.0982  -13.1187   22.2652 H   0  0  0  0  0  0
  -24.6266  -15.8436   20.5447 H   0  0  0  0  0  0
  -26.2491  -15.6439   20.1153 H   0  0  0  0  0  0
  -26.7440  -32.5036   23.0788 H   0  0  0  0  0  0
  -25.0106  -33.9388   25.0124 H   0  0  0  0  0  0
  -22.8179  -31.2504   21.3302 H   0  0  0  0  0  0
  -23.3762  -35.9483   23.3267 H   0  0  0  0  0  0
  -24.3540  -36.8874   22.2064 H   0  0  0  0  0  0
  -23.7216  -37.6337   23.6745 H   0  0  0  0  0  0
  -26.2624  -31.2959   20.6199 H   0  0  0  0  0  0
  -26.9254  -30.6335   22.0703 H   0  0  0  0  0  0
  -28.1608  -28.4593   21.2892 H   0  0  0  0  0  0
  -25.8387  -25.6557   19.0074 H   0  0  0  0  0  0
  -24.0136  -27.2349   18.9409 H   0  0  0  0  0  0
  -23.9236  -30.4831   19.3859 H   0  0  0  0  0  0
  -22.8512  -29.1884   19.8162 H   0  0  0  0  0  0
  -25.1321  -36.1685   25.0763 H   0  0  0  0  0  0
  -21.0053  -28.3399   24.1283 H   0  0  0  0  0  0
  -20.5644  -26.2393   23.3668 H   0  0  0  0  0  0
  -21.6665  -26.7380   22.1244 H   0  0  0  0  0  0
  -19.6950  -25.6258   21.1290 H   0  0  0  0  0  0
  -19.6727  -27.3123   20.6690 H   0  0  0  0  0  0
  -17.4230  -26.6686   21.4021 H   0  0  0  0  0  0
  -18.0372  -26.0096   22.9022 H   0  0  0  0  0  0
  -19.7990  -30.7329   24.2179 H   0  0  0  0  0  0
  -17.5057  -31.6272   24.5159 H   0  0  0  0  0  0
  -15.5390  -30.2959   23.7709 H   0  0  0  0  0  0
  -15.8721  -28.0794   22.7115 H   0  0  0  0  0  0
  -24.5835  -30.7227   25.7623 H   0  0  0  0  0  0
  -24.8917  -32.3084   26.4607 H   0  0  0  0  0  0
  -25.7863  -30.9077   27.0196 H   0  0  0  0  0  0
  -26.3214  -29.6501   24.1508 H   0  0  0  0  0  0
  -27.3960  -29.7281   25.5241 H   0  0  0  0  0  0
  -27.9177  -30.4016   24.0014 H   0  0  0  0  0  0
  -27.2585  -33.3693   26.1954 H   0  0  0  0  0  0
  -28.3933  -32.6867   25.0395 H   0  0  0  0  0  0
  -28.0638  -31.8583   26.5546 H   0  0  0  0  0  0
  -28.2538  -38.0054   24.7500 H   0  0  0  0  0  0
  -28.1074  -36.2585   24.6292 H   0  0  0  0  0  0
  -27.2281  -37.1370   25.8863 H   0  0  0  0  0  0
  -20.9671  -29.8725   21.6587 H   0  0  0  0  0  0
  -26.0097  -38.2718   24.1464 H   0  0  0  0  0  0
  -30.3860  -18.6566   24.2600 H   0  0  0  0  0  0
  -29.7934  -20.9918   23.9596 H   0  0  0  0  0  0
  -30.3363  -17.0774   22.5070 H   0  0  0  0  0  0
  -27.6132  -20.7068   19.3900 H   0  0  0  0  0  0
  -29.1147  -20.5470   18.5846 H   0  0  0  0  0  0
  -28.4163  -22.9513   18.2724 H   0  0  0  0  0  0
  -29.8139  -23.0097   19.2534 H   0  0  0  0  0  0
  -22.7652  -21.3183   23.4360 H   0  0  0  0  0  0
  -24.2965  -20.3269   23.6639 H   0  0  0  0  0  0
  -25.2151  -22.0790   25.1996 H   0  0  0  0  0  0
  -23.6865  -23.0783   24.9733 H   0  0  0  0  0  0
  -24.0980  -23.2317   22.5391 H   0  0  0  0  0  0
  -26.8978  -23.8673   20.0251 H   0  0  0  0  0  0
  -26.6840  -23.9973   24.6022 H   0  0  0  0  0  0
  -28.2912  -24.3609   24.0023 H   0  0  0  0  0  0
  -27.8659  -22.7030   24.4293 H   0  0  0  0  0  0
  -25.8543  -21.9126   21.4031 H   0  0  0  0  0  0
  -26.4632  -21.3050   22.9227 H   0  0  0  0  0  0
  -26.4546  -24.2799   22.2334 H   0  0  0  0  0  0
  -28.7514  -16.6682   19.7291 H   0  0  0  0  0  0
  1 25  1  0  0  0
  1 30  2  0  0  0
  1 88  1  0  0  0
  2  3  1  0  0  0
  2 25  1  0  0  0
  2 90  1  0  0  0
  2 91  1  0  0  0
  3  4  1  0  0  0
  3 92  1  0  0  0
  3 93  1  0  0  0
  4  5  1  0  0  0
  4 94  1  0  0  0
  4 95  1  0  0  0
  5  6  1  0  0  0
  5 26  1  0  0  0
  5 96  1  0  0  0
  6 25  1  0  0  0
  6 97  1  0  0  0
  6 98  1  0  0  0
  7  8  2  0  0  0
  7 26  1  0  0  0
  7 29  1  0  0  0
  8  9  1  0  0  0
  8 22  1  0  0  0
  9 10  1  0  0  0
  9 27  2  0  0  0
 10 11  2  0  0  0
 10 15  1  0  0  0
 11 12  1  0  0  0
 11 99  1  0  0  0
 12 13  2  0  0  0
 12100  1  0  0  0
 13 14  1  0  0  0
 13 31  1  0  0  0
 14 15  2  0  0  0
 14101  1  0  0  0
 15102  1  0  0  0
 16 17  2  0  0  0
 16 21  1  0  0  0
 16 31  1  0  0  0
 17 18  1  0  0  0
 17103  1  0  0  0
 18 19  2  0  0  0
 18104  1  0  0  0
 19 20  1  0  0  0
 19 24  1  0  0  0
 20 21  2  0  0  0
 20105  1  0  0  0
 21 23  1  0  0  0
 22 28  1  0  0  0
 22 32  2  0  0  0
 26 27  1  0  0  0
 28106  1  0  0  0
 28107  1  0  0  0
 29108  1  0  0  0
 29109  1  0  0  0
 33 34  1  0  0  0
 33 66  1  0  0  0
 33 70  2  0  0  0
 34 36  1  0  0  0
 34 59  1  0  0  0
 34110  1  0  0  0
 35 44  2  0  0  0
 35 45  1  0  0  0
 35 68  1  0  0  0
 36 56  1  0  0  0
 36111  1  0  0  0
 37 39  1  0  0  0
 37 47  1  0  0  0
 37 66  1  0  0  0
 37112  1  0  0  0
 38 43  2  0  0  0
 38 46  1  0  0  0
 38 47  1  0  0  0
 39 64  1  0  0  0
 39 67  2  0  0  0
 40 52  1  0  0  0
 40 53  2  0  0  0
 40 58  1  0  0  0
 41113  1  0  0  0
 41114  1  0  0  0
 41115  1  0  0  0
 41 48  1  0  0  0
 42 43  1  0  0  0
 42 66  1  0  0  0
 42116  1  0  0  0
 42117  1  0  0  0
 43 44  1  0  0  0
 44118  1  0  0  0
 45 46  2  0  0  0
 45119  1  0  0  0
 46120  1  0  0  0
 47121  1  0  0  0
 47122  1  0  0  0
 48 56  1  0  0  0
 48 65  1  0  0  0
 48123  1  0  0  0
 49 50  1  0  0  0
 49 53  1  0  0  0
 49 64  1  0  0  0
 49124  1  0  0  0
 50 51  1  0  0  0
 50125  1  0  0  0
 50126  1  0  0  0
 51 52  1  0  0  0
 51127  1  0  0  0
 51128  1  0  0  0
 52129  1  0  0  0
 52130  1  0  0  0
 53 54  1  0  0  0
 54 55  2  0  0  0
 54131  1  0  0  0
 55 57  1  0  0  0
 55132  1  0  0  0
 56 69  2  0  0  0
 57 58  2  0  0  0
 57133  1  0  0  0
 58134  1  0  0  0
 59 60  1  0  0  0
 59 61  1  0  0  0
 59 62  1  0  0  0
 60135  1  0  0  0
 60136  1  0  0  0
 60137  1  0  0  0
 61138  1  0  0  0
 61139  1  0  0  0
 61140  1  0  0  0
 62141  1  0  0  0
 62142  1  0  0  0
 62143  1  0  0  0
 63 65  1  0  0  0
 63144  1  0  0  0
 63145  1  0  0  0
 63146  1  0  0  0
 64147  1  0  0  0
 65148  1  0  0  0
 68 83  1  0  0  0
 71 72  2  0  0  0
 71 73  1  0  0  0
 71149  1  0  0  0
 72 74  1  0  0  0
 72150  1  0  0  0
 73 76  2  0  0  0
 73151  1  0  0  0
 74 75  2  0  0  0
 74 77  1  0  0  0
 75 76  1  0  0  0
 75 78  1  0  0  0
 76 88  1  0  0  0
 77 87  1  0  0  0
 77 89  2  0  0  0
 78 79  1  0  0  0
 78152  1  0  0  0
 78153  1  0  0  0
 79 83  1  0  0  0
 79154  1  0  0  0
 79155  1  0  0  0
 80 81  1  0  0  0
 80 82  1  0  0  0
 80156  1  0  0  0
 80157  1  0  0  0
 81 82  1  0  0  0
 81158  1  0  0  0
 81159  1  0  0  0
 82 85  1  0  0  0
 82160  1  0  0  0
 83 87  1  0  0  0
 83161  1  0  0  0
 84162  1  0  0  0
 84163  1  0  0  0
 84164  1  0  0  0
 84 86  1  0  0  0
 85 86  1  0  0  0
 85165  1  0  0  0
 85166  1  0  0  0
 86 87  1  0  0  0
 86167  1  0  0  0
 88168  1  0  0  0
M  ISO  4   1 100  68 101  83 101  88 100
M  END
> <chiral flag>
0

> <version>
0

> <s_m_source_file>
/data/baiqing/PycharmProjects/Reinvent-master-3.2/result/LINK_invent/BTK/process_docking_weight1_custom_sum_contain_oxygen_bond_distance_aromatic_linkinvent_7_9_3/rearranged_h_0138.sdf

> <i_m_source_file_index>
75

> <r_mmod_Potential_Energy-OPLS-2005>
2174.455078125

> <r_mmod_Stretch_Energy-OPLS-2005>
809.246459960938

> <r_mmod_Bend_Energy-OPLS-2005>
617.583923339844

> <r_mmod_Torsional_Energy-OPLS-2005>
413.251373291016

> <r_mmod_Improper_Torsional_Energy-OPLS-2005>
11.2026948928833

> <r_mmod_Van_der_Waal_Energy-OPLS-2005>
146.765625

> <r_mmod_Electrostatic_Energy-OPLS-2005>
-306.764801025391

> <r_mmod_Solvation_Energy-OPLS-2005>
-228.159027099609

> <b_mmod_Minimization_Converged-OPLS-2005>
0

> <r_mmod_RMS_Derivative-OPLS-2005>
3.08847761154175

$$$$
75
                    3D
 Structure written by MMmdl.
170178  0  0  1  0            999 V2000
  -30.6728  -14.5422   20.5553 C   0  0  0  0  0  0
  -30.4292  -12.3495   19.4269 C   0  0  0  0  0  0
  -29.4969  -12.5033   18.2070 C   0  0  0  0  0  0
  -28.0189  -12.3534   18.6215 C   0  0  0  0  0  0
  -27.6544  -13.2099   19.8640 C   0  0  2  0  0  0
  -28.6992  -13.0270   20.9869 C   0  0  0  0  0  0
  -25.2557  -13.8153   20.5665 C   0  0  0  0  0  0
  -24.1820  -13.0429   20.9182 C   0  0  0  0  0  0
  -24.6382  -11.6898   20.8737 C   0  0  0  0  0  0
  -23.9051  -10.4287   21.0405 C   0  0  0  0  0  0
  -24.3608   -9.4206   21.9183 C   0  0  0  0  0  0
  -23.6290   -8.2238   22.0757 C   0  0  0  0  0  0
  -22.4271   -8.0274   21.3547 C   0  0  0  0  0  0
  -21.9902   -9.0242   20.4648 C   0  0  0  0  0  0
  -22.7225  -10.2125   20.3055 C   0  0  0  0  0  0
  -21.6849   -6.0730   22.5282 C   0  0  0  0  0  0
  -21.4011   -6.5637   23.8216 C   0  0  0  0  0  0
  -21.3659   -5.6792   24.9178 C   0  0  0  0  0  0
  -21.6044   -4.3053   24.7230 C   0  0  0  0  0  0
  -21.8818   -3.8145   23.4350 C   0  0  0  0  0  0
  -21.9193   -4.6959   22.3406 C   0  0  0  0  0  0
  -22.7848  -13.5230   21.1851 C   0  0  0  0  0  0
  -22.1660   -4.2145   21.0981 F   0  0  0  0  0  0
  -21.5632   -3.4538   25.7742 F   0  0  0  0  0  0
  -30.0192  -13.3521   20.4239 N   0  0  0  0  0  0
  -26.2987  -12.9327   20.3317 N   0  0  0  0  0  0
  -25.9306  -11.6488   20.5751 N   0  0  0  0  0  0
  -22.0483  -12.8228   22.0408 N   0  0  0  0  0  0
  -25.4269  -15.1869   20.4045 N   0  0  0  0  0  0
  -31.8245  -14.7130   20.1488 O   0  0  0  0  0  0
  -21.6636   -6.8871   21.4242 O   0  0  0  0  0  0
  -22.3543  -14.5540   20.6702 O   0  0  0  0  0  0
  -24.6187  -31.8641   23.2063 C   0  0  0  0  0  0
  -25.9061  -32.4804   23.8375 C   0  0  1  0  0  0
  -27.2326  -27.3940   20.1095 C   0  0  0  0  0  0
  -25.5909  -33.8606   24.2307 N   0  0  0  0  0  0
  -23.4094  -30.4859   21.5469 C   0  0  2  0  0  0
  -24.8580  -28.9452   20.1139 C   0  0  0  0  0  0
  -22.7437  -29.4638   22.4969 C   0  0  0  0  0  0
  -18.0278  -28.1376   22.8494 C   0  0  0  0  0  0
  -24.1488  -36.7299   23.2639 C   0  0  0  0  0  0
  -25.9425  -30.8185   21.3650 C   0  0  0  0  0  0
  -26.0214  -29.4499   20.7106 C   0  0  0  0  0  0
  -27.2159  -28.6843   20.6990 C   0  0  0  0  0  0
  -26.0531  -26.9117   19.5058 C   0  0  0  0  0  0
  -24.8705  -27.6771   19.5062 C   0  0  0  0  0  0
  -23.6209  -29.8158   20.1626 C   0  0  0  0  0  0
  -25.4111  -36.3098   24.0335 C   0  0  1  0  0  0
  -20.5872  -28.3663   23.1309 C   0  0  2  0  0  0
  -20.6769  -26.9393   22.5414 C   0  0  0  0  0  0
  -19.5749  -26.6381   21.5212 C   0  0  0  0  0  0
  -18.1927  -26.7924   22.1621 C   0  0  0  0  0  0
  -19.1528  -28.8839   23.2896 C   0  0  0  0  0  0
  -18.9456  -30.1449   23.8900 C   0  0  0  0  0  0
  -17.6458  -30.6584   24.0564 C   0  0  0  0  0  0
  -25.9038  -34.9468   23.5116 C   0  0  0  0  0  0
  -16.5349  -29.9081   23.6332 C   0  0  0  0  0  0
  -16.7267  -28.6497   23.0353 C   0  0  0  0  0  0
  -26.4479  -31.6599   25.0718 C   0  0  0  0  0  0
  -25.3739  -31.3715   26.1463 C   0  0  0  0  0  0
  -27.0314  -30.3039   24.6112 C   0  0  0  0  0  0
  -27.6049  -32.4326   25.7481 C   0  0  0  0  0  0
  -27.5581  -37.1803   24.8462 C   0  0  0  0  0  0
  -21.4157  -29.3026   22.3713 N   0  0  0  0  0  0
  -26.4293  -37.3786   23.9412 N   0  0  0  0  0  0
  -24.6752  -31.0711   22.0975 N   0  0  0  0  0  0
  -23.4190  -28.8180   23.3029 O   0  0  0  0  0  0
  -28.3660  -26.5967   20.1125 O   0  0  0  0  0  0
  -26.5597  -34.8929   22.4677 O   0  0  0  0  0  0
  -23.5371  -32.1408   23.7438 O   0  0  0  0  0  0
  -28.3233  -18.8821   19.1484 C   0  0  0  0  0  0
  -29.1126  -19.0454   20.4671 C   0  0  1  0  0  0
  -28.2062  -21.3112   20.7050 C   0  0  2  0  0  0
  -27.3088  -21.1334   19.4374 C   0  0  2  0  0  0
  -25.2272  -21.9322   18.1597 C   0  0  0  0  0  0
  -24.9816  -21.2890   20.6012 C   0  0  0  0  0  0
  -30.3799  -18.1139   20.4810 C   0  0  0  0  0  0
  -28.4585  -22.7927   21.1917 C   0  0  0  0  0  0
  -28.6092  -24.0160   20.2098 C   0  0  0  0  0  0
  -30.4183  -16.9072   21.4877 C   0  0  0  0  0  0
  -28.2673  -25.3825   20.9044 C   0  0  0  0  0  0
  -25.9310  -21.8584   19.5270 C   0  0  0  0  0  0
  -29.4383  -20.4910   20.6061 N   0  0  0  0  0  0
  -29.9371  -15.5742   21.0385 N   0  0  0  0  0  0
  -27.0879  -19.6903   19.1725 N   0  3  0  0  0  0
  -31.4710  -12.4662   19.1235 H   0  0  0  0  0  0
  -30.3517  -11.3460   19.8480 H   0  0  0  0  0  0
  -29.7493  -11.7650   17.4444 H   0  0  0  0  0  0
  -29.6508  -13.4808   17.7477 H   0  0  0  0  0  0
  -27.8414  -11.2987   18.8345 H   0  0  0  0  0  0
  -27.3661  -12.6064   17.7853 H   0  0  0  0  0  0
  -27.6857  -14.2516   19.5450 H   0  0  0  0  0  0
  -28.6948  -11.9975   21.3470 H   0  0  0  0  0  0
  -28.4543  -13.6412   21.8549 H   0  0  0  0  0  0
  -25.2754   -9.5683   22.4756 H   0  0  0  0  0  0
  -24.0003   -7.4627   22.7474 H   0  0  0  0  0  0
  -21.0835   -8.8747   19.8954 H   0  0  0  0  0  0
  -22.3677  -10.9655   19.6160 H   0  0  0  0  0  0
  -21.1996   -7.6146   23.9716 H   0  0  0  0  0  0
  -21.1484   -6.0523   25.9082 H   0  0  0  0  0  0
  -22.0598   -2.7607   23.2850 H   0  0  0  0  0  0
  -22.4089  -11.9884   22.4796 H   0  0  0  0  0  0
  -21.1096  -13.1253   22.2599 H   0  0  0  0  0  0
  -24.6537  -15.8364   20.5002 H   0  0  0  0  0  0
  -26.2725  -15.6182   20.0567 H   0  0  0  0  0  0
  -26.7132  -32.5497   23.1138 H   0  0  0  0  0  0
  -25.0097  -33.9768   25.0479 H   0  0  0  0  0  0
  -22.6995  -31.3035   21.4046 H   0  0  0  0  0  0
  -23.3755  -35.9623   23.3307 H   0  0  0  0  0  0
  -24.3586  -36.8908   22.2051 H   0  0  0  0  0  0
  -23.7235  -37.6506   23.6648 H   0  0  0  0  0  0
  -26.0630  -31.5850   20.5981 H   0  0  0  0  0  0
  -26.8272  -30.8694   21.9879 H   0  0  0  0  0  0
  -28.1140  -29.0694   21.1621 H   0  0  0  0  0  0
  -26.0476  -25.9352   19.0413 H   0  0  0  0  0  0
  -23.9764  -27.2829   19.0430 H   0  0  0  0  0  0
  -23.7307  -30.5890   19.4017 H   0  0  0  0  0  0
  -22.7444  -29.2361   19.8662 H   0  0  0  0  0  0
  -25.1293  -36.1955   25.0825 H   0  0  0  0  0  0
  -20.9968  -28.3221   24.1430 H   0  0  0  0  0  0
  -20.5677  -26.2264   23.3602 H   0  0  0  0  0  0
  -21.6639  -26.7436   22.1203 H   0  0  0  0  0  0
  -19.6906  -25.6293   21.1236 H   0  0  0  0  0  0
  -19.6693  -27.3196   20.6747 H   0  0  0  0  0  0
  -17.4201  -26.6684   21.4015 H   0  0  0  0  0  0
  -18.0318  -26.0062   22.9009 H   0  0  0  0  0  0
  -19.7932  -30.7266   24.2265 H   0  0  0  0  0  0
  -17.5012  -31.6266   24.5160 H   0  0  0  0  0  0
  -15.5350  -30.2984   23.7658 H   0  0  0  0  0  0
  -15.8665  -28.0820   22.7065 H   0  0  0  0  0  0
  -24.5907  -30.7068   25.7801 H   0  0  0  0  0  0
  -24.8943  -32.2878   26.4912 H   0  0  0  0  0  0
  -25.8093  -30.8883   27.0219 H   0  0  0  0  0  0
  -26.2861  -29.6799   24.1165 H   0  0  0  0  0  0
  -27.4085  -29.7275   25.4571 H   0  0  0  0  0  0
  -27.8696  -30.4362   23.9266 H   0  0  0  0  0  0
  -27.2660  -33.3619   26.2072 H   0  0  0  0  0  0
  -28.3848  -32.6901   25.0300 H   0  0  0  0  0  0
  -28.0729  -31.8446   26.5388 H   0  0  0  0  0  0
  -28.2595  -38.0104   24.7530 H   0  0  0  0  0  0
  -28.1085  -36.2644   24.6266 H   0  0  0  0  0  0
  -27.2307  -37.1417   25.8867 H   0  0  0  0  0  0
  -20.9322  -29.8743   21.6930 H   0  0  0  0  0  0
  -26.0179  -38.2859   24.1428 H   0  0  0  0  0  0
  -28.0534  -17.8352   18.9994 H   0  0  0  0  0  0
  -28.9328  -19.1686   18.2892 H   0  0  0  0  0  0
  -28.4786  -18.7548   21.3074 H   0  0  0  0  0  0
  -27.6622  -20.8585   21.5361 H   0  0  0  0  0  0
  -27.8553  -21.5454   18.5868 H   0  0  0  0  0  0
  -25.8736  -22.3799   17.4035 H   0  0  0  0  0  0
  -24.3279  -22.5463   18.2171 H   0  0  0  0  0  0
  -24.9242  -20.9490   17.7994 H   0  0  0  0  0  0
  -25.4348  -21.2958   21.5929 H   0  0  0  0  0  0
  -24.6677  -20.2685   20.3806 H   0  0  0  0  0  0
  -24.0747  -21.8916   20.6690 H   0  0  0  0  0  0
  -31.2344  -18.7408   20.7398 H   0  0  0  0  0  0
  -30.6133  -17.7572   19.4768 H   0  0  0  0  0  0
  -29.2945  -22.8018   21.8920 H   0  0  0  0  0  0
  -27.5968  -23.0234   21.8197 H   0  0  0  0  0  0
  -27.9695  -23.9085   19.3364 H   0  0  0  0  0  0
  -29.6285  -24.0425   19.8234 H   0  0  0  0  0  0
  -29.8764  -17.1772   22.3947 H   0  0  0  0  0  0
  -31.4519  -16.7809   21.8164 H   0  0  0  0  0  0
  -28.9410  -25.5131   21.7517 H   0  0  0  0  0  0
  -27.2731  -25.3014   21.3490 H   0  0  0  0  0  0
  -26.1072  -22.8928   19.8135 H   0  0  0  0  0  0
  -29.9821  -20.8007   19.8048 H   0  0  0  0  0  0
  -28.9887  -15.3362   21.2893 H   0  0  0  0  0  0
  -26.4887  -19.3248   19.8926 H   0  0  0  0  0  0
  -26.6182  -19.5823   18.2893 H   0  0  0  0  0  0
  1 25  1  0  0  0
  1 30  2  0  0  0
  1 84  1  0  0  0
  2  3  1  0  0  0
  2 25  1  0  0  0
  2 86  1  0  0  0
  2 87  1  0  0  0
  3  4  1  0  0  0
  3 88  1  0  0  0
  3 89  1  0  0  0
  4  5  1  0  0  0
  4 90  1  0  0  0
  4 91  1  0  0  0
  5  6  1  0  0  0
  5 26  1  0  0  0
  5 92  1  0  0  0
  6 25  1  0  0  0
  6 93  1  0  0  0
  6 94  1  0  0  0
  7  8  2  0  0  0
  7 26  1  0  0  0
  7 29  1  0  0  0
  8  9  1  0  0  0
  8 22  1  0  0  0
  9 10  1  0  0  0
  9 27  2  0  0  0
 10 11  2  0  0  0
 10 15  1  0  0  0
 11 12  1  0  0  0
 11 95  1  0  0  0
 12 13  2  0  0  0
 12 96  1  0  0  0
 13 14  1  0  0  0
 13 31  1  0  0  0
 14 15  2  0  0  0
 14 97  1  0  0  0
 15 98  1  0  0  0
 16 17  2  0  0  0
 16 21  1  0  0  0
 16 31  1  0  0  0
 17 18  1  0  0  0
 17 99  1  0  0  0
 18 19  2  0  0  0
 18100  1  0  0  0
 19 20  1  0  0  0
 19 24  1  0  0  0
 20 21  2  0  0  0
 20101  1  0  0  0
 21 23  1  0  0  0
 22 28  1  0  0  0
 22 32  2  0  0  0
 26 27  1  0  0  0
 28102  1  0  0  0
 28103  1  0  0  0
 29104  1  0  0  0
 29105  1  0  0  0
 33 34  1  0  0  0
 33 66  1  0  0  0
 33 70  2  0  0  0
 34 36  1  0  0  0
 34 59  1  0  0  0
 34106  1  0  0  0
 35 44  2  0  0  0
 35 45  1  0  0  0
 35 68  1  0  0  0
 36 56  1  0  0  0
 36107  1  0  0  0
 37 39  1  0  0  0
 37 47  1  0  0  0
 37 66  1  0  0  0
 37108  1  0  0  0
 38 43  2  0  0  0
 38 46  1  0  0  0
 38 47  1  0  0  0
 39 64  1  0  0  0
 39 67  2  0  0  0
 40 52  1  0  0  0
 40 53  2  0  0  0
 40 58  1  0  0  0
 41109  1  0  0  0
 41110  1  0  0  0
 41111  1  0  0  0
 41 48  1  0  0  0
 42 43  1  0  0  0
 42 66  1  0  0  0
 42112  1  0  0  0
 42113  1  0  0  0
 43 44  1  0  0  0
 44114  1  0  0  0
 45 46  2  0  0  0
 45115  1  0  0  0
 46116  1  0  0  0
 47117  1  0  0  0
 47118  1  0  0  0
 48 56  1  0  0  0
 48 65  1  0  0  0
 48119  1  0  0  0
 49 50  1  0  0  0
 49 53  1  0  0  0
 49 64  1  0  0  0
 49120  1  0  0  0
 50 51  1  0  0  0
 50121  1  0  0  0
 50122  1  0  0  0
 51 52  1  0  0  0
 51123  1  0  0  0
 51124  1  0  0  0
 52125  1  0  0  0
 52126  1  0  0  0
 53 54  1  0  0  0
 54 55  2  0  0  0
 54127  1  0  0  0
 55 57  1  0  0  0
 55128  1  0  0  0
 56 69  2  0  0  0
 57 58  2  0  0  0
 57129  1  0  0  0
 58130  1  0  0  0
 59 60  1  0  0  0
 59 61  1  0  0  0
 59 62  1  0  0  0
 60131  1  0  0  0
 60132  1  0  0  0
 60133  1  0  0  0
 61134  1  0  0  0
 61135  1  0  0  0
 61136  1  0  0  0
 62137  1  0  0  0
 62138  1  0  0  0
 62139  1  0  0  0
 63 65  1  0  0  0
 63140  1  0  0  0
 63141  1  0  0  0
 63142  1  0  0  0
 64143  1  0  0  0
 65144  1  0  0  0
 68 81  1  0  0  0
 71 72  1  0  0  0
 71 85  1  0  0  0
 71145  1  0  0  0
 71146  1  0  0  0
 72 77  1  0  0  0
 72 83  1  0  0  0
 72147  1  0  0  0
 73 74  1  0  0  0
 73 78  1  0  0  0
 73 83  1  0  0  0
 73148  1  0  0  0
 74 82  1  0  0  0
 74 85  1  0  0  0
 74149  1  0  0  0
 75150  1  0  0  0
 75151  1  0  0  0
 75152  1  0  0  0
 75 82  1  0  0  0
 76 82  1  0  0  0
 76153  1  0  0  0
 76154  1  0  0  0
 76155  1  0  0  0
 77 80  1  0  0  0
 77156  1  0  0  0
 77157  1  0  0  0
 78 79  1  0  0  0
 78158  1  0  0  0
 78159  1  0  0  0
 79 81  1  0  0  0
 79160  1  0  0  0
 79161  1  0  0  0
 80 84  1  0  0  0
 80162  1  0  0  0
 80163  1  0  0  0
 81164  1  0  0  0
 81165  1  0  0  0
 82166  1  0  0  0
 83167  1  0  0  0
 84168  1  0  0  0
 85169  1  0  0  0
 85170  1  0  0  0
M  CHG  1  85   1
M  ISO  4   1 100  68 101  81 101  84 100
M  END
> <chiral flag>
0

> <version>
0

> <s_m_source_file>
/data/baiqing/PycharmProjects/Reinvent-master-3.2/result/LINK_invent/BTK/process_docking_weight1_custom_sum_contain_oxygen_bond_distance_aromatic_linkinvent_7_9_3/rearranged_h_0138.sdf

> <i_m_source_file_index>
76

> <r_mmod_Potential_Energy-OPLS-2005>
-77.6081161499023

> <r_mmod_Stretch_Energy-OPLS-2005>
56.4552955627441

> <r_mmod_Bend_Energy-OPLS-2005>
132.172882080078

> <r_mmod_Torsional_Energy-OPLS-2005>
285.062927246094

> <r_mmod_Improper_Torsional_Energy-OPLS-2005>
3.36093235015869

> <r_mmod_Van_der_Waal_Energy-OPLS-2005>
130.319671630859

> <r_mmod_Electrostatic_Energy-OPLS-2005>
-234.375869750977

> <r_mmod_Solvation_Energy-OPLS-2005>
-473.704406738281

> <b_mmod_Minimization_Converged-OPLS-2005>
0

> <r_mmod_RMS_Derivative-OPLS-2005>
0.927185654640198

$$$$
76
                    3D
 Structure written by MMmdl.
174184  0  0  1  0            999 V2000
  -30.7320  -14.4316   20.5099 C   0  0  0  0  0  0
  -30.4072  -12.2638   19.4208 C   0  0  0  0  0  0
  -29.4846  -12.4607   18.2018 C   0  0  0  0  0  0
  -28.0068  -12.3403   18.6214 C   0  0  0  0  0  0
  -27.6536  -13.2008   19.8649 C   0  0  2  0  0  0
  -28.6999  -13.0253   20.9888 C   0  0  0  0  0  0
  -25.2582  -13.8158   20.5692 C   0  0  0  0  0  0
  -24.1823  -13.0439   20.9184 C   0  0  0  0  0  0
  -24.6369  -11.6908   20.8757 C   0  0  0  0  0  0
  -23.9037  -10.4292   21.0431 C   0  0  0  0  0  0
  -24.3596   -9.4206   21.9203 C   0  0  0  0  0  0
  -23.6287   -8.2236   22.0765 C   0  0  0  0  0  0
  -22.4277   -8.0275   21.3547 C   0  0  0  0  0  0
  -21.9912   -9.0236   20.4635 C   0  0  0  0  0  0
  -22.7230  -10.2117   20.3052 C   0  0  0  0  0  0
  -21.6842   -6.0731   22.5280 C   0  0  0  0  0  0
  -21.4011   -6.5639   23.8211 C   0  0  0  0  0  0
  -21.3658   -5.6799   24.9177 C   0  0  0  0  0  0
  -21.6050   -4.3059   24.7232 C   0  0  0  0  0  0
  -21.8817   -3.8144   23.4352 C   0  0  0  0  0  0
  -21.9192   -4.6961   22.3405 C   0  0  0  0  0  0
  -22.7850  -13.5245   21.1835 C   0  0  0  0  0  0
  -22.1663   -4.2145   21.0981 F   0  0  0  0  0  0
  -21.5630   -3.4542   25.7743 F   0  0  0  0  0  0
  -30.0285  -13.2773   20.4131 N   0  0  0  0  0  0
  -26.2992  -12.9295   20.3359 N   0  0  0  0  0  0
  -25.9293  -11.6471   20.5802 N   0  0  0  0  0  0
  -22.0472  -12.8219   22.0357 N   0  0  0  0  0  0
  -25.4378  -15.1870   20.4119 N   0  0  0  0  0  0
  -31.9229  -14.5232   20.1947 O   0  0  0  0  0  0
  -21.6637   -6.8875   21.4247 O   0  0  0  0  0  0
  -22.3550  -14.5568   20.6707 O   0  0  0  0  0  0
  -24.6115  -31.8688   23.2153 C   0  0  0  0  0  0
  -25.9021  -32.4828   23.8431 C   0  0  1  0  0  0
  -27.2342  -27.4565   20.1020 C   0  0  0  0  0  0
  -25.5885  -33.8629   24.2359 N   0  0  0  0  0  0
  -23.3986  -30.4960   21.5520 C   0  0  2  0  0  0
  -24.8459  -28.9676   20.1132 C   0  0  0  0  0  0
  -22.7386  -29.4684   22.4982 C   0  0  0  0  0  0
  -18.0269  -28.1377   22.8497 C   0  0  0  0  0  0
  -24.1476  -36.7323   23.2641 C   0  0  0  0  0  0
  -25.9256  -30.8434   21.3649 C   0  0  0  0  0  0
  -26.0046  -29.4818   20.7086 C   0  0  0  0  0  0
  -27.2018  -28.7341   20.6988 C   0  0  0  0  0  0
  -26.0595  -26.9576   19.4902 C   0  0  0  0  0  0
  -24.8665  -27.7031   19.5021 C   0  0  0  0  0  0
  -23.6057  -29.8292   20.1656 C   0  0  0  0  0  0
  -25.4096  -36.3115   24.0343 C   0  0  1  0  0  0
  -20.5863  -28.3673   23.1306 C   0  0  2  0  0  0
  -20.6765  -26.9420   22.5403 C   0  0  0  0  0  0
  -19.5752  -26.6411   21.5195 C   0  0  0  0  0  0
  -18.1917  -26.7933   22.1602 C   0  0  0  0  0  0
  -19.1520  -28.8831   23.2903 C   0  0  0  0  0  0
  -18.9445  -30.1429   23.8936 C   0  0  0  0  0  0
  -17.6451  -30.6587   24.0571 C   0  0  0  0  0  0
  -25.9029  -34.9472   23.5149 C   0  0  0  0  0  0
  -16.5344  -29.9089   23.6331 C   0  0  0  0  0  0
  -16.7253  -28.6505   23.0370 C   0  0  0  0  0  0
  -26.4473  -31.6602   25.0741 C   0  0  0  0  0  0
  -25.3741  -31.3608   26.1462 C   0  0  0  0  0  0
  -27.0373  -30.3079   24.6108 C   0  0  0  0  0  0
  -27.6035  -32.4331   25.7520 C   0  0  0  0  0  0
  -27.5569  -37.1827   24.8457 C   0  0  0  0  0  0
  -21.4119  -29.3038   22.3705 N   0  0  0  0  0  0
  -26.4279  -37.3796   23.9403 N   0  0  0  0  0  0
  -24.6631  -31.0829   22.1022 N   0  0  0  0  0  0
  -23.4160  -28.8224   23.3020 O   0  0  0  0  0  0
  -28.3984  -26.7212   20.1485 O   0  0  0  0  0  0
  -26.5593  -34.8914   22.4714 O   0  0  0  0  0  0
  -23.5317  -32.1422   23.7565 O   0  0  0  0  0  0
  -29.6522  -21.0800   22.1777 C   0  0  0  0  0  0
  -32.1868  -21.9936   22.6269 C   0  0  0  0  0  0
  -31.9059  -20.6470   22.9430 C   0  0  0  0  0  0
  -30.5974  -20.1619   22.6812 C   0  0  0  0  0  0
  -30.0411  -22.3924   21.8797 C   0  0  0  0  0  0
  -29.2493  -17.6238   19.2902 C   0  0  0  0  0  0
  -32.9041  -19.3136   24.9619 C   0  0  0  0  0  0
  -33.9651  -20.3098   24.5648 C   0  0  0  0  0  0
  -29.9595  -18.4735   20.3331 C   0  0  0  0  0  0
  -29.8361  -16.2158   19.2654 C   0  0  0  0  0  0
  -30.2420  -16.4177   21.7715 C   0  0  0  0  0  0
  -32.9913  -19.7880   23.5283 C   0  0  0  0  0  0
  -29.6868  -17.8703   21.7201 C   0  0  1  0  0  0
  -29.1519  -18.6476   24.0991 C   0  0  0  0  0  0
  -29.4005  -24.6613   21.0437 C   0  0  0  0  0  0
  -28.2148  -25.3148   20.3228 C   0  0  0  0  0  0
  -30.1766  -18.7057   22.9550 C   0  0  2  0  0  0
  -31.2842  -22.8498   22.1034 N   0  0  0  0  0  0
  -29.9904  -15.5606   20.5870 N   0  0  0  0  0  0
  -29.1128  -23.2539   21.2988 N   0  0  0  0  0  0
  -31.4539  -12.3358   19.1184 H   0  0  0  0  0  0
  -30.2845  -11.2644   19.8392 H   0  0  0  0  0  0
  -29.7126  -11.7180   17.4358 H   0  0  0  0  0  0
  -29.6659  -13.4345   17.7443 H   0  0  0  0  0  0
  -27.8189  -11.2879   18.8385 H   0  0  0  0  0  0
  -27.3535  -12.5953   17.7860 H   0  0  0  0  0  0
  -27.6787  -14.2398   19.5429 H   0  0  0  0  0  0
  -28.6596  -12.0167   21.4007 H   0  0  0  0  0  0
  -28.4896  -13.7044   21.8162 H   0  0  0  0  0  0
  -25.2727   -9.5691   22.4791 H   0  0  0  0  0  0
  -23.9991   -7.4631   22.7493 H   0  0  0  0  0  0
  -21.0845   -8.8740   19.8934 H   0  0  0  0  0  0
  -22.3695  -10.9652   19.6152 H   0  0  0  0  0  0
  -21.2000   -7.6149   23.9714 H   0  0  0  0  0  0
  -21.1490   -6.0529   25.9079 H   0  0  0  0  0  0
  -22.0600   -2.7610   23.2850 H   0  0  0  0  0  0
  -22.4084  -11.9853   22.4709 H   0  0  0  0  0  0
  -21.1082  -13.1228   22.2542 H   0  0  0  0  0  0
  -24.6882  -15.8579   20.5355 H   0  0  0  0  0  0
  -26.3133  -15.6163   20.1396 H   0  0  0  0  0  0
  -26.7093  -32.5548   23.1206 H   0  0  0  0  0  0
  -25.0003  -33.9807   25.0476 H   0  0  0  0  0  0
  -22.6857  -31.3120   21.4135 H   0  0  0  0  0  0
  -23.3733  -35.9658   23.3300 H   0  0  0  0  0  0
  -24.3562  -36.8953   22.2054 H   0  0  0  0  0  0
  -23.7238  -37.6529   23.6665 H   0  0  0  0  0  0
  -26.0341  -31.6129   20.5996 H   0  0  0  0  0  0
  -26.8145  -30.8958   21.9824 H   0  0  0  0  0  0
  -28.0921  -29.1206   21.1728 H   0  0  0  0  0  0
  -26.0504  -25.9918   19.0047 H   0  0  0  0  0  0
  -23.9731  -27.3030   19.0429 H   0  0  0  0  0  0
  -23.7045  -30.6035   19.4031 H   0  0  0  0  0  0
  -22.7322  -29.2430   19.8767 H   0  0  0  0  0  0
  -25.1271  -36.1986   25.0837 H   0  0  0  0  0  0
  -20.9953  -28.3254   24.1429 H   0  0  0  0  0  0
  -20.5681  -26.2287   23.3586 H   0  0  0  0  0  0
  -21.6632  -26.7473   22.1195 H   0  0  0  0  0  0
  -19.6932  -25.6329   21.1209 H   0  0  0  0  0  0
  -19.6711  -27.3226   20.6726 H   0  0  0  0  0  0
  -17.4210  -26.6701   21.3985 H   0  0  0  0  0  0
  -18.0316  -26.0041   22.8960 H   0  0  0  0  0  0
  -19.7916  -30.7217   24.2362 H   0  0  0  0  0  0
  -17.5013  -31.6279   24.5148 H   0  0  0  0  0  0
  -15.5353  -30.3012   23.7644 H   0  0  0  0  0  0
  -15.8646  -28.0828   22.7100 H   0  0  0  0  0  0
  -24.6007  -30.6868   25.7762 H   0  0  0  0  0  0
  -24.8800  -32.2692   26.4911 H   0  0  0  0  0  0
  -25.8110  -30.8797   27.0222 H   0  0  0  0  0  0
  -26.2954  -29.6797   24.1161 H   0  0  0  0  0  0
  -27.4182  -29.7344   25.4573 H   0  0  0  0  0  0
  -27.8741  -30.4460   23.9252 H   0  0  0  0  0  0
  -27.2665  -33.3629   26.2120 H   0  0  0  0  0  0
  -28.3838  -32.6909   25.0344 H   0  0  0  0  0  0
  -28.0714  -31.8431   26.5418 H   0  0  0  0  0  0
  -28.2569  -38.0138   24.7512 H   0  0  0  0  0  0
  -28.1087  -36.2668   24.6278 H   0  0  0  0  0  0
  -27.2284  -37.1463   25.8857 H   0  0  0  0  0  0
  -20.9275  -29.8745   21.6917 H   0  0  0  0  0  0
  -26.0171  -38.2878   24.1383 H   0  0  0  0  0  0
  -28.6416  -20.7493   21.9821 H   0  0  0  0  0  0
  -33.1713  -22.4038   22.7960 H   0  0  0  0  0  0
  -29.3512  -18.0789   18.3037 H   0  0  0  0  0  0
  -28.1779  -17.5849   19.4952 H   0  0  0  0  0  0
  -32.0895  -19.6866   25.5801 H   0  0  0  0  0  0
  -33.2293  -18.2980   25.1799 H   0  0  0  0  0  0
  -34.9905  -19.9454   24.5327 H   0  0  0  0  0  0
  -33.8446  -21.3274   24.9303 H   0  0  0  0  0  0
  -29.5767  -19.4850   20.2302 H   0  0  0  0  0  0
  -31.0320  -18.5172   20.1361 H   0  0  0  0  0  0
  -30.8062  -16.2840   18.7675 H   0  0  0  0  0  0
  -29.2224  -15.5934   18.6139 H   0  0  0  0  0  0
  -29.8395  -15.9110   22.6511 H   0  0  0  0  0  0
  -31.3225  -16.4715   21.9265 H   0  0  0  0  0  0
  -33.3838  -19.0973   22.7841 H   0  0  0  0  0  0
  -28.5991  -17.8086   21.7963 H   0  0  0  0  0  0
  -29.5454  -19.1085   25.0050 H   0  0  0  0  0  0
  -28.8898  -17.6177   24.3419 H   0  0  0  0  0  0
  -28.2312  -19.1679   23.8379 H   0  0  0  0  0  0
  -29.5870  -25.1609   21.9968 H   0  0  0  0  0  0
  -30.3066  -24.7620   20.4450 H   0  0  0  0  0  0
  -27.3222  -25.1200   20.9224 H   0  0  0  0  0  0
  -28.0671  -24.8421   19.3507 H   0  0  0  0  0  0
  -31.0558  -18.1912   23.3347 H   0  0  0  0  0  0
  -28.1837  -22.9074   21.0895 H   0  0  0  0  0  0
  1 25  1  0  0  0
  1 30  2  0  0  0
  1 89  1  0  0  0
  2  3  1  0  0  0
  2 25  1  0  0  0
  2 91  1  0  0  0
  2 92  1  0  0  0
  3  4  1  0  0  0
  3 93  1  0  0  0
  3 94  1  0  0  0
  4  5  1  0  0  0
  4 95  1  0  0  0
  4 96  1  0  0  0
  5  6  1  0  0  0
  5 26  1  0  0  0
  5 97  1  0  0  0
  6 25  1  0  0  0
  6 98  1  0  0  0
  6 99  1  0  0  0
  7  8  2  0  0  0
  7 26  1  0  0  0
  7 29  1  0  0  0
  8  9  1  0  0  0
  8 22  1  0  0  0
  9 10  1  0  0  0
  9 27  2  0  0  0
 10 11  2  0  0  0
 10 15  1  0  0  0
 11 12  1  0  0  0
 11100  1  0  0  0
 12 13  2  0  0  0
 12101  1  0  0  0
 13 14  1  0  0  0
 13 31  1  0  0  0
 14 15  2  0  0  0
 14102  1  0  0  0
 15103  1  0  0  0
 16 17  2  0  0  0
 16 21  1  0  0  0
 16 31  1  0  0  0
 17 18  1  0  0  0
 17104  1  0  0  0
 18 19  2  0  0  0
 18105  1  0  0  0
 19 20  1  0  0  0
 19 24  1  0  0  0
 20 21  2  0  0  0
 20106  1  0  0  0
 21 23  1  0  0  0
 22 28  1  0  0  0
 22 32  2  0  0  0
 26 27  1  0  0  0
 28107  1  0  0  0
 28108  1  0  0  0
 29109  1  0  0  0
 29110  1  0  0  0
 33 34  1  0  0  0
 33 66  1  0  0  0
 33 70  2  0  0  0
 34 36  1  0  0  0
 34 59  1  0  0  0
 34111  1  0  0  0
 35 44  2  0  0  0
 35 45  1  0  0  0
 35 68  1  0  0  0
 36 56  1  0  0  0
 36112  1  0  0  0
 37 39  1  0  0  0
 37 47  1  0  0  0
 37 66  1  0  0  0
 37113  1  0  0  0
 38 43  2  0  0  0
 38 46  1  0  0  0
 38 47  1  0  0  0
 39 64  1  0  0  0
 39 67  2  0  0  0
 40 52  1  0  0  0
 40 53  2  0  0  0
 40 58  1  0  0  0
 41114  1  0  0  0
 41115  1  0  0  0
 41116  1  0  0  0
 41 48  1  0  0  0
 42 43  1  0  0  0
 42 66  1  0  0  0
 42117  1  0  0  0
 42118  1  0  0  0
 43 44  1  0  0  0
 44119  1  0  0  0
 45 46  2  0  0  0
 45120  1  0  0  0
 46121  1  0  0  0
 47122  1  0  0  0
 47123  1  0  0  0
 48 56  1  0  0  0
 48 65  1  0  0  0
 48124  1  0  0  0
 49 50  1  0  0  0
 49 53  1  0  0  0
 49 64  1  0  0  0
 49125  1  0  0  0
 50 51  1  0  0  0
 50126  1  0  0  0
 50127  1  0  0  0
 51 52  1  0  0  0
 51128  1  0  0  0
 51129  1  0  0  0
 52130  1  0  0  0
 52131  1  0  0  0
 53 54  1  0  0  0
 54 55  2  0  0  0
 54132  1  0  0  0
 55 57  1  0  0  0
 55133  1  0  0  0
 56 69  2  0  0  0
 57 58  2  0  0  0
 57134  1  0  0  0
 58135  1  0  0  0
 59 60  1  0  0  0
 59 61  1  0  0  0
 59 62  1  0  0  0
 60136  1  0  0  0
 60137  1  0  0  0
 60138  1  0  0  0
 61139  1  0  0  0
 61140  1  0  0  0
 61141  1  0  0  0
 62142  1  0  0  0
 62143  1  0  0  0
 62144  1  0  0  0
 63 65  1  0  0  0
 63145  1  0  0  0
 63146  1  0  0  0
 63147  1  0  0  0
 64148  1  0  0  0
 65149  1  0  0  0
 68 86  1  0  0  0
 71 74  2  0  0  0
 71 75  1  0  0  0
 71150  1  0  0  0
 72 73  2  0  0  0
 72 88  1  0  0  0
 72151  1  0  0  0
 73 74  1  0  0  0
 73 82  1  0  0  0
 74 87  1  0  0  0
 75 88  2  0  0  0
 75 90  1  0  0  0
 76 79  1  0  0  0
 76 80  1  0  0  0
 76152  1  0  0  0
 76153  1  0  0  0
 77 78  1  0  0  0
 77 82  1  0  0  0
 77154  1  0  0  0
 77155  1  0  0  0
 78 82  1  0  0  0
 78156  1  0  0  0
 78157  1  0  0  0
 79158  1  0  0  0
 79159  1  0  0  0
 79 83  1  0  0  0
 80 89  1  0  0  0
 80160  1  0  0  0
 80161  1  0  0  0
 81 83  1  0  0  0
 81 89  1  0  0  0
 81162  1  0  0  0
 81163  1  0  0  0
 82164  1  0  0  0
 83 87  1  0  0  0
 83165  1  0  0  0
 84166  1  0  0  0
 84167  1  0  0  0
 84168  1  0  0  0
 84 87  1  0  0  0
 85 86  1  0  0  0
 85 90  1  0  0  0
 85169  1  0  0  0
 85170  1  0  0  0
 86171  1  0  0  0
 86172  1  0  0  0
 87173  1  0  0  0
 90174  1  0  0  0
M  ISO  4   1 100  68 101  86 101  89 100
M  END
> <chiral flag>
0

> <version>
0

> <s_m_source_file>
/data/baiqing/PycharmProjects/Reinvent-master-3.2/result/LINK_invent/BTK/process_docking_weight1_custom_sum_contain_oxygen_bond_distance_aromatic_linkinvent_7_9_3/rearranged_h_0138.sdf

> <i_m_source_file_index>
77

> <r_mmod_Potential_Energy-OPLS-2005>
13.1156463623047

> <r_mmod_Stretch_Energy-OPLS-2005>
38.5341262817383

> <r_mmod_Bend_Energy-OPLS-2005>
126.169273376465

> <r_mmod_Torsional_Energy-OPLS-2005>
363.390991210938

> <r_mmod_Improper_Torsional_Energy-OPLS-2005>
13.7479877471924

> <r_mmod_Van_der_Waal_Energy-OPLS-2005>
171.635208129883

> <r_mmod_Electrostatic_Energy-OPLS-2005>
-499.875335693359

> <r_mmod_Solvation_Energy-OPLS-2005>
-219.738708496094

> <b_mmod_Minimization_Converged-OPLS-2005>
0

> <r_mmod_RMS_Derivative-OPLS-2005>
2.11340498924255

$$$$
77
                    3D
 Structure written by MMmdl.
158167  0  0  1  0            999 V2000
  -30.4985  -14.9445   20.4201 C   0  0  0  0  0  0
  -30.4553  -12.5846   19.4906 C   0  0  0  0  0  0
  -29.5252  -12.5297   18.2544 C   0  0  0  0  0  0
  -28.0627  -12.2982   18.6813 C   0  0  0  0  0  0
  -27.6356  -13.2354   19.8405 C   0  0  2  0  0  0
  -28.6788  -13.2370   20.9784 C   0  0  0  0  0  0
  -25.2510  -13.8186   20.5720 C   0  0  0  0  0  0
  -24.1805  -13.0430   20.9225 C   0  0  0  0  0  0
  -24.6398  -11.6911   20.8746 C   0  0  0  0  0  0
  -23.9073  -10.4288   21.0405 C   0  0  0  0  0  0
  -24.3625   -9.4205   21.9183 C   0  0  0  0  0  0
  -23.6296   -8.2243   22.0754 C   0  0  0  0  0  0
  -22.4276   -8.0284   21.3545 C   0  0  0  0  0  0
  -21.9911   -9.0263   20.4650 C   0  0  0  0  0  0
  -22.7242  -10.2139   20.3059 C   0  0  0  0  0  0
  -21.6854   -6.0730   22.5278 C   0  0  0  0  0  0
  -21.4014   -6.5634   23.8210 C   0  0  0  0  0  0
  -21.3659   -5.6788   24.9175 C   0  0  0  0  0  0
  -21.6048   -4.3050   24.7228 C   0  0  0  0  0  0
  -21.8819   -3.8139   23.4348 C   0  0  0  0  0  0
  -21.9191   -4.6956   22.3402 C   0  0  0  0  0  0
  -22.7827  -13.5221   21.1875 C   0  0  0  0  0  0
  -22.1659   -4.2138   21.0980 F   0  0  0  0  0  0
  -21.5631   -3.4536   25.7740 F   0  0  0  0  0  0
  -29.9585  -13.6614   20.3910 N   0  0  0  0  0  0
  -26.2915  -12.9393   20.3227 N   0  0  0  0  0  0
  -25.9320  -11.6536   20.5719 N   0  0  0  0  0  0
  -22.0464  -12.8226   22.0435 N   0  0  0  0  0  0
  -25.4184  -15.1914   20.4191 N   0  0  0  0  0  0
  -31.6911  -15.0819   20.1278 O   0  0  0  0  0  0
  -21.6639   -6.8879   21.4241 O   0  0  0  0  0  0
  -22.3518  -14.5520   20.6701 O   0  0  0  0  0  0
  -24.6435  -31.8438   23.1880 C   0  0  0  0  0  0
  -25.9203  -32.4696   23.8279 C   0  0  1  0  0  0
  -27.2238  -27.1357   20.1534 C   0  0  0  0  0  0
  -25.5950  -33.8502   24.2193 N   0  0  0  0  0  0
  -23.4485  -30.4622   21.5330 C   0  0  2  0  0  0
  -24.9000  -28.8894   20.1100 C   0  0  0  0  0  0
  -22.7577  -29.4537   22.4850 C   0  0  0  0  0  0
  -18.0307  -28.1401   22.8473 C   0  0  0  0  0  0
  -24.1490  -36.7252   23.2638 C   0  0  0  0  0  0
  -26.0045  -30.7168   21.3887 C   0  0  0  0  0  0
  -26.0770  -29.3285   20.7295 C   0  0  0  0  0  0
  -27.2387  -28.4681   20.7343 C   0  0  0  0  0  0
  -26.0203  -26.7999   19.4928 C   0  0  0  0  0  0
  -24.8843  -27.6382   19.4764 C   0  0  0  0  0  0
  -23.6767  -29.7920   20.1523 C   0  0  0  0  0  0
  -25.4121  -36.3033   24.0313 C   0  0  1  0  0  0
  -20.5923  -28.3727   23.1229 C   0  0  2  0  0  0
  -20.6794  -26.9425   22.5408 C   0  0  0  0  0  0
  -19.5769  -26.6378   21.5217 C   0  0  0  0  0  0
  -18.1948  -26.7936   22.1623 C   0  0  0  0  0  0
  -19.1566  -28.8882   23.2843 C   0  0  0  0  0  0
  -18.9483  -30.1475   23.8872 C   0  0  0  0  0  0
  -17.6480  -30.6595   24.0561 C   0  0  0  0  0  0
  -25.9073  -34.9408   23.5064 C   0  0  0  0  0  0
  -16.5369  -29.9089   23.6334 C   0  0  0  0  0  0
  -16.7294  -28.6509   23.0354 C   0  0  0  0  0  0
  -26.4526  -31.6568   25.0726 C   0  0  0  0  0  0
  -25.3711  -31.3781   26.1428 C   0  0  0  0  0  0
  -27.0385  -30.2955   24.6324 C   0  0  0  0  0  0
  -27.6058  -32.4337   25.7505 C   0  0  0  0  0  0
  -27.5581  -37.1774   24.8456 C   0  0  0  0  0  0
  -21.4271  -29.3044   22.3594 N   0  0  0  0  0  0
  -26.4284  -37.3749   23.9414 N   0  0  0  0  0  0
  -24.7182  -31.0291   22.0914 N   0  0  0  0  0  0
  -23.4217  -28.8092   23.3008 O   0  0  0  0  0  0
  -28.2767  -26.1487   20.2354 O   0  0  0  0  0  0
  -26.5667  -34.8902   22.4647 O   0  0  0  0  0  0
  -23.5551  -32.1314   23.7093 O   0  0  0  0  0  0
  -28.1140  -19.4486   19.5141 C   0  0  0  0  0  0
  -30.2788  -18.6484   20.9170 C   0  0  0  0  0  0
  -29.5235  -17.5453   20.3577 C   0  0  0  0  0  0
  -28.4057  -18.0363   19.6194 C   0  0  0  0  0  0
  -28.8897  -20.4752   20.1163 C   0  0  0  0  0  0
  -26.3193  -16.2153   15.7640 C   0  0  0  0  0  0
  -27.1173  -15.3012   16.6599 C   0  0  0  0  0  0
  -26.1600  -16.3002   17.2663 C   0  0  0  0  0  0
  -26.6817  -17.4964   18.0371 C   0  0  0  0  0  0
  -28.0040  -24.6270   20.0185 C   0  0  0  0  0  0
  -28.9266  -23.2538   20.3910 C   0  0  0  0  0  0
  -29.9911  -20.0275   20.8100 N   0  0  0  0  0  0
  -29.6172  -16.0335   20.6216 N   0  0  0  0  0  0
  -27.6062  -17.0711   19.0352 O   0  0  0  0  0  0
  -28.4379  -21.8645   19.9540 O   0  0  0  0  0  0
  -31.4838  -12.7686   19.1754 H   0  0  0  0  0  0
  -30.4687  -11.6264   20.0129 H   0  0  0  0  0  0
  -29.8463  -11.7398   17.5734 H   0  0  0  0  0  0
  -29.5998  -13.4641   17.6961 H   0  0  0  0  0  0
  -27.9776  -11.2593   19.0027 H   0  0  0  0  0  0
  -27.3917  -12.4008   17.8298 H   0  0  0  0  0  0
  -27.6044  -14.2391   19.4163 H   0  0  0  0  0  0
  -28.7661  -12.2475   21.4289 H   0  0  0  0  0  0
  -28.3766  -13.9130   21.7801 H   0  0  0  0  0  0
  -25.2778   -9.5674   22.4750 H   0  0  0  0  0  0
  -23.9998   -7.4632   22.7476 H   0  0  0  0  0  0
  -21.0834   -8.8792   19.8966 H   0  0  0  0  0  0
  -22.3705  -10.9682   19.6169 H   0  0  0  0  0  0
  -21.2008   -7.6145   23.9714 H   0  0  0  0  0  0
  -21.1481   -6.0518   25.9077 H   0  0  0  0  0  0
  -22.0597   -2.7599   23.2859 H   0  0  0  0  0  0
  -22.4069  -11.9894   22.4842 H   0  0  0  0  0  0
  -21.1088  -13.1268   22.2635 H   0  0  0  0  0  0
  -24.6320  -15.8254   20.5005 H   0  0  0  0  0  0
  -26.2353  -15.6265   20.0070 H   0  0  0  0  0  0
  -26.7274  -32.5309   23.1013 H   0  0  0  0  0  0
  -25.0074  -33.9620   25.0328 H   0  0  0  0  0  0
  -22.7508  -31.2879   21.3785 H   0  0  0  0  0  0
  -23.3763  -35.9572   23.3277 H   0  0  0  0  0  0
  -24.3573  -36.8909   22.2055 H   0  0  0  0  0  0
  -23.7230  -37.6433   23.6696 H   0  0  0  0  0  0
  -26.1636  -31.4720   20.6178 H   0  0  0  0  0  0
  -26.8726  -30.7648   22.0345 H   0  0  0  0  0  0
  -28.1337  -28.7989   21.2426 H   0  0  0  0  0  0
  -25.9212  -25.8442   19.0011 H   0  0  0  0  0  0
  -23.9861  -27.2974   18.9803 H   0  0  0  0  0  0
  -23.8167  -30.5680   19.3988 H   0  0  0  0  0  0
  -22.7916  -29.2363   19.8379 H   0  0  0  0  0  0
  -25.1305  -36.1857   25.0805 H   0  0  0  0  0  0
  -21.0014  -28.3326   24.1350 H   0  0  0  0  0  0
  -20.5685  -26.2342   23.3632 H   0  0  0  0  0  0
  -21.6660  -26.7427   22.1209 H   0  0  0  0  0  0
  -19.6930  -25.6282   21.1265 H   0  0  0  0  0  0
  -19.6709  -27.3174   20.6736 H   0  0  0  0  0  0
  -17.4218  -26.6677   21.4028 H   0  0  0  0  0  0
  -18.0345  -26.0088   22.9028 H   0  0  0  0  0  0
  -19.7958  -30.7299   24.2231 H   0  0  0  0  0  0
  -17.5032  -31.6266   24.5173 H   0  0  0  0  0  0
  -15.5370  -30.2987   23.7666 H   0  0  0  0  0  0
  -15.8693  -28.0820   22.7086 H   0  0  0  0  0  0
  -24.5879  -30.7137   25.7760 H   0  0  0  0  0  0
  -24.8921  -32.2979   26.4796 H   0  0  0  0  0  0
  -25.7990  -30.8993   27.0245 H   0  0  0  0  0  0
  -26.3007  -29.6679   24.1314 H   0  0  0  0  0  0
  -27.3959  -29.7257   25.4913 H   0  0  0  0  0  0
  -27.8936  -30.4172   23.9671 H   0  0  0  0  0  0
  -27.2646  -33.3645   26.2051 H   0  0  0  0  0  0
  -28.3885  -32.6889   25.0348 H   0  0  0  0  0  0
  -28.0717  -31.8493   26.5451 H   0  0  0  0  0  0
  -28.2575  -38.0096   24.7533 H   0  0  0  0  0  0
  -28.1105  -36.2627   24.6245 H   0  0  0  0  0  0
  -27.2306  -37.1365   25.8860 H   0  0  0  0  0  0
  -20.9486  -29.8749   21.6760 H   0  0  0  0  0  0
  -26.0148  -38.2808   24.1457 H   0  0  0  0  0  0
  -27.2438  -19.7852   18.9719 H   0  0  0  0  0  0
  -31.1320  -18.4200   21.5383 H   0  0  0  0  0  0
  -25.5006  -15.7769   15.1963 H   0  0  0  0  0  0
  -26.8606  -17.0116   15.2558 H   0  0  0  0  0  0
  -28.1830  -15.4939   16.7708 H   0  0  0  0  0  0
  -26.8288  -14.2537   16.6736 H   0  0  0  0  0  0
  -25.2532  -15.8695   17.6875 H   0  0  0  0  0  0
  -25.8397  -18.0242   18.4877 H   0  0  0  0  0  0
  -27.1694  -18.1728   17.3330 H   0  0  0  0  0  0
  -27.0417  -24.4397   20.4952 H   0  0  0  0  0  0
  -27.8089  -24.5411   18.9498 H   0  0  0  0  0  0
  -29.0687  -23.2193   21.4712 H   0  0  0  0  0  0
  -29.9220  -23.3857   19.9669 H   0  0  0  0  0  0
  -28.6974  -15.6494   20.7785 H   0  0  0  0  0  0
  1 25  1  0  0  0
  1 30  2  0  0  0
  1 83  1  0  0  0
  2  3  1  0  0  0
  2 25  1  0  0  0
  2 86  1  0  0  0
  2 87  1  0  0  0
  3  4  1  0  0  0
  3 88  1  0  0  0
  3 89  1  0  0  0
  4  5  1  0  0  0
  4 90  1  0  0  0
  4 91  1  0  0  0
  5  6  1  0  0  0
  5 26  1  0  0  0
  5 92  1  0  0  0
  6 25  1  0  0  0
  6 93  1  0  0  0
  6 94  1  0  0  0
  7  8  2  0  0  0
  7 26  1  0  0  0
  7 29  1  0  0  0
  8  9  1  0  0  0
  8 22  1  0  0  0
  9 10  1  0  0  0
  9 27  2  0  0  0
 10 11  2  0  0  0
 10 15  1  0  0  0
 11 12  1  0  0  0
 11 95  1  0  0  0
 12 13  2  0  0  0
 12 96  1  0  0  0
 13 14  1  0  0  0
 13 31  1  0  0  0
 14 15  2  0  0  0
 14 97  1  0  0  0
 15 98  1  0  0  0
 16 17  2  0  0  0
 16 21  1  0  0  0
 16 31  1  0  0  0
 17 18  1  0  0  0
 17 99  1  0  0  0
 18 19  2  0  0  0
 18100  1  0  0  0
 19 20  1  0  0  0
 19 24  1  0  0  0
 20 21  2  0  0  0
 20101  1  0  0  0
 21 23  1  0  0  0
 22 28  1  0  0  0
 22 32  2  0  0  0
 26 27  1  0  0  0
 28102  1  0  0  0
 28103  1  0  0  0
 29104  1  0  0  0
 29105  1  0  0  0
 33 34  1  0  0  0
 33 66  1  0  0  0
 33 70  2  0  0  0
 34 36  1  0  0  0
 34 59  1  0  0  0
 34106  1  0  0  0
 35 44  2  0  0  0
 35 45  1  0  0  0
 35 68  1  0  0  0
 36 56  1  0  0  0
 36107  1  0  0  0
 37 39  1  0  0  0
 37 47  1  0  0  0
 37 66  1  0  0  0
 37108  1  0  0  0
 38 43  2  0  0  0
 38 46  1  0  0  0
 38 47  1  0  0  0
 39 64  1  0  0  0
 39 67  2  0  0  0
 40 52  1  0  0  0
 40 53  2  0  0  0
 40 58  1  0  0  0
 41109  1  0  0  0
 41110  1  0  0  0
 41111  1  0  0  0
 41 48  1  0  0  0
 42 43  1  0  0  0
 42 66  1  0  0  0
 42112  1  0  0  0
 42113  1  0  0  0
 43 44  1  0  0  0
 44114  1  0  0  0
 45 46  2  0  0  0
 45115  1  0  0  0
 46116  1  0  0  0
 47117  1  0  0  0
 47118  1  0  0  0
 48 56  1  0  0  0
 48 65  1  0  0  0
 48119  1  0  0  0
 49 50  1  0  0  0
 49 53  1  0  0  0
 49 64  1  0  0  0
 49120  1  0  0  0
 50 51  1  0  0  0
 50121  1  0  0  0
 50122  1  0  0  0
 51 52  1  0  0  0
 51123  1  0  0  0
 51124  1  0  0  0
 52125  1  0  0  0
 52126  1  0  0  0
 53 54  1  0  0  0
 54 55  2  0  0  0
 54127  1  0  0  0
 55 57  1  0  0  0
 55128  1  0  0  0
 56 69  2  0  0  0
 57 58  2  0  0  0
 57129  1  0  0  0
 58130  1  0  0  0
 59 60  1  0  0  0
 59 61  1  0  0  0
 59 62  1  0  0  0
 60131  1  0  0  0
 60132  1  0  0  0
 60133  1  0  0  0
 61134  1  0  0  0
 61135  1  0  0  0
 61136  1  0  0  0
 62137  1  0  0  0
 62138  1  0  0  0
 62139  1  0  0  0
 63 65  1  0  0  0
 63140  1  0  0  0
 63141  1  0  0  0
 63142  1  0  0  0
 64143  1  0  0  0
 65144  1  0  0  0
 68 80  1  0  0  0
 71 74  2  0  0  0
 71 75  1  0  0  0
 71145  1  0  0  0
 72 73  2  0  0  0
 72 82  1  0  0  0
 72146  1  0  0  0
 73 74  1  0  0  0
 73 83  1  0  0  0
 74 84  1  0  0  0
 75 82  2  0  0  0
 75 85  1  0  0  0
 76 77  1  0  0  0
 76 78  1  0  0  0
 76147  1  0  0  0
 76148  1  0  0  0
 77 78  1  0  0  0
 77149  1  0  0  0
 77150  1  0  0  0
 78 79  1  0  0  0
 78151  1  0  0  0
 79 84  1  0  0  0
 79152  1  0  0  0
 79153  1  0  0  0
 80 81  1  0  0  0
 80154  1  0  0  0
 80155  1  0  0  0
 81 85  1  0  0  0
 81156  1  0  0  0
 81157  1  0  0  0
 83158  1  0  0  0
M  ISO  4   1 100  68 101  80 101  83 100
M  END
> <chiral flag>
0

> <version>
0

> <s_m_source_file>
/data/baiqing/PycharmProjects/Reinvent-master-3.2/result/LINK_invent/BTK/process_docking_weight1_custom_sum_contain_oxygen_bond_distance_aromatic_linkinvent_7_9_3/rearranged_h_0138.sdf

> <i_m_source_file_index>
78

> <r_mmod_Potential_Energy-OPLS-2005>
285.6171875

> <r_mmod_Stretch_Energy-OPLS-2005>
232.213531494141

> <r_mmod_Bend_Energy-OPLS-2005>
311.835296630859

> <r_mmod_Torsional_Energy-OPLS-2005>
261.483154296875

> <r_mmod_Improper_Torsional_Energy-OPLS-2005>
6.35913753509521

> <r_mmod_Van_der_Waal_Energy-OPLS-2005>
124.596954345703

> <r_mmod_Electrostatic_Energy-OPLS-2005>
-632.617492675781

> <r_mmod_Solvation_Energy-OPLS-2005>
-213.924697875977

> <b_mmod_Minimization_Converged-OPLS-2005>
0

> <r_mmod_RMS_Derivative-OPLS-2005>
1.052863240242

$$$$
78
                    3D
 Structure written by MMmdl.
152161  0  0  1  0            999 V2000
  -30.4320  -15.3532   20.4062 C   0  0  0  0  0  0
  -30.4402  -12.8785   19.5483 C   0  0  0  0  0  0
  -29.5588  -12.6345   18.2967 C   0  0  0  0  0  0
  -28.1022  -12.3370   18.6991 C   0  0  0  0  0  0
  -27.6064  -13.2966   19.8122 C   0  0  2  0  0  0
  -28.6346  -13.4950   20.9511 C   0  0  0  0  0  0
  -25.2250  -13.8215   20.5704 C   0  0  0  0  0  0
  -24.1669  -13.0357   20.9232 C   0  0  0  0  0  0
  -24.6391  -11.6899   20.8702 C   0  0  0  0  0  0
  -23.9092  -10.4270   21.0382 C   0  0  0  0  0  0
  -24.3640   -9.4171   21.9140 C   0  0  0  0  0  0
  -23.6272   -8.2231   22.0747 C   0  0  0  0  0  0
  -22.4261   -8.0254   21.3554 C   0  0  0  0  0  0
  -21.9891   -9.0241   20.4669 C   0  0  0  0  0  0
  -22.7253  -10.2094   20.3021 C   0  0  0  0  0  0
  -21.6860   -6.0692   22.5269 C   0  0  0  0  0  0
  -21.4043   -6.5608   23.8206 C   0  0  0  0  0  0
  -21.3674   -5.6767   24.9164 C   0  0  0  0  0  0
  -21.6056   -4.3025   24.7225 C   0  0  0  0  0  0
  -21.8797   -3.8114   23.4348 C   0  0  0  0  0  0
  -21.9179   -4.6926   22.3394 C   0  0  0  0  0  0
  -22.7685  -13.5105   21.1891 C   0  0  0  0  0  0
  -22.1653   -4.2109   21.0974 F   0  0  0  0  0  0
  -21.5628   -3.4514   25.7751 F   0  0  0  0  0  0
  -29.8586  -14.0355   20.3418 N   0  0  0  0  0  0
  -26.2782  -12.9584   20.3106 N   0  0  0  0  0  0
  -25.9362  -11.6663   20.5600 N   0  0  0  0  0  0
  -22.0308  -12.8184   22.0469 N   0  0  0  0  0  0
  -25.3555  -15.1974   20.4180 N   0  0  0  0  0  0
  -31.6404  -15.3155   20.1218 O   0  0  0  0  0  0
  -21.6623   -6.8839   21.4239 O   0  0  0  0  0  0
  -22.3375  -14.5390   20.6656 O   0  0  0  0  0  0
  -24.6550  -31.8307   23.1770 C   0  0  0  0  0  0
  -25.9279  -32.4617   23.8196 C   0  0  1  0  0  0
  -27.1927  -26.8826   20.2986 C   0  0  0  0  0  0
  -25.6000  -33.8421   24.2127 N   0  0  0  0  0  0
  -23.4717  -30.4407   21.5152 C   0  0  2  0  0  0
  -24.9443  -28.8328   20.1101 C   0  0  0  0  0  0
  -22.7640  -29.4409   22.4714 C   0  0  0  0  0  0
  -18.0320  -28.1381   22.8460 C   0  0  0  0  0  0
  -24.1522  -36.7208   23.2633 C   0  0  0  0  0  0
  -26.0374  -30.6359   21.4182 C   0  0  0  0  0  0
  -26.1100  -29.2162   20.7821 C   0  0  0  0  0  0
  -27.2270  -28.2615   20.8565 C   0  0  0  0  0  0
  -26.0272  -26.6891   19.5189 C   0  0  0  0  0  0
  -24.9402  -27.6013   19.4375 C   0  0  0  0  0  0
  -23.7342  -29.7696   20.1360 C   0  0  0  0  0  0
  -25.4138  -36.2949   24.0306 C   0  0  1  0  0  0
  -20.5948  -28.3690   23.1225 C   0  0  2  0  0  0
  -20.6788  -26.9370   22.5410 C   0  0  0  0  0  0
  -19.5774  -26.6342   21.5210 C   0  0  0  0  0  0
  -18.1961  -26.7905   22.1624 C   0  0  0  0  0  0
  -19.1585  -28.8845   23.2850 C   0  0  0  0  0  0
  -18.9478  -30.1433   23.8873 C   0  0  0  0  0  0
  -17.6470  -30.6559   24.0535 C   0  0  0  0  0  0
  -25.9085  -34.9361   23.5016 C   0  0  0  0  0  0
  -16.5356  -29.9043   23.6335 C   0  0  0  0  0  0
  -16.7296  -28.6478   23.0339 C   0  0  0  0  0  0
  -26.4601  -31.6498   25.0655 C   0  0  0  0  0  0
  -25.3749  -31.3695   26.1306 C   0  0  0  0  0  0
  -27.0483  -30.2879   24.6309 C   0  0  0  0  0  0
  -27.6129  -32.4226   25.7447 C   0  0  0  0  0  0
  -27.5595  -37.1740   24.8439 C   0  0  0  0  0  0
  -21.4303  -29.3001   22.3544 N   0  0  0  0  0  0
  -26.4261  -37.3712   23.9419 N   0  0  0  0  0  0
  -24.7394  -30.9995   22.0904 N   0  0  0  0  0  0
  -23.4226  -28.7936   23.2883 O   0  0  0  0  0  0
  -28.1556  -25.7335   20.4211 O   0  0  0  0  0  0
  -26.5659  -34.8863   22.4576 O   0  0  0  0  0  0
  -23.5622  -32.1260   23.6886 O   0  0  0  0  0  0
  -27.1508  -19.2423   22.0267 C   0  0  0  0  0  0
  -28.1143  -18.4880   21.3178 C   0  0  0  0  0  0
  -28.9626  -19.3964   20.7897 C   0  0  0  0  0  0
  -27.4513  -20.5893   21.9617 C   0  0  0  0  0  0
  -28.3827  -16.9471   21.1438 C   0  0  0  0  0  0
  -30.0694  -18.2688   20.2548 C   0  0  0  0  0  0
  -26.8476  -21.6111   22.8827 C   0  0  0  0  0  0
  -28.8119  -22.5165   20.6398 C   0  0  0  0  0  0
  -27.8479  -24.0961   20.6647 C   0  0  0  0  0  0
  -28.4617  -20.8819   21.0033 N   0  0  0  0  0  0
  -29.7188  -16.6865   20.5272 N   0  0  0  0  0  0
  -31.4587  -13.0853   19.2246 H   0  0  0  0  0  0
  -30.5187  -11.9794   20.1631 H   0  0  0  0  0  0
  -29.9749  -11.8297   17.6891 H   0  0  0  0  0  0
  -29.5889  -13.5278   17.6731 H   0  0  0  0  0  0
  -28.0568  -11.3068   19.0546 H   0  0  0  0  0  0
  -27.4543  -12.3893   17.8210 H   0  0  0  0  0  0
  -27.5120  -14.2637   19.3172 H   0  0  0  0  0  0
  -28.8183  -12.5731   21.5077 H   0  0  0  0  0  0
  -28.2463  -14.2071   21.6740 H   0  0  0  0  0  0
  -25.2779   -9.5657   22.4698 H   0  0  0  0  0  0
  -23.9983   -7.4627   22.7477 H   0  0  0  0  0  0
  -21.0799   -8.8759   19.9007 H   0  0  0  0  0  0
  -22.3694  -10.9610   19.6130 H   0  0  0  0  0  0
  -21.2075   -7.6127   23.9697 H   0  0  0  0  0  0
  -21.1532   -6.0503   25.9066 H   0  0  0  0  0  0
  -22.0567   -2.7575   23.2841 H   0  0  0  0  0  0
  -22.3961  -12.0029   22.5114 H   0  0  0  0  0  0
  -21.0889  -13.1220   22.2491 H   0  0  0  0  0  0
  -24.5572  -15.8062   20.5661 H   0  0  0  0  0  0
  -26.1585  -15.6811   20.0405 H   0  0  0  0  0  0
  -26.7293  -32.5234   23.0867 H   0  0  0  0  0  0
  -25.0218  -33.9523   25.0319 H   0  0  0  0  0  0
  -22.7764  -31.2679   21.3512 H   0  0  0  0  0  0
  -23.3809  -35.9518   23.3205 H   0  0  0  0  0  0
  -24.3629  -36.8939   22.2072 H   0  0  0  0  0  0
  -23.7268  -37.6357   23.6733 H   0  0  0  0  0  0
  -26.2093  -31.3781   20.6365 H   0  0  0  0  0  0
  -26.8986  -30.7140   22.0691 H   0  0  0  0  0  0
  -28.0845  -28.5569   21.4447 H   0  0  0  0  0  0
  -25.9429  -25.7611   18.9779 H   0  0  0  0  0  0
  -24.0772  -27.3332   18.8421 H   0  0  0  0  0  0
  -23.9111  -30.5554   19.4004 H   0  0  0  0  0  0
  -22.8468  -29.2432   19.7846 H   0  0  0  0  0  0
  -25.1337  -36.1722   25.0802 H   0  0  0  0  0  0
  -21.0045  -28.3263   24.1351 H   0  0  0  0  0  0
  -20.5664  -26.2264   23.3615 H   0  0  0  0  0  0
  -21.6660  -26.7340   22.1238 H   0  0  0  0  0  0
  -19.6929  -25.6250   21.1269 H   0  0  0  0  0  0
  -19.6756  -27.3126   20.6723 H   0  0  0  0  0  0
  -17.4226  -26.6628   21.4025 H   0  0  0  0  0  0
  -18.0362  -26.0061   22.9044 H   0  0  0  0  0  0
  -19.7942  -30.7260   24.2251 H   0  0  0  0  0  0
  -17.5006  -31.6239   24.5118 H   0  0  0  0  0  0
  -15.5353  -30.2919   23.7644 H   0  0  0  0  0  0
  -15.8716  -28.0765   22.7056 H   0  0  0  0  0  0
  -24.5960  -30.7032   25.7580 H   0  0  0  0  0  0
  -24.8921  -32.2888   26.4629 H   0  0  0  0  0  0
  -25.8017  -30.8904   27.0137 H   0  0  0  0  0  0
  -26.3119  -29.6536   24.1363 H   0  0  0  0  0  0
  -27.4125  -29.7226   25.4902 H   0  0  0  0  0  0
  -27.9039  -30.4089   23.9654 H   0  0  0  0  0  0
  -27.2769  -33.3550   26.1989 H   0  0  0  0  0  0
  -28.4000  -32.6726   25.0312 H   0  0  0  0  0  0
  -28.0747  -31.8351   26.5396 H   0  0  0  0  0  0
  -28.2477  -38.0159   24.7595 H   0  0  0  0  0  0
  -28.1220  -36.2691   24.6110 H   0  0  0  0  0  0
  -27.2328  -37.1185   25.8835 H   0  0  0  0  0  0
  -20.9445  -29.8785   21.6841 H   0  0  0  0  0  0
  -26.0106  -38.2741   24.1504 H   0  0  0  0  0  0
  -26.3649  -18.8173   22.6457 H   0  0  0  0  0  0
  -27.6244  -16.5389   20.4800 H   0  0  0  0  0  0
  -28.2959  -16.4480   22.1101 H   0  0  0  0  0  0
  -31.0202  -18.4789   20.7455 H   0  0  0  0  0  0
  -30.2539  -18.4147   19.1913 H   0  0  0  0  0  0
  -26.0993  -22.2378   22.4012 H   0  0  0  0  0  0
  -27.6159  -22.2300   23.3495 H   0  0  0  0  0  0
  -26.3445  -21.1103   23.7132 H   0  0  0  0  0  0
  -29.6496  -22.7361   21.3014 H   0  0  0  0  0  0
  -29.2596  -22.4770   19.6508 H   0  0  0  0  0  0
  -27.4407  -24.1303   21.6758 H   0  0  0  0  0  0
  -26.9596  -23.8902   20.0705 H   0  0  0  0  0  0
  1 25  1  0  0  0
  1 30  2  0  0  0
  1 81  1  0  0  0
  2  3  1  0  0  0
  2 25  1  0  0  0
  2 82  1  0  0  0
  2 83  1  0  0  0
  3  4  1  0  0  0
  3 84  1  0  0  0
  3 85  1  0  0  0
  4  5  1  0  0  0
  4 86  1  0  0  0
  4 87  1  0  0  0
  5  6  1  0  0  0
  5 26  1  0  0  0
  5 88  1  0  0  0
  6 25  1  0  0  0
  6 89  1  0  0  0
  6 90  1  0  0  0
  7  8  2  0  0  0
  7 26  1  0  0  0
  7 29  1  0  0  0
  8  9  1  0  0  0
  8 22  1  0  0  0
  9 10  1  0  0  0
  9 27  2  0  0  0
 10 11  2  0  0  0
 10 15  1  0  0  0
 11 12  1  0  0  0
 11 91  1  0  0  0
 12 13  2  0  0  0
 12 92  1  0  0  0
 13 14  1  0  0  0
 13 31  1  0  0  0
 14 15  2  0  0  0
 14 93  1  0  0  0
 15 94  1  0  0  0
 16 17  2  0  0  0
 16 21  1  0  0  0
 16 31  1  0  0  0
 17 18  1  0  0  0
 17 95  1  0  0  0
 18 19  2  0  0  0
 18 96  1  0  0  0
 19 20  1  0  0  0
 19 24  1  0  0  0
 20 21  2  0  0  0
 20 97  1  0  0  0
 21 23  1  0  0  0
 22 28  1  0  0  0
 22 32  2  0  0  0
 26 27  1  0  0  0
 28 98  1  0  0  0
 28 99  1  0  0  0
 29100  1  0  0  0
 29101  1  0  0  0
 33 34  1  0  0  0
 33 66  1  0  0  0
 33 70  2  0  0  0
 34 36  1  0  0  0
 34 59  1  0  0  0
 34102  1  0  0  0
 35 44  2  0  0  0
 35 45  1  0  0  0
 35 68  1  0  0  0
 36 56  1  0  0  0
 36103  1  0  0  0
 37 39  1  0  0  0
 37 47  1  0  0  0
 37 66  1  0  0  0
 37104  1  0  0  0
 38 43  2  0  0  0
 38 46  1  0  0  0
 38 47  1  0  0  0
 39 64  1  0  0  0
 39 67  2  0  0  0
 40 52  1  0  0  0
 40 53  2  0  0  0
 40 58  1  0  0  0
 41105  1  0  0  0
 41106  1  0  0  0
 41107  1  0  0  0
 41 48  1  0  0  0
 42 43  1  0  0  0
 42 66  1  0  0  0
 42108  1  0  0  0
 42109  1  0  0  0
 43 44  1  0  0  0
 44110  1  0  0  0
 45 46  2  0  0  0
 45111  1  0  0  0
 46112  1  0  0  0
 47113  1  0  0  0
 47114  1  0  0  0
 48 56  1  0  0  0
 48 65  1  0  0  0
 48115  1  0  0  0
 49 50  1  0  0  0
 49 53  1  0  0  0
 49 64  1  0  0  0
 49116  1  0  0  0
 50 51  1  0  0  0
 50117  1  0  0  0
 50118  1  0  0  0
 51 52  1  0  0  0
 51119  1  0  0  0
 51120  1  0  0  0
 52121  1  0  0  0
 52122  1  0  0  0
 53 54  1  0  0  0
 54 55  2  0  0  0
 54123  1  0  0  0
 55 57  1  0  0  0
 55124  1  0  0  0
 56 69  2  0  0  0
 57 58  2  0  0  0
 57125  1  0  0  0
 58126  1  0  0  0
 59 60  1  0  0  0
 59 61  1  0  0  0
 59 62  1  0  0  0
 60127  1  0  0  0
 60128  1  0  0  0
 60129  1  0  0  0
 61130  1  0  0  0
 61131  1  0  0  0
 61132  1  0  0  0
 62133  1  0  0  0
 62134  1  0  0  0
 62135  1  0  0  0
 63 65  1  0  0  0
 63136  1  0  0  0
 63137  1  0  0  0
 63138  1  0  0  0
 64139  1  0  0  0
 65140  1  0  0  0
 68 79  1  0  0  0
 71 72  1  0  0  0
 71 74  2  0  0  0
 71141  1  0  0  0
 72 73  2  0  0  0
 72 75  1  0  0  0
 73 76  1  0  0  0
 73 80  1  0  0  0
 74 77  1  0  0  0
 74 80  1  0  0  0
 75 81  1  0  0  0
 75142  1  0  0  0
 75143  1  0  0  0
 76 81  1  0  0  0
 76144  1  0  0  0
 76145  1  0  0  0
 77146  1  0  0  0
 77147  1  0  0  0
 77148  1  0  0  0
 78 79  1  0  0  0
 78 80  1  0  0  0
 78149  1  0  0  0
 78150  1  0  0  0
 79151  1  0  0  0
 79152  1  0  0  0
M  ISO  4   1 100  68 101  79 101  81 100
M  END
> <chiral flag>
0

> <version>
0

> <s_m_source_file>
/data/baiqing/PycharmProjects/Reinvent-master-3.2/result/LINK_invent/BTK/process_docking_weight1_custom_sum_contain_oxygen_bond_distance_aromatic_linkinvent_7_9_3/rearranged_h_0138.sdf

> <i_m_source_file_index>
79

> <r_mmod_Potential_Energy-OPLS-2005>
1680.64514160156

> <r_mmod_Stretch_Energy-OPLS-2005>
687.523559570312

> <r_mmod_Bend_Energy-OPLS-2005>
610.092834472656

> <r_mmod_Torsional_Energy-OPLS-2005>
277.867614746094

> <r_mmod_Improper_Torsional_Energy-OPLS-2005>
7.41320037841797

> <r_mmod_Van_der_Waal_Energy-OPLS-2005>
100.027030944824

> <r_mmod_Electrostatic_Energy-OPLS-2005>
-331.449279785156

> <r_mmod_Solvation_Energy-OPLS-2005>
-220.754608154297

> <b_mmod_Minimization_Converged-OPLS-2005>
0

> <r_mmod_RMS_Derivative-OPLS-2005>
8.61110305786133

$$$$
79
                    3D
 Structure written by MMmdl.
162170  0  0  1  0            999 V2000
  -30.7091  -14.5038   20.5523 C   0  0  0  0  0  0
  -30.4272  -12.3181   19.4315 C   0  0  0  0  0  0
  -29.4951  -12.4870   18.2117 C   0  0  0  0  0  0
  -28.0198  -12.3180   18.6262 C   0  0  0  0  0  0
  -27.6525  -13.1790   19.8596 C   0  0  2  0  0  0
  -28.7035  -13.0235   20.9859 C   0  0  0  0  0  0
  -25.2585  -13.8057   20.5654 C   0  0  0  0  0  0
  -24.1826  -13.0384   20.9187 C   0  0  0  0  0  0
  -24.6355  -11.6843   20.8758 C   0  0  0  0  0  0
  -23.9018  -10.4259   21.0427 C   0  0  0  0  0  0
  -24.3581   -9.4184   21.9197 C   0  0  0  0  0  0
  -23.6272   -8.2217   22.0754 C   0  0  0  0  0  0
  -22.4257   -8.0260   21.3536 C   0  0  0  0  0  0
  -21.9888   -9.0229   20.4638 C   0  0  0  0  0  0
  -22.7204  -10.2113   20.3059 C   0  0  0  0  0  0
  -21.6841   -6.0732   22.5283 C   0  0  0  0  0  0
  -21.4009   -6.5641   23.8213 C   0  0  0  0  0  0
  -21.3650   -5.6786   24.9177 C   0  0  0  0  0  0
  -21.6042   -4.3053   24.7226 C   0  0  0  0  0  0
  -21.8828   -3.8144   23.4345 C   0  0  0  0  0  0
  -21.9194   -4.6958   22.3404 C   0  0  0  0  0  0
  -22.7866  -13.5226   21.1847 C   0  0  0  0  0  0
  -22.1666   -4.2150   21.0978 F   0  0  0  0  0  0
  -21.5624   -3.4539   25.7740 F   0  0  0  0  0  0
  -30.0372  -13.3210   20.4375 N   0  0  0  0  0  0
  -26.2979  -12.9164   20.3317 N   0  0  0  0  0  0
  -25.9266  -11.6362   20.5781 N   0  0  0  0  0  0
  -22.0499  -12.8219   22.0397 N   0  0  0  0  0  0
  -25.4291  -15.1771   20.4006 N   0  0  0  0  0  0
  -31.8456  -14.6455   20.0948 O   0  0  0  0  0  0
  -21.6622   -6.8860   21.4236 O   0  0  0  0  0  0
  -22.3576  -14.5551   20.6716 O   0  0  0  0  0  0
  -24.6149  -31.8669   23.2104 C   0  0  0  0  0  0
  -25.9042  -32.4816   23.8385 C   0  0  1  0  0  0
  -27.2398  -27.4301   20.0966 C   0  0  0  0  0  0
  -25.5896  -33.8616   24.2317 N   0  0  0  0  0  0
  -23.4034  -30.4912   21.5494 C   0  0  2  0  0  0
  -24.8523  -28.9600   20.1141 C   0  0  0  0  0  0
  -22.7418  -29.4652   22.4977 C   0  0  0  0  0  0
  -18.0273  -28.1371   22.8495 C   0  0  0  0  0  0
  -24.1484  -36.7309   23.2639 C   0  0  0  0  0  0
  -25.9345  -30.8342   21.3637 C   0  0  0  0  0  0
  -26.0135  -29.4690   20.7096 C   0  0  0  0  0  0
  -27.2092  -28.7119   20.6964 C   0  0  0  0  0  0
  -26.0562  -26.9441   19.4902 C   0  0  0  0  0  0
  -24.8688  -27.6964   19.5031 C   0  0  0  0  0  0
  -23.6130  -29.8243   20.1642 C   0  0  0  0  0  0
  -25.4109  -36.3106   24.0336 C   0  0  1  0  0  0
  -20.5869  -28.3659   23.1320 C   0  0  2  0  0  0
  -20.6758  -26.9391   22.5428 C   0  0  0  0  0  0
  -19.5732  -26.6376   21.5225 C   0  0  0  0  0  0
  -18.1902  -26.7921   22.1633 C   0  0  0  0  0  0
  -19.1526  -28.8829   23.2904 C   0  0  0  0  0  0
  -18.9452  -30.1429   23.8926 C   0  0  0  0  0  0
  -17.6452  -30.6575   24.0569 C   0  0  0  0  0  0
  -25.9039  -34.9472   23.5122 C   0  0  0  0  0  0
  -16.5346  -29.9086   23.6322 C   0  0  0  0  0  0
  -16.7263  -28.6504   23.0346 C   0  0  0  0  0  0
  -26.4476  -31.6596   25.0708 C   0  0  0  0  0  0
  -25.3756  -31.3702   26.1456 C   0  0  0  0  0  0
  -27.0286  -30.3033   24.6075 C   0  0  0  0  0  0
  -27.6031  -32.4323   25.7490 C   0  0  0  0  0  0
  -27.5582  -37.1802   24.8457 C   0  0  0  0  0  0
  -21.4145  -29.3032   22.3729 N   0  0  0  0  0  0
  -26.4292  -37.3793   23.9413 N   0  0  0  0  0  0
  -24.6687  -31.0778   22.0995 N   0  0  0  0  0  0
  -23.4186  -28.8176   23.3006 O   0  0  0  0  0  0
  -28.4113  -26.6911   20.1257 O   0  0  0  0  0  0
  -26.5606  -34.8918   22.4682 O   0  0  0  0  0  0
  -23.5348  -32.1413   23.7507 O   0  0  0  0  0  0
  -28.9693  -16.3344   20.0922 C   0  0  0  0  0  0
  -29.2410  -17.8258   19.9098 C   0  0  0  0  0  0
  -30.8903  -17.0109   21.4249 C   0  0  0  0  0  0
  -29.9927  -15.7718   21.1107 C   0  0  2  0  0  0
  -29.9669  -18.2300   21.1906 C   0  0  1  0  0  0
  -30.6388  -22.4588   22.4095 C   0  0  0  0  0  0
  -29.5287  -24.4820   20.4827 C   0  0  0  0  0  0
  -29.6656  -20.6803   20.8450 C   0  0  0  0  0  0
  -28.2743  -25.2643   20.0256 C   0  0  0  0  0  0
  -30.2539  -22.1176   20.9576 C   0  0  1  0  0  0
  -29.2189  -23.0449   20.4769 N   0  0  0  0  0  0
  -30.6211  -19.5680   21.1094 N   0  3  0  0  0  0
  -31.4712  -12.4106   19.1271 H   0  0  0  0  0  0
  -30.3290  -11.3160   19.8495 H   0  0  0  0  0  0
  -29.7511  -11.7578   17.4419 H   0  0  0  0  0  0
  -29.6415  -13.4709   17.7627 H   0  0  0  0  0  0
  -27.8552  -11.2629   18.8495 H   0  0  0  0  0  0
  -27.3604  -12.5560   17.7901 H   0  0  0  0  0  0
  -27.6555  -14.1989   19.5011 H   0  0  0  0  0  0
  -28.6947  -12.0028   21.3689 H   0  0  0  0  0  0
  -28.4488  -13.6504   21.8383 H   0  0  0  0  0  0
  -25.2729   -9.5675   22.4764 H   0  0  0  0  0  0
  -23.9998   -7.4608   22.7463 H   0  0  0  0  0  0
  -21.0828   -8.8734   19.8932 H   0  0  0  0  0  0
  -22.3668  -10.9652   19.6166 H   0  0  0  0  0  0
  -21.2003   -7.6149   23.9723 H   0  0  0  0  0  0
  -21.1460   -6.0516   25.9079 H   0  0  0  0  0  0
  -22.0616   -2.7611   23.2846 H   0  0  0  0  0  0
  -22.4112  -11.9875   22.4773 H   0  0  0  0  0  0
  -21.1113  -13.1233   22.2587 H   0  0  0  0  0  0
  -24.6605  -15.8300   20.5049 H   0  0  0  0  0  0
  -26.2744  -15.6115   20.0545 H   0  0  0  0  0  0
  -26.7116  -32.5530   23.1157 H   0  0  0  0  0  0
  -25.0045  -33.9780   25.0454 H   0  0  0  0  0  0
  -22.6915  -31.3077   21.4081 H   0  0  0  0  0  0
  -23.3752  -35.9633   23.3284 H   0  0  0  0  0  0
  -24.3588  -36.8950   22.2057 H   0  0  0  0  0  0
  -23.7211  -37.6499   23.6669 H   0  0  0  0  0  0
  -26.0458  -31.6012   20.5960 H   0  0  0  0  0  0
  -26.8234  -30.8882   21.9811 H   0  0  0  0  0  0
  -28.1033  -29.0985   21.1663 H   0  0  0  0  0  0
  -26.0266  -25.9803   19.0023 H   0  0  0  0  0  0
  -23.9765  -27.2975   19.0396 H   0  0  0  0  0  0
  -23.7179  -30.5983   19.4028 H   0  0  0  0  0  0
  -22.7407  -29.2400   19.8680 H   0  0  0  0  0  0
  -25.1280  -36.1986   25.0833 H   0  0  0  0  0  0
  -20.9961  -28.3236   24.1444 H   0  0  0  0  0  0
  -20.5677  -26.2269   23.3627 H   0  0  0  0  0  0
  -21.6625  -26.7425   22.1213 H   0  0  0  0  0  0
  -19.6902  -25.6303   21.1218 H   0  0  0  0  0  0
  -19.6682  -27.3229   20.6791 H   0  0  0  0  0  0
  -17.4191  -26.6691   21.4015 H   0  0  0  0  0  0
  -18.0272  -26.0048   22.9009 H   0  0  0  0  0  0
  -19.7927  -30.7217   24.2331 H   0  0  0  0  0  0
  -17.5011  -31.6269   24.5151 H   0  0  0  0  0  0
  -15.5349  -30.2994   23.7630 H   0  0  0  0  0  0
  -15.8659  -28.0836   22.7043 H   0  0  0  0  0  0
  -24.5957  -30.7011   25.7806 H   0  0  0  0  0  0
  -24.8920  -32.2859   26.4870 H   0  0  0  0  0  0
  -25.8123  -30.8914   27.0229 H   0  0  0  0  0  0
  -26.2809  -29.6821   24.1131 H   0  0  0  0  0  0
  -27.4049  -29.7246   25.4519 H   0  0  0  0  0  0
  -27.8652  -30.4324   23.9202 H   0  0  0  0  0  0
  -27.2620  -33.3628   26.2036 H   0  0  0  0  0  0
  -28.3866  -32.6876   25.0345 H   0  0  0  0  0  0
  -28.0654  -31.8466   26.5447 H   0  0  0  0  0  0
  -28.2573  -38.0123   24.7530 H   0  0  0  0  0  0
  -28.1096  -36.2650   24.6244 H   0  0  0  0  0  0
  -27.2299  -37.1407   25.8858 H   0  0  0  0  0  0
  -20.9300  -29.8780   21.6985 H   0  0  0  0  0  0
  -26.0183  -38.2869   24.1446 H   0  0  0  0  0  0
  -29.0146  -15.8436   19.1189 H   0  0  0  0  0  0
  -27.9643  -16.2058   20.4902 H   0  0  0  0  0  0
  -28.3214  -18.3861   19.7340 H   0  0  0  0  0  0
  -29.8899  -17.9724   19.0441 H   0  0  0  0  0  0
  -31.7465  -17.0630   20.7517 H   0  0  0  0  0  0
  -31.2816  -16.9820   22.4426 H   0  0  0  0  0  0
  -29.4797  -15.5177   22.0377 H   0  0  0  0  0  0
  -29.2420  -18.2606   22.0074 H   0  0  0  0  0  0
  -31.2778  -21.6906   22.8434 H   0  0  0  0  0  0
  -29.7596  -22.5514   23.0490 H   0  0  0  0  0  0
  -31.1995  -23.3916   22.4716 H   0  0  0  0  0  0
  -29.8020  -24.8130   21.4850 H   0  0  0  0  0  0
  -30.3743  -24.6957   19.8264 H   0  0  0  0  0  0
  -29.2695  -20.5433   19.8376 H   0  0  0  0  0  0
  -28.8170  -20.5870   21.5247 H   0  0  0  0  0  0
  -27.4353  -24.9424   20.6466 H   0  0  0  0  0  0
  -28.0399  -24.9972   18.9946 H   0  0  0  0  0  0
  -31.1320  -22.2044   20.3140 H   0  0  0  0  0  0
  -28.9473  -22.7821   19.5315 H   0  0  0  0  0  0
  -31.3340  -19.5671   20.3976 H   0  0  0  0  0  0
  -31.0711  -19.7457   21.9929 H   0  0  0  0  0  0
  1 25  1  0  0  0
  1 30  2  0  0  0
  1 74  1  0  0  0
  2  3  1  0  0  0
  2 25  1  0  0  0
  2 83  1  0  0  0
  2 84  1  0  0  0
  3  4  1  0  0  0
  3 85  1  0  0  0
  3 86  1  0  0  0
  4  5  1  0  0  0
  4 87  1  0  0  0
  4 88  1  0  0  0
  5  6  1  0  0  0
  5 26  1  0  0  0
  5 89  1  0  0  0
  6 25  1  0  0  0
  6 90  1  0  0  0
  6 91  1  0  0  0
  7  8  2  0  0  0
  7 26  1  0  0  0
  7 29  1  0  0  0
  8  9  1  0  0  0
  8 22  1  0  0  0
  9 10  1  0  0  0
  9 27  2  0  0  0
 10 11  2  0  0  0
 10 15  1  0  0  0
 11 12  1  0  0  0
 11 92  1  0  0  0
 12 13  2  0  0  0
 12 93  1  0  0  0
 13 14  1  0  0  0
 13 31  1  0  0  0
 14 15  2  0  0  0
 14 94  1  0  0  0
 15 95  1  0  0  0
 16 17  2  0  0  0
 16 21  1  0  0  0
 16 31  1  0  0  0
 17 18  1  0  0  0
 17 96  1  0  0  0
 18 19  2  0  0  0
 18 97  1  0  0  0
 19 20  1  0  0  0
 19 24  1  0  0  0
 20 21  2  0  0  0
 20 98  1  0  0  0
 21 23  1  0  0  0
 22 28  1  0  0  0
 22 32  2  0  0  0
 26 27  1  0  0  0
 28 99  1  0  0  0
 28100  1  0  0  0
 29101  1  0  0  0
 29102  1  0  0  0
 33 34  1  0  0  0
 33 66  1  0  0  0
 33 70  2  0  0  0
 34 36  1  0  0  0
 34 59  1  0  0  0
 34103  1  0  0  0
 35 44  2  0  0  0
 35 45  1  0  0  0
 35 68  1  0  0  0
 36 56  1  0  0  0
 36104  1  0  0  0
 37 39  1  0  0  0
 37 47  1  0  0  0
 37 66  1  0  0  0
 37105  1  0  0  0
 38 43  2  0  0  0
 38 46  1  0  0  0
 38 47  1  0  0  0
 39 64  1  0  0  0
 39 67  2  0  0  0
 40 52  1  0  0  0
 40 53  2  0  0  0
 40 58  1  0  0  0
 41106  1  0  0  0
 41107  1  0  0  0
 41108  1  0  0  0
 41 48  1  0  0  0
 42 43  1  0  0  0
 42 66  1  0  0  0
 42109  1  0  0  0
 42110  1  0  0  0
 43 44  1  0  0  0
 44111  1  0  0  0
 45 46  2  0  0  0
 45112  1  0  0  0
 46113  1  0  0  0
 47114  1  0  0  0
 47115  1  0  0  0
 48 56  1  0  0  0
 48 65  1  0  0  0
 48116  1  0  0  0
 49 50  1  0  0  0
 49 53  1  0  0  0
 49 64  1  0  0  0
 49117  1  0  0  0
 50 51  1  0  0  0
 50118  1  0  0  0
 50119  1  0  0  0
 51 52  1  0  0  0
 51120  1  0  0  0
 51121  1  0  0  0
 52122  1  0  0  0
 52123  1  0  0  0
 53 54  1  0  0  0
 54 55  2  0  0  0
 54124  1  0  0  0
 55 57  1  0  0  0
 55125  1  0  0  0
 56 69  2  0  0  0
 57 58  2  0  0  0
 57126  1  0  0  0
 58127  1  0  0  0
 59 60  1  0  0  0
 59 61  1  0  0  0
 59 62  1  0  0  0
 60128  1  0  0  0
 60129  1  0  0  0
 60130  1  0  0  0
 61131  1  0  0  0
 61132  1  0  0  0
 61133  1  0  0  0
 62134  1  0  0  0
 62135  1  0  0  0
 62136  1  0  0  0
 63 65  1  0  0  0
 63137  1  0  0  0
 63138  1  0  0  0
 63139  1  0  0  0
 64140  1  0  0  0
 65141  1  0  0  0
 68 79  1  0  0  0
 71 72  1  0  0  0
 71 74  1  0  0  0
 71142  1  0  0  0
 71143  1  0  0  0
 72 75  1  0  0  0
 72144  1  0  0  0
 72145  1  0  0  0
 73 74  1  0  0  0
 73 75  1  0  0  0
 73146  1  0  0  0
 73147  1  0  0  0
 74148  1  0  0  0
 75 82  1  0  0  0
 75149  1  0  0  0
 76150  1  0  0  0
 76151  1  0  0  0
 76152  1  0  0  0
 76 80  1  0  0  0
 77 79  1  0  0  0
 77 81  1  0  0  0
 77153  1  0  0  0
 77154  1  0  0  0
 78 80  1  0  0  0
 78 82  1  0  0  0
 78155  1  0  0  0
 78156  1  0  0  0
 79157  1  0  0  0
 79158  1  0  0  0
 80 81  1  0  0  0
 80159  1  0  0  0
 81160  1  0  0  0
 82161  1  0  0  0
 82162  1  0  0  0
M  CHG  1  82   1
M  ISO  4   1 100  68 101  74 100  79 101
M  END
> <chiral flag>
0

> <version>
0

> <s_m_source_file>
/data/baiqing/PycharmProjects/Reinvent-master-3.2/result/LINK_invent/BTK/process_docking_weight1_custom_sum_contain_oxygen_bond_distance_aromatic_linkinvent_7_9_3/rearranged_h_0138.sdf

> <i_m_source_file_index>
80

> <r_mmod_Potential_Energy-OPLS-2005>
-101.388259887695

> <r_mmod_Stretch_Energy-OPLS-2005>
39.9641304016113

> <r_mmod_Bend_Energy-OPLS-2005>
132.66552734375

> <r_mmod_Torsional_Energy-OPLS-2005>
231.581802368164

> <r_mmod_Improper_Torsional_Energy-OPLS-2005>
3.44869828224182

> <r_mmod_Van_der_Waal_Energy-OPLS-2005>
139.712356567383

> <r_mmod_Electrostatic_Energy-OPLS-2005>
-213.817031860352

> <r_mmod_Solvation_Energy-OPLS-2005>
-451.602020263672

> <b_mmod_Minimization_Converged-OPLS-2005>
0

> <r_mmod_RMS_Derivative-OPLS-2005>
1.79294848442078

$$$$
80
                    3D
 Structure written by MMmdl.
173182  0  0  1  0            999 V2000
  -30.5712  -14.8301   20.4483 C   0  0  0  0  0  0
  -30.4419  -12.5098   19.4822 C   0  0  0  0  0  0
  -29.5185  -12.5174   18.2425 C   0  0  0  0  0  0
  -28.0478  -12.3204   18.6590 C   0  0  0  0  0  0
  -27.6390  -13.2347   19.8444 C   0  0  2  0  0  0
  -28.6829  -13.2005   20.9814 C   0  0  0  0  0  0
  -25.2509  -13.8196   20.5694 C   0  0  0  0  0  0
  -24.1800  -13.0441   20.9203 C   0  0  0  0  0  0
  -24.6389  -11.6922   20.8739 C   0  0  0  0  0  0
  -23.9065  -10.4297   21.0401 C   0  0  0  0  0  0
  -24.3615   -9.4216   21.9179 C   0  0  0  0  0  0
  -23.6284   -8.2252   22.0752 C   0  0  0  0  0  0
  -22.4268   -8.0286   21.3547 C   0  0  0  0  0  0
  -21.9902   -9.0259   20.4651 C   0  0  0  0  0  0
  -22.7234  -10.2133   20.3056 C   0  0  0  0  0  0
  -21.6854   -6.0732   22.5274 C   0  0  0  0  0  0
  -21.4019   -6.5630   23.8210 C   0  0  0  0  0  0
  -21.3661   -5.6786   24.9170 C   0  0  0  0  0  0
  -21.6046   -4.3048   24.7222 C   0  0  0  0  0  0
  -21.8820   -3.8141   23.4343 C   0  0  0  0  0  0
  -21.9194   -4.6959   22.3399 C   0  0  0  0  0  0
  -22.7822  -13.5230   21.1860 C   0  0  0  0  0  0
  -22.1663   -4.2150   21.0978 F   0  0  0  0  0  0
  -21.5628   -3.4529   25.7732 F   0  0  0  0  0  0
  -29.9750  -13.5821   20.3971 N   0  0  0  0  0  0
  -26.2926  -12.9406   20.3247 N   0  0  0  0  0  0
  -25.9319  -11.6546   20.5722 N   0  0  0  0  0  0
  -22.0452  -12.8236   22.0412 N   0  0  0  0  0  0
  -25.4200  -15.1918   20.4096 N   0  0  0  0  0  0
  -31.7628  -14.9377   20.1463 O   0  0  0  0  0  0
  -21.6637   -6.8877   21.4240 O   0  0  0  0  0  0
  -22.3518  -14.5538   20.6698 O   0  0  0  0  0  0
  -24.6374  -31.8505   23.1950 C   0  0  0  0  0  0
  -25.9181  -32.4728   23.8305 C   0  0  1  0  0  0
  -27.2158  -27.2039   20.1318 C   0  0  0  0  0  0
  -25.5963  -33.8531   24.2235 N   0  0  0  0  0  0
  -23.4370  -30.4737   21.5396 C   0  0  2  0  0  0
  -24.8844  -28.9160   20.1100 C   0  0  0  0  0  0
  -22.7541  -29.4578   22.4885 C   0  0  0  0  0  0
  -18.0306  -28.1384   22.8480 C   0  0  0  0  0  0
  -24.1499  -36.7259   23.2637 C   0  0  0  0  0  0
  -25.9898  -30.7439   21.3864 C   0  0  0  0  0  0
  -26.0611  -29.3640   20.7236 C   0  0  0  0  0  0
  -27.2293  -28.5232   20.7198 C   0  0  0  0  0  0
  -26.0093  -26.8430   19.4859 C   0  0  0  0  0  0
  -24.8670  -27.6658   19.4794 C   0  0  0  0  0  0
  -23.6586  -29.8097   20.1563 C   0  0  0  0  0  0
  -25.4125  -36.3047   24.0321 C   0  0  1  0  0  0
  -20.5916  -28.3702   23.1250 C   0  0  2  0  0  0
  -20.6803  -26.9410   22.5405 C   0  0  0  0  0  0
  -19.5774  -26.6373   21.5214 C   0  0  0  0  0  0
  -18.1950  -26.7930   22.1615 C   0  0  0  0  0  0
  -19.1563  -28.8862   23.2860 C   0  0  0  0  0  0
  -18.9477  -30.1459   23.8887 C   0  0  0  0  0  0
  -17.6476  -30.6583   24.0556 C   0  0  0  0  0  0
  -25.9071  -34.9421   23.5080 C   0  0  0  0  0  0
  -16.5365  -29.9071   23.6333 C   0  0  0  0  0  0
  -16.7290  -28.6489   23.0362 C   0  0  0  0  0  0
  -26.4530  -31.6573   25.0718 C   0  0  0  0  0  0
  -25.3733  -31.3751   26.1427 C   0  0  0  0  0  0
  -27.0384  -30.2974   24.6261 C   0  0  0  0  0  0
  -27.6066  -32.4331   25.7496 C   0  0  0  0  0  0
  -27.5592  -37.1774   24.8453 C   0  0  0  0  0  0
  -21.4243  -29.3037   22.3627 N   0  0  0  0  0  0
  -26.4293  -37.3754   23.9414 N   0  0  0  0  0  0
  -24.7074  -31.0422   22.0954 N   0  0  0  0  0  0
  -23.4219  -28.8115   23.3002 O   0  0  0  0  0  0
  -28.2847  -26.2545   20.1971 O   0  0  0  0  0  0
  -26.5637  -34.8906   22.4647 O   0  0  0  0  0  0
  -23.5511  -32.1355   23.7204 O   0  0  0  0  0  0
  -26.5061  -22.0677   16.8170 C   0  0  0  0  0  0
  -27.6683  -22.1331   17.6272 C   0  0  0  0  0  0
  -25.4482  -21.8598   17.6498 C   0  0  0  0  0  0
  -27.3044  -21.9487   18.9363 C   0  0  0  0  0  0
  -29.6303  -18.2537   19.2638 C   0  0  0  0  0  0
  -29.2070  -18.3331   21.6834 C   0  0  0  0  0  0
  -29.6926  -19.8599   19.2470 C   0  0  0  0  0  0
  -29.2409  -19.9389   21.6266 C   0  0  0  0  0  0
  -30.0123  -17.5028   20.6007 C   0  0  1  0  0  0
  -24.1491  -20.3500   19.9477 C   0  0  0  0  0  0
  -24.1701  -22.8683   20.3265 C   0  0  0  0  0  0
  -28.9224  -23.4340   20.2813 C   0  0  0  0  0  0
  -27.9709  -24.7682   20.0217 C   0  0  0  0  0  0
  -28.2029  -21.9565   20.1533 C   0  0  2  0  0  0
  -25.0192  -21.6059   20.1062 C   0  0  0  0  0  0
  -25.9120  -21.7835   18.9561 N   0  0  0  0  0  0
  -29.7632  -15.9619   20.6382 N   0  0  0  0  0  0
  -28.8447  -20.5212   20.2998 N   0  3  1  0  0  0
  -31.4796  -12.6545   19.1761 H   0  0  0  0  0  0
  -30.4104  -11.5404   19.9820 H   0  0  0  0  0  0
  -29.8166  -11.7366   17.5413 H   0  0  0  0  0  0
  -29.6260  -13.4648   17.7112 H   0  0  0  0  0  0
  -27.9245  -11.2746   18.9439 H   0  0  0  0  0  0
  -27.3883  -12.4839   17.8062 H   0  0  0  0  0  0
  -27.6225  -14.2487   19.4425 H   0  0  0  0  0  0
  -28.7394  -12.2078   21.4302 H   0  0  0  0  0  0
  -28.4011  -13.8846   21.7841 H   0  0  0  0  0  0
  -25.2754   -9.5693   22.4761 H   0  0  0  0  0  0
  -23.9993   -7.4645   22.7472 H   0  0  0  0  0  0
  -21.0830   -8.8776   19.8954 H   0  0  0  0  0  0
  -22.3682  -10.9673   19.6172 H   0  0  0  0  0  0
  -21.2009   -7.6136   23.9713 H   0  0  0  0  0  0
  -21.1482   -6.0510   25.9075 H   0  0  0  0  0  0
  -22.0595   -2.7603   23.2839 H   0  0  0  0  0  0
  -22.4035  -11.9899   22.4834 H   0  0  0  0  0  0
  -21.1077  -13.1295   22.2598 H   0  0  0  0  0  0
  -24.6468  -15.8402   20.5099 H   0  0  0  0  0  0
  -26.2528  -15.6273   20.0370 H   0  0  0  0  0  0
  -26.7238  -32.5356   23.1028 H   0  0  0  0  0  0
  -25.0140  -33.9660   25.0403 H   0  0  0  0  0  0
  -22.7364  -31.2983   21.3921 H   0  0  0  0  0  0
  -23.3780  -35.9570   23.3266 H   0  0  0  0  0  0
  -24.3590  -36.8920   22.2058 H   0  0  0  0  0  0
  -23.7236  -37.6440   23.6689 H   0  0  0  0  0  0
  -26.1432  -31.5040   20.6195 H   0  0  0  0  0  0
  -26.8614  -30.7868   22.0278 H   0  0  0  0  0  0
  -28.1272  -28.8591   21.2192 H   0  0  0  0  0  0
  -25.9007  -25.8905   18.9919 H   0  0  0  0  0  0
  -23.9665  -27.3180   18.9926 H   0  0  0  0  0  0
  -23.7886  -30.5861   19.4013 H   0  0  0  0  0  0
  -22.7750  -29.2475   19.8486 H   0  0  0  0  0  0
  -25.1308  -36.1881   25.0812 H   0  0  0  0  0  0
  -21.0009  -28.3293   24.1369 H   0  0  0  0  0  0
  -20.5712  -26.2306   23.3614 H   0  0  0  0  0  0
  -21.6670  -26.7432   22.1196 H   0  0  0  0  0  0
  -19.6933  -25.6280   21.1253 H   0  0  0  0  0  0
  -19.6718  -27.3176   20.6739 H   0  0  0  0  0  0
  -17.4228  -26.6693   21.4006 H   0  0  0  0  0  0
  -18.0324  -26.0069   22.9002 H   0  0  0  0  0  0
  -19.7954  -30.7280   24.2254 H   0  0  0  0  0  0
  -17.5025  -31.6267   24.5148 H   0  0  0  0  0  0
  -15.5363  -30.2965   23.7665 H   0  0  0  0  0  0
  -15.8693  -28.0790   22.7093 H   0  0  0  0  0  0
  -24.5906  -30.7105   25.7758 H   0  0  0  0  0  0
  -24.8930  -32.2932   26.4817 H   0  0  0  0  0  0
  -25.8030  -30.8950   27.0228 H   0  0  0  0  0  0
  -26.2981  -29.6704   24.1281 H   0  0  0  0  0  0
  -27.4032  -29.7265   25.4811 H   0  0  0  0  0  0
  -27.8881  -30.4222   23.9544 H   0  0  0  0  0  0
  -27.2661  -33.3641   26.2042 H   0  0  0  0  0  0
  -28.3892  -32.6881   25.0336 H   0  0  0  0  0  0
  -28.0725  -31.8484   26.5440 H   0  0  0  0  0  0
  -28.2568  -38.0112   24.7555 H   0  0  0  0  0  0
  -28.1133  -36.2644   24.6215 H   0  0  0  0  0  0
  -27.2313  -37.1347   25.8854 H   0  0  0  0  0  0
  -20.9436  -29.8745   21.6815 H   0  0  0  0  0  0
  -26.0166  -38.2816   24.1448 H   0  0  0  0  0  0
  -26.4471  -22.1729   15.7419 H   0  0  0  0  0  0
  -28.6783  -22.3044   17.2802 H   0  0  0  0  0  0
  -24.3930  -21.7675   17.4271 H   0  0  0  0  0  0
  -30.2685  -17.8795   18.4625 H   0  0  0  0  0  0
  -28.6193  -17.9574   18.9809 H   0  0  0  0  0  0
  -28.1609  -18.0285   21.6324 H   0  0  0  0  0  0
  -29.5427  -18.0237   22.6744 H   0  0  0  0  0  0
  -29.3925  -20.2013   18.2588 H   0  0  0  0  0  0
  -30.7240  -20.1918   19.3732 H   0  0  0  0  0  0
  -30.2397  -20.2979   21.8791 H   0  0  0  0  0  0
  -28.5788  -20.3315   22.3993 H   0  0  0  0  0  0
  -31.0775  -17.6591   20.7799 H   0  0  0  0  0  0
  -23.5621  -20.1698   20.8488 H   0  0  0  0  0  0
  -24.7642  -19.4659   19.7766 H   0  0  0  0  0  0
  -23.4507  -20.4393   19.1160 H   0  0  0  0  0  0
  -23.5300  -22.7618   21.2026 H   0  0  0  0  0  0
  -23.5259  -23.0756   19.4716 H   0  0  0  0  0  0
  -24.7970  -23.7458   20.4859 H   0  0  0  0  0  0
  -29.3808  -23.5095   21.2676 H   0  0  0  0  0  0
  -29.7466  -23.4751   19.5698 H   0  0  0  0  0  0
  -27.0762  -24.5952   20.6207 H   0  0  0  0  0  0
  -27.6535  -24.6762   18.9836 H   0  0  0  0  0  0
  -27.5699  -21.9900   21.0335 H   0  0  0  0  0  0
  -25.6007  -21.4455   21.0089 H   0  0  0  0  0  0
  -28.8064  -15.7100   20.8362 H   0  0  0  0  0  0
  -27.9806  -20.0249   20.1432 H   0  0  0  0  0  0
  1 25  1  0  0  0
  1 30  2  0  0  0
  1 87  1  0  0  0
  2  3  1  0  0  0
  2 25  1  0  0  0
  2 89  1  0  0  0
  2 90  1  0  0  0
  3  4  1  0  0  0
  3 91  1  0  0  0
  3 92  1  0  0  0
  4  5  1  0  0  0
  4 93  1  0  0  0
  4 94  1  0  0  0
  5  6  1  0  0  0
  5 26  1  0  0  0
  5 95  1  0  0  0
  6 25  1  0  0  0
  6 96  1  0  0  0
  6 97  1  0  0  0
  7  8  2  0  0  0
  7 26  1  0  0  0
  7 29  1  0  0  0
  8  9  1  0  0  0
  8 22  1  0  0  0
  9 10  1  0  0  0
  9 27  2  0  0  0
 10 11  2  0  0  0
 10 15  1  0  0  0
 11 12  1  0  0  0
 11 98  1  0  0  0
 12 13  2  0  0  0
 12 99  1  0  0  0
 13 14  1  0  0  0
 13 31  1  0  0  0
 14 15  2  0  0  0
 14100  1  0  0  0
 15101  1  0  0  0
 16 17  2  0  0  0
 16 21  1  0  0  0
 16 31  1  0  0  0
 17 18  1  0  0  0
 17102  1  0  0  0
 18 19  2  0  0  0
 18103  1  0  0  0
 19 20  1  0  0  0
 19 24  1  0  0  0
 20 21  2  0  0  0
 20104  1  0  0  0
 21 23  1  0  0  0
 22 28  1  0  0  0
 22 32  2  0  0  0
 26 27  1  0  0  0
 28105  1  0  0  0
 28106  1  0  0  0
 29107  1  0  0  0
 29108  1  0  0  0
 33 34  1  0  0  0
 33 66  1  0  0  0
 33 70  2  0  0  0
 34 36  1  0  0  0
 34 59  1  0  0  0
 34109  1  0  0  0
 35 44  2  0  0  0
 35 45  1  0  0  0
 35 68  1  0  0  0
 36 56  1  0  0  0
 36110  1  0  0  0
 37 39  1  0  0  0
 37 47  1  0  0  0
 37 66  1  0  0  0
 37111  1  0  0  0
 38 43  2  0  0  0
 38 46  1  0  0  0
 38 47  1  0  0  0
 39 64  1  0  0  0
 39 67  2  0  0  0
 40 52  1  0  0  0
 40 53  2  0  0  0
 40 58  1  0  0  0
 41112  1  0  0  0
 41113  1  0  0  0
 41114  1  0  0  0
 41 48  1  0  0  0
 42 43  1  0  0  0
 42 66  1  0  0  0
 42115  1  0  0  0
 42116  1  0  0  0
 43 44  1  0  0  0
 44117  1  0  0  0
 45 46  2  0  0  0
 45118  1  0  0  0
 46119  1  0  0  0
 47120  1  0  0  0
 47121  1  0  0  0
 48 56  1  0  0  0
 48 65  1  0  0  0
 48122  1  0  0  0
 49 50  1  0  0  0
 49 53  1  0  0  0
 49 64  1  0  0  0
 49123  1  0  0  0
 50 51  1  0  0  0
 50124  1  0  0  0
 50125  1  0  0  0
 51 52  1  0  0  0
 51126  1  0  0  0
 51127  1  0  0  0
 52128  1  0  0  0
 52129  1  0  0  0
 53 54  1  0  0  0
 54 55  2  0  0  0
 54130  1  0  0  0
 55 57  1  0  0  0
 55131  1  0  0  0
 56 69  2  0  0  0
 57 58  2  0  0  0
 57132  1  0  0  0
 58133  1  0  0  0
 59 60  1  0  0  0
 59 61  1  0  0  0
 59 62  1  0  0  0
 60134  1  0  0  0
 60135  1  0  0  0
 60136  1  0  0  0
 61137  1  0  0  0
 61138  1  0  0  0
 61139  1  0  0  0
 62140  1  0  0  0
 62141  1  0  0  0
 62142  1  0  0  0
 63 65  1  0  0  0
 63143  1  0  0  0
 63144  1  0  0  0
 63145  1  0  0  0
 64146  1  0  0  0
 65147  1  0  0  0
 68 83  1  0  0  0
 71 72  1  0  0  0
 71 73  2  0  0  0
 71148  1  0  0  0
 72 74  2  0  0  0
 72149  1  0  0  0
 73 86  1  0  0  0
 73150  1  0  0  0
 74 84  1  0  0  0
 74 86  1  0  0  0
 75 77  1  0  0  0
 75 79  1  0  0  0
 75151  1  0  0  0
 75152  1  0  0  0
 76 78  1  0  0  0
 76 79  1  0  0  0
 76153  1  0  0  0
 76154  1  0  0  0
 77155  1  0  0  0
 77156  1  0  0  0
 77 88  1  0  0  0
 78 88  1  0  0  0
 78157  1  0  0  0
 78158  1  0  0  0
 79 87  1  0  0  0
 79159  1  0  0  0
 80160  1  0  0  0
 80161  1  0  0  0
 80162  1  0  0  0
 80 85  1  0  0  0
 81 85  1  0  0  0
 81163  1  0  0  0
 81164  1  0  0  0
 81165  1  0  0  0
 82 83  1  0  0  0
 82166  1  0  0  0
 82167  1  0  0  0
 82 84  1  0  0  0
 83168  1  0  0  0
 83169  1  0  0  0
 84 88  1  0  0  0
 84170  1  0  0  0
 85 86  1  0  0  0
 85171  1  0  0  0
 87172  1  0  0  0
 88173  1  0  0  0
M  CHG  1  88   1
M  ISO  4   1 100  68 101  83 101  87 100
M  END
> <chiral flag>
0

> <version>
0

> <s_m_source_file>
/data/baiqing/PycharmProjects/Reinvent-master-3.2/result/LINK_invent/BTK/process_docking_weight1_custom_sum_contain_oxygen_bond_distance_aromatic_linkinvent_7_9_3/rearranged_h_0138.sdf

> <i_m_source_file_index>
81

> <r_mmod_Potential_Energy-OPLS-2005>
235.286026000977

> <r_mmod_Stretch_Energy-OPLS-2005>
176.626174926758

> <r_mmod_Bend_Energy-OPLS-2005>
270.172973632812

> <r_mmod_Torsional_Energy-OPLS-2005>
265.957977294922

> <r_mmod_Improper_Torsional_Energy-OPLS-2005>
4.6729154586792

> <r_mmod_Van_der_Waal_Energy-OPLS-2005>
108.959259033203

> <r_mmod_Electrostatic_Energy-OPLS-2005>
-268.060424804688

> <r_mmod_Solvation_Energy-OPLS-2005>
-450.903839111328

> <b_mmod_Minimization_Converged-OPLS-2005>
0

> <r_mmod_RMS_Derivative-OPLS-2005>
1.34919726848602

$$$$
81
                    3D
 Structure written by MMmdl.
164173  0  0  1  0            999 V2000
  -30.6985  -14.5216   20.5075 C   0  0  0  0  0  0
  -30.4441  -12.3048   19.4426 C   0  0  0  0  0  0
  -29.5131  -12.3837   18.2123 C   0  0  0  0  0  0
  -28.0221  -12.3391   18.6137 C   0  0  0  0  0  0
  -27.6614  -13.2064   19.8526 C   0  0  2  0  0  0
  -28.7089  -13.0402   20.9765 C   0  0  0  0  0  0
  -25.2611  -13.8155   20.5645 C   0  0  0  0  0  0
  -24.1853  -13.0447   20.9147 C   0  0  0  0  0  0
  -24.6390  -11.6916   20.8714 C   0  0  0  0  0  0
  -23.9041  -10.4300   21.0394 C   0  0  0  0  0  0
  -24.3599   -9.4227   21.9177 C   0  0  0  0  0  0
  -23.6299   -8.2252   22.0751 C   0  0  0  0  0  0
  -22.4273   -8.0283   21.3549 C   0  0  0  0  0  0
  -21.9896   -9.0239   20.4630 C   0  0  0  0  0  0
  -22.7217  -10.2132   20.3035 C   0  0  0  0  0  0
  -21.6853   -6.0738   22.5281 C   0  0  0  0  0  0
  -21.4010   -6.5627   23.8211 C   0  0  0  0  0  0
  -21.3660   -5.6774   24.9171 C   0  0  0  0  0  0
  -21.6044   -4.3043   24.7221 C   0  0  0  0  0  0
  -21.8815   -3.8138   23.4335 C   0  0  0  0  0  0
  -21.9202   -4.6960   22.3390 C   0  0  0  0  0  0
  -22.7875  -13.5265   21.1836 C   0  0  0  0  0  0
  -22.1669   -4.2144   21.0970 F   0  0  0  0  0  0
  -21.5648   -3.4525   25.7731 F   0  0  0  0  0  0
  -30.0320  -13.3368   20.4046 N   0  0  0  0  0  0
  -26.3037  -12.9321   20.3263 N   0  0  0  0  0  0
  -25.9316  -11.6484   20.5716 N   0  0  0  0  0  0
  -22.0487  -12.8276   22.0384 N   0  0  0  0  0  0
  -25.4356  -15.1868   20.4100 N   0  0  0  0  0  0
  -31.8726  -14.6626   20.1563 O   0  0  0  0  0  0
  -21.6646   -6.8877   21.4242 O   0  0  0  0  0  0
  -22.3572  -14.5575   20.6689 O   0  0  0  0  0  0
  -24.6154  -31.8682   23.2054 C   0  0  0  0  0  0
  -25.9030  -32.4827   23.8373 C   0  0  1  0  0  0
  -27.2494  -27.4389   20.0989 C   0  0  0  0  0  0
  -25.5897  -33.8624   24.2311 N   0  0  0  0  0  0
  -23.4061  -30.4873   21.5456 C   0  0  2  0  0  0
  -24.8585  -28.9452   20.1180 C   0  0  0  0  0  0
  -22.7413  -29.4665   22.4977 C   0  0  0  0  0  0
  -18.0271  -28.1386   22.8484 C   0  0  0  0  0  0
  -24.1489  -36.7319   23.2643 C   0  0  0  0  0  0
  -25.9341  -30.8348   21.3565 C   0  0  0  0  0  0
  -26.0164  -29.4657   20.7099 C   0  0  0  0  0  0
  -27.2198  -28.7217   20.6932 C   0  0  0  0  0  0
  -26.0771  -26.9289   19.5053 C   0  0  0  0  0  0
  -24.8822  -27.6750   19.5132 C   0  0  0  0  0  0
  -23.6165  -29.8079   20.1648 C   0  0  0  0  0  0
  -25.4107  -36.3120   24.0343 C   0  0  1  0  0  0
  -20.5868  -28.3682   23.1312 C   0  0  2  0  0  0
  -20.6756  -26.9417   22.5423 C   0  0  0  0  0  0
  -19.5741  -26.6388   21.5214 C   0  0  0  0  0  0
  -18.1917  -26.7935   22.1606 C   0  0  0  0  0  0
  -19.1521  -28.8838   23.2900 C   0  0  0  0  0  0
  -18.9443  -30.1441   23.8911 C   0  0  0  0  0  0
  -17.6451  -30.6593   24.0561 C   0  0  0  0  0  0
  -25.9039  -34.9488   23.5122 C   0  0  0  0  0  0
  -16.5344  -29.9102   23.6316 C   0  0  0  0  0  0
  -16.7266  -28.6515   23.0346 C   0  0  0  0  0  0
  -26.4444  -31.6603   25.0705 C   0  0  0  0  0  0
  -25.3690  -31.3722   26.1441 C   0  0  0  0  0  0
  -27.0258  -30.3042   24.6080 C   0  0  0  0  0  0
  -27.6031  -32.4308   25.7468 C   0  0  0  0  0  0
  -27.5590  -37.1807   24.8456 C   0  0  0  0  0  0
  -21.4151  -29.3055   22.3716 N   0  0  0  0  0  0
  -26.4295  -37.3801   23.9415 N   0  0  0  0  0  0
  -24.6694  -31.0776   22.0946 N   0  0  0  0  0  0
  -23.4182  -28.8227   23.3029 O   0  0  0  0  0  0
  -28.4048  -26.6887   20.0800 O   0  0  0  0  0  0
  -26.5608  -34.8941   22.4694 O   0  0  0  0  0  0
  -23.5338  -32.1424   23.7447 O   0  0  0  0  0  0
  -30.3912  -20.1403   19.9353 C   0  0  0  0  0  0
  -28.6859  -19.4640   21.5218 C   0  0  0  0  0  0
  -29.9464  -21.4819   20.0156 C   0  0  0  0  0  0
  -28.2488  -20.8042   21.6064 C   0  0  0  0  0  0
  -29.7726  -19.1147   20.6916 C   0  0  0  0  0  0
  -28.8663  -21.8326   20.8622 C   0  0  0  0  0  0
  -30.3531  -16.6847   21.7454 C   0  0  0  0  0  0
  -30.2445  -17.6540   20.5677 C   0  0  1  0  0  0
  -29.3387  -16.6022   19.9211 C   0  0  1  0  0  0
  -28.1689  -16.7682   17.6708 C   0  0  0  0  0  0
  -30.6911  -16.8097   17.7092 C   0  0  0  0  0  0
  -28.9019  -24.2245   20.2959 C   0  0  0  0  0  0
  -28.3828  -25.5364   20.9429 C   0  0  0  0  0  0
  -29.4226  -16.2790   18.4069 C   0  0  0  0  0  0
  -29.9327  -15.5915   20.8416 N   0  0  0  0  0  0
  -28.3688  -23.1145   21.0337 O   0  0  0  0  0  0
  -31.4861  -12.4114   19.1334 H   0  0  0  0  0  0
  -30.3758  -11.3222   19.9087 H   0  0  0  0  0  0
  -29.7290  -11.5367   17.5587 H   0  0  0  0  0  0
  -29.7352  -13.2596   17.6092 H   0  0  0  0  0  0
  -27.7861  -11.2975   18.8241 H   0  0  0  0  0  0
  -27.3987  -12.6171   17.7627 H   0  0  0  0  0  0
  -27.6845  -14.2443   19.5244 H   0  0  0  0  0  0
  -28.6917  -12.0241   21.3741 H   0  0  0  0  0  0
  -28.4745  -13.6948   21.8172 H   0  0  0  0  0  0
  -25.2758   -9.5745   22.4738 H   0  0  0  0  0  0
  -24.0033   -7.4645   22.7471 H   0  0  0  0  0  0
  -21.0829   -8.8734   19.8946 H   0  0  0  0  0  0
  -22.3665  -10.9650   19.6136 H   0  0  0  0  0  0
  -21.1983   -7.6133   23.9716 H   0  0  0  0  0  0
  -21.1502   -6.0502   25.9082 H   0  0  0  0  0  0
  -22.0603   -2.7601   23.2806 H   0  0  0  0  0  0
  -22.4069  -11.9934   22.4803 H   0  0  0  0  0  0
  -21.1095  -13.1333   22.2521 H   0  0  0  0  0  0
  -24.6740  -15.8451   20.5300 H   0  0  0  0  0  0
  -26.3030  -15.6298   20.1403 H   0  0  0  0  0  0
  -26.7125  -32.5551   23.1165 H   0  0  0  0  0  0
  -25.0012  -33.9773   25.0431 H   0  0  0  0  0  0
  -22.6967  -31.3044   21.3991 H   0  0  0  0  0  0
  -23.3760  -35.9647   23.3295 H   0  0  0  0  0  0
  -24.3578  -36.8936   22.2062 H   0  0  0  0  0  0
  -23.7224  -37.6520   23.6646 H   0  0  0  0  0  0
  -26.0402  -31.5959   20.5817 H   0  0  0  0  0  0
  -26.8259  -30.8962   21.9693 H   0  0  0  0  0  0
  -28.1189  -29.1226   21.1410 H   0  0  0  0  0  0
  -26.0921  -25.9525   19.0404 H   0  0  0  0  0  0
  -23.9908  -27.2654   19.0579 H   0  0  0  0  0  0
  -23.7231  -30.5757   19.3980 H   0  0  0  0  0  0
  -22.7438  -29.2201   19.8732 H   0  0  0  0  0  0
  -25.1282  -36.1987   25.0836 H   0  0  0  0  0  0
  -20.9967  -28.3257   24.1429 H   0  0  0  0  0  0
  -20.5655  -26.2301   23.3621 H   0  0  0  0  0  0
  -21.6629  -26.7450   22.1223 H   0  0  0  0  0  0
  -19.6906  -25.6299   21.1250 H   0  0  0  0  0  0
  -19.6695  -27.3189   20.6740 H   0  0  0  0  0  0
  -17.4209  -26.6711   21.3989 H   0  0  0  0  0  0
  -18.0291  -26.0064   22.8979 H   0  0  0  0  0  0
  -19.7925  -30.7227   24.2311 H   0  0  0  0  0  0
  -17.5019  -31.6268   24.5172 H   0  0  0  0  0  0
  -15.5346  -30.3008   23.7619 H   0  0  0  0  0  0
  -15.8675  -28.0843   22.7041 H   0  0  0  0  0  0
  -24.5866  -30.7078   25.7752 H   0  0  0  0  0  0
  -24.8871  -32.2882   26.4871 H   0  0  0  0  0  0
  -25.8016  -30.8886   27.0208 H   0  0  0  0  0  0
  -26.2798  -29.6836   24.1108 H   0  0  0  0  0  0
  -27.3986  -29.7250   25.4536 H   0  0  0  0  0  0
  -27.8648  -30.4345   23.9241 H   0  0  0  0  0  0
  -27.2659  -33.3582   26.2109 H   0  0  0  0  0  0
  -28.3810  -32.6915   25.0278 H   0  0  0  0  0  0
  -28.0743  -31.8392   26.5327 H   0  0  0  0  0  0
  -28.2607  -38.0111   24.7527 H   0  0  0  0  0  0
  -28.1081  -36.2639   24.6233 H   0  0  0  0  0  0
  -27.2316  -37.1417   25.8863 H   0  0  0  0  0  0
  -20.9323  -29.8757   21.6918 H   0  0  0  0  0  0
  -26.0189  -38.2888   24.1406 H   0  0  0  0  0  0
  -31.2166  -19.9010   19.2801 H   0  0  0  0  0  0
  -28.1733  -18.7058   22.0986 H   0  0  0  0  0  0
  -30.4528  -22.2268   19.4188 H   0  0  0  0  0  0
  -27.4180  -21.0478   22.2552 H   0  0  0  0  0  0
  -29.6365  -16.8745   22.5443 H   0  0  0  0  0  0
  -31.3678  -16.6161   22.1405 H   0  0  0  0  0  0
  -31.2275  -17.6717   20.0955 H   0  0  0  0  0  0
  -28.3048  -16.7814   20.2212 H   0  0  0  0  0  0
  -27.2701  -16.3059   18.0809 H   0  0  0  0  0  0
  -28.2065  -16.4995   16.6145 H   0  0  0  0  0  0
  -28.0578  -17.8505   17.7433 H   0  0  0  0  0  0
  -31.5979  -16.3589   18.1139 H   0  0  0  0  0  0
  -30.7811  -17.8915   17.8139 H   0  0  0  0  0  0
  -30.6792  -16.5909   16.6422 H   0  0  0  0  0  0
  -29.9923  -24.2288   20.2960 H   0  0  0  0  0  0
  -28.5656  -24.1540   19.2610 H   0  0  0  0  0  0
  -28.9894  -25.7619   21.8208 H   0  0  0  0  0  0
  -27.3757  -25.3595   21.3251 H   0  0  0  0  0  0
  -29.4117  -15.2083   18.2600 H   0  0  0  0  0  0
  1 25  1  0  0  0
  1 30  2  0  0  0
  1 85  1  0  0  0
  2  3  1  0  0  0
  2 25  1  0  0  0
  2 87  1  0  0  0
  2 88  1  0  0  0
  3  4  1  0  0  0
  3 89  1  0  0  0
  3 90  1  0  0  0
  4  5  1  0  0  0
  4 91  1  0  0  0
  4 92  1  0  0  0
  5  6  1  0  0  0
  5 26  1  0  0  0
  5 93  1  0  0  0
  6 25  1  0  0  0
  6 94  1  0  0  0
  6 95  1  0  0  0
  7  8  2  0  0  0
  7 26  1  0  0  0
  7 29  1  0  0  0
  8  9  1  0  0  0
  8 22  1  0  0  0
  9 10  1  0  0  0
  9 27  2  0  0  0
 10 11  2  0  0  0
 10 15  1  0  0  0
 11 12  1  0  0  0
 11 96  1  0  0  0
 12 13  2  0  0  0
 12 97  1  0  0  0
 13 14  1  0  0  0
 13 31  1  0  0  0
 14 15  2  0  0  0
 14 98  1  0  0  0
 15 99  1  0  0  0
 16 17  2  0  0  0
 16 21  1  0  0  0
 16 31  1  0  0  0
 17 18  1  0  0  0
 17100  1  0  0  0
 18 19  2  0  0  0
 18101  1  0  0  0
 19 20  1  0  0  0
 19 24  1  0  0  0
 20 21  2  0  0  0
 20102  1  0  0  0
 21 23  1  0  0  0
 22 28  1  0  0  0
 22 32  2  0  0  0
 26 27  1  0  0  0
 28103  1  0  0  0
 28104  1  0  0  0
 29105  1  0  0  0
 29106  1  0  0  0
 33 34  1  0  0  0
 33 66  1  0  0  0
 33 70  2  0  0  0
 34 36  1  0  0  0
 34 59  1  0  0  0
 34107  1  0  0  0
 35 44  2  0  0  0
 35 45  1  0  0  0
 35 68  1  0  0  0
 36 56  1  0  0  0
 36108  1  0  0  0
 37 39  1  0  0  0
 37 47  1  0  0  0
 37 66  1  0  0  0
 37109  1  0  0  0
 38 43  2  0  0  0
 38 46  1  0  0  0
 38 47  1  0  0  0
 39 64  1  0  0  0
 39 67  2  0  0  0
 40 52  1  0  0  0
 40 53  2  0  0  0
 40 58  1  0  0  0
 41110  1  0  0  0
 41111  1  0  0  0
 41112  1  0  0  0
 41 48  1  0  0  0
 42 43  1  0  0  0
 42 66  1  0  0  0
 42113  1  0  0  0
 42114  1  0  0  0
 43 44  1  0  0  0
 44115  1  0  0  0
 45 46  2  0  0  0
 45116  1  0  0  0
 46117  1  0  0  0
 47118  1  0  0  0
 47119  1  0  0  0
 48 56  1  0  0  0
 48 65  1  0  0  0
 48120  1  0  0  0
 49 50  1  0  0  0
 49 53  1  0  0  0
 49 64  1  0  0  0
 49121  1  0  0  0
 50 51  1  0  0  0
 50122  1  0  0  0
 50123  1  0  0  0
 51 52  1  0  0  0
 51124  1  0  0  0
 51125  1  0  0  0
 52126  1  0  0  0
 52127  1  0  0  0
 53 54  1  0  0  0
 54 55  2  0  0  0
 54128  1  0  0  0
 55 57  1  0  0  0
 55129  1  0  0  0
 56 69  2  0  0  0
 57 58  2  0  0  0
 57130  1  0  0  0
 58131  1  0  0  0
 59 60  1  0  0  0
 59 61  1  0  0  0
 59 62  1  0  0  0
 60132  1  0  0  0
 60133  1  0  0  0
 60134  1  0  0  0
 61135  1  0  0  0
 61136  1  0  0  0
 61137  1  0  0  0
 62138  1  0  0  0
 62139  1  0  0  0
 62140  1  0  0  0
 63 65  1  0  0  0
 63141  1  0  0  0
 63142  1  0  0  0
 63143  1  0  0  0
 64144  1  0  0  0
 65145  1  0  0  0
 68 83  1  0  0  0
 71 73  2  0  0  0
 71 75  1  0  0  0
 71146  1  0  0  0
 72 74  1  0  0  0
 72 75  2  0  0  0
 72147  1  0  0  0
 73 76  1  0  0  0
 73148  1  0  0  0
 74 76  2  0  0  0
 74149  1  0  0  0
 75 78  1  0  0  0
 76 86  1  0  0  0
 77 78  1  0  0  0
 77 85  1  0  0  0
 77150  1  0  0  0
 77151  1  0  0  0
 78 79  1  0  0  0
 78152  1  0  0  0
 79 84  1  0  0  0
 79 85  1  0  0  0
 79153  1  0  0  0
 80154  1  0  0  0
 80155  1  0  0  0
 80156  1  0  0  0
 80 84  1  0  0  0
 81 84  1  0  0  0
 81157  1  0  0  0
 81158  1  0  0  0
 81159  1  0  0  0
 82 83  1  0  0  0
 82 86  1  0  0  0
 82160  1  0  0  0
 82161  1  0  0  0
 83162  1  0  0  0
 83163  1  0  0  0
 84164  1  0  0  0
M  ISO  4   1 100  68 101  83 101  85 100
M  END
> <chiral flag>
0

> <version>
0

> <s_m_source_file>
/data/baiqing/PycharmProjects/Reinvent-master-3.2/result/LINK_invent/BTK/process_docking_weight1_custom_sum_contain_oxygen_bond_distance_aromatic_linkinvent_7_9_3/rearranged_h_0138.sdf

> <i_m_source_file_index>
82

> <r_mmod_Potential_Energy-OPLS-2005>
123.758094787598

> <r_mmod_Stretch_Energy-OPLS-2005>
43.6959419250488

> <r_mmod_Bend_Energy-OPLS-2005>
116.351783752441

> <r_mmod_Torsional_Energy-OPLS-2005>
323.567291259766

> <r_mmod_Improper_Torsional_Energy-OPLS-2005>
9.90370559692383

> <r_mmod_Van_der_Waal_Energy-OPLS-2005>
141.556350708008

> <r_mmod_Electrostatic_Energy-OPLS-2005>
-340.488647460938

> <r_mmod_Solvation_Energy-OPLS-2005>
-192.104690551758

> <b_mmod_Minimization_Converged-OPLS-2005>
0

> <r_mmod_RMS_Derivative-OPLS-2005>
3.03212952613831

$$$$
82
                    3D
 Structure written by MMmdl.
150159  0  0  1  0            999 V2000
  -30.2516  -15.7745   20.3221 C   0  0  0  0  0  0
  -30.4158  -13.1902   19.5263 C   0  0  0  0  0  0
  -29.5546  -12.6850   18.3298 C   0  0  0  0  0  0
  -28.1401  -12.2980   18.7849 C   0  0  0  0  0  0
  -27.5905  -13.3180   19.8050 C   0  0  2  0  0  0
  -28.6017  -13.7138   20.9096 C   0  0  0  0  0  0
  -25.2312  -13.8290   20.5811 C   0  0  0  0  0  0
  -24.1712  -13.0432   20.9301 C   0  0  0  0  0  0
  -24.6425  -11.6945   20.8768 C   0  0  0  0  0  0
  -23.9125  -10.4292   21.0396 C   0  0  0  0  0  0
  -24.3657   -9.4204   21.9179 C   0  0  0  0  0  0
  -23.6317   -8.2247   22.0753 C   0  0  0  0  0  0
  -22.4298   -8.0292   21.3545 C   0  0  0  0  0  0
  -21.9945   -9.0268   20.4644 C   0  0  0  0  0  0
  -22.7290  -10.2137   20.3050 C   0  0  0  0  0  0
  -21.6857   -6.0744   22.5282 C   0  0  0  0  0  0
  -21.4017   -6.5643   23.8217 C   0  0  0  0  0  0
  -21.3661   -5.6794   24.9177 C   0  0  0  0  0  0
  -21.6044   -4.3058   24.7224 C   0  0  0  0  0  0
  -21.8817   -3.8152   23.4343 C   0  0  0  0  0  0
  -21.9194   -4.6971   22.3401 C   0  0  0  0  0  0
  -22.7721  -13.5160   21.1924 C   0  0  0  0  0  0
  -22.1662   -4.2159   21.0979 F   0  0  0  0  0  0
  -21.5628   -3.4539   25.7734 F   0  0  0  0  0  0
  -29.7443  -14.3853   20.2327 N   0  0  0  0  0  0
  -26.2770  -12.9639   20.3239 N   0  0  0  0  0  0
  -25.9376  -11.6700   20.5688 N   0  0  0  0  0  0
  -22.0374  -12.8149   22.0471 N   0  0  0  0  0  0
  -25.3892  -15.2032   20.4245 N   0  0  0  0  0  0
  -31.4963  -15.6743   20.2344 O   0  0  0  0  0  0
  -21.6651   -6.8895   21.4246 O   0  0  0  0  0  0
  -22.3404  -14.5458   20.6751 O   0  0  0  0  0  0
  -24.6942  -31.7883   23.1430 C   0  0  0  0  0  0
  -25.9471  -32.4410   23.8018 C   0  0  1  0  0  0
  -27.2291  -26.5949   20.2262 C   0  0  0  0  0  0
  -25.6001  -33.8238   24.1894 N   0  0  0  0  0  0
  -23.5253  -30.3859   21.5002 C   0  0  2  0  0  0
  -24.9828  -28.7029   20.1269 C   0  0  0  0  0  0
  -22.7815  -29.4256   22.4691 C   0  0  0  0  0  0
  -18.0345  -28.1428   22.8453 C   0  0  0  0  0  0
  -24.1497  -36.7127   23.2656 C   0  0  0  0  0  0
  -26.1114  -30.4862   21.4232 C   0  0  0  0  0  0
  -26.1764  -29.0381   20.7771 C   0  0  0  0  0  0
  -27.2821  -28.0174   20.7867 C   0  0  0  0  0  0
  -25.9979  -26.4965   19.5216 C   0  0  0  0  0  0
  -24.9386  -27.4587   19.4748 C   0  0  0  0  0  0
  -23.7857  -29.6727   20.1413 C   0  0  0  0  0  0
  -25.4152  -36.2859   24.0273 C   0  0  1  0  0  0
  -20.5985  -28.3793   23.1125 C   0  0  2  0  0  0
  -20.6805  -26.9444   22.5403 C   0  0  0  0  0  0
  -19.5780  -26.6371   21.5216 C   0  0  0  0  0  0
  -18.1964  -26.7954   22.1619 C   0  0  0  0  0  0
  -19.1614  -28.8939   23.2764 C   0  0  0  0  0  0
  -18.9516  -30.1519   23.8813 C   0  0  0  0  0  0
  -17.6504  -30.6606   24.0550 C   0  0  0  0  0  0
  -25.9138  -34.9252   23.4928 C   0  0  0  0  0  0
  -16.5393  -29.9087   23.6354 C   0  0  0  0  0  0
  -16.7323  -28.6511   23.0370 C   0  0  0  0  0  0
  -26.4611  -31.6488   25.0685 C   0  0  0  0  0  0
  -25.3648  -31.3835   26.1281 C   0  0  0  0  0  0
  -27.0558  -30.2814   24.6662 C   0  0  0  0  0  0
  -27.6040  -32.4374   25.7510 C   0  0  0  0  0  0
  -27.5558  -37.1723   24.8466 C   0  0  0  0  0  0
  -21.4452  -29.3024   22.3438 N   0  0  0  0  0  0
  -26.4269  -37.3629   23.9403 N   0  0  0  0  0  0
  -24.8019  -30.9222   22.0744 N   0  0  0  0  0  0
  -23.4211  -28.7867   23.3078 O   0  0  0  0  0  0
  -28.1856  -25.3302   20.2402 O   0  0  0  0  0  0
  -26.5791  -34.8848   22.4555 O   0  0  0  0  0  0
  -23.5936  -32.1003   23.6315 O   0  0  0  0  0  0
  -28.6817  -20.2551   20.1164 C   0  0  0  0  0  0
  -30.8948  -20.7244   21.3887 C   0  0  0  0  0  0
  -28.8799  -21.8558   20.3985 C   0  0  0  0  0  0
  -30.0711  -21.8782   21.1539 C   0  0  0  0  0  0
  -29.5788  -18.9239   20.4248 C   0  0  0  0  0  0
  -30.3996  -23.2181   21.8112 C   0  0  0  0  0  0
  -27.8756  -23.6514   21.9351 C   0  0  0  0  0  0
  -27.9556  -23.5367   20.4066 C   0  0  2  0  0  0
  -30.6924  -19.4026   21.0441 N   0  0  0  0  0  0
  -29.4813  -17.1713   20.2692 N   0  0  0  0  0  0
  -29.2369  -23.8152   22.5392 N   0  3  0  0  0  0
  -31.3932  -13.4803   19.1396 H   0  0  0  0  0  0
  -30.6221  -12.3787   20.2262 H   0  0  0  0  0  0
  -30.0397  -11.8396   17.8394 H   0  0  0  0  0  0
  -29.4884  -13.4765   17.5817 H   0  0  0  0  0  0
  -28.1960  -11.3138   19.2515 H   0  0  0  0  0  0
  -27.4708  -12.1994   17.9295 H   0  0  0  0  0  0
  -27.4308  -14.2177   19.2089 H   0  0  0  0  0  0
  -28.9013  -12.8555   21.5132 H   0  0  0  0  0  0
  -28.1424  -14.4248   21.5978 H   0  0  0  0  0  0
  -25.2793   -9.5680   22.4768 H   0  0  0  0  0  0
  -24.0017   -7.4637   22.7476 H   0  0  0  0  0  0
  -21.0874   -8.8796   19.8950 H   0  0  0  0  0  0
  -22.3747  -10.9681   19.6167 H   0  0  0  0  0  0
  -21.2011   -7.6153   23.9724 H   0  0  0  0  0  0
  -21.1484   -6.0522   25.9080 H   0  0  0  0  0  0
  -22.0594   -2.7615   23.2840 H   0  0  0  0  0  0
  -22.4007  -11.9836   22.4894 H   0  0  0  0  0  0
  -21.0974  -13.1151   22.2636 H   0  0  0  0  0  0
  -24.6144  -15.8489   20.5327 H   0  0  0  0  0  0
  -26.2263  -15.6448   20.0694 H   0  0  0  0  0  0
  -26.7564  -32.4856   23.0736 H   0  0  0  0  0  0
  -25.0038  -33.9262   24.9973 H   0  0  0  0  0  0
  -22.8565  -31.2258   21.3005 H   0  0  0  0  0  0
  -23.3773  -35.9440   23.3268 H   0  0  0  0  0  0
  -24.3559  -36.8846   22.2080 H   0  0  0  0  0  0
  -23.7248  -37.6285   23.6777 H   0  0  0  0  0  0
  -26.3250  -31.2032   20.6296 H   0  0  0  0  0  0
  -26.9578  -30.5591   22.0935 H   0  0  0  0  0  0
  -28.1836  -28.2904   21.3168 H   0  0  0  0  0  0
  -25.8112  -25.5657   19.0054 H   0  0  0  0  0  0
  -24.0412  -27.1916   18.9337 H   0  0  0  0  0  0
  -23.9732  -30.4274   19.3765 H   0  0  0  0  0  0
  -22.8879  -29.1461   19.8132 H   0  0  0  0  0  0
  -25.1370  -36.1604   25.0763 H   0  0  0  0  0  0
  -21.0060  -28.3418   24.1254 H   0  0  0  0  0  0
  -20.5656  -26.2419   23.3672 H   0  0  0  0  0  0
  -21.6665  -26.7370   22.1229 H   0  0  0  0  0  0
  -19.6935  -25.6261   21.1299 H   0  0  0  0  0  0
  -19.6725  -27.3137   20.6711 H   0  0  0  0  0  0
  -17.4234  -26.6696   21.4022 H   0  0  0  0  0  0
  -18.0352  -26.0116   22.9035 H   0  0  0  0  0  0
  -19.7991  -30.7358   24.2146 H   0  0  0  0  0  0
  -17.5054  -31.6278   24.5168 H   0  0  0  0  0  0
  -15.5391  -30.2962   23.7728 H   0  0  0  0  0  0
  -15.8723  -28.0800   22.7135 H   0  0  0  0  0  0
  -24.5864  -30.7155   25.7577 H   0  0  0  0  0  0
  -24.8805  -32.3066   26.4476 H   0  0  0  0  0  0
  -25.7801  -30.9149   27.0212 H   0  0  0  0  0  0
  -26.3298  -29.6400   24.1662 H   0  0  0  0  0  0
  -27.3947  -29.7302   25.5444 H   0  0  0  0  0  0
  -27.9292  -30.3915   24.0233 H   0  0  0  0  0  0
  -27.2565  -33.3753   26.1855 H   0  0  0  0  0  0
  -28.3967  -32.6814   25.0426 H   0  0  0  0  0  0
  -28.0582  -31.8664   26.5617 H   0  0  0  0  0  0
  -28.2545  -38.0045   24.7502 H   0  0  0  0  0  0
  -28.1084  -36.2565   24.6311 H   0  0  0  0  0  0
  -27.2269  -37.1375   25.8867 H   0  0  0  0  0  0
  -20.9778  -29.8673   21.6482 H   0  0  0  0  0  0
  -26.0084  -38.2673   24.1410 H   0  0  0  0  0  0
  -27.7323  -20.0253   19.6516 H   0  0  0  0  0  0
  -31.8001  -20.8669   21.9608 H   0  0  0  0  0  0
  -30.7310  -23.9101   21.0347 H   0  0  0  0  0  0
  -31.2382  -23.1153   22.5016 H   0  0  0  0  0  0
  -27.4292  -22.7410   22.3375 H   0  0  0  0  0  0
  -27.2237  -24.4662   22.2504 H   0  0  0  0  0  0
  -26.9669  -23.3298   19.9968 H   0  0  0  0  0  0
  -28.5160  -16.9287   20.1069 H   0  0  0  0  0  0
  -29.4293  -24.8020   22.6206 H   0  0  0  0  0  0
  -29.2178  -23.4518   23.4787 H   0  0  0  0  0  0
  1 25  1  0  0  0
  1 30  2  0  0  0
  1 80  1  0  0  0
  2  3  1  0  0  0
  2 25  1  0  0  0
  2 82  1  0  0  0
  2 83  1  0  0  0
  3  4  1  0  0  0
  3 84  1  0  0  0
  3 85  1  0  0  0
  4  5  1  0  0  0
  4 86  1  0  0  0
  4 87  1  0  0  0
  5  6  1  0  0  0
  5 26  1  0  0  0
  5 88  1  0  0  0
  6 25  1  0  0  0
  6 89  1  0  0  0
  6 90  1  0  0  0
  7  8  2  0  0  0
  7 26  1  0  0  0
  7 29  1  0  0  0
  8  9  1  0  0  0
  8 22  1  0  0  0
  9 10  1  0  0  0
  9 27  2  0  0  0
 10 11  2  0  0  0
 10 15  1  0  0  0
 11 12  1  0  0  0
 11 91  1  0  0  0
 12 13  2  0  0  0
 12 92  1  0  0  0
 13 14  1  0  0  0
 13 31  1  0  0  0
 14 15  2  0  0  0
 14 93  1  0  0  0
 15 94  1  0  0  0
 16 17  2  0  0  0
 16 21  1  0  0  0
 16 31  1  0  0  0
 17 18  1  0  0  0
 17 95  1  0  0  0
 18 19  2  0  0  0
 18 96  1  0  0  0
 19 20  1  0  0  0
 19 24  1  0  0  0
 20 21  2  0  0  0
 20 97  1  0  0  0
 21 23  1  0  0  0
 22 28  1  0  0  0
 22 32  2  0  0  0
 26 27  1  0  0  0
 28 98  1  0  0  0
 28 99  1  0  0  0
 29100  1  0  0  0
 29101  1  0  0  0
 33 34  1  0  0  0
 33 66  1  0  0  0
 33 70  2  0  0  0
 34 36  1  0  0  0
 34 59  1  0  0  0
 34102  1  0  0  0
 35 44  2  0  0  0
 35 45  1  0  0  0
 35 68  1  0  0  0
 36 56  1  0  0  0
 36103  1  0  0  0
 37 39  1  0  0  0
 37 47  1  0  0  0
 37 66  1  0  0  0
 37104  1  0  0  0
 38 43  2  0  0  0
 38 46  1  0  0  0
 38 47  1  0  0  0
 39 64  1  0  0  0
 39 67  2  0  0  0
 40 52  1  0  0  0
 40 53  2  0  0  0
 40 58  1  0  0  0
 41105  1  0  0  0
 41106  1  0  0  0
 41107  1  0  0  0
 41 48  1  0  0  0
 42 43  1  0  0  0
 42 66  1  0  0  0
 42108  1  0  0  0
 42109  1  0  0  0
 43 44  1  0  0  0
 44110  1  0  0  0
 45 46  2  0  0  0
 45111  1  0  0  0
 46112  1  0  0  0
 47113  1  0  0  0
 47114  1  0  0  0
 48 56  1  0  0  0
 48 65  1  0  0  0
 48115  1  0  0  0
 49 50  1  0  0  0
 49 53  1  0  0  0
 49 64  1  0  0  0
 49116  1  0  0  0
 50 51  1  0  0  0
 50117  1  0  0  0
 50118  1  0  0  0
 51 52  1  0  0  0
 51119  1  0  0  0
 51120  1  0  0  0
 52121  1  0  0  0
 52122  1  0  0  0
 53 54  1  0  0  0
 54 55  2  0  0  0
 54123  1  0  0  0
 55 57  1  0  0  0
 55124  1  0  0  0
 56 69  2  0  0  0
 57 58  2  0  0  0
 57125  1  0  0  0
 58126  1  0  0  0
 59 60  1  0  0  0
 59 61  1  0  0  0
 59 62  1  0  0  0
 60127  1  0  0  0
 60128  1  0  0  0
 60129  1  0  0  0
 61130  1  0  0  0
 61131  1  0  0  0
 61132  1  0  0  0
 62133  1  0  0  0
 62134  1  0  0  0
 62135  1  0  0  0
 63 65  1  0  0  0
 63136  1  0  0  0
 63137  1  0  0  0
 63138  1  0  0  0
 64139  1  0  0  0
 65140  1  0  0  0
 68 78  1  0  0  0
 71 73  2  0  0  0
 71 75  1  0  0  0
 71141  1  0  0  0
 72 74  2  0  0  0
 72 79  1  0  0  0
 72142  1  0  0  0
 73 74  1  0  0  0
 73 78  1  0  0  0
 74 76  1  0  0  0
 75 79  2  0  0  0
 75 80  1  0  0  0
 76 81  1  0  0  0
 76143  1  0  0  0
 76144  1  0  0  0
 77 78  1  0  0  0
 77 81  1  0  0  0
 77145  1  0  0  0
 77146  1  0  0  0
 78147  1  0  0  0
 80148  1  0  0  0
 81149  1  0  0  0
 81150  1  0  0  0
M  CHG  1  81   1
M  ISO  4   1 100  68 101  78 101  80 100
M  END
> <chiral flag>
0

> <version>
0

> <s_m_source_file>
/data/baiqing/PycharmProjects/Reinvent-master-3.2/result/LINK_invent/BTK/process_docking_weight1_custom_sum_contain_oxygen_bond_distance_aromatic_linkinvent_7_9_3/rearranged_h_0138.sdf

> <i_m_source_file_index>
83

> <r_mmod_Potential_Energy-OPLS-2005>
2611.33203125

> <r_mmod_Stretch_Energy-OPLS-2005>
1259.66064453125

> <r_mmod_Bend_Energy-OPLS-2005>
717.646850585938

> <r_mmod_Torsional_Energy-OPLS-2005>
253.829330444336

> <r_mmod_Improper_Torsional_Energy-OPLS-2005>
9.77292537689209

> <r_mmod_Van_der_Waal_Energy-OPLS-2005>
140.532608032227

> <r_mmod_Electrostatic_Energy-OPLS-2005>
-395.106231689453

> <r_mmod_Solvation_Energy-OPLS-2005>
-500.666564941406

> <b_mmod_Minimization_Converged-OPLS-2005>
0

> <r_mmod_RMS_Derivative-OPLS-2005>
0.589961409568787

$$$$
83
                    3D
 Structure written by MMmdl.
175183  0  0  1  0            999 V2000
  -30.7521  -14.3893   20.6768 C   0  0  0  0  0  0
  -30.4182  -12.2988   19.4003 C   0  0  0  0  0  0
  -29.4818  -12.5183   18.1957 C   0  0  0  0  0  0
  -28.0064  -12.3739   18.6101 C   0  0  0  0  0  0
  -27.6635  -13.1980   19.8785 C   0  0  2  0  0  0
  -28.7017  -12.9463   20.9951 C   0  0  0  0  0  0
  -25.2537  -13.8065   20.5528 C   0  0  0  0  0  0
  -24.1837  -13.0389   20.9215 C   0  0  0  0  0  0
  -24.6391  -11.6865   20.8795 C   0  0  0  0  0  0
  -23.9057  -10.4265   21.0440 C   0  0  0  0  0  0
  -24.3613   -9.4173   21.9204 C   0  0  0  0  0  0
  -23.6283   -8.2216   22.0765 C   0  0  0  0  0  0
  -22.4272   -8.0267   21.3548 C   0  0  0  0  0  0
  -21.9912   -9.0241   20.4648 C   0  0  0  0  0  0
  -22.7237  -10.2118   20.3067 C   0  0  0  0  0  0
  -21.6849   -6.0732   22.5278 C   0  0  0  0  0  0
  -21.4003   -6.5633   23.8208 C   0  0  0  0  0  0
  -21.3653   -5.6793   24.9171 C   0  0  0  0  0  0
  -21.6041   -4.3056   24.7225 C   0  0  0  0  0  0
  -21.8822   -3.8151   23.4344 C   0  0  0  0  0  0
  -21.9188   -4.6964   22.3399 C   0  0  0  0  0  0
  -22.7865  -13.5214   21.1873 C   0  0  0  0  0  0
  -22.1665   -4.2154   21.0978 F   0  0  0  0  0  0
  -21.5632   -3.4542   25.7735 F   0  0  0  0  0  0
  -30.0433  -13.2497   20.4599 N   0  0  0  0  0  0
  -26.3017  -12.9262   20.3352 N   0  0  0  0  0  0
  -25.9318  -11.6442   20.5823 N   0  0  0  0  0  0
  -22.0495  -12.8209   22.0415 N   0  0  0  0  0  0
  -25.4103  -15.1710   20.3482 N   0  0  0  0  0  0
  -31.7870  -14.6534   20.0557 O   0  0  0  0  0  0
  -21.6631   -6.8872   21.4238 O   0  0  0  0  0  0
  -22.3582  -14.5537   20.6723 O   0  0  0  0  0  0
  -24.6088  -31.8700   23.2118 C   0  0  0  0  0  0
  -25.9000  -32.4832   23.8395 C   0  0  1  0  0  0
  -27.2413  -27.4770   20.0941 C   0  0  0  0  0  0
  -25.5883  -33.8630   24.2333 N   0  0  0  0  0  0
  -23.3945  -30.4920   21.5505 C   0  0  2  0  0  0
  -24.8422  -28.9560   20.1211 C   0  0  0  0  0  0
  -22.7379  -29.4657   22.5009 C   0  0  0  0  0  0
  -18.0271  -28.1375   22.8471 C   0  0  0  0  0  0
  -24.1496  -36.7310   23.2638 C   0  0  0  0  0  0
  -25.9165  -30.8481   21.3582 C   0  0  0  0  0  0
  -25.9961  -29.4832   20.7118 C   0  0  0  0  0  0
  -27.1989  -28.7517   20.6903 C   0  0  0  0  0  0
  -26.0721  -26.9457   19.5049 C   0  0  0  0  0  0
  -24.8724  -27.6851   19.5167 C   0  0  0  0  0  0
  -23.6021  -29.8188   20.1667 C   0  0  0  0  0  0
  -25.4116  -36.3116   24.0342 C   0  0  1  0  0  0
  -20.5857  -28.3640   23.1336 C   0  0  2  0  0  0
  -20.6774  -26.9391   22.5410 C   0  0  0  0  0  0
  -19.5759  -26.6374   21.5210 C   0  0  0  0  0  0
  -18.1923  -26.7921   22.1611 C   0  0  0  0  0  0
  -19.1521  -28.8824   23.2904 C   0  0  0  0  0  0
  -18.9456  -30.1432   23.8915 C   0  0  0  0  0  0
  -17.6462  -30.6584   24.0561 C   0  0  0  0  0  0
  -25.9027  -34.9479   23.5136 C   0  0  0  0  0  0
  -16.5349  -29.9089   23.6320 C   0  0  0  0  0  0
  -16.7262  -28.6512   23.0325 C   0  0  0  0  0  0
  -26.4454  -31.6592   25.0695 C   0  0  0  0  0  0
  -25.3725  -31.3688   26.1452 C   0  0  0  0  0  0
  -27.0288  -30.3057   24.5992 C   0  0  0  0  0  0
  -27.6022  -32.4302   25.7476 C   0  0  0  0  0  0
  -27.5597  -37.1814   24.8471 C   0  0  0  0  0  0
  -21.4118  -29.3030   22.3757 N   0  0  0  0  0  0
  -26.4313  -37.3783   23.9404 N   0  0  0  0  0  0
  -24.6577  -31.0835   22.1000 N   0  0  0  0  0  0
  -23.4180  -28.8192   23.3029 O   0  0  0  0  0  0
  -28.4463  -26.8218   20.0544 O   0  0  0  0  0  0
  -26.5575  -34.8920   22.4690 O   0  0  0  0  0  0
  -23.5288  -32.1437   23.7544 O   0  0  0  0  0  0
  -32.0313  -16.8832   21.9947 C   0  0  0  0  0  0
  -32.4333  -18.1691   22.4040 C   0  0  0  0  0  0
  -30.1426  -18.6963   22.9886 C   0  0  0  0  0  0
  -29.7208  -17.4214   22.5533 C   0  0  0  0  0  0
  -30.6675  -16.4998   22.0331 C   0  0  0  0  0  0
  -31.4927  -19.0988   22.8827 C   0  0  0  0  0  0
  -28.9119  -24.6539   19.2070 C   0  0  0  0  0  0
  -26.7372  -19.1834   19.7661 C   0  0  0  0  0  0
  -28.2322  -17.1021   22.6531 C   0  0  0  0  0  0
  -31.6671  -22.7594   23.2420 C   0  0  0  0  0  0
  -27.4403  -17.4328   21.3728 C   0  0  0  0  0  0
  -30.7089  -23.9692   23.2428 C   0  0  0  0  0  0
  -29.4887  -25.4086   21.6158 C   0  0  0  0  0  0
  -30.9726  -21.3954   23.3608 C   0  0  0  0  0  0
  -28.4835  -25.4554   20.4444 C   0  0  1  0  0  0
  -30.2274  -15.2100   21.6079 N   0  0  0  0  0  0
  -27.5897  -18.8333   20.9198 N   0  3  0  0  0  0
  -29.8747  -24.0354   22.0184 N   0  3  0  0  0  0
  -31.9436  -20.3591   23.2151 O   0  0  0  0  0  0
  -31.4597  -12.4059   19.0907 H   0  0  0  0  0  0
  -30.3267  -11.2775   19.7742 H   0  0  0  0  0  0
  -29.7161  -11.8057   17.4031 H   0  0  0  0  0  0
  -29.6464  -13.5113   17.7735 H   0  0  0  0  0  0
  -27.8110  -11.3158   18.7885 H   0  0  0  0  0  0
  -27.3549  -12.6656   17.7856 H   0  0  0  0  0  0
  -27.7206  -14.2516   19.6056 H   0  0  0  0  0  0
  -28.6733  -11.9009   21.3086 H   0  0  0  0  0  0
  -28.4422  -13.5151   21.8872 H   0  0  0  0  0  0
  -25.2758   -9.5651   22.4779 H   0  0  0  0  0  0
  -23.9990   -7.4603   22.7477 H   0  0  0  0  0  0
  -21.0856   -8.8753   19.8941 H   0  0  0  0  0  0
  -22.3705  -10.9665   19.6184 H   0  0  0  0  0  0
  -21.1990   -7.6140   23.9711 H   0  0  0  0  0  0
  -21.1475   -6.0525   25.9076 H   0  0  0  0  0  0
  -22.0607   -2.7615   23.2842 H   0  0  0  0  0  0
  -22.4088  -11.9837   22.4757 H   0  0  0  0  0  0
  -21.1117  -13.1243   22.2633 H   0  0  0  0  0  0
  -24.5511  -15.7072   20.2895 H   0  0  0  0  0  0
  -26.0763  -15.4497   19.6403 H   0  0  0  0  0  0
  -26.7064  -32.5554   23.1159 H   0  0  0  0  0  0
  -25.0098  -33.9800   25.0530 H   0  0  0  0  0  0
  -22.6809  -31.3062   21.4081 H   0  0  0  0  0  0
  -23.3766  -35.9636   23.3299 H   0  0  0  0  0  0
  -24.3597  -36.8915   22.2055 H   0  0  0  0  0  0
  -23.7236  -37.6513   23.6638 H   0  0  0  0  0  0
  -26.0172  -31.6137   20.5879 H   0  0  0  0  0  0
  -26.8105  -30.9068   21.9676 H   0  0  0  0  0  0
  -28.0968  -29.1626   21.1298 H   0  0  0  0  0  0
  -26.0870  -25.9801   19.0194 H   0  0  0  0  0  0
  -23.9843  -27.2752   19.0565 H   0  0  0  0  0  0
  -23.7080  -30.5899   19.4033 H   0  0  0  0  0  0
  -22.7286  -29.2348   19.8716 H   0  0  0  0  0  0
  -25.1297  -36.1995   25.0842 H   0  0  0  0  0  0
  -20.9926  -28.3194   24.1465 H   0  0  0  0  0  0
  -20.5713  -26.2239   23.3587 H   0  0  0  0  0  0
  -21.6642  -26.7458   22.1170 H   0  0  0  0  0  0
  -19.6932  -25.6290   21.1229 H   0  0  0  0  0  0
  -19.6719  -27.3194   20.6754 H   0  0  0  0  0  0
  -17.4202  -26.6660   21.4009 H   0  0  0  0  0  0
  -18.0320  -26.0060   22.9008 H   0  0  0  0  0  0
  -19.7937  -30.7239   24.2278 H   0  0  0  0  0  0
  -17.5027  -31.6270   24.5146 H   0  0  0  0  0  0
  -15.5353  -30.3014   23.7651 H   0  0  0  0  0  0
  -15.8652  -28.0866   22.7020 H   0  0  0  0  0  0
  -24.5891  -30.7048   25.7787 H   0  0  0  0  0  0
  -24.8928  -32.2847   26.4907 H   0  0  0  0  0  0
  -25.8078  -30.8845   27.0201 H   0  0  0  0  0  0
  -26.2809  -29.6842   24.1045 H   0  0  0  0  0  0
  -27.4135  -29.7255   25.4388 H   0  0  0  0  0  0
  -27.8603  -30.4447   23.9076 H   0  0  0  0  0  0
  -27.2624  -33.3586   26.2076 H   0  0  0  0  0  0
  -28.3831  -32.6882   25.0312 H   0  0  0  0  0  0
  -28.0679  -31.8406   26.5383 H   0  0  0  0  0  0
  -28.2588  -38.0138   24.7521 H   0  0  0  0  0  0
  -28.1121  -36.2658   24.6299 H   0  0  0  0  0  0
  -27.2294  -37.1446   25.8869 H   0  0  0  0  0  0
  -20.9264  -29.8783   21.7018 H   0  0  0  0  0  0
  -26.0223  -38.2864   24.1408 H   0  0  0  0  0  0
  -32.7946  -16.2043   21.6454 H   0  0  0  0  0  0
  -33.4762  -18.4441   22.3351 H   0  0  0  0  0  0
  -29.4024  -19.3671   23.3987 H   0  0  0  0  0  0
  -28.9495  -23.5842   19.4083 H   0  0  0  0  0  0
  -29.8940  -24.9702   18.8565 H   0  0  0  0  0  0
  -28.2061  -24.8018   18.3895 H   0  0  0  0  0  0
  -26.9515  -20.1978   19.4290 H   0  0  0  0  0  0
  -25.6805  -19.1356   20.0307 H   0  0  0  0  0  0
  -26.9113  -18.5087   18.9275 H   0  0  0  0  0  0
  -27.8023  -17.6490   23.4939 H   0  0  0  0  0  0
  -28.0908  -16.0507   22.9050 H   0  0  0  0  0  0
  -32.3638  -22.8658   24.0740 H   0  0  0  0  0  0
  -32.2791  -22.7842   22.3394 H   0  0  0  0  0  0
  -26.3846  -17.2467   21.5691 H   0  0  0  0  0  0
  -27.7470  -16.7650   20.5668 H   0  0  0  0  0  0
  -31.3155  -24.8728   23.3146 H   0  0  0  0  0  0
  -30.0694  -23.9649   24.1269 H   0  0  0  0  0  0
  -29.0561  -25.9290   22.4725 H   0  0  0  0  0  0
  -30.3938  -25.9541   21.3417 H   0  0  0  0  0  0
  -30.2188  -21.3207   22.5754 H   0  0  0  0  0  0
  -30.4689  -21.3024   24.3245 H   0  0  0  0  0  0
  -27.5128  -25.0964   20.7929 H   0  0  0  0  0  0
  -29.3563  -14.8835   21.9952 H   0  0  0  0  0  0
  -27.3605  -19.4578   21.6760 H   0  0  0  0  0  0
  -28.5505  -18.9890   20.6586 H   0  0  0  0  0  0
  -29.0436  -23.4827   22.1593 H   0  0  0  0  0  0
  -30.3983  -23.6275   21.2591 H   0  0  0  0  0  0
  1 25  1  0  0  0
  1 30  2  0  0  0
  1 86  1  0  0  0
  2  3  1  0  0  0
  2 25  1  0  0  0
  2 90  1  0  0  0
  2 91  1  0  0  0
  3  4  1  0  0  0
  3 92  1  0  0  0
  3 93  1  0  0  0
  4  5  1  0  0  0
  4 94  1  0  0  0
  4 95  1  0  0  0
  5  6  1  0  0  0
  5 26  1  0  0  0
  5 96  1  0  0  0
  6 25  1  0  0  0
  6 97  1  0  0  0
  6 98  1  0  0  0
  7  8  2  0  0  0
  7 26  1  0  0  0
  7 29  1  0  0  0
  8  9  1  0  0  0
  8 22  1  0  0  0
  9 10  1  0  0  0
  9 27  2  0  0  0
 10 11  2  0  0  0
 10 15  1  0  0  0
 11 12  1  0  0  0
 11 99  1  0  0  0
 12 13  2  0  0  0
 12100  1  0  0  0
 13 14  1  0  0  0
 13 31  1  0  0  0
 14 15  2  0  0  0
 14101  1  0  0  0
 15102  1  0  0  0
 16 17  2  0  0  0
 16 21  1  0  0  0
 16 31  1  0  0  0
 17 18  1  0  0  0
 17103  1  0  0  0
 18 19  2  0  0  0
 18104  1  0  0  0
 19 20  1  0  0  0
 19 24  1  0  0  0
 20 21  2  0  0  0
 20105  1  0  0  0
 21 23  1  0  0  0
 22 28  1  0  0  0
 22 32  2  0  0  0
 26 27  1  0  0  0
 28106  1  0  0  0
 28107  1  0  0  0
 29108  1  0  0  0
 29109  1  0  0  0
 33 34  1  0  0  0
 33 66  1  0  0  0
 33 70  2  0  0  0
 34 36  1  0  0  0
 34 59  1  0  0  0
 34110  1  0  0  0
 35 44  2  0  0  0
 35 45  1  0  0  0
 35 68  1  0  0  0
 36 56  1  0  0  0
 36111  1  0  0  0
 37 39  1  0  0  0
 37 47  1  0  0  0
 37 66  1  0  0  0
 37112  1  0  0  0
 38 43  2  0  0  0
 38 46  1  0  0  0
 38 47  1  0  0  0
 39 64  1  0  0  0
 39 67  2  0  0  0
 40 52  1  0  0  0
 40 53  2  0  0  0
 40 58  1  0  0  0
 41113  1  0  0  0
 41114  1  0  0  0
 41115  1  0  0  0
 41 48  1  0  0  0
 42 43  1  0  0  0
 42 66  1  0  0  0
 42116  1  0  0  0
 42117  1  0  0  0
 43 44  1  0  0  0
 44118  1  0  0  0
 45 46  2  0  0  0
 45119  1  0  0  0
 46120  1  0  0  0
 47121  1  0  0  0
 47122  1  0  0  0
 48 56  1  0  0  0
 48 65  1  0  0  0
 48123  1  0  0  0
 49 50  1  0  0  0
 49 53  1  0  0  0
 49 64  1  0  0  0
 49124  1  0  0  0
 50 51  1  0  0  0
 50125  1  0  0  0
 50126  1  0  0  0
 51 52  1  0  0  0
 51127  1  0  0  0
 51128  1  0  0  0
 52129  1  0  0  0
 52130  1  0  0  0
 53 54  1  0  0  0
 54 55  2  0  0  0
 54131  1  0  0  0
 55 57  1  0  0  0
 55132  1  0  0  0
 56 69  2  0  0  0
 57 58  2  0  0  0
 57133  1  0  0  0
 58134  1  0  0  0
 59 60  1  0  0  0
 59 61  1  0  0  0
 59 62  1  0  0  0
 60135  1  0  0  0
 60136  1  0  0  0
 60137  1  0  0  0
 61138  1  0  0  0
 61139  1  0  0  0
 61140  1  0  0  0
 62141  1  0  0  0
 62142  1  0  0  0
 62143  1  0  0  0
 63 65  1  0  0  0
 63144  1  0  0  0
 63145  1  0  0  0
 63146  1  0  0  0
 64147  1  0  0  0
 65148  1  0  0  0
 68 85  1  0  0  0
 71 72  2  0  0  0
 71 75  1  0  0  0
 71149  1  0  0  0
 72 76  1  0  0  0
 72150  1  0  0  0
 73 74  1  0  0  0
 73 76  2  0  0  0
 73151  1  0  0  0
 74 75  2  0  0  0
 74 79  1  0  0  0
 75 86  1  0  0  0
 76 89  1  0  0  0
 77152  1  0  0  0
 77153  1  0  0  0
 77154  1  0  0  0
 77 85  1  0  0  0
 78 87  1  0  0  0
 78155  1  0  0  0
 78156  1  0  0  0
 78157  1  0  0  0
 79 81  1  0  0  0
 79158  1  0  0  0
 79159  1  0  0  0
 80 82  1  0  0  0
 80 84  1  0  0  0
 80160  1  0  0  0
 80161  1  0  0  0
 81 87  1  0  0  0
 81162  1  0  0  0
 81163  1  0  0  0
 82 88  1  0  0  0
 82164  1  0  0  0
 82165  1  0  0  0
 83 85  1  0  0  0
 83 88  1  0  0  0
 83166  1  0  0  0
 83167  1  0  0  0
 84 89  1  0  0  0
 84168  1  0  0  0
 84169  1  0  0  0
 85170  1  0  0  0
 86171  1  0  0  0
 87172  1  0  0  0
 87173  1  0  0  0
 88174  1  0  0  0
 88175  1  0  0  0
M  CHG  2  87   1  88   1
M  ISO  4   1 100  68 101  85 101  86 100
M  END
> <chiral flag>
0

> <version>
0

> <s_m_source_file>
/data/baiqing/PycharmProjects/Reinvent-master-3.2/result/LINK_invent/BTK/process_docking_weight1_custom_sum_contain_oxygen_bond_distance_aromatic_linkinvent_7_9_3/rearranged_h_0138.sdf

> <i_m_source_file_index>
84

> <r_mmod_Potential_Energy-OPLS-2005>
-384.376922607422

> <r_mmod_Stretch_Energy-OPLS-2005>
34.3246002197266

> <r_mmod_Bend_Energy-OPLS-2005>
100.389236450195

> <r_mmod_Torsional_Energy-OPLS-2005>
260.028564453125

> <r_mmod_Improper_Torsional_Energy-OPLS-2005>
6.25592851638794

> <r_mmod_Van_der_Waal_Energy-OPLS-2005>
155.061248779297

> <r_mmod_Electrostatic_Energy-OPLS-2005>
-1.87382018566132

> <r_mmod_Solvation_Energy-OPLS-2005>
-946.392272949219

> <b_mmod_Minimization_Converged-OPLS-2005>
0

> <r_mmod_RMS_Derivative-OPLS-2005>
2.11046648025513

$$$$
84
                    3D
 Structure written by MMmdl.
169177  0  0  1  0            999 V2000
  -30.6129  -14.7479   20.4642 C   0  0  0  0  0  0
  -30.4298  -12.4623   19.4638 C   0  0  0  0  0  0
  -29.5067  -12.5087   18.2275 C   0  0  0  0  0  0
  -28.0321  -12.3334   18.6419 C   0  0  0  0  0  0
  -27.6377  -13.2338   19.8445 C   0  0  2  0  0  0
  -28.6842  -13.1717   20.9773 C   0  0  0  0  0  0
  -25.2500  -13.8201   20.5696 C   0  0  0  0  0  0
  -24.1799  -13.0439   20.9213 C   0  0  0  0  0  0
  -24.6396  -11.6918   20.8754 C   0  0  0  0  0  0
  -23.9077  -10.4293   21.0405 C   0  0  0  0  0  0
  -24.3630   -9.4203   21.9172 C   0  0  0  0  0  0
  -23.6303   -8.2240   22.0742 C   0  0  0  0  0  0
  -22.4283   -8.0280   21.3535 C   0  0  0  0  0  0
  -21.9922   -9.0254   20.4634 C   0  0  0  0  0  0
  -22.7255  -10.2131   20.3043 C   0  0  0  0  0  0
  -21.6852   -6.0735   22.5275 C   0  0  0  0  0  0
  -21.4016   -6.5635   23.8210 C   0  0  0  0  0  0
  -21.3663   -5.6787   24.9171 C   0  0  0  0  0  0
  -21.6044   -4.3049   24.7216 C   0  0  0  0  0  0
  -21.8822   -3.8144   23.4338 C   0  0  0  0  0  0
  -21.9194   -4.6964   22.3398 C   0  0  0  0  0  0
  -22.7819  -13.5213   21.1869 C   0  0  0  0  0  0
  -22.1660   -4.2152   21.0974 F   0  0  0  0  0  0
  -21.5630   -3.4532   25.7728 F   0  0  0  0  0  0
  -29.9785  -13.5285   20.3862 N   0  0  0  0  0  0
  -26.2919  -12.9410   20.3263 N   0  0  0  0  0  0
  -25.9320  -11.6550   20.5741 N   0  0  0  0  0  0
  -22.0473  -12.8200   22.0428 N   0  0  0  0  0  0
  -25.4181  -15.1929   20.4111 N   0  0  0  0  0  0
  -31.8111  -14.8287   20.1828 O   0  0  0  0  0  0
  -21.6641   -6.8882   21.4237 O   0  0  0  0  0  0
  -22.3499  -14.5514   20.6712 O   0  0  0  0  0  0
  -24.6311  -31.8527   23.1941 C   0  0  0  0  0  0
  -25.9129  -32.4744   23.8309 C   0  0  1  0  0  0
  -27.2243  -27.2615   20.1411 C   0  0  0  0  0  0
  -25.5910  -33.8545   24.2235 N   0  0  0  0  0  0
  -23.4282  -30.4728   21.5380 C   0  0  2  0  0  0
  -24.8751  -28.9085   20.1173 C   0  0  0  0  0  0
  -22.7497  -29.4596   22.4918 C   0  0  0  0  0  0
  -18.0290  -28.1399   22.8489 C   0  0  0  0  0  0
  -24.1487  -36.7285   23.2644 C   0  0  0  0  0  0
  -25.9712  -30.7691   21.3688 C   0  0  0  0  0  0
  -26.0461  -29.3874   20.7183 C   0  0  0  0  0  0
  -27.2274  -28.5799   20.7088 C   0  0  0  0  0  0
  -26.0298  -26.8343   19.5286 C   0  0  0  0  0  0
  -24.8707  -27.6400   19.5112 C   0  0  0  0  0  0
  -23.6467  -29.7986   20.1575 C   0  0  0  0  0  0
  -25.4114  -36.3066   24.0328 C   0  0  1  0  0  0
  -20.5893  -28.3700   23.1276 C   0  0  2  0  0  0
  -20.6784  -26.9420   22.5412 C   0  0  0  0  0  0
  -19.5759  -26.6392   21.5215 C   0  0  0  0  0  0
  -18.1937  -26.7943   22.1623 C   0  0  0  0  0  0
  -19.1541  -28.8870   23.2875 C   0  0  0  0  0  0
  -18.9468  -30.1477   23.8891 C   0  0  0  0  0  0
  -17.6464  -30.6597   24.0571 C   0  0  0  0  0  0
  -25.9052  -34.9436   23.5089 C   0  0  0  0  0  0
  -16.5357  -29.9101   23.6335 C   0  0  0  0  0  0
  -16.7273  -28.6519   23.0346 C   0  0  0  0  0  0
  -26.4494  -31.6568   25.0699 C   0  0  0  0  0  0
  -25.3713  -31.3719   26.1415 C   0  0  0  0  0  0
  -27.0347  -30.2992   24.6176 C   0  0  0  0  0  0
  -27.6047  -32.4305   25.7475 C   0  0  0  0  0  0
  -27.5577  -37.1799   24.8465 C   0  0  0  0  0  0
  -21.4206  -29.3041   22.3659 N   0  0  0  0  0  0
  -26.4289  -37.3766   23.9406 N   0  0  0  0  0  0
  -24.6963  -31.0509   22.0906 N   0  0  0  0  0  0
  -23.4197  -28.8156   23.3027 O   0  0  0  0  0  0
  -28.3494  -26.4126   20.1114 O   0  0  0  0  0  0
  -26.5641  -34.8921   22.4671 O   0  0  0  0  0  0
  -23.5465  -32.1335   23.7253 O   0  0  0  0  0  0
  -27.3588  -20.1632   22.5044 C   0  0  0  0  0  0
  -27.6708  -21.3664   21.8316 C   0  0  0  0  0  0
  -28.1292  -19.1798   21.9671 C   0  0  0  0  0  0
  -28.6253  -21.1286   20.8803 C   0  0  0  0  0  0
  -32.0420  -22.6888   23.5452 C   0  0  0  0  0  0
  -29.1337  -22.3031   19.9672 C   0  0  0  0  0  0
  -28.2869  -23.6848   19.7130 C   0  0  0  0  0  0
  -31.1825  -19.4553   19.8000 C   0  0  0  0  0  0
  -30.3552  -17.3153   20.9937 C   0  0  0  0  0  0
  -32.4781  -21.3618   22.9067 C   0  0  0  0  0  0
  -32.1573  -19.8837   20.9319 C   0  0  0  0  0  0
  -28.3096  -25.0065   20.6480 C   0  0  0  0  0  0
  -29.8911  -18.7169   20.2479 C   0  0  1  0  0  0
  -28.9704  -19.6999   20.9896 N   0  0  0  0  0  0
  -29.8594  -15.8979   20.6760 N   0  0  0  0  0  0
  -31.6956  -21.0631   21.6903 N   0  3  0  0  0  0
  -31.4705  -12.5885   19.1602 H   0  0  0  0  0  0
  -30.3759  -11.4878   19.9514 H   0  0  0  0  0  0
  -29.7899  -11.7330   17.5143 H   0  0  0  0  0  0
  -29.6331  -13.4616   17.7104 H   0  0  0  0  0  0
  -27.8873  -11.2841   18.9023 H   0  0  0  0  0  0
  -27.3760  -12.5278   17.7919 H   0  0  0  0  0  0
  -27.6289  -14.2555   19.4637 H   0  0  0  0  0  0
  -28.7260  -12.1740   21.4164 H   0  0  0  0  0  0
  -28.4210  -13.8538   21.7873 H   0  0  0  0  0  0
  -25.2775   -9.5674   22.4745 H   0  0  0  0  0  0
  -24.0009   -7.4628   22.7455 H   0  0  0  0  0  0
  -21.0851   -8.8774   19.8942 H   0  0  0  0  0  0
  -22.3713  -10.9667   19.6150 H   0  0  0  0  0  0
  -21.2008   -7.6141   23.9717 H   0  0  0  0  0  0
  -21.1482   -6.0511   25.9077 H   0  0  0  0  0  0
  -22.0602   -2.7604   23.2834 H   0  0  0  0  0  0
  -22.4107  -11.9869   22.4824 H   0  0  0  0  0  0
  -21.1073  -13.1190   22.2613 H   0  0  0  0  0  0
  -24.6487  -15.8448   20.5211 H   0  0  0  0  0  0
  -26.2583  -15.6336   20.0607 H   0  0  0  0  0  0
  -26.7196  -32.5398   23.1053 H   0  0  0  0  0  0
  -25.0033  -33.9673   25.0367 H   0  0  0  0  0  0
  -22.7253  -31.2946   21.3884 H   0  0  0  0  0  0
  -23.3748  -35.9617   23.3300 H   0  0  0  0  0  0
  -24.3577  -36.8912   22.2059 H   0  0  0  0  0  0
  -23.7244  -37.6488   23.6669 H   0  0  0  0  0  0
  -26.1054  -31.5264   20.5957 H   0  0  0  0  0  0
  -26.8510  -30.8235   21.9977 H   0  0  0  0  0  0
  -28.1342  -28.9524   21.1647 H   0  0  0  0  0  0
  -25.9930  -25.8609   19.0591 H   0  0  0  0  0  0
  -23.9721  -27.2669   19.0384 H   0  0  0  0  0  0
  -23.7730  -30.5698   19.3959 H   0  0  0  0  0  0
  -22.7645  -29.2311   19.8558 H   0  0  0  0  0  0
  -25.1300  -36.1909   25.0821 H   0  0  0  0  0  0
  -20.9986  -28.3285   24.1396 H   0  0  0  0  0  0
  -20.5693  -26.2311   23.3617 H   0  0  0  0  0  0
  -21.6654  -26.7458   22.1201 H   0  0  0  0  0  0
  -19.6919  -25.6301   21.1249 H   0  0  0  0  0  0
  -19.6704  -27.3208   20.6751 H   0  0  0  0  0  0
  -17.4208  -26.6689   21.4018 H   0  0  0  0  0  0
  -18.0334  -26.0092   22.9026 H   0  0  0  0  0  0
  -19.7942  -30.7298   24.2251 H   0  0  0  0  0  0
  -17.5018  -31.6274   24.5183 H   0  0  0  0  0  0
  -15.5359  -30.3000   23.7665 H   0  0  0  0  0  0
  -15.8672  -28.0844   22.7051 H   0  0  0  0  0  0
  -24.5901  -30.7053   25.7740 H   0  0  0  0  0  0
  -24.8892  -32.2892   26.4807 H   0  0  0  0  0  0
  -25.8028  -30.8919   27.0210 H   0  0  0  0  0  0
  -26.2935  -29.6729   24.1202 H   0  0  0  0  0  0
  -27.4047  -29.7256   25.4685 H   0  0  0  0  0  0
  -27.8795  -30.4280   23.9407 H   0  0  0  0  0  0
  -27.2663  -33.3618   26.2033 H   0  0  0  0  0  0
  -28.3875  -32.6841   25.0311 H   0  0  0  0  0  0
  -28.0698  -31.8436   26.5408 H   0  0  0  0  0  0
  -28.2594  -38.0093   24.7511 H   0  0  0  0  0  0
  -28.1071  -36.2629   24.6291 H   0  0  0  0  0  0
  -27.2298  -37.1451   25.8868 H   0  0  0  0  0  0
  -20.9393  -29.8747   21.6850 H   0  0  0  0  0  0
  -26.0164  -38.2838   24.1401 H   0  0  0  0  0  0
  -26.6277  -20.0264   23.2910 H   0  0  0  0  0  0
  -27.2146  -22.3297   22.0188 H   0  0  0  0  0  0
  -28.1404  -18.1262   22.2117 H   0  0  0  0  0  0
  -32.6075  -22.8788   24.4583 H   0  0  0  0  0  0
  -30.9842  -22.6770   23.8094 H   0  0  0  0  0  0
  -32.2136  -23.5312   22.8735 H   0  0  0  0  0  0
  -29.2811  -21.8720   18.9772 H   0  0  0  0  0  0
  -30.1298  -22.6063   20.2804 H   0  0  0  0  0  0
  -27.2507  -23.4266   19.4950 H   0  0  0  0  0  0
  -28.6663  -24.0505   18.7585 H   0  0  0  0  0  0
  -31.7275  -18.7807   19.1387 H   0  0  0  0  0  0
  -30.9413  -20.3057   19.1656 H   0  0  0  0  0  0
  -30.2754  -17.4454   22.0724 H   0  0  0  0  0  0
  -31.4306  -17.2268   20.8474 H   0  0  0  0  0  0
  -32.3556  -20.5473   23.6221 H   0  0  0  0  0  0
  -33.5397  -21.4087   22.6589 H   0  0  0  0  0  0
  -33.1267  -20.1264   20.4939 H   0  0  0  0  0  0
  -32.3456  -19.0645   21.6253 H   0  0  0  0  0  0
  -29.2099  -24.9292   21.2581 H   0  0  0  0  0  0
  -27.4915  -24.9341   21.3659 H   0  0  0  0  0  0
  -29.3560  -18.4346   19.3406 H   0  0  0  0  0  0
  -28.8678  -15.7463   20.7843 H   0  0  0  0  0  0
  -31.7467  -21.8636   21.0814 H   0  0  0  0  0  0
  -30.7285  -20.9220   21.9509 H   0  0  0  0  0  0
  1 25  1  0  0  0
  1 30  2  0  0  0
  1 85  1  0  0  0
  2  3  1  0  0  0
  2 25  1  0  0  0
  2 87  1  0  0  0
  2 88  1  0  0  0
  3  4  1  0  0  0
  3 89  1  0  0  0
  3 90  1  0  0  0
  4  5  1  0  0  0
  4 91  1  0  0  0
  4 92  1  0  0  0
  5  6  1  0  0  0
  5 26  1  0  0  0
  5 93  1  0  0  0
  6 25  1  0  0  0
  6 94  1  0  0  0
  6 95  1  0  0  0
  7  8  2  0  0  0
  7 26  1  0  0  0
  7 29  1  0  0  0
  8  9  1  0  0  0
  8 22  1  0  0  0
  9 10  1  0  0  0
  9 27  2  0  0  0
 10 11  2  0  0  0
 10 15  1  0  0  0
 11 12  1  0  0  0
 11 96  1  0  0  0
 12 13  2  0  0  0
 12 97  1  0  0  0
 13 14  1  0  0  0
 13 31  1  0  0  0
 14 15  2  0  0  0
 14 98  1  0  0  0
 15 99  1  0  0  0
 16 17  2  0  0  0
 16 21  1  0  0  0
 16 31  1  0  0  0
 17 18  1  0  0  0
 17100  1  0  0  0
 18 19  2  0  0  0
 18101  1  0  0  0
 19 20  1  0  0  0
 19 24  1  0  0  0
 20 21  2  0  0  0
 20102  1  0  0  0
 21 23  1  0  0  0
 22 28  1  0  0  0
 22 32  2  0  0  0
 26 27  1  0  0  0
 28103  1  0  0  0
 28104  1  0  0  0
 29105  1  0  0  0
 29106  1  0  0  0
 33 34  1  0  0  0
 33 66  1  0  0  0
 33 70  2  0  0  0
 34 36  1  0  0  0
 34 59  1  0  0  0
 34107  1  0  0  0
 35 44  2  0  0  0
 35 45  1  0  0  0
 35 68  1  0  0  0
 36 56  1  0  0  0
 36108  1  0  0  0
 37 39  1  0  0  0
 37 47  1  0  0  0
 37 66  1  0  0  0
 37109  1  0  0  0
 38 43  2  0  0  0
 38 46  1  0  0  0
 38 47  1  0  0  0
 39 64  1  0  0  0
 39 67  2  0  0  0
 40 52  1  0  0  0
 40 53  2  0  0  0
 40 58  1  0  0  0
 41110  1  0  0  0
 41111  1  0  0  0
 41112  1  0  0  0
 41 48  1  0  0  0
 42 43  1  0  0  0
 42 66  1  0  0  0
 42113  1  0  0  0
 42114  1  0  0  0
 43 44  1  0  0  0
 44115  1  0  0  0
 45 46  2  0  0  0
 45116  1  0  0  0
 46117  1  0  0  0
 47118  1  0  0  0
 47119  1  0  0  0
 48 56  1  0  0  0
 48 65  1  0  0  0
 48120  1  0  0  0
 49 50  1  0  0  0
 49 53  1  0  0  0
 49 64  1  0  0  0
 49121  1  0  0  0
 50 51  1  0  0  0
 50122  1  0  0  0
 50123  1  0  0  0
 51 52  1  0  0  0
 51124  1  0  0  0
 51125  1  0  0  0
 52126  1  0  0  0
 52127  1  0  0  0
 53 54  1  0  0  0
 54 55  2  0  0  0
 54128  1  0  0  0
 55 57  1  0  0  0
 55129  1  0  0  0
 56 69  2  0  0  0
 57 58  2  0  0  0
 57130  1  0  0  0
 58131  1  0  0  0
 59 60  1  0  0  0
 59 61  1  0  0  0
 59 62  1  0  0  0
 60132  1  0  0  0
 60133  1  0  0  0
 60134  1  0  0  0
 61135  1  0  0  0
 61136  1  0  0  0
 61137  1  0  0  0
 62138  1  0  0  0
 62139  1  0  0  0
 62140  1  0  0  0
 63 65  1  0  0  0
 63141  1  0  0  0
 63142  1  0  0  0
 63143  1  0  0  0
 64144  1  0  0  0
 65145  1  0  0  0
 68 82  1  0  0  0
 71 72  1  0  0  0
 71 73  2  0  0  0
 71146  1  0  0  0
 72 74  2  0  0  0
 72147  1  0  0  0
 73 84  1  0  0  0
 73148  1  0  0  0
 74 76  1  0  0  0
 74 84  1  0  0  0
 75 80  1  0  0  0
 75149  1  0  0  0
 75150  1  0  0  0
 75151  1  0  0  0
 76 77  1  0  0  0
 76152  1  0  0  0
 76153  1  0  0  0
 77 82  1  0  0  0
 77154  1  0  0  0
 77155  1  0  0  0
 78 81  1  0  0  0
 78156  1  0  0  0
 78157  1  0  0  0
 78 83  1  0  0  0
 79 83  1  0  0  0
 79 85  1  0  0  0
 79158  1  0  0  0
 79159  1  0  0  0
 80 86  1  0  0  0
 80160  1  0  0  0
 80161  1  0  0  0
 81 86  1  0  0  0
 81162  1  0  0  0
 81163  1  0  0  0
 82164  1  0  0  0
 82165  1  0  0  0
 83 84  1  0  0  0
 83166  1  0  0  0
 85167  1  0  0  0
 86168  1  0  0  0
 86169  1  0  0  0
M  CHG  1  86   1
M  ISO  4   1 100  68 101  82 101  85 100
M  END
> <chiral flag>
0

> <version>
0

> <s_m_source_file>
/data/baiqing/PycharmProjects/Reinvent-master-3.2/result/LINK_invent/BTK/process_docking_weight1_custom_sum_contain_oxygen_bond_distance_aromatic_linkinvent_7_9_3/rearranged_h_0138.sdf

> <i_m_source_file_index>
85

> <r_mmod_Potential_Energy-OPLS-2005>
82.6889266967773

> <r_mmod_Stretch_Energy-OPLS-2005>
149.03776550293

> <r_mmod_Bend_Energy-OPLS-2005>
236.338775634766

> <r_mmod_Torsional_Energy-OPLS-2005>
280.991546630859

> <r_mmod_Improper_Torsional_Energy-OPLS-2005>
4.61133718490601

> <r_mmod_Van_der_Waal_Energy-OPLS-2005>
109.734298706055

> <r_mmod_Electrostatic_Energy-OPLS-2005>
-327.261138916016

> <r_mmod_Solvation_Energy-OPLS-2005>
-452.994934082031

> <b_mmod_Minimization_Converged-OPLS-2005>
0

> <r_mmod_RMS_Derivative-OPLS-2005>
1.31910753250122

$$$$
85
                    3D
 Structure written by MMmdl.
153161  0  0  1  0            999 V2000
  -30.4777  -15.0955   20.3977 C   0  0  0  0  0  0
  -30.4413  -12.6905   19.5108 C   0  0  0  0  0  0
  -29.5302  -12.5603   18.2671 C   0  0  0  0  0  0
  -28.0693  -12.3127   18.6878 C   0  0  0  0  0  0
  -27.6194  -13.2611   19.8289 C   0  0  2  0  0  0
  -28.6579  -13.3515   20.9661 C   0  0  0  0  0  0
  -25.2415  -13.8231   20.5730 C   0  0  0  0  0  0
  -24.1753  -13.0434   20.9250 C   0  0  0  0  0  0
  -24.6385  -11.6924   20.8751 C   0  0  0  0  0  0
  -23.9077  -10.4289   21.0404 C   0  0  0  0  0  0
  -24.3623   -9.4206   21.9182 C   0  0  0  0  0  0
  -23.6297   -8.2241   22.0749 C   0  0  0  0  0  0
  -22.4280   -8.0283   21.3537 C   0  0  0  0  0  0
  -21.9918   -9.0258   20.4646 C   0  0  0  0  0  0
  -22.7244  -10.2136   20.3055 C   0  0  0  0  0  0
  -21.6854   -6.0735   22.5273 C   0  0  0  0  0  0
  -21.4020   -6.5636   23.8209 C   0  0  0  0  0  0
  -21.3662   -5.6783   24.9173 C   0  0  0  0  0  0
  -21.6047   -4.3049   24.7217 C   0  0  0  0  0  0
  -21.8818   -3.8139   23.4338 C   0  0  0  0  0  0
  -21.9189   -4.6963   22.3394 C   0  0  0  0  0  0
  -22.7770  -13.5201   21.1899 C   0  0  0  0  0  0
  -22.1659   -4.2142   21.0977 F   0  0  0  0  0  0
  -21.5625   -3.4535   25.7733 F   0  0  0  0  0  0
  -29.9121  -13.8094   20.3527 N   0  0  0  0  0  0
  -26.2833  -12.9475   20.3206 N   0  0  0  0  0  0
  -25.9323  -11.6596   20.5712 N   0  0  0  0  0  0
  -22.0420  -12.8198   22.0460 N   0  0  0  0  0  0
  -25.4053  -15.1968   20.4154 N   0  0  0  0  0  0
  -31.6948  -15.1453   20.1840 O   0  0  0  0  0  0
  -21.6641   -6.8882   21.4239 O   0  0  0  0  0  0
  -22.3450  -14.5501   20.6734 O   0  0  0  0  0  0
  -24.6528  -31.8349   23.1804 C   0  0  0  0  0  0
  -25.9264  -32.4645   23.8231 C   0  0  1  0  0  0
  -27.2159  -27.0443   20.1740 C   0  0  0  0  0  0
  -25.5986  -33.8453   24.2145 N   0  0  0  0  0  0
  -23.4611  -30.4506   21.5271 C   0  0  2  0  0  0
  -24.9118  -28.8551   20.1166 C   0  0  0  0  0  0
  -22.7613  -29.4491   22.4824 C   0  0  0  0  0  0
  -18.0313  -28.1393   22.8468 C   0  0  0  0  0  0
  -24.1506  -36.7228   23.2642 C   0  0  0  0  0  0
  -26.0230  -30.6801   21.3918 C   0  0  0  0  0  0
  -26.0931  -29.2806   20.7369 C   0  0  0  0  0  0
  -27.2472  -28.3953   20.7380 C   0  0  0  0  0  0
  -26.0072  -26.7374   19.5151 C   0  0  0  0  0  0
  -24.8871  -27.6016   19.4852 C   0  0  0  0  0  0
  -23.6952  -29.7730   20.1502 C   0  0  0  0  0  0
  -25.4137  -36.2994   24.0309 C   0  0  1  0  0  0
  -20.5931  -28.3728   23.1215 C   0  0  2  0  0  0
  -20.6795  -26.9426   22.5396 C   0  0  0  0  0  0
  -19.5770  -26.6376   21.5205 C   0  0  0  0  0  0
  -18.1953  -26.7930   22.1619 C   0  0  0  0  0  0
  -19.1573  -28.8883   23.2833 C   0  0  0  0  0  0
  -18.9481  -30.1471   23.8861 C   0  0  0  0  0  0
  -17.6476  -30.6585   24.0552 C   0  0  0  0  0  0
  -25.9089  -34.9375   23.5035 C   0  0  0  0  0  0
  -16.5367  -29.9072   23.6333 C   0  0  0  0  0  0
  -16.7297  -28.6496   23.0352 C   0  0  0  0  0  0
  -26.4563  -31.6537   25.0700 C   0  0  0  0  0  0
  -25.3735  -31.3735   26.1387 C   0  0  0  0  0  0
  -27.0433  -30.2921   24.6333 C   0  0  0  0  0  0
  -27.6080  -32.4322   25.7486 C   0  0  0  0  0  0
  -27.5576  -37.1771   24.8461 C   0  0  0  0  0  0
  -21.4295  -29.3043   22.3583 N   0  0  0  0  0  0
  -26.4284  -37.3720   23.9406 N   0  0  0  0  0  0
  -24.7327  -31.0125   22.0874 N   0  0  0  0  0  0
  -23.4216  -28.8050   23.3010 O   0  0  0  0  0  0
  -28.2639  -26.0251   20.1762 O   0  0  0  0  0  0
  -26.5665  -34.8886   22.4606 O   0  0  0  0  0  0
  -23.5624  -32.1262   23.6976 O   0  0  0  0  0  0
  -30.1618  -20.5155   19.5453 C   0  0  0  0  0  0
  -28.1442  -20.2399   20.8157 C   0  0  0  0  0  0
  -30.0154  -18.8810   19.3350 C   0  0  0  0  0  0
  -28.7457  -18.8056   21.3839 C   0  0  0  0  0  0
  -29.1465  -21.4278   20.4248 C   0  0  2  0  0  0
  -29.8516  -17.9132   20.5963 C   0  0  1  0  0  0
  -28.7540  -23.0354   19.8385 C   0  0  0  0  0  0
  -28.0745  -24.4765   20.5330 C   0  0  0  0  0  0
  -29.6685  -16.2974   20.4860 N   0  0  0  0  0  0
  -31.4709  -12.8739   19.1999 H   0  0  0  0  0  0
  -30.4643  -11.7581   20.0766 H   0  0  0  0  0  0
  -29.8826  -11.7559   17.6203 H   0  0  0  0  0  0
  -29.5898  -13.4756   17.6751 H   0  0  0  0  0  0
  -27.9959  -11.2779   19.0236 H   0  0  0  0  0  0
  -27.4037  -12.4034   17.8285 H   0  0  0  0  0  0
  -27.5605  -14.2494   19.3715 H   0  0  0  0  0  0
  -28.7821  -12.3930   21.4723 H   0  0  0  0  0  0
  -28.3301  -14.0630   21.7264 H   0  0  0  0  0  0
  -25.2769   -9.5682   22.4756 H   0  0  0  0  0  0
  -24.0002   -7.4632   22.7470 H   0  0  0  0  0  0
  -21.0843   -8.8784   19.8958 H   0  0  0  0  0  0
  -22.3705  -10.9674   19.6166 H   0  0  0  0  0  0
  -21.2026   -7.6143   23.9715 H   0  0  0  0  0  0
  -21.1487   -6.0515   25.9075 H   0  0  0  0  0  0
  -22.0597   -2.7603   23.2836 H   0  0  0  0  0  0
  -22.4044  -11.9872   22.4869 H   0  0  0  0  0  0
  -21.1039  -13.1224   22.2661 H   0  0  0  0  0  0
  -24.6327  -15.8449   20.5286 H   0  0  0  0  0  0
  -26.2382  -15.6371   20.0487 H   0  0  0  0  0  0
  -26.7322  -32.5221   23.0942 H   0  0  0  0  0  0
  -25.0151  -33.9552   25.0313 H   0  0  0  0  0  0
  -22.7683  -31.2783   21.3641 H   0  0  0  0  0  0
  -23.3777  -35.9547   23.3268 H   0  0  0  0  0  0
  -24.3592  -36.8902   22.2061 H   0  0  0  0  0  0
  -23.7257  -37.6410   23.6709 H   0  0  0  0  0  0
  -26.1899  -31.4305   20.6184 H   0  0  0  0  0  0
  -26.8878  -30.7316   22.0413 H   0  0  0  0  0  0
  -28.1524  -28.7235   21.2298 H   0  0  0  0  0  0
  -25.9133  -25.7789   19.0242 H   0  0  0  0  0  0
  -23.9888  -27.2751   18.9791 H   0  0  0  0  0  0
  -23.8481  -30.5441   19.3938 H   0  0  0  0  0  0
  -22.8076  -29.2241   19.8318 H   0  0  0  0  0  0
  -25.1336  -36.1797   25.0801 H   0  0  0  0  0  0
  -21.0016  -28.3315   24.1338 H   0  0  0  0  0  0
  -20.5685  -26.2338   23.3618 H   0  0  0  0  0  0
  -21.6659  -26.7420   22.1195 H   0  0  0  0  0  0
  -19.6930  -25.6277   21.1257 H   0  0  0  0  0  0
  -19.6710  -27.3162   20.6715 H   0  0  0  0  0  0
  -17.4223  -26.6666   21.4023 H   0  0  0  0  0  0
  -18.0358  -26.0080   22.9025 H   0  0  0  0  0  0
  -19.7954  -30.7300   24.2219 H   0  0  0  0  0  0
  -17.5022  -31.6260   24.5163 H   0  0  0  0  0  0
  -15.5362  -30.2958   23.7680 H   0  0  0  0  0  0
  -15.8697  -28.0799   22.7081 H   0  0  0  0  0  0
  -24.5884  -30.7136   25.7680 H   0  0  0  0  0  0
  -24.8974  -32.2921   26.4817 H   0  0  0  0  0  0
  -25.8005  -30.8867   27.0163 H   0  0  0  0  0  0
  -26.3049  -29.6617   24.1362 H   0  0  0  0  0  0
  -27.4036  -29.7259   25.4931 H   0  0  0  0  0  0
  -27.8973  -30.4132   23.9666 H   0  0  0  0  0  0
  -27.2660  -33.3638   26.2003 H   0  0  0  0  0  0
  -28.3916  -32.6857   25.0335 H   0  0  0  0  0  0
  -28.0722  -31.8493   26.5451 H   0  0  0  0  0  0
  -28.2570  -38.0092   24.7519 H   0  0  0  0  0  0
  -28.1102  -36.2617   24.6279 H   0  0  0  0  0  0
  -27.2289  -37.1397   25.8862 H   0  0  0  0  0  0
  -20.9527  -29.8760   21.6753 H   0  0  0  0  0  0
  -26.0141  -38.2782   24.1414 H   0  0  0  0  0  0
  -30.1817  -20.9478   18.5444 H   0  0  0  0  0  0
  -31.1653  -20.6996   19.9308 H   0  0  0  0  0  0
  -27.4346  -20.6234   21.5499 H   0  0  0  0  0  0
  -27.5309  -20.0181   19.9408 H   0  0  0  0  0  0
  -30.8752  -18.5392   18.7576 H   0  0  0  0  0  0
  -29.1618  -18.7106   18.6764 H   0  0  0  0  0  0
  -27.8897  -18.1643   21.5907 H   0  0  0  0  0  0
  -29.1625  -19.0148   22.3705 H   0  0  0  0  0  0
  -29.6736  -21.6356   21.3574 H   0  0  0  0  0  0
  -30.7843  -18.0165   21.1533 H   0  0  0  0  0  0
  -28.2056  -22.8802   18.9089 H   0  0  0  0  0  0
  -29.7245  -23.3954   19.4965 H   0  0  0  0  0  0
  -28.3777  -24.4385   21.5801 H   0  0  0  0  0  0
  -26.9985  -24.3062   20.5799 H   0  0  0  0  0  0
  -28.6970  -16.0398   20.5707 H   0  0  0  0  0  0
  1 25  1  0  0  0
  1 30  2  0  0  0
  1 79  1  0  0  0
  2  3  1  0  0  0
  2 25  1  0  0  0
  2 80  1  0  0  0
  2 81  1  0  0  0
  3  4  1  0  0  0
  3 82  1  0  0  0
  3 83  1  0  0  0
  4  5  1  0  0  0
  4 84  1  0  0  0
  4 85  1  0  0  0
  5  6  1  0  0  0
  5 26  1  0  0  0
  5 86  1  0  0  0
  6 25  1  0  0  0
  6 87  1  0  0  0
  6 88  1  0  0  0
  7  8  2  0  0  0
  7 26  1  0  0  0
  7 29  1  0  0  0
  8  9  1  0  0  0
  8 22  1  0  0  0
  9 10  1  0  0  0
  9 27  2  0  0  0
 10 11  2  0  0  0
 10 15  1  0  0  0
 11 12  1  0  0  0
 11 89  1  0  0  0
 12 13  2  0  0  0
 12 90  1  0  0  0
 13 14  1  0  0  0
 13 31  1  0  0  0
 14 15  2  0  0  0
 14 91  1  0  0  0
 15 92  1  0  0  0
 16 17  2  0  0  0
 16 21  1  0  0  0
 16 31  1  0  0  0
 17 18  1  0  0  0
 17 93  1  0  0  0
 18 19  2  0  0  0
 18 94  1  0  0  0
 19 20  1  0  0  0
 19 24  1  0  0  0
 20 21  2  0  0  0
 20 95  1  0  0  0
 21 23  1  0  0  0
 22 28  1  0  0  0
 22 32  2  0  0  0
 26 27  1  0  0  0
 28 96  1  0  0  0
 28 97  1  0  0  0
 29 98  1  0  0  0
 29 99  1  0  0  0
 33 34  1  0  0  0
 33 66  1  0  0  0
 33 70  2  0  0  0
 34 36  1  0  0  0
 34 59  1  0  0  0
 34100  1  0  0  0
 35 44  2  0  0  0
 35 45  1  0  0  0
 35 68  1  0  0  0
 36 56  1  0  0  0
 36101  1  0  0  0
 37 39  1  0  0  0
 37 47  1  0  0  0
 37 66  1  0  0  0
 37102  1  0  0  0
 38 43  2  0  0  0
 38 46  1  0  0  0
 38 47  1  0  0  0
 39 64  1  0  0  0
 39 67  2  0  0  0
 40 52  1  0  0  0
 40 53  2  0  0  0
 40 58  1  0  0  0
 41103  1  0  0  0
 41104  1  0  0  0
 41105  1  0  0  0
 41 48  1  0  0  0
 42 43  1  0  0  0
 42 66  1  0  0  0
 42106  1  0  0  0
 42107  1  0  0  0
 43 44  1  0  0  0
 44108  1  0  0  0
 45 46  2  0  0  0
 45109  1  0  0  0
 46110  1  0  0  0
 47111  1  0  0  0
 47112  1  0  0  0
 48 56  1  0  0  0
 48 65  1  0  0  0
 48113  1  0  0  0
 49 50  1  0  0  0
 49 53  1  0  0  0
 49 64  1  0  0  0
 49114  1  0  0  0
 50 51  1  0  0  0
 50115  1  0  0  0
 50116  1  0  0  0
 51 52  1  0  0  0
 51117  1  0  0  0
 51118  1  0  0  0
 52119  1  0  0  0
 52120  1  0  0  0
 53 54  1  0  0  0
 54 55  2  0  0  0
 54121  1  0  0  0
 55 57  1  0  0  0
 55122  1  0  0  0
 56 69  2  0  0  0
 57 58  2  0  0  0
 57123  1  0  0  0
 58124  1  0  0  0
 59 60  1  0  0  0
 59 61  1  0  0  0
 59 62  1  0  0  0
 60125  1  0  0  0
 60126  1  0  0  0
 60127  1  0  0  0
 61128  1  0  0  0
 61129  1  0  0  0
 61130  1  0  0  0
 62131  1  0  0  0
 62132  1  0  0  0
 62133  1  0  0  0
 63 65  1  0  0  0
 63134  1  0  0  0
 63135  1  0  0  0
 63136  1  0  0  0
 64137  1  0  0  0
 65138  1  0  0  0
 68 78  1  0  0  0
 71 73  1  0  0  0
 71 75  1  0  0  0
 71139  1  0  0  0
 71140  1  0  0  0
 72 74  1  0  0  0
 72 75  1  0  0  0
 72141  1  0  0  0
 72142  1  0  0  0
 73 76  1  0  0  0
 73143  1  0  0  0
 73144  1  0  0  0
 74 76  1  0  0  0
 74145  1  0  0  0
 74146  1  0  0  0
 75 77  1  0  0  0
 75147  1  0  0  0
 76 79  1  0  0  0
 76148  1  0  0  0
 77 78  1  0  0  0
 77149  1  0  0  0
 77150  1  0  0  0
 78151  1  0  0  0
 78152  1  0  0  0
 79153  1  0  0  0
M  ISO  4   1 100  68 101  78 101  79 100
M  END
> <chiral flag>
0

> <version>
0

> <s_m_source_file>
/data/baiqing/PycharmProjects/Reinvent-master-3.2/result/LINK_invent/BTK/process_docking_weight1_custom_sum_contain_oxygen_bond_distance_aromatic_linkinvent_7_9_3/rearranged_h_0138.sdf

> <i_m_source_file_index>
86

> <r_mmod_Potential_Energy-OPLS-2005>
880.064208984375

> <r_mmod_Stretch_Energy-OPLS-2005>
374.8720703125

> <r_mmod_Bend_Energy-OPLS-2005>
388.808746337891

> <r_mmod_Torsional_Energy-OPLS-2005>
261.328430175781

> <r_mmod_Improper_Torsional_Energy-OPLS-2005>
4.037184715271

> <r_mmod_Van_der_Waal_Energy-OPLS-2005>
116.097610473633

> <r_mmod_Electrostatic_Energy-OPLS-2005>
-357.652648925781

> <r_mmod_Solvation_Energy-OPLS-2005>
-203.18684387207

> <b_mmod_Minimization_Converged-OPLS-2005>
0

> <r_mmod_RMS_Derivative-OPLS-2005>
1.56538271903992

$$$$
86
                    3D
 Structure written by MMmdl.
154162  0  0  1  0            999 V2000
  -30.5571  -14.9491   20.4256 C   0  0  0  0  0  0
  -30.4405  -12.5887   19.5053 C   0  0  0  0  0  0
  -29.5252  -12.5361   18.2605 C   0  0  0  0  0  0
  -28.0563  -12.3245   18.6738 C   0  0  0  0  0  0
  -27.6310  -13.2545   19.8418 C   0  0  2  0  0  0
  -28.6739  -13.2873   20.9797 C   0  0  0  0  0  0
  -25.2472  -13.8237   20.5717 C   0  0  0  0  0  0
  -24.1794  -13.0442   20.9228 C   0  0  0  0  0  0
  -24.6418  -11.6932   20.8758 C   0  0  0  0  0  0
  -23.9099  -10.4295   21.0415 C   0  0  0  0  0  0
  -24.3642   -9.4206   21.9196 C   0  0  0  0  0  0
  -23.6310   -8.2242   22.0759 C   0  0  0  0  0  0
  -22.4286   -8.0300   21.3556 C   0  0  0  0  0  0
  -21.9927   -9.0275   20.4654 C   0  0  0  0  0  0
  -22.7269  -10.2146   20.3067 C   0  0  0  0  0  0
  -21.6854   -6.0753   22.5280 C   0  0  0  0  0  0
  -21.4016   -6.5649   23.8218 C   0  0  0  0  0  0
  -21.3661   -5.6794   24.9179 C   0  0  0  0  0  0
  -21.6052   -4.3058   24.7211 C   0  0  0  0  0  0
  -21.8827   -3.8155   23.4330 C   0  0  0  0  0  0
  -21.9189   -4.6981   22.3395 C   0  0  0  0  0  0
  -22.7813  -13.5206   21.1878 C   0  0  0  0  0  0
  -22.1664   -4.2179   21.0966 F   0  0  0  0  0  0
  -21.5625   -3.4543   25.7719 F   0  0  0  0  0  0
  -29.9515  -13.6941   20.3798 N   0  0  0  0  0  0
  -26.2901  -12.9481   20.3270 N   0  0  0  0  0  0
  -25.9352  -11.6601   20.5738 N   0  0  0  0  0  0
  -22.0459  -12.8205   22.0443 N   0  0  0  0  0  0
  -25.4143  -15.1964   20.4130 N   0  0  0  0  0  0
  -31.7612  -14.9988   20.1505 O   0  0  0  0  0  0
  -21.6657   -6.8894   21.4244 O   0  0  0  0  0  0
  -22.3499  -14.5511   20.6721 O   0  0  0  0  0  0
  -24.6461  -31.8428   23.1853 C   0  0  0  0  0  0
  -25.9229  -32.4686   23.8255 C   0  0  1  0  0  0
  -27.2243  -27.1222   20.1487 C   0  0  0  0  0  0
  -25.5986  -33.8498   24.2175 N   0  0  0  0  0  0
  -23.4487  -30.4616   21.5324 C   0  0  2  0  0  0
  -24.8993  -28.8829   20.1124 C   0  0  0  0  0  0
  -22.7573  -29.4541   22.4849 C   0  0  0  0  0  0
  -18.0309  -28.1382   22.8441 C   0  0  0  0  0  0
  -24.1504  -36.7241   23.2637 C   0  0  0  0  0  0
  -26.0072  -30.7107   21.3870 C   0  0  0  0  0  0
  -26.0789  -29.3213   20.7273 C   0  0  0  0  0  0
  -27.2416  -28.4586   20.7251 C   0  0  0  0  0  0
  -26.0136  -26.7865   19.5023 C   0  0  0  0  0  0
  -24.8806  -27.6290   19.4844 C   0  0  0  0  0  0
  -23.6764  -29.7879   20.1536 C   0  0  0  0  0  0
  -25.4143  -36.3023   24.0300 C   0  0  1  0  0  0
  -20.5913  -28.3719   23.1201 C   0  0  2  0  0  0
  -20.6790  -26.9422   22.5377 C   0  0  0  0  0  0
  -19.5780  -26.6365   21.5176 C   0  0  0  0  0  0
  -18.1959  -26.7913   22.1587 C   0  0  0  0  0  0
  -19.1561  -28.8870   23.2805 C   0  0  0  0  0  0
  -18.9486  -30.1460   23.8842 C   0  0  0  0  0  0
  -17.6483  -30.6577   24.0546 C   0  0  0  0  0  0
  -25.9095  -34.9400   23.5037 C   0  0  0  0  0  0
  -16.5373  -29.9064   23.6340 C   0  0  0  0  0  0
  -16.7291  -28.6487   23.0348 C   0  0  0  0  0  0
  -26.4551  -31.6555   25.0699 C   0  0  0  0  0  0
  -25.3738  -31.3747   26.1394 C   0  0  0  0  0  0
  -27.0402  -30.2940   24.6292 C   0  0  0  0  0  0
  -27.6087  -32.4310   25.7486 C   0  0  0  0  0  0
  -27.5576  -37.1782   24.8463 C   0  0  0  0  0  0
  -21.4267  -29.3051   22.3591 N   0  0  0  0  0  0
  -26.4295  -37.3741   23.9397 N   0  0  0  0  0  0
  -24.7201  -31.0268   22.0894 N   0  0  0  0  0  0
  -23.4214  -28.8101   23.3015 O   0  0  0  0  0  0
  -28.2868  -26.1386   20.2023 O   0  0  0  0  0  0
  -26.5670  -34.8896   22.4610 O   0  0  0  0  0  0
  -23.5575  -32.1320   23.7069 O   0  0  0  0  0  0
  -28.6613  -21.7168   20.3821 C   0  0  0  0  0  0
  -31.1088  -24.1929   19.9848 C   0  0  0  0  0  0
  -30.3294  -23.5903   21.1562 C   0  0  0  0  0  0
  -30.2011  -23.3749   19.0652 C   0  0  0  0  0  0
  -29.1460  -23.3156   20.1979 C   0  0  0  0  0  0
  -28.0261  -24.5922   20.1181 C   0  0  0  0  0  0
  -29.1041  -18.9939   20.4823 C   0  0  0  0  0  0
  -30.1892  -17.6874   20.4606 C   0  0  0  0  0  0
  -29.4702  -20.5372   20.3402 N   0  0  0  0  0  0
  -29.8026  -16.1490   20.5706 N   0  0  0  0  0  0
  -27.4573  -21.5504   20.5799 O   0  0  0  0  0  0
  -31.4785  -12.7338   19.1999 H   0  0  0  0  0  0
  -30.4226  -11.6386   20.0408 H   0  0  0  0  0  0
  -29.8432  -11.7383   17.5883 H   0  0  0  0  0  0
  -29.6188  -13.4687   17.7006 H   0  0  0  0  0  0
  -27.9506  -11.2818   18.9759 H   0  0  0  0  0  0
  -27.3972  -12.4644   17.8166 H   0  0  0  0  0  0
  -27.5917  -14.2567   19.4119 H   0  0  0  0  0  0
  -28.7620  -12.3145   21.4674 H   0  0  0  0  0  0
  -28.3755  -13.9973   21.7530 H   0  0  0  0  0  0
  -25.2782   -9.5685   22.4777 H   0  0  0  0  0  0
  -24.0038   -7.4623   22.7474 H   0  0  0  0  0  0
  -21.0863   -8.8786   19.8947 H   0  0  0  0  0  0
  -22.3732  -10.9694   19.6177 H   0  0  0  0  0  0
  -21.2024   -7.6158   23.9730 H   0  0  0  0  0  0
  -21.1479   -6.0525   25.9084 H   0  0  0  0  0  0
  -22.0601   -2.7620   23.2817 H   0  0  0  0  0  0
  -22.4055  -11.9856   22.4834 H   0  0  0  0  0  0
  -21.1085  -13.1257   22.2637 H   0  0  0  0  0  0
  -24.6469  -15.8514   20.5226 H   0  0  0  0  0  0
  -26.2599  -15.6319   20.0663 H   0  0  0  0  0  0
  -26.7292  -32.5285   23.0978 H   0  0  0  0  0  0
  -25.0171  -33.9635   25.0346 H   0  0  0  0  0  0
  -22.7510  -31.2877   21.3774 H   0  0  0  0  0  0
  -23.3765  -35.9568   23.3290 H   0  0  0  0  0  0
  -24.3590  -36.8889   22.2053 H   0  0  0  0  0  0
  -23.7260  -37.6433   23.6684 H   0  0  0  0  0  0
  -26.1701  -31.4646   20.6165 H   0  0  0  0  0  0
  -26.8732  -30.7584   22.0344 H   0  0  0  0  0  0
  -28.1406  -28.7920   21.2238 H   0  0  0  0  0  0
  -25.9069  -25.8289   19.0176 H   0  0  0  0  0  0
  -23.9802  -27.2855   18.9952 H   0  0  0  0  0  0
  -23.8146  -30.5615   19.3975 H   0  0  0  0  0  0
  -22.7902  -29.2323   19.8435 H   0  0  0  0  0  0
  -25.1332  -36.1839   25.0789 H   0  0  0  0  0  0
  -20.9995  -28.3309   24.1323 H   0  0  0  0  0  0
  -20.5657  -26.2348   23.3603 H   0  0  0  0  0  0
  -21.6668  -26.7417   22.1204 H   0  0  0  0  0  0
  -19.6957  -25.6264   21.1243 H   0  0  0  0  0  0
  -19.6716  -27.3138   20.6679 H   0  0  0  0  0  0
  -17.4223  -26.6612   21.4001 H   0  0  0  0  0  0
  -18.0391  -26.0060   22.9002 H   0  0  0  0  0  0
  -19.7969  -30.7273   24.2186 H   0  0  0  0  0  0
  -17.5050  -31.6260   24.5146 H   0  0  0  0  0  0
  -15.5371  -30.2958   23.7700 H   0  0  0  0  0  0
  -15.8683  -28.0797   22.7092 H   0  0  0  0  0  0
  -24.5916  -30.7105   25.7700 H   0  0  0  0  0  0
  -24.8945  -32.2936   26.4780 H   0  0  0  0  0  0
  -25.8030  -30.8936   27.0196 H   0  0  0  0  0  0
  -26.3011  -29.6658   24.1310 H   0  0  0  0  0  0
  -27.4009  -29.7250   25.4874 H   0  0  0  0  0  0
  -27.8928  -30.4148   23.9604 H   0  0  0  0  0  0
  -27.2693  -33.3634   26.2011 H   0  0  0  0  0  0
  -28.3935  -32.6836   25.0338 H   0  0  0  0  0  0
  -28.0714  -31.8469   26.5457 H   0  0  0  0  0  0
  -28.2589  -38.0085   24.7513 H   0  0  0  0  0  0
  -28.1080  -36.2615   24.6287 H   0  0  0  0  0  0
  -27.2291  -37.1416   25.8867 H   0  0  0  0  0  0
  -20.9484  -29.8778   21.6768 H   0  0  0  0  0  0
  -26.0148  -38.2798   24.1405 H   0  0  0  0  0  0
  -32.1667  -23.9255   19.9456 H   0  0  0  0  0  0
  -30.9606  -25.2694   19.8867 H   0  0  0  0  0  0
  -30.1070  -24.3025   21.9504 H   0  0  0  0  0  0
  -30.8123  -22.7004   21.5634 H   0  0  0  0  0  0
  -30.6440  -22.4161   18.7894 H   0  0  0  0  0  0
  -29.8764  -23.9092   18.1718 H   0  0  0  0  0  0
  -27.2468  -24.3876   20.8518 H   0  0  0  0  0  0
  -27.5283  -24.4559   19.1591 H   0  0  0  0  0  0
  -28.5368  -18.9156   21.4106 H   0  0  0  0  0  0
  -28.3680  -18.8005   19.7010 H   0  0  0  0  0  0
  -30.9030  -17.8586   21.2652 H   0  0  0  0  0  0
  -30.7847  -17.7761   19.5522 H   0  0  0  0  0  0
  -30.4550  -20.7177   20.1895 H   0  0  0  0  0  0
  -28.8255  -15.9831   20.7642 H   0  0  0  0  0  0
  1 25  1  0  0  0
  1 30  2  0  0  0
  1 80  1  0  0  0
  2  3  1  0  0  0
  2 25  1  0  0  0
  2 82  1  0  0  0
  2 83  1  0  0  0
  3  4  1  0  0  0
  3 84  1  0  0  0
  3 85  1  0  0  0
  4  5  1  0  0  0
  4 86  1  0  0  0
  4 87  1  0  0  0
  5  6  1  0  0  0
  5 26  1  0  0  0
  5 88  1  0  0  0
  6 25  1  0  0  0
  6 89  1  0  0  0
  6 90  1  0  0  0
  7  8  2  0  0  0
  7 26  1  0  0  0
  7 29  1  0  0  0
  8  9  1  0  0  0
  8 22  1  0  0  0
  9 10  1  0  0  0
  9 27  2  0  0  0
 10 11  2  0  0  0
 10 15  1  0  0  0
 11 12  1  0  0  0
 11 91  1  0  0  0
 12 13  2  0  0  0
 12 92  1  0  0  0
 13 14  1  0  0  0
 13 31  1  0  0  0
 14 15  2  0  0  0
 14 93  1  0  0  0
 15 94  1  0  0  0
 16 17  2  0  0  0
 16 21  1  0  0  0
 16 31  1  0  0  0
 17 18  1  0  0  0
 17 95  1  0  0  0
 18 19  2  0  0  0
 18 96  1  0  0  0
 19 20  1  0  0  0
 19 24  1  0  0  0
 20 21  2  0  0  0
 20 97  1  0  0  0
 21 23  1  0  0  0
 22 28  1  0  0  0
 22 32  2  0  0  0
 26 27  1  0  0  0
 28 98  1  0  0  0
 28 99  1  0  0  0
 29100  1  0  0  0
 29101  1  0  0  0
 33 34  1  0  0  0
 33 66  1  0  0  0
 33 70  2  0  0  0
 34 36  1  0  0  0
 34 59  1  0  0  0
 34102  1  0  0  0
 35 44  2  0  0  0
 35 45  1  0  0  0
 35 68  1  0  0  0
 36 56  1  0  0  0
 36103  1  0  0  0
 37 39  1  0  0  0
 37 47  1  0  0  0
 37 66  1  0  0  0
 37104  1  0  0  0
 38 43  2  0  0  0
 38 46  1  0  0  0
 38 47  1  0  0  0
 39 64  1  0  0  0
 39 67  2  0  0  0
 40 52  1  0  0  0
 40 53  2  0  0  0
 40 58  1  0  0  0
 41105  1  0  0  0
 41106  1  0  0  0
 41107  1  0  0  0
 41 48  1  0  0  0
 42 43  1  0  0  0
 42 66  1  0  0  0
 42108  1  0  0  0
 42109  1  0  0  0
 43 44  1  0  0  0
 44110  1  0  0  0
 45 46  2  0  0  0
 45111  1  0  0  0
 46112  1  0  0  0
 47113  1  0  0  0
 47114  1  0  0  0
 48 56  1  0  0  0
 48 65  1  0  0  0
 48115  1  0  0  0
 49 50  1  0  0  0
 49 53  1  0  0  0
 49 64  1  0  0  0
 49116  1  0  0  0
 50 51  1  0  0  0
 50117  1  0  0  0
 50118  1  0  0  0
 51 52  1  0  0  0
 51119  1  0  0  0
 51120  1  0  0  0
 52121  1  0  0  0
 52122  1  0  0  0
 53 54  1  0  0  0
 54 55  2  0  0  0
 54123  1  0  0  0
 55 57  1  0  0  0
 55124  1  0  0  0
 56 69  2  0  0  0
 57 58  2  0  0  0
 57125  1  0  0  0
 58126  1  0  0  0
 59 60  1  0  0  0
 59 61  1  0  0  0
 59 62  1  0  0  0
 60127  1  0  0  0
 60128  1  0  0  0
 60129  1  0  0  0
 61130  1  0  0  0
 61131  1  0  0  0
 61132  1  0  0  0
 62133  1  0  0  0
 62134  1  0  0  0
 62135  1  0  0  0
 63 65  1  0  0  0
 63136  1  0  0  0
 63137  1  0  0  0
 63138  1  0  0  0
 64139  1  0  0  0
 65140  1  0  0  0
 68 76  1  0  0  0
 71 75  1  0  0  0
 71 79  1  0  0  0
 71 81  2  0  0  0
 72 73  1  0  0  0
 72 74  1  0  0  0
 72141  1  0  0  0
 72142  1  0  0  0
 73 75  1  0  0  0
 73143  1  0  0  0
 73144  1  0  0  0
 74 75  1  0  0  0
 74145  1  0  0  0
 74146  1  0  0  0
 75 76  1  0  0  0
 76147  1  0  0  0
 76148  1  0  0  0
 77 78  1  0  0  0
 77 79  1  0  0  0
 77149  1  0  0  0
 77150  1  0  0  0
 78 80  1  0  0  0
 78151  1  0  0  0
 78152  1  0  0  0
 79153  1  0  0  0
 80154  1  0  0  0
M  ISO  4   1 100  68 101  76 101  80 100
M  END
> <chiral flag>
0

> <version>
0

> <s_m_source_file>
/data/baiqing/PycharmProjects/Reinvent-master-3.2/result/LINK_invent/BTK/process_docking_weight1_custom_sum_contain_oxygen_bond_distance_aromatic_linkinvent_7_9_3/rearranged_h_0138.sdf

> <i_m_source_file_index>
87

> <r_mmod_Potential_Energy-OPLS-2005>
452.128814697266

> <r_mmod_Stretch_Energy-OPLS-2005>
294.05859375

> <r_mmod_Bend_Energy-OPLS-2005>
271.118804931641

> <r_mmod_Torsional_Energy-OPLS-2005>
237.362396240234

> <r_mmod_Improper_Torsional_Energy-OPLS-2005>
4.26148796081543

> <r_mmod_Van_der_Waal_Energy-OPLS-2005>
114.666954040527

> <r_mmod_Electrostatic_Energy-OPLS-2005>
-422.586578369141

> <r_mmod_Solvation_Energy-OPLS-2005>
-242.449554443359

> <b_mmod_Minimization_Converged-OPLS-2005>
0

> <r_mmod_RMS_Derivative-OPLS-2005>
2.49629545211792

$$$$
87
                    3D
 Structure written by MMmdl.
156164  0  0  1  0            999 V2000
  -30.5893  -14.7898   20.4724 C   0  0  0  0  0  0
  -30.4412  -12.4894   19.4747 C   0  0  0  0  0  0
  -29.5135  -12.5056   18.2393 C   0  0  0  0  0  0
  -28.0424  -12.3172   18.6596 C   0  0  0  0  0  0
  -27.6393  -13.2304   19.8471 C   0  0  2  0  0  0
  -28.6843  -13.1834   20.9820 C   0  0  0  0  0  0
  -25.2505  -13.8190   20.5694 C   0  0  0  0  0  0
  -24.1800  -13.0439   20.9223 C   0  0  0  0  0  0
  -24.6397  -11.6919   20.8768 C   0  0  0  0  0  0
  -23.9079  -10.4294   21.0422 C   0  0  0  0  0  0
  -24.3623   -9.4204   21.9199 C   0  0  0  0  0  0
  -23.6297   -8.2239   22.0763 C   0  0  0  0  0  0
  -22.4278   -8.0282   21.3550 C   0  0  0  0  0  0
  -21.9922   -9.0258   20.4651 C   0  0  0  0  0  0
  -22.7256  -10.2134   20.3066 C   0  0  0  0  0  0
  -21.6851   -6.0737   22.5284 C   0  0  0  0  0  0
  -21.4008   -6.5641   23.8215 C   0  0  0  0  0  0
  -21.3660   -5.6794   24.9180 C   0  0  0  0  0  0
  -21.6041   -4.3057   24.7230 C   0  0  0  0  0  0
  -21.8818   -3.8149   23.4351 C   0  0  0  0  0  0
  -21.9192   -4.6965   22.3409 C   0  0  0  0  0  0
  -22.7820  -13.5221   21.1883 C   0  0  0  0  0  0
  -22.1659   -4.2152   21.0984 F   0  0  0  0  0  0
  -21.5634   -3.4541   25.7741 F   0  0  0  0  0  0
  -29.9775  -13.5555   20.3946 N   0  0  0  0  0  0
  -26.2924  -12.9393   20.3268 N   0  0  0  0  0  0
  -25.9320  -11.6542   20.5761 N   0  0  0  0  0  0
  -22.0462  -12.8201   22.0427 N   0  0  0  0  0  0
  -25.4191  -15.1911   20.4064 N   0  0  0  0  0  0
  -31.7855  -14.8940   20.1881 O   0  0  0  0  0  0
  -21.6638   -6.8879   21.4245 O   0  0  0  0  0  0
  -22.3514  -14.5539   20.6748 O   0  0  0  0  0  0
  -24.6333  -31.8525   23.1948 C   0  0  0  0  0  0
  -25.9147  -32.4742   23.8307 C   0  0  1  0  0  0
  -27.2142  -27.2170   20.1648 C   0  0  0  0  0  0
  -25.5937  -33.8542   24.2240 N   0  0  0  0  0  0
  -23.4315  -30.4708   21.5397 C   0  0  2  0  0  0
  -24.8796  -28.9021   20.1217 C   0  0  0  0  0  0
  -22.7508  -29.4582   22.4923 C   0  0  0  0  0  0
  -18.0287  -28.1394   22.8474 C   0  0  0  0  0  0
  -24.1487  -36.7273   23.2641 C   0  0  0  0  0  0
  -25.9784  -30.7505   21.3813 C   0  0  0  0  0  0
  -26.0491  -29.3626   20.7403 C   0  0  0  0  0  0
  -27.2201  -28.5327   20.7492 C   0  0  0  0  0  0
  -26.0361  -26.8458   19.4880 C   0  0  0  0  0  0
  -24.8783  -27.6506   19.4851 C   0  0  0  0  0  0
  -23.6533  -29.7958   20.1600 C   0  0  0  0  0  0
  -25.4111  -36.3059   24.0330 C   0  0  1  0  0  0
  -20.5889  -28.3697   23.1273 C   0  0  2  0  0  0
  -20.6784  -26.9415   22.5410 C   0  0  0  0  0  0
  -19.5760  -26.6382   21.5215 C   0  0  0  0  0  0
  -18.1933  -26.7935   22.1617 C   0  0  0  0  0  0
  -19.1539  -28.8863   23.2866 C   0  0  0  0  0  0
  -18.9466  -30.1466   23.8884 C   0  0  0  0  0  0
  -17.6467  -30.6593   24.0560 C   0  0  0  0  0  0
  -25.9055  -34.9435   23.5087 C   0  0  0  0  0  0
  -16.5357  -29.9086   23.6342 C   0  0  0  0  0  0
  -16.7276  -28.6509   23.0353 C   0  0  0  0  0  0
  -26.4510  -31.6572   25.0708 C   0  0  0  0  0  0
  -25.3720  -31.3715   26.1415 C   0  0  0  0  0  0
  -27.0368  -30.2989   24.6201 C   0  0  0  0  0  0
  -27.6054  -32.4321   25.7490 C   0  0  0  0  0  0
  -27.5571  -37.1791   24.8469 C   0  0  0  0  0  0
  -21.4215  -29.3039   22.3667 N   0  0  0  0  0  0
  -26.4283  -37.3764   23.9411 N   0  0  0  0  0  0
  -24.7005  -31.0447   22.0950 N   0  0  0  0  0  0
  -23.4195  -28.8135   23.3043 O   0  0  0  0  0  0
  -28.3376  -26.3584   20.0643 O   0  0  0  0  0  0
  -26.5626  -34.8920   22.4653 O   0  0  0  0  0  0
  -23.5475  -32.1367   23.7219 O   0  0  0  0  0  0
  -25.4919  -21.7883   20.7499 C   0  0  0  0  0  0
  -25.2398  -23.1322   21.0316 C   0  0  0  0  0  0
  -26.8035  -21.3717   20.4866 C   0  0  0  0  0  0
  -26.2926  -24.0571   20.9926 C   0  0  0  0  0  0
  -27.9114  -22.2561   20.4786 C   0  0  0  0  0  0
  -27.6243  -23.7147   20.6520 C   0  0  0  0  0  0
  -29.2664  -21.4463   20.2311 C   0  0  0  0  0  0
  -28.5846  -24.9929   20.7067 C   0  0  0  0  0  0
  -30.1672  -17.4005   20.9477 C   0  0  0  0  0  0
  -29.3045  -18.6696   20.3503 C   0  0  0  0  0  0
  -29.8002  -15.9208   20.6879 N   0  0  0  0  0  0
  -29.5536  -20.0871   20.9410 N   0  3  0  0  0  0
  -31.4781  -12.6349   19.1672 H   0  0  0  0  0  0
  -30.4098  -11.5183   19.9717 H   0  0  0  0  0  0
  -29.8046  -11.7209   17.5395 H   0  0  0  0  0  0
  -29.6265  -13.4503   17.7060 H   0  0  0  0  0  0
  -27.9171  -11.2716   18.9442 H   0  0  0  0  0  0
  -27.3796  -12.4829   17.8099 H   0  0  0  0  0  0
  -27.6275  -14.2466   19.4530 H   0  0  0  0  0  0
  -28.7344  -12.1884   21.4262 H   0  0  0  0  0  0
  -28.4107  -13.8648   21.7891 H   0  0  0  0  0  0
  -25.2764   -9.5678   22.4783 H   0  0  0  0  0  0
  -24.0005   -7.4626   22.7480 H   0  0  0  0  0  0
  -21.0858   -8.8785   19.8946 H   0  0  0  0  0  0
  -22.3728  -10.9680   19.6175 H   0  0  0  0  0  0
  -21.1991   -7.6147   23.9725 H   0  0  0  0  0  0
  -21.1481   -6.0521   25.9083 H   0  0  0  0  0  0
  -22.0594   -2.7611   23.2853 H   0  0  0  0  0  0
  -22.4061  -11.9833   22.4777 H   0  0  0  0  0  0
  -21.1081  -13.1231   22.2644 H   0  0  0  0  0  0
  -24.6464  -15.8410   20.5028 H   0  0  0  0  0  0
  -26.2512  -15.6235   20.0274 H   0  0  0  0  0  0
  -26.7203  -32.5395   23.1031 H   0  0  0  0  0  0
  -25.0127  -33.9675   25.0417 H   0  0  0  0  0  0
  -22.7306  -31.2941   21.3868 H   0  0  0  0  0  0
  -23.3759  -35.9600   23.3306 H   0  0  0  0  0  0
  -24.3571  -36.8892   22.2052 H   0  0  0  0  0  0
  -23.7236  -37.6472   23.6661 H   0  0  0  0  0  0
  -26.1141  -31.4996   20.6001 H   0  0  0  0  0  0
  -26.8578  -30.8111   22.0104 H   0  0  0  0  0  0
  -28.1243  -28.8879   21.2227 H   0  0  0  0  0  0
  -26.0073  -25.9019   18.9613 H   0  0  0  0  0  0
  -23.9896  -27.2982   18.9801 H   0  0  0  0  0  0
  -23.7824  -30.5675   19.4003 H   0  0  0  0  0  0
  -22.7713  -29.2297   19.8536 H   0  0  0  0  0  0
  -25.1291  -36.1905   25.0823 H   0  0  0  0  0  0
  -20.9968  -28.3273   24.1398 H   0  0  0  0  0  0
  -20.5700  -26.2303   23.3609 H   0  0  0  0  0  0
  -21.6646  -26.7456   22.1187 H   0  0  0  0  0  0
  -19.6929  -25.6294   21.1247 H   0  0  0  0  0  0
  -19.6705  -27.3195   20.6746 H   0  0  0  0  0  0
  -17.4205  -26.6685   21.4016 H   0  0  0  0  0  0
  -18.0326  -26.0081   22.9013 H   0  0  0  0  0  0
  -19.7946  -30.7281   24.2245 H   0  0  0  0  0  0
  -17.5021  -31.6273   24.5162 H   0  0  0  0  0  0
  -15.5358  -30.2981   23.7682 H   0  0  0  0  0  0
  -15.8673  -28.0828   22.7075 H   0  0  0  0  0  0
  -24.5931  -30.7022   25.7730 H   0  0  0  0  0  0
  -24.8875  -32.2879   26.4795 H   0  0  0  0  0  0
  -25.8031  -30.8927   27.0220 H   0  0  0  0  0  0
  -26.2960  -29.6720   24.1217 H   0  0  0  0  0  0
  -27.4043  -29.7256   25.4727 H   0  0  0  0  0  0
  -27.8839  -30.4268   23.9456 H   0  0  0  0  0  0
  -27.2666  -33.3653   26.1998 H   0  0  0  0  0  0
  -28.3899  -32.6821   25.0333 H   0  0  0  0  0  0
  -28.0672  -31.8484   26.5459 H   0  0  0  0  0  0
  -28.2584  -38.0092   24.7511 H   0  0  0  0  0  0
  -28.1070  -36.2620   24.6302 H   0  0  0  0  0  0
  -27.2284  -37.1439   25.8871 H   0  0  0  0  0  0
  -20.9417  -29.8755   21.6858 H   0  0  0  0  0  0
  -26.0164  -38.2841   24.1409 H   0  0  0  0  0  0
  -24.6839  -21.0687   20.7642 H   0  0  0  0  0  0
  -24.2392  -23.4568   21.2828 H   0  0  0  0  0  0
  -26.9480  -20.3193   20.2964 H   0  0  0  0  0  0
  -26.0556  -25.0727   21.2641 H   0  0  0  0  0  0
  -30.0710  -22.1183   20.5290 H   0  0  0  0  0  0
  -29.3940  -21.3087   19.1568 H   0  0  0  0  0  0
  -29.5508  -24.6602   20.3280 H   0  0  0  0  0  0
  -28.7539  -25.1925   21.7655 H   0  0  0  0  0  0
  -30.1711  -17.4992   22.0337 H   0  0  0  0  0  0
  -31.2091  -17.5370   20.6530 H   0  0  0  0  0  0
  -28.2433  -18.4495   20.4601 H   0  0  0  0  0  0
  -29.4841  -18.7204   19.2764 H   0  0  0  0  0  0
  -28.8241  -15.7032   20.8198 H   0  0  0  0  0  0
  -29.1523  -20.1302   21.8633 H   0  0  0  0  0  0
  -30.5495  -20.1192   21.0852 H   0  0  0  0  0  0
  1 25  1  0  0  0
  1 30  2  0  0  0
  1 81  1  0  0  0
  2  3  1  0  0  0
  2 25  1  0  0  0
  2 83  1  0  0  0
  2 84  1  0  0  0
  3  4  1  0  0  0
  3 85  1  0  0  0
  3 86  1  0  0  0
  4  5  1  0  0  0
  4 87  1  0  0  0
  4 88  1  0  0  0
  5  6  1  0  0  0
  5 26  1  0  0  0
  5 89  1  0  0  0
  6 25  1  0  0  0
  6 90  1  0  0  0
  6 91  1  0  0  0
  7  8  2  0  0  0
  7 26  1  0  0  0
  7 29  1  0  0  0
  8  9  1  0  0  0
  8 22  1  0  0  0
  9 10  1  0  0  0
  9 27  2  0  0  0
 10 11  2  0  0  0
 10 15  1  0  0  0
 11 12  1  0  0  0
 11 92  1  0  0  0
 12 13  2  0  0  0
 12 93  1  0  0  0
 13 14  1  0  0  0
 13 31  1  0  0  0
 14 15  2  0  0  0
 14 94  1  0  0  0
 15 95  1  0  0  0
 16 17  2  0  0  0
 16 21  1  0  0  0
 16 31  1  0  0  0
 17 18  1  0  0  0
 17 96  1  0  0  0
 18 19  2  0  0  0
 18 97  1  0  0  0
 19 20  1  0  0  0
 19 24  1  0  0  0
 20 21  2  0  0  0
 20 98  1  0  0  0
 21 23  1  0  0  0
 22 28  1  0  0  0
 22 32  2  0  0  0
 26 27  1  0  0  0
 28 99  1  0  0  0
 28100  1  0  0  0
 29101  1  0  0  0
 29102  1  0  0  0
 33 34  1  0  0  0
 33 66  1  0  0  0
 33 70  2  0  0  0
 34 36  1  0  0  0
 34 59  1  0  0  0
 34103  1  0  0  0
 35 44  2  0  0  0
 35 45  1  0  0  0
 35 68  1  0  0  0
 36 56  1  0  0  0
 36104  1  0  0  0
 37 39  1  0  0  0
 37 47  1  0  0  0
 37 66  1  0  0  0
 37105  1  0  0  0
 38 43  2  0  0  0
 38 46  1  0  0  0
 38 47  1  0  0  0
 39 64  1  0  0  0
 39 67  2  0  0  0
 40 52  1  0  0  0
 40 53  2  0  0  0
 40 58  1  0  0  0
 41106  1  0  0  0
 41107  1  0  0  0
 41108  1  0  0  0
 41 48  1  0  0  0
 42 43  1  0  0  0
 42 66  1  0  0  0
 42109  1  0  0  0
 42110  1  0  0  0
 43 44  1  0  0  0
 44111  1  0  0  0
 45 46  2  0  0  0
 45112  1  0  0  0
 46113  1  0  0  0
 47114  1  0  0  0
 47115  1  0  0  0
 48 56  1  0  0  0
 48 65  1  0  0  0
 48116  1  0  0  0
 49 50  1  0  0  0
 49 53  1  0  0  0
 49 64  1  0  0  0
 49117  1  0  0  0
 50 51  1  0  0  0
 50118  1  0  0  0
 50119  1  0  0  0
 51 52  1  0  0  0
 51120  1  0  0  0
 51121  1  0  0  0
 52122  1  0  0  0
 52123  1  0  0  0
 53 54  1  0  0  0
 54 55  2  0  0  0
 54124  1  0  0  0
 55 57  1  0  0  0
 55125  1  0  0  0
 56 69  2  0  0  0
 57 58  2  0  0  0
 57126  1  0  0  0
 58127  1  0  0  0
 59 60  1  0  0  0
 59 61  1  0  0  0
 59 62  1  0  0  0
 60128  1  0  0  0
 60129  1  0  0  0
 60130  1  0  0  0
 61131  1  0  0  0
 61132  1  0  0  0
 61133  1  0  0  0
 62134  1  0  0  0
 62135  1  0  0  0
 62136  1  0  0  0
 63 65  1  0  0  0
 63137  1  0  0  0
 63138  1  0  0  0
 63139  1  0  0  0
 64140  1  0  0  0
 65141  1  0  0  0
 68 78  1  0  0  0
 71 72  2  0  0  0
 71 73  1  0  0  0
 71142  1  0  0  0
 72 74  1  0  0  0
 72143  1  0  0  0
 73 75  2  0  0  0
 73144  1  0  0  0
 74 76  2  0  0  0
 74145  1  0  0  0
 75 76  1  0  0  0
 75 77  1  0  0  0
 76 78  1  0  0  0
 77 82  1  0  0  0
 77146  1  0  0  0
 77147  1  0  0  0
 78148  1  0  0  0
 78149  1  0  0  0
 79 80  1  0  0  0
 79 81  1  0  0  0
 79150  1  0  0  0
 79151  1  0  0  0
 80 82  1  0  0  0
 80152  1  0  0  0
 80153  1  0  0  0
 81154  1  0  0  0
 82155  1  0  0  0
 82156  1  0  0  0
M  CHG  1  82   1
M  ISO  4   1 100  68 101  78 101  81 100
M  END
> <chiral flag>
0

> <version>
0

> <s_m_source_file>
/data/baiqing/PycharmProjects/Reinvent-master-3.2/result/LINK_invent/BTK/process_docking_weight1_custom_sum_contain_oxygen_bond_distance_aromatic_linkinvent_7_9_3/rearranged_h_0138.sdf

> <i_m_source_file_index>
88

> <r_mmod_Potential_Energy-OPLS-2005>
85.646598815918

> <r_mmod_Stretch_Energy-OPLS-2005>
164.207061767578

> <r_mmod_Bend_Energy-OPLS-2005>
263.382049560547

> <r_mmod_Torsional_Energy-OPLS-2005>
236.754531860352

> <r_mmod_Improper_Torsional_Energy-OPLS-2005>
5.81558513641357

> <r_mmod_Van_der_Waal_Energy-OPLS-2005>
131.053314208984

> <r_mmod_Electrostatic_Energy-OPLS-2005>
-314.509643554688

> <r_mmod_Solvation_Energy-OPLS-2005>
-502.924285888672

> <b_mmod_Minimization_Converged-OPLS-2005>
0

> <r_mmod_RMS_Derivative-OPLS-2005>
1.15736675262451

$$$$
88
                    3D
 Structure written by MMmdl.
156165  0  0  1  0            999 V2000
  -30.4413  -15.2242   20.3752 C   0  0  0  0  0  0
  -30.4390  -12.7795   19.5218 C   0  0  0  0  0  0
  -29.5335  -12.5700   18.2824 C   0  0  0  0  0  0
  -28.0792  -12.3015   18.7084 C   0  0  0  0  0  0
  -27.6128  -13.2705   19.8239 C   0  0  2  0  0  0
  -28.6471  -13.4232   20.9589 C   0  0  0  0  0  0
  -25.2392  -13.8241   20.5735 C   0  0  0  0  0  0
  -24.1743  -13.0435   20.9255 C   0  0  0  0  0  0
  -24.6392  -11.6930   20.8761 C   0  0  0  0  0  0
  -23.9087  -10.4291   21.0405 C   0  0  0  0  0  0
  -24.3633   -9.4204   21.9182 C   0  0  0  0  0  0
  -23.6302   -8.2242   22.0753 C   0  0  0  0  0  0
  -22.4284   -8.0281   21.3543 C   0  0  0  0  0  0
  -21.9924   -9.0255   20.4644 C   0  0  0  0  0  0
  -22.7258  -10.2131   20.3053 C   0  0  0  0  0  0
  -21.6855   -6.0735   22.5277 C   0  0  0  0  0  0
  -21.4016   -6.5639   23.8211 C   0  0  0  0  0  0
  -21.3660   -5.6791   24.9173 C   0  0  0  0  0  0
  -21.6045   -4.3054   24.7224 C   0  0  0  0  0  0
  -21.8819   -3.8146   23.4345 C   0  0  0  0  0  0
  -21.9193   -4.6963   22.3401 C   0  0  0  0  0  0
  -22.7760  -13.5190   21.1901 C   0  0  0  0  0  0
  -22.1661   -4.2148   21.0979 F   0  0  0  0  0  0
  -21.5628   -3.4538   25.7737 F   0  0  0  0  0  0
  -29.8834  -13.9193   20.3357 N   0  0  0  0  0  0
  -26.2815  -12.9506   20.3209 N   0  0  0  0  0  0
  -25.9326  -11.6616   20.5717 N   0  0  0  0  0  0
  -22.0415  -12.8175   22.0455 N   0  0  0  0  0  0
  -25.4023  -15.1977   20.4162 N   0  0  0  0  0  0
  -31.6609  -15.2408   20.1579 O   0  0  0  0  0  0
  -21.6644   -6.8880   21.4240 O   0  0  0  0  0  0
  -22.3441  -14.5490   20.6736 O   0  0  0  0  0  0
  -24.6586  -31.8260   23.1716 C   0  0  0  0  0  0
  -25.9284  -32.4598   23.8171 C   0  0  1  0  0  0
  -27.2206  -26.9522   20.1913 C   0  0  0  0  0  0
  -25.5966  -33.8413   24.2080 N   0  0  0  0  0  0
  -23.4716  -30.4359   21.5201 C   0  0  2  0  0  0
  -24.9233  -28.8192   20.1170 C   0  0  0  0  0  0
  -22.7641  -29.4450   22.4800 C   0  0  0  0  0  0
  -18.0317  -28.1405   22.8469 C   0  0  0  0  0  0
  -24.1493  -36.7214   23.2647 C   0  0  0  0  0  0
  -26.0366  -30.6397   21.3975 C   0  0  0  0  0  0
  -26.1028  -29.2285   20.7502 C   0  0  0  0  0  0
  -27.2438  -28.3143   20.7635 C   0  0  0  0  0  0
  -26.0135  -26.6837   19.5098 C   0  0  0  0  0  0
  -24.9008  -27.5661   19.4794 C   0  0  0  0  0  0
  -23.7095  -29.7463   20.1475 C   0  0  0  0  0  0
  -25.4134  -36.2974   24.0300 C   0  0  1  0  0  0
  -20.5937  -28.3744   23.1202 C   0  0  2  0  0  0
  -20.6793  -26.9430   22.5406 C   0  0  0  0  0  0
  -19.5769  -26.6376   21.5215 C   0  0  0  0  0  0
  -18.1951  -26.7940   22.1622 C   0  0  0  0  0  0
  -19.1577  -28.8896   23.2823 C   0  0  0  0  0  0
  -18.9489  -30.1486   23.8856 C   0  0  0  0  0  0
  -17.6483  -30.6596   24.0556 C   0  0  0  0  0  0
  -25.9095  -34.9357   23.5012 C   0  0  0  0  0  0
  -16.5374  -29.9084   23.6341 C   0  0  0  0  0  0
  -16.7300  -28.6504   23.0361 C   0  0  0  0  0  0
  -26.4550  -31.6538   25.0691 C   0  0  0  0  0  0
  -25.3685  -31.3783   26.1353 C   0  0  0  0  0  0
  -27.0446  -30.2910   24.6404 C   0  0  0  0  0  0
  -27.6043  -32.4347   25.7494 C   0  0  0  0  0  0
  -27.5571  -37.1764   24.8465 C   0  0  0  0  0  0
  -21.4316  -29.3037   22.3552 N   0  0  0  0  0  0
  -26.4280  -37.3708   23.9407 N   0  0  0  0  0  0
  -24.7433  -30.9946   22.0836 N   0  0  0  0  0  0
  -23.4205  -28.8027   23.3037 O   0  0  0  0  0  0
  -28.2914  -25.9259   20.2089 O   0  0  0  0  0  0
  -26.5706  -34.8889   22.4608 O   0  0  0  0  0  0
  -23.5666  -32.1220   23.6830 O   0  0  0  0  0  0
  -29.3668  -23.6193   19.4594 C   0  0  0  0  0  0
  -27.8160  -22.0981   20.9928 C   0  0  0  0  0  0
  -29.5650  -22.1475   19.4986 C   0  0  0  0  0  0
  -28.7863  -21.2302   20.3130 C   0  0  0  0  0  0
  -28.3620  -24.3926   20.1670 C   0  0  0  0  0  0
  -31.5418  -21.1117   16.7284 C   0  0  0  0  0  0
  -30.2307  -20.6855   17.3972 C   0  0  0  0  0  0
  -31.5125  -22.3422   17.6405 C   0  0  0  0  0  0
  -30.6398  -21.5284   18.6155 C   0  0  0  0  0  0
  -28.7660  -19.4785   20.3644 C   0  0  0  0  0  0
  -29.9247  -18.1195   20.3742 C   0  0  0  0  0  0
  -27.6171  -23.5132   20.9444 N   0  0  0  0  0  0
  -29.6613  -16.4772   20.4590 N   0  0  0  0  0  0
  -31.4594  -12.9813   19.1930 H   0  0  0  0  0  0
  -30.4989  -11.8681   20.1187 H   0  0  0  0  0  0
  -29.9059  -11.7455   17.6729 H   0  0  0  0  0  0
  -29.5708  -13.4598   17.6522 H   0  0  0  0  0  0
  -28.0273  -11.2744   19.0712 H   0  0  0  0  0  0
  -27.4118  -12.3559   17.8474 H   0  0  0  0  0  0
  -27.5347  -14.2427   19.3360 H   0  0  0  0  0  0
  -28.8053  -12.4816   21.4868 H   0  0  0  0  0  0
  -28.2946  -14.1412   21.7010 H   0  0  0  0  0  0
  -25.2774   -9.5681   22.4763 H   0  0  0  0  0  0
  -24.0005   -7.4635   22.7477 H   0  0  0  0  0  0
  -21.0852   -8.8781   19.8952 H   0  0  0  0  0  0
  -22.3716  -10.9672   19.6165 H   0  0  0  0  0  0
  -21.2011   -7.6147   23.9715 H   0  0  0  0  0  0
  -21.1482   -6.0520   25.9076 H   0  0  0  0  0  0
  -22.0598   -2.7608   23.2846 H   0  0  0  0  0  0
  -22.4046  -11.9852   22.4859 H   0  0  0  0  0  0
  -21.1024  -13.1182   22.2648 H   0  0  0  0  0  0
  -24.6286  -15.8443   20.5262 H   0  0  0  0  0  0
  -26.2355  -15.6388   20.0503 H   0  0  0  0  0  0
  -26.7350  -32.5146   23.0884 H   0  0  0  0  0  0
  -25.0064  -33.9495   25.0197 H   0  0  0  0  0  0
  -22.7834  -31.2663   21.3487 H   0  0  0  0  0  0
  -23.3765  -35.9533   23.3281 H   0  0  0  0  0  0
  -24.3569  -36.8889   22.2067 H   0  0  0  0  0  0
  -23.7241  -37.6391   23.6721 H   0  0  0  0  0  0
  -26.2109  -31.3785   20.6143 H   0  0  0  0  0  0
  -26.8995  -30.7002   22.0488 H   0  0  0  0  0  0
  -28.1449  -28.6309   21.2695 H   0  0  0  0  0  0
  -25.9096  -25.7278   19.0162 H   0  0  0  0  0  0
  -24.0036  -27.2487   18.9658 H   0  0  0  0  0  0
  -23.8637  -30.5116   19.3861 H   0  0  0  0  0  0
  -22.8196  -29.1982   19.8328 H   0  0  0  0  0  0
  -25.1332  -36.1773   25.0791 H   0  0  0  0  0  0
  -21.0025  -28.3348   24.1326 H   0  0  0  0  0  0
  -20.5674  -26.2362   23.3642 H   0  0  0  0  0  0
  -21.6658  -26.7410   22.1214 H   0  0  0  0  0  0
  -19.6928  -25.6276   21.1273 H   0  0  0  0  0  0
  -19.6709  -27.3163   20.6726 H   0  0  0  0  0  0
  -17.4220  -26.6683   21.4025 H   0  0  0  0  0  0
  -18.0345  -26.0092   22.9029 H   0  0  0  0  0  0
  -19.7964  -30.7313   24.2208 H   0  0  0  0  0  0
  -17.5034  -31.6272   24.5165 H   0  0  0  0  0  0
  -15.5372  -30.2972   23.7688 H   0  0  0  0  0  0
  -15.8701  -28.0808   22.7100 H   0  0  0  0  0  0
  -24.5878  -30.7120   25.7665 H   0  0  0  0  0  0
  -24.8861  -32.2982   26.4665 H   0  0  0  0  0  0
  -25.7922  -30.9026   27.0207 H   0  0  0  0  0  0
  -26.3105  -29.6588   24.1398 H   0  0  0  0  0  0
  -27.3977  -29.7273   25.5049 H   0  0  0  0  0  0
  -27.9045  -30.4103   23.9810 H   0  0  0  0  0  0
  -27.2610  -33.3687   26.1955 H   0  0  0  0  0  0
  -28.3915  -32.6847   25.0368 H   0  0  0  0  0  0
  -28.0645  -31.8553   26.5508 H   0  0  0  0  0  0
  -28.2570  -38.0077   24.7512 H   0  0  0  0  0  0
  -28.1084  -36.2602   24.6294 H   0  0  0  0  0  0
  -27.2286  -37.1408   25.8868 H   0  0  0  0  0  0
  -20.9566  -29.8719   21.6677 H   0  0  0  0  0  0
  -26.0130  -38.2768   24.1413 H   0  0  0  0  0  0
  -30.0365  -24.2066   18.8492 H   0  0  0  0  0  0
  -27.0974  -21.6065   21.6318 H   0  0  0  0  0  0
  -31.4646  -21.3276   15.6619 H   0  0  0  0  0  0
  -32.3719  -20.4374   16.9473 H   0  0  0  0  0  0
  -30.1245  -19.6177   17.5862 H   0  0  0  0  0  0
  -29.3538  -21.0871   16.8859 H   0  0  0  0  0  0
  -30.9890  -23.1697   17.1597 H   0  0  0  0  0  0
  -32.4771  -22.6563   18.0403 H   0  0  0  0  0  0
  -31.2932  -20.9374   19.2617 H   0  0  0  0  0  0
  -28.1033  -19.2409   19.5319 H   0  0  0  0  0  0
  -28.1472  -19.2862   21.2413 H   0  0  0  0  0  0
  -30.6035  -18.3205   21.2034 H   0  0  0  0  0  0
  -30.5475  -18.2446   19.4886 H   0  0  0  0  0  0
  -28.6830  -16.2680   20.5948 H   0  0  0  0  0  0
  1 25  1  0  0  0
  1 30  2  0  0  0
  1 83  1  0  0  0
  2  3  1  0  0  0
  2 25  1  0  0  0
  2 84  1  0  0  0
  2 85  1  0  0  0
  3  4  1  0  0  0
  3 86  1  0  0  0
  3 87  1  0  0  0
  4  5  1  0  0  0
  4 88  1  0  0  0
  4 89  1  0  0  0
  5  6  1  0  0  0
  5 26  1  0  0  0
  5 90  1  0  0  0
  6 25  1  0  0  0
  6 91  1  0  0  0
  6 92  1  0  0  0
  7  8  2  0  0  0
  7 26  1  0  0  0
  7 29  1  0  0  0
  8  9  1  0  0  0
  8 22  1  0  0  0
  9 10  1  0  0  0
  9 27  2  0  0  0
 10 11  2  0  0  0
 10 15  1  0  0  0
 11 12  1  0  0  0
 11 93  1  0  0  0
 12 13  2  0  0  0
 12 94  1  0  0  0
 13 14  1  0  0  0
 13 31  1  0  0  0
 14 15  2  0  0  0
 14 95  1  0  0  0
 15 96  1  0  0  0
 16 17  2  0  0  0
 16 21  1  0  0  0
 16 31  1  0  0  0
 17 18  1  0  0  0
 17 97  1  0  0  0
 18 19  2  0  0  0
 18 98  1  0  0  0
 19 20  1  0  0  0
 19 24  1  0  0  0
 20 21  2  0  0  0
 20 99  1  0  0  0
 21 23  1  0  0  0
 22 28  1  0  0  0
 22 32  2  0  0  0
 26 27  1  0  0  0
 28100  1  0  0  0
 28101  1  0  0  0
 29102  1  0  0  0
 29103  1  0  0  0
 33 34  1  0  0  0
 33 66  1  0  0  0
 33 70  2  0  0  0
 34 36  1  0  0  0
 34 59  1  0  0  0
 34104  1  0  0  0
 35 44  2  0  0  0
 35 45  1  0  0  0
 35 68  1  0  0  0
 36 56  1  0  0  0
 36105  1  0  0  0
 37 39  1  0  0  0
 37 47  1  0  0  0
 37 66  1  0  0  0
 37106  1  0  0  0
 38 43  2  0  0  0
 38 46  1  0  0  0
 38 47  1  0  0  0
 39 64  1  0  0  0
 39 67  2  0  0  0
 40 52  1  0  0  0
 40 53  2  0  0  0
 40 58  1  0  0  0
 41107  1  0  0  0
 41108  1  0  0  0
 41109  1  0  0  0
 41 48  1  0  0  0
 42 43  1  0  0  0
 42 66  1  0  0  0
 42110  1  0  0  0
 42111  1  0  0  0
 43 44  1  0  0  0
 44112  1  0  0  0
 45 46  2  0  0  0
 45113  1  0  0  0
 46114  1  0  0  0
 47115  1  0  0  0
 47116  1  0  0  0
 48 56  1  0  0  0
 48 65  1  0  0  0
 48117  1  0  0  0
 49 50  1  0  0  0
 49 53  1  0  0  0
 49 64  1  0  0  0
 49118  1  0  0  0
 50 51  1  0  0  0
 50119  1  0  0  0
 50120  1  0  0  0
 51 52  1  0  0  0
 51121  1  0  0  0
 51122  1  0  0  0
 52123  1  0  0  0
 52124  1  0  0  0
 53 54  1  0  0  0
 54 55  2  0  0  0
 54125  1  0  0  0
 55 57  1  0  0  0
 55126  1  0  0  0
 56 69  2  0  0  0
 57 58  2  0  0  0
 57127  1  0  0  0
 58128  1  0  0  0
 59 60  1  0  0  0
 59 61  1  0  0  0
 59 62  1  0  0  0
 60129  1  0  0  0
 60130  1  0  0  0
 60131  1  0  0  0
 61132  1  0  0  0
 61133  1  0  0  0
 61134  1  0  0  0
 62135  1  0  0  0
 62136  1  0  0  0
 62137  1  0  0  0
 63 65  1  0  0  0
 63138  1  0  0  0
 63139  1  0  0  0
 63140  1  0  0  0
 64141  1  0  0  0
 65142  1  0  0  0
 68 75  1  0  0  0
 71 73  2  0  0  0
 71 75  1  0  0  0
 71143  1  0  0  0
 72 74  2  0  0  0
 72 82  1  0  0  0
 72144  1  0  0  0
 73 74  1  0  0  0
 73 79  1  0  0  0
 74 80  1  0  0  0
 75 82  2  0  0  0
 76 77  1  0  0  0
 76 78  1  0  0  0
 76145  1  0  0  0
 76146  1  0  0  0
 77 79  1  0  0  0
 77147  1  0  0  0
 77148  1  0  0  0
 78 79  1  0  0  0
 78149  1  0  0  0
 78150  1  0  0  0
 79151  1  0  0  0
 80 81  1  0  0  0
 80152  1  0  0  0
 80153  1  0  0  0
 81 83  1  0  0  0
 81154  1  0  0  0
 81155  1  0  0  0
 83156  1  0  0  0
M  ISO  4   1 100  68 101  75 101  83 100
M  END
> <chiral flag>
0

> <version>
0

> <s_m_source_file>
/data/baiqing/PycharmProjects/Reinvent-master-3.2/result/LINK_invent/BTK/process_docking_weight1_custom_sum_contain_oxygen_bond_distance_aromatic_linkinvent_7_9_3/rearranged_h_0138.sdf

> <i_m_source_file_index>
89

> <r_mmod_Potential_Energy-OPLS-2005>
932.392639160156

> <r_mmod_Stretch_Energy-OPLS-2005>
473.508087158203

> <r_mmod_Bend_Energy-OPLS-2005>
436.430694580078

> <r_mmod_Torsional_Energy-OPLS-2005>
230.889923095703

> <r_mmod_Improper_Torsional_Energy-OPLS-2005>
5.76486492156982

> <r_mmod_Van_der_Waal_Energy-OPLS-2005>
127.203659057617

> <r_mmod_Electrostatic_Energy-OPLS-2005>
-521.192687988281

> <r_mmod_Solvation_Energy-OPLS-2005>
-226.081390380859

> <b_mmod_Minimization_Converged-OPLS-2005>
0

> <r_mmod_RMS_Derivative-OPLS-2005>
0.228765428066254

$$$$
89
                    3D
 Structure written by MMmdl.
167175  0  0  1  0            999 V2000
  -30.6570  -14.5711   20.5286 C   0  0  0  0  0  0
  -30.4350  -12.3564   19.4255 C   0  0  0  0  0  0
  -29.4909  -12.4982   18.2115 C   0  0  0  0  0  0
  -28.0122  -12.3636   18.6334 C   0  0  0  0  0  0
  -27.6567  -13.2247   19.8754 C   0  0  2  0  0  0
  -28.7088  -13.0351   20.9916 C   0  0  0  0  0  0
  -25.2529  -13.8197   20.5763 C   0  0  0  0  0  0
  -24.1836  -13.0397   20.9247 C   0  0  0  0  0  0
  -24.6436  -11.6897   20.8778 C   0  0  0  0  0  0
  -23.9129  -10.4270   21.0400 C   0  0  0  0  0  0
  -24.3655   -9.4176   21.9169 C   0  0  0  0  0  0
  -23.6302   -8.2220   22.0724 C   0  0  0  0  0  0
  -22.4274   -8.0281   21.3523 C   0  0  0  0  0  0
  -21.9932   -9.0262   20.4629 C   0  0  0  0  0  0
  -22.7295  -10.2135   20.3044 C   0  0  0  0  0  0
  -21.6850   -6.0749   22.5274 C   0  0  0  0  0  0
  -21.4026   -6.5629   23.8222 C   0  0  0  0  0  0
  -21.3642   -5.6778   24.9154 C   0  0  0  0  0  0
  -21.6059   -4.3041   24.7221 C   0  0  0  0  0  0
  -21.8830   -3.8132   23.4325 C   0  0  0  0  0  0
  -21.9205   -4.6968   22.3389 C   0  0  0  0  0  0
  -22.7843  -13.5151   21.1923 C   0  0  0  0  0  0
  -22.1659   -4.2162   21.0963 F   0  0  0  0  0  0
  -21.5634   -3.4525   25.7714 F   0  0  0  0  0  0
  -30.0242  -13.3663   20.4251 N   0  0  0  0  0  0
  -26.3022  -12.9425   20.3422 N   0  0  0  0  0  0
  -25.9393  -11.6551   20.5865 N   0  0  0  0  0  0
  -22.0517  -12.8092   22.0454 N   0  0  0  0  0  0
  -25.4123  -15.1935   20.4185 N   0  0  0  0  0  0
  -31.8130  -14.7399   20.1316 O   0  0  0  0  0  0
  -21.6630   -6.8876   21.4221 O   0  0  0  0  0  0
  -22.3482  -14.5441   20.6776 O   0  0  0  0  0  0
  -24.6168  -31.8660   23.2087 C   0  0  0  0  0  0
  -25.9087  -32.4787   23.8330 C   0  0  1  0  0  0
  -27.2345  -27.3995   20.0836 C   0  0  0  0  0  0
  -25.5947  -33.8587   24.2286 N   0  0  0  0  0  0
  -23.4036  -30.4930   21.5503 C   0  0  2  0  0  0
  -24.8438  -28.9453   20.1195 C   0  0  0  0  0  0
  -22.7429  -29.4695   22.5016 C   0  0  0  0  0  0
  -18.0351  -28.1311   22.8423 C   0  0  0  0  0  0
  -24.1499  -36.7287   23.2639 C   0  0  0  0  0  0
  -25.9384  -30.8140   21.3716 C   0  0  0  0  0  0
  -26.0065  -29.4479   20.7123 C   0  0  0  0  0  0
  -27.2030  -28.6864   20.6829 C   0  0  0  0  0  0
  -26.0433  -26.9113   19.4991 C   0  0  0  0  0  0
  -24.8591  -27.6788   19.5080 C   0  0  0  0  0  0
  -23.6045  -29.8182   20.1674 C   0  0  0  0  0  0
  -25.4126  -36.3091   24.0351 C   0  0  1  0  0  0
  -20.5891  -28.3675   23.1345 C   0  0  2  0  0  0
  -20.6886  -26.9402   22.5496 C   0  0  0  0  0  0
  -19.5948  -26.6308   21.5298 C   0  0  0  0  0  0
  -18.2067  -26.7850   22.1591 C   0  0  0  0  0  0
  -19.1553  -28.8822   23.2855 C   0  0  0  0  0  0
  -18.9431  -30.1417   23.8863 C   0  0  0  0  0  0
  -17.6406  -30.6487   24.0510 C   0  0  0  0  0  0
  -25.9075  -34.9449   23.5122 C   0  0  0  0  0  0
  -16.5344  -29.8931   23.6210 C   0  0  0  0  0  0
  -16.7311  -28.6340   23.0295 C   0  0  0  0  0  0
  -26.4489  -31.6544   25.0638 C   0  0  0  0  0  0
  -25.3748  -31.3650   26.1389 C   0  0  0  0  0  0
  -27.0351  -30.2957   24.6086 C   0  0  0  0  0  0
  -27.6038  -32.4290   25.7418 C   0  0  0  0  0  0
  -27.5592  -37.1828   24.8480 C   0  0  0  0  0  0
  -21.4141  -29.3091   22.3799 N   0  0  0  0  0  0
  -26.4297  -37.3779   23.9437 N   0  0  0  0  0  0
  -24.6718  -31.0722   22.1007 N   0  0  0  0  0  0
  -23.4237  -28.8197   23.2995 O   0  0  0  0  0  0
  -28.4249  -26.6809   20.0948 O   0  0  0  0  0  0
  -26.5607  -34.8900   22.4654 O   0  0  0  0  0  0
  -23.5379  -32.1441   23.7495 O   0  0  0  0  0  0
  -27.8254  -24.5768   21.9554 C   0  0  0  0  0  0
  -27.5182  -23.6054   22.9142 C   0  0  0  0  0  0
  -28.3050  -22.8010   20.3640 C   0  0  0  0  0  0
  -28.1996  -24.1981   20.6577 C   0  0  0  0  0  0
  -27.5119  -22.2270   22.6028 C   0  0  0  0  0  0
  -27.9565  -21.7906   21.3152 C   0  0  0  0  0  0
  -23.3027  -21.4834   24.9496 C   0  0  0  0  0  0
  -26.9561  -21.2956   23.6816 C   0  0  0  0  0  0
  -28.5098  -25.3028   19.6207 C   0  0  0  0  0  0
  -28.9712  -18.0592   20.9983 C   0  0  0  0  0  0
  -29.2035  -19.6153   20.8667 C   0  0  0  0  0  0
  -30.2022  -17.0883   20.8011 C   0  0  0  0  0  0
  -24.6518  -20.8244   24.5914 C   0  0  0  0  0  0
  -27.9547  -20.4125   20.9613 N   0  0  0  0  0  0
  -29.8781  -15.6306   20.8971 N   0  0  0  0  0  0
  -25.6498  -21.8178   24.1549 N   0  3  0  0  0  0
  -31.4710  -12.4805   19.1060 H   0  0  0  0  0  0
  -30.3686  -11.3530   19.8458 H   0  0  0  0  0  0
  -29.7242  -11.7351   17.4669 H   0  0  0  0  0  0
  -29.6515  -13.4657   17.7296 H   0  0  0  0  0  0
  -27.8267  -11.3115   18.8555 H   0  0  0  0  0  0
  -27.3594  -12.6200   17.7991 H   0  0  0  0  0  0
  -27.6867  -14.2696   19.5574 H   0  0  0  0  0  0
  -28.7160  -12.0002   21.3393 H   0  0  0  0  0  0
  -28.4735  -13.6445   21.8637 H   0  0  0  0  0  0
  -25.2809   -9.5642   22.4744 H   0  0  0  0  0  0
  -24.0032   -7.4589   22.7416 H   0  0  0  0  0  0
  -21.0875   -8.8802   19.8920 H   0  0  0  0  0  0
  -22.3763  -10.9676   19.6161 H   0  0  0  0  0  0
  -21.2021   -7.6142   23.9742 H   0  0  0  0  0  0
  -21.1452   -6.0479   25.9083 H   0  0  0  0  0  0
  -22.0638   -2.7603   23.2812 H   0  0  0  0  0  0
  -22.4124  -11.9737   22.4846 H   0  0  0  0  0  0
  -21.1153  -13.1077   22.2718 H   0  0  0  0  0  0
  -24.6403  -15.8336   20.5755 H   0  0  0  0  0  0
  -26.2544  -15.6571   20.0981 H   0  0  0  0  0  0
  -26.7124  -32.5406   23.1059 H   0  0  0  0  0  0
  -25.0065  -33.9728   25.0414 H   0  0  0  0  0  0
  -22.6942  -31.3117   21.4186 H   0  0  0  0  0  0
  -23.3767  -35.9616   23.3311 H   0  0  0  0  0  0
  -24.3569  -36.8879   22.2046 H   0  0  0  0  0  0
  -23.7252  -37.6504   23.6622 H   0  0  0  0  0  0
  -26.0696  -31.5877   20.6128 H   0  0  0  0  0  0
  -26.8182  -30.8478   22.0045 H   0  0  0  0  0  0
  -28.1086  -29.0775   21.1268 H   0  0  0  0  0  0
  -26.0061  -25.9421   19.0282 H   0  0  0  0  0  0
  -23.9683  -27.2908   19.0365 H   0  0  0  0  0  0
  -23.6952  -30.5877   19.4023 H   0  0  0  0  0  0
  -22.7237  -29.2402   19.8833 H   0  0  0  0  0  0
  -25.1323  -36.1919   25.0845 H   0  0  0  0  0  0
  -20.9857  -28.3293   24.1503 H   0  0  0  0  0  0
  -20.5815  -26.2258   23.3693 H   0  0  0  0  0  0
  -21.6780  -26.7562   22.1243 H   0  0  0  0  0  0
  -19.7177  -25.6153   21.1473 H   0  0  0  0  0  0
  -19.6927  -27.3128   20.6817 H   0  0  0  0  0  0
  -17.4372  -26.6639   21.3940 H   0  0  0  0  0  0
  -18.0358  -25.9959   22.8923 H   0  0  0  0  0  0
  -19.7862  -30.7230   24.2306 H   0  0  0  0  0  0
  -17.4887  -31.6124   24.5131 H   0  0  0  0  0  0
  -15.5293  -30.2797   23.7456 H   0  0  0  0  0  0
  -15.8741  -28.0570   22.7049 H   0  0  0  0  0  0
  -24.5930  -30.6991   25.7718 H   0  0  0  0  0  0
  -24.8921  -32.2798   26.4843 H   0  0  0  0  0  0
  -25.8105  -30.8791   27.0128 H   0  0  0  0  0  0
  -26.2899  -29.6681   24.1171 H   0  0  0  0  0  0
  -27.4124  -29.7231   25.4579 H   0  0  0  0  0  0
  -27.8731  -30.4253   23.9226 H   0  0  0  0  0  0
  -27.2629  -33.3590   26.2008 H   0  0  0  0  0  0
  -28.3832  -32.6898   25.0231 H   0  0  0  0  0  0
  -28.0721  -31.8380   26.5335 H   0  0  0  0  0  0
  -28.2654  -38.0089   24.7515 H   0  0  0  0  0  0
  -28.1051  -36.2635   24.6325 H   0  0  0  0  0  0
  -27.2294  -37.1484   25.8873 H   0  0  0  0  0  0
  -20.9206  -29.8872   21.7141 H   0  0  0  0  0  0
  -26.0189  -38.2862   24.1384 H   0  0  0  0  0  0
  -27.7581  -25.6175   22.2325 H   0  0  0  0  0  0
  -27.2234  -23.9545   23.8953 H   0  0  0  0  0  0
  -28.5977  -22.5042   19.3700 H   0  0  0  0  0  0
  -22.5511  -20.7365   25.2099 H   0  0  0  0  0  0
  -22.9027  -22.0610   24.1159 H   0  0  0  0  0  0
  -23.3974  -22.1594   25.8011 H   0  0  0  0  0  0
  -27.6628  -21.2391   24.5117 H   0  0  0  0  0  0
  -26.8474  -20.2823   23.3018 H   0  0  0  0  0  0
  -27.9416  -25.1434   18.7029 H   0  0  0  0  0  0
  -29.5532  -25.1611   19.3290 H   0  0  0  0  0  0
  -28.2039  -17.7764   20.2758 H   0  0  0  0  0  0
  -28.5322  -17.8649   21.9774 H   0  0  0  0  0  0
  -29.6690  -19.8285   19.8992 H   0  0  0  0  0  0
  -29.9026  -19.9505   21.6347 H   0  0  0  0  0  0
  -30.6416  -17.2827   19.8193 H   0  0  0  0  0  0
  -30.9825  -17.3310   21.5257 H   0  0  0  0  0  0
  -24.4940  -20.0973   23.7939 H   0  0  0  0  0  0
  -25.0366  -20.2743   25.4499 H   0  0  0  0  0  0
  -27.1579  -19.8804   21.3032 H   0  0  0  0  0  0
  -28.9383  -15.3978   21.1676 H   0  0  0  0  0  0
  -25.2540  -22.3313   23.3891 H   0  0  0  0  0  0
  -25.8255  -22.4718   24.9013 H   0  0  0  0  0  0
  1 25  1  0  0  0
  1 30  2  0  0  0
  1 85  1  0  0  0
  2  3  1  0  0  0
  2 25  1  0  0  0
  2 87  1  0  0  0
  2 88  1  0  0  0
  3  4  1  0  0  0
  3 89  1  0  0  0
  3 90  1  0  0  0
  4  5  1  0  0  0
  4 91  1  0  0  0
  4 92  1  0  0  0
  5  6  1  0  0  0
  5 26  1  0  0  0
  5 93  1  0  0  0
  6 25  1  0  0  0
  6 94  1  0  0  0
  6 95  1  0  0  0
  7  8  2  0  0  0
  7 26  1  0  0  0
  7 29  1  0  0  0
  8  9  1  0  0  0
  8 22  1  0  0  0
  9 10  1  0  0  0
  9 27  2  0  0  0
 10 11  2  0  0  0
 10 15  1  0  0  0
 11 12  1  0  0  0
 11 96  1  0  0  0
 12 13  2  0  0  0
 12 97  1  0  0  0
 13 14  1  0  0  0
 13 31  1  0  0  0
 14 15  2  0  0  0
 14 98  1  0  0  0
 15 99  1  0  0  0
 16 17  2  0  0  0
 16 21  1  0  0  0
 16 31  1  0  0  0
 17 18  1  0  0  0
 17100  1  0  0  0
 18 19  2  0  0  0
 18101  1  0  0  0
 19 20  1  0  0  0
 19 24  1  0  0  0
 20 21  2  0  0  0
 20102  1  0  0  0
 21 23  1  0  0  0
 22 28  1  0  0  0
 22 32  2  0  0  0
 26 27  1  0  0  0
 28103  1  0  0  0
 28104  1  0  0  0
 29105  1  0  0  0
 29106  1  0  0  0
 33 34  1  0  0  0
 33 66  1  0  0  0
 33 70  2  0  0  0
 34 36  1  0  0  0
 34 59  1  0  0  0
 34107  1  0  0  0
 35 44  2  0  0  0
 35 45  1  0  0  0
 35 68  1  0  0  0
 36 56  1  0  0  0
 36108  1  0  0  0
 37 39  1  0  0  0
 37 47  1  0  0  0
 37 66  1  0  0  0
 37109  1  0  0  0
 38 43  2  0  0  0
 38 46  1  0  0  0
 38 47  1  0  0  0
 39 64  1  0  0  0
 39 67  2  0  0  0
 40 52  1  0  0  0
 40 53  2  0  0  0
 40 58  1  0  0  0
 41110  1  0  0  0
 41111  1  0  0  0
 41112  1  0  0  0
 41 48  1  0  0  0
 42 43  1  0  0  0
 42 66  1  0  0  0
 42113  1  0  0  0
 42114  1  0  0  0
 43 44  1  0  0  0
 44115  1  0  0  0
 45 46  2  0  0  0
 45116  1  0  0  0
 46117  1  0  0  0
 47118  1  0  0  0
 47119  1  0  0  0
 48 56  1  0  0  0
 48 65  1  0  0  0
 48120  1  0  0  0
 49 50  1  0  0  0
 49 53  1  0  0  0
 49 64  1  0  0  0
 49121  1  0  0  0
 50 51  1  0  0  0
 50122  1  0  0  0
 50123  1  0  0  0
 51 52  1  0  0  0
 51124  1  0  0  0
 51125  1  0  0  0
 52126  1  0  0  0
 52127  1  0  0  0
 53 54  1  0  0  0
 54 55  2  0  0  0
 54128  1  0  0  0
 55 57  1  0  0  0
 55129  1  0  0  0
 56 69  2  0  0  0
 57 58  2  0  0  0
 57130  1  0  0  0
 58131  1  0  0  0
 59 60  1  0  0  0
 59 61  1  0  0  0
 59 62  1  0  0  0
 60132  1  0  0  0
 60133  1  0  0  0
 60134  1  0  0  0
 61135  1  0  0  0
 61136  1  0  0  0
 61137  1  0  0  0
 62138  1  0  0  0
 62139  1  0  0  0
 62140  1  0  0  0
 63 65  1  0  0  0
 63141  1  0  0  0
 63142  1  0  0  0
 63143  1  0  0  0
 64144  1  0  0  0
 65145  1  0  0  0
 68 79  1  0  0  0
 71 72  2  0  0  0
 71 74  1  0  0  0
 71146  1  0  0  0
 72 75  1  0  0  0
 72147  1  0  0  0
 73 74  2  0  0  0
 73 76  1  0  0  0
 73148  1  0  0  0
 74 79  1  0  0  0
 75 76  2  0  0  0
 75 78  1  0  0  0
 76 84  1  0  0  0
 77 83  1  0  0  0
 77149  1  0  0  0
 77150  1  0  0  0
 77151  1  0  0  0
 78 86  1  0  0  0
 78152  1  0  0  0
 78153  1  0  0  0
 79154  1  0  0  0
 79155  1  0  0  0
 80 81  1  0  0  0
 80 82  1  0  0  0
 80156  1  0  0  0
 80157  1  0  0  0
 81 84  1  0  0  0
 81158  1  0  0  0
 81159  1  0  0  0
 82 85  1  0  0  0
 82160  1  0  0  0
 82161  1  0  0  0
 83 86  1  0  0  0
 83162  1  0  0  0
 83163  1  0  0  0
 84164  1  0  0  0
 85165  1  0  0  0
 86166  1  0  0  0
 86167  1  0  0  0
M  CHG  1  86   1
M  ISO  4   1 100  68 101  79 101  85 100
M  END
> <chiral flag>
0

> <version>
0

> <s_m_source_file>
/data/baiqing/PycharmProjects/Reinvent-master-3.2/result/LINK_invent/BTK/process_docking_weight1_custom_sum_contain_oxygen_bond_distance_aromatic_linkinvent_7_9_3/rearranged_h_0138.sdf

> <i_m_source_file_index>
90

> <r_mmod_Potential_Energy-OPLS-2005>
-188.163604736328

> <r_mmod_Stretch_Energy-OPLS-2005>
59.8926620483398

> <r_mmod_Bend_Energy-OPLS-2005>
124.699920654297

> <r_mmod_Torsional_Energy-OPLS-2005>
218.691665649414

> <r_mmod_Improper_Torsional_Energy-OPLS-2005>
7.71977519989014

> <r_mmod_Van_der_Waal_Energy-OPLS-2005>
142.632995605469

> <r_mmod_Electrostatic_Energy-OPLS-2005>
-283.315582275391

> <r_mmod_Solvation_Energy-OPLS-2005>
-482.699035644531

> <b_mmod_Minimization_Converged-OPLS-2005>
0

> <r_mmod_RMS_Derivative-OPLS-2005>
7.56247806549072

$$$$
90
                    3D
 Structure written by MMmdl.
166175  0  0  1  0            999 V2000
  -30.7330  -14.4476   20.5583 C   0  0  0  0  0  0
  -30.4109  -12.2907   19.4245 C   0  0  0  0  0  0
  -29.4899  -12.4963   18.2055 C   0  0  0  0  0  0
  -28.0115  -12.3658   18.6175 C   0  0  0  0  0  0
  -27.6585  -13.2117   19.8701 C   0  0  2  0  0  0
  -28.7006  -13.0154   20.9947 C   0  0  0  0  0  0
  -25.2582  -13.8178   20.5681 C   0  0  0  0  0  0
  -24.1841  -13.0449   20.9180 C   0  0  0  0  0  0
  -24.6391  -11.6915   20.8734 C   0  0  0  0  0  0
  -23.9056  -10.4300   21.0409 C   0  0  0  0  0  0
  -24.3609   -9.4214   21.9183 C   0  0  0  0  0  0
  -23.6285   -8.2247   22.0749 C   0  0  0  0  0  0
  -22.4270   -8.0281   21.3536 C   0  0  0  0  0  0
  -21.9909   -9.0255   20.4637 C   0  0  0  0  0  0
  -22.7234  -10.2138   20.3050 C   0  0  0  0  0  0
  -21.6855   -6.0733   22.5277 C   0  0  0  0  0  0
  -21.4017   -6.5637   23.8211 C   0  0  0  0  0  0
  -21.3659   -5.6791   24.9173 C   0  0  0  0  0  0
  -21.6041   -4.3053   24.7223 C   0  0  0  0  0  0
  -21.8826   -3.8146   23.4346 C   0  0  0  0  0  0
  -21.9191   -4.6959   22.3401 C   0  0  0  0  0  0
  -22.7859  -13.5240   21.1854 C   0  0  0  0  0  0
  -22.1666   -4.2143   21.0977 F   0  0  0  0  0  0
  -21.5624   -3.4533   25.7735 F   0  0  0  0  0  0
  -30.0323  -13.2907   20.4342 N   0  0  0  0  0  0
  -26.3012  -12.9351   20.3347 N   0  0  0  0  0  0
  -25.9314  -11.6508   20.5748 N   0  0  0  0  0  0
  -22.0506  -12.8217   22.0402 N   0  0  0  0  0  0
  -25.4326  -15.1893   20.4093 N   0  0  0  0  0  0
  -31.8836  -14.5764   20.1363 O   0  0  0  0  0  0
  -21.6635   -6.8873   21.4241 O   0  0  0  0  0  0
  -22.3541  -14.5546   20.6705 O   0  0  0  0  0  0
  -24.6129  -31.8687   23.2101 C   0  0  0  0  0  0
  -25.9034  -32.4817   23.8392 C   0  0  1  0  0  0
  -27.2338  -27.4449   20.1025 C   0  0  0  0  0  0
  -25.5896  -33.8616   24.2331 N   0  0  0  0  0  0
  -23.3995  -30.4931   21.5499 C   0  0  2  0  0  0
  -24.8459  -28.9557   20.1165 C   0  0  0  0  0  0
  -22.7388  -29.4689   22.5000 C   0  0  0  0  0  0
  -18.0268  -28.1383   22.8503 C   0  0  0  0  0  0
  -24.1485  -36.7325   23.2639 C   0  0  0  0  0  0
  -25.9258  -30.8378   21.3591 C   0  0  0  0  0  0
  -26.0041  -29.4711   20.7116 C   0  0  0  0  0  0
  -27.2031  -28.7241   20.6998 C   0  0  0  0  0  0
  -26.0628  -26.9430   19.4940 C   0  0  0  0  0  0
  -24.8693  -27.6898   19.5039 C   0  0  0  0  0  0
  -23.6064  -29.8209   20.1655 C   0  0  0  0  0  0
  -25.4101  -36.3111   24.0341 C   0  0  1  0  0  0
  -20.5855  -28.3677   23.1325 C   0  0  2  0  0  0
  -20.6762  -26.9418   22.5421 C   0  0  0  0  0  0
  -19.5742  -26.6401   21.5213 C   0  0  0  0  0  0
  -18.1920  -26.7932   22.1629 C   0  0  0  0  0  0
  -19.1516  -28.8844   23.2914 C   0  0  0  0  0  0
  -18.9447  -30.1447   23.8930 C   0  0  0  0  0  0
  -17.6451  -30.6591   24.0576 C   0  0  0  0  0  0
  -25.9033  -34.9475   23.5136 C   0  0  0  0  0  0
  -16.5342  -29.9100   23.6322 C   0  0  0  0  0  0
  -16.7258  -28.6511   23.0352 C   0  0  0  0  0  0
  -26.4470  -31.6579   25.0708 C   0  0  0  0  0  0
  -25.3749  -31.3660   26.1461 C   0  0  0  0  0  0
  -27.0289  -30.3028   24.6053 C   0  0  0  0  0  0
  -27.6054  -32.4279   25.7473 C   0  0  0  0  0  0
  -27.5584  -37.1808   24.8463 C   0  0  0  0  0  0
  -21.4122  -29.3047   22.3727 N   0  0  0  0  0  0
  -26.4290  -37.3794   23.9416 N   0  0  0  0  0  0
  -24.6645  -31.0804   22.0988 N   0  0  0  0  0  0
  -23.4166  -28.8242   23.3051 O   0  0  0  0  0  0
  -28.4026  -26.7188   20.0840 O   0  0  0  0  0  0
  -26.5597  -34.8928   22.4698 O   0  0  0  0  0  0
  -23.5330  -32.1444   23.7505 O   0  0  0  0  0  0
  -29.2440  -24.5100   18.4286 C   0  0  0  0  0  0
  -29.9902  -23.5786   17.6869 C   0  0  0  0  0  0
  -29.7354  -23.2624   20.4597 C   0  0  0  0  0  0
  -29.1272  -24.3707   19.8236 C   0  0  0  0  0  0
  -30.6329  -22.4943   18.3225 C   0  0  0  0  0  0
  -30.5005  -22.3175   19.7293 C   0  0  0  0  0  0
  -30.8942  -17.4675   19.6383 C   0  0  0  0  0  0
  -29.5847  -17.8965   21.6919 C   0  0  0  0  0  0
  -31.5264  -18.8669   19.7539 C   0  0  0  0  0  0
  -30.1744  -19.3344   21.7504 C   0  0  0  0  0  0
  -30.5659  -16.9022   21.0374 C   0  0  1  0  0  0
  -31.4647  -21.5665   17.4533 C   0  0  0  0  0  0
  -31.2403  -21.2102   20.5012 C   0  0  0  0  0  0
  -28.3265  -25.3910   20.6248 C   0  0  0  0  0  0
  -30.0469  -15.5183   21.0032 N   0  0  0  0  0  0
  -30.6249  -19.8487   20.4212 N   0  3  1  0  0  0
  -31.4570  -12.3680   19.1226 H   0  0  0  0  0  0
  -30.2933  -11.2845   19.8300 H   0  0  0  0  0  0
  -29.7247  -11.7704   17.4258 H   0  0  0  0  0  0
  -29.6659  -13.4811   17.7693 H   0  0  0  0  0  0
  -27.8170  -11.3114   18.8163 H   0  0  0  0  0  0
  -27.3637  -12.6427   17.7851 H   0  0  0  0  0  0
  -27.6984  -14.2562   19.5607 H   0  0  0  0  0  0
  -28.6662  -11.9924   21.3720 H   0  0  0  0  0  0
  -28.4717  -13.6516   21.8505 H   0  0  0  0  0  0
  -25.2758   -9.5677   22.4755 H   0  0  0  0  0  0
  -23.9990   -7.4637   22.7466 H   0  0  0  0  0  0
  -21.0845   -8.8773   19.8935 H   0  0  0  0  0  0
  -22.3699  -10.9673   19.6151 H   0  0  0  0  0  0
  -21.2024   -7.6148   23.9710 H   0  0  0  0  0  0
  -21.1470   -6.0522   25.9074 H   0  0  0  0  0  0
  -22.0606   -2.7607   23.2845 H   0  0  0  0  0  0
  -22.4138  -11.9866   22.4761 H   0  0  0  0  0  0
  -21.1116  -13.1215   22.2618 H   0  0  0  0  0  0
  -24.6689  -15.8475   20.5204 H   0  0  0  0  0  0
  -26.2848  -15.6228   20.0781 H   0  0  0  0  0  0
  -26.7105  -32.5535   23.1157 H   0  0  0  0  0  0
  -25.0022  -33.9770   25.0460 H   0  0  0  0  0  0
  -22.6882  -31.3094   21.4092 H   0  0  0  0  0  0
  -23.3742  -35.9661   23.3285 H   0  0  0  0  0  0
  -24.3592  -36.8956   22.2058 H   0  0  0  0  0  0
  -23.7239  -37.6527   23.6663 H   0  0  0  0  0  0
  -26.0310  -31.5998   20.5854 H   0  0  0  0  0  0
  -26.8173  -30.8967   21.9721 H   0  0  0  0  0  0
  -28.0987  -29.1214   21.1567 H   0  0  0  0  0  0
  -26.0737  -25.9801   19.0019 H   0  0  0  0  0  0
  -23.9809  -27.2890   19.0351 H   0  0  0  0  0  0
  -23.7107  -30.5928   19.4020 H   0  0  0  0  0  0
  -22.7309  -29.2379   19.8738 H   0  0  0  0  0  0
  -25.1271  -36.1979   25.0834 H   0  0  0  0  0  0
  -20.9951  -28.3248   24.1445 H   0  0  0  0  0  0
  -20.5665  -26.2291   23.3608 H   0  0  0  0  0  0
  -21.6637  -26.7469   22.1215 H   0  0  0  0  0  0
  -19.6911  -25.6318   21.1227 H   0  0  0  0  0  0
  -19.6674  -27.3223   20.6752 H   0  0  0  0  0  0
  -17.4190  -26.6685   21.4030 H   0  0  0  0  0  0
  -18.0326  -26.0063   22.9016 H   0  0  0  0  0  0
  -19.7924  -30.7250   24.2322 H   0  0  0  0  0  0
  -17.5011  -31.6271   24.5177 H   0  0  0  0  0  0
  -15.5346  -30.3018   23.7623 H   0  0  0  0  0  0
  -15.8658  -28.0834   22.7065 H   0  0  0  0  0  0
  -24.5931  -30.6995   25.7802 H   0  0  0  0  0  0
  -24.8918  -32.2795   26.4933 H   0  0  0  0  0  0
  -25.8121  -30.8820   27.0203 H   0  0  0  0  0  0
  -26.2810  -29.6792   24.1140 H   0  0  0  0  0  0
  -27.4110  -29.7259   25.4486 H   0  0  0  0  0  0
  -27.8621  -30.4355   23.9149 H   0  0  0  0  0  0
  -27.2686  -33.3572   26.2080 H   0  0  0  0  0  0
  -28.3852  -32.6844   25.0289 H   0  0  0  0  0  0
  -28.0728  -31.8370   26.5362 H   0  0  0  0  0  0
  -28.2587  -38.0121   24.7533 H   0  0  0  0  0  0
  -28.1094  -36.2654   24.6253 H   0  0  0  0  0  0
  -27.2311  -37.1415   25.8867 H   0  0  0  0  0  0
  -20.9283  -29.8764   21.6941 H   0  0  0  0  0  0
  -26.0182  -38.2872   24.1421 H   0  0  0  0  0  0
  -28.7699  -25.3401   17.9231 H   0  0  0  0  0  0
  -30.0808  -23.7162   16.6178 H   0  0  0  0  0  0
  -29.6393  -23.1594   21.5315 H   0  0  0  0  0  0
  -31.5969  -16.8297   19.1035 H   0  0  0  0  0  0
  -29.9952  -17.5078   19.0203 H   0  0  0  0  0  0
  -28.6436  -17.9119   21.1399 H   0  0  0  0  0  0
  -29.3386  -17.5697   22.7031 H   0  0  0  0  0  0
  -31.7994  -19.2071   18.7588 H   0  0  0  0  0  0
  -32.4626  -18.7948   20.3110 H   0  0  0  0  0  0
  -31.0214  -19.3380   22.4393 H   0  0  0  0  0  0
  -29.4342  -20.0165   22.1713 H   0  0  0  0  0  0
  -31.4816  -16.8796   21.6330 H   0  0  0  0  0  0
  -31.6422  -22.0012   16.4684 H   0  0  0  0  0  0
  -30.9417  -20.6244   17.2939 H   0  0  0  0  0  0
  -32.4446  -21.3739   17.8889 H   0  0  0  0  0  0
  -31.3136  -21.5195   21.5446 H   0  0  0  0  0  0
  -32.2783  -21.1867   20.1694 H   0  0  0  0  0  0
  -28.7264  -25.4327   21.6386 H   0  0  0  0  0  0
  -27.3064  -25.0184   20.7236 H   0  0  0  0  0  0
  -29.1015  -15.3553   21.3183 H   0  0  0  0  0  0
  -29.8027  -19.9529   19.8456 H   0  0  0  0  0  0
  1 25  1  0  0  0
  1 30  2  0  0  0
  1 85  1  0  0  0
  2  3  1  0  0  0
  2 25  1  0  0  0
  2 87  1  0  0  0
  2 88  1  0  0  0
  3  4  1  0  0  0
  3 89  1  0  0  0
  3 90  1  0  0  0
  4  5  1  0  0  0
  4 91  1  0  0  0
  4 92  1  0  0  0
  5  6  1  0  0  0
  5 26  1  0  0  0
  5 93  1  0  0  0
  6 25  1  0  0  0
  6 94  1  0  0  0
  6 95  1  0  0  0
  7  8  2  0  0  0
  7 26  1  0  0  0
  7 29  1  0  0  0
  8  9  1  0  0  0
  8 22  1  0  0  0
  9 10  1  0  0  0
  9 27  2  0  0  0
 10 11  2  0  0  0
 10 15  1  0  0  0
 11 12  1  0  0  0
 11 96  1  0  0  0
 12 13  2  0  0  0
 12 97  1  0  0  0
 13 14  1  0  0  0
 13 31  1  0  0  0
 14 15  2  0  0  0
 14 98  1  0  0  0
 15 99  1  0  0  0
 16 17  2  0  0  0
 16 21  1  0  0  0
 16 31  1  0  0  0
 17 18  1  0  0  0
 17100  1  0  0  0
 18 19  2  0  0  0
 18101  1  0  0  0
 19 20  1  0  0  0
 19 24  1  0  0  0
 20 21  2  0  0  0
 20102  1  0  0  0
 21 23  1  0  0  0
 22 28  1  0  0  0
 22 32  2  0  0  0
 26 27  1  0  0  0
 28103  1  0  0  0
 28104  1  0  0  0
 29105  1  0  0  0
 29106  1  0  0  0
 33 34  1  0  0  0
 33 66  1  0  0  0
 33 70  2  0  0  0
 34 36  1  0  0  0
 34 59  1  0  0  0
 34107  1  0  0  0
 35 44  2  0  0  0
 35 45  1  0  0  0
 35 68  1  0  0  0
 36 56  1  0  0  0
 36108  1  0  0  0
 37 39  1  0  0  0
 37 47  1  0  0  0
 37 66  1  0  0  0
 37109  1  0  0  0
 38 43  2  0  0  0
 38 46  1  0  0  0
 38 47  1  0  0  0
 39 64  1  0  0  0
 39 67  2  0  0  0
 40 52  1  0  0  0
 40 53  2  0  0  0
 40 58  1  0  0  0
 41110  1  0  0  0
 41111  1  0  0  0
 41112  1  0  0  0
 41 48  1  0  0  0
 42 43  1  0  0  0
 42 66  1  0  0  0
 42113  1  0  0  0
 42114  1  0  0  0
 43 44  1  0  0  0
 44115  1  0  0  0
 45 46  2  0  0  0
 45116  1  0  0  0
 46117  1  0  0  0
 47118  1  0  0  0
 47119  1  0  0  0
 48 56  1  0  0  0
 48 65  1  0  0  0
 48120  1  0  0  0
 49 50  1  0  0  0
 49 53  1  0  0  0
 49 64  1  0  0  0
 49121  1  0  0  0
 50 51  1  0  0  0
 50122  1  0  0  0
 50123  1  0  0  0
 51 52  1  0  0  0
 51124  1  0  0  0
 51125  1  0  0  0
 52126  1  0  0  0
 52127  1  0  0  0
 53 54  1  0  0  0
 54 55  2  0  0  0
 54128  1  0  0  0
 55 57  1  0  0  0
 55129  1  0  0  0
 56 69  2  0  0  0
 57 58  2  0  0  0
 57130  1  0  0  0
 58131  1  0  0  0
 59 60  1  0  0  0
 59 61  1  0  0  0
 59 62  1  0  0  0
 60132  1  0  0  0
 60133  1  0  0  0
 60134  1  0  0  0
 61135  1  0  0  0
 61136  1  0  0  0
 61137  1  0  0  0
 62138  1  0  0  0
 62139  1  0  0  0
 62140  1  0  0  0
 63 65  1  0  0  0
 63141  1  0  0  0
 63142  1  0  0  0
 63143  1  0  0  0
 64144  1  0  0  0
 65145  1  0  0  0
 68 84  1  0  0  0
 71 72  2  0  0  0
 71 74  1  0  0  0
 71146  1  0  0  0
 72 75  1  0  0  0
 72147  1  0  0  0
 73 74  2  0  0  0
 73 76  1  0  0  0
 73148  1  0  0  0
 74 84  1  0  0  0
 75 76  2  0  0  0
 75 82  1  0  0  0
 76 83  1  0  0  0
 77 79  1  0  0  0
 77 81  1  0  0  0
 77149  1  0  0  0
 77150  1  0  0  0
 78 80  1  0  0  0
 78 81  1  0  0  0
 78151  1  0  0  0
 78152  1  0  0  0
 79 86  1  0  0  0
 79153  1  0  0  0
 79154  1  0  0  0
 80 86  1  0  0  0
 80155  1  0  0  0
 80156  1  0  0  0
 81 85  1  0  0  0
 81157  1  0  0  0
 82158  1  0  0  0
 82159  1  0  0  0
 82160  1  0  0  0
 83161  1  0  0  0
 83162  1  0  0  0
 83 86  1  0  0  0
 84163  1  0  0  0
 84164  1  0  0  0
 85165  1  0  0  0
 86166  1  0  0  0
M  CHG  1  86   1
M  ISO  4   1 100  68 101  84 101  85 100
M  END
> <chiral flag>
0

> <version>
0

> <s_m_source_file>
/data/baiqing/PycharmProjects/Reinvent-master-3.2/result/LINK_invent/BTK/process_docking_weight1_custom_sum_contain_oxygen_bond_distance_aromatic_linkinvent_7_9_3/rearranged_h_0138.sdf

> <i_m_source_file_index>
91

> <r_mmod_Potential_Energy-OPLS-2005>
-125.41072845459

> <r_mmod_Stretch_Energy-OPLS-2005>
39.110107421875

> <r_mmod_Bend_Energy-OPLS-2005>
97.7200469970703

> <r_mmod_Torsional_Energy-OPLS-2005>
250.436050415039

> <r_mmod_Improper_Torsional_Energy-OPLS-2005>
4.14104890823364

> <r_mmod_Van_der_Waal_Energy-OPLS-2005>
159.21125793457

> <r_mmod_Electrostatic_Energy-OPLS-2005>
-247.071838378906

> <r_mmod_Solvation_Energy-OPLS-2005>
-442.168334960938

> <b_mmod_Minimization_Converged-OPLS-2005>
0

> <r_mmod_RMS_Derivative-OPLS-2005>
1.21751093864441

$$$$
91
                    3D
 Structure written by MMmdl.
165174  0  0  1  0            999 V2000
  -29.1428  -15.8495   20.8149 C   0  0  0  0  0  0
  -30.1993  -13.4360   19.7736 C   0  0  0  0  0  0
  -29.5242  -12.8170   18.4880 C   0  0  0  0  0  0
  -28.1164  -12.2861   18.8004 C   0  0  0  0  0  0
  -27.4724  -13.2247   19.8336 C   0  0  2  0  0  0
  -28.3063  -13.4177   21.0919 C   0  0  0  0  0  0
  -25.1671  -13.7978   20.5506 C   0  0  0  0  0  0
  -24.1180  -13.0242   20.9301 C   0  0  0  0  0  0
  -24.5833  -11.6732   20.8785 C   0  0  0  0  0  0
  -23.8707  -10.4157   21.0504 C   0  0  0  0  0  0
  -24.3420   -9.4127   21.9234 C   0  0  0  0  0  0
  -23.6186   -8.2126   22.0757 C   0  0  0  0  0  0
  -22.4173   -8.0155   21.3540 C   0  0  0  0  0  0
  -21.9730   -9.0086   20.4645 C   0  0  0  0  0  0
  -22.6957  -10.1997   20.3090 C   0  0  0  0  0  0
  -21.6809   -6.0665   22.5296 C   0  0  0  0  0  0
  -21.3979   -6.5597   23.8219 C   0  0  0  0  0  0
  -21.3646   -5.6764   24.9190 C   0  0  0  0  0  0
  -21.6045   -4.3028   24.7251 C   0  0  0  0  0  0
  -21.8826   -3.8106   23.4379 C   0  0  0  0  0  0
  -21.9180   -4.6906   22.3427 C   0  0  0  0  0  0
  -22.7337  -13.5127   21.2060 C   0  0  0  0  0  0
  -22.1658   -4.2099   21.1004 F   0  0  0  0  0  0
  -21.5635   -3.4520   25.7770 F   0  0  0  0  0  0
  -29.2488  -14.3737   20.6158 N   0  0  0  0  0  0
  -26.1671  -12.8998   20.2577 N   0  0  0  0  0  0
  -25.8581  -11.6217   20.5393 N   0  0  0  0  0  0
  -22.0030  -12.8159   22.0654 N   0  0  0  0  0  0
  -25.3491  -15.1719   20.4004 N   0  0  0  0  0  0
  -30.3563  -16.1304   20.5151 O   0  0  0  0  0  0
  -21.6567   -6.8759   21.4239 O   0  0  0  0  0  0
  -22.3139  -14.5481   20.6905 O   0  0  0  0  0  0
  -24.7183  -32.0097   23.2268 C   0  0  0  0  0  0
  -25.9949  -32.5478   23.8929 C   0  0  1  0  0  0
  -26.8857  -27.4327   19.9358 C   0  0  0  0  0  0
  -25.6711  -33.9150   24.2890 N   0  0  0  0  0  0
  -23.6311  -30.5850   21.6268 C   0  0  2  0  0  0
  -25.0057  -29.3954   19.8504 C   0  0  0  0  0  0
  -23.5202  -29.3794   22.5967 C   0  0  0  0  0  0
  -18.1304  -27.4127   22.8056 C   0  0  0  0  0  0
  -24.1521  -36.7459   23.2563 C   0  0  0  0  0  0
  -26.1142  -30.8674   21.4911 C   0  0  0  0  0  0
  -26.0813  -29.5684   20.7128 C   0  0  0  0  0  0
  -27.0542  -28.5500   20.7965 C   0  0  0  0  0  0
  -26.2703  -27.6464   18.7305 C   0  0  0  0  0  0
  -25.1663  -28.5133   18.7678 C   0  0  0  0  0  0
  -23.7906  -30.2641   20.1105 C   0  0  0  0  0  0
  -25.4135  -36.3396   24.0343 C   0  0  1  0  0  0
  -22.0193  -27.5420   23.1665 C   0  0  2  0  0  0
  -22.3486  -26.2180   22.2572 C   0  0  0  0  0  0
  -19.7139  -25.2674   21.2840 C   0  0  0  0  0  0
  -18.2562  -26.0686   21.8963 C   0  0  0  0  0  0
  -19.2810  -27.9780   23.5300 C   0  0  0  0  0  0
  -18.7029  -29.3502   24.0314 C   0  0  0  0  0  0
  -17.4808  -30.0209   23.9768 C   0  0  0  0  0  0
  -25.9206  -34.9817   23.5249 C   0  0  0  0  0  0
  -16.4777  -29.3254   23.3646 C   0  0  0  0  0  0
  -16.8217  -28.0662   22.8036 C   0  0  0  0  0  0
  -26.4801  -31.6870   25.1205 C   0  0  0  0  0  0
  -25.3772  -31.3958   26.1646 C   0  0  0  0  0  0
  -27.0869  -30.3317   24.6818 C   0  0  0  0  0  0
  -27.6257  -32.4445   25.8246 C   0  0  0  0  0  0
  -27.5622  -37.1976   24.8466 C   0  0  0  0  0  0
  -22.8637  -28.3539   22.2600 N   0  0  0  0  0  0
  -26.4321  -37.4058   23.9439 N   0  0  0  0  0  0
  -24.8276  -31.2551   22.1071 N   0  0  0  0  0  0
  -24.0212  -29.2876   23.6933 O   0  0  0  0  0  0
  -26.1719  -26.3496   20.3808 O   0  0  0  0  0  0
  -26.5412  -34.9137   22.4600 O   0  0  0  0  0  0
  -23.6185  -32.2620   23.7499 O   0  0  0  0  0  0
  -21.8011  -25.1874   20.0501 C   0  0  0  0  0  0
  -21.8359  -24.0638   21.1411 C   0  0  0  0  0  0
  -20.4850  -27.3410   21.5957 C   0  0  0  0  0  0
  -20.4838  -25.8016   23.3078 C   0  0  0  0  0  0
  -21.3955  -26.7134   20.2023 C   0  0  0  0  0  0
  -21.4392  -24.0948   22.6828 C   0  0  0  0  0  0
  -20.6770  -29.2558   22.3328 C   0  0  0  0  0  0
  -20.7412  -26.8372   24.9638 C   0  0  0  0  0  0
  -21.0783  -28.9520   24.6077 C   0  0  0  0  0  0
  -22.9733  -27.0320   19.7028 C   0  0  0  0  0  0
  -25.1308  -19.7719   22.1788 C   0  0  0  0  0  0
  -23.9032  -21.6124   22.1593 C   0  0  0  0  0  0
  -26.8189  -18.5737   21.3872 C   0  0  0  0  0  0
  -24.5374  -26.2060   20.1466 C   0  0  0  0  0  0
  -22.5470  -22.7423   22.9565 N   0  0  0  0  0  0
  -27.8090  -16.8481   21.2071 N   0  0  0  0  0  0
  -31.0777  -14.0006   19.4597 H   0  0  0  0  0  0
  -30.6026  -12.6430   20.4068 H   0  0  0  0  0  0
  -30.1508  -12.0345   18.0592 H   0  0  0  0  0  0
  -29.4438  -13.5980   17.7304 H   0  0  0  0  0  0
  -28.1996  -11.2826   19.2194 H   0  0  0  0  0  0
  -27.5115  -12.2056   17.8967 H   0  0  0  0  0  0
  -27.3596  -14.1646   19.2877 H   0  0  0  0  0  0
  -28.7279  -12.4883   21.4814 H   0  0  0  0  0  0
  -27.7344  -13.8605   21.9103 H   0  0  0  0  0  0
  -25.2566   -9.5671   22.4788 H   0  0  0  0  0  0
  -23.9936   -7.4515   22.7448 H   0  0  0  0  0  0
  -21.0672   -8.8553   19.8950 H   0  0  0  0  0  0
  -22.3395  -10.9541   19.6215 H   0  0  0  0  0  0
  -21.1955   -7.6103   23.9708 H   0  0  0  0  0  0
  -21.1466   -6.0498   25.9090 H   0  0  0  0  0  0
  -22.0623   -2.7571   23.2891 H   0  0  0  0  0  0
  -22.3624  -11.9795   22.5007 H   0  0  0  0  0  0
  -21.0689  -13.1247   22.2940 H   0  0  0  0  0  0
  -24.5040  -15.7336   20.4119 H   0  0  0  0  0  0
  -26.0043  -15.5024   19.7033 H   0  0  0  0  0  0
  -26.8236  -32.6056   23.1893 H   0  0  0  0  0  0
  -25.1112  -34.0324   25.1206 H   0  0  0  0  0  0
  -22.7889  -31.2691   21.7256 H   0  0  0  0  0  0
  -23.3838  -35.9738   23.3236 H   0  0  0  0  0  0
  -24.3661  -36.9027   22.1981 H   0  0  0  0  0  0
  -23.7178  -37.6658   23.6491 H   0  0  0  0  0  0
  -26.4095  -31.6628   20.8042 H   0  0  0  0  0  0
  -26.9322  -30.7675   22.1895 H   0  0  0  0  0  0
  -27.7747  -28.5430   21.6022 H   0  0  0  0  0  0
  -26.2955  -26.8966   17.9504 H   0  0  0  0  0  0
  -24.4521  -28.5038   17.9563 H   0  0  0  0  0  0
  -24.0033  -31.2085   19.6063 H   0  0  0  0  0  0
  -22.8557  -29.9819   19.6335 H   0  0  0  0  0  0
  -25.1239  -36.2329   25.0824 H   0  0  0  0  0  0
  -22.7073  -27.4056   24.0221 H   0  0  0  0  0  0
  -22.8295  -25.7423   23.1313 H   0  0  0  0  0  0
  -23.3035  -25.9529   21.9077 H   0  0  0  0  0  0
  -19.4480  -24.2118   21.4214 H   0  0  0  0  0  0
  -19.4779  -25.3280   20.2133 H   0  0  0  0  0  0
  -17.6152  -26.2359   21.0298 H   0  0  0  0  0  0
  -17.7174  -25.3117   22.4670 H   0  0  0  0  0  0
  -19.2783  -30.2139   24.3124 H   0  0  0  0  0  0
  -17.3368  -31.0215   24.3633 H   0  0  0  0  0  0
  -15.4814  -29.7350   23.2665 H   0  0  0  0  0  0
  -16.0297  -27.5604   22.2695 H   0  0  0  0  0  0
  -24.5919  -30.7509   25.7722 H   0  0  0  0  0  0
  -24.9019  -32.3120   26.5153 H   0  0  0  0  0  0
  -25.7845  -30.8915   27.0415 H   0  0  0  0  0  0
  -26.3929  -29.7074   24.1272 H   0  0  0  0  0  0
  -27.3951  -29.7466   25.5493 H   0  0  0  0  0  0
  -27.9829  -30.4664   24.0750 H   0  0  0  0  0  0
  -27.2850  -33.3707   26.2885 H   0  0  0  0  0  0
  -28.4231  -32.7045   25.1269 H   0  0  0  0  0  0
  -28.0729  -31.8454   26.6191 H   0  0  0  0  0  0
  -28.2608  -38.0313   24.7633 H   0  0  0  0  0  0
  -28.1164  -36.2866   24.6153 H   0  0  0  0  0  0
  -27.2346  -37.1456   25.8865 H   0  0  0  0  0  0
  -22.5487  -28.3103   21.3034 H   0  0  0  0  0  0
  -26.0239  -38.3132   24.1518 H   0  0  0  0  0  0
  -22.2729  -24.8765   19.1268 H   0  0  0  0  0  0
  -22.2771  -23.1695   20.7336 H   0  0  0  0  0  0
  -19.7695  -29.7873   22.0310 H   0  0  0  0  0  0
  -21.2374  -29.9593   21.7421 H   0  0  0  0  0  0
  -21.5525  -26.3994   25.5499 H   0  0  0  0  0  0
  -19.8717  -26.6916   25.6094 H   0  0  0  0  0  0
  -20.6630  -29.5663   25.4084 H   0  0  0  0  0  0
  -22.0845  -29.2263   24.9043 H   0  0  0  0  0  0
  -22.9799  -28.0570   19.8935 H   0  0  0  0  0  0
  -22.9048  -27.0028   18.6128 H   0  0  0  0  0  0
  -24.3342  -19.0329   22.0942 H   0  0  0  0  0  0
  -25.3859  -19.7424   23.2386 H   0  0  0  0  0  0
  -23.5245  -21.5514   21.1399 H   0  0  0  0  0  0
  -24.6971  -22.3561   22.0864 H   0  0  0  0  0  0
  -27.6566  -19.2213   21.6454 H   0  0  0  0  0  0
  -26.6770  -18.7680   20.3232 H   0  0  0  0  0  0
  -24.6347  -27.1043   20.7407 H   0  0  0  0  0  0
  -24.6850  -25.9423   19.1015 H   0  0  0  0  0  0
  -22.5573  -22.5538   23.9578 H   0  0  0  0  0  0
  -27.0832  -16.1545   21.3638 H   0  0  0  0  0  0
  1 25  1  0  0  0
  1 30  2  0  0  0
  1 86  1  0  0  0
  2  3  1  0  0  0
  2 25  1  0  0  0
  2 87  1  0  0  0
  2 88  1  0  0  0
  3  4  1  0  0  0
  3 89  1  0  0  0
  3 90  1  0  0  0
  4  5  1  0  0  0
  4 91  1  0  0  0
  4 92  1  0  0  0
  5  6  1  0  0  0
  5 26  1  0  0  0
  5 93  1  0  0  0
  6 25  1  0  0  0
  6 94  1  0  0  0
  6 95  1  0  0  0
  7  8  2  0  0  0
  7 26  1  0  0  0
  7 29  1  0  0  0
  8  9  1  0  0  0
  8 22  1  0  0  0
  9 10  1  0  0  0
  9 27  2  0  0  0
 10 11  2  0  0  0
 10 15  1  0  0  0
 11 12  1  0  0  0
 11 96  1  0  0  0
 12 13  2  0  0  0
 12 97  1  0  0  0
 13 14  1  0  0  0
 13 31  1  0  0  0
 14 15  2  0  0  0
 14 98  1  0  0  0
 15 99  1  0  0  0
 16 17  2  0  0  0
 16 21  1  0  0  0
 16 31  1  0  0  0
 17 18  1  0  0  0
 17100  1  0  0  0
 18 19  2  0  0  0
 18101  1  0  0  0
 19 20  1  0  0  0
 19 24  1  0  0  0
 20 21  2  0  0  0
 20102  1  0  0  0
 21 23  1  0  0  0
 22 28  1  0  0  0
 22 32  2  0  0  0
 26 27  1  0  0  0
 28103  1  0  0  0
 28104  1  0  0  0
 29105  1  0  0  0
 29106  1  0  0  0
 33 34  1  0  0  0
 33 66  1  0  0  0
 33 70  2  0  0  0
 34 36  1  0  0  0
 34 59  1  0  0  0
 34107  1  0  0  0
 35 44  2  0  0  0
 35 45  1  0  0  0
 35 68  1  0  0  0
 36 56  1  0  0  0
 36108  1  0  0  0
 37 39  1  0  0  0
 37 47  1  0  0  0
 37 66  1  0  0  0
 37109  1  0  0  0
 38 43  2  0  0  0
 38 46  1  0  0  0
 38 47  1  0  0  0
 39 64  1  0  0  0
 39 67  2  0  0  0
 40 52  1  0  0  0
 40 53  2  0  0  0
 40 58  1  0  0  0
 41110  1  0  0  0
 41111  1  0  0  0
 41112  1  0  0  0
 41 48  1  0  0  0
 42 43  1  0  0  0
 42 66  1  0  0  0
 42113  1  0  0  0
 42114  1  0  0  0
 43 44  1  0  0  0
 44115  1  0  0  0
 45 46  2  0  0  0
 45116  1  0  0  0
 46117  1  0  0  0
 47118  1  0  0  0
 47119  1  0  0  0
 48 56  1  0  0  0
 48 65  1  0  0  0
 48120  1  0  0  0
 49 50  1  0  0  0
 49 53  1  0  0  0
 49 64  1  0  0  0
 49121  1  0  0  0
 50 51  1  0  0  0
 50122  1  0  0  0
 50123  1  0  0  0
 51 52  1  0  0  0
 51124  1  0  0  0
 51125  1  0  0  0
 52126  1  0  0  0
 52127  1  0  0  0
 53 54  1  0  0  0
 54 55  2  0  0  0
 54128  1  0  0  0
 55 57  1  0  0  0
 55129  1  0  0  0
 56 69  2  0  0  0
 57 58  2  0  0  0
 57130  1  0  0  0
 58131  1  0  0  0
 59 60  1  0  0  0
 59 61  1  0  0  0
 59 62  1  0  0  0
 60132  1  0  0  0
 60133  1  0  0  0
 60134  1  0  0  0
 61135  1  0  0  0
 61136  1  0  0  0
 61137  1  0  0  0
 62138  1  0  0  0
 62139  1  0  0  0
 62140  1  0  0  0
 63 65  1  0  0  0
 63141  1  0  0  0
 63142  1  0  0  0
 63143  1  0  0  0
 64144  1  0  0  0
 65145  1  0  0  0
 68 84  1  0  0  0
 71 72  2  0  0  0
 71 75  1  0  0  0
 71146  1  0  0  0
 72 76  1  0  0  0
 72147  1  0  0  0
 73 74  1  0  0  0
 73 75  2  0  0  0
 73 77  1  0  0  0
 74 76  2  0  0  0
 74 78  1  0  0  0
 75 80  1  0  0  0
 76 85  1  0  0  0
 77 79  1  0  0  0
 77148  1  0  0  0
 77149  1  0  0  0
 78 79  1  0  0  0
 78150  1  0  0  0
 78151  1  0  0  0
 79152  1  0  0  0
 79153  1  0  0  0
 80 84  1  0  0  0
 80154  1  0  0  0
 80155  1  0  0  0
 81 82  1  0  0  0
 81 83  1  0  0  0
 81156  1  0  0  0
 81157  1  0  0  0
 82 85  1  0  0  0
 82158  1  0  0  0
 82159  1  0  0  0
 83 86  1  0  0  0
 83160  1  0  0  0
 83161  1  0  0  0
 84162  1  0  0  0
 84163  1  0  0  0
 85164  1  0  0  0
 86165  1  0  0  0
M  ISO  4   1 100  68 101  84 101  86 100
M  END
> <chiral flag>
0

> <version>
0

> <s_m_source_file>
/data/baiqing/PycharmProjects/Reinvent-master-3.2/result/LINK_invent/BTK/process_docking_weight1_custom_sum_contain_oxygen_bond_distance_aromatic_linkinvent_7_9_3/rearranged_h_0138.sdf

> <i_m_source_file_index>
92

> <r_mmod_Potential_Energy-OPLS-2005>
22735.6796875

> <r_mmod_Stretch_Energy-OPLS-2005>
12240.865234375

> <r_mmod_Bend_Energy-OPLS-2005>
2030.06677246094

> <r_mmod_Torsional_Energy-OPLS-2005>
638.615600585938

> <r_mmod_Improper_Torsional_Energy-OPLS-2005>
102.116767883301

> <r_mmod_Van_der_Waal_Energy-OPLS-2005>
4440.69873046875

> <r_mmod_Electrostatic_Energy-OPLS-2005>
-399.304840087891

> <r_mmod_Solvation_Energy-OPLS-2005>
-215.197341918945

> <b_mmod_Minimization_Converged-OPLS-2005>
0

> <r_mmod_RMS_Derivative-OPLS-2005>
2.01823973655701

$$$$
92
                    3D
 Structure written by MMmdl.
183192  0  0  1  0            999 V2000
  -30.7420  -14.4148   20.6250 C   0  0  0  0  0  0
  -30.4186  -12.2968   19.3996 C   0  0  0  0  0  0
  -29.4816  -12.5056   18.1939 C   0  0  0  0  0  0
  -28.0057  -12.3595   18.6132 C   0  0  0  0  0  0
  -27.6610  -13.1897   19.8763 C   0  0  2  0  0  0
  -28.7079  -12.9413   20.9878 C   0  0  0  0  0  0
  -25.2597  -13.8127   20.5677 C   0  0  0  0  0  0
  -24.1843  -13.0429   20.9191 C   0  0  0  0  0  0
  -24.6377  -11.6888   20.8761 C   0  0  0  0  0  0
  -23.9042  -10.4283   21.0423 C   0  0  0  0  0  0
  -24.3602   -9.4197   21.9196 C   0  0  0  0  0  0
  -23.6282   -8.2236   22.0757 C   0  0  0  0  0  0
  -22.4269   -8.0275   21.3543 C   0  0  0  0  0  0
  -21.9902   -9.0247   20.4646 C   0  0  0  0  0  0
  -22.7226  -10.2128   20.3059 C   0  0  0  0  0  0
  -21.6845   -6.0737   22.5278 C   0  0  0  0  0  0
  -21.4011   -6.5638   23.8214 C   0  0  0  0  0  0
  -21.3654   -5.6793   24.9169 C   0  0  0  0  0  0
  -21.6046   -4.3058   24.7224 C   0  0  0  0  0  0
  -21.8820   -3.8146   23.4346 C   0  0  0  0  0  0
  -21.9193   -4.6967   22.3398 C   0  0  0  0  0  0
  -22.7865  -13.5235   21.1848 C   0  0  0  0  0  0
  -22.1661   -4.2154   21.0979 F   0  0  0  0  0  0
  -21.5630   -3.4537   25.7735 F   0  0  0  0  0  0
  -30.0379  -13.2625   20.4427 N   0  0  0  0  0  0
  -26.3021  -12.9262   20.3393 N   0  0  0  0  0  0
  -25.9293  -11.6440   20.5794 N   0  0  0  0  0  0
  -22.0495  -12.8229   22.0397 N   0  0  0  0  0  0
  -25.4326  -15.1844   20.4045 N   0  0  0  0  0  0
  -31.8368  -14.6090   20.0862 O   0  0  0  0  0  0
  -21.6633   -6.8877   21.4239 O   0  0  0  0  0  0
  -22.3555  -14.5551   20.6701 O   0  0  0  0  0  0
  -24.6106  -31.8726   23.2122 C   0  0  0  0  0  0
  -25.9025  -32.4837   23.8407 C   0  0  1  0  0  0
  -27.2549  -27.4791   20.0904 C   0  0  0  0  0  0
  -25.5913  -33.8630   24.2356 N   0  0  0  0  0  0
  -23.3949  -30.4931   21.5522 C   0  0  2  0  0  0
  -24.8445  -28.9586   20.1226 C   0  0  0  0  0  0
  -22.7384  -29.4678   22.5024 C   0  0  0  0  0  0
  -18.0272  -28.1355   22.8490 C   0  0  0  0  0  0
  -24.1497  -36.7302   23.2640 C   0  0  0  0  0  0
  -25.9158  -30.8520   21.3548 C   0  0  0  0  0  0
  -25.9992  -29.4834   20.7159 C   0  0  0  0  0  0
  -27.2051  -28.7530   20.7065 C   0  0  0  0  0  0
  -26.0818  -26.9636   19.5020 C   0  0  0  0  0  0
  -24.8770  -27.6919   19.5162 C   0  0  0  0  0  0
  -23.6025  -29.8197   20.1678 C   0  0  0  0  0  0
  -25.4107  -36.3110   24.0354 C   0  0  1  0  0  0
  -20.5857  -28.3642   23.1331 C   0  0  2  0  0  0
  -20.6768  -26.9390   22.5406 C   0  0  0  0  0  0
  -19.5752  -26.6378   21.5197 C   0  0  0  0  0  0
  -18.1927  -26.7909   22.1608 C   0  0  0  0  0  0
  -19.1516  -28.8809   23.2913 C   0  0  0  0  0  0
  -18.9454  -30.1417   23.8921 C   0  0  0  0  0  0
  -17.6463  -30.6570   24.0548 C   0  0  0  0  0  0
  -25.9032  -34.9480   23.5143 C   0  0  0  0  0  0
  -16.5351  -29.9072   23.6312 C   0  0  0  0  0  0
  -16.7266  -28.6484   23.0342 C   0  0  0  0  0  0
  -26.4476  -31.6576   25.0693 C   0  0  0  0  0  0
  -25.3771  -31.3642   26.1456 C   0  0  0  0  0  0
  -27.0293  -30.3046   24.5966 C   0  0  0  0  0  0
  -27.6071  -32.4265   25.7465 C   0  0  0  0  0  0
  -27.5580  -37.1814   24.8473 C   0  0  0  0  0  0
  -21.4116  -29.3024   22.3753 N   0  0  0  0  0  0
  -26.4293  -37.3796   23.9415 N   0  0  0  0  0  0
  -24.6587  -31.0859   22.1003 N   0  0  0  0  0  0
  -23.4188  -28.8239   23.3058 O   0  0  0  0  0  0
  -28.3817  -26.6998   19.9565 O   0  0  0  0  0  0
  -26.5569  -34.8925   22.4689 O   0  0  0  0  0  0
  -23.5317  -32.1456   23.7555 O   0  0  0  0  0  0
  -30.8731  -21.9020   23.3846 C   0  0  0  0  0  0
  -30.8039  -23.1136   22.6708 C   0  0  0  0  0  0
  -29.0217  -21.0267   22.0677 C   0  0  0  0  0  0
  -29.9727  -20.8557   23.0963 C   0  0  0  0  0  0
  -28.9595  -22.2343   21.3411 C   0  0  0  0  0  0
  -29.8373  -23.2945   21.6565 C   0  0  0  0  0  0
  -29.1661  -17.4920   21.7133 C   0  0  0  0  0  0
  -29.0108  -16.0854   21.1396 C   0  0  0  0  0  0
  -30.1885  -17.3101   22.8284 C   0  0  1  0  0  0
  -31.1136  -16.2267   22.2506 C   0  0  1  0  0  0
  -27.9314  -22.3961   20.2372 C   0  0  0  0  0  0
  -30.3810  -11.8768   24.3514 C   0  0  0  0  0  0
  -32.0175  -14.8192   26.3491 C   0  0  0  0  0  0
  -30.0219  -19.5602   23.8917 C   0  0  0  0  0  0
  -31.9348  -15.4507   23.3010 C   0  0  0  0  0  0
  -30.6983  -12.8178   25.5209 C   0  0  0  0  0  0
  -29.5151  -26.8638   20.8060 C   0  0  0  0  0  0
  -29.6094  -25.6487   21.7357 C   0  0  0  0  0  0
  -31.6778  -13.9376   25.1383 C   0  0  1  0  0  0
  -30.2298  -15.3316   21.4809 N   0  0  0  0  0  0
  -30.8794  -18.5605   23.2255 N   0  3  0  0  0  0
  -29.7474  -24.4677   20.9490 O   0  0  0  0  0  0
  -31.0437  -14.7218   24.1350 O   0  0  0  0  0  0
  -31.4594  -12.3986   19.0879 H   0  0  0  0  0  0
  -30.3285  -11.2798   19.7840 H   0  0  0  0  0  0
  -29.7163  -11.7873   17.4075 H   0  0  0  0  0  0
  -29.6460  -13.4949   17.7642 H   0  0  0  0  0  0
  -27.8164  -11.3025   18.8038 H   0  0  0  0  0  0
  -27.3498  -12.6403   17.7886 H   0  0  0  0  0  0
  -27.7054  -14.2343   19.5776 H   0  0  0  0  0  0
  -28.6873  -11.8927   21.2877 H   0  0  0  0  0  0
  -28.4729  -13.4895   21.8991 H   0  0  0  0  0  0
  -25.2746   -9.5680   22.4772 H   0  0  0  0  0  0
  -23.9994   -7.4624   22.7471 H   0  0  0  0  0  0
  -21.0839   -8.8764   19.8940 H   0  0  0  0  0  0
  -22.3689  -10.9673   19.6168 H   0  0  0  0  0  0
  -21.1999   -7.6148   23.9717 H   0  0  0  0  0  0
  -21.1475   -6.0521   25.9078 H   0  0  0  0  0  0
  -22.0607   -2.7612   23.2840 H   0  0  0  0  0  0
  -22.4091  -11.9869   22.4770 H   0  0  0  0  0  0
  -21.1112  -13.1257   22.2603 H   0  0  0  0  0  0
  -24.6641  -15.8380   20.5074 H   0  0  0  0  0  0
  -26.2792  -15.6208   20.0656 H   0  0  0  0  0  0
  -26.7108  -32.5579   23.1188 H   0  0  0  0  0  0
  -25.0147  -33.9816   25.0558 H   0  0  0  0  0  0
  -22.6803  -31.3067   21.4112 H   0  0  0  0  0  0
  -23.3761  -35.9638   23.3311 H   0  0  0  0  0  0
  -24.3609  -36.8893   22.2052 H   0  0  0  0  0  0
  -23.7238  -37.6513   23.6632 H   0  0  0  0  0  0
  -26.0096  -31.6123   20.5792 H   0  0  0  0  0  0
  -26.8106  -30.9213   21.9607 H   0  0  0  0  0  0
  -28.0799  -29.2082   21.1436 H   0  0  0  0  0  0
  -26.1063  -25.9960   19.0201 H   0  0  0  0  0  0
  -23.9914  -27.2784   19.0541 H   0  0  0  0  0  0
  -23.7077  -30.5919   19.4053 H   0  0  0  0  0  0
  -22.7285  -29.2357   19.8744 H   0  0  0  0  0  0
  -25.1275  -36.1983   25.0845 H   0  0  0  0  0  0
  -20.9939  -28.3198   24.1454 H   0  0  0  0  0  0
  -20.5674  -26.2250   23.3587 H   0  0  0  0  0  0
  -21.6645  -26.7451   22.1200 H   0  0  0  0  0  0
  -19.6926  -25.6297   21.1207 H   0  0  0  0  0  0
  -19.6685  -27.3202   20.6738 H   0  0  0  0  0  0
  -17.4201  -26.6660   21.4000 H   0  0  0  0  0  0
  -18.0327  -26.0030   22.8979 H   0  0  0  0  0  0
  -19.7936  -30.7211   24.2310 H   0  0  0  0  0  0
  -17.5023  -31.6253   24.5145 H   0  0  0  0  0  0
  -15.5351  -30.2983   23.7617 H   0  0  0  0  0  0
  -15.8666  -28.0805   22.7050 H   0  0  0  0  0  0
  -24.5966  -30.6952   25.7800 H   0  0  0  0  0  0
  -24.8934  -32.2782   26.4920 H   0  0  0  0  0  0
  -25.8169  -30.8818   27.0196 H   0  0  0  0  0  0
  -26.2792  -29.6803   24.1099 H   0  0  0  0  0  0
  -27.4215  -29.7255   25.4333 H   0  0  0  0  0  0
  -27.8554  -30.4409   23.8983 H   0  0  0  0  0  0
  -27.2721  -33.3567   26.2065 H   0  0  0  0  0  0
  -28.3895  -32.6809   25.0300 H   0  0  0  0  0  0
  -28.0719  -31.8354   26.5368 H   0  0  0  0  0  0
  -28.2601  -38.0106   24.7519 H   0  0  0  0  0  0
  -28.1074  -36.2641   24.6306 H   0  0  0  0  0  0
  -27.2310  -37.1465   25.8881 H   0  0  0  0  0  0
  -20.9284  -29.8746   21.6972 H   0  0  0  0  0  0
  -26.0180  -38.2881   24.1406 H   0  0  0  0  0  0
  -31.6171  -21.7863   24.1608 H   0  0  0  0  0  0
  -31.5129  -23.8954   22.9033 H   0  0  0  0  0  0
  -28.3258  -20.2327   21.8372 H   0  0  0  0  0  0
  -28.2163  -17.8919   22.0692 H   0  0  0  0  0  0
  -29.5476  -18.1616   20.9410 H   0  0  0  0  0  0
  -28.8419  -16.1341   20.0622 H   0  0  0  0  0  0
  -28.1413  -15.6152   21.5969 H   0  0  0  0  0  0
  -29.6816  -16.8983   23.7042 H   0  0  0  0  0  0
  -31.8066  -16.7047   21.5535 H   0  0  0  0  0  0
  -27.3831  -21.4697   20.0615 H   0  0  0  0  0  0
  -28.4163  -22.6799   19.3025 H   0  0  0  0  0  0
  -27.2118  -23.1726   20.4977 H   0  0  0  0  0  0
  -29.6975  -11.0860   24.6617 H   0  0  0  0  0  0
  -31.2844  -11.4044   23.9649 H   0  0  0  0  0  0
  -29.9099  -12.4165   23.5314 H   0  0  0  0  0  0
  -32.4610  -14.2259   27.1493 H   0  0  0  0  0  0
  -31.1259  -15.3013   26.7508 H   0  0  0  0  0  0
  -32.7345  -15.6001   26.0981 H   0  0  0  0  0  0
  -29.0080  -19.1868   24.0455 H   0  0  0  0  0  0
  -30.4209  -19.7575   24.8881 H   0  0  0  0  0  0
  -32.5399  -16.1425   23.8864 H   0  0  0  0  0  0
  -32.6293  -14.7671   22.8097 H   0  0  0  0  0  0
  -31.1192  -12.2316   26.3390 H   0  0  0  0  0  0
  -29.7717  -13.2506   25.9010 H   0  0  0  0  0  0
  -30.4054  -26.9105   20.1779 H   0  0  0  0  0  0
  -29.5181  -27.7712   21.4024 H   0  0  0  0  0  0
  -28.7159  -25.5805   22.3580 H   0  0  0  0  0  0
  -30.4630  -25.7854   22.3994 H   0  0  0  0  0  0
  -32.5910  -13.4815   24.7502 H   0  0  0  0  0  0
  -31.3072  -18.9993   22.4266 H   0  0  0  0  0  0
  -31.6140  -18.3390   23.8771 H   0  0  0  0  0  0
  1 25  1  0  0  0
  1 30  2  0  0  0
  1 90  1  0  0  0
  2  3  1  0  0  0
  2 25  1  0  0  0
  2 94  1  0  0  0
  2 95  1  0  0  0
  3  4  1  0  0  0
  3 96  1  0  0  0
  3 97  1  0  0  0
  4  5  1  0  0  0
  4 98  1  0  0  0
  4 99  1  0  0  0
  5  6  1  0  0  0
  5 26  1  0  0  0
  5100  1  0  0  0
  6 25  1  0  0  0
  6101  1  0  0  0
  6102  1  0  0  0
  7  8  2  0  0  0
  7 26  1  0  0  0
  7 29  1  0  0  0
  8  9  1  0  0  0
  8 22  1  0  0  0
  9 10  1  0  0  0
  9 27  2  0  0  0
 10 11  2  0  0  0
 10 15  1  0  0  0
 11 12  1  0  0  0
 11103  1  0  0  0
 12 13  2  0  0  0
 12104  1  0  0  0
 13 14  1  0  0  0
 13 31  1  0  0  0
 14 15  2  0  0  0
 14105  1  0  0  0
 15106  1  0  0  0
 16 17  2  0  0  0
 16 21  1  0  0  0
 16 31  1  0  0  0
 17 18  1  0  0  0
 17107  1  0  0  0
 18 19  2  0  0  0
 18108  1  0  0  0
 19 20  1  0  0  0
 19 24  1  0  0  0
 20 21  2  0  0  0
 20109  1  0  0  0
 21 23  1  0  0  0
 22 28  1  0  0  0
 22 32  2  0  0  0
 26 27  1  0  0  0
 28110  1  0  0  0
 28111  1  0  0  0
 29112  1  0  0  0
 29113  1  0  0  0
 33 34  1  0  0  0
 33 66  1  0  0  0
 33 70  2  0  0  0
 34 36  1  0  0  0
 34 59  1  0  0  0
 34114  1  0  0  0
 35 44  2  0  0  0
 35 45  1  0  0  0
 35 68  1  0  0  0
 36 56  1  0  0  0
 36115  1  0  0  0
 37 39  1  0  0  0
 37 47  1  0  0  0
 37 66  1  0  0  0
 37116  1  0  0  0
 38 43  2  0  0  0
 38 46  1  0  0  0
 38 47  1  0  0  0
 39 64  1  0  0  0
 39 67  2  0  0  0
 40 52  1  0  0  0
 40 53  2  0  0  0
 40 58  1  0  0  0
 41117  1  0  0  0
 41118  1  0  0  0
 41119  1  0  0  0
 41 48  1  0  0  0
 42 43  1  0  0  0
 42 66  1  0  0  0
 42120  1  0  0  0
 42121  1  0  0  0
 43 44  1  0  0  0
 44122  1  0  0  0
 45 46  2  0  0  0
 45123  1  0  0  0
 46124  1  0  0  0
 47125  1  0  0  0
 47126  1  0  0  0
 48 56  1  0  0  0
 48 65  1  0  0  0
 48127  1  0  0  0
 49 50  1  0  0  0
 49 53  1  0  0  0
 49 64  1  0  0  0
 49128  1  0  0  0
 50 51  1  0  0  0
 50129  1  0  0  0
 50130  1  0  0  0
 51 52  1  0  0  0
 51131  1  0  0  0
 51132  1  0  0  0
 52133  1  0  0  0
 52134  1  0  0  0
 53 54  1  0  0  0
 54 55  2  0  0  0
 54135  1  0  0  0
 55 57  1  0  0  0
 55136  1  0  0  0
 56 69  2  0  0  0
 57 58  2  0  0  0
 57137  1  0  0  0
 58138  1  0  0  0
 59 60  1  0  0  0
 59 61  1  0  0  0
 59 62  1  0  0  0
 60139  1  0  0  0
 60140  1  0  0  0
 60141  1  0  0  0
 61142  1  0  0  0
 61143  1  0  0  0
 61144  1  0  0  0
 62145  1  0  0  0
 62146  1  0  0  0
 62147  1  0  0  0
 63 65  1  0  0  0
 63148  1  0  0  0
 63149  1  0  0  0
 63150  1  0  0  0
 64151  1  0  0  0
 65152  1  0  0  0
 68 87  1  0  0  0
 71 72  2  0  0  0
 71 74  1  0  0  0
 71153  1  0  0  0
 72 76  1  0  0  0
 72154  1  0  0  0
 73 74  2  0  0  0
 73 75  1  0  0  0
 73155  1  0  0  0
 74 84  1  0  0  0
 75 76  2  0  0  0
 75 81  1  0  0  0
 76 92  1  0  0  0
 77 78  1  0  0  0
 77 79  1  0  0  0
 77156  1  0  0  0
 77157  1  0  0  0
 78 90  1  0  0  0
 78158  1  0  0  0
 78159  1  0  0  0
 79 80  1  0  0  0
 79 91  1  0  0  0
 79160  1  0  0  0
 80 85  1  0  0  0
 80 90  1  0  0  0
 80161  1  0  0  0
 81162  1  0  0  0
 81163  1  0  0  0
 81164  1  0  0  0
 82 86  1  0  0  0
 82165  1  0  0  0
 82166  1  0  0  0
 82167  1  0  0  0
 83168  1  0  0  0
 83169  1  0  0  0
 83170  1  0  0  0
 83 89  1  0  0  0
 84 91  1  0  0  0
 84171  1  0  0  0
 84172  1  0  0  0
 85 93  1  0  0  0
 85173  1  0  0  0
 85174  1  0  0  0
 86 89  1  0  0  0
 86175  1  0  0  0
 86176  1  0  0  0
 87 88  1  0  0  0
 87177  1  0  0  0
 87178  1  0  0  0
 88 92  1  0  0  0
 88179  1  0  0  0
 88180  1  0  0  0
 89 93  1  0  0  0
 89181  1  0  0  0
 91182  1  0  0  0
 91183  1  0  0  0
M  CHG  1  91   1
M  ISO  4   1 100  68 101  87 101  90 100
M  END
> <chiral flag>
0

> <version>
0

> <s_m_source_file>
/data/baiqing/PycharmProjects/Reinvent-master-3.2/result/LINK_invent/BTK/process_docking_weight1_custom_sum_contain_oxygen_bond_distance_aromatic_linkinvent_7_9_3/rearranged_h_0138.sdf

> <i_m_source_file_index>
93

> <r_mmod_Potential_Energy-OPLS-2005>
-84.4124374389648

> <r_mmod_Stretch_Energy-OPLS-2005>
35.060302734375

> <r_mmod_Bend_Energy-OPLS-2005>
135.927154541016

> <r_mmod_Torsional_Energy-OPLS-2005>
357.203674316406

> <r_mmod_Improper_Torsional_Energy-OPLS-2005>
5.51584482192993

> <r_mmod_Van_der_Waal_Energy-OPLS-2005>
142.487670898438

> <r_mmod_Electrostatic_Energy-OPLS-2005>
-330.470581054688

> <r_mmod_Solvation_Energy-OPLS-2005>
-437.909942626953

> <b_mmod_Minimization_Converged-OPLS-2005>
0

> <r_mmod_RMS_Derivative-OPLS-2005>
1.51187658309937

$$$$
93
                    3D
 Structure written by MMmdl.
154162  0  0  1  0            999 V2000
  -30.5235  -14.8947   20.4405 C   0  0  0  0  0  0
  -30.4507  -12.5481   19.4934 C   0  0  0  0  0  0
  -29.5242  -12.5241   18.2539 C   0  0  0  0  0  0
  -28.0549  -12.3147   18.6696 C   0  0  0  0  0  0
  -27.6379  -13.2343   19.8469 C   0  0  2  0  0  0
  -28.6814  -13.2112   20.9853 C   0  0  0  0  0  0
  -25.2495  -13.8189   20.5685 C   0  0  0  0  0  0
  -24.1803  -13.0431   20.9241 C   0  0  0  0  0  0
  -24.6398  -11.6909   20.8766 C   0  0  0  0  0  0
  -23.9078  -10.4285   21.0417 C   0  0  0  0  0  0
  -24.3625   -9.4197   21.9190 C   0  0  0  0  0  0
  -23.6290   -8.2238   22.0756 C   0  0  0  0  0  0
  -22.4273   -8.0284   21.3545 C   0  0  0  0  0  0
  -21.9910   -9.0264   20.4655 C   0  0  0  0  0  0
  -22.7246  -10.2138   20.3065 C   0  0  0  0  0  0
  -21.6853   -6.0738   22.5277 C   0  0  0  0  0  0
  -21.4019   -6.5639   23.8211 C   0  0  0  0  0  0
  -21.3656   -5.6791   24.9170 C   0  0  0  0  0  0
  -21.6043   -4.3054   24.7222 C   0  0  0  0  0  0
  -21.8818   -3.8148   23.4341 C   0  0  0  0  0  0
  -21.9190   -4.6964   22.3394 C   0  0  0  0  0  0
  -22.7826  -13.5216   21.1887 C   0  0  0  0  0  0
  -22.1659   -4.2148   21.0970 F   0  0  0  0  0  0
  -21.5618   -3.4540   25.7733 F   0  0  0  0  0  0
  -29.9678  -13.6207   20.4031 N   0  0  0  0  0  0
  -26.2916  -12.9396   20.3259 N   0  0  0  0  0  0
  -25.9331  -11.6542   20.5767 N   0  0  0  0  0  0
  -22.0466  -12.8219   22.0448 N   0  0  0  0  0  0
  -25.4161  -15.1913   20.4024 N   0  0  0  0  0  0
  -31.7174  -15.0154   20.1393 O   0  0  0  0  0  0
  -21.6635   -6.8886   21.4241 O   0  0  0  0  0  0
  -22.3517  -14.5514   20.6715 O   0  0  0  0  0  0
  -24.6397  -31.8484   23.1896 C   0  0  0  0  0  0
  -25.9182  -32.4722   23.8285 C   0  0  1  0  0  0
  -27.2245  -27.1744   20.1557 C   0  0  0  0  0  0
  -25.5944  -33.8524   24.2207 N   0  0  0  0  0  0
  -23.4432  -30.4670   21.5345 C   0  0  2  0  0  0
  -24.8943  -28.8951   20.1154 C   0  0  0  0  0  0
  -22.7548  -29.4573   22.4864 C   0  0  0  0  0  0
  -18.0307  -28.1393   22.8484 C   0  0  0  0  0  0
  -24.1487  -36.7261   23.2631 C   0  0  0  0  0  0
  -25.9959  -30.7340   21.3839 C   0  0  0  0  0  0
  -26.0708  -29.3466   20.7290 C   0  0  0  0  0  0
  -27.2408  -28.5034   20.7295 C   0  0  0  0  0  0
  -26.0244  -26.8109   19.5106 C   0  0  0  0  0  0
  -24.8814  -27.6378   19.4915 C   0  0  0  0  0  0
  -23.6698  -29.7945   20.1545 C   0  0  0  0  0  0
  -25.4108  -36.3048   24.0323 C   0  0  1  0  0  0
  -20.5918  -28.3725   23.1239 C   0  0  2  0  0  0
  -20.6796  -26.9430   22.5406 C   0  0  0  0  0  0
  -19.5765  -26.6386   21.5216 C   0  0  0  0  0  0
  -18.1950  -26.7929   22.1632 C   0  0  0  0  0  0
  -19.1565  -28.8872   23.2857 C   0  0  0  0  0  0
  -18.9481  -30.1463   23.8892 C   0  0  0  0  0  0
  -17.6481  -30.6590   24.0566 C   0  0  0  0  0  0
  -25.9072  -34.9426   23.5075 C   0  0  0  0  0  0
  -16.5372  -29.9091   23.6328 C   0  0  0  0  0  0
  -16.7293  -28.6505   23.0357 C   0  0  0  0  0  0
  -26.4516  -31.6572   25.0711 C   0  0  0  0  0  0
  -25.3706  -31.3774   26.1413 C   0  0  0  0  0  0
  -27.0372  -30.2968   24.6269 C   0  0  0  0  0  0
  -27.6057  -32.4328   25.7486 C   0  0  0  0  0  0
  -27.5598  -37.1745   24.8435 C   0  0  0  0  0  0
  -21.4246  -29.3055   22.3607 N   0  0  0  0  0  0
  -26.4261  -37.3775   23.9457 N   0  0  0  0  0  0
  -24.7125  -31.0367   22.0919 N   0  0  0  0  0  0
  -23.4197  -28.8133   23.3020 O   0  0  0  0  0  0
  -28.2865  -26.2125   20.1681 O   0  0  0  0  0  0
  -26.5665  -34.8924   22.4658 O   0  0  0  0  0  0
  -23.5521  -32.1350   23.7129 O   0  0  0  0  0  0
  -28.3043  -18.1063   20.6521 C   0  0  0  0  0  0
  -28.0639  -19.5289   20.6758 C   0  0  0  0  0  0
  -29.1255  -20.4850   20.6183 C   0  0  0  0  0  0
  -30.3953  -19.8140   20.4875 C   0  0  0  0  0  0
  -29.5947  -17.4994   20.5597 C   0  0  0  0  0  0
  -28.7477  -23.4304   20.1035 C   0  0  0  0  0  0
  -26.6333  -20.0076   20.8435 C   0  0  0  0  0  0
  -31.6630  -20.6439   20.4426 C   0  0  0  0  0  0
  -28.8973  -22.0748   21.0142 C   0  0  0  0  0  0
  -28.0112  -24.7840   20.6828 C   0  0  0  0  0  0
  -30.6064  -18.4293   20.4495 N   0  0  0  0  0  0
  -29.6415  -15.9802   20.6371 N   0  0  0  0  0  0
  -29.2000  -23.4278   18.9539 O   0  0  0  0  0  0
  -31.4839  -12.7139   19.1845 H   0  0  0  0  0  0
  -30.4417  -11.5839   20.0034 H   0  0  0  0  0  0
  -29.8340  -11.7355   17.5669 H   0  0  0  0  0  0
  -29.6202  -13.4640   17.7073 H   0  0  0  0  0  0
  -27.9446  -11.2704   18.9647 H   0  0  0  0  0  0
  -27.3920  -12.4629   17.8159 H   0  0  0  0  0  0
  -27.6155  -14.2449   19.4392 H   0  0  0  0  0  0
  -28.7534  -12.2173   21.4274 H   0  0  0  0  0  0
  -28.3866  -13.8815   21.7947 H   0  0  0  0  0  0
  -25.2774   -9.5653   22.4772 H   0  0  0  0  0  0
  -23.9980   -7.4626   22.7473 H   0  0  0  0  0  0
  -21.0834   -8.8803   19.8968 H   0  0  0  0  0  0
  -22.3713  -10.9687   19.6179 H   0  0  0  0  0  0
  -21.2022   -7.6150   23.9718 H   0  0  0  0  0  0
  -21.1475   -6.0519   25.9073 H   0  0  0  0  0  0
  -22.0598   -2.7609   23.2850 H   0  0  0  0  0  0
  -22.4080  -11.9876   22.4830 H   0  0  0  0  0  0
  -21.1093  -13.1274   22.2669 H   0  0  0  0  0  0
  -24.6274  -15.8256   20.4717 H   0  0  0  0  0  0
  -26.2171  -15.6097   19.9498 H   0  0  0  0  0  0
  -26.7257  -32.5352   23.1028 H   0  0  0  0  0  0
  -25.0059  -33.9650   25.0333 H   0  0  0  0  0  0
  -22.7442  -31.2913   21.3794 H   0  0  0  0  0  0
  -23.3787  -35.9549   23.3200 H   0  0  0  0  0  0
  -24.3604  -36.8980   22.2066 H   0  0  0  0  0  0
  -23.7175  -37.6404   23.6718 H   0  0  0  0  0  0
  -26.1465  -31.4895   20.6114 H   0  0  0  0  0  0
  -26.8674  -30.7865   22.0244 H   0  0  0  0  0  0
  -28.1412  -28.8472   21.2198 H   0  0  0  0  0  0
  -25.9580  -25.8484   19.0234 H   0  0  0  0  0  0
  -23.9845  -27.2860   18.9995 H   0  0  0  0  0  0
  -23.8068  -30.5693   19.3996 H   0  0  0  0  0  0
  -22.7860  -29.2367   19.8414 H   0  0  0  0  0  0
  -25.1270  -36.1870   25.0807 H   0  0  0  0  0  0
  -21.0015  -28.3328   24.1357 H   0  0  0  0  0  0
  -20.5695  -26.2343   23.3628 H   0  0  0  0  0  0
  -21.6663  -26.7441   22.1201 H   0  0  0  0  0  0
  -19.6930  -25.6293   21.1254 H   0  0  0  0  0  0
  -19.6691  -27.3192   20.6741 H   0  0  0  0  0  0
  -17.4211  -26.6665   21.4047 H   0  0  0  0  0  0
  -18.0357  -26.0076   22.9032 H   0  0  0  0  0  0
  -19.7960  -30.7277   24.2263 H   0  0  0  0  0  0
  -17.5039  -31.6267   24.5176 H   0  0  0  0  0  0
  -15.5374  -30.2996   23.7648 H   0  0  0  0  0  0
  -15.8694  -28.0817   22.7081 H   0  0  0  0  0  0
  -24.5860  -30.7153   25.7734 H   0  0  0  0  0  0
  -24.8931  -32.2972   26.4800 H   0  0  0  0  0  0
  -25.7981  -30.8959   27.0215 H   0  0  0  0  0  0
  -26.2985  -29.6698   24.1265 H   0  0  0  0  0  0
  -27.3986  -29.7258   25.4831 H   0  0  0  0  0  0
  -27.8892  -30.4211   23.9581 H   0  0  0  0  0  0
  -27.2650  -33.3628   26.2048 H   0  0  0  0  0  0
  -28.3868  -32.6885   25.0314 H   0  0  0  0  0  0
  -28.0727  -31.8467   26.5412 H   0  0  0  0  0  0
  -28.2488  -38.0170   24.7679 H   0  0  0  0  0  0
  -28.1223  -36.2718   24.5992 H   0  0  0  0  0  0
  -27.2365  -37.1057   25.8838 H   0  0  0  0  0  0
  -20.9449  -29.8759   21.6784 H   0  0  0  0  0  0
  -26.0124  -38.2814   24.1589 H   0  0  0  0  0  0
  -27.4460  -17.4551   20.7474 H   0  0  0  0  0  0
  -25.9184  -19.2217   20.5980 H   0  0  0  0  0  0
  -26.4257  -20.8571   20.1922 H   0  0  0  0  0  0
  -26.4541  -20.3125   21.8747 H   0  0  0  0  0  0
  -31.6330  -21.3323   19.5979 H   0  0  0  0  0  0
  -32.5507  -20.0195   20.3332 H   0  0  0  0  0  0
  -31.7732  -21.2252   21.3581 H   0  0  0  0  0  0
  -29.7133  -22.3101   21.6964 H   0  0  0  0  0  0
  -28.0211  -22.0965   21.6607 H   0  0  0  0  0  0
  -28.2202  -24.8047   21.7526 H   0  0  0  0  0  0
  -26.9407  -24.5942   20.6110 H   0  0  0  0  0  0
  -28.7324  -15.6058   20.8496 H   0  0  0  0  0  0
  1 25  1  0  0  0
  1 30  2  0  0  0
  1 82  1  0  0  0
  2  3  1  0  0  0
  2 25  1  0  0  0
  2 84  1  0  0  0
  2 85  1  0  0  0
  3  4  1  0  0  0
  3 86  1  0  0  0
  3 87  1  0  0  0
  4  5  1  0  0  0
  4 88  1  0  0  0
  4 89  1  0  0  0
  5  6  1  0  0  0
  5 26  1  0  0  0
  5 90  1  0  0  0
  6 25  1  0  0  0
  6 91  1  0  0  0
  6 92  1  0  0  0
  7  8  2  0  0  0
  7 26  1  0  0  0
  7 29  1  0  0  0
  8  9  1  0  0  0
  8 22  1  0  0  0
  9 10  1  0  0  0
  9 27  2  0  0  0
 10 11  2  0  0  0
 10 15  1  0  0  0
 11 12  1  0  0  0
 11 93  1  0  0  0
 12 13  2  0  0  0
 12 94  1  0  0  0
 13 14  1  0  0  0
 13 31  1  0  0  0
 14 15  2  0  0  0
 14 95  1  0  0  0
 15 96  1  0  0  0
 16 17  2  0  0  0
 16 21  1  0  0  0
 16 31  1  0  0  0
 17 18  1  0  0  0
 17 97  1  0  0  0
 18 19  2  0  0  0
 18 98  1  0  0  0
 19 20  1  0  0  0
 19 24  1  0  0  0
 20 21  2  0  0  0
 20 99  1  0  0  0
 21 23  1  0  0  0
 22 28  1  0  0  0
 22 32  2  0  0  0
 26 27  1  0  0  0
 28100  1  0  0  0
 28101  1  0  0  0
 29102  1  0  0  0
 29103  1  0  0  0
 33 34  1  0  0  0
 33 66  1  0  0  0
 33 70  2  0  0  0
 34 36  1  0  0  0
 34 59  1  0  0  0
 34104  1  0  0  0
 35 44  2  0  0  0
 35 45  1  0  0  0
 35 68  1  0  0  0
 36 56  1  0  0  0
 36105  1  0  0  0
 37 39  1  0  0  0
 37 47  1  0  0  0
 37 66  1  0  0  0
 37106  1  0  0  0
 38 43  2  0  0  0
 38 46  1  0  0  0
 38 47  1  0  0  0
 39 64  1  0  0  0
 39 67  2  0  0  0
 40 52  1  0  0  0
 40 53  2  0  0  0
 40 58  1  0  0  0
 41107  1  0  0  0
 41108  1  0  0  0
 41109  1  0  0  0
 41 48  1  0  0  0
 42 43  1  0  0  0
 42 66  1  0  0  0
 42110  1  0  0  0
 42111  1  0  0  0
 43 44  1  0  0  0
 44112  1  0  0  0
 45 46  2  0  0  0
 45113  1  0  0  0
 46114  1  0  0  0
 47115  1  0  0  0
 47116  1  0  0  0
 48 56  1  0  0  0
 48 65  1  0  0  0
 48117  1  0  0  0
 49 50  1  0  0  0
 49 53  1  0  0  0
 49 64  1  0  0  0
 49118  1  0  0  0
 50 51  1  0  0  0
 50119  1  0  0  0
 50120  1  0  0  0
 51 52  1  0  0  0
 51121  1  0  0  0
 51122  1  0  0  0
 52123  1  0  0  0
 52124  1  0  0  0
 53 54  1  0  0  0
 54 55  2  0  0  0
 54125  1  0  0  0
 55 57  1  0  0  0
 55126  1  0  0  0
 56 69  2  0  0  0
 57 58  2  0  0  0
 57127  1  0  0  0
 58128  1  0  0  0
 59 60  1  0  0  0
 59 61  1  0  0  0
 59 62  1  0  0  0
 60129  1  0  0  0
 60130  1  0  0  0
 60131  1  0  0  0
 61132  1  0  0  0
 61133  1  0  0  0
 61134  1  0  0  0
 62135  1  0  0  0
 62136  1  0  0  0
 62137  1  0  0  0
 63 65  1  0  0  0
 63138  1  0  0  0
 63139  1  0  0  0
 63140  1  0  0  0
 64141  1  0  0  0
 65142  1  0  0  0
 68 80  1  0  0  0
 71 72  2  0  0  0
 71 75  1  0  0  0
 71143  1  0  0  0
 72 73  1  0  0  0
 72 77  1  0  0  0
 73 74  2  0  0  0
 73 79  1  0  0  0
 74 78  1  0  0  0
 74 81  1  0  0  0
 75 81  2  0  0  0
 75 82  1  0  0  0
 76 79  1  0  0  0
 76 80  1  0  0  0
 76 83  2  0  0  0
 77144  1  0  0  0
 77145  1  0  0  0
 77146  1  0  0  0
 78147  1  0  0  0
 78148  1  0  0  0
 78149  1  0  0  0
 79150  1  0  0  0
 79151  1  0  0  0
 80152  1  0  0  0
 80153  1  0  0  0
 82154  1  0  0  0
M  ISO  4   1 100  68 101  80 101  82 100
M  END
> <chiral flag>
0

> <version>
0

> <s_m_source_file>
/data/baiqing/PycharmProjects/Reinvent-master-3.2/result/LINK_invent/BTK/process_docking_weight1_custom_sum_contain_oxygen_bond_distance_aromatic_linkinvent_7_9_3/rearranged_h_0138.sdf

> <i_m_source_file_index>
94

> <r_mmod_Potential_Energy-OPLS-2005>
229.127288818359

> <r_mmod_Stretch_Energy-OPLS-2005>
200.291442871094

> <r_mmod_Bend_Energy-OPLS-2005>
257.0078125

> <r_mmod_Torsional_Energy-OPLS-2005>
228.387191772461

> <r_mmod_Improper_Torsional_Energy-OPLS-2005>
7.48835897445679

> <r_mmod_Van_der_Waal_Energy-OPLS-2005>
128.266418457031

> <r_mmod_Electrostatic_Energy-OPLS-2005>
-487.635040283203

> <r_mmod_Solvation_Energy-OPLS-2005>
-261.802917480469

> <b_mmod_Minimization_Converged-OPLS-2005>
0

> <r_mmod_RMS_Derivative-OPLS-2005>
1.48093211650848

$$$$
94
                    3D
 Structure written by MMmdl.
181190  0  0  1  0            999 V2000
  -30.6914  -14.7633   20.2770 C   0  0  0  0  0  0
  -30.4498  -12.4278   19.4679 C   0  0  0  0  0  0
  -29.5114  -12.3377   18.2474 C   0  0  0  0  0  0
  -28.0205  -12.2967   18.6631 C   0  0  0  0  0  0
  -27.6310  -13.2061   19.8662 C   0  0  2  0  0  0
  -28.7249  -13.2278   20.9579 C   0  0  0  0  0  0
  -25.2517  -13.8084   20.5865 C   0  0  0  0  0  0
  -24.1768  -13.0365   20.9335 C   0  0  0  0  0  0
  -24.6332  -11.6842   20.8871 C   0  0  0  0  0  0
  -23.8993  -10.4267   21.0482 C   0  0  0  0  0  0
  -24.3565   -9.4200   21.9243 C   0  0  0  0  0  0
  -23.6258   -8.2227   22.0774 C   0  0  0  0  0  0
  -22.4266   -8.0265   21.3538 C   0  0  0  0  0  0
  -21.9887   -9.0249   20.4656 C   0  0  0  0  0  0
  -22.7192  -10.2149   20.3101 C   0  0  0  0  0  0
  -21.6843   -6.0716   22.5291 C   0  0  0  0  0  0
  -21.3986   -6.5618   23.8208 C   0  0  0  0  0  0
  -21.3664   -5.6784   24.9179 C   0  0  0  0  0  0
  -21.6067   -4.3038   24.7244 C   0  0  0  0  0  0
  -21.8816   -3.8136   23.4356 C   0  0  0  0  0  0
  -21.9195   -4.6951   22.3421 C   0  0  0  0  0  0
  -22.7819  -13.5244   21.1921 C   0  0  0  0  0  0
  -22.1678   -4.2119   21.1003 F   0  0  0  0  0  0
  -21.5655   -3.4529   25.7760 F   0  0  0  0  0  0
  -30.0054  -13.5599   20.3019 N   0  0  0  0  0  0
  -26.2938  -12.9191   20.3648 N   0  0  0  0  0  0
  -25.9267  -11.6378   20.6026 N   0  0  0  0  0  0
  -22.0364  -12.8223   22.0418 N   0  0  0  0  0  0
  -25.4167  -15.1782   20.4181 N   0  0  0  0  0  0
  -31.9199  -14.7580   20.2792 O   0  0  0  0  0  0
  -21.6631   -6.8862   21.4248 O   0  0  0  0  0  0
  -22.3545  -14.5586   20.6803 O   0  0  0  0  0  0
  -24.6277  -31.8552   23.2011 C   0  0  0  0  0  0
  -25.9131  -32.4763   23.8347 C   0  0  1  0  0  0
  -27.2194  -27.2922   20.1006 C   0  0  0  0  0  0
  -25.5959  -33.8554   24.2301 N   0  0  0  0  0  0
  -23.4184  -30.4823   21.5429 C   0  0  2  0  0  0
  -24.8701  -28.9321   20.1029 C   0  0  0  0  0  0
  -22.7518  -29.4577   22.4895 C   0  0  0  0  0  0
  -18.0293  -28.1299   22.8395 C   0  0  0  0  0  0
  -24.1504  -36.7262   23.2650 C   0  0  0  0  0  0
  -25.9694  -30.7764   21.3774 C   0  0  0  0  0  0
  -26.0415  -29.4013   20.7179 C   0  0  0  0  0  0
  -27.2208  -28.5970   20.6965 C   0  0  0  0  0  0
  -26.0246  -26.8753   19.4735 C   0  0  0  0  0  0
  -24.8716  -27.6864   19.4603 C   0  0  0  0  0  0
  -23.6363  -29.8171   20.1602 C   0  0  0  0  0  0
  -25.4096  -36.3050   24.0386 C   0  0  1  0  0  0
  -20.5894  -28.3637   23.1232 C   0  0  2  0  0  0
  -20.6801  -26.9344   22.5362 C   0  0  0  0  0  0
  -19.5785  -26.6298   21.5158 C   0  0  0  0  0  0
  -18.1966  -26.7846   22.1575 C   0  0  0  0  0  0
  -19.1560  -28.8782   23.2832 C   0  0  0  0  0  0
  -18.9482  -30.1371   23.8870 C   0  0  0  0  0  0
  -17.6510  -30.6526   24.0478 C   0  0  0  0  0  0
  -25.9045  -34.9423   23.5115 C   0  0  0  0  0  0
  -16.5386  -29.8977   23.6329 C   0  0  0  0  0  0
  -16.7301  -28.6413   23.0298 C   0  0  0  0  0  0
  -26.4485  -31.6566   25.0698 C   0  0  0  0  0  0
  -25.3709  -31.3695   26.1436 C   0  0  0  0  0  0
  -27.0383  -30.3052   24.6090 C   0  0  0  0  0  0
  -27.6081  -32.4274   25.7437 C   0  0  0  0  0  0
  -27.5575  -37.1758   24.8468 C   0  0  0  0  0  0
  -21.4214  -29.2990   22.3695 N   0  0  0  0  0  0
  -26.4262  -37.3727   23.9455 N   0  0  0  0  0  0
  -24.6911  -31.0546   22.1022 N   0  0  0  0  0  0
  -23.4275  -28.8017   23.2873 O   0  0  0  0  0  0
  -28.3299  -26.4306   20.0769 O   0  0  0  0  0  0
  -26.5576  -34.8869   22.4665 O   0  0  0  0  0  0
  -23.5456  -32.1290   23.7436 O   0  0  0  0  0  0
  -27.6976  -16.4413   23.9240 C   0  0  0  0  0  0
  -29.0457  -17.0657   24.2828 C   0  0  0  0  0  0
  -27.8791  -16.9562   22.4969 C   0  0  0  0  0  0
  -30.0961  -16.4405   17.5572 C   0  0  0  0  0  0
  -29.2374  -15.8679   18.6601 C   0  0  0  0  0  0
  -28.9821  -17.9050   22.9867 C   0  0  0  0  0  0
  -30.6279  -17.6985   18.2171 C   0  0  1  0  0  0
  -30.6672  -17.3538   19.7448 C   0  0  1  0  0  0
  -31.1252  -20.8401   21.4857 C   0  0  0  0  0  0
  -31.8334  -18.5391   16.1973 C   0  0  0  0  0  0
  -30.2413  -18.0515   22.1378 C   0  0  0  0  0  0
  -28.8378  -23.7658   19.6863 C   0  0  0  0  0  0
  -29.1696  -21.0849   19.7565 C   0  0  0  0  0  0
  -28.1391  -24.9972   20.4667 C   0  0  0  0  0  0
  -29.9883  -18.5108   20.6587 C   0  0  1  0  0  0
  -30.3038  -20.1080   20.3861 C   0  0  2  0  0  0
  -30.0438  -15.9421   19.8801 N   0  0  0  0  0  0
  -31.9146  -18.1712   17.6301 N   0  3  0  0  0  0
  -28.7790  -22.4161   20.4196 N   0  3  0  0  0  0
  -31.4827  -12.5490   19.1379 H   0  0  0  0  0  0
  -30.4239  -11.5002   20.0381 H   0  0  0  0  0  0
  -29.7377  -11.4145   17.7121 H   0  0  0  0  0  0
  -29.7204  -13.1251   17.5243 H   0  0  0  0  0  0
  -27.8110  -11.2596   18.9251 H   0  0  0  0  0  0
  -27.3842  -12.5145   17.8062 H   0  0  0  0  0  0
  -27.5276  -14.2120   19.4940 H   0  0  0  0  0  0
  -28.7862  -12.2626   21.4638 H   0  0  0  0  0  0
  -28.4865  -13.9574   21.7306 H   0  0  0  0  0  0
  -25.2702   -9.5668   22.4827 H   0  0  0  0  0  0
  -23.9972   -7.4606   22.7475 H   0  0  0  0  0  0
  -21.0838   -8.8799   19.8910 H   0  0  0  0  0  0
  -22.3684  -10.9725   19.6227 H   0  0  0  0  0  0
  -21.1921   -7.6108   23.9700 H   0  0  0  0  0  0
  -21.1505   -6.0510   25.9079 H   0  0  0  0  0  0
  -22.0572   -2.7583   23.2899 H   0  0  0  0  0  0
  -22.3904  -11.9881   22.4864 H   0  0  0  0  0  0
  -21.0971  -13.1291   22.2558 H   0  0  0  0  0  0
  -24.6516  -15.8341   20.5312 H   0  0  0  0  0  0
  -26.2825  -15.6177   20.1360 H   0  0  0  0  0  0
  -26.7226  -32.5404   23.1115 H   0  0  0  0  0  0
  -25.0226  -33.9790   25.0540 H   0  0  0  0  0  0
  -22.7094  -31.3004   21.3939 H   0  0  0  0  0  0
  -23.3789  -35.9564   23.3284 H   0  0  0  0  0  0
  -24.3664  -36.8888   22.2078 H   0  0  0  0  0  0
  -23.7254  -37.6459   23.6661 H   0  0  0  0  0  0
  -26.0973  -31.5382   20.6104 H   0  0  0  0  0  0
  -26.8683  -30.8366   21.9860 H   0  0  0  0  0  0
  -28.1236  -28.9453   21.1834 H   0  0  0  0  0  0
  -25.9756  -25.9118   18.9839 H   0  0  0  0  0  0
  -23.9942  -27.3287   18.9383 H   0  0  0  0  0  0
  -23.7513  -30.5983   19.4088 H   0  0  0  0  0  0
  -22.7520  -29.2510   19.8572 H   0  0  0  0  0  0
  -25.1273  -36.1892   25.0894 H   0  0  0  0  0  0
  -21.0031  -28.3190   24.1338 H   0  0  0  0  0  0
  -20.5625  -26.2253   23.3575 H   0  0  0  0  0  0
  -21.6671  -26.7304   22.1152 H   0  0  0  0  0  0
  -19.6997  -25.6205   21.1197 H   0  0  0  0  0  0
  -19.6763  -27.3104   20.6673 H   0  0  0  0  0  0
  -17.4226  -26.6605   21.3977 H   0  0  0  0  0  0
  -18.0344  -25.9967   22.8941 H   0  0  0  0  0  0
  -19.7987  -30.7141   24.2258 H   0  0  0  0  0  0
  -17.5060  -31.6227   24.5057 H   0  0  0  0  0  0
  -15.5366  -30.2857   23.7655 H   0  0  0  0  0  0
  -15.8701  -28.0729   22.6981 H   0  0  0  0  0  0
  -24.5938  -30.6964   25.7766 H   0  0  0  0  0  0
  -24.8754  -32.2818   26.4766 H   0  0  0  0  0  0
  -25.8000  -30.8932   27.0268 H   0  0  0  0  0  0
  -26.2965  -29.6769   24.1143 H   0  0  0  0  0  0
  -27.4271  -29.7315   25.4516 H   0  0  0  0  0  0
  -27.8685  -30.4494   23.9179 H   0  0  0  0  0  0
  -27.2837  -33.3676   26.1883 H   0  0  0  0  0  0
  -28.3901  -32.6699   25.0232 H   0  0  0  0  0  0
  -28.0684  -31.8429   26.5416 H   0  0  0  0  0  0
  -28.2489  -38.0120   24.7546 H   0  0  0  0  0  0
  -28.1175  -36.2684   24.6224 H   0  0  0  0  0  0
  -27.2330  -37.1261   25.8861 H   0  0  0  0  0  0
  -20.9447  -29.8851   21.7023 H   0  0  0  0  0  0
  -26.0169  -38.2802   24.1487 H   0  0  0  0  0  0
  -26.8651  -16.9142   24.4467 H   0  0  0  0  0  0
  -27.6679  -15.3549   24.0058 H   0  0  0  0  0  0
  -29.8468  -16.3235   24.2948 H   0  0  0  0  0  0
  -29.0119  -17.6272   25.2175 H   0  0  0  0  0  0
  -26.9989  -17.4469   22.0777 H   0  0  0  0  0  0
  -28.2725  -16.2024   21.8199 H   0  0  0  0  0  0
  -29.5154  -16.6197   16.6519 H   0  0  0  0  0  0
  -30.9008  -15.7388   17.3235 H   0  0  0  0  0  0
  -28.9684  -14.8871   18.3192 H   0  0  0  0  0  0
  -28.3129  -16.4367   18.7806 H   0  0  0  0  0  0
  -28.5325  -18.8830   23.1831 H   0  0  0  0  0  0
  -29.8782  -18.4745   18.0464 H   0  0  0  0  0  0
  -31.7178  -17.2870   20.0325 H   0  0  0  0  0  0
  -31.2772  -21.8990   21.2657 H   0  0  0  0  0  0
  -32.1245  -20.4039   21.5813 H   0  0  0  0  0  0
  -30.6372  -20.7980   22.4606 H   0  0  0  0  0  0
  -32.7763  -18.9665   15.8566 H   0  0  0  0  0  0
  -31.0504  -19.2790   16.0255 H   0  0  0  0  0  0
  -31.6181  -17.6728   15.5691 H   0  0  0  0  0  0
  -30.7529  -17.0908   22.1439 H   0  0  0  0  0  0
  -30.9719  -18.6629   22.6605 H   0  0  0  0  0  0
  -29.8829  -24.0107   19.5001 H   0  0  0  0  0  0
  -28.3675  -23.6570   18.7022 H   0  0  0  0  0  0
  -28.2487  -20.5054   19.6592 H   0  0  0  0  0  0
  -29.4636  -21.2962   18.7291 H   0  0  0  0  0  0
  -28.5317  -24.9407   21.4850 H   0  0  0  0  0  0
  -27.0820  -24.7674   20.6006 H   0  0  0  0  0  0
  -28.9147  -18.4213   20.4759 H   0  0  0  0  0  0
  -31.0131  -20.0664   19.5614 H   0  0  0  0  0  0
  -32.6178  -17.4529   17.7102 H   0  0  0  0  0  0
  -32.2668  -18.9783   18.1214 H   0  0  0  0  0  0
  -27.7919  -22.3007   20.5987 H   0  0  0  0  0  0
  -29.2173  -22.5023   21.3255 H   0  0  0  0  0  0
  1 25  1  0  0  0
  1 30  2  0  0  0
  1 87  1  0  0  0
  2  3  1  0  0  0
  2 25  1  0  0  0
  2 90  1  0  0  0
  2 91  1  0  0  0
  3  4  1  0  0  0
  3 92  1  0  0  0
  3 93  1  0  0  0
  4  5  1  0  0  0
  4 94  1  0  0  0
  4 95  1  0  0  0
  5  6  1  0  0  0
  5 26  1  0  0  0
  5 96  1  0  0  0
  6 25  1  0  0  0
  6 97  1  0  0  0
  6 98  1  0  0  0
  7  8  2  0  0  0
  7 26  1  0  0  0
  7 29  1  0  0  0
  8  9  1  0  0  0
  8 22  1  0  0  0
  9 10  1  0  0  0
  9 27  2  0  0  0
 10 11  2  0  0  0
 10 15  1  0  0  0
 11 12  1  0  0  0
 11 99  1  0  0  0
 12 13  2  0  0  0
 12100  1  0  0  0
 13 14  1  0  0  0
 13 31  1  0  0  0
 14 15  2  0  0  0
 14101  1  0  0  0
 15102  1  0  0  0
 16 17  2  0  0  0
 16 21  1  0  0  0
 16 31  1  0  0  0
 17 18  1  0  0  0
 17103  1  0  0  0
 18 19  2  0  0  0
 18104  1  0  0  0
 19 20  1  0  0  0
 19 24  1  0  0  0
 20 21  2  0  0  0
 20105  1  0  0  0
 21 23  1  0  0  0
 22 28  1  0  0  0
 22 32  2  0  0  0
 26 27  1  0  0  0
 28106  1  0  0  0
 28107  1  0  0  0
 29108  1  0  0  0
 29109  1  0  0  0
 33 34  1  0  0  0
 33 66  1  0  0  0
 33 70  2  0  0  0
 34 36  1  0  0  0
 34 59  1  0  0  0
 34110  1  0  0  0
 35 44  2  0  0  0
 35 45  1  0  0  0
 35 68  1  0  0  0
 36 56  1  0  0  0
 36111  1  0  0  0
 37 39  1  0  0  0
 37 47  1  0  0  0
 37 66  1  0  0  0
 37112  1  0  0  0
 38 43  2  0  0  0
 38 46  1  0  0  0
 38 47  1  0  0  0
 39 64  1  0  0  0
 39 67  2  0  0  0
 40 52  1  0  0  0
 40 53  2  0  0  0
 40 58  1  0  0  0
 41113  1  0  0  0
 41114  1  0  0  0
 41115  1  0  0  0
 41 48  1  0  0  0
 42 43  1  0  0  0
 42 66  1  0  0  0
 42116  1  0  0  0
 42117  1  0  0  0
 43 44  1  0  0  0
 44118  1  0  0  0
 45 46  2  0  0  0
 45119  1  0  0  0
 46120  1  0  0  0
 47121  1  0  0  0
 47122  1  0  0  0
 48 56  1  0  0  0
 48 65  1  0  0  0
 48123  1  0  0  0
 49 50  1  0  0  0
 49 53  1  0  0  0
 49 64  1  0  0  0
 49124  1  0  0  0
 50 51  1  0  0  0
 50125  1  0  0  0
 50126  1  0  0  0
 51 52  1  0  0  0
 51127  1  0  0  0
 51128  1  0  0  0
 52129  1  0  0  0
 52130  1  0  0  0
 53 54  1  0  0  0
 54 55  2  0  0  0
 54131  1  0  0  0
 55 57  1  0  0  0
 55132  1  0  0  0
 56 69  2  0  0  0
 57 58  2  0  0  0
 57133  1  0  0  0
 58134  1  0  0  0
 59 60  1  0  0  0
 59 61  1  0  0  0
 59 62  1  0  0  0
 60135  1  0  0  0
 60136  1  0  0  0
 60137  1  0  0  0
 61138  1  0  0  0
 61139  1  0  0  0
 61140  1  0  0  0
 62141  1  0  0  0
 62142  1  0  0  0
 62143  1  0  0  0
 63 65  1  0  0  0
 63144  1  0  0  0
 63145  1  0  0  0
 63146  1  0  0  0
 64147  1  0  0  0
 65148  1  0  0  0
 68 84  1  0  0  0
 71 72  1  0  0  0
 71 73  1  0  0  0
 71149  1  0  0  0
 71150  1  0  0  0
 72 76  1  0  0  0
 72151  1  0  0  0
 72152  1  0  0  0
 73 76  1  0  0  0
 73153  1  0  0  0
 73154  1  0  0  0
 74 75  1  0  0  0
 74 77  1  0  0  0
 74155  1  0  0  0
 74156  1  0  0  0
 75 87  1  0  0  0
 75157  1  0  0  0
 75158  1  0  0  0
 76 81  1  0  0  0
 76159  1  0  0  0
 77 78  1  0  0  0
 77 88  1  0  0  0
 77160  1  0  0  0
 78 85  1  0  0  0
 78 87  1  0  0  0
 78161  1  0  0  0
 79162  1  0  0  0
 79163  1  0  0  0
 79164  1  0  0  0
 79 86  1  0  0  0
 80 88  1  0  0  0
 80165  1  0  0  0
 80166  1  0  0  0
 80167  1  0  0  0
 81168  1  0  0  0
 81169  1  0  0  0
 81 85  1  0  0  0
 82 84  1  0  0  0
 82 89  1  0  0  0
 82170  1  0  0  0
 82171  1  0  0  0
 83 86  1  0  0  0
 83 89  1  0  0  0
 83172  1  0  0  0
 83173  1  0  0  0
 84174  1  0  0  0
 84175  1  0  0  0
 85 86  1  0  0  0
 85176  1  0  0  0
 86177  1  0  0  0
 88178  1  0  0  0
 88179  1  0  0  0
 89180  1  0  0  0
 89181  1  0  0  0
M  CHG  2  88   1  89   1
M  ISO  4   1 100  68 101  84 101  87 100
M  END
> <chiral flag>
0

> <version>
0

> <s_m_source_file>
/data/baiqing/PycharmProjects/Reinvent-master-3.2/result/LINK_invent/BTK/process_docking_weight1_custom_sum_contain_oxygen_bond_distance_aromatic_linkinvent_7_9_3/rearranged_h_0138.sdf

> <i_m_source_file_index>
95

> <r_mmod_Potential_Energy-OPLS-2005>
352.793853759766

> <r_mmod_Stretch_Energy-OPLS-2005>
141.573593139648

> <r_mmod_Bend_Energy-OPLS-2005>
253.847671508789

> <r_mmod_Torsional_Energy-OPLS-2005>
502.717590332031

> <r_mmod_Improper_Torsional_Energy-OPLS-2005>
14.1337127685547

> <r_mmod_Van_der_Waal_Energy-OPLS-2005>
125.626365661621

> <r_mmod_Electrostatic_Energy-OPLS-2005>
116.739631652832

> <r_mmod_Solvation_Energy-OPLS-2005>
-903.395080566406

> <b_mmod_Minimization_Converged-OPLS-2005>
0

> <r_mmod_RMS_Derivative-OPLS-2005>
9.55687236785889

$$$$
95
                    3D
 Structure written by MMmdl.
148156  0  0  1  0            999 V2000
  -30.5196  -15.0273   20.4017 C   0  0  0  0  0  0
  -30.4373  -12.6398   19.5065 C   0  0  0  0  0  0
  -29.5250  -12.5419   18.2616 C   0  0  0  0  0  0
  -28.0605  -12.3134   18.6798 C   0  0  0  0  0  0
  -27.6228  -13.2566   19.8308 C   0  0  2  0  0  0
  -28.6635  -13.3235   20.9685 C   0  0  0  0  0  0
  -25.2423  -13.8226   20.5698 C   0  0  0  0  0  0
  -24.1761  -13.0437   20.9233 C   0  0  0  0  0  0
  -24.6395  -11.6927   20.8757 C   0  0  0  0  0  0
  -23.9085  -10.4290   21.0404 C   0  0  0  0  0  0
  -24.3634   -9.4203   21.9176 C   0  0  0  0  0  0
  -23.6302   -8.2242   22.0753 C   0  0  0  0  0  0
  -22.4282   -8.0280   21.3546 C   0  0  0  0  0  0
  -21.9920   -9.0255   20.4648 C   0  0  0  0  0  0
  -22.7258  -10.2128   20.3052 C   0  0  0  0  0  0
  -21.6853   -6.0733   22.5277 C   0  0  0  0  0  0
  -21.4019   -6.5636   23.8211 C   0  0  0  0  0  0
  -21.3662   -5.6789   24.9172 C   0  0  0  0  0  0
  -21.6044   -4.3052   24.7221 C   0  0  0  0  0  0
  -21.8819   -3.8144   23.4342 C   0  0  0  0  0  0
  -21.9193   -4.6961   22.3399 C   0  0  0  0  0  0
  -22.7779  -13.5199   21.1884 C   0  0  0  0  0  0
  -22.1659   -4.2145   21.0976 F   0  0  0  0  0  0
  -21.5629   -3.4537   25.7734 F   0  0  0  0  0  0
  -29.9287  -13.7561   20.3616 N   0  0  0  0  0  0
  -26.2852  -12.9472   20.3212 N   0  0  0  0  0  0
  -25.9327  -11.6593   20.5725 N   0  0  0  0  0  0
  -22.0432  -12.8195   22.0449 N   0  0  0  0  0  0
  -25.4055  -15.1959   20.4112 N   0  0  0  0  0  0
  -31.7334  -15.0514   20.1609 O   0  0  0  0  0  0
  -21.6646   -6.8880   21.4240 O   0  0  0  0  0  0
  -22.3459  -14.5497   20.6718 O   0  0  0  0  0  0
  -24.6484  -31.8389   23.1839 C   0  0  0  0  0  0
  -25.9233  -32.4672   23.8248 C   0  0  1  0  0  0
  -27.2174  -27.0812   20.1579 C   0  0  0  0  0  0
  -25.5965  -33.8481   24.2167 N   0  0  0  0  0  0
  -23.4549  -30.4562   21.5303 C   0  0  2  0  0  0
  -24.9059  -28.8720   20.1117 C   0  0  0  0  0  0
  -22.7589  -29.4521   22.4836 C   0  0  0  0  0  0
  -18.0307  -28.1396   22.8478 C   0  0  0  0  0  0
  -24.1492  -36.7245   23.2643 C   0  0  0  0  0  0
  -26.0153  -30.6945   21.3913 C   0  0  0  0  0  0
  -26.0859  -29.3005   20.7329 C   0  0  0  0  0  0
  -27.2418  -28.4228   20.7353 C   0  0  0  0  0  0
  -26.0089  -26.7662   19.4987 C   0  0  0  0  0  0
  -24.8835  -27.6206   19.4781 C   0  0  0  0  0  0
  -23.6854  -29.7815   20.1516 C   0  0  0  0  0  0
  -25.4129  -36.3021   24.0310 C   0  0  1  0  0  0
  -20.5922  -28.3730   23.1223 C   0  0  2  0  0  0
  -20.6792  -26.9428   22.5403 C   0  0  0  0  0  0
  -19.5767  -26.6378   21.5214 C   0  0  0  0  0  0
  -18.1947  -26.7933   22.1626 C   0  0  0  0  0  0
  -19.1566  -28.8880   23.2842 C   0  0  0  0  0  0
  -18.9483  -30.1474   23.8869 C   0  0  0  0  0  0
  -17.6480  -30.6591   24.0555 C   0  0  0  0  0  0
  -25.9082  -34.9396   23.5052 C   0  0  0  0  0  0
  -16.5370  -29.9083   23.6340 C   0  0  0  0  0  0
  -16.7292  -28.6501   23.0362 C   0  0  0  0  0  0
  -26.4540  -31.6559   25.0712 C   0  0  0  0  0  0
  -25.3706  -31.3765   26.1393 C   0  0  0  0  0  0
  -27.0412  -30.2945   24.6336 C   0  0  0  0  0  0
  -27.6056  -32.4338   25.7507 C   0  0  0  0  0  0
  -27.5575  -37.1781   24.8465 C   0  0  0  0  0  0
  -21.4274  -29.3048   22.3585 N   0  0  0  0  0  0
  -26.4289  -37.3740   23.9402 N   0  0  0  0  0  0
  -24.7265  -31.0189   22.0901 N   0  0  0  0  0  0
  -23.4205  -28.8073   23.3010 O   0  0  0  0  0  0
  -28.2583  -26.0652   20.2245 O   0  0  0  0  0  0
  -26.5671  -34.8899   22.4633 O   0  0  0  0  0  0
  -23.5589  -32.1295   23.7023 O   0  0  0  0  0  0
  -31.3522  -18.2277   20.4567 C   0  0  0  0  0  0
  -29.0743  -18.9415   20.3827 C   0  0  0  0  0  0
  -31.6736  -19.6060   20.4246 C   0  0  0  0  0  0
  -30.0169  -17.7715   20.4375 C   0  0  0  0  0  0
  -29.4662  -20.3892   20.3473 C   0  0  0  0  0  0
  -29.0322  -23.1686   20.3311 C   0  0  0  0  0  0
  -27.9790  -24.5100   20.1064 C   0  0  0  0  0  0
  -30.7876  -20.6360   20.3737 N   0  0  0  0  0  0
  -29.7340  -16.2362   20.4930 N   0  0  0  0  0  0
  -28.6314  -21.6333   20.2772 N   0  0  0  0  0  0
  -31.4703  -12.8009   19.1954 H   0  0  0  0  0  0
  -30.4386  -11.6997   20.0600 H   0  0  0  0  0  0
  -29.8600  -11.7363   17.6071 H   0  0  0  0  0  0
  -29.6013  -13.4620   17.6798 H   0  0  0  0  0  0
  -27.9704  -11.2755   19.0022 H   0  0  0  0  0  0
  -27.3974  -12.4236   17.8211 H   0  0  0  0  0  0
  -27.5730  -14.2501   19.3843 H   0  0  0  0  0  0
  -28.7683  -12.3581   21.4654 H   0  0  0  0  0  0
  -28.3483  -14.0338   21.7346 H   0  0  0  0  0  0
  -25.2775   -9.5678   22.4755 H   0  0  0  0  0  0
  -24.0003   -7.4637   22.7479 H   0  0  0  0  0  0
  -21.0844   -8.8783   19.8964 H   0  0  0  0  0  0
  -22.3714  -10.9667   19.6165 H   0  0  0  0  0  0
  -21.2018   -7.6145   23.9714 H   0  0  0  0  0  0
  -21.1484   -6.0518   25.9074 H   0  0  0  0  0  0
  -22.0598   -2.7605   23.2843 H   0  0  0  0  0  0
  -22.4057  -11.9869   22.4856 H   0  0  0  0  0  0
  -21.1045  -13.1213   22.2649 H   0  0  0  0  0  0
  -24.6288  -15.8404   20.5133 H   0  0  0  0  0  0
  -26.2364  -15.6373   20.0401 H   0  0  0  0  0  0
  -26.7294  -32.5258   23.0966 H   0  0  0  0  0  0
  -25.0083  -33.9596   25.0294 H   0  0  0  0  0  0
  -22.7611  -31.2842   21.3708 H   0  0  0  0  0  0
  -23.3766  -35.9566   23.3295 H   0  0  0  0  0  0
  -24.3570  -36.8892   22.2059 H   0  0  0  0  0  0
  -23.7238  -37.6431   23.6693 H   0  0  0  0  0  0
  -26.1782  -31.4461   20.6174 H   0  0  0  0  0  0
  -26.8824  -30.7453   22.0381 H   0  0  0  0  0  0
  -28.1395  -28.7457   21.2439 H   0  0  0  0  0  0
  -25.8991  -25.8096   19.0108 H   0  0  0  0  0  0
  -23.9823  -27.2876   18.9813 H   0  0  0  0  0  0
  -23.8292  -30.5544   19.3957 H   0  0  0  0  0  0
  -22.7988  -29.2274   19.8380 H   0  0  0  0  0  0
  -25.1322  -36.1846   25.0804 H   0  0  0  0  0  0
  -21.0019  -28.3326   24.1342 H   0  0  0  0  0  0
  -20.5689  -26.2344   23.3626 H   0  0  0  0  0  0
  -21.6657  -26.7429   22.1198 H   0  0  0  0  0  0
  -19.6932  -25.6280   21.1263 H   0  0  0  0  0  0
  -19.6705  -27.3168   20.6726 H   0  0  0  0  0  0
  -17.4217  -26.6674   21.4027 H   0  0  0  0  0  0
  -18.0352  -26.0076   22.9027 H   0  0  0  0  0  0
  -19.7956  -30.7297   24.2228 H   0  0  0  0  0  0
  -17.5031  -31.6271   24.5158 H   0  0  0  0  0  0
  -15.5367  -30.2978   23.7676 H   0  0  0  0  0  0
  -15.8691  -28.0805   22.7102 H   0  0  0  0  0  0
  -24.5885  -30.7124   25.7699 H   0  0  0  0  0  0
  -24.8900  -32.2954   26.4760 H   0  0  0  0  0  0
  -25.7968  -30.8963   27.0210 H   0  0  0  0  0  0
  -26.3044  -29.6654   24.1332 H   0  0  0  0  0  0
  -27.3987  -29.7268   25.4938 H   0  0  0  0  0  0
  -27.8971  -30.4164   23.9692 H   0  0  0  0  0  0
  -27.2639  -33.3658   26.2023 H   0  0  0  0  0  0
  -28.3903  -32.6871   25.0365 H   0  0  0  0  0  0
  -28.0687  -31.8507   26.5477 H   0  0  0  0  0  0
  -28.2588  -38.0083   24.7511 H   0  0  0  0  0  0
  -28.1079  -36.2612   24.6303 H   0  0  0  0  0  0
  -27.2289  -37.1435   25.8867 H   0  0  0  0  0  0
  -20.9496  -29.8752   21.6746 H   0  0  0  0  0  0
  -26.0156  -38.2807   24.1407 H   0  0  0  0  0  0
  -32.1702  -17.5231   20.5010 H   0  0  0  0  0  0
  -28.0164  -18.7191   20.3654 H   0  0  0  0  0  0
  -32.7121  -19.9003   20.4420 H   0  0  0  0  0  0
  -29.5048  -23.3067   21.3038 H   0  0  0  0  0  0
  -29.8458  -23.2862   19.6142 H   0  0  0  0  0  0
  -27.1347  -24.3341   20.7728 H   0  0  0  0  0  0
  -27.5753  -24.3730   19.1035 H   0  0  0  0  0  0
  -28.7553  -16.0220   20.6010 H   0  0  0  0  0  0
  -27.6288  -21.4732   20.2415 H   0  0  0  0  0  0
  1 25  1  0  0  0
  1 30  2  0  0  0
  1 79  1  0  0  0
  2  3  1  0  0  0
  2 25  1  0  0  0
  2 81  1  0  0  0
  2 82  1  0  0  0
  3  4  1  0  0  0
  3 83  1  0  0  0
  3 84  1  0  0  0
  4  5  1  0  0  0
  4 85  1  0  0  0
  4 86  1  0  0  0
  5  6  1  0  0  0
  5 26  1  0  0  0
  5 87  1  0  0  0
  6 25  1  0  0  0
  6 88  1  0  0  0
  6 89  1  0  0  0
  7  8  2  0  0  0
  7 26  1  0  0  0
  7 29  1  0  0  0
  8  9  1  0  0  0
  8 22  1  0  0  0
  9 10  1  0  0  0
  9 27  2  0  0  0
 10 11  2  0  0  0
 10 15  1  0  0  0
 11 12  1  0  0  0
 11 90  1  0  0  0
 12 13  2  0  0  0
 12 91  1  0  0  0
 13 14  1  0  0  0
 13 31  1  0  0  0
 14 15  2  0  0  0
 14 92  1  0  0  0
 15 93  1  0  0  0
 16 17  2  0  0  0
 16 21  1  0  0  0
 16 31  1  0  0  0
 17 18  1  0  0  0
 17 94  1  0  0  0
 18 19  2  0  0  0
 18 95  1  0  0  0
 19 20  1  0  0  0
 19 24  1  0  0  0
 20 21  2  0  0  0
 20 96  1  0  0  0
 21 23  1  0  0  0
 22 28  1  0  0  0
 22 32  2  0  0  0
 26 27  1  0  0  0
 28 97  1  0  0  0
 28 98  1  0  0  0
 29 99  1  0  0  0
 29100  1  0  0  0
 33 34  1  0  0  0
 33 66  1  0  0  0
 33 70  2  0  0  0
 34 36  1  0  0  0
 34 59  1  0  0  0
 34101  1  0  0  0
 35 44  2  0  0  0
 35 45  1  0  0  0
 35 68  1  0  0  0
 36 56  1  0  0  0
 36102  1  0  0  0
 37 39  1  0  0  0
 37 47  1  0  0  0
 37 66  1  0  0  0
 37103  1  0  0  0
 38 43  2  0  0  0
 38 46  1  0  0  0
 38 47  1  0  0  0
 39 64  1  0  0  0
 39 67  2  0  0  0
 40 52  1  0  0  0
 40 53  2  0  0  0
 40 58  1  0  0  0
 41104  1  0  0  0
 41105  1  0  0  0
 41106  1  0  0  0
 41 48  1  0  0  0
 42 43  1  0  0  0
 42 66  1  0  0  0
 42107  1  0  0  0
 42108  1  0  0  0
 43 44  1  0  0  0
 44109  1  0  0  0
 45 46  2  0  0  0
 45110  1  0  0  0
 46111  1  0  0  0
 47112  1  0  0  0
 47113  1  0  0  0
 48 56  1  0  0  0
 48 65  1  0  0  0
 48114  1  0  0  0
 49 50  1  0  0  0
 49 53  1  0  0  0
 49 64  1  0  0  0
 49115  1  0  0  0
 50 51  1  0  0  0
 50116  1  0  0  0
 50117  1  0  0  0
 51 52  1  0  0  0
 51118  1  0  0  0
 51119  1  0  0  0
 52120  1  0  0  0
 52121  1  0  0  0
 53 54  1  0  0  0
 54 55  2  0  0  0
 54122  1  0  0  0
 55 57  1  0  0  0
 55123  1  0  0  0
 56 69  2  0  0  0
 57 58  2  0  0  0
 57124  1  0  0  0
 58125  1  0  0  0
 59 60  1  0  0  0
 59 61  1  0  0  0
 59 62  1  0  0  0
 60126  1  0  0  0
 60127  1  0  0  0
 60128  1  0  0  0
 61129  1  0  0  0
 61130  1  0  0  0
 61131  1  0  0  0
 62132  1  0  0  0
 62133  1  0  0  0
 62134  1  0  0  0
 63 65  1  0  0  0
 63135  1  0  0  0
 63136  1  0  0  0
 63137  1  0  0  0
 64138  1  0  0  0
 65139  1  0  0  0
 68 77  1  0  0  0
 71 73  2  0  0  0
 71 74  1  0  0  0
 71140  1  0  0  0
 72 74  2  0  0  0
 72 75  1  0  0  0
 72141  1  0  0  0
 73 78  1  0  0  0
 73142  1  0  0  0
 74 79  1  0  0  0
 75 78  2  0  0  0
 75 80  1  0  0  0
 76 77  1  0  0  0
 76 80  1  0  0  0
 76143  1  0  0  0
 76144  1  0  0  0
 77145  1  0  0  0
 77146  1  0  0  0
 79147  1  0  0  0
 80148  1  0  0  0
M  ISO  4   1 100  68 101  77 101  79 100
M  END
> <chiral flag>
0

> <version>
0

> <s_m_source_file>
/data/baiqing/PycharmProjects/Reinvent-master-3.2/result/LINK_invent/BTK/process_docking_weight1_custom_sum_contain_oxygen_bond_distance_aromatic_linkinvent_7_9_3/rearranged_h_0138.sdf

> <i_m_source_file_index>
96

> <r_mmod_Potential_Energy-OPLS-2005>
405.187835693359

> <r_mmod_Stretch_Energy-OPLS-2005>
313.210205078125

> <r_mmod_Bend_Energy-OPLS-2005>
282.595642089844

> <r_mmod_Torsional_Energy-OPLS-2005>
200.734039306641

> <r_mmod_Improper_Torsional_Energy-OPLS-2005>
4.73828315734863

> <r_mmod_Van_der_Waal_Energy-OPLS-2005>
135.054428100586

> <r_mmod_Electrostatic_Energy-OPLS-2005>
-528.469604492188

> <r_mmod_Solvation_Energy-OPLS-2005>
-249.920974731445

> <b_mmod_Minimization_Converged-OPLS-2005>
0

> <r_mmod_RMS_Derivative-OPLS-2005>
0.737001419067383

$$$$
96
                    3D
 Structure written by MMmdl.
167176  0  0  1  0            999 V2000
  -30.7913  -14.4019   20.6646 C   0  0  0  0  0  0
  -30.4032  -12.2948   19.4309 C   0  0  0  0  0  0
  -29.4886  -12.5186   18.2116 C   0  0  0  0  0  0
  -28.0152  -12.3688   18.6256 C   0  0  0  0  0  0
  -27.6642  -13.2122   19.8762 C   0  0  2  0  0  0
  -28.6979  -13.0102   21.0079 C   0  0  0  0  0  0
  -25.2611  -13.8168   20.5727 C   0  0  0  0  0  0
  -24.1849  -13.0457   20.9204 C   0  0  0  0  0  0
  -24.6392  -11.6902   20.8740 C   0  0  0  0  0  0
  -23.9083  -10.4292   21.0410 C   0  0  0  0  0  0
  -24.3644   -9.4204   21.9189 C   0  0  0  0  0  0
  -23.6315   -8.2246   22.0750 C   0  0  0  0  0  0
  -22.4284   -8.0304   21.3552 C   0  0  0  0  0  0
  -21.9938   -9.0273   20.4641 C   0  0  0  0  0  0
  -22.7274  -10.2139   20.3046 C   0  0  0  0  0  0
  -21.6849   -6.0757   22.5301 C   0  0  0  0  0  0
  -21.4007   -6.5658   23.8238 C   0  0  0  0  0  0
  -21.3665   -5.6810   24.9200 C   0  0  0  0  0  0
  -21.6031   -4.3070   24.7241 C   0  0  0  0  0  0
  -21.8815   -3.8168   23.4363 C   0  0  0  0  0  0
  -21.9188   -4.6982   22.3422 C   0  0  0  0  0  0
  -22.7888  -13.5249   21.1886 C   0  0  0  0  0  0
  -22.1655   -4.2172   21.0995 F   0  0  0  0  0  0
  -21.5622   -3.4548   25.7749 F   0  0  0  0  0  0
  -30.0515  -13.2710   20.4781 N   0  0  0  0  0  0
  -26.3041  -12.9348   20.3357 N   0  0  0  0  0  0
  -25.9325  -11.6507   20.5780 N   0  0  0  0  0  0
  -22.0518  -12.8226   22.0407 N   0  0  0  0  0  0
  -25.4389  -15.1910   20.4109 N   0  0  0  0  0  0
  -31.7859  -14.6459   19.9789 O   0  0  0  0  0  0
  -21.6638   -6.8907   21.4262 O   0  0  0  0  0  0
  -22.3556  -14.5574   20.6757 O   0  0  0  0  0  0
  -24.6167  -31.8669   23.2198 C   0  0  0  0  0  0
  -25.9049  -32.4832   23.8462 C   0  0  1  0  0  0
  -27.2305  -27.4467   20.0801 C   0  0  0  0  0  0
  -25.5931  -33.8642   24.2390 N   0  0  0  0  0  0
  -23.4086  -30.4905   21.5577 C   0  0  2  0  0  0
  -24.8468  -28.9725   20.1041 C   0  0  0  0  0  0
  -22.7469  -29.4627   22.4993 C   0  0  0  0  0  0
  -18.0294  -28.1359   22.8472 C   0  0  0  0  0  0
  -24.1507  -36.7327   23.2649 C   0  0  0  0  0  0
  -25.9362  -30.8318   21.3692 C   0  0  0  0  0  0
  -26.0039  -29.4699   20.7128 C   0  0  0  0  0  0
  -27.1905  -28.7078   20.7100 C   0  0  0  0  0  0
  -26.0542  -26.9730   19.4388 C   0  0  0  0  0  0
  -24.8671  -27.7263   19.4570 C   0  0  0  0  0  0
  -23.6111  -29.8338   20.1667 C   0  0  0  0  0  0
  -25.4128  -36.3143   24.0369 C   0  0  1  0  0  0
  -20.5922  -28.3657   23.1371 C   0  0  2  0  0  0
  -20.6811  -26.9382   22.5473 C   0  0  0  0  0  0
  -19.5768  -26.6387   21.5273 C   0  0  0  0  0  0
  -18.1930  -26.7911   22.1637 C   0  0  0  0  0  0
  -19.1553  -28.8816   23.2902 C   0  0  0  0  0  0
  -18.9449  -30.1416   23.8901 C   0  0  0  0  0  0
  -17.6457  -30.6541   24.0547 C   0  0  0  0  0  0
  -25.9056  -34.9501   23.5205 C   0  0  0  0  0  0
  -16.5354  -29.9036   23.6312 C   0  0  0  0  0  0
  -16.7281  -28.6479   23.0292 C   0  0  0  0  0  0
  -26.4454  -31.6619   25.0759 C   0  0  0  0  0  0
  -25.3701  -31.3696   26.1484 C   0  0  0  0  0  0
  -27.0273  -30.3086   24.6082 C   0  0  0  0  0  0
  -27.6054  -32.4338   25.7462 C   0  0  0  0  0  0
  -27.5613  -37.1830   24.8488 C   0  0  0  0  0  0
  -21.4211  -29.2995   22.3724 N   0  0  0  0  0  0
  -26.4320  -37.3813   23.9437 N   0  0  0  0  0  0
  -24.6730  -31.0775   22.1064 N   0  0  0  0  0  0
  -23.4259  -28.8127   23.2983 O   0  0  0  0  0  0
  -28.4054  -26.7287   20.1084 O   0  0  0  0  0  0
  -26.5580  -34.8903   22.4743 O   0  0  0  0  0  0
  -23.5384  -32.1464   23.7579 O   0  0  0  0  0  0
  -29.0912  -20.7794   23.3346 C   0  0  0  0  0  0
  -29.9549  -21.0526   21.0903 C   0  0  0  0  0  0
  -29.8781  -20.2841   22.2768 C   0  0  0  0  0  0
  -28.4333  -22.0113   23.1737 C   0  0  0  0  0  0
  -29.2977  -22.2970   21.0368 C   0  0  0  0  0  0
  -33.0071  -18.0270   22.5049 C   0  0  0  0  0  0
  -32.1767  -19.2419   22.0805 C   0  0  0  0  0  0
  -32.4716  -16.7667   21.8004 C   0  0  0  0  0  0
  -30.1236  -17.7408   21.8070 C   0  0  0  0  0  0
  -30.7044  -19.0189   22.4736 C   0  0  2  0  0  0
  -30.9857  -16.4940   22.1630 C   0  0  1  0  0  0
  -27.6072  -22.6143   24.2878 C   0  0  0  0  0  0
  -29.5728  -24.5888   20.2008 C   0  0  0  0  0  0
  -28.3359  -25.3570   19.7217 C   0  0  0  0  0  0
  -28.5324  -22.7504   22.0497 N   0  0  0  0  0  0
  -29.4710  -23.1439   19.9388 N   0  0  0  0  0  0
  -30.4132  -15.2107   21.6782 N   0  0  0  0  0  0
  -31.4525  -12.3456   19.1391 H   0  0  0  0  0  0
  -30.2619  -11.2831   19.8191 H   0  0  0  0  0  0
  -29.7264  -11.7947   17.4270 H   0  0  0  0  0  0
  -29.6604  -13.5089   17.7890 H   0  0  0  0  0  0
  -27.8375  -11.3132   18.8353 H   0  0  0  0  0  0
  -27.3599  -12.6186   17.7894 H   0  0  0  0  0  0
  -27.7092  -14.2587   19.5709 H   0  0  0  0  0  0
  -28.6533  -11.9891   21.3825 H   0  0  0  0  0  0
  -28.4411  -13.6413   21.8600 H   0  0  0  0  0  0
  -25.2776   -9.5669   22.4785 H   0  0  0  0  0  0
  -24.0027   -7.4608   22.7449 H   0  0  0  0  0  0
  -21.0887   -8.8806   19.8929 H   0  0  0  0  0  0
  -22.3764  -10.9697   19.6157 H   0  0  0  0  0  0
  -21.1999   -7.6154   23.9766 H   0  0  0  0  0  0
  -21.1483   -6.0518   25.9104 H   0  0  0  0  0  0
  -22.0578   -2.7632   23.2862 H   0  0  0  0  0  0
  -22.4121  -11.9865   22.4798 H   0  0  0  0  0  0
  -21.1116  -13.1231   22.2584 H   0  0  0  0  0  0
  -24.6835  -15.8601   20.5173 H   0  0  0  0  0  0
  -26.3138  -15.6191   20.1298 H   0  0  0  0  0  0
  -26.7101  -32.5472   23.1222 H   0  0  0  0  0  0
  -25.0039  -33.9807   25.0517 H   0  0  0  0  0  0
  -22.7034  -31.3102   21.4272 H   0  0  0  0  0  0
  -23.3773  -35.9652   23.3298 H   0  0  0  0  0  0
  -24.3582  -36.8946   22.2068 H   0  0  0  0  0  0
  -23.7261  -37.6545   23.6636 H   0  0  0  0  0  0
  -26.0549  -31.5939   20.5978 H   0  0  0  0  0  0
  -26.8341  -30.8845   21.9775 H   0  0  0  0  0  0
  -28.0794  -29.0822   21.1985 H   0  0  0  0  0  0
  -26.0375  -26.0291   18.9166 H   0  0  0  0  0  0
  -23.9806  -27.3597   18.9550 H   0  0  0  0  0  0
  -23.7152  -30.6167   19.4183 H   0  0  0  0  0  0
  -22.7404  -29.2502   19.8675 H   0  0  0  0  0  0
  -25.1291  -36.2027   25.0859 H   0  0  0  0  0  0
  -21.0005  -28.3205   24.1500 H   0  0  0  0  0  0
  -20.5893  -26.2161   23.3614 H   0  0  0  0  0  0
  -21.6626  -26.7474   22.1123 H   0  0  0  0  0  0
  -19.6926  -25.6340   21.1182 H   0  0  0  0  0  0
  -19.6718  -27.3258   20.6853 H   0  0  0  0  0  0
  -17.4250  -26.6716   21.3972 H   0  0  0  0  0  0
  -18.0206  -26.0082   22.9047 H   0  0  0  0  0  0
  -19.7925  -30.7210   24.2283 H   0  0  0  0  0  0
  -17.5002  -31.6225   24.5134 H   0  0  0  0  0  0
  -15.5342  -30.2901   23.7645 H   0  0  0  0  0  0
  -15.8685  -28.0796   22.6965 H   0  0  0  0  0  0
  -24.5882  -30.7004   25.7814 H   0  0  0  0  0  0
  -24.8809  -32.2823   26.4930 H   0  0  0  0  0  0
  -25.8075  -30.8893   27.0253 H   0  0  0  0  0  0
  -26.2797  -29.6884   24.1131 H   0  0  0  0  0  0
  -27.4075  -29.7241   25.4468 H   0  0  0  0  0  0
  -27.8607  -30.4402   23.9159 H   0  0  0  0  0  0
  -27.2709  -33.3670   26.2020 H   0  0  0  0  0  0
  -28.3838  -32.6890   25.0228 H   0  0  0  0  0  0
  -28.0727  -31.8462   26.5385 H   0  0  0  0  0  0
  -28.2634  -38.0120   24.7524 H   0  0  0  0  0  0
  -28.1105  -36.2687   24.6309 H   0  0  0  0  0  0
  -27.2322  -37.1453   25.8873 H   0  0  0  0  0  0
  -20.9414  -29.8718   21.6923 H   0  0  0  0  0  0
  -26.0241  -38.2904   24.1394 H   0  0  0  0  0  0
  -29.0284  -20.2437   24.2716 H   0  0  0  0  0  0
  -30.5637  -20.7212   20.2567 H   0  0  0  0  0  0
  -32.9458  -17.8943   23.5843 H   0  0  0  0  0  0
  -34.0600  -18.1950   22.2776 H   0  0  0  0  0  0
  -32.2602  -19.3878   21.0012 H   0  0  0  0  0  0
  -32.5705  -20.1497   22.5457 H   0  0  0  0  0  0
  -33.0934  -15.9088   22.0568 H   0  0  0  0  0  0
  -32.5649  -16.9268   20.7258 H   0  0  0  0  0  0
  -30.0710  -17.8719   20.7246 H   0  0  0  0  0  0
  -29.0982  -17.6022   22.1568 H   0  0  0  0  0  0
  -30.7063  -18.8199   23.5462 H   0  0  0  0  0  0
  -30.9692  -16.3928   23.2500 H   0  0  0  0  0  0
  -28.0356  -22.3626   25.2598 H   0  0  0  0  0  0
  -26.5834  -22.2457   24.2335 H   0  0  0  0  0  0
  -27.5876  -23.7031   24.2145 H   0  0  0  0  0  0
  -30.4683  -24.9916   19.7249 H   0  0  0  0  0  0
  -29.7227  -24.7959   21.2592 H   0  0  0  0  0  0
  -27.4433  -24.8899   20.1537 H   0  0  0  0  0  0
  -28.2601  -25.3017   18.6337 H   0  0  0  0  0  0
  -28.9440  -22.8662   19.1118 H   0  0  0  0  0  0
  -29.6397  -14.8497   22.2173 H   0  0  0  0  0  0
  1 25  1  0  0  0
  1 30  2  0  0  0
  1 87  1  0  0  0
  2  3  1  0  0  0
  2 25  1  0  0  0
  2 88  1  0  0  0
  2 89  1  0  0  0
  3  4  1  0  0  0
  3 90  1  0  0  0
  3 91  1  0  0  0
  4  5  1  0  0  0
  4 92  1  0  0  0
  4 93  1  0  0  0
  5  6  1  0  0  0
  5 26  1  0  0  0
  5 94  1  0  0  0
  6 25  1  0  0  0
  6 95  1  0  0  0
  6 96  1  0  0  0
  7  8  2  0  0  0
  7 26  1  0  0  0
  7 29  1  0  0  0
  8  9  1  0  0  0
  8 22  1  0  0  0
  9 10  1  0  0  0
  9 27  2  0  0  0
 10 11  2  0  0  0
 10 15  1  0  0  0
 11 12  1  0  0  0
 11 97  1  0  0  0
 12 13  2  0  0  0
 12 98  1  0  0  0
 13 14  1  0  0  0
 13 31  1  0  0  0
 14 15  2  0  0  0
 14 99  1  0  0  0
 15100  1  0  0  0
 16 17  2  0  0  0
 16 21  1  0  0  0
 16 31  1  0  0  0
 17 18  1  0  0  0
 17101  1  0  0  0
 18 19  2  0  0  0
 18102  1  0  0  0
 19 20  1  0  0  0
 19 24  1  0  0  0
 20 21  2  0  0  0
 20103  1  0  0  0
 21 23  1  0  0  0
 22 28  1  0  0  0
 22 32  2  0  0  0
 26 27  1  0  0  0
 28104  1  0  0  0
 28105  1  0  0  0
 29106  1  0  0  0
 29107  1  0  0  0
 33 34  1  0  0  0
 33 66  1  0  0  0
 33 70  2  0  0  0
 34 36  1  0  0  0
 34 59  1  0  0  0
 34108  1  0  0  0
 35 44  2  0  0  0
 35 45  1  0  0  0
 35 68  1  0  0  0
 36 56  1  0  0  0
 36109  1  0  0  0
 37 39  1  0  0  0
 37 47  1  0  0  0
 37 66  1  0  0  0
 37110  1  0  0  0
 38 43  2  0  0  0
 38 46  1  0  0  0
 38 47  1  0  0  0
 39 64  1  0  0  0
 39 67  2  0  0  0
 40 52  1  0  0  0
 40 53  2  0  0  0
 40 58  1  0  0  0
 41111  1  0  0  0
 41112  1  0  0  0
 41113  1  0  0  0
 41 48  1  0  0  0
 42 43  1  0  0  0
 42 66  1  0  0  0
 42114  1  0  0  0
 42115  1  0  0  0
 43 44  1  0  0  0
 44116  1  0  0  0
 45 46  2  0  0  0
 45117  1  0  0  0
 46118  1  0  0  0
 47119  1  0  0  0
 47120  1  0  0  0
 48 56  1  0  0  0
 48 65  1  0  0  0
 48121  1  0  0  0
 49 50  1  0  0  0
 49 53  1  0  0  0
 49 64  1  0  0  0
 49122  1  0  0  0
 50 51  1  0  0  0
 50123  1  0  0  0
 50124  1  0  0  0
 51 52  1  0  0  0
 51125  1  0  0  0
 51126  1  0  0  0
 52127  1  0  0  0
 52128  1  0  0  0
 53 54  1  0  0  0
 54 55  2  0  0  0
 54129  1  0  0  0
 55 57  1  0  0  0
 55130  1  0  0  0
 56 69  2  0  0  0
 57 58  2  0  0  0
 57131  1  0  0  0
 58132  1  0  0  0
 59 60  1  0  0  0
 59 61  1  0  0  0
 59 62  1  0  0  0
 60133  1  0  0  0
 60134  1  0  0  0
 60135  1  0  0  0
 61136  1  0  0  0
 61137  1  0  0  0
 61138  1  0  0  0
 62139  1  0  0  0
 62140  1  0  0  0
 62141  1  0  0  0
 63 65  1  0  0  0
 63142  1  0  0  0
 63143  1  0  0  0
 63144  1  0  0  0
 64145  1  0  0  0
 65146  1  0  0  0
 68 84  1  0  0  0
 71 73  2  0  0  0
 71 74  1  0  0  0
 71147  1  0  0  0
 72 73  1  0  0  0
 72 75  2  0  0  0
 72148  1  0  0  0
 73 80  1  0  0  0
 74 82  1  0  0  0
 74 85  2  0  0  0
 75 85  1  0  0  0
 75 86  1  0  0  0
 76 77  1  0  0  0
 76 78  1  0  0  0
 76149  1  0  0  0
 76150  1  0  0  0
 77 80  1  0  0  0
 77151  1  0  0  0
 77152  1  0  0  0
 78 81  1  0  0  0
 78153  1  0  0  0
 78154  1  0  0  0
 79 80  1  0  0  0
 79 81  1  0  0  0
 79155  1  0  0  0
 79156  1  0  0  0
 80157  1  0  0  0
 81 87  1  0  0  0
 81158  1  0  0  0
 82159  1  0  0  0
 82160  1  0  0  0
 82161  1  0  0  0
 83 84  1  0  0  0
 83 86  1  0  0  0
 83162  1  0  0  0
 83163  1  0  0  0
 84164  1  0  0  0
 84165  1  0  0  0
 86166  1  0  0  0
 87167  1  0  0  0
M  ISO  4   1 100  68 101  84 101  87 100
M  END
> <chiral flag>
0

> <version>
0

> <s_m_source_file>
/data/baiqing/PycharmProjects/Reinvent-master-3.2/result/LINK_invent/BTK/process_docking_weight1_custom_sum_contain_oxygen_bond_distance_aromatic_linkinvent_7_9_3/rearranged_h_0138.sdf

> <i_m_source_file_index>
97

> <r_mmod_Potential_Energy-OPLS-2005>
-293.700653076172

> <r_mmod_Stretch_Energy-OPLS-2005>
37.9170837402344

> <r_mmod_Bend_Energy-OPLS-2005>
111.732460021973

> <r_mmod_Torsional_Energy-OPLS-2005>
224.218536376953

> <r_mmod_Improper_Torsional_Energy-OPLS-2005>
5.65913724899292

> <r_mmod_Van_der_Waal_Energy-OPLS-2005>
173.339904785156

> <r_mmod_Electrostatic_Energy-OPLS-2005>
-625.500671386719

> <r_mmod_Solvation_Energy-OPLS-2005>
-232.497940063477

> <b_mmod_Minimization_Converged-OPLS-2005>
0

> <r_mmod_RMS_Derivative-OPLS-2005>
7.35402297973633

$$$$
97
                    3D
 Structure written by MMmdl.
164173  0  0  1  0            999 V2000
  -30.3726  -15.6013   20.3662 C   0  0  0  0  0  0
  -30.4369  -13.0606   19.5472 C   0  0  0  0  0  0
  -29.5565  -12.6566   18.3285 C   0  0  0  0  0  0
  -28.1307  -12.3001   18.7775 C   0  0  0  0  0  0
  -27.6059  -13.3103   19.8235 C   0  0  2  0  0  0
  -28.6279  -13.6355   20.9437 C   0  0  0  0  0  0
  -25.2338  -13.8287   20.5733 C   0  0  0  0  0  0
  -24.1726  -13.0448   20.9275 C   0  0  0  0  0  0
  -24.6426  -11.6958   20.8775 C   0  0  0  0  0  0
  -23.9105  -10.4312   21.0412 C   0  0  0  0  0  0
  -24.3618   -9.4229   21.9199 C   0  0  0  0  0  0
  -23.6283   -8.2278   22.0765 C   0  0  0  0  0  0
  -22.4263   -8.0313   21.3558 C   0  0  0  0  0  0
  -21.9925   -9.0289   20.4653 C   0  0  0  0  0  0
  -22.7274  -10.2163   20.3070 C   0  0  0  0  0  0
  -21.6861   -6.0739   22.5266 C   0  0  0  0  0  0
  -21.4022   -6.5631   23.8203 C   0  0  0  0  0  0
  -21.3670   -5.6780   24.9159 C   0  0  0  0  0  0
  -21.6038   -4.3042   24.7198 C   0  0  0  0  0  0
  -21.8824   -3.8140   23.4319 C   0  0  0  0  0  0
  -21.9193   -4.6966   22.3388 C   0  0  0  0  0  0
  -22.7735  -13.5209   21.1886 C   0  0  0  0  0  0
  -22.1660   -4.2152   21.0968 F   0  0  0  0  0  0
  -21.5646   -3.4532   25.7710 F   0  0  0  0  0  0
  -29.8157  -14.2473   20.2931 N   0  0  0  0  0  0
  -26.2826  -12.9643   20.3294 N   0  0  0  0  0  0
  -25.9390  -11.6705   20.5733 N   0  0  0  0  0  0
  -22.0362  -12.8216   22.0425 N   0  0  0  0  0  0
  -25.3891  -15.2013   20.4020 N   0  0  0  0  0  0
  -31.6011  -15.5287   20.1893 O   0  0  0  0  0  0
  -21.6642   -6.8898   21.4234 O   0  0  0  0  0  0
  -22.3429  -14.5537   20.6750 O   0  0  0  0  0  0
  -24.6901  -31.8012   23.1536 C   0  0  0  0  0  0
  -25.9475  -32.4496   23.8077 C   0  0  1  0  0  0
  -27.2182  -26.6971   20.1880 C   0  0  0  0  0  0
  -25.6065  -33.8324   24.1993 N   0  0  0  0  0  0
  -23.5105  -30.4043   21.5132 C   0  0  2  0  0  0
  -24.9599  -28.7475   20.1138 C   0  0  0  0  0  0
  -22.7796  -29.4332   22.4782 C   0  0  0  0  0  0
  -18.0345  -28.1452   22.8476 C   0  0  0  0  0  0
  -24.1483  -36.7164   23.2640 C   0  0  0  0  0  0
  -26.0921  -30.5266   21.4153 C   0  0  0  0  0  0
  -26.1508  -29.0938   20.7627 C   0  0  0  0  0  0
  -27.2618  -28.0943   20.7719 C   0  0  0  0  0  0
  -25.9924  -26.5719   19.4826 C   0  0  0  0  0  0
  -24.9200  -27.5123   19.4543 C   0  0  0  0  0  0
  -23.7615  -29.7096   20.1450 C   0  0  0  0  0  0
  -25.4141  -36.2961   24.0297 C   0  0  1  0  0  0
  -20.5976  -28.3833   23.1151 C   0  0  2  0  0  0
  -20.6813  -26.9497   22.5412 C   0  0  0  0  0  0
  -19.5791  -26.6410   21.5221 C   0  0  0  0  0  0
  -18.1980  -26.7976   22.1635 C   0  0  0  0  0  0
  -19.1607  -28.8968   23.2781 C   0  0  0  0  0  0
  -18.9518  -30.1547   23.8836 C   0  0  0  0  0  0
  -17.6502  -30.6625   24.0569 C   0  0  0  0  0  0
  -25.9155  -34.9341   23.4986 C   0  0  0  0  0  0
  -16.5393  -29.9112   23.6356 C   0  0  0  0  0  0
  -16.7325  -28.6533   23.0379 C   0  0  0  0  0  0
  -26.4630  -31.6527   25.0709 C   0  0  0  0  0  0
  -25.3663  -31.3836   26.1311 C   0  0  0  0  0  0
  -27.0511  -30.2873   24.6547 C   0  0  0  0  0  0
  -27.6126  -32.4325   25.7502 C   0  0  0  0  0  0
  -27.5564  -37.1737   24.8465 C   0  0  0  0  0  0
  -21.4450  -29.3051   22.3491 N   0  0  0  0  0  0
  -26.4261  -37.3733   23.9444 N   0  0  0  0  0  0
  -24.7879  -30.9443   22.0800 N   0  0  0  0  0  0
  -23.4221  -28.7918   23.3130 O   0  0  0  0  0  0
  -28.1790  -25.4754   20.3081 O   0  0  0  0  0  0
  -26.5754  -34.8914   22.4582 O   0  0  0  0  0  0
  -23.5929  -32.1104   23.6498 O   0  0  0  0  0  0
  -28.5086  -21.1958   22.8532 C   0  0  0  0  0  0
  -28.5406  -22.3111   21.9398 C   0  0  0  0  0  0
  -29.4937  -19.3185   23.9954 C   0  0  0  0  0  0
  -30.5416  -18.4934   23.9993 C   0  0  0  0  0  0
  -29.6064  -20.5974   23.3234 C   0  0  0  0  0  0
  -28.7147  -22.1769   20.6123 C   0  0  0  0  0  0
  -28.9524  -20.4154   20.0352 C   0  0  0  0  0  0
  -31.3677  -19.1443   20.8448 C   0  0  0  0  0  0
  -31.9954  -20.4624   23.5045 C   0  0  0  0  0  0
  -31.8444  -18.9258   23.3729 C   0  0  2  0  0  0
  -29.9165  -18.7540   20.3980 C   0  0  1  0  0  0
  -26.9549  -23.4257   19.0475 C   0  0  0  0  0  0
  -28.2314  -23.7725   19.8273 C   0  0  1  0  0  0
  -29.6683  -16.9863   20.4629 N   0  0  0  0  0  0
  -31.9954  -18.4069   21.9790 N   0  3  0  0  0  0
  -30.8323  -21.1645   23.0517 O   0  0  0  0  0  0
  -31.4363  -13.3056   19.1877 H   0  0  0  0  0  0
  -30.5822  -12.2097   20.2145 H   0  0  0  0  0  0
  -30.0045  -11.8202   17.7889 H   0  0  0  0  0  0
  -29.5186  -13.4903   17.6255 H   0  0  0  0  0  0
  -28.1600  -11.2992   19.2147 H   0  0  0  0  0  0
  -27.4615  -12.2446   17.9199 H   0  0  0  0  0  0
  -27.4751  -14.2361   19.2595 H   0  0  0  0  0  0
  -28.8796  -12.7479   21.5291 H   0  0  0  0  0  0
  -28.2026  -14.3525   21.6471 H   0  0  0  0  0  0
  -25.2763   -9.5702   22.4781 H   0  0  0  0  0  0
  -23.9990   -7.4677   22.7496 H   0  0  0  0  0  0
  -21.0869   -8.8831   19.8949 H   0  0  0  0  0  0
  -22.3751  -10.9705   19.6186 H   0  0  0  0  0  0
  -21.2009   -7.6137   23.9697 H   0  0  0  0  0  0
  -21.1491   -6.0504   25.9064 H   0  0  0  0  0  0
  -22.0581   -2.7594   23.2798 H   0  0  0  0  0  0
  -22.3949  -11.9893   22.4870 H   0  0  0  0  0  0
  -21.1004  -13.1304   22.2623 H   0  0  0  0  0  0
  -24.5900  -15.8257   20.4457 H   0  0  0  0  0  0
  -26.1966  -15.6281   19.9675 H   0  0  0  0  0  0
  -26.7542  -32.4955   23.0769 H   0  0  0  0  0  0
  -25.0201  -33.9330   25.0139 H   0  0  0  0  0  0
  -22.8347  -31.2426   21.3301 H   0  0  0  0  0  0
  -23.3815  -35.9415   23.3257 H   0  0  0  0  0  0
  -24.3557  -36.8878   22.2063 H   0  0  0  0  0  0
  -23.7142  -37.6302   23.6718 H   0  0  0  0  0  0
  -26.2980  -31.2499   20.6245 H   0  0  0  0  0  0
  -26.9416  -30.5864   22.0819 H   0  0  0  0  0  0
  -28.1500  -28.3651   21.3261 H   0  0  0  0  0  0
  -25.7772  -25.6511   18.9742 H   0  0  0  0  0  0
  -24.0221  -27.2304   18.9207 H   0  0  0  0  0  0
  -23.9569  -30.4773   19.3964 H   0  0  0  0  0  0
  -22.8587  -29.1991   19.8036 H   0  0  0  0  0  0
  -25.1322  -36.1766   25.0780 H   0  0  0  0  0  0
  -21.0023  -28.3480   24.1290 H   0  0  0  0  0  0
  -20.5755  -26.2453   23.3681 H   0  0  0  0  0  0
  -21.6672  -26.7523   22.1172 H   0  0  0  0  0  0
  -19.6980  -25.6304   21.1311 H   0  0  0  0  0  0
  -19.6701  -27.3158   20.6684 H   0  0  0  0  0  0
  -17.4249  -26.6739   21.4035 H   0  0  0  0  0  0
  -18.0392  -26.0117   22.9026 H   0  0  0  0  0  0
  -19.7994  -30.7381   24.2184 H   0  0  0  0  0  0
  -17.5060  -31.6294   24.5196 H   0  0  0  0  0  0
  -15.5404  -30.2992   23.7702 H   0  0  0  0  0  0
  -15.8732  -28.0810   22.7130 H   0  0  0  0  0  0
  -24.5845  -30.7217   25.7563 H   0  0  0  0  0  0
  -24.8853  -32.3061   26.4595 H   0  0  0  0  0  0
  -25.7820  -30.9067   27.0200 H   0  0  0  0  0  0
  -26.3205  -29.6533   24.1519 H   0  0  0  0  0  0
  -27.3947  -29.7292   25.5258 H   0  0  0  0  0  0
  -27.9205  -30.4035   24.0068 H   0  0  0  0  0  0
  -27.2770  -33.3727   26.1885 H   0  0  0  0  0  0
  -28.4048  -32.6700   25.0379 H   0  0  0  0  0  0
  -28.0664  -31.8559   26.5575 H   0  0  0  0  0  0
  -28.2561  -38.0055   24.7599 H   0  0  0  0  0  0
  -28.1099  -36.2606   24.6216 H   0  0  0  0  0  0
  -27.2302  -37.1292   25.8867 H   0  0  0  0  0  0
  -20.9831  -29.8682   21.6483 H   0  0  0  0  0  0
  -26.0136  -38.2805   24.1468 H   0  0  0  0  0  0
  -27.5460  -20.7361   23.0258 H   0  0  0  0  0  0
  -28.2920  -23.2872   22.3324 H   0  0  0  0  0  0
  -28.5682  -19.0201   24.4672 H   0  0  0  0  0  0
  -30.4853  -17.5229   24.4699 H   0  0  0  0  0  0
  -29.3739  -20.6585   19.0593 H   0  0  0  0  0  0
  -27.9398  -20.0969   19.7928 H   0  0  0  0  0  0
  -31.4645  -20.2243   20.9479 H   0  0  0  0  0  0
  -32.0322  -18.9366   20.0060 H   0  0  0  0  0  0
  -32.8642  -20.8253   22.9538 H   0  0  0  0  0  0
  -32.1662  -20.7309   24.5495 H   0  0  0  0  0  0
  -32.6343  -18.4717   23.9720 H   0  0  0  0  0  0
  -30.0988  -18.6225   19.3307 H   0  0  0  0  0  0
  -26.9711  -22.3863   18.7188 H   0  0  0  0  0  0
  -26.8560  -24.0197   18.1398 H   0  0  0  0  0  0
  -26.0597  -23.5426   19.6603 H   0  0  0  0  0  0
  -29.0076  -23.8294   19.0606 H   0  0  0  0  0  0
  -28.6830  -16.8089   20.5909 H   0  0  0  0  0  0
  -32.9860  -18.4726   21.7932 H   0  0  0  0  0  0
  -31.7764  -17.4250   21.9258 H   0  0  0  0  0  0
  1 25  1  0  0  0
  1 30  2  0  0  0
  1 84  1  0  0  0
  2  3  1  0  0  0
  2 25  1  0  0  0
  2 87  1  0  0  0
  2 88  1  0  0  0
  3  4  1  0  0  0
  3 89  1  0  0  0
  3 90  1  0  0  0
  4  5  1  0  0  0
  4 91  1  0  0  0
  4 92  1  0  0  0
  5  6  1  0  0  0
  5 26  1  0  0  0
  5 93  1  0  0  0
  6 25  1  0  0  0
  6 94  1  0  0  0
  6 95  1  0  0  0
  7  8  2  0  0  0
  7 26  1  0  0  0
  7 29  1  0  0  0
  8  9  1  0  0  0
  8 22  1  0  0  0
  9 10  1  0  0  0
  9 27  2  0  0  0
 10 11  2  0  0  0
 10 15  1  0  0  0
 11 12  1  0  0  0
 11 96  1  0  0  0
 12 13  2  0  0  0
 12 97  1  0  0  0
 13 14  1  0  0  0
 13 31  1  0  0  0
 14 15  2  0  0  0
 14 98  1  0  0  0
 15 99  1  0  0  0
 16 17  2  0  0  0
 16 21  1  0  0  0
 16 31  1  0  0  0
 17 18  1  0  0  0
 17100  1  0  0  0
 18 19  2  0  0  0
 18101  1  0  0  0
 19 20  1  0  0  0
 19 24  1  0  0  0
 20 21  2  0  0  0
 20102  1  0  0  0
 21 23  1  0  0  0
 22 28  1  0  0  0
 22 32  2  0  0  0
 26 27  1  0  0  0
 28103  1  0  0  0
 28104  1  0  0  0
 29105  1  0  0  0
 29106  1  0  0  0
 33 34  1  0  0  0
 33 66  1  0  0  0
 33 70  2  0  0  0
 34 36  1  0  0  0
 34 59  1  0  0  0
 34107  1  0  0  0
 35 44  2  0  0  0
 35 45  1  0  0  0
 35 68  1  0  0  0
 36 56  1  0  0  0
 36108  1  0  0  0
 37 39  1  0  0  0
 37 47  1  0  0  0
 37 66  1  0  0  0
 37109  1  0  0  0
 38 43  2  0  0  0
 38 46  1  0  0  0
 38 47  1  0  0  0
 39 64  1  0  0  0
 39 67  2  0  0  0
 40 52  1  0  0  0
 40 53  2  0  0  0
 40 58  1  0  0  0
 41110  1  0  0  0
 41111  1  0  0  0
 41112  1  0  0  0
 41 48  1  0  0  0
 42 43  1  0  0  0
 42 66  1  0  0  0
 42113  1  0  0  0
 42114  1  0  0  0
 43 44  1  0  0  0
 44115  1  0  0  0
 45 46  2  0  0  0
 45116  1  0  0  0
 46117  1  0  0  0
 47118  1  0  0  0
 47119  1  0  0  0
 48 56  1  0  0  0
 48 65  1  0  0  0
 48120  1  0  0  0
 49 50  1  0  0  0
 49 53  1  0  0  0
 49 64  1  0  0  0
 49121  1  0  0  0
 50 51  1  0  0  0
 50122  1  0  0  0
 50123  1  0  0  0
 51 52  1  0  0  0
 51124  1  0  0  0
 51125  1  0  0  0
 52126  1  0  0  0
 52127  1  0  0  0
 53 54  1  0  0  0
 54 55  2  0  0  0
 54128  1  0  0  0
 55 57  1  0  0  0
 55129  1  0  0  0
 56 69  2  0  0  0
 57 58  2  0  0  0
 57130  1  0  0  0
 58131  1  0  0  0
 59 60  1  0  0  0
 59 61  1  0  0  0
 59 62  1  0  0  0
 60132  1  0  0  0
 60133  1  0  0  0
 60134  1  0  0  0
 61135  1  0  0  0
 61136  1  0  0  0
 61137  1  0  0  0
 62138  1  0  0  0
 62139  1  0  0  0
 62140  1  0  0  0
 63 65  1  0  0  0
 63141  1  0  0  0
 63142  1  0  0  0
 63143  1  0  0  0
 64144  1  0  0  0
 65145  1  0  0  0
 68 83  1  0  0  0
 71 72  1  0  0  0
 71 75  2  0  0  0
 71146  1  0  0  0
 72 76  2  0  0  0
 72147  1  0  0  0
 73 74  2  0  0  0
 73 75  1  0  0  0
 73148  1  0  0  0
 74 80  1  0  0  0
 74149  1  0  0  0
 75 86  1  0  0  0
 76 77  1  0  0  0
 76 83  1  0  0  0
 77 81  1  0  0  0
 77150  1  0  0  0
 77151  1  0  0  0
 78 81  1  0  0  0
 78 85  1  0  0  0
 78152  1  0  0  0
 78153  1  0  0  0
 79 86  1  0  0  0
 79154  1  0  0  0
 79155  1  0  0  0
 79 80  1  0  0  0
 80 85  1  0  0  0
 80156  1  0  0  0
 81 84  1  0  0  0
 81157  1  0  0  0
 82158  1  0  0  0
 82159  1  0  0  0
 82160  1  0  0  0
 82 83  1  0  0  0
 83161  1  0  0  0
 84162  1  0  0  0
 85163  1  0  0  0
 85164  1  0  0  0
M  CHG  1  85   1
M  ISO  4   1 100  68 101  83 101  84 100
M  END
> <chiral flag>
0

> <version>
0

> <s_m_source_file>
/data/baiqing/PycharmProjects/Reinvent-master-3.2/result/LINK_invent/BTK/process_docking_weight1_custom_sum_contain_oxygen_bond_distance_aromatic_linkinvent_7_9_3/rearranged_h_0138.sdf

> <i_m_source_file_index>
98

> <r_mmod_Potential_Energy-OPLS-2005>
2414.4033203125

> <r_mmod_Stretch_Energy-OPLS-2005>
1168.27697753906

> <r_mmod_Bend_Energy-OPLS-2005>
750.701354980469

> <r_mmod_Torsional_Energy-OPLS-2005>
282.737121582031

> <r_mmod_Improper_Torsional_Energy-OPLS-2005>
5.70487070083618

> <r_mmod_Van_der_Waal_Energy-OPLS-2005>
124.185279846191

> <r_mmod_Electrostatic_Energy-OPLS-2005>
-360.021942138672

> <r_mmod_Solvation_Energy-OPLS-2005>
-425.888214111328

> <b_mmod_Minimization_Converged-OPLS-2005>
0

> <r_mmod_RMS_Derivative-OPLS-2005>
5.1959342956543

$$$$
98
                    3D
 Structure written by MMmdl.
160168  0  0  1  0            999 V2000
  -30.6485  -14.5693   20.5003 C   0  0  0  0  0  0
  -30.4416  -12.3425   19.4522 C   0  0  0  0  0  0
  -29.5209  -12.5121   18.2223 C   0  0  0  0  0  0
  -28.0373  -12.3641   18.6207 C   0  0  0  0  0  0
  -27.6636  -13.2143   19.8649 C   0  0  2  0  0  0
  -28.7056  -13.0351   20.9908 C   0  0  0  0  0  0
  -25.2628  -13.8163   20.5684 C   0  0  0  0  0  0
  -24.1878  -13.0443   20.9162 C   0  0  0  0  0  0
  -24.6432  -11.6904   20.8702 C   0  0  0  0  0  0
  -23.9080  -10.4301   21.0388 C   0  0  0  0  0  0
  -24.3626   -9.4223   21.9177 C   0  0  0  0  0  0
  -23.6308   -8.2256   22.0755 C   0  0  0  0  0  0
  -22.4290   -8.0284   21.3541 C   0  0  0  0  0  0
  -21.9936   -9.0253   20.4635 C   0  0  0  0  0  0
  -22.7250  -10.2139   20.3041 C   0  0  0  0  0  0
  -21.6859   -6.0748   22.5282 C   0  0  0  0  0  0
  -21.4018   -6.5656   23.8218 C   0  0  0  0  0  0
  -21.3660   -5.6812   24.9177 C   0  0  0  0  0  0
  -21.6042   -4.3070   24.7219 C   0  0  0  0  0  0
  -21.8827   -3.8158   23.4338 C   0  0  0  0  0  0
  -21.9205   -4.6976   22.3399 C   0  0  0  0  0  0
  -22.7899  -13.5236   21.1825 C   0  0  0  0  0  0
  -22.1679   -4.2158   21.0980 F   0  0  0  0  0  0
  -21.5620   -3.4553   25.7728 F   0  0  0  0  0  0
  -30.0324  -13.3516   20.4444 N   0  0  0  0  0  0
  -26.3059  -12.9341   20.3296 N   0  0  0  0  0  0
  -25.9365  -11.6493   20.5709 N   0  0  0  0  0  0
  -22.0542  -12.8220   22.0359 N   0  0  0  0  0  0
  -25.4373  -15.1885   20.4135 N   0  0  0  0  0  0
  -31.8269  -14.7049   20.1599 O   0  0  0  0  0  0
  -21.6641   -6.8888   21.4244 O   0  0  0  0  0  0
  -22.3583  -14.5547   20.6679 O   0  0  0  0  0  0
  -24.6214  -31.8679   23.2084 C   0  0  0  0  0  0
  -25.9092  -32.4825   23.8398 C   0  0  1  0  0  0
  -27.2175  -27.3814   20.1012 C   0  0  0  0  0  0
  -25.5936  -33.8616   24.2340 N   0  0  0  0  0  0
  -23.4089  -30.4942   21.5546 C   0  0  2  0  0  0
  -24.8502  -28.9655   20.1138 C   0  0  0  0  0  0
  -22.7456  -29.4659   22.5006 C   0  0  0  0  0  0
  -18.0291  -28.1361   22.8507 C   0  0  0  0  0  0
  -24.1486  -36.7311   23.2634 C   0  0  0  0  0  0
  -25.9433  -30.8245   21.3611 C   0  0  0  0  0  0
  -26.0197  -29.4543   20.7096 C   0  0  0  0  0  0
  -27.2070  -28.6724   20.6998 C   0  0  0  0  0  0
  -26.0196  -26.9394   19.4817 C   0  0  0  0  0  0
  -24.8483  -27.7102   19.4954 C   0  0  0  0  0  0
  -23.6138  -29.8338   20.1681 C   0  0  0  0  0  0
  -25.4105  -36.3104   24.0335 C   0  0  1  0  0  0
  -20.5882  -28.3662   23.1330 C   0  0  2  0  0  0
  -20.6784  -26.9401   22.5421 C   0  0  0  0  0  0
  -19.5752  -26.6379   21.5227 C   0  0  0  0  0  0
  -18.1932  -26.7916   22.1633 C   0  0  0  0  0  0
  -19.1538  -28.8832   23.2912 C   0  0  0  0  0  0
  -18.9444  -30.1439   23.8915 C   0  0  0  0  0  0
  -17.6440  -30.6572   24.0554 C   0  0  0  0  0  0
  -25.9041  -34.9471   23.5129 C   0  0  0  0  0  0
  -16.5339  -29.9060   23.6315 C   0  0  0  0  0  0
  -16.7276  -28.6472   23.0360 C   0  0  0  0  0  0
  -26.4481  -31.6584   25.0723 C   0  0  0  0  0  0
  -25.3710  -31.3683   26.1441 C   0  0  0  0  0  0
  -27.0314  -30.3040   24.6061 C   0  0  0  0  0  0
  -27.6065  -32.4262   25.7514 C   0  0  0  0  0  0
  -27.5573  -37.1813   24.8462 C   0  0  0  0  0  0
  -21.4174  -29.3029   22.3742 N   0  0  0  0  0  0
  -26.4292  -37.3784   23.9399 N   0  0  0  0  0  0
  -24.6780  -31.0754   22.1008 N   0  0  0  0  0  0
  -23.4218  -28.8196   23.3053 O   0  0  0  0  0  0
  -28.3465  -26.5611   20.1498 O   0  0  0  0  0  0
  -26.5586  -34.8922   22.4681 O   0  0  0  0  0  0
  -23.5398  -32.1447   23.7458 O   0  0  0  0  0  0
  -28.7975  -18.9179   20.3808 C   0  0  0  0  0  0
  -30.9435  -19.7098   21.4389 C   0  0  0  0  0  0
  -28.6593  -20.2651   19.6145 C   0  0  0  0  0  0
  -30.1508  -21.0578   21.5099 C   0  0  0  0  0  0
  -30.2648  -18.5382   20.6566 C   0  0  1  0  0  0
  -29.4777  -21.4702   20.1783 C   0  0  2  0  0  0
  -29.8009  -15.8754   20.6916 C   0  0  0  0  0  0
  -30.4808  -17.1351   21.3443 C   0  0  0  0  0  0
  -29.1792  -24.0687   20.3551 C   0  0  0  0  0  0
  -28.0826  -25.1312   20.0150 C   0  0  0  0  0  0
  -28.5969  -22.6828   20.2803 N   0  3  0  0  0  0
  -31.4907  -12.4437   19.1645 H   0  0  0  0  0  0
  -30.3450  -11.3409   19.8729 H   0  0  0  0  0  0
  -29.7796  -11.7846   17.4520 H   0  0  0  0  0  0
  -29.6835  -13.4961   17.7794 H   0  0  0  0  0  0
  -27.8533  -11.3099   18.8252 H   0  0  0  0  0  0
  -27.3956  -12.6284   17.7794 H   0  0  0  0  0  0
  -27.6930  -14.2552   19.5443 H   0  0  0  0  0  0
  -28.6959  -12.0079   21.3561 H   0  0  0  0  0  0
  -28.4671  -13.6513   21.8581 H   0  0  0  0  0  0
  -25.2784   -9.5708   22.4720 H   0  0  0  0  0  0
  -24.0025   -7.4665   22.7490 H   0  0  0  0  0  0
  -21.0877   -8.8774   19.8931 H   0  0  0  0  0  0
  -22.3729  -10.9672   19.6127 H   0  0  0  0  0  0
  -21.2011   -7.6167   23.9725 H   0  0  0  0  0  0
  -21.1472   -6.0535   25.9090 H   0  0  0  0  0  0
  -22.0597   -2.7614   23.2835 H   0  0  0  0  0  0
  -22.4179  -11.9892   22.4755 H   0  0  0  0  0  0
  -21.1132  -13.1192   22.2498 H   0  0  0  0  0  0
  -24.6756  -15.8473   20.5276 H   0  0  0  0  0  0
  -26.2981  -15.6251   20.1081 H   0  0  0  0  0  0
  -26.7179  -32.5541   23.1181 H   0  0  0  0  0  0
  -25.0094  -33.9769   25.0492 H   0  0  0  0  0  0
  -22.6989  -31.3123   21.4195 H   0  0  0  0  0  0
  -23.3747  -35.9645   23.3290 H   0  0  0  0  0  0
  -24.3592  -36.8932   22.2052 H   0  0  0  0  0  0
  -23.7239  -37.6515   23.6652 H   0  0  0  0  0  0
  -26.0447  -31.5836   20.5838 H   0  0  0  0  0  0
  -26.8379  -30.8922   21.9682 H   0  0  0  0  0  0
  -28.1039  -29.0420   21.1773 H   0  0  0  0  0  0
  -25.9377  -25.9865   18.9827 H   0  0  0  0  0  0
  -23.9488  -27.3297   19.0297 H   0  0  0  0  0  0
  -23.7178  -30.6100   19.4093 H   0  0  0  0  0  0
  -22.7368  -29.2524   19.8769 H   0  0  0  0  0  0
  -25.1278  -36.1973   25.0829 H   0  0  0  0  0  0
  -20.9974  -28.3214   24.1451 H   0  0  0  0  0  0
  -20.5734  -26.2253   23.3599 H   0  0  0  0  0  0
  -21.6646  -26.7468   22.1182 H   0  0  0  0  0  0
  -19.6914  -25.6298   21.1239 H   0  0  0  0  0  0
  -19.6685  -27.3205   20.6770 H   0  0  0  0  0  0
  -17.4216  -26.6700   21.4019 H   0  0  0  0  0  0
  -18.0301  -26.0044   22.9007 H   0  0  0  0  0  0
  -19.7911  -30.7256   24.2303 H   0  0  0  0  0  0
  -17.4980  -31.6258   24.5139 H   0  0  0  0  0  0
  -15.5335  -30.2957   23.7605 H   0  0  0  0  0  0
  -15.8685  -28.0774   22.7071 H   0  0  0  0  0  0
  -24.5910  -30.7010   25.7746 H   0  0  0  0  0  0
  -24.8862  -32.2839   26.4845 H   0  0  0  0  0  0
  -25.8027  -30.8876   27.0229 H   0  0  0  0  0  0
  -26.2865  -29.6812   24.1096 H   0  0  0  0  0  0
  -27.4107  -29.7246   25.4488 H   0  0  0  0  0  0
  -27.8677  -30.4392   23.9194 H   0  0  0  0  0  0
  -27.2710  -33.3553   26.2130 H   0  0  0  0  0  0
  -28.3882  -32.6819   25.0348 H   0  0  0  0  0  0
  -28.0718  -31.8338   26.5405 H   0  0  0  0  0  0
  -28.2586  -38.0112   24.7516 H   0  0  0  0  0  0
  -28.1074  -36.2649   24.6284 H   0  0  0  0  0  0
  -27.2292  -37.1447   25.8863 H   0  0  0  0  0  0
  -20.9338  -29.8751   21.6959 H   0  0  0  0  0  0
  -26.0183  -38.2865   24.1389 H   0  0  0  0  0  0
  -28.3014  -18.1377   19.8032 H   0  0  0  0  0  0
  -28.2550  -18.9760   21.3256 H   0  0  0  0  0  0
  -31.1466  -19.3984   22.4642 H   0  0  0  0  0  0
  -31.9249  -19.8939   20.9999 H   0  0  0  0  0  0
  -27.5971  -20.5054   19.5717 H   0  0  0  0  0  0
  -28.9516  -20.1084   18.5748 H   0  0  0  0  0  0
  -30.8217  -21.8507   21.8448 H   0  0  0  0  0  0
  -29.3858  -20.9720   22.2834 H   0  0  0  0  0  0
  -30.7509  -18.4803   19.6811 H   0  0  0  0  0  0
  -30.2690  -21.6994   19.4623 H   0  0  0  0  0  0
  -29.4874  -16.1426   19.6832 H   0  0  0  0  0  0
  -28.8755  -15.6810   21.2290 H   0  0  0  0  0  0
  -30.1189  -17.2011   22.3712 H   0  0  0  0  0  0
  -31.5547  -16.9644   21.4350 H   0  0  0  0  0  0
  -29.5730  -24.2423   21.3562 H   0  0  0  0  0  0
  -30.0107  -24.1664   19.6567 H   0  0  0  0  0  0
  -27.2210  -24.8953   20.6444 H   0  0  0  0  0  0
  -27.7898  -24.9447   18.9814 H   0  0  0  0  0  0
  -27.9478  -22.5511   21.0417 H   0  0  0  0  0  0
  -28.0453  -22.6677   19.4361 H   0  0  0  0  0  0
  1 25  1  0  0  0
  1 30  2  0  0  0
  1 77  1  0  0  0
  2  3  1  0  0  0
  2 25  1  0  0  0
  2 82  1  0  0  0
  2 83  1  0  0  0
  3  4  1  0  0  0
  3 84  1  0  0  0
  3 85  1  0  0  0
  4  5  1  0  0  0
  4 86  1  0  0  0
  4 87  1  0  0  0
  5  6  1  0  0  0
  5 26  1  0  0  0
  5 88  1  0  0  0
  6 25  1  0  0  0
  6 89  1  0  0  0
  6 90  1  0  0  0
  7  8  2  0  0  0
  7 26  1  0  0  0
  7 29  1  0  0  0
  8  9  1  0  0  0
  8 22  1  0  0  0
  9 10  1  0  0  0
  9 27  2  0  0  0
 10 11  2  0  0  0
 10 15  1  0  0  0
 11 12  1  0  0  0
 11 91  1  0  0  0
 12 13  2  0  0  0
 12 92  1  0  0  0
 13 14  1  0  0  0
 13 31  1  0  0  0
 14 15  2  0  0  0
 14 93  1  0  0  0
 15 94  1  0  0  0
 16 17  2  0  0  0
 16 21  1  0  0  0
 16 31  1  0  0  0
 17 18  1  0  0  0
 17 95  1  0  0  0
 18 19  2  0  0  0
 18 96  1  0  0  0
 19 20  1  0  0  0
 19 24  1  0  0  0
 20 21  2  0  0  0
 20 97  1  0  0  0
 21 23  1  0  0  0
 22 28  1  0  0  0
 22 32  2  0  0  0
 26 27  1  0  0  0
 28 98  1  0  0  0
 28 99  1  0  0  0
 29100  1  0  0  0
 29101  1  0  0  0
 33 34  1  0  0  0
 33 66  1  0  0  0
 33 70  2  0  0  0
 34 36  1  0  0  0
 34 59  1  0  0  0
 34102  1  0  0  0
 35 44  2  0  0  0
 35 45  1  0  0  0
 35 68  1  0  0  0
 36 56  1  0  0  0
 36103  1  0  0  0
 37 39  1  0  0  0
 37 47  1  0  0  0
 37 66  1  0  0  0
 37104  1  0  0  0
 38 43  2  0  0  0
 38 46  1  0  0  0
 38 47  1  0  0  0
 39 64  1  0  0  0
 39 67  2  0  0  0
 40 52  1  0  0  0
 40 53  2  0  0  0
 40 58  1  0  0  0
 41105  1  0  0  0
 41106  1  0  0  0
 41107  1  0  0  0
 41 48  1  0  0  0
 42 43  1  0  0  0
 42 66  1  0  0  0
 42108  1  0  0  0
 42109  1  0  0  0
 43 44  1  0  0  0
 44110  1  0  0  0
 45 46  2  0  0  0
 45111  1  0  0  0
 46112  1  0  0  0
 47113  1  0  0  0
 47114  1  0  0  0
 48 56  1  0  0  0
 48 65  1  0  0  0
 48115  1  0  0  0
 49 50  1  0  0  0
 49 53  1  0  0  0
 49 64  1  0  0  0
 49116  1  0  0  0
 50 51  1  0  0  0
 50117  1  0  0  0
 50118  1  0  0  0
 51 52  1  0  0  0
 51119  1  0  0  0
 51120  1  0  0  0
 52121  1  0  0  0
 52122  1  0  0  0
 53 54  1  0  0  0
 54 55  2  0  0  0
 54123  1  0  0  0
 55 57  1  0  0  0
 55124  1  0  0  0
 56 69  2  0  0  0
 57 58  2  0  0  0
 57125  1  0  0  0
 58126  1  0  0  0
 59 60  1  0  0  0
 59 61  1  0  0  0
 59 62  1  0  0  0
 60127  1  0  0  0
 60128  1  0  0  0
 60129  1  0  0  0
 61130  1  0  0  0
 61131  1  0  0  0
 61132  1  0  0  0
 62133  1  0  0  0
 62134  1  0  0  0
 62135  1  0  0  0
 63 65  1  0  0  0
 63136  1  0  0  0
 63137  1  0  0  0
 63138  1  0  0  0
 64139  1  0  0  0
 65140  1  0  0  0
 68 80  1  0  0  0
 71 73  1  0  0  0
 71 75  1  0  0  0
 71141  1  0  0  0
 71142  1  0  0  0
 72 74  1  0  0  0
 72 75  1  0  0  0
 72143  1  0  0  0
 72144  1  0  0  0
 73 76  1  0  0  0
 73145  1  0  0  0
 73146  1  0  0  0
 74 76  1  0  0  0
 74147  1  0  0  0
 74148  1  0  0  0
 75 78  1  0  0  0
 75149  1  0  0  0
 76 81  1  0  0  0
 76150  1  0  0  0
 77 78  1  0  0  0
 77151  1  0  0  0
 77152  1  0  0  0
 78153  1  0  0  0
 78154  1  0  0  0
 79 80  1  0  0  0
 79 81  1  0  0  0
 79155  1  0  0  0
 79156  1  0  0  0
 80157  1  0  0  0
 80158  1  0  0  0
 81159  1  0  0  0
 81160  1  0  0  0
M  CHG  1  81   1
M  ISO  4   1 100  68 101  77 100  80 101
M  END
> <chiral flag>
0

> <version>
0

> <s_m_source_file>
/data/baiqing/PycharmProjects/Reinvent-master-3.2/result/LINK_invent/BTK/process_docking_weight1_custom_sum_contain_oxygen_bond_distance_aromatic_linkinvent_7_9_3/rearranged_h_0138.sdf

> <i_m_source_file_index>
99

> <r_mmod_Potential_Energy-OPLS-2005>
-37.7718963623047

> <r_mmod_Stretch_Energy-OPLS-2005>
55.0105056762695

> <r_mmod_Bend_Energy-OPLS-2005>
126.097557067871

> <r_mmod_Torsional_Energy-OPLS-2005>
240.893035888672

> <r_mmod_Improper_Torsional_Energy-OPLS-2005>
6.66717386245728

> <r_mmod_Van_der_Waal_Energy-OPLS-2005>
141.132354736328

> <r_mmod_Electrostatic_Energy-OPLS-2005>
-204.039505004883

> <r_mmod_Solvation_Energy-OPLS-2005>
-433.242401123047

> <b_mmod_Minimization_Converged-OPLS-2005>
0

> <r_mmod_RMS_Derivative-OPLS-2005>
1.95038676261902

$$$$
