0
                    3D
 Structure written by MMmdl.
160168  0  0  1  0            999 V2000
  -30.6911  -14.4271   20.6490 C   0  0  0  0  0  0
  -30.4274  -12.3090   19.4048 C   0  0  0  0  0  0
  -29.4880  -12.5161   18.2000 C   0  0  0  0  0  0
  -28.0114  -12.3659   18.6182 C   0  0  0  0  0  0
  -27.6620  -13.1955   19.8834 C   0  0  2  0  0  0
  -28.6980  -12.9297   20.9953 C   0  0  0  0  0  0
  -25.2578  -13.8112   20.5661 C   0  0  0  0  0  0
  -24.1822  -13.0410   20.9178 C   0  0  0  0  0  0
  -24.6366  -11.6869   20.8731 C   0  0  0  0  0  0
  -23.9033  -10.4268   21.0395 C   0  0  0  0  0  0
  -24.3600   -9.4196   21.9182 C   0  0  0  0  0  0
  -23.6285   -8.2223   22.0740 C   0  0  0  0  0  0
  -22.4265   -8.0260   21.3536 C   0  0  0  0  0  0
  -21.9902   -9.0224   20.4633 C   0  0  0  0  0  0
  -22.7205  -10.2121   20.3042 C   0  0  0  0  0  0
  -21.6844   -6.0725   22.5282 C   0  0  0  0  0  0
  -21.3998   -6.5625   23.8221 C   0  0  0  0  0  0
  -21.3667   -5.6775   24.9179 C   0  0  0  0  0  0
  -21.6056   -4.3040   24.7219 C   0  0  0  0  0  0
  -21.8814   -3.8139   23.4335 C   0  0  0  0  0  0
  -21.9190   -4.6957   22.3401 C   0  0  0  0  0  0
  -22.7859  -13.5223   21.1866 C   0  0  0  0  0  0
  -22.1655   -4.2155   21.0975 F   0  0  0  0  0  0
  -21.5655   -3.4517   25.7729 F   0  0  0  0  0  0
  -30.0290  -13.2572   20.4555 N   0  0  0  0  0  0
  -26.3011  -12.9278   20.3382 N   0  0  0  0  0  0
  -25.9294  -11.6442   20.5761 N   0  0  0  0  0  0
  -22.0509  -12.8201   22.0432 N   0  0  0  0  0  0
  -25.4310  -15.1817   20.4005 N   0  0  0  0  0  0
  -31.7834  -14.6801   20.1310 O   0  0  0  0  0  0
  -21.6633   -6.8859   21.4237 O   0  0  0  0  0  0
  -22.3551  -14.5538   20.6739 O   0  0  0  0  0  0
  -24.6126  -31.8703   23.2146 C   0  0  0  0  0  0
  -25.9029  -32.4823   23.8427 C   0  0  1  0  0  0
  -27.2345  -27.4665   20.0892 C   0  0  0  0  0  0
  -25.5923  -33.8626   24.2364 N   0  0  0  0  0  0
  -23.3981  -30.4941   21.5525 C   0  0  2  0  0  0
  -24.8432  -28.9585   20.1215 C   0  0  0  0  0  0
  -22.7396  -29.4672   22.5008 C   0  0  0  0  0  0
  -18.0290  -28.1373   22.8500 C   0  0  0  0  0  0
  -24.1490  -36.7313   23.2638 C   0  0  0  0  0  0
  -25.9242  -30.8427   21.3638 C   0  0  0  0  0  0
  -26.0021  -29.4775   20.7143 C   0  0  0  0  0  0
  -27.2020  -28.7371   20.7006 C   0  0  0  0  0  0
  -26.0661  -26.9498   19.4953 C   0  0  0  0  0  0
  -24.8668  -27.6907   19.5130 C   0  0  0  0  0  0
  -23.6055  -29.8222   20.1693 C   0  0  0  0  0  0
  -25.4112  -36.3119   24.0342 C   0  0  1  0  0  0
  -20.5869  -28.3659   23.1352 C   0  0  2  0  0  0
  -20.6785  -26.9393   22.5445 C   0  0  0  0  0  0
  -19.5781  -26.6382   21.5221 C   0  0  0  0  0  0
  -18.1946  -26.7928   22.1618 C   0  0  0  0  0  0
  -19.1539  -28.8827   23.2934 C   0  0  0  0  0  0
  -18.9450  -30.1438   23.8934 C   0  0  0  0  0  0
  -17.6448  -30.6573   24.0572 C   0  0  0  0  0  0
  -25.9030  -34.9476   23.5149 C   0  0  0  0  0  0
  -16.5351  -29.9079   23.6325 C   0  0  0  0  0  0
  -16.7280  -28.6490   23.0340 C   0  0  0  0  0  0
  -26.4497  -31.6597   25.0729 C   0  0  0  0  0  0
  -25.3803  -31.3666   26.1503 C   0  0  0  0  0  0
  -27.0339  -30.3061   24.6075 C   0  0  0  0  0  0
  -27.6085  -32.4323   25.7483 C   0  0  0  0  0  0
  -27.5578  -37.1811   24.8471 C   0  0  0  0  0  0
  -21.4123  -29.3054   22.3769 N   0  0  0  0  0  0
  -26.4294  -37.3800   23.9407 N   0  0  0  0  0  0
  -24.6624  -31.0837   22.1022 N   0  0  0  0  0  0
  -23.4192  -28.8184   23.3002 O   0  0  0  0  0  0
  -28.3993  -26.7445   20.0478 O   0  0  0  0  0  0
  -26.5555  -34.8928   22.4689 O   0  0  0  0  0  0
  -23.5327  -32.1432   23.7564 O   0  0  0  0  0  0
  -29.1554  -21.0357   21.2820 C   0  0  0  0  0  0
  -28.5593  -19.8520   20.9207 C   0  0  0  0  0  0
  -26.9769  -21.4223   21.1325 C   0  0  0  0  0  0
  -25.6350  -22.0876   21.1200 C   0  0  0  0  0  0
  -29.1551  -18.4966   20.6502 C   0  0  0  0  0  0
  -29.4428  -17.7216   21.9550 C   0  0  0  0  0  0
  -28.2330  -24.3922   20.6805 C   0  0  0  0  0  0
  -28.3580  -23.3797   21.8341 C   0  0  0  0  0  0
  -30.5352  -16.6298   21.8471 C   0  0  0  0  0  0
  -28.5602  -25.8279   21.1262 C   0  0  0  0  0  0
  -28.1669  -21.9781   21.4173 N   0  0  0  0  0  0
  -27.2166  -20.1337   20.8449 N   0  3  0  0  0  0
  -30.0329  -15.3258   21.4033 N   0  0  0  0  0  0
  -31.4675  -12.4351   19.1024 H   0  0  0  0  0  0
  -30.3494  -11.2850   19.7748 H   0  0  0  0  0  0
  -29.7264  -11.8012   17.4105 H   0  0  0  0  0  0
  -29.6521  -13.5091   17.7764 H   0  0  0  0  0  0
  -27.8271  -11.3085   18.8115 H   0  0  0  0  0  0
  -27.3538  -12.6431   17.7926 H   0  0  0  0  0  0
  -27.7215  -14.2493   19.6107 H   0  0  0  0  0  0
  -28.6750  -11.8767   21.2791 H   0  0  0  0  0  0
  -28.4475  -13.4716   21.9081 H   0  0  0  0  0  0
  -25.2743   -9.5685   22.4769 H   0  0  0  0  0  0
  -24.0017   -7.4594   22.7430 H   0  0  0  0  0  0
  -21.0849   -8.8694   19.8921 H   0  0  0  0  0  0
  -22.3628  -10.9655   19.6154 H   0  0  0  0  0  0
  -21.1965   -7.6131   23.9718 H   0  0  0  0  0  0
  -21.1519   -6.0507   25.9086 H   0  0  0  0  0  0
  -22.0604   -2.7600   23.2821 H   0  0  0  0  0  0
  -22.4112  -11.9855   22.4825 H   0  0  0  0  0  0
  -21.1121  -13.1211   22.2623 H   0  0  0  0  0  0
  -24.6571  -15.8307   20.4839 H   0  0  0  0  0  0
  -26.2713  -15.6128   20.0405 H   0  0  0  0  0  0
  -26.7082  -32.5554   23.1175 H   0  0  0  0  0  0
  -25.0180  -33.9825   25.0585 H   0  0  0  0  0  0
  -22.6831  -31.3089   21.4119 H   0  0  0  0  0  0
  -23.3746  -35.9652   23.3327 H   0  0  0  0  0  0
  -24.3577  -36.8897   22.2044 H   0  0  0  0  0  0
  -23.7241  -37.6530   23.6623 H   0  0  0  0  0  0
  -26.0332  -31.6045   20.5907 H   0  0  0  0  0  0
  -26.8155  -30.9005   21.9774 H   0  0  0  0  0  0
  -28.1004  -29.1336   21.1520 H   0  0  0  0  0  0
  -26.0800  -25.9800   19.0202 H   0  0  0  0  0  0
  -23.9720  -27.2827   19.0611 H   0  0  0  0  0  0
  -23.7121  -30.5948   19.4074 H   0  0  0  0  0  0
  -22.7315  -29.2408   19.8725 H   0  0  0  0  0  0
  -25.1277  -36.1992   25.0826 H   0  0  0  0  0  0
  -20.9958  -28.3214   24.1478 H   0  0  0  0  0  0
  -20.5697  -26.2248   23.3628 H   0  0  0  0  0  0
  -21.6661  -26.7440   22.1240 H   0  0  0  0  0  0
  -19.6962  -25.6291   21.1253 H   0  0  0  0  0  0
  -19.6742  -27.3202   20.6770 H   0  0  0  0  0  0
  -17.4237  -26.6700   21.3997 H   0  0  0  0  0  0
  -18.0346  -26.0055   22.8989 H   0  0  0  0  0  0
  -19.7923  -30.7254   24.2317 H   0  0  0  0  0  0
  -17.5002  -31.6259   24.5160 H   0  0  0  0  0  0
  -15.5359  -30.2975   23.7637 H   0  0  0  0  0  0
  -15.8692  -28.0812   22.7029 H   0  0  0  0  0  0
  -24.5984  -30.6994   25.7856 H   0  0  0  0  0  0
  -24.8988  -32.2803   26.4999 H   0  0  0  0  0  0
  -25.8213  -30.8818   27.0222 H   0  0  0  0  0  0
  -26.2863  -29.6787   24.1208 H   0  0  0  0  0  0
  -27.4220  -29.7324   25.4496 H   0  0  0  0  0  0
  -27.8647  -30.4399   23.9145 H   0  0  0  0  0  0
  -27.2708  -33.3613   26.2088 H   0  0  0  0  0  0
  -28.3886  -32.6899   25.0304 H   0  0  0  0  0  0
  -28.0770  -31.8435   26.5379 H   0  0  0  0  0  0
  -28.2610  -38.0095   24.7503 H   0  0  0  0  0  0
  -28.1057  -36.2621   24.6314 H   0  0  0  0  0  0
  -27.2288  -37.1489   25.8876 H   0  0  0  0  0  0
  -20.9246  -29.8838   21.7061 H   0  0  0  0  0  0
  -26.0190  -38.2880   24.1407 H   0  0  0  0  0  0
  -30.1968  -21.2699   21.4579 H   0  0  0  0  0  0
  -25.5479  -22.7428   21.9867 H   0  0  0  0  0  0
  -24.8544  -21.3292   21.1537 H   0  0  0  0  0  0
  -25.5432  -22.6631   20.1989 H   0  0  0  0  0  0
  -30.0824  -18.6507   20.0982 H   0  0  0  0  0  0
  -28.5008  -17.9239   19.9927 H   0  0  0  0  0  0
  -28.5158  -17.3343   22.3808 H   0  0  0  0  0  0
  -29.8127  -18.4421   22.6857 H   0  0  0  0  0  0
  -27.2220  -24.3620   20.2784 H   0  0  0  0  0  0
  -28.9001  -24.1064   19.8672 H   0  0  0  0  0  0
  -27.6446  -23.6061   22.6264 H   0  0  0  0  0  0
  -29.3507  -23.4540   22.2806 H   0  0  0  0  0  0
  -30.9628  -16.4754   22.8386 H   0  0  0  0  0  0
  -31.3571  -16.9805   21.2215 H   0  0  0  0  0  0
  -29.5972  -25.8840   21.4601 H   0  0  0  0  0  0
  -27.9477  -26.1094   21.9857 H   0  0  0  0  0  0
  -26.4928  -19.4655   20.6034 H   0  0  0  0  0  0
  -29.1415  -15.0266   21.7739 H   0  0  0  0  0  0
  1 25  1  0  0  0
  1 30  2  0  0  0
  1 83  1  0  0  0
  2  3  1  0  0  0
  2 25  1  0  0  0
  2 84  1  0  0  0
  2 85  1  0  0  0
  3  4  1  0  0  0
  3 86  1  0  0  0
  3 87  1  0  0  0
  4  5  1  0  0  0
  4 88  1  0  0  0
  4 89  1  0  0  0
  5  6  1  0  0  0
  5 26  1  0  0  0
  5 90  1  0  0  0
  6 25  1  0  0  0
  6 91  1  0  0  0
  6 92  1  0  0  0
  7  8  2  0  0  0
  7 26  1  0  0  0
  7 29  1  0  0  0
  8  9  1  0  0  0
  8 22  1  0  0  0
  9 10  1  0  0  0
  9 27  2  0  0  0
 10 11  2  0  0  0
 10 15  1  0  0  0
 11 12  1  0  0  0
 11 93  1  0  0  0
 12 13  2  0  0  0
 12 94  1  0  0  0
 13 14  1  0  0  0
 13 31  1  0  0  0
 14 15  2  0  0  0
 14 95  1  0  0  0
 15 96  1  0  0  0
 16 17  2  0  0  0
 16 21  1  0  0  0
 16 31  1  0  0  0
 17 18  1  0  0  0
 17 97  1  0  0  0
 18 19  2  0  0  0
 18 98  1  0  0  0
 19 20  1  0  0  0
 19 24  1  0  0  0
 20 21  2  0  0  0
 20 99  1  0  0  0
 21 23  1  0  0  0
 22 28  1  0  0  0
 22 32  2  0  0  0
 26 27  1  0  0  0
 28100  1  0  0  0
 28101  1  0  0  0
 29102  1  0  0  0
 29103  1  0  0  0
 33 34  1  0  0  0
 33 66  1  0  0  0
 33 70  2  0  0  0
 34 36  1  0  0  0
 34 59  1  0  0  0
 34104  1  0  0  0
 35 44  2  0  0  0
 35 45  1  0  0  0
 35 68  1  0  0  0
 36 56  1  0  0  0
 36105  1  0  0  0
 37 39  1  0  0  0
 37 47  1  0  0  0
 37 66  1  0  0  0
 37106  1  0  0  0
 38 43  2  0  0  0
 38 46  1  0  0  0
 38 47  1  0  0  0
 39 64  1  0  0  0
 39 67  2  0  0  0
 40 52  1  0  0  0
 40 53  2  0  0  0
 40 58  1  0  0  0
 41107  1  0  0  0
 41108  1  0  0  0
 41109  1  0  0  0
 41 48  1  0  0  0
 42 43  1  0  0  0
 42 66  1  0  0  0
 42110  1  0  0  0
 42111  1  0  0  0
 43 44  1  0  0  0
 44112  1  0  0  0
 45 46  2  0  0  0
 45113  1  0  0  0
 46114  1  0  0  0
 47115  1  0  0  0
 47116  1  0  0  0
 48 56  1  0  0  0
 48 65  1  0  0  0
 48117  1  0  0  0
 49 50  1  0  0  0
 49 53  1  0  0  0
 49 64  1  0  0  0
 49118  1  0  0  0
 50 51  1  0  0  0
 50119  1  0  0  0
 50120  1  0  0  0
 51 52  1  0  0  0
 51121  1  0  0  0
 51122  1  0  0  0
 52123  1  0  0  0
 52124  1  0  0  0
 53 54  1  0  0  0
 54 55  2  0  0  0
 54125  1  0  0  0
 55 57  1  0  0  0
 55126  1  0  0  0
 56 69  2  0  0  0
 57 58  2  0  0  0
 57127  1  0  0  0
 58128  1  0  0  0
 59 60  1  0  0  0
 59 61  1  0  0  0
 59 62  1  0  0  0
 60129  1  0  0  0
 60130  1  0  0  0
 60131  1  0  0  0
 61132  1  0  0  0
 61133  1  0  0  0
 61134  1  0  0  0
 62135  1  0  0  0
 62136  1  0  0  0
 62137  1  0  0  0
 63 65  1  0  0  0
 63138  1  0  0  0
 63139  1  0  0  0
 63140  1  0  0  0
 64141  1  0  0  0
 65142  1  0  0  0
 68 80  1  0  0  0
 71 72  2  0  0  0
 71 81  1  0  0  0
 71143  1  0  0  0
 72 75  1  0  0  0
 72 82  1  0  0  0
 73 74  1  0  0  0
 73 81  1  0  0  0
 73 82  2  0  0  0
 74144  1  0  0  0
 74145  1  0  0  0
 74146  1  0  0  0
 75 76  1  0  0  0
 75147  1  0  0  0
 75148  1  0  0  0
 76 79  1  0  0  0
 76149  1  0  0  0
 76150  1  0  0  0
 77 78  1  0  0  0
 77 80  1  0  0  0
 77151  1  0  0  0
 77152  1  0  0  0
 78 81  1  0  0  0
 78153  1  0  0  0
 78154  1  0  0  0
 79 83  1  0  0  0
 79155  1  0  0  0
 79156  1  0  0  0
 80157  1  0  0  0
 80158  1  0  0  0
 82159  1  0  0  0
 83160  1  0  0  0
M  CHG  1  82   1
M  ISO  4   1 100  68 101  80 101  83 100
M  END
> <chiral flag>
0

> <version>
0

> <s_m_source_file>
/data/baiqing/PycharmProjects/Reinvent-master-3.2/result/LINK_invent/BTK/process_docking_weight1_custom_sum_contain_oxygen_bond_distance_aromatic_linkinvent_7_9_3/rearranged_h_0041.sdf

> <i_m_source_file_index>
1

> <r_mmod_Potential_Energy-OPLS-2005>
-141.397384643555

> <r_mmod_Stretch_Energy-OPLS-2005>
30.9275360107422

> <r_mmod_Bend_Energy-OPLS-2005>
89.0141143798828

> <r_mmod_Torsional_Energy-OPLS-2005>
243.433929443359

> <r_mmod_Improper_Torsional_Energy-OPLS-2005>
2.35469174385071

> <r_mmod_Van_der_Waal_Energy-OPLS-2005>
122.582366943359

> <r_mmod_Electrostatic_Energy-OPLS-2005>
-214.415405273438

> <r_mmod_Solvation_Energy-OPLS-2005>
-423.855407714844

> <b_mmod_Minimization_Converged-OPLS-2005>
0

> <r_mmod_RMS_Derivative-OPLS-2005>
3.22732973098755

$$$$
1
                    3D
 Structure written by MMmdl.
166174  0  0  1  0            999 V2000
  -30.5638  -14.7898   20.4502 C   0  0  0  0  0  0
  -30.4386  -12.4858   19.4620 C   0  0  0  0  0  0
  -29.5106  -12.5179   18.2275 C   0  0  0  0  0  0
  -28.0376  -12.3283   18.6448 C   0  0  0  0  0  0
  -27.6346  -13.2314   19.8411 C   0  0  2  0  0  0
  -28.6813  -13.1724   20.9728 C   0  0  0  0  0  0
  -25.2479  -13.8178   20.5696 C   0  0  0  0  0  0
  -24.1791  -13.0422   20.9202 C   0  0  0  0  0  0
  -24.6389  -11.6900   20.8747 C   0  0  0  0  0  0
  -23.9075  -10.4290   21.0413 C   0  0  0  0  0  0
  -24.3626   -9.4212   21.9197 C   0  0  0  0  0  0
  -23.6303   -8.2248   22.0773 C   0  0  0  0  0  0
  -22.4284   -8.0285   21.3563 C   0  0  0  0  0  0
  -21.9917   -9.0253   20.4662 C   0  0  0  0  0  0
  -22.7246  -10.2130   20.3070 C   0  0  0  0  0  0
  -21.6845   -6.0746   22.5299 C   0  0  0  0  0  0
  -21.4010   -6.5648   23.8232 C   0  0  0  0  0  0
  -21.3659   -5.6799   24.9196 C   0  0  0  0  0  0
  -21.6040   -4.3066   24.7244 C   0  0  0  0  0  0
  -21.8805   -3.8156   23.4363 C   0  0  0  0  0  0
  -21.9187   -4.6971   22.3423 C   0  0  0  0  0  0
  -22.7821  -13.5211   21.1888 C   0  0  0  0  0  0
  -22.1653   -4.2164   21.0999 F   0  0  0  0  0  0
  -21.5626   -3.4548   25.7753 F   0  0  0  0  0  0
  -29.9717  -13.5472   20.3812 N   0  0  0  0  0  0
  -26.2898  -12.9389   20.3228 N   0  0  0  0  0  0
  -25.9309  -11.6528   20.5717 N   0  0  0  0  0  0
  -22.0463  -12.8199   22.0428 N   0  0  0  0  0  0
  -25.4095  -15.1916   20.4121 N   0  0  0  0  0  0
  -31.7689  -14.9086   20.2136 O   0  0  0  0  0  0
  -21.6636   -6.8889   21.4264 O   0  0  0  0  0  0
  -22.3510  -14.5528   20.6747 O   0  0  0  0  0  0
  -24.6277  -31.8523   23.1937 C   0  0  0  0  0  0
  -25.9099  -32.4713   23.8293 C   0  0  1  0  0  0
  -27.2185  -27.2463   20.1216 C   0  0  0  0  0  0
  -25.5900  -33.8528   24.2192 N   0  0  0  0  0  0
  -23.4229  -30.4769   21.5359 C   0  0  2  0  0  0
  -24.8698  -28.9168   20.1068 C   0  0  0  0  0  0
  -22.7452  -29.4611   22.4870 C   0  0  0  0  0  0
  -18.0279  -28.1387   22.8448 C   0  0  0  0  0  0
  -24.1496  -36.7289   23.2646 C   0  0  0  0  0  0
  -25.9704  -30.7585   21.3768 C   0  0  0  0  0  0
  -26.0393  -29.3799   20.7185 C   0  0  0  0  0  0
  -27.2098  -28.5540   20.7218 C   0  0  0  0  0  0
  -26.0190  -26.8476   19.4911 C   0  0  0  0  0  0
  -24.8647  -27.6570   19.4864 C   0  0  0  0  0  0
  -23.6403  -29.8064   20.1530 C   0  0  0  0  0  0
  -25.4121  -36.3038   24.0310 C   0  0  1  0  0  0
  -20.5877  -28.3698   23.1248 C   0  0  2  0  0  0
  -20.6782  -26.9417   22.5397 C   0  0  0  0  0  0
  -19.5782  -26.6374   21.5181 C   0  0  0  0  0  0
  -18.1946  -26.7919   22.1585 C   0  0  0  0  0  0
  -19.1531  -28.8852   23.2847 C   0  0  0  0  0  0
  -18.9474  -30.1453   23.8873 C   0  0  0  0  0  0
  -17.6490  -30.6593   24.0560 C   0  0  0  0  0  0
  -25.9071  -34.9417   23.5059 C   0  0  0  0  0  0
  -16.5369  -29.9098   23.6339 C   0  0  0  0  0  0
  -16.7267  -28.6521   23.0343 C   0  0  0  0  0  0
  -26.4475  -31.6557   25.0697 C   0  0  0  0  0  0
  -25.3690  -31.3709   26.1412 C   0  0  0  0  0  0
  -27.0346  -30.2977   24.6208 C   0  0  0  0  0  0
  -27.6024  -32.4316   25.7465 C   0  0  0  0  0  0
  -27.5570  -37.1785   24.8455 C   0  0  0  0  0  0
  -21.4168  -29.3044   22.3622 N   0  0  0  0  0  0
  -26.4279  -37.3746   23.9409 N   0  0  0  0  0  0
  -24.6925  -31.0488   22.0908 N   0  0  0  0  0  0
  -23.4154  -28.8140   23.2966 O   0  0  0  0  0  0
  -28.3354  -26.3778   20.2036 O   0  0  0  0  0  0
  -26.5688  -34.8894   22.4658 O   0  0  0  0  0  0
  -23.5434  -32.1352   23.7246 O   0  0  0  0  0  0
  -28.0221  -23.6320   21.7257 C   0  0  0  0  0  0
  -27.9585  -22.4001   22.3987 C   0  0  0  0  0  0
  -28.4324  -23.6413   20.3875 C   0  0  0  0  0  0
  -28.7052  -21.2444   20.5371 C   0  0  0  0  0  0
  -27.0923  -18.5292   24.8522 C   0  0  0  0  0  0
  -27.5383  -21.3988   26.1286 C   0  0  0  0  0  0
  -27.3123  -22.3168   23.7795 C   0  0  0  0  0  0
  -28.4279  -25.0129   19.5557 C   0  0  0  0  0  0
  -28.7644  -19.7786   19.8882 C   0  0  0  0  0  0
  -26.6792  -19.8902   24.2736 C   0  0  0  0  0  0
  -29.9607  -18.6774   20.0600 C   0  0  0  0  0  0
  -29.9744  -17.3583   21.0276 C   0  0  0  0  0  0
  -27.6316  -21.0580   24.6292 C   0  0  2  0  0  0
  -28.3084  -21.2428   21.8011 N   0  0  0  0  0  0
  -28.7685  -22.4112   19.8120 N   0  0  0  0  0  0
  -29.7325  -15.9014   20.5883 N   0  0  0  0  0  0
  -31.4776  -12.6327   19.1612 H   0  0  0  0  0  0
  -30.3984  -11.5115   19.9522 H   0  0  0  0  0  0
  -29.8022  -11.7474   17.5126 H   0  0  0  0  0  0
  -29.6225  -13.4724   17.7097 H   0  0  0  0  0  0
  -27.9059  -11.2801   18.9149 H   0  0  0  0  0  0
  -27.3772  -12.5069   17.7955 H   0  0  0  0  0  0
  -27.6197  -14.2506   19.4542 H   0  0  0  0  0  0
  -28.7289  -12.1709   21.4020 H   0  0  0  0  0  0
  -28.4101  -13.8439   21.7898 H   0  0  0  0  0  0
  -25.2767   -9.5692   22.4775 H   0  0  0  0  0  0
  -24.0005   -7.4650   22.7509 H   0  0  0  0  0  0
  -21.0839   -8.8779   19.8980 H   0  0  0  0  0  0
  -22.3706  -10.9674   19.6191 H   0  0  0  0  0  0
  -21.1991   -7.6154   23.9747 H   0  0  0  0  0  0
  -21.1491   -6.0531   25.9099 H   0  0  0  0  0  0
  -22.0571   -2.7621   23.2866 H   0  0  0  0  0  0
  -22.4066  -11.9842   22.4799 H   0  0  0  0  0  0
  -21.1099  -13.1257   22.2672 H   0  0  0  0  0  0
  -24.6272  -15.8275   20.5227 H   0  0  0  0  0  0
  -26.2379  -15.6467   20.0531 H   0  0  0  0  0  0
  -26.7145  -32.5325   23.1020 H   0  0  0  0  0  0
  -24.9992  -33.9682   25.0289 H   0  0  0  0  0  0
  -22.7194  -31.2985   21.3844 H   0  0  0  0  0  0
  -23.3731  -35.9646   23.3291 H   0  0  0  0  0  0
  -24.3592  -36.8948   22.2064 H   0  0  0  0  0  0
  -23.7281  -37.6483   23.6730 H   0  0  0  0  0  0
  -26.1151  -31.5139   20.6035 H   0  0  0  0  0  0
  -26.8470  -30.8082   22.0112 H   0  0  0  0  0  0
  -28.0989  -28.9008   21.2272 H   0  0  0  0  0  0
  -25.9245  -25.8826   19.0209 H   0  0  0  0  0  0
  -23.9662  -27.2909   19.0095 H   0  0  0  0  0  0
  -23.7593  -30.5798   19.3938 H   0  0  0  0  0  0
  -22.7581  -29.2399   19.8495 H   0  0  0  0  0  0
  -25.1297  -36.1873   25.0798 H   0  0  0  0  0  0
  -20.9973  -28.3304   24.1372 H   0  0  0  0  0  0
  -20.5668  -26.2311   23.3606 H   0  0  0  0  0  0
  -21.6659  -26.7448   22.1213 H   0  0  0  0  0  0
  -19.6994  -25.6279   21.1246 H   0  0  0  0  0  0
  -19.6756  -27.3146   20.6687 H   0  0  0  0  0  0
  -17.4210  -26.6605   21.3999 H   0  0  0  0  0  0
  -18.0399  -26.0069   22.9000 H   0  0  0  0  0  0
  -19.7969  -30.7250   24.2230 H   0  0  0  0  0  0
  -17.5064  -31.6278   24.5157 H   0  0  0  0  0  0
  -15.5383  -30.3021   23.7699 H   0  0  0  0  0  0
  -15.8646  -28.0864   22.7072 H   0  0  0  0  0  0
  -24.5934  -30.6971   25.7751 H   0  0  0  0  0  0
  -24.8796  -32.2862   26.4747 H   0  0  0  0  0  0
  -25.8007  -30.8979   27.0239 H   0  0  0  0  0  0
  -26.2947  -29.6685   24.1251 H   0  0  0  0  0  0
  -27.4037  -29.7282   25.4744 H   0  0  0  0  0  0
  -27.8808  -30.4231   23.9453 H   0  0  0  0  0  0
  -27.2659  -33.3680   26.1929 H   0  0  0  0  0  0
  -28.3901  -32.6754   25.0323 H   0  0  0  0  0  0
  -28.0612  -31.8491   26.5461 H   0  0  0  0  0  0
  -28.2540  -38.0114   24.7508 H   0  0  0  0  0  0
  -28.1107  -36.2642   24.6274 H   0  0  0  0  0  0
  -27.2301  -37.1412   25.8856 H   0  0  0  0  0  0
  -20.9342  -29.8760   21.6829 H   0  0  0  0  0  0
  -26.0135  -38.2807   24.1418 H   0  0  0  0  0  0
  -27.7106  -24.5512   22.2044 H   0  0  0  0  0  0
  -26.3902  -17.7553   24.5413 H   0  0  0  0  0  0
  -27.1064  -18.5315   25.9410 H   0  0  0  0  0  0
  -28.0809  -18.2332   24.5012 H   0  0  0  0  0  0
  -28.2511  -22.1751   26.4063 H   0  0  0  0  0  0
  -27.7476  -20.5374   26.7618 H   0  0  0  0  0  0
  -26.5424  -21.7619   26.3833 H   0  0  0  0  0  0
  -26.2332  -22.4273   23.6657 H   0  0  0  0  0  0
  -27.6401  -23.2021   24.3245 H   0  0  0  0  0  0
  -27.7422  -24.9119   18.7181 H   0  0  0  0  0  0
  -29.4087  -25.0277   19.0818 H   0  0  0  0  0  0
  -28.6849  -19.9716   18.8176 H   0  0  0  0  0  0
  -27.8224  -19.2861   20.1288 H   0  0  0  0  0  0
  -25.6643  -20.1308   24.5925 H   0  0  0  0  0  0
  -26.6207  -19.7799   23.1906 H   0  0  0  0  0  0
  -30.8466  -19.2637   20.3038 H   0  0  0  0  0  0
  -30.1764  -18.2994   19.0608 H   0  0  0  0  0  0
  -29.3035  -17.5530   21.8652 H   0  0  0  0  0  0
  -30.9640  -17.3361   21.4879 H   0  0  0  0  0  0
  -28.6630  -20.7607   24.4327 H   0  0  0  0  0  0
  -28.7584  -15.6408   20.6123 H   0  0  0  0  0  0
  1 25  1  0  0  0
  1 30  2  0  0  0
  1 86  1  0  0  0
  2  3  1  0  0  0
  2 25  1  0  0  0
  2 87  1  0  0  0
  2 88  1  0  0  0
  3  4  1  0  0  0
  3 89  1  0  0  0
  3 90  1  0  0  0
  4  5  1  0  0  0
  4 91  1  0  0  0
  4 92  1  0  0  0
  5  6  1  0  0  0
  5 26  1  0  0  0
  5 93  1  0  0  0
  6 25  1  0  0  0
  6 94  1  0  0  0
  6 95  1  0  0  0
  7  8  2  0  0  0
  7 26  1  0  0  0
  7 29  1  0  0  0
  8  9  1  0  0  0
  8 22  1  0  0  0
  9 10  1  0  0  0
  9 27  2  0  0  0
 10 11  2  0  0  0
 10 15  1  0  0  0
 11 12  1  0  0  0
 11 96  1  0  0  0
 12 13  2  0  0  0
 12 97  1  0  0  0
 13 14  1  0  0  0
 13 31  1  0  0  0
 14 15  2  0  0  0
 14 98  1  0  0  0
 15 99  1  0  0  0
 16 17  2  0  0  0
 16 21  1  0  0  0
 16 31  1  0  0  0
 17 18  1  0  0  0
 17100  1  0  0  0
 18 19  2  0  0  0
 18101  1  0  0  0
 19 20  1  0  0  0
 19 24  1  0  0  0
 20 21  2  0  0  0
 20102  1  0  0  0
 21 23  1  0  0  0
 22 28  1  0  0  0
 22 32  2  0  0  0
 26 27  1  0  0  0
 28103  1  0  0  0
 28104  1  0  0  0
 29105  1  0  0  0
 29106  1  0  0  0
 33 34  1  0  0  0
 33 66  1  0  0  0
 33 70  2  0  0  0
 34 36  1  0  0  0
 34 59  1  0  0  0
 34107  1  0  0  0
 35 44  2  0  0  0
 35 45  1  0  0  0
 35 68  1  0  0  0
 36 56  1  0  0  0
 36108  1  0  0  0
 37 39  1  0  0  0
 37 47  1  0  0  0
 37 66  1  0  0  0
 37109  1  0  0  0
 38 43  2  0  0  0
 38 46  1  0  0  0
 38 47  1  0  0  0
 39 64  1  0  0  0
 39 67  2  0  0  0
 40 52  1  0  0  0
 40 53  2  0  0  0
 40 58  1  0  0  0
 41110  1  0  0  0
 41111  1  0  0  0
 41112  1  0  0  0
 41 48  1  0  0  0
 42 43  1  0  0  0
 42 66  1  0  0  0
 42113  1  0  0  0
 42114  1  0  0  0
 43 44  1  0  0  0
 44115  1  0  0  0
 45 46  2  0  0  0
 45116  1  0  0  0
 46117  1  0  0  0
 47118  1  0  0  0
 47119  1  0  0  0
 48 56  1  0  0  0
 48 65  1  0  0  0
 48120  1  0  0  0
 49 50  1  0  0  0
 49 53  1  0  0  0
 49 64  1  0  0  0
 49121  1  0  0  0
 50 51  1  0  0  0
 50122  1  0  0  0
 50123  1  0  0  0
 51 52  1  0  0  0
 51124  1  0  0  0
 51125  1  0  0  0
 52126  1  0  0  0
 52127  1  0  0  0
 53 54  1  0  0  0
 54 55  2  0  0  0
 54128  1  0  0  0
 55 57  1  0  0  0
 55129  1  0  0  0
 56 69  2  0  0  0
 57 58  2  0  0  0
 57130  1  0  0  0
 58131  1  0  0  0
 59 60  1  0  0  0
 59 61  1  0  0  0
 59 62  1  0  0  0
 60132  1  0  0  0
 60133  1  0  0  0
 60134  1  0  0  0
 61135  1  0  0  0
 61136  1  0  0  0
 61137  1  0  0  0
 62138  1  0  0  0
 62139  1  0  0  0
 62140  1  0  0  0
 63 65  1  0  0  0
 63141  1  0  0  0
 63142  1  0  0  0
 63143  1  0  0  0
 64144  1  0  0  0
 65145  1  0  0  0
 68 78  1  0  0  0
 71 72  2  0  0  0
 71 73  1  0  0  0
 71146  1  0  0  0
 72 77  1  0  0  0
 72 84  1  0  0  0
 73 78  1  0  0  0
 73 85  2  0  0  0
 74 79  1  0  0  0
 74 84  2  0  0  0
 74 85  1  0  0  0
 75 80  1  0  0  0
 75147  1  0  0  0
 75148  1  0  0  0
 75149  1  0  0  0
 76150  1  0  0  0
 76151  1  0  0  0
 76152  1  0  0  0
 76 83  1  0  0  0
 77 83  1  0  0  0
 77153  1  0  0  0
 77154  1  0  0  0
 78155  1  0  0  0
 78156  1  0  0  0
 79 81  1  0  0  0
 79157  1  0  0  0
 79158  1  0  0  0
 80 83  1  0  0  0
 80159  1  0  0  0
 80160  1  0  0  0
 81 82  1  0  0  0
 81161  1  0  0  0
 81162  1  0  0  0
 82 86  1  0  0  0
 82163  1  0  0  0
 82164  1  0  0  0
 83165  1  0  0  0
 86166  1  0  0  0
M  ISO  4   1 100  68 101  78 101  86 100
M  END
> <chiral flag>
0

> <version>
0

> <s_m_source_file>
/data/baiqing/PycharmProjects/Reinvent-master-3.2/result/LINK_invent/BTK/process_docking_weight1_custom_sum_contain_oxygen_bond_distance_aromatic_linkinvent_7_9_3/rearranged_h_0041.sdf

> <i_m_source_file_index>
2

> <r_mmod_Potential_Energy-OPLS-2005>
-95.2126922607422

> <r_mmod_Stretch_Energy-OPLS-2005>
140.873229980469

> <r_mmod_Bend_Energy-OPLS-2005>
237.096115112305

> <r_mmod_Torsional_Energy-OPLS-2005>
241.574569702148

> <r_mmod_Improper_Torsional_Energy-OPLS-2005>
7.91003131866455

> <r_mmod_Van_der_Waal_Energy-OPLS-2005>
138.676605224609

> <r_mmod_Electrostatic_Energy-OPLS-2005>
-735.705322265625

> <r_mmod_Solvation_Energy-OPLS-2005>
-227.281585693359

> <b_mmod_Minimization_Converged-OPLS-2005>
0

> <r_mmod_RMS_Derivative-OPLS-2005>
2.6726291179657

$$$$
2
                    3D
 Structure written by MMmdl.
162170  0  0  1  0            999 V2000
  -30.7149  -14.4303   20.6003 C   0  0  0  0  0  0
  -30.4298  -12.2921   19.4123 C   0  0  0  0  0  0
  -29.4968  -12.5177   18.2020 C   0  0  0  0  0  0
  -28.0160  -12.3850   18.6131 C   0  0  0  0  0  0
  -27.6680  -13.2038   19.8818 C   0  0  2  0  0  0
  -28.7122  -12.9562   20.9974 C   0  0  0  0  0  0
  -25.2625  -13.8153   20.5747 C   0  0  0  0  0  0
  -24.1853  -13.0453   20.9219 C   0  0  0  0  0  0
  -24.6389  -11.6909   20.8767 C   0  0  0  0  0  0
  -23.9063  -10.4283   21.0406 C   0  0  0  0  0  0
  -24.3600   -9.4184   21.9163 C   0  0  0  0  0  0
  -23.6274   -8.2213   22.0738 C   0  0  0  0  0  0
  -22.4249   -8.0255   21.3533 C   0  0  0  0  0  0
  -21.9910   -9.0230   20.4654 C   0  0  0  0  0  0
  -22.7247  -10.2101   20.3053 C   0  0  0  0  0  0
  -21.6813   -6.0712   22.5256 C   0  0  0  0  0  0
  -21.3991   -6.5602   23.8188 C   0  0  0  0  0  0
  -21.3699   -5.6756   24.9154 C   0  0  0  0  0  0
  -21.6041   -4.3016   24.7205 C   0  0  0  0  0  0
  -21.8811   -3.8130   23.4330 C   0  0  0  0  0  0
  -21.9187   -4.6950   22.3387 C   0  0  0  0  0  0
  -22.7874  -13.5272   21.1850 C   0  0  0  0  0  0
  -22.1660   -4.2144   21.0959 F   0  0  0  0  0  0
  -21.5685   -3.4501   25.7732 F   0  0  0  0  0  0
  -30.0498  -13.2527   20.4558 N   0  0  0  0  0  0
  -26.3048  -12.9316   20.3408 N   0  0  0  0  0  0
  -25.9305  -11.6479   20.5792 N   0  0  0  0  0  0
  -22.0459  -12.8277   22.0367 N   0  0  0  0  0  0
  -25.4408  -15.1865   20.4201 N   0  0  0  0  0  0
  -31.8141  -14.6544   20.0839 O   0  0  0  0  0  0
  -21.6628   -6.8846   21.4215 O   0  0  0  0  0  0
  -22.3576  -14.5592   20.6725 O   0  0  0  0  0  0
  -24.6144  -31.8703   23.2115 C   0  0  0  0  0  0
  -25.9056  -32.4825   23.8404 C   0  0  1  0  0  0
  -27.2309  -27.4539   20.0705 C   0  0  0  0  0  0
  -25.5923  -33.8625   24.2331 N   0  0  0  0  0  0
  -23.3991  -30.4947   21.5547 C   0  0  2  0  0  0
  -24.8390  -28.9604   20.1172 C   0  0  0  0  0  0
  -22.7386  -29.4680   22.5021 C   0  0  0  0  0  0
  -18.0267  -28.1369   22.8495 C   0  0  0  0  0  0
  -24.1492  -36.7331   23.2632 C   0  0  0  0  0  0
  -25.9258  -30.8354   21.3625 C   0  0  0  0  0  0
  -25.9999  -29.4694   20.7140 C   0  0  0  0  0  0
  -27.1936  -28.7182   20.6975 C   0  0  0  0  0  0
  -26.0476  -26.9568   19.4700 C   0  0  0  0  0  0
  -24.8551  -27.6998   19.5024 C   0  0  0  0  0  0
  -23.6043  -29.8285   20.1686 C   0  0  0  0  0  0
  -25.4107  -36.3112   24.0331 C   0  0  1  0  0  0
  -20.5851  -28.3664   23.1327 C   0  0  2  0  0  0
  -20.6761  -26.9405   22.5417 C   0  0  0  0  0  0
  -19.5740  -26.6384   21.5211 C   0  0  0  0  0  0
  -18.1920  -26.7918   22.1624 C   0  0  0  0  0  0
  -19.1514  -28.8832   23.2899 C   0  0  0  0  0  0
  -18.9455  -30.1438   23.8917 C   0  0  0  0  0  0
  -17.6465  -30.6569   24.0561 C   0  0  0  0  0  0
  -25.9032  -34.9480   23.5113 C   0  0  0  0  0  0
  -16.5347  -29.9084   23.6318 C   0  0  0  0  0  0
  -16.7262  -28.6495   23.0343 C   0  0  0  0  0  0
  -26.4478  -31.6601   25.0729 C   0  0  0  0  0  0
  -25.3762  -31.3740   26.1501 C   0  0  0  0  0  0
  -27.0275  -30.3035   24.6080 C   0  0  0  0  0  0
  -27.6035  -32.4330   25.7502 C   0  0  0  0  0  0
  -27.5582  -37.1819   24.8462 C   0  0  0  0  0  0
  -21.4137  -29.3042   22.3768 N   0  0  0  0  0  0
  -26.4289  -37.3799   23.9408 N   0  0  0  0  0  0
  -24.6649  -31.0825   22.1006 N   0  0  0  0  0  0
  -23.4191  -28.8225   23.3064 O   0  0  0  0  0  0
  -28.4206  -26.7569   20.0588 O   0  0  0  0  0  0
  -26.5588  -34.8935   22.4675 O   0  0  0  0  0  0
  -23.5342  -32.1478   23.7508 O   0  0  0  0  0  0
  -29.3038  -21.0907   19.5582 C   0  0  0  0  0  0
  -29.9653  -21.3612   20.7970 C   0  0  0  0  0  0
  -29.1141  -22.3380   19.0134 C   0  0  0  0  0  0
  -30.4493  -20.4172   21.8614 C   0  0  0  0  0  0
  -28.4551  -22.7167   17.7230 C   0  0  0  0  0  0
  -28.8768  -19.7531   18.9654 C   0  0  0  0  0  0
  -29.8298  -18.5703   19.2530 C   0  0  0  0  0  0
  -29.2491  -17.5372   20.2428 C   0  0  0  0  0  0
  -29.7410  -24.7257   19.8233 C   0  0  0  0  0  0
  -30.2926  -16.8281   21.1389 C   0  0  0  0  0  0
  -28.3894  -25.4119   19.5801 C   0  0  0  0  0  0
  -30.1661  -22.6535   20.9817 N   0  0  0  0  0  0
  -29.6421  -23.2685   19.9004 N   0  0  0  0  0  0
  -30.0217  -15.3926   21.2226 N   0  0  0  0  0  0
  -31.4751  -12.3942   19.1157 H   0  0  0  0  0  0
  -30.3291  -11.2729   19.7888 H   0  0  0  0  0  0
  -29.7254  -11.7965   17.4182 H   0  0  0  0  0  0
  -29.6724  -13.5069   17.7697 H   0  0  0  0  0  0
  -27.8171  -11.3309   18.7941 H   0  0  0  0  0  0
  -27.3689  -12.6838   17.7884 H   0  0  0  0  0  0
  -27.7226  -14.2544   19.5999 H   0  0  0  0  0  0
  -28.6768  -11.9212   21.3361 H   0  0  0  0  0  0
  -28.4747  -13.5483   21.8803 H   0  0  0  0  0  0
  -25.2732   -9.5619   22.4764 H   0  0  0  0  0  0
  -23.9959   -7.4582   22.7439 H   0  0  0  0  0  0
  -21.0838   -8.8750   19.8950 H   0  0  0  0  0  0
  -22.3703  -10.9634   19.6182 H   0  0  0  0  0  0
  -21.1932   -7.6096   23.9704 H   0  0  0  0  0  0
  -21.1581   -6.0473   25.9060 H   0  0  0  0  0  0
  -22.0591   -2.7598   23.2816 H   0  0  0  0  0  0
  -22.4086  -11.9966   22.4768 H   0  0  0  0  0  0
  -21.1102  -13.1350   22.2621 H   0  0  0  0  0  0
  -24.6784  -15.8472   20.5146 H   0  0  0  0  0  0
  -26.3051  -15.6122   20.1093 H   0  0  0  0  0  0
  -26.7129  -32.5542   23.1163 H   0  0  0  0  0  0
  -25.0102  -33.9789   25.0501 H   0  0  0  0  0  0
  -22.6855  -31.3095   21.4167 H   0  0  0  0  0  0
  -23.3732  -35.9685   23.3295 H   0  0  0  0  0  0
  -24.3595  -36.8946   22.2047 H   0  0  0  0  0  0
  -23.7270  -37.6548   23.6649 H   0  0  0  0  0  0
  -26.0325  -31.5948   20.5874 H   0  0  0  0  0  0
  -26.8161  -30.8928   21.9772 H   0  0  0  0  0  0
  -28.0899  -29.1059   21.1635 H   0  0  0  0  0  0
  -26.0188  -26.0060   18.9594 H   0  0  0  0  0  0
  -23.9627  -27.2976   19.0422 H   0  0  0  0  0  0
  -23.7184  -30.6030   19.4082 H   0  0  0  0  0  0
  -22.7266  -29.2491   19.8739 H   0  0  0  0  0  0
  -25.1269  -36.1955   25.0815 H   0  0  0  0  0  0
  -20.9919  -28.3216   24.1453 H   0  0  0  0  0  0
  -20.5664  -26.2273   23.3605 H   0  0  0  0  0  0
  -21.6645  -26.7458   22.1216 H   0  0  0  0  0  0
  -19.6902  -25.6297   21.1236 H   0  0  0  0  0  0
  -19.6659  -27.3203   20.6749 H   0  0  0  0  0  0
  -17.4185  -26.6667   21.4014 H   0  0  0  0  0  0
  -18.0303  -26.0042   22.9006 H   0  0  0  0  0  0
  -19.7928  -30.7235   24.2294 H   0  0  0  0  0  0
  -17.5021  -31.6257   24.5167 H   0  0  0  0  0  0
  -15.5350  -30.2993   23.7635 H   0  0  0  0  0  0
  -15.8655  -28.0820   22.7048 H   0  0  0  0  0  0
  -24.5919  -30.7065   25.7912 H   0  0  0  0  0  0
  -24.8977  -32.2912   26.4940 H   0  0  0  0  0  0
  -25.8149  -30.8965   27.0268 H   0  0  0  0  0  0
  -26.2799  -29.6828   24.1118 H   0  0  0  0  0  0
  -27.4028  -29.7222   25.4511 H   0  0  0  0  0  0
  -27.8649  -30.4333   23.9219 H   0  0  0  0  0  0
  -27.2616  -33.3617   26.2079 H   0  0  0  0  0  0
  -28.3856  -32.6911   25.0355 H   0  0  0  0  0  0
  -28.0683  -31.8469   26.5433 H   0  0  0  0  0  0
  -28.2594  -38.0124   24.7498 H   0  0  0  0  0  0
  -28.1075  -36.2647   24.6263 H   0  0  0  0  0  0
  -27.2313  -37.1457   25.8873 H   0  0  0  0  0  0
  -20.9293  -29.8807   21.7028 H   0  0  0  0  0  0
  -26.0163  -38.2874   24.1397 H   0  0  0  0  0  0
  -31.3478  -19.8895   21.5415 H   0  0  0  0  0  0
  -29.6887  -19.6788   22.1061 H   0  0  0  0  0  0
  -30.6961  -20.9430   22.7844 H   0  0  0  0  0  0
  -28.5447  -21.9224   16.9839 H   0  0  0  0  0  0
  -28.9055  -23.6072   17.2835 H   0  0  0  0  0  0
  -27.3930  -22.9062   17.8792 H   0  0  0  0  0  0
  -28.8065  -19.8292   17.8808 H   0  0  0  0  0  0
  -27.8622  -19.5073   19.2858 H   0  0  0  0  0  0
  -30.8154  -18.9254   19.5445 H   0  0  0  0  0  0
  -30.0186  -18.0422   18.3151 H   0  0  0  0  0  0
  -28.6747  -16.8143   19.6607 H   0  0  0  0  0  0
  -28.5184  -18.0114   20.8963 H   0  0  0  0  0  0
  -30.1450  -25.0910   20.7691 H   0  0  0  0  0  0
  -30.4661  -25.0028   19.0557 H   0  0  0  0  0  0
  -30.2412  -17.2367   22.1494 H   0  0  0  0  0  0
  -31.3103  -17.0260   20.8015 H   0  0  0  0  0  0
  -27.6083  -24.8552   20.1008 H   0  0  0  0  0  0
  -28.1523  -25.4139   18.5152 H   0  0  0  0  0  0
  -29.1472  -15.1157   21.6472 H   0  0  0  0  0  0
  1 25  1  0  0  0
  1 30  2  0  0  0
  1 84  1  0  0  0
  2  3  1  0  0  0
  2 25  1  0  0  0
  2 85  1  0  0  0
  2 86  1  0  0  0
  3  4  1  0  0  0
  3 87  1  0  0  0
  3 88  1  0  0  0
  4  5  1  0  0  0
  4 89  1  0  0  0
  4 90  1  0  0  0
  5  6  1  0  0  0
  5 26  1  0  0  0
  5 91  1  0  0  0
  6 25  1  0  0  0
  6 92  1  0  0  0
  6 93  1  0  0  0
  7  8  2  0  0  0
  7 26  1  0  0  0
  7 29  1  0  0  0
  8  9  1  0  0  0
  8 22  1  0  0  0
  9 10  1  0  0  0
  9 27  2  0  0  0
 10 11  2  0  0  0
 10 15  1  0  0  0
 11 12  1  0  0  0
 11 94  1  0  0  0
 12 13  2  0  0  0
 12 95  1  0  0  0
 13 14  1  0  0  0
 13 31  1  0  0  0
 14 15  2  0  0  0
 14 96  1  0  0  0
 15 97  1  0  0  0
 16 17  2  0  0  0
 16 21  1  0  0  0
 16 31  1  0  0  0
 17 18  1  0  0  0
 17 98  1  0  0  0
 18 19  2  0  0  0
 18 99  1  0  0  0
 19 20  1  0  0  0
 19 24  1  0  0  0
 20 21  2  0  0  0
 20100  1  0  0  0
 21 23  1  0  0  0
 22 28  1  0  0  0
 22 32  2  0  0  0
 26 27  1  0  0  0
 28101  1  0  0  0
 28102  1  0  0  0
 29103  1  0  0  0
 29104  1  0  0  0
 33 34  1  0  0  0
 33 66  1  0  0  0
 33 70  2  0  0  0
 34 36  1  0  0  0
 34 59  1  0  0  0
 34105  1  0  0  0
 35 44  2  0  0  0
 35 45  1  0  0  0
 35 68  1  0  0  0
 36 56  1  0  0  0
 36106  1  0  0  0
 37 39  1  0  0  0
 37 47  1  0  0  0
 37 66  1  0  0  0
 37107  1  0  0  0
 38 43  2  0  0  0
 38 46  1  0  0  0
 38 47  1  0  0  0
 39 64  1  0  0  0
 39 67  2  0  0  0
 40 52  1  0  0  0
 40 53  2  0  0  0
 40 58  1  0  0  0
 41108  1  0  0  0
 41109  1  0  0  0
 41110  1  0  0  0
 41 48  1  0  0  0
 42 43  1  0  0  0
 42 66  1  0  0  0
 42111  1  0  0  0
 42112  1  0  0  0
 43 44  1  0  0  0
 44113  1  0  0  0
 45 46  2  0  0  0
 45114  1  0  0  0
 46115  1  0  0  0
 47116  1  0  0  0
 47117  1  0  0  0
 48 56  1  0  0  0
 48 65  1  0  0  0
 48118  1  0  0  0
 49 50  1  0  0  0
 49 53  1  0  0  0
 49 64  1  0  0  0
 49119  1  0  0  0
 50 51  1  0  0  0
 50120  1  0  0  0
 50121  1  0  0  0
 51 52  1  0  0  0
 51122  1  0  0  0
 51123  1  0  0  0
 52124  1  0  0  0
 52125  1  0  0  0
 53 54  1  0  0  0
 54 55  2  0  0  0
 54126  1  0  0  0
 55 57  1  0  0  0
 55127  1  0  0  0
 56 69  2  0  0  0
 57 58  2  0  0  0
 57128  1  0  0  0
 58129  1  0  0  0
 59 60  1  0  0  0
 59 61  1  0  0  0
 59 62  1  0  0  0
 60130  1  0  0  0
 60131  1  0  0  0
 60132  1  0  0  0
 61133  1  0  0  0
 61134  1  0  0  0
 61135  1  0  0  0
 62136  1  0  0  0
 62137  1  0  0  0
 62138  1  0  0  0
 63 65  1  0  0  0
 63139  1  0  0  0
 63140  1  0  0  0
 63141  1  0  0  0
 64142  1  0  0  0
 65143  1  0  0  0
 68 81  1  0  0  0
 71 72  1  0  0  0
 71 73  2  0  0  0
 71 76  1  0  0  0
 72 74  1  0  0  0
 72 82  2  0  0  0
 73 75  1  0  0  0
 73 83  1  0  0  0
 74144  1  0  0  0
 74145  1  0  0  0
 74146  1  0  0  0
 75147  1  0  0  0
 75148  1  0  0  0
 75149  1  0  0  0
 76 77  1  0  0  0
 76150  1  0  0  0
 76151  1  0  0  0
 77 78  1  0  0  0
 77152  1  0  0  0
 77153  1  0  0  0
 78 80  1  0  0  0
 78154  1  0  0  0
 78155  1  0  0  0
 79 81  1  0  0  0
 79 83  1  0  0  0
 79156  1  0  0  0
 79157  1  0  0  0
 80 84  1  0  0  0
 80158  1  0  0  0
 80159  1  0  0  0
 81160  1  0  0  0
 81161  1  0  0  0
 82 83  1  0  0  0
 84162  1  0  0  0
M  ISO  4   1 100  68 101  81 101  84 100
M  END
> <chiral flag>
0

> <version>
0

> <s_m_source_file>
/data/baiqing/PycharmProjects/Reinvent-master-3.2/result/LINK_invent/BTK/process_docking_weight1_custom_sum_contain_oxygen_bond_distance_aromatic_linkinvent_7_9_3/rearranged_h_0041.sdf

> <i_m_source_file_index>
3

> <r_mmod_Potential_Energy-OPLS-2005>
-121.854827880859

> <r_mmod_Stretch_Energy-OPLS-2005>
32.4608573913574

> <r_mmod_Bend_Energy-OPLS-2005>
93.9622116088867

> <r_mmod_Torsional_Energy-OPLS-2005>
233.093704223633

> <r_mmod_Improper_Torsional_Energy-OPLS-2005>
3.7458119392395

> <r_mmod_Van_der_Waal_Energy-OPLS-2005>
137.075607299805

> <r_mmod_Electrostatic_Energy-OPLS-2005>
-405.026580810547

> <r_mmod_Solvation_Energy-OPLS-2005>
-226.545623779297

> <b_mmod_Minimization_Converged-OPLS-2005>
0

> <r_mmod_RMS_Derivative-OPLS-2005>
4.57070159912109

$$$$
3
                    3D
 Structure written by MMmdl.
158166  0  0  1  0            999 V2000
  -30.7418  -14.2575   20.9241 C   0  0  0  0  0  0
  -30.8447  -12.3900   19.1764 C   0  0  0  0  0  0
  -29.8463  -12.4992   17.9466 C   0  0  0  0  0  0
  -28.3252  -12.6636   18.2286 C   0  0  0  0  0  0
  -28.2727  -13.5099   19.5053 C   0  0  2  0  0  0
  -29.0828  -12.6624   20.5397 C   0  0  0  0  0  0
  -25.1072  -14.3556   20.7914 C   0  0  0  0  0  0
  -23.8615  -13.5533   21.1290 C   0  0  0  0  0  0
  -24.2325  -12.3418   21.1255 C   0  0  0  0  0  0
  -23.8792  -10.7931   21.1076 C   0  0  0  0  0  0
  -24.3022   -9.7671   22.0218 C   0  0  0  0  0  0
  -23.6725   -8.4797   22.1286 C   0  0  0  0  0  0
  -22.5337   -8.1573   21.3552 C   0  0  0  0  0  0
  -22.1347   -9.1271   20.4185 C   0  0  0  0  0  0
  -22.7971  -10.3765   20.2878 C   0  0  0  0  0  0
  -21.7768   -6.1367   22.5053 C   0  0  0  0  0  0
  -21.4524   -6.6134   23.7962 C   0  0  0  0  0  0
  -21.3838   -5.7212   24.8884 C   0  0  0  0  0  0
  -21.6070   -4.3443   24.6918 C   0  0  0  0  0  0
  -21.8830   -3.8584   23.4037 C   0  0  0  0  0  0
  -21.9628   -4.7477   22.3158 C   0  0  0  0  0  0
  -22.4145  -13.8718   21.2900 C   0  0  0  0  0  0
  -22.2026   -4.2569   21.0760 F   0  0  0  0  0  0
  -21.5674   -3.4893   25.7432 F   0  0  0  0  0  0
  -30.3776  -13.0781   20.3950 N   0  0  0  0  0  0
  -26.6116  -14.3949   20.2460 N   0  0  0  0  0  0
  -24.9143  -13.6749   20.9111 N   0  0  0  0  0  0
  -21.7175  -13.0352   22.0543 N   0  0  0  0  0  0
  -26.7577  -14.8277   20.2364 N   0  0  0  0  0  0
  -31.6610  -14.8961   20.3944 O   0  0  0  0  0  0
  -21.8123   -6.9702   21.4049 O   0  0  0  0  0  0
  -21.9532  -14.8442   20.7221 O   0  0  0  0  0  0
  -24.7071  -31.7731   23.1440 C   0  0  0  0  0  0
  -25.9552  -32.4313   23.8004 C   0  0  1  0  0  0
  -26.7137  -26.2359   20.3066 C   0  0  0  0  0  0
  -25.6073  -33.8180   24.1829 N   0  0  0  0  0  0
  -23.5227  -30.3990   21.5054 C   0  0  2  0  0  0
  -24.8956  -28.6953   20.0884 C   0  0  0  0  0  0
  -22.7786  -29.4247   22.4586 C   0  0  0  0  0  0
  -18.0349  -28.1439   22.8446 C   0  0  0  0  0  0
  -24.1493  -36.7069   23.2657 C   0  0  0  0  0  0
  -26.1027  -30.3403   21.4796 C   0  0  0  0  0  0
  -26.0682  -28.8714   20.8227 C   0  0  0  0  0  0
  -26.9870  -27.6593   20.9041 C   0  0  0  0  0  0
  -25.6511  -26.4133   19.4185 C   0  0  0  0  0  0
  -24.7632  -27.5162   19.3485 C   0  0  0  0  0  0
  -23.7700  -29.7373   20.1215 C   0  0  0  0  0  0
  -25.4167  -36.2811   24.0249 C   0  0  1  0  0  0
  -20.5989  -28.3813   23.1105 C   0  0  2  0  0  0
  -20.6801  -26.9448   22.5414 C   0  0  0  0  0  0
  -19.5778  -26.6360   21.5226 C   0  0  0  0  0  0
  -18.1966  -26.7964   22.1618 C   0  0  0  0  0  0
  -19.1619  -28.8942   23.2762 C   0  0  0  0  0  0
  -18.9524  -30.1520   23.8811 C   0  0  0  0  0  0
  -17.6511  -30.6609   24.0551 C   0  0  0  0  0  0
  -25.9177  -34.9215   23.4888 C   0  0  0  0  0  0
  -16.5398  -29.9091   23.6364 C   0  0  0  0  0  0
  -16.7326  -28.6526   23.0364 C   0  0  0  0  0  0
  -26.4632  -31.6526   25.0769 C   0  0  0  0  0  0
  -25.3615  -31.3989   26.1332 C   0  0  0  0  0  0
  -27.0658  -30.2827   24.7023 C   0  0  0  0  0  0
  -27.6035  -32.4480   25.7583 C   0  0  0  0  0  0
  -27.5555  -37.1709   24.8454 C   0  0  0  0  0  0
  -21.4417  -29.3043   22.3378 N   0  0  0  0  0  0
  -26.4249  -37.3616   23.9405 N   0  0  0  0  0  0
  -24.8095  -30.8852   22.0898 N   0  0  0  0  0  0
  -23.4189  -28.7805   23.2932 O   0  0  0  0  0  0
  -27.1856  -24.6804   20.4372 O   0  0  0  0  0  0
  -26.5825  -34.8835   22.4511 O   0  0  0  0  0  0
  -23.6063  -32.1022   23.6229 O   0  0  0  0  0  0
  -26.2593  -15.6679   22.2645 C   0  0  0  0  0  0
  -25.5327  -13.3098   18.6811 C   0  0  0  0  0  0
  -26.8299  -13.5554   22.2808 C   0  0  0  0  0  0
  -26.5264  -12.2161   20.4540 C   0  0  0  0  0  0
  -25.4977  -16.6853   20.4922 C   0  0  0  0  0  0
  -26.7728  -10.6962   20.4705 C   0  0  0  0  0  0
  -27.9026  -13.3151   23.3646 C   0  0  0  0  0  0
  -25.5143  -18.7539   20.3677 C   0  0  0  0  0  0
  -26.4866  -20.7120   20.4691 C   0  0  0  0  0  0
  -29.3450  -14.0686   23.2016 C   0  0  0  0  0  0
  -26.4018  -22.8886   20.3062 C   0  0  0  0  0  0
  -25.0880  -15.4243   18.7998 N   0  0  0  0  0  0
  -29.9229  -14.7168   21.9403 N   0  0  0  0  0  0
  -31.8349  -12.7590   18.8956 H   0  0  0  0  0  0
  -31.0066  -11.3353   19.4135 H   0  0  0  0  0  0
  -30.0083  -11.6535   17.2757 H   0  0  0  0  0  0
  -30.1680  -13.3661   17.3739 H   0  0  0  0  0  0
  -27.8596  -11.6832   18.2905 H   0  0  0  0  0  0
  -27.8644  -13.1846   17.3898 H   0  0  0  0  0  0
  -28.8545  -14.3817   19.1681 H   0  0  0  0  0  0
  -29.0899  -11.6115   20.2859 H   0  0  0  0  0  0
  -28.8127  -12.4695   21.5249 H   0  0  0  0  0  0
  -25.0633  -10.0360   22.7404 H   0  0  0  0  0  0
  -24.0199   -7.7776   22.8713 H   0  0  0  0  0  0
  -21.2958   -8.9286   19.7794 H   0  0  0  0  0  0
  -22.3990  -11.0778   19.5762 H   0  0  0  0  0  0
  -21.2521   -7.6654   23.9459 H   0  0  0  0  0  0
  -21.1533   -6.0963   25.8746 H   0  0  0  0  0  0
  -22.0245   -2.8005   23.2365 H   0  0  0  0  0  0
  -22.1861  -12.2941   22.5554 H   0  0  0  0  0  0
  -20.7317  -13.2100   22.2085 H   0  0  0  0  0  0
  -27.5679  -14.1854   20.3684 H   0  0  0  0  0  0
  -26.7419  -15.3997   21.0996 H   0  0  0  0  0  0
  -26.7595  -32.4598   23.0665 H   0  0  0  0  0  0
  -25.0121  -33.9198   24.9917 H   0  0  0  0  0  0
  -22.8635  -31.2546   21.3329 H   0  0  0  0  0  0
  -23.3817  -35.9335   23.3230 H   0  0  0  0  0  0
  -24.3535  -36.8845   22.2087 H   0  0  0  0  0  0
  -23.7183  -37.6182   23.6814 H   0  0  0  0  0  0
  -26.3839  -31.0414   20.6940 H   0  0  0  0  0  0
  -26.9396  -30.3714   22.1650 H   0  0  0  0  0  0
  -27.8316  -27.7527   21.5721 H   0  0  0  0  0  0
  -25.3646  -25.5451   18.8452 H   0  0  0  0  0  0
  -23.8882  -27.4022   18.7259 H   0  0  0  0  0  0
  -24.0288  -30.5113   19.3978 H   0  0  0  0  0  0
  -22.8494  -29.2857   19.7493 H   0  0  0  0  0  0
  -25.1390  -36.1549   25.0735 H   0  0  0  0  0  0
  -21.0068  -28.3453   24.1225 H   0  0  0  0  0  0
  -20.5675  -26.2427   23.3693 H   0  0  0  0  0  0
  -21.6663  -26.7369   22.1224 H   0  0  0  0  0  0
  -19.6926  -25.6241   21.1328 H   0  0  0  0  0  0
  -19.6729  -27.3105   20.6710 H   0  0  0  0  0  0
  -17.4238  -26.6729   21.4009 H   0  0  0  0  0  0
  -18.0324  -26.0124   22.9028 H   0  0  0  0  0  0
  -19.8000  -30.7367   24.2136 H   0  0  0  0  0  0
  -17.5064  -31.6278   24.5179 H   0  0  0  0  0  0
  -15.5396  -30.2965   23.7735 H   0  0  0  0  0  0
  -15.8738  -28.0816   22.7110 H   0  0  0  0  0  0
  -24.5831  -30.7295   25.7631 H   0  0  0  0  0  0
  -24.8772  -32.3269   26.4393 H   0  0  0  0  0  0
  -25.7693  -30.9391   27.0352 H   0  0  0  0  0  0
  -26.3412  -29.6225   24.2248 H   0  0  0  0  0  0
  -27.4112  -29.7548   25.5929 H   0  0  0  0  0  0
  -27.9394  -30.3848   24.0589 H   0  0  0  0  0  0
  -27.2553  -33.3919   26.1818 H   0  0  0  0  0  0
  -28.4022  -32.6844   25.0524 H   0  0  0  0  0  0
  -28.0530  -31.8869   26.5798 H   0  0  0  0  0  0
  -28.2520  -38.0064   24.7556 H   0  0  0  0  0  0
  -28.1121  -36.2584   24.6235 H   0  0  0  0  0  0
  -27.2271  -37.1268   25.8859 H   0  0  0  0  0  0
  -20.9716  -29.8742   21.6480 H   0  0  0  0  0  0
  -26.0061  -38.2647   24.1463 H   0  0  0  0  0  0
  -26.5563  -16.2712   23.1134 H   0  0  0  0  0  0
  -25.2761  -12.7826   17.7745 H   0  0  0  0  0  0
  -25.9809  -10.1929   19.9259 H   0  0  0  0  0  0
  -26.7554  -10.4036   21.5200 H   0  0  0  0  0  0
  -27.6700  -10.2707   20.0293 H   0  0  0  0  0  0
  -27.4618  -13.6093   24.3179 H   0  0  0  0  0  0
  -28.0270  -12.2363   23.4791 H   0  0  0  0  0  0
  -24.7045  -18.9236   21.0770 H   0  0  0  0  0  0
  -25.0207  -18.8375   19.3962 H   0  0  0  0  0  0
  -27.3450  -20.5363   19.8248 H   0  0  0  0  0  0
  -26.9141  -20.6311   21.4679 H   0  0  0  0  0  0
  -30.1219  -13.4363   23.6403 H   0  0  0  0  0  0
  -29.2679  -14.9295   23.8667 H   0  0  0  0  0  0
  -25.5006  -23.0899   20.8828 H   0  0  0  0  0  0
  -26.0740  -22.9855   19.2752 H   0  0  0  0  0  0
  -30.0433  -15.7109   22.0672 H   0  0  0  0  0  0
  1 25  1  0  0  0
  1 30  2  0  0  0
  1 83  1  0  0  0
  2  3  1  0  0  0
  2 25  1  0  0  0
  2 84  1  0  0  0
  2 85  1  0  0  0
  3  4  1  0  0  0
  3 86  1  0  0  0
  3 87  1  0  0  0
  4  5  1  0  0  0
  4 88  1  0  0  0
  4 89  1  0  0  0
  5  6  1  0  0  0
  5 26  1  0  0  0
  5 90  1  0  0  0
  6 25  1  0  0  0
  6 91  1  0  0  0
  6 92  1  0  0  0
  7  8  2  0  0  0
  7 26  1  0  0  0
  7 29  1  0  0  0
  8  9  1  0  0  0
  8 22  1  0  0  0
  9 10  1  0  0  0
  9 27  2  0  0  0
 10 11  2  0  0  0
 10 15  1  0  0  0
 11 12  1  0  0  0
 11 93  1  0  0  0
 12 13  2  0  0  0
 12 94  1  0  0  0
 13 14  1  0  0  0
 13 31  1  0  0  0
 14 15  2  0  0  0
 14 95  1  0  0  0
 15 96  1  0  0  0
 16 17  2  0  0  0
 16 21  1  0  0  0
 16 31  1  0  0  0
 17 18  1  0  0  0
 17 97  1  0  0  0
 18 19  2  0  0  0
 18 98  1  0  0  0
 19 20  1  0  0  0
 19 24  1  0  0  0
 20 21  2  0  0  0
 20 99  1  0  0  0
 21 23  1  0  0  0
 22 28  1  0  0  0
 22 32  2  0  0  0
 26 27  1  0  0  0
 28100  1  0  0  0
 28101  1  0  0  0
 29102  1  0  0  0
 29103  1  0  0  0
 33 34  1  0  0  0
 33 66  1  0  0  0
 33 70  2  0  0  0
 34 36  1  0  0  0
 34 59  1  0  0  0
 34104  1  0  0  0
 35 44  2  0  0  0
 35 45  1  0  0  0
 35 68  1  0  0  0
 36 56  1  0  0  0
 36105  1  0  0  0
 37 39  1  0  0  0
 37 47  1  0  0  0
 37 66  1  0  0  0
 37106  1  0  0  0
 38 43  2  0  0  0
 38 46  1  0  0  0
 38 47  1  0  0  0
 39 64  1  0  0  0
 39 67  2  0  0  0
 40 52  1  0  0  0
 40 53  2  0  0  0
 40 58  1  0  0  0
 41107  1  0  0  0
 41108  1  0  0  0
 41109  1  0  0  0
 41 48  1  0  0  0
 42 43  1  0  0  0
 42 66  1  0  0  0
 42110  1  0  0  0
 42111  1  0  0  0
 43 44  1  0  0  0
 44112  1  0  0  0
 45 46  2  0  0  0
 45113  1  0  0  0
 46114  1  0  0  0
 47115  1  0  0  0
 47116  1  0  0  0
 48 56  1  0  0  0
 48 65  1  0  0  0
 48117  1  0  0  0
 49 50  1  0  0  0
 49 53  1  0  0  0
 49 64  1  0  0  0
 49118  1  0  0  0
 50 51  1  0  0  0
 50119  1  0  0  0
 50120  1  0  0  0
 51 52  1  0  0  0
 51121  1  0  0  0
 51122  1  0  0  0
 52123  1  0  0  0
 52124  1  0  0  0
 53 54  1  0  0  0
 54 55  2  0  0  0
 54125  1  0  0  0
 55 57  1  0  0  0
 55126  1  0  0  0
 56 69  2  0  0  0
 57 58  2  0  0  0
 57127  1  0  0  0
 58128  1  0  0  0
 59 60  1  0  0  0
 59 61  1  0  0  0
 59 62  1  0  0  0
 60129  1  0  0  0
 60130  1  0  0  0
 60131  1  0  0  0
 61132  1  0  0  0
 61133  1  0  0  0
 61134  1  0  0  0
 62135  1  0  0  0
 62136  1  0  0  0
 62137  1  0  0  0
 63 65  1  0  0  0
 63138  1  0  0  0
 63139  1  0  0  0
 63140  1  0  0  0
 64141  1  0  0  0
 65142  1  0  0  0
 68 81  1  0  0  0
 71 73  2  0  0  0
 71 75  1  0  0  0
 71143  1  0  0  0
 72 74  2  0  0  0
 72 82  1  0  0  0
 72144  1  0  0  0
 73 74  1  0  0  0
 73 77  1  0  0  0
 74 76  1  0  0  0
 75 78  1  0  0  0
 75 82  2  0  0  0
 76145  1  0  0  0
 76146  1  0  0  0
 76147  1  0  0  0
 77 80  1  0  0  0
 77148  1  0  0  0
 77149  1  0  0  0
 78 79  1  0  0  0
 78150  1  0  0  0
 78151  1  0  0  0
 79 81  1  0  0  0
 79152  1  0  0  0
 79153  1  0  0  0
 80 83  1  0  0  0
 80154  1  0  0  0
 80155  1  0  0  0
 81156  1  0  0  0
 81157  1  0  0  0
 83158  1  0  0  0
M  ISO  4   1 100  68 101  81 101  83 100
M  END
> <chiral flag>
0

> <version>
0

> <s_m_source_file>
/data/baiqing/PycharmProjects/Reinvent-master-3.2/result/LINK_invent/BTK/process_docking_weight1_custom_sum_contain_oxygen_bond_distance_aromatic_linkinvent_7_9_3/rearranged_h_0041.sdf

> <i_m_source_file_index>
4

> <r_mmod_Potential_Energy-OPLS-2005>
22359.1953125

> <r_mmod_Stretch_Energy-OPLS-2005>
12053.7880859375

> <r_mmod_Bend_Energy-OPLS-2005>
3630.95971679688

> <r_mmod_Torsional_Energy-OPLS-2005>
372.971313476562

> <r_mmod_Improper_Torsional_Energy-OPLS-2005>
31.2299575805664

> <r_mmod_Van_der_Waal_Energy-OPLS-2005>
4453.47216796875

> <r_mmod_Electrostatic_Energy-OPLS-2005>
-423.789459228516

> <r_mmod_Solvation_Energy-OPLS-2005>
-264.666229248047

> <b_mmod_Minimization_Converged-OPLS-2005>
0

> <r_mmod_RMS_Derivative-OPLS-2005>
15.5631828308105

$$$$
4
                    3D
 Structure written by MMmdl.
166174  0  0  1  0            999 V2000
  -30.7413  -14.4167   20.6271 C   0  0  0  0  0  0
  -30.4180  -12.3018   19.4004 C   0  0  0  0  0  0
  -29.4879  -12.5236   18.1924 C   0  0  0  0  0  0
  -28.0101  -12.3861   18.6081 C   0  0  0  0  0  0
  -27.6657  -13.2081   19.8790 C   0  0  2  0  0  0
  -28.7070  -12.9641   20.9931 C   0  0  0  0  0  0
  -25.2607  -13.8158   20.5674 C   0  0  0  0  0  0
  -24.1857  -13.0434   20.9157 C   0  0  0  0  0  0
  -24.6406  -11.6895   20.8718 C   0  0  0  0  0  0
  -23.9069  -10.4287   21.0400 C   0  0  0  0  0  0
  -24.3618   -9.4206   21.9181 C   0  0  0  0  0  0
  -23.6288   -8.2248   22.0754 C   0  0  0  0  0  0
  -22.4272   -8.0286   21.3543 C   0  0  0  0  0  0
  -21.9911   -9.0260   20.4648 C   0  0  0  0  0  0
  -22.7240  -10.2136   20.3051 C   0  0  0  0  0  0
  -21.6855   -6.0733   22.5273 C   0  0  0  0  0  0
  -21.4017   -6.5639   23.8206 C   0  0  0  0  0  0
  -21.3654   -5.6792   24.9169 C   0  0  0  0  0  0
  -21.6046   -4.3055   24.7223 C   0  0  0  0  0  0
  -21.8823   -3.8146   23.4346 C   0  0  0  0  0  0
  -21.9195   -4.6960   22.3400 C   0  0  0  0  0  0
  -22.7881  -13.5244   21.1822 C   0  0  0  0  0  0
  -22.1666   -4.2145   21.0976 F   0  0  0  0  0  0
  -21.5628   -3.4541   25.7738 F   0  0  0  0  0  0
  -30.0410  -13.2665   20.4441 N   0  0  0  0  0  0
  -26.3052  -12.9336   20.3385 N   0  0  0  0  0  0
  -25.9338  -11.6491   20.5762 N   0  0  0  0  0  0
  -22.0523  -12.8238   22.0378 N   0  0  0  0  0  0
  -25.4335  -15.1876   20.4076 N   0  0  0  0  0  0
  -31.8253  -14.6401   20.0804 O   0  0  0  0  0  0
  -21.6644   -6.8878   21.4234 O   0  0  0  0  0  0
  -22.3564  -14.5548   20.6674 O   0  0  0  0  0  0
  -24.6180  -31.8679   23.2093 C   0  0  0  0  0  0
  -25.9069  -32.4806   23.8399 C   0  0  1  0  0  0
  -27.2447  -27.4344   20.0874 C   0  0  0  0  0  0
  -25.5956  -33.8602   24.2333 N   0  0  0  0  0  0
  -23.4043  -30.4884   21.5515 C   0  0  2  0  0  0
  -24.8512  -28.9506   20.1161 C   0  0  0  0  0  0
  -22.7417  -29.4659   22.5013 C   0  0  0  0  0  0
  -18.0273  -28.1353   22.8487 C   0  0  0  0  0  0
  -24.1512  -36.7294   23.2627 C   0  0  0  0  0  0
  -25.9331  -30.8323   21.3604 C   0  0  0  0  0  0
  -26.0108  -29.4644   20.7096 C   0  0  0  0  0  0
  -27.2101  -28.7152   20.6867 C   0  0  0  0  0  0
  -26.0639  -26.9303   19.4979 C   0  0  0  0  0  0
  -24.8740  -27.6839   19.5060 C   0  0  0  0  0  0
  -23.6138  -29.8185   20.1657 C   0  0  0  0  0  0
  -25.4126  -36.3074   24.0324 C   0  0  1  0  0  0
  -20.5867  -28.3655   23.1305 C   0  0  2  0  0  0
  -20.6759  -26.9387   22.5396 C   0  0  0  0  0  0
  -19.5746  -26.6382   21.5174 C   0  0  0  0  0  0
  -18.1926  -26.7914   22.1590 C   0  0  0  0  0  0
  -19.1526  -28.8815   23.2905 C   0  0  0  0  0  0
  -18.9437  -30.1416   23.8922 C   0  0  0  0  0  0
  -17.6442  -30.6565   24.0540 C   0  0  0  0  0  0
  -25.9053  -34.9438   23.5118 C   0  0  0  0  0  0
  -16.5336  -29.9058   23.6305 C   0  0  0  0  0  0
  -16.7263  -28.6463   23.0354 C   0  0  0  0  0  0
  -26.4492  -31.6575   25.0713 C   0  0  0  0  0  0
  -25.3743  -31.3616   26.1444 C   0  0  0  0  0  0
  -27.0307  -30.3032   24.6030 C   0  0  0  0  0  0
  -27.6110  -32.4253   25.7461 C   0  0  0  0  0  0
  -27.5586  -37.1793   24.8455 C   0  0  0  0  0  0
  -21.4147  -29.3037   22.3721 N   0  0  0  0  0  0
  -26.4291  -37.3769   23.9409 N   0  0  0  0  0  0
  -24.6698  -31.0772   22.1007 N   0  0  0  0  0  0
  -23.4165  -28.8208   23.3087 O   0  0  0  0  0  0
  -28.4365  -26.7367   20.0757 O   0  0  0  0  0  0
  -26.5569  -34.8883   22.4653 O   0  0  0  0  0  0
  -23.5371  -32.1479   23.7482 O   0  0  0  0  0  0
  -29.3536  -19.7493   19.9538 C   0  0  0  0  0  0
  -29.2882  -20.0509   18.5771 C   0  0  0  0  0  0
  -29.4561  -20.8638   20.8176 C   0  0  0  0  0  0
  -29.4930  -22.2940   19.0279 C   0  0  0  0  0  0
  -29.1631  -18.9835   17.5055 C   0  0  0  0  0  0
  -28.0025  -20.7955   22.8833 C   0  0  0  0  0  0
  -29.3037  -18.3082   20.4843 C   0  0  0  0  0  0
  -29.4325  -20.7390   22.3323 C   0  0  0  0  0  0
  -29.7164  -23.7038   18.4869 C   0  0  0  0  0  0
  -30.7066  -17.7162   20.7422 C   0  0  0  0  0  0
  -28.5413  -24.6935   18.6586 C   0  0  0  0  0  0
  -30.7615  -16.6080   21.8205 C   0  0  0  0  0  0
  -28.4137  -25.3002   20.0731 C   0  0  0  0  0  0
  -29.3465  -21.3215   18.1325 N   0  0  0  0  0  0
  -29.5288  -22.1228   20.3433 N   0  0  0  0  0  0
  -30.1607  -15.3339   21.4148 N   0  0  0  0  0  0
  -31.4615  -12.3975   19.0959 H   0  0  0  0  0  0
  -30.3134  -11.2846   19.7799 H   0  0  0  0  0  0
  -29.7200  -11.8093   17.4012 H   0  0  0  0  0  0
  -29.6601  -13.5145   17.7687 H   0  0  0  0  0  0
  -27.8111  -11.3281   18.7829 H   0  0  0  0  0  0
  -27.3602  -12.6845   17.7844 H   0  0  0  0  0  0
  -27.7184  -14.2622   19.6032 H   0  0  0  0  0  0
  -28.6799  -11.9216   21.3133 H   0  0  0  0  0  0
  -28.4660  -13.5451   21.8840 H   0  0  0  0  0  0
  -25.2765   -9.5684   22.4753 H   0  0  0  0  0  0
  -23.9998   -7.4644   22.7477 H   0  0  0  0  0  0
  -21.0843   -8.8778   19.8959 H   0  0  0  0  0  0
  -22.3698  -10.9674   19.6161 H   0  0  0  0  0  0
  -21.2008   -7.6146   23.9704 H   0  0  0  0  0  0
  -21.1474   -6.0526   25.9069 H   0  0  0  0  0  0
  -22.0606   -2.7607   23.2850 H   0  0  0  0  0  0
  -22.4143  -11.9903   22.4770 H   0  0  0  0  0  0
  -21.1140  -13.1259   22.2584 H   0  0  0  0  0  0
  -24.6665  -15.8439   20.5062 H   0  0  0  0  0  0
  -26.2945  -15.6251   20.1032 H   0  0  0  0  0  0
  -26.7151  -32.5494   23.1174 H   0  0  0  0  0  0
  -25.0152  -33.9806   25.0506 H   0  0  0  0  0  0
  -22.6927  -31.3054   21.4110 H   0  0  0  0  0  0
  -23.3740  -35.9654   23.3274 H   0  0  0  0  0  0
  -24.3598  -36.8938   22.2041 H   0  0  0  0  0  0
  -23.7334  -37.6518   23.6668 H   0  0  0  0  0  0
  -26.0399  -31.5939   20.5874 H   0  0  0  0  0  0
  -26.8255  -30.8919   21.9716 H   0  0  0  0  0  0
  -28.1115  -29.1148   21.1338 H   0  0  0  0  0  0
  -26.0564  -25.9646   19.0156 H   0  0  0  0  0  0
  -23.9860  -27.2851   19.0368 H   0  0  0  0  0  0
  -23.7246  -30.5935   19.4055 H   0  0  0  0  0  0
  -22.7390  -29.2376   19.8676 H   0  0  0  0  0  0
  -25.1307  -36.1912   25.0813 H   0  0  0  0  0  0
  -20.9939  -28.3211   24.1436 H   0  0  0  0  0  0
  -20.5628  -26.2248   23.3574 H   0  0  0  0  0  0
  -21.6640  -26.7425   22.1208 H   0  0  0  0  0  0
  -19.6892  -25.6287   21.1217 H   0  0  0  0  0  0
  -19.6699  -27.3166   20.6676 H   0  0  0  0  0  0
  -17.4202  -26.6660   21.3992 H   0  0  0  0  0  0
  -18.0345  -26.0044   22.8976 H   0  0  0  0  0  0
  -19.7919  -30.7223   24.2316 H   0  0  0  0  0  0
  -17.5003  -31.6255   24.5119 H   0  0  0  0  0  0
  -15.5341  -30.2963   23.7629 H   0  0  0  0  0  0
  -15.8657  -28.0777   22.7075 H   0  0  0  0  0  0
  -24.6017  -30.6858   25.7763 H   0  0  0  0  0  0
  -24.8776  -32.2699   26.4852 H   0  0  0  0  0  0
  -25.8111  -30.8844   27.0227 H   0  0  0  0  0  0
  -26.2809  -29.6792   24.1155 H   0  0  0  0  0  0
  -27.4196  -29.7278   25.4442 H   0  0  0  0  0  0
  -27.8596  -30.4368   23.9078 H   0  0  0  0  0  0
  -27.2827  -33.3605   26.1999 H   0  0  0  0  0  0
  -28.3947  -32.6716   25.0283 H   0  0  0  0  0  0
  -28.0735  -31.8363   26.5401 H   0  0  0  0  0  0
  -28.2562  -38.0124   24.7525 H   0  0  0  0  0  0
  -28.1137  -36.2654   24.6259 H   0  0  0  0  0  0
  -27.2290  -37.1407   25.8852 H   0  0  0  0  0  0
  -20.9307  -29.8738   21.6921 H   0  0  0  0  0  0
  -26.0154  -38.2831   24.1424 H   0  0  0  0  0  0
  -29.9241  -18.2119   17.6259 H   0  0  0  0  0  0
  -29.2832  -19.4123   16.5099 H   0  0  0  0  0  0
  -28.1805  -18.5143   17.5494 H   0  0  0  0  0  0
  -28.0002  -20.7237   23.9704 H   0  0  0  0  0  0
  -27.3982  -19.9769   22.4923 H   0  0  0  0  0  0
  -27.5169  -21.7289   22.6038 H   0  0  0  0  0  0
  -28.7577  -17.6603   19.7992 H   0  0  0  0  0  0
  -28.7170  -18.2901   21.4029 H   0  0  0  0  0  0
  -30.0231  -21.5490   22.7638 H   0  0  0  0  0  0
  -29.9220  -19.8205   22.6521 H   0  0  0  0  0  0
  -29.9233  -23.6165   17.4191 H   0  0  0  0  0  0
  -30.6266  -24.1195   18.9189 H   0  0  0  0  0  0
  -31.3598  -18.5150   21.0958 H   0  0  0  0  0  0
  -31.1545  -17.3745   19.8076 H   0  0  0  0  0  0
  -27.6084  -24.2155   18.3592 H   0  0  0  0  0  0
  -28.7022  -25.5109   17.9558 H   0  0  0  0  0  0
  -30.2693  -16.9539   22.7303 H   0  0  0  0  0  0
  -31.8016  -16.4332   22.1054 H   0  0  0  0  0  0
  -29.2693  -24.9908   20.6731 H   0  0  0  0  0  0
  -27.5429  -24.9029   20.5955 H   0  0  0  0  0  0
  -29.2710  -15.0882   21.8244 H   0  0  0  0  0  0
  1 25  1  0  0  0
  1 30  2  0  0  0
  1 86  1  0  0  0
  2  3  1  0  0  0
  2 25  1  0  0  0
  2 87  1  0  0  0
  2 88  1  0  0  0
  3  4  1  0  0  0
  3 89  1  0  0  0
  3 90  1  0  0  0
  4  5  1  0  0  0
  4 91  1  0  0  0
  4 92  1  0  0  0
  5  6  1  0  0  0
  5 26  1  0  0  0
  5 93  1  0  0  0
  6 25  1  0  0  0
  6 94  1  0  0  0
  6 95  1  0  0  0
  7  8  2  0  0  0
  7 26  1  0  0  0
  7 29  1  0  0  0
  8  9  1  0  0  0
  8 22  1  0  0  0
  9 10  1  0  0  0
  9 27  2  0  0  0
 10 11  2  0  0  0
 10 15  1  0  0  0
 11 12  1  0  0  0
 11 96  1  0  0  0
 12 13  2  0  0  0
 12 97  1  0  0  0
 13 14  1  0  0  0
 13 31  1  0  0  0
 14 15  2  0  0  0
 14 98  1  0  0  0
 15 99  1  0  0  0
 16 17  2  0  0  0
 16 21  1  0  0  0
 16 31  1  0  0  0
 17 18  1  0  0  0
 17100  1  0  0  0
 18 19  2  0  0  0
 18101  1  0  0  0
 19 20  1  0  0  0
 19 24  1  0  0  0
 20 21  2  0  0  0
 20102  1  0  0  0
 21 23  1  0  0  0
 22 28  1  0  0  0
 22 32  2  0  0  0
 26 27  1  0  0  0
 28103  1  0  0  0
 28104  1  0  0  0
 29105  1  0  0  0
 29106  1  0  0  0
 33 34  1  0  0  0
 33 66  1  0  0  0
 33 70  2  0  0  0
 34 36  1  0  0  0
 34 59  1  0  0  0
 34107  1  0  0  0
 35 44  2  0  0  0
 35 45  1  0  0  0
 35 68  1  0  0  0
 36 56  1  0  0  0
 36108  1  0  0  0
 37 39  1  0  0  0
 37 47  1  0  0  0
 37 66  1  0  0  0
 37109  1  0  0  0
 38 43  2  0  0  0
 38 46  1  0  0  0
 38 47  1  0  0  0
 39 64  1  0  0  0
 39 67  2  0  0  0
 40 52  1  0  0  0
 40 53  2  0  0  0
 40 58  1  0  0  0
 41110  1  0  0  0
 41111  1  0  0  0
 41112  1  0  0  0
 41 48  1  0  0  0
 42 43  1  0  0  0
 42 66  1  0  0  0
 42113  1  0  0  0
 42114  1  0  0  0
 43 44  1  0  0  0
 44115  1  0  0  0
 45 46  2  0  0  0
 45116  1  0  0  0
 46117  1  0  0  0
 47118  1  0  0  0
 47119  1  0  0  0
 48 56  1  0  0  0
 48 65  1  0  0  0
 48120  1  0  0  0
 49 50  1  0  0  0
 49 53  1  0  0  0
 49 64  1  0  0  0
 49121  1  0  0  0
 50 51  1  0  0  0
 50122  1  0  0  0
 50123  1  0  0  0
 51 52  1  0  0  0
 51124  1  0  0  0
 51125  1  0  0  0
 52126  1  0  0  0
 52127  1  0  0  0
 53 54  1  0  0  0
 54 55  2  0  0  0
 54128  1  0  0  0
 55 57  1  0  0  0
 55129  1  0  0  0
 56 69  2  0  0  0
 57 58  2  0  0  0
 57130  1  0  0  0
 58131  1  0  0  0
 59 60  1  0  0  0
 59 61  1  0  0  0
 59 62  1  0  0  0
 60132  1  0  0  0
 60133  1  0  0  0
 60134  1  0  0  0
 61135  1  0  0  0
 61136  1  0  0  0
 61137  1  0  0  0
 62138  1  0  0  0
 62139  1  0  0  0
 62140  1  0  0  0
 63 65  1  0  0  0
 63141  1  0  0  0
 63142  1  0  0  0
 63143  1  0  0  0
 64144  1  0  0  0
 65145  1  0  0  0
 68 83  1  0  0  0
 71 72  2  0  0  0
 71 73  1  0  0  0
 71 77  1  0  0  0
 72 75  1  0  0  0
 72 84  1  0  0  0
 73 78  1  0  0  0
 73 85  2  0  0  0
 74 79  1  0  0  0
 74 84  2  0  0  0
 74 85  1  0  0  0
 75146  1  0  0  0
 75147  1  0  0  0
 75148  1  0  0  0
 76 78  1  0  0  0
 76149  1  0  0  0
 76150  1  0  0  0
 76151  1  0  0  0
 77 80  1  0  0  0
 77152  1  0  0  0
 77153  1  0  0  0
 78154  1  0  0  0
 78155  1  0  0  0
 79 81  1  0  0  0
 79156  1  0  0  0
 79157  1  0  0  0
 80 82  1  0  0  0
 80158  1  0  0  0
 80159  1  0  0  0
 81 83  1  0  0  0
 81160  1  0  0  0
 81161  1  0  0  0
 82 86  1  0  0  0
 82162  1  0  0  0
 82163  1  0  0  0
 83164  1  0  0  0
 83165  1  0  0  0
 86166  1  0  0  0
M  ISO  4   1 100  68 101  83 101  86 100
M  END
> <chiral flag>
0

> <version>
0

> <s_m_source_file>
/data/baiqing/PycharmProjects/Reinvent-master-3.2/result/LINK_invent/BTK/process_docking_weight1_custom_sum_contain_oxygen_bond_distance_aromatic_linkinvent_7_9_3/rearranged_h_0041.sdf

> <i_m_source_file_index>
5

> <r_mmod_Potential_Energy-OPLS-2005>
-535.945678710938

> <r_mmod_Stretch_Energy-OPLS-2005>
34.9350318908691

> <r_mmod_Bend_Energy-OPLS-2005>
103.671195983887

> <r_mmod_Torsional_Energy-OPLS-2005>
198.338302612305

> <r_mmod_Improper_Torsional_Energy-OPLS-2005>
2.11507320404053

> <r_mmod_Van_der_Waal_Energy-OPLS-2005>
155.03938293457

> <r_mmod_Electrostatic_Energy-OPLS-2005>
-809.150390625

> <r_mmod_Solvation_Energy-OPLS-2005>
-230.026473999023

> <b_mmod_Minimization_Converged-OPLS-2005>
0

> <r_mmod_RMS_Derivative-OPLS-2005>
2.51071000099182

$$$$
5
                    3D
 Structure written by MMmdl.
159167  0  0  1  0            999 V2000
  -29.0946  -16.1067   20.6761 C   0  0  0  0  0  0
  -30.1587  -13.6048   19.7398 C   0  0  0  0  0  0
  -29.5173  -12.8713   18.4929 C   0  0  0  0  0  0
  -28.1387  -12.2937   18.8363 C   0  0  0  0  0  0
  -27.4634  -13.2592   19.8207 C   0  0  2  0  0  0
  -28.2875  -13.6006   21.0575 C   0  0  0  0  0  0
  -25.1655  -13.8054   20.5579 C   0  0  0  0  0  0
  -24.1186  -13.0265   20.9330 C   0  0  0  0  0  0
  -24.5872  -11.6765   20.8791 C   0  0  0  0  0  0
  -23.8741  -10.4168   21.0486 C   0  0  0  0  0  0
  -24.3438   -9.4136   21.9224 C   0  0  0  0  0  0
  -23.6196   -8.2139   22.0759 C   0  0  0  0  0  0
  -22.4185   -8.0161   21.3539 C   0  0  0  0  0  0
  -21.9744   -9.0095   20.4647 C   0  0  0  0  0  0
  -22.6981  -10.2002   20.3083 C   0  0  0  0  0  0
  -21.6814   -6.0666   22.5289 C   0  0  0  0  0  0
  -21.3984   -6.5600   23.8212 C   0  0  0  0  0  0
  -21.3650   -5.6769   24.9184 C   0  0  0  0  0  0
  -21.6044   -4.3031   24.7245 C   0  0  0  0  0  0
  -21.8826   -3.8106   23.4375 C   0  0  0  0  0  0
  -21.9183   -4.6905   22.3422 C   0  0  0  0  0  0
  -22.7327  -13.5112   21.2064 C   0  0  0  0  0  0
  -22.1659   -4.2098   21.0999 F   0  0  0  0  0  0
  -21.5634   -3.4528   25.7765 F   0  0  0  0  0  0
  -29.1836  -14.5934   20.5261 N   0  0  0  0  0  0
  -26.1688  -12.9121   20.2641 N   0  0  0  0  0  0
  -25.8646  -11.6305   20.5414 N   0  0  0  0  0  0
  -22.0033  -12.8119   22.0649 N   0  0  0  0  0  0
  -25.3469  -15.1817   20.4075 N   0  0  0  0  0  0
  -30.3321  -16.3044   20.3946 O   0  0  0  0  0  0
  -21.6583   -6.8760   21.4232 O   0  0  0  0  0  0
  -22.3111  -14.5458   20.6903 O   0  0  0  0  0  0
  -24.6663  -31.9281   23.2022 C   0  0  0  0  0  0
  -25.9483  -32.5057   23.8531 C   0  0  1  0  0  0
  -26.9405  -27.2844   20.2745 C   0  0  0  0  0  0
  -25.6292  -33.8793   24.2525 N   0  0  0  0  0  0
  -23.4806  -30.6178   21.5245 C   0  0  2  0  0  0
  -24.8487  -29.0817   20.0300 C   0  0  0  0  0  0
  -22.9882  -29.5480   22.4830 C   0  0  0  0  0  0
  -18.4907  -27.2266   23.2035 C   0  0  0  0  0  0
  -24.1508  -36.7355   23.2612 C   0  0  0  0  0  0
  -26.0026  -30.8505   21.3706 C   0  0  0  0  0  0
  -26.0108  -29.4827   20.7068 C   0  0  0  0  0  0
  -27.0913  -28.5772   20.8344 C   0  0  0  0  0  0
  -25.9141  -27.0233   19.3611 C   0  0  0  0  0  0
  -24.8130  -27.8764   19.3162 C   0  0  0  0  0  0
  -23.6558  -30.0004   20.1111 C   0  0  0  0  0  0
  -25.4127  -36.3196   24.0336 C   0  0  1  0  0  0
  -21.3285  -27.9803   22.8296 C   0  0  2  0  0  0
  -21.8881  -26.8716   21.1186 C   0  0  0  0  0  0
  -20.2049  -25.3396   20.7162 C   0  0  0  0  0  0
  -18.7601  -25.6331   22.2455 C   0  0  0  0  0  0
  -19.6567  -28.2059   23.5011 C   0  0  0  0  0  0
  -19.2816  -29.5699   23.9075 C   0  0  0  0  0  0
  -17.9624  -30.1059   23.9684 C   0  0  0  0  0  0
  -25.9123  -34.9595   23.5153 C   0  0  0  0  0  0
  -16.9024  -29.2746   23.5826 C   0  0  0  0  0  0
  -17.1771  -27.9113   23.2086 C   0  0  0  0  0  0
  -26.4588  -31.6629   25.0831 C   0  0  0  0  0  0
  -25.3710  -31.3734   26.1433 C   0  0  0  0  0  0
  -27.0344  -30.3046   24.6182 C   0  0  0  0  0  0
  -27.6148  -32.4214   25.7745 C   0  0  0  0  0  0
  -27.5598  -37.1873   24.8464 C   0  0  0  0  0  0
  -21.7083  -29.2996   22.4443 N   0  0  0  0  0  0
  -26.4300  -37.3884   23.9425 N   0  0  0  0  0  0
  -24.7379  -31.1763   22.0694 N   0  0  0  0  0  0
  -23.7560  -28.9224   23.2166 O   0  0  0  0  0  0
  -27.4547  -26.1658   20.8730 O   0  0  0  0  0  0
  -26.5522  -34.9015   22.4616 O   0  0  0  0  0  0
  -23.5797  -32.1913   23.7418 O   0  0  0  0  0  0
  -22.7590  -24.1385   22.3573 C   0  0  0  0  0  0
  -21.3314  -25.3593   22.6739 C   0  0  0  0  0  0
  -23.7237  -25.0393   22.8514 C   0  0  0  0  0  0
  -19.7658  -27.4309   21.2008 C   0  0  0  0  0  0
  -23.6443  -26.1526   25.1407 C   0  0  0  0  0  0
  -23.8689  -22.3774   21.5822 C   0  0  0  0  0  0
  -25.2668  -25.5197   22.6134 C   0  0  0  0  0  0
  -25.2897  -20.5851   21.7893 C   0  0  0  0  0  0
  -26.7960  -19.0457   20.9873 C   0  0  0  0  0  0
  -26.3406  -25.2062   21.3928 C   0  0  0  0  0  0
  -21.6506  -25.5044   23.9558 N   0  0  0  0  0  0
  -23.0334  -25.5383   23.9734 N   0  0  0  0  0  0
  -27.7931  -17.2398   20.9942 N   0  0  0  0  0  0
  -31.0224  -14.1660   19.3814 H   0  0  0  0  0  0
  -30.5925  -12.8714   20.4224 H   0  0  0  0  0  0
  -30.1817  -12.0977   18.1052 H   0  0  0  0  0  0
  -29.3978  -13.6022   17.6918 H   0  0  0  0  0  0
  -28.2635  -11.3163   19.3048 H   0  0  0  0  0  0
  -27.5366  -12.1462   17.9391 H   0  0  0  0  0  0
  -27.3088  -14.1553   19.2143 H   0  0  0  0  0  0
  -28.7504  -12.7291   21.5242 H   0  0  0  0  0  0
  -27.6858  -14.0777   21.8338 H   0  0  0  0  0  0
  -25.2580   -9.5684   22.4784 H   0  0  0  0  0  0
  -23.9944   -7.4530   22.7455 H   0  0  0  0  0  0
  -21.0685   -8.8556   19.8954 H   0  0  0  0  0  0
  -22.3407  -10.9541   19.6208 H   0  0  0  0  0  0
  -21.1965   -7.6109   23.9695 H   0  0  0  0  0  0
  -21.1471   -6.0510   25.9084 H   0  0  0  0  0  0
  -22.0619   -2.7570   23.2890 H   0  0  0  0  0  0
  -22.3659  -11.9764   22.4987 H   0  0  0  0  0  0
  -21.0685  -13.1179   22.2945 H   0  0  0  0  0  0
  -24.5117  -15.7567   20.4383 H   0  0  0  0  0  0
  -26.0020  -15.5088   19.7091 H   0  0  0  0  0  0
  -26.7656  -32.5704   23.1388 H   0  0  0  0  0  0
  -25.0587  -33.9931   25.0774 H   0  0  0  0  0  0
  -22.7305  -31.4089   21.4556 H   0  0  0  0  0  0
  -23.3790  -35.9668   23.3272 H   0  0  0  0  0  0
  -24.3617  -36.8965   22.2028 H   0  0  0  0  0  0
  -23.7231  -37.6555   23.6610 H   0  0  0  0  0  0
  -26.1783  -31.6089   20.6063 H   0  0  0  0  0  0
  -26.8757  -30.8636   22.0119 H   0  0  0  0  0  0
  -27.9033  -28.7894   21.5160 H   0  0  0  0  0  0
  -25.8375  -26.0706   18.8569 H   0  0  0  0  0  0
  -23.9402  -27.5973   18.7428 H   0  0  0  0  0  0
  -23.8147  -30.8038   19.3907 H   0  0  0  0  0  0
  -22.7464  -29.5015   19.7807 H   0  0  0  0  0  0
  -25.1285  -36.2067   25.0824 H   0  0  0  0  0  0
  -21.8697  -27.7739   23.7448 H   0  0  0  0  0  0
  -22.9072  -26.4994   21.1169 H   0  0  0  0  0  0
  -22.0050  -27.5256   20.2534 H   0  0  0  0  0  0
  -20.5358  -24.2977   20.6480 H   0  0  0  0  0  0
  -19.7657  -25.4705   19.7217 H   0  0  0  0  0  0
  -17.7929  -25.3773   21.8100 H   0  0  0  0  0  0
  -18.8791  -24.8576   23.0036 H   0  0  0  0  0  0
  -20.0784  -30.2704   24.1144 H   0  0  0  0  0  0
  -17.7902  -31.1355   24.2509 H   0  0  0  0  0  0
  -15.8906  -29.6554   23.5577 H   0  0  0  0  0  0
  -16.3308  -27.3292   22.8710 H   0  0  0  0  0  0
  -24.5870  -30.7184   25.7610 H   0  0  0  0  0  0
  -24.8946  -32.2898   26.4923 H   0  0  0  0  0  0
  -25.7924  -30.8773   27.0184 H   0  0  0  0  0  0
  -26.2921  -29.6948   24.1024 H   0  0  0  0  0  0
  -27.3860  -29.7146   25.4655 H   0  0  0  0  0  0
  -27.8894  -30.4320   23.9539 H   0  0  0  0  0  0
  -27.2794  -33.3496   26.2384 H   0  0  0  0  0  0
  -28.4042  -32.6774   25.0664 H   0  0  0  0  0  0
  -28.0703  -31.8230   26.5646 H   0  0  0  0  0  0
  -28.2596  -38.0191   24.7556 H   0  0  0  0  0  0
  -28.1119  -36.2729   24.6235 H   0  0  0  0  0  0
  -27.2323  -37.1459   25.8867 H   0  0  0  0  0  0
  -21.0877  -29.8535   21.8723 H   0  0  0  0  0  0
  -26.0187  -38.2955   24.1459 H   0  0  0  0  0  0
  -18.7151  -27.3417   20.8723 H   0  0  0  0  0  0
  -19.9730  -27.5378   20.1197 H   0  0  0  0  0  0
  -19.8353  -28.5233   21.2397 H   0  0  0  0  0  0
  -24.2968  -25.4307   25.6316 H   0  0  0  0  0  0
  -22.8874  -26.4787   25.8553 H   0  0  0  0  0  0
  -24.2398  -27.0161   24.8482 H   0  0  0  0  0  0
  -24.4200  -22.8559   20.7734 H   0  0  0  0  0  0
  -23.0774  -21.8627   21.0375 H   0  0  0  0  0  0
  -25.8101  -25.3064   23.5337 H   0  0  0  0  0  0
  -25.2045  -26.6079   22.6085 H   0  0  0  0  0  0
  -24.6139  -19.9067   22.3107 H   0  0  0  0  0  0
  -25.9088  -20.9810   22.5944 H   0  0  0  0  0  0
  -27.6509  -19.6987   20.8092 H   0  0  0  0  0  0
  -26.3623  -18.9235   19.9947 H   0  0  0  0  0  0
  -25.7574  -24.8268   20.5565 H   0  0  0  0  0  0
  -26.8773  -24.3095   21.7027 H   0  0  0  0  0  0
  -27.0564  -16.5889   21.2477 H   0  0  0  0  0  0
  1 25  1  0  0  0
  1 30  2  0  0  0
  1 83  1  0  0  0
  2  3  1  0  0  0
  2 25  1  0  0  0
  2 84  1  0  0  0
  2 85  1  0  0  0
  3  4  1  0  0  0
  3 86  1  0  0  0
  3 87  1  0  0  0
  4  5  1  0  0  0
  4 88  1  0  0  0
  4 89  1  0  0  0
  5  6  1  0  0  0
  5 26  1  0  0  0
  5 90  1  0  0  0
  6 25  1  0  0  0
  6 91  1  0  0  0
  6 92  1  0  0  0
  7  8  2  0  0  0
  7 26  1  0  0  0
  7 29  1  0  0  0
  8  9  1  0  0  0
  8 22  1  0  0  0
  9 10  1  0  0  0
  9 27  2  0  0  0
 10 11  2  0  0  0
 10 15  1  0  0  0
 11 12  1  0  0  0
 11 93  1  0  0  0
 12 13  2  0  0  0
 12 94  1  0  0  0
 13 14  1  0  0  0
 13 31  1  0  0  0
 14 15  2  0  0  0
 14 95  1  0  0  0
 15 96  1  0  0  0
 16 17  2  0  0  0
 16 21  1  0  0  0
 16 31  1  0  0  0
 17 18  1  0  0  0
 17 97  1  0  0  0
 18 19  2  0  0  0
 18 98  1  0  0  0
 19 20  1  0  0  0
 19 24  1  0  0  0
 20 21  2  0  0  0
 20 99  1  0  0  0
 21 23  1  0  0  0
 22 28  1  0  0  0
 22 32  2  0  0  0
 26 27  1  0  0  0
 28100  1  0  0  0
 28101  1  0  0  0
 29102  1  0  0  0
 29103  1  0  0  0
 33 34  1  0  0  0
 33 66  1  0  0  0
 33 70  2  0  0  0
 34 36  1  0  0  0
 34 59  1  0  0  0
 34104  1  0  0  0
 35 44  2  0  0  0
 35 45  1  0  0  0
 35 68  1  0  0  0
 36 56  1  0  0  0
 36105  1  0  0  0
 37 39  1  0  0  0
 37 47  1  0  0  0
 37 66  1  0  0  0
 37106  1  0  0  0
 38 43  2  0  0  0
 38 46  1  0  0  0
 38 47  1  0  0  0
 39 64  1  0  0  0
 39 67  2  0  0  0
 40 52  1  0  0  0
 40 53  2  0  0  0
 40 58  1  0  0  0
 41107  1  0  0  0
 41108  1  0  0  0
 41109  1  0  0  0
 41 48  1  0  0  0
 42 43  1  0  0  0
 42 66  1  0  0  0
 42110  1  0  0  0
 42111  1  0  0  0
 43 44  1  0  0  0
 44112  1  0  0  0
 45 46  2  0  0  0
 45113  1  0  0  0
 46114  1  0  0  0
 47115  1  0  0  0
 47116  1  0  0  0
 48 56  1  0  0  0
 48 65  1  0  0  0
 48117  1  0  0  0
 49 50  1  0  0  0
 49 53  1  0  0  0
 49 64  1  0  0  0
 49118  1  0  0  0
 50 51  1  0  0  0
 50119  1  0  0  0
 50120  1  0  0  0
 51 52  1  0  0  0
 51121  1  0  0  0
 51122  1  0  0  0
 52123  1  0  0  0
 52124  1  0  0  0
 53 54  1  0  0  0
 54 55  2  0  0  0
 54125  1  0  0  0
 55 57  1  0  0  0
 55126  1  0  0  0
 56 69  2  0  0  0
 57 58  2  0  0  0
 57127  1  0  0  0
 58128  1  0  0  0
 59 60  1  0  0  0
 59 61  1  0  0  0
 59 62  1  0  0  0
 60129  1  0  0  0
 60130  1  0  0  0
 60131  1  0  0  0
 61132  1  0  0  0
 61133  1  0  0  0
 61134  1  0  0  0
 62135  1  0  0  0
 62136  1  0  0  0
 62137  1  0  0  0
 63 65  1  0  0  0
 63138  1  0  0  0
 63139  1  0  0  0
 63140  1  0  0  0
 64141  1  0  0  0
 65142  1  0  0  0
 68 80  1  0  0  0
 71 72  1  0  0  0
 71 73  2  0  0  0
 71 76  1  0  0  0
 72 74  1  0  0  0
 72 81  2  0  0  0
 73 77  1  0  0  0
 73 82  1  0  0  0
 74143  1  0  0  0
 74144  1  0  0  0
 74145  1  0  0  0
 75 82  1  0  0  0
 75146  1  0  0  0
 75147  1  0  0  0
 75148  1  0  0  0
 76 78  1  0  0  0
 76149  1  0  0  0
 76150  1  0  0  0
 77 80  1  0  0  0
 77151  1  0  0  0
 77152  1  0  0  0
 78 79  1  0  0  0
 78153  1  0  0  0
 78154  1  0  0  0
 79 83  1  0  0  0
 79155  1  0  0  0
 79156  1  0  0  0
 80157  1  0  0  0
 80158  1  0  0  0
 81 82  1  0  0  0
 83159  1  0  0  0
M  ISO  4   1 100  68 101  80 101  83 100
M  END
> <chiral flag>
0

> <version>
0

> <s_m_source_file>
/data/baiqing/PycharmProjects/Reinvent-master-3.2/result/LINK_invent/BTK/process_docking_weight1_custom_sum_contain_oxygen_bond_distance_aromatic_linkinvent_7_9_3/rearranged_h_0041.sdf

> <i_m_source_file_index>
6

> <r_mmod_Potential_Energy-OPLS-2005>
14469.5966796875

> <r_mmod_Stretch_Energy-OPLS-2005>
8087.326171875

> <r_mmod_Bend_Energy-OPLS-2005>
1354.47912597656

> <r_mmod_Torsional_Energy-OPLS-2005>
536.635131835938

> <r_mmod_Improper_Torsional_Energy-OPLS-2005>
30.8822078704834

> <r_mmod_Van_der_Waal_Energy-OPLS-2005>
1899.32983398438

> <r_mmod_Electrostatic_Energy-OPLS-2005>
-418.664672851562

> <r_mmod_Solvation_Energy-OPLS-2005>
-225.709716796875

> <b_mmod_Minimization_Converged-OPLS-2005>
0

> <r_mmod_RMS_Derivative-OPLS-2005>
1.15289235115051

$$$$
6
                    3D
 Structure written by MMmdl.
159167  0  0  1  0            999 V2000
  -30.7280  -14.3755   20.5555 C   0  0  0  0  0  0
  -30.4182  -12.2400   19.4081 C   0  0  0  0  0  0
  -29.4926  -12.4901   18.1999 C   0  0  0  0  0  0
  -28.0107  -12.3741   18.6109 C   0  0  0  0  0  0
  -27.6708  -13.1950   19.8838 C   0  0  2  0  0  0
  -28.7117  -12.9356   20.9993 C   0  0  0  0  0  0
  -25.2634  -13.8144   20.5660 C   0  0  0  0  0  0
  -24.1874  -13.0440   20.9162 C   0  0  0  0  0  0
  -24.6407  -11.6898   20.8758 C   0  0  0  0  0  0
  -23.9073  -10.4285   21.0415 C   0  0  0  0  0  0
  -24.3618   -9.4198   21.9188 C   0  0  0  0  0  0
  -23.6285   -8.2242   22.0767 C   0  0  0  0  0  0
  -22.4269   -8.0286   21.3547 C   0  0  0  0  0  0
  -21.9911   -9.0267   20.4650 C   0  0  0  0  0  0
  -22.7253  -10.2137   20.3050 C   0  0  0  0  0  0
  -21.6850   -6.0735   22.5272 C   0  0  0  0  0  0
  -21.4016   -6.5633   23.8213 C   0  0  0  0  0  0
  -21.3659   -5.6787   24.9171 C   0  0  0  0  0  0
  -21.6042   -4.3050   24.7226 C   0  0  0  0  0  0
  -21.8822   -3.8143   23.4344 C   0  0  0  0  0  0
  -21.9198   -4.6962   22.3404 C   0  0  0  0  0  0
  -22.7886  -13.5247   21.1818 C   0  0  0  0  0  0
  -22.1661   -4.2147   21.0982 F   0  0  0  0  0  0
  -21.5632   -3.4536   25.7740 F   0  0  0  0  0  0
  -30.0507  -13.2074   20.4482 N   0  0  0  0  0  0
  -26.3079  -12.9285   20.3401 N   0  0  0  0  0  0
  -25.9329  -11.6454   20.5784 N   0  0  0  0  0  0
  -22.0537  -12.8239   22.0372 N   0  0  0  0  0  0
  -25.4365  -15.1861   20.4006 N   0  0  0  0  0  0
  -31.8585  -14.5637   20.0975 O   0  0  0  0  0  0
  -21.6632   -6.8879   21.4236 O   0  0  0  0  0  0
  -22.3577  -14.5572   20.6690 O   0  0  0  0  0  0
  -24.6078  -31.8728   23.2142 C   0  0  0  0  0  0
  -25.9000  -32.4848   23.8425 C   0  0  1  0  0  0
  -27.2433  -27.4952   20.0851 C   0  0  0  0  0  0
  -25.5882  -33.8642   24.2367 N   0  0  0  0  0  0
  -23.3944  -30.4961   21.5515 C   0  0  2  0  0  0
  -24.8439  -28.9656   20.1175 C   0  0  0  0  0  0
  -22.7372  -29.4700   22.5008 C   0  0  0  0  0  0
  -18.0289  -28.1353   22.8521 C   0  0  0  0  0  0
  -24.1488  -36.7329   23.2637 C   0  0  0  0  0  0
  -25.9152  -30.8550   21.3601 C   0  0  0  0  0  0
  -25.9973  -29.4910   20.7143 C   0  0  0  0  0  0
  -27.2001  -28.7591   20.7036 C   0  0  0  0  0  0
  -26.0819  -26.9699   19.4825 C   0  0  0  0  0  0
  -24.8774  -27.6989   19.5042 C   0  0  0  0  0  0
  -23.6019  -29.8245   20.1670 C   0  0  0  0  0  0
  -25.4103  -36.3132   24.0342 C   0  0  1  0  0  0
  -20.5863  -28.3668   23.1324 C   0  0  2  0  0  0
  -20.6776  -26.9425   22.5387 C   0  0  0  0  0  0
  -19.5734  -26.6371   21.5216 C   0  0  0  0  0  0
  -18.1947  -26.7883   22.1696 C   0  0  0  0  0  0
  -19.1530  -28.8827   23.2916 C   0  0  0  0  0  0
  -18.9451  -30.1435   23.8914 C   0  0  0  0  0  0
  -17.6456  -30.6577   24.0549 C   0  0  0  0  0  0
  -25.9014  -34.9490   23.5147 C   0  0  0  0  0  0
  -16.5352  -29.9076   23.6306 C   0  0  0  0  0  0
  -16.7277  -28.6480   23.0358 C   0  0  0  0  0  0
  -26.4454  -31.6608   25.0726 C   0  0  0  0  0  0
  -25.3742  -31.3690   26.1487 C   0  0  0  0  0  0
  -27.0283  -30.3064   24.6058 C   0  0  0  0  0  0
  -27.6046  -32.4311   25.7486 C   0  0  0  0  0  0
  -27.5583  -37.1817   24.8464 C   0  0  0  0  0  0
  -21.4105  -29.3072   22.3759 N   0  0  0  0  0  0
  -26.4303  -37.3804   23.9397 N   0  0  0  0  0  0
  -24.6568  -31.0876   22.1017 N   0  0  0  0  0  0
  -23.4164  -28.8236   23.3028 O   0  0  0  0  0  0
  -28.4168  -26.7921   20.0612 O   0  0  0  0  0  0
  -26.5573  -34.8929   22.4710 O   0  0  0  0  0  0
  -23.5280  -32.1459   23.7565 O   0  0  0  0  0  0
  -29.2139  -21.2236   21.0536 C   0  0  0  0  0  0
  -28.1682  -22.1304   21.3602 C   0  0  0  0  0  0
  -28.5872  -20.1764   20.4470 C   0  0  0  0  0  0
  -26.1408  -19.7140   19.8554 C   0  0  0  0  0  0
  -28.3068  -23.5117   21.9210 C   0  0  0  0  0  0
  -29.1905  -18.9430   19.8718 C   0  0  0  0  0  0
  -28.2260  -24.5328   20.7830 C   0  0  0  0  0  0
  -29.1128  -17.7250   20.8012 C   0  0  0  0  0  0
  -30.2580  -16.7547   20.4969 C   0  0  0  0  0  0
  -28.5974  -25.9557   21.1961 C   0  0  0  0  0  0
  -26.9809  -21.6681   20.9971 N   0  0  0  0  0  0
  -27.2366  -20.4704   20.4264 N   0  0  0  0  0  0
  -29.9827  -15.4045   20.9622 N   0  0  0  0  0  0
  -31.4640  -12.3225   19.1067 H   0  0  0  0  0  0
  -30.2978  -11.2217   19.7822 H   0  0  0  0  0  0
  -29.7140  -11.7788   17.4045 H   0  0  0  0  0  0
  -29.6815  -13.4804   17.7835 H   0  0  0  0  0  0
  -27.7961  -11.3186   18.7812 H   0  0  0  0  0  0
  -27.3682  -12.6833   17.7864 H   0  0  0  0  0  0
  -27.7284  -14.2475   19.6085 H   0  0  0  0  0  0
  -28.6620  -11.8965   21.3274 H   0  0  0  0  0  0
  -28.4971  -13.5291   21.8895 H   0  0  0  0  0  0
  -25.2767   -9.5669   22.4751 H   0  0  0  0  0  0
  -24.0000   -7.4630   22.7474 H   0  0  0  0  0  0
  -21.0849   -8.8786   19.8947 H   0  0  0  0  0  0
  -22.3727  -10.9673   19.6151 H   0  0  0  0  0  0
  -21.2002   -7.6141   23.9712 H   0  0  0  0  0  0
  -21.1475   -6.0519   25.9075 H   0  0  0  0  0  0
  -22.0606   -2.7604   23.2852 H   0  0  0  0  0  0
  -22.4145  -11.9892   22.4755 H   0  0  0  0  0  0
  -21.1156  -13.1266   22.2559 H   0  0  0  0  0  0
  -24.6688  -15.8414   20.4966 H   0  0  0  0  0  0
  -26.2833  -15.6179   20.0546 H   0  0  0  0  0  0
  -26.7084  -32.5598   23.1212 H   0  0  0  0  0  0
  -25.0067  -33.9820   25.0534 H   0  0  0  0  0  0
  -22.6808  -31.3112   21.4132 H   0  0  0  0  0  0
  -23.3741  -35.9673   23.3316 H   0  0  0  0  0  0
  -24.3590  -36.8922   22.2050 H   0  0  0  0  0  0
  -23.7251  -37.6544   23.6636 H   0  0  0  0  0  0
  -26.0168  -31.6202   20.5898 H   0  0  0  0  0  0
  -26.8055  -30.9130   21.9741 H   0  0  0  0  0  0
  -28.0933  -29.1649   21.1583 H   0  0  0  0  0  0
  -26.1122  -26.0071   18.9929 H   0  0  0  0  0  0
  -23.9903  -27.2894   19.0418 H   0  0  0  0  0  0
  -23.7047  -30.5966   19.4033 H   0  0  0  0  0  0
  -22.7277  -29.2392   19.8779 H   0  0  0  0  0  0
  -25.1282  -36.2009   25.0836 H   0  0  0  0  0  0
  -20.9961  -28.3221   24.1440 H   0  0  0  0  0  0
  -20.5719  -26.2287   23.3577 H   0  0  0  0  0  0
  -21.6643  -26.7515   22.1147 H   0  0  0  0  0  0
  -19.6879  -25.6291   21.1215 H   0  0  0  0  0  0
  -19.6623  -27.3204   20.6749 H   0  0  0  0  0  0
  -17.4174  -26.6580   21.4157 H   0  0  0  0  0  0
  -18.0439  -26.0042   22.9137 H   0  0  0  0  0  0
  -19.7919  -30.7248   24.2301 H   0  0  0  0  0  0
  -17.5003  -31.6249   24.5148 H   0  0  0  0  0  0
  -15.5351  -30.2977   23.7627 H   0  0  0  0  0  0
  -15.8667  -28.0812   22.7080 H   0  0  0  0  0  0
  -24.5907  -30.7046   25.7824 H   0  0  0  0  0  0
  -24.8947  -32.2840   26.4975 H   0  0  0  0  0  0
  -25.8110  -30.8834   27.0224 H   0  0  0  0  0  0
  -26.2811  -29.6827   24.1134 H   0  0  0  0  0  0
  -27.4109  -29.7288   25.4484 H   0  0  0  0  0  0
  -27.8622  -30.4411   23.9160 H   0  0  0  0  0  0
  -27.2675  -33.3586   26.2126 H   0  0  0  0  0  0
  -28.3826  -32.6905   25.0294 H   0  0  0  0  0  0
  -28.0752  -31.8398   26.5355 H   0  0  0  0  0  0
  -28.2610  -38.0104   24.7500 H   0  0  0  0  0  0
  -28.1064  -36.2632   24.6304 H   0  0  0  0  0  0
  -27.2294  -37.1496   25.8867 H   0  0  0  0  0  0
  -20.9232  -29.8816   21.7020 H   0  0  0  0  0  0
  -26.0193  -38.2884   24.1392 H   0  0  0  0  0  0
  -30.2762  -21.3435   21.2157 H   0  0  0  0  0  0
  -25.9798  -20.0337   18.8260 H   0  0  0  0  0  0
  -25.2267  -19.8774   20.4252 H   0  0  0  0  0  0
  -26.3674  -18.6491   19.8606 H   0  0  0  0  0  0
  -29.2615  -23.6049   22.4388 H   0  0  0  0  0  0
  -27.5327  -23.7086   22.6629 H   0  0  0  0  0  0
  -30.2349  -19.1589   19.6437 H   0  0  0  0  0  0
  -28.7339  -18.7046   18.9098 H   0  0  0  0  0  0
  -27.2178  -24.5066   20.3688 H   0  0  0  0  0  0
  -28.8991  -24.2316   19.9789 H   0  0  0  0  0  0
  -29.1910  -18.0379   21.8431 H   0  0  0  0  0  0
  -28.1355  -17.2554   20.6916 H   0  0  0  0  0  0
  -30.4078  -16.7126   19.4146 H   0  0  0  0  0  0
  -31.1949  -17.1134   20.9272 H   0  0  0  0  0  0
  -29.6427  -25.9967   21.5056 H   0  0  0  0  0  0
  -28.0018  -26.2807   22.0520 H   0  0  0  0  0  0
  -29.0631  -15.1988   21.3209 H   0  0  0  0  0  0
  1 25  1  0  0  0
  1 30  2  0  0  0
  1 83  1  0  0  0
  2  3  1  0  0  0
  2 25  1  0  0  0
  2 84  1  0  0  0
  2 85  1  0  0  0
  3  4  1  0  0  0
  3 86  1  0  0  0
  3 87  1  0  0  0
  4  5  1  0  0  0
  4 88  1  0  0  0
  4 89  1  0  0  0
  5  6  1  0  0  0
  5 26  1  0  0  0
  5 90  1  0  0  0
  6 25  1  0  0  0
  6 91  1  0  0  0
  6 92  1  0  0  0
  7  8  2  0  0  0
  7 26  1  0  0  0
  7 29  1  0  0  0
  8  9  1  0  0  0
  8 22  1  0  0  0
  9 10  1  0  0  0
  9 27  2  0  0  0
 10 11  2  0  0  0
 10 15  1  0  0  0
 11 12  1  0  0  0
 11 93  1  0  0  0
 12 13  2  0  0  0
 12 94  1  0  0  0
 13 14  1  0  0  0
 13 31  1  0  0  0
 14 15  2  0  0  0
 14 95  1  0  0  0
 15 96  1  0  0  0
 16 17  2  0  0  0
 16 21  1  0  0  0
 16 31  1  0  0  0
 17 18  1  0  0  0
 17 97  1  0  0  0
 18 19  2  0  0  0
 18 98  1  0  0  0
 19 20  1  0  0  0
 19 24  1  0  0  0
 20 21  2  0  0  0
 20 99  1  0  0  0
 21 23  1  0  0  0
 22 28  1  0  0  0
 22 32  2  0  0  0
 26 27  1  0  0  0
 28100  1  0  0  0
 28101  1  0  0  0
 29102  1  0  0  0
 29103  1  0  0  0
 33 34  1  0  0  0
 33 66  1  0  0  0
 33 70  2  0  0  0
 34 36  1  0  0  0
 34 59  1  0  0  0
 34104  1  0  0  0
 35 44  2  0  0  0
 35 45  1  0  0  0
 35 68  1  0  0  0
 36 56  1  0  0  0
 36105  1  0  0  0
 37 39  1  0  0  0
 37 47  1  0  0  0
 37 66  1  0  0  0
 37106  1  0  0  0
 38 43  2  0  0  0
 38 46  1  0  0  0
 38 47  1  0  0  0
 39 64  1  0  0  0
 39 67  2  0  0  0
 40 52  1  0  0  0
 40 53  2  0  0  0
 40 58  1  0  0  0
 41107  1  0  0  0
 41108  1  0  0  0
 41109  1  0  0  0
 41 48  1  0  0  0
 42 43  1  0  0  0
 42 66  1  0  0  0
 42110  1  0  0  0
 42111  1  0  0  0
 43 44  1  0  0  0
 44112  1  0  0  0
 45 46  2  0  0  0
 45113  1  0  0  0
 46114  1  0  0  0
 47115  1  0  0  0
 47116  1  0  0  0
 48 56  1  0  0  0
 48 65  1  0  0  0
 48117  1  0  0  0
 49 50  1  0  0  0
 49 53  1  0  0  0
 49 64  1  0  0  0
 49118  1  0  0  0
 50 51  1  0  0  0
 50119  1  0  0  0
 50120  1  0  0  0
 51 52  1  0  0  0
 51121  1  0  0  0
 51122  1  0  0  0
 52123  1  0  0  0
 52124  1  0  0  0
 53 54  1  0  0  0
 54 55  2  0  0  0
 54125  1  0  0  0
 55 57  1  0  0  0
 55126  1  0  0  0
 56 69  2  0  0  0
 57 58  2  0  0  0
 57127  1  0  0  0
 58128  1  0  0  0
 59 60  1  0  0  0
 59 61  1  0  0  0
 59 62  1  0  0  0
 60129  1  0  0  0
 60130  1  0  0  0
 60131  1  0  0  0
 61132  1  0  0  0
 61133  1  0  0  0
 61134  1  0  0  0
 62135  1  0  0  0
 62136  1  0  0  0
 62137  1  0  0  0
 63 65  1  0  0  0
 63138  1  0  0  0
 63139  1  0  0  0
 63140  1  0  0  0
 64141  1  0  0  0
 65142  1  0  0  0
 68 80  1  0  0  0
 71 72  1  0  0  0
 71 73  2  0  0  0
 71143  1  0  0  0
 72 75  1  0  0  0
 72 81  2  0  0  0
 73 76  1  0  0  0
 73 82  1  0  0  0
 74 82  1  0  0  0
 74144  1  0  0  0
 74145  1  0  0  0
 74146  1  0  0  0
 75 77  1  0  0  0
 75147  1  0  0  0
 75148  1  0  0  0
 76 78  1  0  0  0
 76149  1  0  0  0
 76150  1  0  0  0
 77 80  1  0  0  0
 77151  1  0  0  0
 77152  1  0  0  0
 78 79  1  0  0  0
 78153  1  0  0  0
 78154  1  0  0  0
 79 83  1  0  0  0
 79155  1  0  0  0
 79156  1  0  0  0
 80157  1  0  0  0
 80158  1  0  0  0
 81 82  1  0  0  0
 83159  1  0  0  0
M  ISO  4   1 100  68 101  80 101  83 100
M  END
> <chiral flag>
0

> <version>
0

> <s_m_source_file>
/data/baiqing/PycharmProjects/Reinvent-master-3.2/result/LINK_invent/BTK/process_docking_weight1_custom_sum_contain_oxygen_bond_distance_aromatic_linkinvent_7_9_3/rearranged_h_0041.sdf

> <i_m_source_file_index>
7

> <r_mmod_Potential_Energy-OPLS-2005>
-161.480987548828

> <r_mmod_Stretch_Energy-OPLS-2005>
27.7963409423828

> <r_mmod_Bend_Energy-OPLS-2005>
83.848503112793

> <r_mmod_Torsional_Energy-OPLS-2005>
232.602325439453

> <r_mmod_Improper_Torsional_Energy-OPLS-2005>
7.58270740509033

> <r_mmod_Van_der_Waal_Energy-OPLS-2005>
127.674499511719

> <r_mmod_Electrostatic_Energy-OPLS-2005>
-428.070251464844

> <r_mmod_Solvation_Energy-OPLS-2005>
-222.454208374023

> <b_mmod_Minimization_Converged-OPLS-2005>
0

> <r_mmod_RMS_Derivative-OPLS-2005>
2.21323537826538

$$$$
7
                    3D
 Structure written by MMmdl.
158166  0  0  1  0            999 V2000
  -30.6003  -14.7393   20.4589 C   0  0  0  0  0  0
  -30.4414  -12.4482   19.4816 C   0  0  0  0  0  0
  -29.5181  -12.5119   18.2437 C   0  0  0  0  0  0
  -28.0430  -12.3347   18.6530 C   0  0  0  0  0  0
  -27.6499  -13.2277   19.8602 C   0  0  2  0  0  0
  -28.6937  -13.1463   20.9982 C   0  0  0  0  0  0
  -25.2555  -13.8187   20.5704 C   0  0  0  0  0  0
  -24.1831  -13.0440   20.9200 C   0  0  0  0  0  0
  -24.6417  -11.6917   20.8744 C   0  0  0  0  0  0
  -23.9081  -10.4299   21.0405 C   0  0  0  0  0  0
  -24.3621   -9.4214   21.9186 C   0  0  0  0  0  0
  -23.6300   -8.2246   22.0751 C   0  0  0  0  0  0
  -22.4278   -8.0286   21.3547 C   0  0  0  0  0  0
  -21.9917   -9.0261   20.4646 C   0  0  0  0  0  0
  -22.7247  -10.2144   20.3060 C   0  0  0  0  0  0
  -21.6850   -6.0743   22.5283 C   0  0  0  0  0  0
  -21.4013   -6.5645   23.8220 C   0  0  0  0  0  0
  -21.3662   -5.6791   24.9181 C   0  0  0  0  0  0
  -21.6045   -4.3054   24.7221 C   0  0  0  0  0  0
  -21.8822   -3.8155   23.4340 C   0  0  0  0  0  0
  -21.9194   -4.6976   22.3403 C   0  0  0  0  0  0
  -22.7856  -13.5236   21.1854 C   0  0  0  0  0  0
  -22.1658   -4.2168   21.0975 F   0  0  0  0  0  0
  -21.5633   -3.4533   25.7730 F   0  0  0  0  0  0
  -30.0003  -13.4994   20.4279 N   0  0  0  0  0  0
  -26.2988  -12.9387   20.3317 N   0  0  0  0  0  0
  -25.9352  -11.6532   20.5764 N   0  0  0  0  0  0
  -22.0474  -12.8250   22.0405 N   0  0  0  0  0  0
  -25.4264  -15.1915   20.4146 N   0  0  0  0  0  0
  -31.7646  -14.8722   20.0724 O   0  0  0  0  0  0
  -21.6640   -6.8887   21.4244 O   0  0  0  0  0  0
  -22.3559  -14.5538   20.6684 O   0  0  0  0  0  0
  -24.6340  -31.8535   23.1984 C   0  0  0  0  0  0
  -25.9156  -32.4746   23.8330 C   0  0  1  0  0  0
  -27.2133  -27.2389   20.1259 C   0  0  0  0  0  0
  -25.5945  -33.8551   24.2249 N   0  0  0  0  0  0
  -23.4315  -30.4771   21.5428 C   0  0  2  0  0  0
  -24.8775  -28.9258   20.1076 C   0  0  0  0  0  0
  -22.7520  -29.4592   22.4912 C   0  0  0  0  0  0
  -18.0296  -28.1383   22.8489 C   0  0  0  0  0  0
  -24.1487  -36.7275   23.2640 C   0  0  0  0  0  0
  -25.9808  -30.7581   21.3833 C   0  0  0  0  0  0
  -26.0507  -29.3798   20.7232 C   0  0  0  0  0  0
  -27.2204  -28.5488   20.7235 C   0  0  0  0  0  0
  -26.0191  -26.8707   19.4631 C   0  0  0  0  0  0
  -24.8684  -27.6808   19.4660 C   0  0  0  0  0  0
  -23.6496  -29.8145   20.1579 C   0  0  0  0  0  0
  -25.4114  -36.3066   24.0326 C   0  0  1  0  0  0
  -20.5905  -28.3695   23.1267 C   0  0  2  0  0  0
  -20.6787  -26.9408   22.5412 C   0  0  0  0  0  0
  -19.5759  -26.6373   21.5221 C   0  0  0  0  0  0
  -18.1936  -26.7926   22.1628 C   0  0  0  0  0  0
  -19.1552  -28.8857   23.2869 C   0  0  0  0  0  0
  -18.9469  -30.1459   23.8886 C   0  0  0  0  0  0
  -17.6466  -30.6586   24.0556 C   0  0  0  0  0  0
  -25.9061  -34.9435   23.5088 C   0  0  0  0  0  0
  -16.5358  -29.9079   23.6335 C   0  0  0  0  0  0
  -16.7281  -28.6496   23.0358 C   0  0  0  0  0  0
  -26.4510  -31.6586   25.0736 C   0  0  0  0  0  0
  -25.3722  -31.3752   26.1450 C   0  0  0  0  0  0
  -27.0363  -30.3000   24.6251 C   0  0  0  0  0  0
  -27.6052  -32.4339   25.7514 C   0  0  0  0  0  0
  -27.5578  -37.1794   24.8464 C   0  0  0  0  0  0
  -21.4225  -29.3041   22.3655 N   0  0  0  0  0  0
  -26.4285  -37.3770   23.9414 N   0  0  0  0  0  0
  -24.7013  -31.0482   22.0971 N   0  0  0  0  0  0
  -23.4212  -28.8127   23.3011 O   0  0  0  0  0  0
  -28.2888  -26.3113   20.2076 O   0  0  0  0  0  0
  -26.5628  -34.8915   22.4656 O   0  0  0  0  0  0
  -23.5485  -32.1362   23.7263 O   0  0  0  0  0  0
  -29.8910  -23.0044   18.2700 C   0  0  0  0  0  0
  -30.3787  -20.8129   17.4254 C   0  0  0  0  0  0
  -30.3674  -22.1956   17.2299 C   0  0  0  0  0  0
  -29.4104  -22.4521   19.4830 C   0  0  0  0  0  0
  -29.5166  -20.9810   19.6029 C   0  0  0  0  0  0
  -28.9054  -23.5777   20.4922 C   0  0  0  0  0  0
  -29.0485  -19.9869   20.7294 C   0  0  0  0  0  0
  -29.8185  -18.5756   21.0586 C   0  0  0  0  0  0
  -29.8320  -17.2614   20.1130 C   0  0  0  0  0  0
  -28.0228  -24.8438   19.9403 C   0  0  0  0  0  0
  -30.8436  -22.8200   15.9295 C   0  0  0  0  0  0
  -29.9653  -20.2361   18.5684 N   0  0  0  0  0  0
  -29.7978  -15.8429   20.7028 N   0  0  0  0  0  0
  -31.8180  -23.6924   16.1858 F   0  0  0  0  0  0
  -31.3056  -21.9059   15.0753 F   0  0  0  0  0  0
  -29.8305  -23.4668   15.3539 F   0  0  0  0  0  0
  -31.4824  -12.5783   19.1805 H   0  0  0  0  0  0
  -30.3910  -11.4662   19.9543 H   0  0  0  0  0  0
  -29.8000  -11.7432   17.5227 H   0  0  0  0  0  0
  -29.6475  -13.4710   17.7403 H   0  0  0  0  0  0
  -27.8998  -11.2839   18.9082 H   0  0  0  0  0  0
  -27.3868  -12.5340   17.8049 H   0  0  0  0  0  0
  -27.6500  -14.2522   19.4868 H   0  0  0  0  0  0
  -28.7268  -12.1434   21.4266 H   0  0  0  0  0  0
  -28.4306  -13.8180   21.8164 H   0  0  0  0  0  0
  -25.2756   -9.5700   22.4782 H   0  0  0  0  0  0
  -24.0010   -7.4639   22.7469 H   0  0  0  0  0  0
  -21.0848   -8.8785   19.8952 H   0  0  0  0  0  0
  -22.3694  -10.9693   19.6186 H   0  0  0  0  0  0
  -21.1992   -7.6152   23.9736 H   0  0  0  0  0  0
  -21.1483   -6.0512   25.9088 H   0  0  0  0  0  0
  -22.0598   -2.7619   23.2829 H   0  0  0  0  0  0
  -22.4043  -11.9901   22.4809 H   0  0  0  0  0  0
  -21.1108  -13.1326   22.2587 H   0  0  0  0  0  0
  -24.6597  -15.8452   20.5295 H   0  0  0  0  0  0
  -26.2749  -15.6341   20.0850 H   0  0  0  0  0  0
  -26.7223  -32.5381   23.1065 H   0  0  0  0  0  0
  -25.0098  -33.9684   25.0403 H   0  0  0  0  0  0
  -22.7295  -31.3007   21.3985 H   0  0  0  0  0  0
  -23.3755  -35.9601   23.3296 H   0  0  0  0  0  0
  -24.3583  -36.8904   22.2058 H   0  0  0  0  0  0
  -23.7231  -37.6471   23.6667 H   0  0  0  0  0  0
  -26.1261  -31.5184   20.6142 H   0  0  0  0  0  0
  -26.8563  -30.8039   22.0196 H   0  0  0  0  0  0
  -28.1137  -28.8874   21.2288 H   0  0  0  0  0  0
  -25.9330  -25.9273   18.9458 H   0  0  0  0  0  0
  -23.9736  -27.3319   18.9700 H   0  0  0  0  0  0
  -23.7740  -30.5923   19.4035 H   0  0  0  0  0  0
  -22.7667  -29.2495   19.8525 H   0  0  0  0  0  0
  -25.1297  -36.1908   25.0818 H   0  0  0  0  0  0
  -20.9994  -28.3268   24.1388 H   0  0  0  0  0  0
  -20.5695  -26.2299   23.3615 H   0  0  0  0  0  0
  -21.6649  -26.7432   22.1195 H   0  0  0  0  0  0
  -19.6914  -25.6282   21.1254 H   0  0  0  0  0  0
  -19.6695  -27.3179   20.6749 H   0  0  0  0  0  0
  -17.4208  -26.6676   21.4028 H   0  0  0  0  0  0
  -18.0327  -26.0070   22.9025 H   0  0  0  0  0  0
  -19.7945  -30.7279   24.2246 H   0  0  0  0  0  0
  -17.5021  -31.6268   24.5150 H   0  0  0  0  0  0
  -15.5357  -30.2971   23.7673 H   0  0  0  0  0  0
  -15.8682  -28.0808   22.7084 H   0  0  0  0  0  0
  -24.5895  -30.7103   25.7783 H   0  0  0  0  0  0
  -24.8914  -32.2926   26.4855 H   0  0  0  0  0  0
  -25.8026  -30.8944   27.0242 H   0  0  0  0  0  0
  -26.2962  -29.6748   24.1242 H   0  0  0  0  0  0
  -27.3999  -29.7272   25.4792 H   0  0  0  0  0  0
  -27.8859  -30.4273   23.9538 H   0  0  0  0  0  0
  -27.2647  -33.3644   26.2069 H   0  0  0  0  0  0
  -28.3870  -32.6893   25.0351 H   0  0  0  0  0  0
  -28.0705  -31.8482   26.5450 H   0  0  0  0  0  0
  -28.2584  -38.0104   24.7525 H   0  0  0  0  0  0
  -28.1083  -36.2633   24.6265 H   0  0  0  0  0  0
  -27.2297  -37.1411   25.8868 H   0  0  0  0  0  0
  -20.9414  -29.8764   21.6859 H   0  0  0  0  0  0
  -26.0157  -38.2839   24.1431 H   0  0  0  0  0  0
  -29.8947  -24.0742   18.1192 H   0  0  0  0  0  0
  -30.7246  -20.1367   16.6573 H   0  0  0  0  0  0
  -29.7959  -23.9812   20.9742 H   0  0  0  0  0  0
  -28.3525  -23.0869   21.2935 H   0  0  0  0  0  0
  -27.9991  -19.7632   20.5372 H   0  0  0  0  0  0
  -29.0446  -20.5698   21.6506 H   0  0  0  0  0  0
  -29.3790  -18.2407   21.9983 H   0  0  0  0  0  0
  -30.8514  -18.8122   21.3140 H   0  0  0  0  0  0
  -30.6767  -17.3363   19.4256 H   0  0  0  0  0  0
  -28.9535  -17.3200   19.4703 H   0  0  0  0  0  0
  -27.0261  -24.6276   20.3252 H   0  0  0  0  0  0
  -27.9139  -24.7506   18.8603 H   0  0  0  0  0  0
  -28.8973  -15.5856   21.0805 H   0  0  0  0  0  0
  1 25  1  0  0  0
  1 30  2  0  0  0
  1 83  1  0  0  0
  2  3  1  0  0  0
  2 25  1  0  0  0
  2 87  1  0  0  0
  2 88  1  0  0  0
  3  4  1  0  0  0
  3 89  1  0  0  0
  3 90  1  0  0  0
  4  5  1  0  0  0
  4 91  1  0  0  0
  4 92  1  0  0  0
  5  6  1  0  0  0
  5 26  1  0  0  0
  5 93  1  0  0  0
  6 25  1  0  0  0
  6 94  1  0  0  0
  6 95  1  0  0  0
  7  8  2  0  0  0
  7 26  1  0  0  0
  7 29  1  0  0  0
  8  9  1  0  0  0
  8 22  1  0  0  0
  9 10  1  0  0  0
  9 27  2  0  0  0
 10 11  2  0  0  0
 10 15  1  0  0  0
 11 12  1  0  0  0
 11 96  1  0  0  0
 12 13  2  0  0  0
 12 97  1  0  0  0
 13 14  1  0  0  0
 13 31  1  0  0  0
 14 15  2  0  0  0
 14 98  1  0  0  0
 15 99  1  0  0  0
 16 17  2  0  0  0
 16 21  1  0  0  0
 16 31  1  0  0  0
 17 18  1  0  0  0
 17100  1  0  0  0
 18 19  2  0  0  0
 18101  1  0  0  0
 19 20  1  0  0  0
 19 24  1  0  0  0
 20 21  2  0  0  0
 20102  1  0  0  0
 21 23  1  0  0  0
 22 28  1  0  0  0
 22 32  2  0  0  0
 26 27  1  0  0  0
 28103  1  0  0  0
 28104  1  0  0  0
 29105  1  0  0  0
 29106  1  0  0  0
 33 34  1  0  0  0
 33 66  1  0  0  0
 33 70  2  0  0  0
 34 36  1  0  0  0
 34 59  1  0  0  0
 34107  1  0  0  0
 35 44  2  0  0  0
 35 45  1  0  0  0
 35 68  1  0  0  0
 36 56  1  0  0  0
 36108  1  0  0  0
 37 39  1  0  0  0
 37 47  1  0  0  0
 37 66  1  0  0  0
 37109  1  0  0  0
 38 43  2  0  0  0
 38 46  1  0  0  0
 38 47  1  0  0  0
 39 64  1  0  0  0
 39 67  2  0  0  0
 40 52  1  0  0  0
 40 53  2  0  0  0
 40 58  1  0  0  0
 41110  1  0  0  0
 41111  1  0  0  0
 41112  1  0  0  0
 41 48  1  0  0  0
 42 43  1  0  0  0
 42 66  1  0  0  0
 42113  1  0  0  0
 42114  1  0  0  0
 43 44  1  0  0  0
 44115  1  0  0  0
 45 46  2  0  0  0
 45116  1  0  0  0
 46117  1  0  0  0
 47118  1  0  0  0
 47119  1  0  0  0
 48 56  1  0  0  0
 48 65  1  0  0  0
 48120  1  0  0  0
 49 50  1  0  0  0
 49 53  1  0  0  0
 49 64  1  0  0  0
 49121  1  0  0  0
 50 51  1  0  0  0
 50122  1  0  0  0
 50123  1  0  0  0
 51 52  1  0  0  0
 51124  1  0  0  0
 51125  1  0  0  0
 52126  1  0  0  0
 52127  1  0  0  0
 53 54  1  0  0  0
 54 55  2  0  0  0
 54128  1  0  0  0
 55 57  1  0  0  0
 55129  1  0  0  0
 56 69  2  0  0  0
 57 58  2  0  0  0
 57130  1  0  0  0
 58131  1  0  0  0
 59 60  1  0  0  0
 59 61  1  0  0  0
 59 62  1  0  0  0
 60132  1  0  0  0
 60133  1  0  0  0
 60134  1  0  0  0
 61135  1  0  0  0
 61136  1  0  0  0
 61137  1  0  0  0
 62138  1  0  0  0
 62139  1  0  0  0
 62140  1  0  0  0
 63 65  1  0  0  0
 63141  1  0  0  0
 63142  1  0  0  0
 63143  1  0  0  0
 64144  1  0  0  0
 65145  1  0  0  0
 68 80  1  0  0  0
 71 73  2  0  0  0
 71 74  1  0  0  0
 71146  1  0  0  0
 72 73  1  0  0  0
 72 82  2  0  0  0
 72147  1  0  0  0
 73 81  1  0  0  0
 74 75  2  0  0  0
 74 76  1  0  0  0
 75 77  1  0  0  0
 75 82  1  0  0  0
 76 80  1  0  0  0
 76148  1  0  0  0
 76149  1  0  0  0
 77 78  1  0  0  0
 77150  1  0  0  0
 77151  1  0  0  0
 78 79  1  0  0  0
 78152  1  0  0  0
 78153  1  0  0  0
 79 83  1  0  0  0
 79154  1  0  0  0
 79155  1  0  0  0
 80156  1  0  0  0
 80157  1  0  0  0
 81 84  1  0  0  0
 81 85  1  0  0  0
 81 86  1  0  0  0
 83158  1  0  0  0
M  ISO  4   1 100  68 101  80 101  83 100
M  END
> <chiral flag>
0

> <version>
0

> <s_m_source_file>
/data/baiqing/PycharmProjects/Reinvent-master-3.2/result/LINK_invent/BTK/process_docking_weight1_custom_sum_contain_oxygen_bond_distance_aromatic_linkinvent_7_9_3/rearranged_h_0041.sdf

> <i_m_source_file_index>
8

> <r_mmod_Potential_Energy-OPLS-2005>
100.444274902344

> <r_mmod_Stretch_Energy-OPLS-2005>
141.795150756836

> <r_mmod_Bend_Energy-OPLS-2005>
219.555557250977

> <r_mmod_Torsional_Energy-OPLS-2005>
234.29606628418

> <r_mmod_Improper_Torsional_Energy-OPLS-2005>
7.05294036865234

> <r_mmod_Van_der_Waal_Energy-OPLS-2005>
144.981643676758

> <r_mmod_Electrostatic_Energy-OPLS-2005>
-522.192565917969

> <r_mmod_Solvation_Energy-OPLS-2005>
-217.550140380859

> <b_mmod_Minimization_Converged-OPLS-2005>
0

> <r_mmod_RMS_Derivative-OPLS-2005>
1.2440927028656

$$$$
8
                    3D
 Structure written by MMmdl.
159167  0  0  1  0            999 V2000
  -30.6341  -14.7270   20.4674 C   0  0  0  0  0  0
  -30.4244  -12.4479   19.4667 C   0  0  0  0  0  0
  -29.5083  -12.5208   18.2285 C   0  0  0  0  0  0
  -28.0323  -12.3470   18.6386 C   0  0  0  0  0  0
  -27.6394  -13.2339   19.8520 C   0  0  2  0  0  0
  -28.6866  -13.1676   20.9833 C   0  0  0  0  0  0
  -25.2494  -13.8191   20.5732 C   0  0  0  0  0  0
  -24.1785  -13.0428   20.9229 C   0  0  0  0  0  0
  -24.6385  -11.6911   20.8749 C   0  0  0  0  0  0
  -23.9066  -10.4290   21.0388 C   0  0  0  0  0  0
  -24.3623   -9.4215   21.9172 C   0  0  0  0  0  0
  -23.6303   -8.2249   22.0742 C   0  0  0  0  0  0
  -22.4284   -8.0277   21.3539 C   0  0  0  0  0  0
  -21.9919   -9.0246   20.4639 C   0  0  0  0  0  0
  -22.7237  -10.2129   20.3040 C   0  0  0  0  0  0
  -21.6857   -6.0742   22.5283 C   0  0  0  0  0  0
  -21.4012   -6.5640   23.8216 C   0  0  0  0  0  0
  -21.3667   -5.6790   24.9180 C   0  0  0  0  0  0
  -21.6038   -4.3052   24.7221 C   0  0  0  0  0  0
  -21.8821   -3.8151   23.4344 C   0  0  0  0  0  0
  -21.9191   -4.6973   22.3404 C   0  0  0  0  0  0
  -22.7813  -13.5211   21.1885 C   0  0  0  0  0  0
  -22.1659   -4.2161   21.0978 F   0  0  0  0  0  0
  -21.5637   -3.4530   25.7732 F   0  0  0  0  0  0
  -29.9846  -13.5146   20.3946 N   0  0  0  0  0  0
  -26.2924  -12.9409   20.3293 N   0  0  0  0  0  0
  -25.9316  -11.6545   20.5744 N   0  0  0  0  0  0
  -22.0442  -12.8205   22.0434 N   0  0  0  0  0  0
  -25.4160  -15.1923   20.4203 N   0  0  0  0  0  0
  -31.8279  -14.7962   20.1660 O   0  0  0  0  0  0
  -21.6647   -6.8877   21.4241 O   0  0  0  0  0  0
  -22.3495  -14.5515   20.6723 O   0  0  0  0  0  0
  -24.6312  -31.8539   23.1972 C   0  0  0  0  0  0
  -25.9139  -32.4742   23.8324 C   0  0  1  0  0  0
  -27.2230  -27.2680   20.1336 C   0  0  0  0  0  0
  -25.5938  -33.8549   24.2248 N   0  0  0  0  0  0
  -23.4276  -30.4750   21.5412 C   0  0  2  0  0  0
  -24.8760  -28.9192   20.1124 C   0  0  0  0  0  0
  -22.7495  -29.4596   22.4926 C   0  0  0  0  0  0
  -18.0290  -28.1374   22.8486 C   0  0  0  0  0  0
  -24.1499  -36.7287   23.2638 C   0  0  0  0  0  0
  -25.9726  -30.7694   21.3757 C   0  0  0  0  0  0
  -26.0471  -29.3914   20.7200 C   0  0  0  0  0  0
  -27.2265  -28.5796   20.7154 C   0  0  0  0  0  0
  -26.0334  -26.8608   19.4955 C   0  0  0  0  0  0
  -24.8742  -27.6618   19.4876 C   0  0  0  0  0  0
  -23.6445  -29.8033   20.1590 C   0  0  0  0  0  0
  -25.4123  -36.3064   24.0320 C   0  0  1  0  0  0
  -20.5893  -28.3693   23.1273 C   0  0  2  0  0  0
  -20.6784  -26.9412   22.5412 C   0  0  0  0  0  0
  -19.5764  -26.6373   21.5213 C   0  0  0  0  0  0
  -18.1942  -26.7918   22.1617 C   0  0  0  0  0  0
  -19.1546  -28.8853   23.2869 C   0  0  0  0  0  0
  -18.9461  -30.1453   23.8881 C   0  0  0  0  0  0
  -17.6454  -30.6574   24.0563 C   0  0  0  0  0  0
  -25.9064  -34.9434   23.5091 C   0  0  0  0  0  0
  -16.5351  -29.9067   23.6331 C   0  0  0  0  0  0
  -16.7277  -28.6482   23.0353 C   0  0  0  0  0  0
  -26.4504  -31.6563   25.0713 C   0  0  0  0  0  0
  -25.3727  -31.3702   26.1429 C   0  0  0  0  0  0
  -27.0351  -30.2981   24.6198 C   0  0  0  0  0  0
  -27.6059  -32.4305   25.7487 C   0  0  0  0  0  0
  -27.5585  -37.1799   24.8456 C   0  0  0  0  0  0
  -21.4205  -29.3039   22.3665 N   0  0  0  0  0  0
  -26.4294  -37.3763   23.9405 N   0  0  0  0  0  0
  -24.6959  -31.0510   22.0943 N   0  0  0  0  0  0
  -23.4198  -28.8146   23.3029 O   0  0  0  0  0  0
  -28.3175  -26.3768   20.1448 O   0  0  0  0  0  0
  -26.5634  -34.8902   22.4658 O   0  0  0  0  0  0
  -23.5464  -32.1359   23.7276 O   0  0  0  0  0  0
  -29.5496  -19.8144   21.2595 C   0  0  0  0  0  0
  -29.7686  -18.6652   20.4980 C   0  0  0  0  0  0
  -29.3577  -19.1515   19.2119 C   0  0  0  0  0  0
  -27.1395  -17.1992   18.2250 C   0  0  0  0  0  0
  -30.4681  -17.2897   20.9125 C   0  0  0  0  0  0
  -29.3925  -18.4039   17.9033 C   0  0  0  0  0  0
  -27.9907  -18.1150   17.3351 C   0  0  0  0  0  0
  -28.7832  -23.6430   20.0740 C   0  0  0  0  0  0
  -28.5740  -22.2747   20.9178 C   0  0  0  0  0  0
  -28.1015  -24.9874   20.6772 C   0  0  0  0  0  0
  -28.9541  -20.4399   19.2129 N   0  0  0  0  0  0
  -29.0814  -20.8992   20.4818 N   0  0  0  0  0  0
  -29.9056  -15.8859   20.6948 N   0  0  0  0  0  0
  -31.4678  -12.5608   19.1677 H   0  0  0  0  0  0
  -30.3529  -11.4690   19.9428 H   0  0  0  0  0  0
  -29.7912  -11.7597   17.5011 H   0  0  0  0  0  0
  -29.6426  -13.4839   17.7332 H   0  0  0  0  0  0
  -27.8806  -11.2945   18.8846 H   0  0  0  0  0  0
  -27.3798  -12.5586   17.7908 H   0  0  0  0  0  0
  -27.6323  -14.2586   19.4854 H   0  0  0  0  0  0
  -28.7193  -12.1715   21.4258 H   0  0  0  0  0  0
  -28.4263  -13.8539   21.7914 H   0  0  0  0  0  0
  -25.2763   -9.5714   22.4746 H   0  0  0  0  0  0
  -24.0027   -7.4642   22.7455 H   0  0  0  0  0  0
  -21.0854   -8.8748   19.8944 H   0  0  0  0  0  0
  -22.3677  -10.9664   19.6153 H   0  0  0  0  0  0
  -21.1995   -7.6147   23.9725 H   0  0  0  0  0  0
  -21.1493   -6.0519   25.9086 H   0  0  0  0  0  0
  -22.0596   -2.7613   23.2836 H   0  0  0  0  0  0
  -22.4052  -11.9882   22.4859 H   0  0  0  0  0  0
  -21.1047  -13.1218   22.2588 H   0  0  0  0  0  0
  -24.6441  -15.8411   20.5296 H   0  0  0  0  0  0
  -26.2571  -15.6372   20.0790 H   0  0  0  0  0  0
  -26.7210  -32.5387   23.1069 H   0  0  0  0  0  0
  -25.0095  -33.9688   25.0399 H   0  0  0  0  0  0
  -22.7245  -31.2970   21.3925 H   0  0  0  0  0  0
  -23.3755  -35.9624   23.3278 H   0  0  0  0  0  0
  -24.3597  -36.8933   22.2057 H   0  0  0  0  0  0
  -23.7255  -37.6482   23.6679 H   0  0  0  0  0  0
  -26.1116  -31.5302   20.6064 H   0  0  0  0  0  0
  -26.8504  -30.8182   22.0091 H   0  0  0  0  0  0
  -28.1257  -28.9379   21.1965 H   0  0  0  0  0  0
  -25.9929  -25.8977   19.0063 H   0  0  0  0  0  0
  -23.9798  -27.2965   19.0017 H   0  0  0  0  0  0
  -23.7627  -30.5748   19.3974 H   0  0  0  0  0  0
  -22.7644  -29.2308   19.8607 H   0  0  0  0  0  0
  -25.1310  -36.1908   25.0812 H   0  0  0  0  0  0
  -20.9992  -28.3264   24.1393 H   0  0  0  0  0  0
  -20.5686  -26.2299   23.3614 H   0  0  0  0  0  0
  -21.6651  -26.7436   22.1207 H   0  0  0  0  0  0
  -19.6930  -25.6280   21.1254 H   0  0  0  0  0  0
  -19.6703  -27.3173   20.6737 H   0  0  0  0  0  0
  -17.4219  -26.6669   21.4013 H   0  0  0  0  0  0
  -18.0336  -26.0050   22.9006 H   0  0  0  0  0  0
  -19.7935  -30.7288   24.2234 H   0  0  0  0  0  0
  -17.5003  -31.6257   24.5165 H   0  0  0  0  0  0
  -15.5348  -30.2965   23.7657 H   0  0  0  0  0  0
  -15.8678  -28.0800   22.7076 H   0  0  0  0  0  0
  -24.5920  -30.7030   25.7749 H   0  0  0  0  0  0
  -24.8893  -32.2863   26.4839 H   0  0  0  0  0  0
  -25.8047  -30.8891   27.0213 H   0  0  0  0  0  0
  -26.2927  -29.6718   24.1233 H   0  0  0  0  0  0
  -27.4039  -29.7254   25.4717 H   0  0  0  0  0  0
  -27.8804  -30.4242   23.9428 H   0  0  0  0  0  0
  -27.2670  -33.3618   26.2034 H   0  0  0  0  0  0
  -28.3885  -32.6838   25.0324 H   0  0  0  0  0  0
  -28.0704  -31.8442   26.5425 H   0  0  0  0  0  0
  -28.2584  -38.0114   24.7531 H   0  0  0  0  0  0
  -28.1101  -36.2651   24.6251 H   0  0  0  0  0  0
  -27.2309  -37.1407   25.8857 H   0  0  0  0  0  0
  -20.9392  -29.8749   21.6857 H   0  0  0  0  0  0
  -26.0169  -38.2834   24.1399 H   0  0  0  0  0  0
  -29.7112  -19.9589   22.3184 H   0  0  0  0  0  0
  -27.6225  -16.2327   18.3564 H   0  0  0  0  0  0
  -26.1599  -17.0243   17.7803 H   0  0  0  0  0  0
  -26.9812  -17.6383   19.2110 H   0  0  0  0  0  0
  -30.7000  -17.3296   21.9769 H   0  0  0  0  0  0
  -31.4541  -17.2927   20.4458 H   0  0  0  0  0  0
  -29.9313  -17.4630   18.0265 H   0  0  0  0  0  0
  -29.9682  -18.9724   17.1722 H   0  0  0  0  0  0
  -27.4624  -19.0552   17.1719 H   0  0  0  0  0  0
  -28.0943  -17.6513   16.3542 H   0  0  0  0  0  0
  -28.4045  -23.4884   19.0634 H   0  0  0  0  0  0
  -29.8545  -23.8129   19.9653 H   0  0  0  0  0  0
  -27.5013  -22.1597   21.0782 H   0  0  0  0  0  0
  -28.9803  -22.4477   21.9150 H   0  0  0  0  0  0
  -28.4342  -25.0483   21.7142 H   0  0  0  0  0  0
  -27.0331  -24.7881   20.7577 H   0  0  0  0  0  0
  -28.9205  -15.7625   20.8723 H   0  0  0  0  0  0
  1 25  1  0  0  0
  1 30  2  0  0  0
  1 83  1  0  0  0
  2  3  1  0  0  0
  2 25  1  0  0  0
  2 84  1  0  0  0
  2 85  1  0  0  0
  3  4  1  0  0  0
  3 86  1  0  0  0
  3 87  1  0  0  0
  4  5  1  0  0  0
  4 88  1  0  0  0
  4 89  1  0  0  0
  5  6  1  0  0  0
  5 26  1  0  0  0
  5 90  1  0  0  0
  6 25  1  0  0  0
  6 91  1  0  0  0
  6 92  1  0  0  0
  7  8  2  0  0  0
  7 26  1  0  0  0
  7 29  1  0  0  0
  8  9  1  0  0  0
  8 22  1  0  0  0
  9 10  1  0  0  0
  9 27  2  0  0  0
 10 11  2  0  0  0
 10 15  1  0  0  0
 11 12  1  0  0  0
 11 93  1  0  0  0
 12 13  2  0  0  0
 12 94  1  0  0  0
 13 14  1  0  0  0
 13 31  1  0  0  0
 14 15  2  0  0  0
 14 95  1  0  0  0
 15 96  1  0  0  0
 16 17  2  0  0  0
 16 21  1  0  0  0
 16 31  1  0  0  0
 17 18  1  0  0  0
 17 97  1  0  0  0
 18 19  2  0  0  0
 18 98  1  0  0  0
 19 20  1  0  0  0
 19 24  1  0  0  0
 20 21  2  0  0  0
 20 99  1  0  0  0
 21 23  1  0  0  0
 22 28  1  0  0  0
 22 32  2  0  0  0
 26 27  1  0  0  0
 28100  1  0  0  0
 28101  1  0  0  0
 29102  1  0  0  0
 29103  1  0  0  0
 33 34  1  0  0  0
 33 66  1  0  0  0
 33 70  2  0  0  0
 34 36  1  0  0  0
 34 59  1  0  0  0
 34104  1  0  0  0
 35 44  2  0  0  0
 35 45  1  0  0  0
 35 68  1  0  0  0
 36 56  1  0  0  0
 36105  1  0  0  0
 37 39  1  0  0  0
 37 47  1  0  0  0
 37 66  1  0  0  0
 37106  1  0  0  0
 38 43  2  0  0  0
 38 46  1  0  0  0
 38 47  1  0  0  0
 39 64  1  0  0  0
 39 67  2  0  0  0
 40 52  1  0  0  0
 40 53  2  0  0  0
 40 58  1  0  0  0
 41107  1  0  0  0
 41108  1  0  0  0
 41109  1  0  0  0
 41 48  1  0  0  0
 42 43  1  0  0  0
 42 66  1  0  0  0
 42110  1  0  0  0
 42111  1  0  0  0
 43 44  1  0  0  0
 44112  1  0  0  0
 45 46  2  0  0  0
 45113  1  0  0  0
 46114  1  0  0  0
 47115  1  0  0  0
 47116  1  0  0  0
 48 56  1  0  0  0
 48 65  1  0  0  0
 48117  1  0  0  0
 49 50  1  0  0  0
 49 53  1  0  0  0
 49 64  1  0  0  0
 49118  1  0  0  0
 50 51  1  0  0  0
 50119  1  0  0  0
 50120  1  0  0  0
 51 52  1  0  0  0
 51121  1  0  0  0
 51122  1  0  0  0
 52123  1  0  0  0
 52124  1  0  0  0
 53 54  1  0  0  0
 54 55  2  0  0  0
 54125  1  0  0  0
 55 57  1  0  0  0
 55126  1  0  0  0
 56 69  2  0  0  0
 57 58  2  0  0  0
 57127  1  0  0  0
 58128  1  0  0  0
 59 60  1  0  0  0
 59 61  1  0  0  0
 59 62  1  0  0  0
 60129  1  0  0  0
 60130  1  0  0  0
 60131  1  0  0  0
 61132  1  0  0  0
 61133  1  0  0  0
 61134  1  0  0  0
 62135  1  0  0  0
 62136  1  0  0  0
 62137  1  0  0  0
 63 65  1  0  0  0
 63138  1  0  0  0
 63139  1  0  0  0
 63140  1  0  0  0
 64141  1  0  0  0
 65142  1  0  0  0
 68 80  1  0  0  0
 71 72  2  0  0  0
 71 82  1  0  0  0
 71143  1  0  0  0
 72 73  1  0  0  0
 72 75  1  0  0  0
 73 76  1  0  0  0
 73 81  2  0  0  0
 74 77  1  0  0  0
 74144  1  0  0  0
 74145  1  0  0  0
 74146  1  0  0  0
 75 83  1  0  0  0
 75147  1  0  0  0
 75148  1  0  0  0
 76 77  1  0  0  0
 76149  1  0  0  0
 76150  1  0  0  0
 77151  1  0  0  0
 77152  1  0  0  0
 78 79  1  0  0  0
 78 80  1  0  0  0
 78153  1  0  0  0
 78154  1  0  0  0
 79 82  1  0  0  0
 79155  1  0  0  0
 79156  1  0  0  0
 80157  1  0  0  0
 80158  1  0  0  0
 81 82  1  0  0  0
 83159  1  0  0  0
M  ISO  4   1 100  68 101  80 101  83 100
M  END
> <chiral flag>
0

> <version>
0

> <s_m_source_file>
/data/baiqing/PycharmProjects/Reinvent-master-3.2/result/LINK_invent/BTK/process_docking_weight1_custom_sum_contain_oxygen_bond_distance_aromatic_linkinvent_7_9_3/rearranged_h_0041.sdf

> <i_m_source_file_index>
9

> <r_mmod_Potential_Energy-OPLS-2005>
95.2344589233398

> <r_mmod_Stretch_Energy-OPLS-2005>
114.724227905273

> <r_mmod_Bend_Energy-OPLS-2005>
175.934722900391

> <r_mmod_Torsional_Energy-OPLS-2005>
227.553955078125

> <r_mmod_Improper_Torsional_Energy-OPLS-2005>
5.86630010604858

> <r_mmod_Van_der_Waal_Energy-OPLS-2005>
103.751281738281

> <r_mmod_Electrostatic_Energy-OPLS-2005>
-391.767852783203

> <r_mmod_Solvation_Energy-OPLS-2005>
-219.710556030273

> <b_mmod_Minimization_Converged-OPLS-2005>
0

> <r_mmod_RMS_Derivative-OPLS-2005>
1.65415751934052

$$$$
9
                    3D
 Structure written by MMmdl.
170178  0  0  1  0            999 V2000
  -30.6648  -14.5525   20.5894 C   0  0  0  0  0  0
  -30.4393  -12.3718   19.4201 C   0  0  0  0  0  0
  -29.5034  -12.5388   18.2035 C   0  0  0  0  0  0
  -28.0223  -12.3909   18.6121 C   0  0  0  0  0  0
  -27.6625  -13.2223   19.8727 C   0  0  2  0  0  0
  -28.7071  -13.0099   20.9916 C   0  0  0  0  0  0
  -25.2584  -13.8176   20.5676 C   0  0  0  0  0  0
  -24.1855  -13.0415   20.9170 C   0  0  0  0  0  0
  -24.6445  -11.6901   20.8728 C   0  0  0  0  0  0
  -23.9113  -10.4277   21.0402 C   0  0  0  0  0  0
  -24.3663   -9.4191   21.9178 C   0  0  0  0  0  0
  -23.6304   -8.2252   22.0765 C   0  0  0  0  0  0
  -22.4285   -8.0300   21.3560 C   0  0  0  0  0  0
  -21.9934   -9.0277   20.4662 C   0  0  0  0  0  0
  -22.7280  -10.2143   20.3044 C   0  0  0  0  0  0
  -21.6857   -6.0747   22.5275 C   0  0  0  0  0  0
  -21.4038   -6.5641   23.8212 C   0  0  0  0  0  0
  -21.3643   -5.6797   24.9174 C   0  0  0  0  0  0
  -21.6027   -4.3055   24.7222 C   0  0  0  0  0  0
  -21.8826   -3.8146   23.4340 C   0  0  0  0  0  0
  -21.9221   -4.6976   22.3403 C   0  0  0  0  0  0
  -22.7875  -13.5217   21.1825 C   0  0  0  0  0  0
  -22.1684   -4.2152   21.0989 F   0  0  0  0  0  0
  -21.5611   -3.4539   25.7732 F   0  0  0  0  0  0
  -30.0275  -13.3537   20.4394 N   0  0  0  0  0  0
  -26.3042  -12.9382   20.3353 N   0  0  0  0  0  0
  -25.9374  -11.6519   20.5736 N   0  0  0  0  0  0
  -22.0560  -12.8181   22.0396 N   0  0  0  0  0  0
  -25.4246  -15.1889   20.4072 N   0  0  0  0  0  0
  -31.7928  -14.7628   20.1367 O   0  0  0  0  0  0
  -21.6648   -6.8896   21.4234 O   0  0  0  0  0  0
  -22.3536  -14.5526   20.6707 O   0  0  0  0  0  0
  -24.6178  -31.8615   23.2092 C   0  0  0  0  0  0
  -25.9064  -32.4753   23.8406 C   0  0  1  0  0  0
  -27.2414  -27.3903   20.1284 C   0  0  0  0  0  0
  -25.5889  -33.8557   24.2316 N   0  0  0  0  0  0
  -23.4095  -30.4841   21.5471 C   0  0  2  0  0  0
  -24.8613  -28.9416   20.1168 C   0  0  0  0  0  0
  -22.7435  -29.4629   22.4987 C   0  0  0  0  0  0
  -18.0259  -28.1382   22.8499 C   0  0  0  0  0  0
  -24.1470  -36.7308   23.2648 C   0  0  0  0  0  0
  -25.9422  -30.8124   21.3741 C   0  0  0  0  0  0
  -26.0203  -29.4445   20.7208 C   0  0  0  0  0  0
  -27.2137  -28.6796   20.7192 C   0  0  0  0  0  0
  -26.0658  -26.9150   19.5073 C   0  0  0  0  0  0
  -24.8820  -27.6770   19.5029 C   0  0  0  0  0  0
  -23.6233  -29.8112   20.1639 C   0  0  0  0  0  0
  -25.4087  -36.3064   24.0344 C   0  0  1  0  0  0
  -20.5848  -28.3672   23.1320 C   0  0  2  0  0  0
  -20.6732  -26.9398   22.5439 C   0  0  0  0  0  0
  -19.5721  -26.6391   21.5215 C   0  0  0  0  0  0
  -18.1898  -26.7930   22.1619 C   0  0  0  0  0  0
  -19.1511  -28.8853   23.2896 C   0  0  0  0  0  0
  -18.9434  -30.1461   23.8905 C   0  0  0  0  0  0
  -17.6437  -30.6589   24.0571 C   0  0  0  0  0  0
  -25.9043  -34.9430   23.5141 C   0  0  0  0  0  0
  -16.5334  -29.9088   23.6326 C   0  0  0  0  0  0
  -16.7249  -28.6498   23.0357 C   0  0  0  0  0  0
  -26.4500  -31.6533   25.0748 C   0  0  0  0  0  0
  -25.3786  -31.3614   26.1506 C   0  0  0  0  0  0
  -27.0372  -30.2955   24.6210 C   0  0  0  0  0  0
  -27.6067  -32.4266   25.7515 C   0  0  0  0  0  0
  -27.5573  -37.1792   24.8461 C   0  0  0  0  0  0
  -21.4158  -29.3031   22.3733 N   0  0  0  0  0  0
  -26.4265  -37.3761   23.9432 N   0  0  0  0  0  0
  -24.6733  -31.0696   22.1003 N   0  0  0  0  0  0
  -23.4188  -28.8185   23.3065 O   0  0  0  0  0  0
  -28.4037  -26.6319   20.1275 O   0  0  0  0  0  0
  -26.5634  -34.8900   22.4720 O   0  0  0  0  0  0
  -23.5364  -32.1388   23.7474 O   0  0  0  0  0  0
  -29.3838  -21.7990   20.3922 C   0  0  0  0  0  0
  -30.4033  -23.0133   22.2004 C   0  0  0  0  0  0
  -29.7621  -23.0534   20.9516 C   0  0  0  0  0  0
  -29.6254  -20.5873   21.1088 C   0  0  0  0  0  0
  -30.6173  -21.7807   22.8427 C   0  0  0  0  0  0
  -30.9651  -24.6866   26.7728 C   0  0  0  0  0  0
  -32.9488  -23.1680   26.4393 C   0  0  0  0  0  0
  -29.5974  -24.4227   20.2475 C   0  0  0  0  0  0
  -29.0613  -19.2195   20.6461 C   0  0  0  0  0  0
  -31.3381  -21.7480   24.1784 C   0  0  0  0  0  0
  -30.0287  -18.0137   20.3456 C   0  0  0  0  0  0
  -30.7267  -22.6858   25.2461 C   0  0  0  0  0  0
  -30.2858  -16.9527   21.4765 C   0  0  0  0  0  0
  -28.3043  -25.2421   20.5500 C   0  0  0  0  0  0
  -31.6917  -23.7665   25.7823 C   0  0  0  0  0  0
  -30.2222  -20.5953   22.3213 N   0  0  0  0  0  0
  -29.9275  -15.5411   21.1584 N   0  0  0  0  0  0
  -31.4805  -12.5035   19.1202 H   0  0  0  0  0  0
  -30.3714  -11.3617   19.8233 H   0  0  0  0  0  0
  -29.7482  -11.8091   17.4311 H   0  0  0  0  0  0
  -29.6611  -13.5219   17.7542 H   0  0  0  0  0  0
  -27.8311  -11.3342   18.7961 H   0  0  0  0  0  0
  -27.3775  -12.6768   17.7808 H   0  0  0  0  0  0
  -27.6989  -14.2699   19.5711 H   0  0  0  0  0  0
  -28.7037  -11.9685   21.3187 H   0  0  0  0  0  0
  -28.4567  -13.5924   21.8786 H   0  0  0  0  0  0
  -25.2833   -9.5616   22.4725 H   0  0  0  0  0  0
  -23.9998   -7.4617   22.7464 H   0  0  0  0  0  0
  -21.0876   -8.8799   19.8943 H   0  0  0  0  0  0
  -22.3771  -10.9678   19.6127 H   0  0  0  0  0  0
  -21.2040   -7.6151   23.9700 H   0  0  0  0  0  0
  -21.1442   -6.0543   25.9077 H   0  0  0  0  0  0
  -22.0622   -2.7603   23.2850 H   0  0  0  0  0  0
  -22.4272  -11.9859   22.4707 H   0  0  0  0  0  0
  -21.1170  -13.1127   22.2656 H   0  0  0  0  0  0
  -24.6462  -15.8364   20.4796 H   0  0  0  0  0  0
  -26.2710  -15.6175   20.0527 H   0  0  0  0  0  0
  -26.7147  -32.5470   23.1186 H   0  0  0  0  0  0
  -24.9909  -33.9697   25.0364 H   0  0  0  0  0  0
  -22.6992  -31.3008   21.4031 H   0  0  0  0  0  0
  -23.3707  -35.9662   23.3276 H   0  0  0  0  0  0
  -24.3572  -36.8970   22.2070 H   0  0  0  0  0  0
  -23.7251  -37.6511   23.6702 H   0  0  0  0  0  0
  -26.0721  -31.5767   20.6068 H   0  0  0  0  0  0
  -26.8220  -30.8582   22.0049 H   0  0  0  0  0  0
  -28.1053  -29.0642   21.1954 H   0  0  0  0  0  0
  -26.0564  -25.9564   19.0089 H   0  0  0  0  0  0
  -23.9962  -27.2881   19.0201 H   0  0  0  0  0  0
  -23.7350  -30.5797   19.3993 H   0  0  0  0  0  0
  -22.7486  -29.2290   19.8716 H   0  0  0  0  0  0
  -25.1253  -36.1905   25.0835 H   0  0  0  0  0  0
  -20.9915  -28.3220   24.1446 H   0  0  0  0  0  0
  -20.5574  -26.2285   23.3627 H   0  0  0  0  0  0
  -21.6611  -26.7402   22.1275 H   0  0  0  0  0  0
  -19.6874  -25.6305   21.1233 H   0  0  0  0  0  0
  -19.6649  -27.3215   20.6755 H   0  0  0  0  0  0
  -17.4167  -26.6689   21.4020 H   0  0  0  0  0  0
  -18.0284  -26.0065   22.9006 H   0  0  0  0  0  0
  -19.7919  -30.7274   24.2267 H   0  0  0  0  0  0
  -17.4995  -31.6260   24.5192 H   0  0  0  0  0  0
  -15.5337  -30.2994   23.7647 H   0  0  0  0  0  0
  -15.8641  -28.0827   22.7058 H   0  0  0  0  0  0
  -24.5982  -30.6922   25.7866 H   0  0  0  0  0  0
  -24.8952  -32.2738   26.5007 H   0  0  0  0  0  0
  -25.8180  -30.8775   27.0240 H   0  0  0  0  0  0
  -26.2961  -29.6654   24.1273 H   0  0  0  0  0  0
  -27.4095  -29.7254   25.4742 H   0  0  0  0  0  0
  -27.8817  -30.4228   23.9428 H   0  0  0  0  0  0
  -27.2668  -33.3524   26.2177 H   0  0  0  0  0  0
  -28.3842  -32.6882   25.0322 H   0  0  0  0  0  0
  -28.0788  -31.8337   26.5364 H   0  0  0  0  0  0
  -28.2558  -38.0116   24.7521 H   0  0  0  0  0  0
  -28.1097  -36.2654   24.6233 H   0  0  0  0  0  0
  -27.2330  -37.1395   25.8873 H   0  0  0  0  0  0
  -20.9328  -29.8739   21.6937 H   0  0  0  0  0  0
  -26.0132  -38.2829   24.1433 H   0  0  0  0  0  0
  -28.8935  -21.7704   19.4287 H   0  0  0  0  0  0
  -30.7475  -23.9259   22.6693 H   0  0  0  0  0  0
  -31.6334  -25.4542   27.1656 H   0  0  0  0  0  0
  -30.5747  -24.1221   27.6213 H   0  0  0  0  0  0
  -30.1269  -25.1997   26.2980 H   0  0  0  0  0  0
  -33.5905  -23.9514   26.8445 H   0  0  0  0  0  0
  -33.5579  -22.6104   25.7296 H   0  0  0  0  0  0
  -32.6873  -22.4936   27.2553 H   0  0  0  0  0  0
  -29.7011  -24.2842   19.1712 H   0  0  0  0  0  0
  -30.4511  -25.0345   20.5432 H   0  0  0  0  0  0
  -28.5186  -19.4282   19.7216 H   0  0  0  0  0  0
  -28.2911  -18.9073   21.3527 H   0  0  0  0  0  0
  -32.3794  -21.9941   23.9757 H   0  0  0  0  0  0
  -31.3389  -20.7274   24.5651 H   0  0  0  0  0  0
  -30.9749  -18.3829   19.9505 H   0  0  0  0  0  0
  -29.5817  -17.4732   19.5119 H   0  0  0  0  0  0
  -30.3518  -22.0833   26.0749 H   0  0  0  0  0  0
  -29.8383  -23.1746   24.8421 H   0  0  0  0  0  0
  -29.7221  -17.2412   22.3659 H   0  0  0  0  0  0
  -31.3345  -16.9862   21.7752 H   0  0  0  0  0  0
  -28.1103  -25.2415   21.6237 H   0  0  0  0  0  0
  -27.4667  -24.7223   20.0882 H   0  0  0  0  0  0
  -32.0180  -24.3854   24.9426 H   0  0  0  0  0  0
  -29.0177  -15.2448   21.4798 H   0  0  0  0  0  0
  1 25  1  0  0  0
  1 30  2  0  0  0
  1 87  1  0  0  0
  2  3  1  0  0  0
  2 25  1  0  0  0
  2 88  1  0  0  0
  2 89  1  0  0  0
  3  4  1  0  0  0
  3 90  1  0  0  0
  3 91  1  0  0  0
  4  5  1  0  0  0
  4 92  1  0  0  0
  4 93  1  0  0  0
  5  6  1  0  0  0
  5 26  1  0  0  0
  5 94  1  0  0  0
  6 25  1  0  0  0
  6 95  1  0  0  0
  6 96  1  0  0  0
  7  8  2  0  0  0
  7 26  1  0  0  0
  7 29  1  0  0  0
  8  9  1  0  0  0
  8 22  1  0  0  0
  9 10  1  0  0  0
  9 27  2  0  0  0
 10 11  2  0  0  0
 10 15  1  0  0  0
 11 12  1  0  0  0
 11 97  1  0  0  0
 12 13  2  0  0  0
 12 98  1  0  0  0
 13 14  1  0  0  0
 13 31  1  0  0  0
 14 15  2  0  0  0
 14 99  1  0  0  0
 15100  1  0  0  0
 16 17  2  0  0  0
 16 21  1  0  0  0
 16 31  1  0  0  0
 17 18  1  0  0  0
 17101  1  0  0  0
 18 19  2  0  0  0
 18102  1  0  0  0
 19 20  1  0  0  0
 19 24  1  0  0  0
 20 21  2  0  0  0
 20103  1  0  0  0
 21 23  1  0  0  0
 22 28  1  0  0  0
 22 32  2  0  0  0
 26 27  1  0  0  0
 28104  1  0  0  0
 28105  1  0  0  0
 29106  1  0  0  0
 29107  1  0  0  0
 33 34  1  0  0  0
 33 66  1  0  0  0
 33 70  2  0  0  0
 34 36  1  0  0  0
 34 59  1  0  0  0
 34108  1  0  0  0
 35 44  2  0  0  0
 35 45  1  0  0  0
 35 68  1  0  0  0
 36 56  1  0  0  0
 36109  1  0  0  0
 37 39  1  0  0  0
 37 47  1  0  0  0
 37 66  1  0  0  0
 37110  1  0  0  0
 38 43  2  0  0  0
 38 46  1  0  0  0
 38 47  1  0  0  0
 39 64  1  0  0  0
 39 67  2  0  0  0
 40 52  1  0  0  0
 40 53  2  0  0  0
 40 58  1  0  0  0
 41111  1  0  0  0
 41112  1  0  0  0
 41113  1  0  0  0
 41 48  1  0  0  0
 42 43  1  0  0  0
 42 66  1  0  0  0
 42114  1  0  0  0
 42115  1  0  0  0
 43 44  1  0  0  0
 44116  1  0  0  0
 45 46  2  0  0  0
 45117  1  0  0  0
 46118  1  0  0  0
 47119  1  0  0  0
 47120  1  0  0  0
 48 56  1  0  0  0
 48 65  1  0  0  0
 48121  1  0  0  0
 49 50  1  0  0  0
 49 53  1  0  0  0
 49 64  1  0  0  0
 49122  1  0  0  0
 50 51  1  0  0  0
 50123  1  0  0  0
 50124  1  0  0  0
 51 52  1  0  0  0
 51125  1  0  0  0
 51126  1  0  0  0
 52127  1  0  0  0
 52128  1  0  0  0
 53 54  1  0  0  0
 54 55  2  0  0  0
 54129  1  0  0  0
 55 57  1  0  0  0
 55130  1  0  0  0
 56 69  2  0  0  0
 57 58  2  0  0  0
 57131  1  0  0  0
 58132  1  0  0  0
 59 60  1  0  0  0
 59 61  1  0  0  0
 59 62  1  0  0  0
 60133  1  0  0  0
 60134  1  0  0  0
 60135  1  0  0  0
 61136  1  0  0  0
 61137  1  0  0  0
 61138  1  0  0  0
 62139  1  0  0  0
 62140  1  0  0  0
 62141  1  0  0  0
 63 65  1  0  0  0
 63142  1  0  0  0
 63143  1  0  0  0
 63144  1  0  0  0
 64145  1  0  0  0
 65146  1  0  0  0
 68 84  1  0  0  0
 71 73  2  0  0  0
 71 74  1  0  0  0
 71147  1  0  0  0
 72 73  1  0  0  0
 72 75  2  0  0  0
 72148  1  0  0  0
 73 78  1  0  0  0
 74 79  1  0  0  0
 74 86  2  0  0  0
 75 80  1  0  0  0
 75 86  1  0  0  0
 76149  1  0  0  0
 76150  1  0  0  0
 76151  1  0  0  0
 76 85  1  0  0  0
 77 85  1  0  0  0
 77152  1  0  0  0
 77153  1  0  0  0
 77154  1  0  0  0
 78 84  1  0  0  0
 78155  1  0  0  0
 78156  1  0  0  0
 79 81  1  0  0  0
 79157  1  0  0  0
 79158  1  0  0  0
 80 82  1  0  0  0
 80159  1  0  0  0
 80160  1  0  0  0
 81 83  1  0  0  0
 81161  1  0  0  0
 81162  1  0  0  0
 82 85  1  0  0  0
 82163  1  0  0  0
 82164  1  0  0  0
 83 87  1  0  0  0
 83165  1  0  0  0
 83166  1  0  0  0
 84167  1  0  0  0
 84168  1  0  0  0
 85169  1  0  0  0
 87170  1  0  0  0
M  ISO  4   1 100  68 101  84 101  87 100
M  END
> <chiral flag>
0

> <version>
0

> <s_m_source_file>
/data/baiqing/PycharmProjects/Reinvent-master-3.2/result/LINK_invent/BTK/process_docking_weight1_custom_sum_contain_oxygen_bond_distance_aromatic_linkinvent_7_9_3/rearranged_h_0041.sdf

> <i_m_source_file_index>
10

> <r_mmod_Potential_Energy-OPLS-2005>
-144.321411132812

> <r_mmod_Stretch_Energy-OPLS-2005>
53.0293731689453

> <r_mmod_Bend_Energy-OPLS-2005>
119.925605773926

> <r_mmod_Torsional_Energy-OPLS-2005>
239.481460571289

> <r_mmod_Improper_Torsional_Energy-OPLS-2005>
3.92236232757568

> <r_mmod_Van_der_Waal_Energy-OPLS-2005>
146.201858520508

> <r_mmod_Electrostatic_Energy-OPLS-2005>
-514.301879882812

> <r_mmod_Solvation_Energy-OPLS-2005>
-215.033325195312

> <b_mmod_Minimization_Converged-OPLS-2005>
0

> <r_mmod_RMS_Derivative-OPLS-2005>
3.64526557922363

$$$$
10
                    3D
 Structure written by MMmdl.
165173  0  0  1  0            999 V2000
  -30.7466  -14.3870   20.6495 C   0  0  0  0  0  0
  -30.4248  -12.2869   19.4000 C   0  0  0  0  0  0
  -29.4908  -12.5218   18.1973 C   0  0  0  0  0  0
  -28.0094  -12.3870   18.6083 C   0  0  0  0  0  0
  -27.6726  -13.1973   19.8903 C   0  0  2  0  0  0
  -28.7168  -12.9189   20.9952 C   0  0  0  0  0  0
  -25.2647  -13.8157   20.5741 C   0  0  0  0  0  0
  -24.1875  -13.0429   20.9180 C   0  0  0  0  0  0
  -24.6388  -11.6896   20.8717 C   0  0  0  0  0  0
  -23.9048  -10.4266   21.0386 C   0  0  0  0  0  0
  -24.3587   -9.4178   21.9169 C   0  0  0  0  0  0
  -23.6277   -8.2204   22.0733 C   0  0  0  0  0  0
  -22.4260   -8.0250   21.3537 C   0  0  0  0  0  0
  -21.9886   -9.0229   20.4650 C   0  0  0  0  0  0
  -22.7211  -10.2110   20.3065 C   0  0  0  0  0  0
  -21.6829   -6.0732   22.5280 C   0  0  0  0  0  0
  -21.4017   -6.5633   23.8214 C   0  0  0  0  0  0
  -21.3657   -5.6783   24.9167 C   0  0  0  0  0  0
  -21.6026   -4.3043   24.7224 C   0  0  0  0  0  0
  -21.8812   -3.8152   23.4335 C   0  0  0  0  0  0
  -21.9183   -4.6962   22.3389 C   0  0  0  0  0  0
  -22.7891  -13.5271   21.1817 C   0  0  0  0  0  0
  -22.1659   -4.2146   21.0975 F   0  0  0  0  0  0
  -21.5601   -3.4522   25.7727 F   0  0  0  0  0  0
  -30.0464  -13.2379   20.4541 N   0  0  0  0  0  0
  -26.3078  -12.9299   20.3455 N   0  0  0  0  0  0
  -25.9318  -11.6460   20.5763 N   0  0  0  0  0  0
  -22.0509  -12.8286   22.0376 N   0  0  0  0  0  0
  -25.4372  -15.1870   20.4139 N   0  0  0  0  0  0
  -31.8296  -14.5994   20.0936 O   0  0  0  0  0  0
  -21.6602   -6.8874   21.4247 O   0  0  0  0  0  0
  -22.3598  -14.5566   20.6654 O   0  0  0  0  0  0
  -24.6083  -31.8722   23.2129 C   0  0  0  0  0  0
  -25.9003  -32.4846   23.8392 C   0  0  1  0  0  0
  -27.2237  -27.4732   20.0975 C   0  0  0  0  0  0
  -25.5889  -33.8646   24.2335 N   0  0  0  0  0  0
  -23.3943  -30.4950   21.5511 C   0  0  2  0  0  0
  -24.8408  -28.9739   20.1074 C   0  0  0  0  0  0
  -22.7374  -29.4670   22.4981 C   0  0  0  0  0  0
  -18.0275  -28.1335   22.8522 C   0  0  0  0  0  0
  -24.1488  -36.7327   23.2620 C   0  0  0  0  0  0
  -25.9178  -30.8500   21.3619 C   0  0  0  0  0  0
  -25.9951  -29.4884   20.7105 C   0  0  0  0  0  0
  -27.1908  -28.7435   20.7090 C   0  0  0  0  0  0
  -26.0683  -26.9790   19.4600 C   0  0  0  0  0  0
  -24.8689  -27.7152   19.4793 C   0  0  0  0  0  0
  -23.6001  -29.8335   20.1620 C   0  0  0  0  0  0
  -25.4107  -36.3129   24.0317 C   0  0  1  0  0  0
  -20.5855  -28.3650   23.1339 C   0  0  2  0  0  0
  -20.6776  -26.9375   22.5463 C   0  0  0  0  0  0
  -19.5767  -26.6318   21.5268 C   0  0  0  0  0  0
  -18.1941  -26.7858   22.1701 C   0  0  0  0  0  0
  -19.1507  -28.8813   23.2913 C   0  0  0  0  0  0
  -18.9423  -30.1428   23.8906 C   0  0  0  0  0  0
  -17.6434  -30.6565   24.0533 C   0  0  0  0  0  0
  -25.9032  -34.9484   23.5135 C   0  0  0  0  0  0
  -16.5331  -29.9056   23.6293 C   0  0  0  0  0  0
  -16.7262  -28.6460   23.0351 C   0  0  0  0  0  0
  -26.4460  -31.6610   25.0702 C   0  0  0  0  0  0
  -25.3729  -31.3732   26.1456 C   0  0  0  0  0  0
  -27.0264  -30.3045   24.6048 C   0  0  0  0  0  0
  -27.6053  -32.4317   25.7458 C   0  0  0  0  0  0
  -27.5588  -37.1823   24.8446 C   0  0  0  0  0  0
  -21.4109  -29.3023   22.3721 N   0  0  0  0  0  0
  -26.4301  -37.3805   23.9391 N   0  0  0  0  0  0
  -24.6585  -31.0855   22.1006 N   0  0  0  0  0  0
  -23.4158  -28.8201   23.3006 O   0  0  0  0  0  0
  -28.3592  -26.7066   20.1242 O   0  0  0  0  0  0
  -26.5570  -34.8941   22.4686 O   0  0  0  0  0  0
  -23.5290  -32.1450   23.7552 O   0  0  0  0  0  0
  -26.9026  -22.3281   22.1663 C   0  0  0  0  0  0
  -28.8486  -23.7587   22.2403 C   0  0  0  0  0  0
  -28.2701  -22.4974   22.4784 C   0  0  0  0  0  0
  -26.1981  -23.3991   21.5938 C   0  0  0  0  0  0
  -28.0615  -24.7876   21.6864 C   0  0  0  0  0  0
  -24.7590  -23.2319   21.1536 C   0  0  0  0  0  0
  -30.8922  -15.5931   22.8676 C   0  0  0  0  0  0
  -29.1179  -21.3286   22.9591 C   0  0  0  0  0  0
  -28.6655  -26.1674   21.4206 C   0  0  0  0  0  0
  -29.2848  -17.9585   21.1574 C   0  0  0  0  0  0
  -30.2904  -16.8755   20.7356 C   0  0  0  0  0  0
  -29.8551  -19.1234   21.9880 C   0  0  0  0  0  0
  -30.1723  -15.5381   21.5073 C   0  0  1  0  0  0
  -26.7614  -24.6004   21.3670 N   0  0  0  0  0  0
  -28.8428  -20.1917   22.0731 N   0  3  0  0  0  0
  -31.4672  -12.3922   19.0928 H   0  0  0  0  0  0
  -30.3261  -11.2637   19.7665 H   0  0  0  0  0  0
  -29.7158  -11.8128   17.4006 H   0  0  0  0  0  0
  -29.6695  -13.5202   17.7926 H   0  0  0  0  0  0
  -27.8112  -11.3269   18.7768 H   0  0  0  0  0  0
  -27.3607  -12.6947   17.7857 H   0  0  0  0  0  0
  -27.7386  -14.2540   19.6289 H   0  0  0  0  0  0
  -28.6882  -11.8633   21.2702 H   0  0  0  0  0  0
  -28.4840  -13.4391   21.9213 H   0  0  0  0  0  0
  -25.2712   -9.5645   22.4782 H   0  0  0  0  0  0
  -23.9944   -7.4597   22.7468 H   0  0  0  0  0  0
  -21.0780   -8.8787   19.8999 H   0  0  0  0  0  0
  -22.3654  -10.9669   19.6205 H   0  0  0  0  0  0
  -21.2037   -7.6148   23.9736 H   0  0  0  0  0  0
  -21.1502   -6.0497   25.9069 H   0  0  0  0  0  0
  -22.0612   -2.7620   23.2833 H   0  0  0  0  0  0
  -22.4109  -11.9952   22.4772 H   0  0  0  0  0  0
  -21.1171  -13.1411   22.2640 H   0  0  0  0  0  0
  -24.6682  -15.8401   20.5269 H   0  0  0  0  0  0
  -26.2920  -15.6312   20.0995 H   0  0  0  0  0  0
  -26.7057  -32.5594   23.1146 H   0  0  0  0  0  0
  -25.0102  -33.9784   25.0519 H   0  0  0  0  0  0
  -22.6792  -31.3089   21.4174 H   0  0  0  0  0  0
  -23.3757  -35.9661   23.3301 H   0  0  0  0  0  0
  -24.3565  -36.8932   22.2031 H   0  0  0  0  0  0
  -23.7245  -37.6541   23.6623 H   0  0  0  0  0  0
  -26.0224  -31.6239   20.5994 H   0  0  0  0  0  0
  -26.8078  -30.9020   21.9782 H   0  0  0  0  0  0
  -28.0834  -29.1355   21.1756 H   0  0  0  0  0  0
  -26.0882  -26.0101   18.9801 H   0  0  0  0  0  0
  -23.9819  -27.3195   19.0045 H   0  0  0  0  0  0
  -23.7022  -30.6126   19.4035 H   0  0  0  0  0  0
  -22.7278  -29.2471   19.8675 H   0  0  0  0  0  0
  -25.1300  -36.2004   25.0807 H   0  0  0  0  0  0
  -20.9942  -28.3252   24.1460 H   0  0  0  0  0  0
  -20.5637  -26.2263   23.3639 H   0  0  0  0  0  0
  -21.6646  -26.7383   22.1265 H   0  0  0  0  0  0
  -19.6932  -25.6227   21.1294 H   0  0  0  0  0  0
  -19.6677  -27.3132   20.6785 H   0  0  0  0  0  0
  -17.4175  -26.6478   21.4158 H   0  0  0  0  0  0
  -18.0484  -26.0007   22.9163 H   0  0  0  0  0  0
  -19.7895  -30.7235   24.2275 H   0  0  0  0  0  0
  -17.5013  -31.6268   24.5072 H   0  0  0  0  0  0
  -15.5342  -30.2986   23.7596 H   0  0  0  0  0  0
  -15.8674  -28.0766   22.7078 H   0  0  0  0  0  0
  -24.5884  -30.7097   25.7796 H   0  0  0  0  0  0
  -24.8930  -32.2901   26.4898 H   0  0  0  0  0  0
  -25.8069  -30.8905   27.0215 H   0  0  0  0  0  0
  -26.2784  -29.6837   24.1100 H   0  0  0  0  0  0
  -27.4024  -29.7265   25.4497 H   0  0  0  0  0  0
  -27.8633  -30.4353   23.9183 H   0  0  0  0  0  0
  -27.2673  -33.3590   26.2101 H   0  0  0  0  0  0
  -28.3831  -32.6925   25.0266 H   0  0  0  0  0  0
  -28.0752  -31.8399   26.5322 H   0  0  0  0  0  0
  -28.2634  -38.0105   24.7515 H   0  0  0  0  0  0
  -28.1075  -36.2641   24.6281 H   0  0  0  0  0  0
  -27.2285  -37.1485   25.8845 H   0  0  0  0  0  0
  -20.9244  -29.8734   21.6934 H   0  0  0  0  0  0
  -26.0211  -38.2891   24.1427 H   0  0  0  0  0  0
  -26.3851  -21.3926   22.3320 H   0  0  0  0  0  0
  -29.8902  -23.9377   22.4680 H   0  0  0  0  0  0
  -24.6982  -22.4823   20.3642 H   0  0  0  0  0  0
  -24.3409  -24.1596   20.7636 H   0  0  0  0  0  0
  -24.1382  -22.9025   21.9841 H   0  0  0  0  0  0
  -30.4252  -16.3180   23.5340 H   0  0  0  0  0  0
  -31.9396  -15.8729   22.7430 H   0  0  0  0  0  0
  -30.8679  -14.6260   23.3731 H   0  0  0  0  0  0
  -28.8871  -21.0775   23.9950 H   0  0  0  0  0  0
  -30.1722  -21.5973   22.9052 H   0  0  0  0  0  0
  -29.7507  -26.1037   21.5103 H   0  0  0  0  0  0
  -28.3477  -26.8316   22.2272 H   0  0  0  0  0  0
  -28.4381  -17.5139   21.6816 H   0  0  0  0  0  0
  -28.8661  -18.3688   20.2407 H   0  0  0  0  0  0
  -30.0953  -16.6738   19.6820 H   0  0  0  0  0  0
  -31.3124  -17.2557   20.7600 H   0  0  0  0  0  0
  -30.7553  -19.5247   21.5177 H   0  0  0  0  0  0
  -30.1368  -18.7881   22.9875 H   0  0  0  0  0  0
  -29.1129  -15.3814   21.6843 H   0  0  0  0  0  0
  -28.7116  -20.5882   21.1573 H   0  0  0  0  0  0
  -27.9645  -19.8047   22.3690 H   0  0  0  0  0  0
  1 25  1  0  0  0
  1 30  2  0  0  0
  1 83  1  0  0  0
  2  3  1  0  0  0
  2 25  1  0  0  0
  2 86  1  0  0  0
  2 87  1  0  0  0
  3  4  1  0  0  0
  3 88  1  0  0  0
  3 89  1  0  0  0
  4  5  1  0  0  0
  4 90  1  0  0  0
  4 91  1  0  0  0
  5  6  1  0  0  0
  5 26  1  0  0  0
  5 92  1  0  0  0
  6 25  1  0  0  0
  6 93  1  0  0  0
  6 94  1  0  0  0
  7  8  2  0  0  0
  7 26  1  0  0  0
  7 29  1  0  0  0
  8  9  1  0  0  0
  8 22  1  0  0  0
  9 10  1  0  0  0
  9 27  2  0  0  0
 10 11  2  0  0  0
 10 15  1  0  0  0
 11 12  1  0  0  0
 11 95  1  0  0  0
 12 13  2  0  0  0
 12 96  1  0  0  0
 13 14  1  0  0  0
 13 31  1  0  0  0
 14 15  2  0  0  0
 14 97  1  0  0  0
 15 98  1  0  0  0
 16 17  2  0  0  0
 16 21  1  0  0  0
 16 31  1  0  0  0
 17 18  1  0  0  0
 17 99  1  0  0  0
 18 19  2  0  0  0
 18100  1  0  0  0
 19 20  1  0  0  0
 19 24  1  0  0  0
 20 21  2  0  0  0
 20101  1  0  0  0
 21 23  1  0  0  0
 22 28  1  0  0  0
 22 32  2  0  0  0
 26 27  1  0  0  0
 28102  1  0  0  0
 28103  1  0  0  0
 29104  1  0  0  0
 29105  1  0  0  0
 33 34  1  0  0  0
 33 66  1  0  0  0
 33 70  2  0  0  0
 34 36  1  0  0  0
 34 59  1  0  0  0
 34106  1  0  0  0
 35 44  2  0  0  0
 35 45  1  0  0  0
 35 68  1  0  0  0
 36 56  1  0  0  0
 36107  1  0  0  0
 37 39  1  0  0  0
 37 47  1  0  0  0
 37 66  1  0  0  0
 37108  1  0  0  0
 38 43  2  0  0  0
 38 46  1  0  0  0
 38 47  1  0  0  0
 39 64  1  0  0  0
 39 67  2  0  0  0
 40 52  1  0  0  0
 40 53  2  0  0  0
 40 58  1  0  0  0
 41109  1  0  0  0
 41110  1  0  0  0
 41111  1  0  0  0
 41 48  1  0  0  0
 42 43  1  0  0  0
 42 66  1  0  0  0
 42112  1  0  0  0
 42113  1  0  0  0
 43 44  1  0  0  0
 44114  1  0  0  0
 45 46  2  0  0  0
 45115  1  0  0  0
 46116  1  0  0  0
 47117  1  0  0  0
 47118  1  0  0  0
 48 56  1  0  0  0
 48 65  1  0  0  0
 48119  1  0  0  0
 49 50  1  0  0  0
 49 53  1  0  0  0
 49 64  1  0  0  0
 49120  1  0  0  0
 50 51  1  0  0  0
 50121  1  0  0  0
 50122  1  0  0  0
 51 52  1  0  0  0
 51123  1  0  0  0
 51124  1  0  0  0
 52125  1  0  0  0
 52126  1  0  0  0
 53 54  1  0  0  0
 54 55  2  0  0  0
 54127  1  0  0  0
 55 57  1  0  0  0
 55128  1  0  0  0
 56 69  2  0  0  0
 57 58  2  0  0  0
 57129  1  0  0  0
 58130  1  0  0  0
 59 60  1  0  0  0
 59 61  1  0  0  0
 59 62  1  0  0  0
 60131  1  0  0  0
 60132  1  0  0  0
 60133  1  0  0  0
 61134  1  0  0  0
 61135  1  0  0  0
 61136  1  0  0  0
 62137  1  0  0  0
 62138  1  0  0  0
 62139  1  0  0  0
 63 65  1  0  0  0
 63140  1  0  0  0
 63141  1  0  0  0
 63142  1  0  0  0
 64143  1  0  0  0
 65144  1  0  0  0
 68 79  1  0  0  0
 71 73  2  0  0  0
 71 74  1  0  0  0
 71145  1  0  0  0
 72 73  1  0  0  0
 72 75  2  0  0  0
 72146  1  0  0  0
 73 78  1  0  0  0
 74 76  1  0  0  0
 74 84  2  0  0  0
 75 79  1  0  0  0
 75 84  1  0  0  0
 76147  1  0  0  0
 76148  1  0  0  0
 76149  1  0  0  0
 77150  1  0  0  0
 77151  1  0  0  0
 77152  1  0  0  0
 77 83  1  0  0  0
 78 85  1  0  0  0
 78153  1  0  0  0
 78154  1  0  0  0
 79155  1  0  0  0
 79156  1  0  0  0
 80 81  1  0  0  0
 80 82  1  0  0  0
 80157  1  0  0  0
 80158  1  0  0  0
 81 83  1  0  0  0
 81159  1  0  0  0
 81160  1  0  0  0
 82 85  1  0  0  0
 82161  1  0  0  0
 82162  1  0  0  0
 83163  1  0  0  0
 85164  1  0  0  0
 85165  1  0  0  0
M  CHG  1  85   1
M  ISO  4   1 100  68 101  79 101  83 100
M  END
> <chiral flag>
0

> <version>
0

> <s_m_source_file>
/data/baiqing/PycharmProjects/Reinvent-master-3.2/result/LINK_invent/BTK/process_docking_weight1_custom_sum_contain_oxygen_bond_distance_aromatic_linkinvent_7_9_3/rearranged_h_0041.sdf

> <i_m_source_file_index>
11

> <r_mmod_Potential_Energy-OPLS-2005>
-378.552795410156

> <r_mmod_Stretch_Energy-OPLS-2005>
32.5848503112793

> <r_mmod_Bend_Energy-OPLS-2005>
95.2579650878906

> <r_mmod_Torsional_Energy-OPLS-2005>
210.315582275391

> <r_mmod_Improper_Torsional_Energy-OPLS-2005>
2.39254593849182

> <r_mmod_Van_der_Waal_Energy-OPLS-2005>
154.297714233398

> <r_mmod_Electrostatic_Energy-OPLS-2005>
-406.589508056641

> <r_mmod_Solvation_Energy-OPLS-2005>
-476.011291503906

> <b_mmod_Minimization_Converged-OPLS-2005>
0

> <r_mmod_RMS_Derivative-OPLS-2005>
4.49677324295044

$$$$
11
                    3D
 Structure written by MMmdl.
154162  0  0  1  0            999 V2000
  -30.6550  -14.6356   20.4850 C   0  0  0  0  0  0
  -30.4274  -12.3901   19.4599 C   0  0  0  0  0  0
  -29.5078  -12.5141   18.2284 C   0  0  0  0  0  0
  -28.0279  -12.3677   18.6322 C   0  0  0  0  0  0
  -27.6521  -13.2304   19.8674 C   0  0  2  0  0  0
  -28.6984  -13.1119   20.9995 C   0  0  0  0  0  0
  -25.2564  -13.8187   20.5738 C   0  0  0  0  0  0
  -24.1857  -13.0425   20.9179 C   0  0  0  0  0  0
  -24.6445  -11.6901   20.8734 C   0  0  0  0  0  0
  -23.9088  -10.4301   21.0380 C   0  0  0  0  0  0
  -24.3624   -9.4216   21.9176 C   0  0  0  0  0  0
  -23.6308   -8.2255   22.0751 C   0  0  0  0  0  0
  -22.4289   -8.0297   21.3545 C   0  0  0  0  0  0
  -21.9920   -9.0253   20.4636 C   0  0  0  0  0  0
  -22.7236  -10.2143   20.3047 C   0  0  0  0  0  0
  -21.6885   -6.0742   22.5259 C   0  0  0  0  0  0
  -21.4023   -6.5642   23.8183 C   0  0  0  0  0  0
  -21.3662   -5.6788   24.9150 C   0  0  0  0  0  0
  -21.6048   -4.3051   24.7207 C   0  0  0  0  0  0
  -21.8817   -3.8148   23.4324 C   0  0  0  0  0  0
  -21.9205   -4.6970   22.3387 C   0  0  0  0  0  0
  -22.7869  -13.5208   21.1817 C   0  0  0  0  0  0
  -22.1676   -4.2154   21.0967 F   0  0  0  0  0  0
  -21.5621   -3.4531   25.7722 F   0  0  0  0  0  0
  -30.0121  -13.4281   20.4223 N   0  0  0  0  0  0
  -26.3005  -12.9404   20.3372 N   0  0  0  0  0  0
  -25.9392  -11.6534   20.5777 N   0  0  0  0  0  0
  -22.0537  -12.8216   22.0387 N   0  0  0  0  0  0
  -25.4255  -15.1934   20.4166 N   0  0  0  0  0  0
  -31.8300  -14.7571   20.1327 O   0  0  0  0  0  0
  -21.6659   -6.8894   21.4231 O   0  0  0  0  0  0
  -22.3560  -14.5528   20.6665 O   0  0  0  0  0  0
  -24.6278  -31.8576   23.1991 C   0  0  0  0  0  0
  -25.9118  -32.4754   23.8336 C   0  0  1  0  0  0
  -27.2229  -27.3230   20.1173 C   0  0  0  0  0  0
  -25.5924  -33.8557   24.2263 N   0  0  0  0  0  0
  -23.4196  -30.4825   21.5432 C   0  0  2  0  0  0
  -24.8630  -28.9381   20.1108 C   0  0  0  0  0  0
  -22.7469  -29.4617   22.4931 C   0  0  0  0  0  0
  -18.0264  -28.1371   22.8469 C   0  0  0  0  0  0
  -24.1482  -36.7311   23.2640 C   0  0  0  0  0  0
  -25.9589  -30.7933   21.3642 C   0  0  0  0  0  0
  -26.0333  -29.4213   20.7097 C   0  0  0  0  0  0
  -27.2172  -28.6277   20.6992 C   0  0  0  0  0  0
  -26.0231  -26.8845   19.5097 C   0  0  0  0  0  0
  -24.8601  -27.6751   19.5021 C   0  0  0  0  0  0
  -23.6316  -29.8190   20.1574 C   0  0  0  0  0  0
  -25.4100  -36.3068   24.0322 C   0  0  1  0  0  0
  -20.5867  -28.3682   23.1269 C   0  0  2  0  0  0
  -20.6740  -26.9403   22.5413 C   0  0  0  0  0  0
  -19.5727  -26.6367   21.5196 C   0  0  0  0  0  0
  -18.1908  -26.7905   22.1619 C   0  0  0  0  0  0
  -19.1521  -28.8838   23.2859 C   0  0  0  0  0  0
  -18.9458  -30.1437   23.8885 C   0  0  0  0  0  0
  -17.6463  -30.6577   24.0556 C   0  0  0  0  0  0
  -25.9044  -34.9440   23.5092 C   0  0  0  0  0  0
  -16.5349  -29.9087   23.6319 C   0  0  0  0  0  0
  -16.7256  -28.6503   23.0336 C   0  0  0  0  0  0
  -26.4492  -31.6568   25.0721 C   0  0  0  0  0  0
  -25.3751  -31.3728   26.1477 C   0  0  0  0  0  0
  -27.0324  -30.2980   24.6181 C   0  0  0  0  0  0
  -27.6016  -32.4319   25.7533 C   0  0  0  0  0  0
  -27.5564  -37.1809   24.8459 C   0  0  0  0  0  0
  -21.4179  -29.3044   22.3689 N   0  0  0  0  0  0
  -26.4269  -37.3774   23.9408 N   0  0  0  0  0  0
  -24.6881  -31.0594   22.0926 N   0  0  0  0  0  0
  -23.4183  -28.8134   23.3001 O   0  0  0  0  0  0
  -28.3523  -26.4927   20.1526 O   0  0  0  0  0  0
  -26.5631  -34.8919   22.4670 O   0  0  0  0  0  0
  -23.5443  -32.1371   23.7328 O   0  0  0  0  0  0
  -29.3729  -20.5204   21.4785 C   0  0  0  0  0  0
  -29.2621  -19.7406   20.3072 C   0  0  0  0  0  0
  -29.1733  -20.5209   19.1236 C   0  0  0  0  0  0
  -29.2827  -22.5336   20.3065 C   0  0  0  0  0  0
  -29.0096  -19.8972   17.7510 C   0  0  0  0  0  0
  -29.0545  -18.1800   20.3689 C   0  0  0  0  0  0
  -29.4311  -24.1019   20.2972 C   0  0  0  0  0  0
  -30.2648  -17.1939   20.6524 C   0  0  0  0  0  0
  -28.1525  -25.0223   20.1345 C   0  0  0  0  0  0
  -29.3711  -21.8835   21.4724 N   0  0  0  0  0  0
  -29.1937  -21.8840   19.1409 N   0  0  0  0  0  0
  -29.8888  -15.7375   20.7525 N   0  0  0  0  0  0
  -31.4697  -12.4992   19.1600 H   0  0  0  0  0  0
  -30.3487  -11.3979   19.9067 H   0  0  0  0  0  0
  -29.7673  -11.7591   17.4849 H   0  0  0  0  0  0
  -29.6708  -13.4849   17.7540 H   0  0  0  0  0  0
  -27.8473  -11.3131   18.8421 H   0  0  0  0  0  0
  -27.3830  -12.6282   17.7912 H   0  0  0  0  0  0
  -27.6642  -14.2640   19.5205 H   0  0  0  0  0  0
  -28.7081  -12.1065   21.4251 H   0  0  0  0  0  0
  -28.4574  -13.7858   21.8227 H   0  0  0  0  0  0
  -25.2771   -9.5718   22.4746 H   0  0  0  0  0  0
  -24.0029   -7.4669   22.7477 H   0  0  0  0  0  0
  -21.0832   -8.8749   19.8958 H   0  0  0  0  0  0
  -22.3659  -10.9684   19.6157 H   0  0  0  0  0  0
  -21.2032   -7.6153   23.9687 H   0  0  0  0  0  0
  -21.1478   -6.0529   25.9054 H   0  0  0  0  0  0
  -22.0612   -2.7619   23.2803 H   0  0  0  0  0  0
  -22.4151  -11.9870   22.4774 H   0  0  0  0  0  0
  -21.1164  -13.1252   22.2601 H   0  0  0  0  0  0
  -24.6534  -15.8449   20.5141 H   0  0  0  0  0  0
  -26.2695  -15.6330   20.0729 H   0  0  0  0  0  0
  -26.7211  -32.5426   23.1110 H   0  0  0  0  0  0
  -25.0031  -33.9692   25.0380 H   0  0  0  0  0  0
  -22.7150  -31.3040   21.4013 H   0  0  0  0  0  0
  -23.3707  -35.9682   23.3291 H   0  0  0  0  0  0
  -24.3586  -36.8942   22.2058 H   0  0  0  0  0  0
  -23.7273  -37.6524   23.6681 H   0  0  0  0  0  0
  -26.0826  -31.5518   20.5901 H   0  0  0  0  0  0
  -26.8384  -30.8431   21.9925 H   0  0  0  0  0  0
  -28.1185  -28.9952   21.1694 H   0  0  0  0  0  0
  -25.9491  -25.9177   19.0384 H   0  0  0  0  0  0
  -23.9603  -27.2956   19.0348 H   0  0  0  0  0  0
  -23.7535  -30.5946   19.3999 H   0  0  0  0  0  0
  -22.7474  -29.2549   19.8540 H   0  0  0  0  0  0
  -25.1274  -36.1910   25.0812 H   0  0  0  0  0  0
  -20.9943  -28.3238   24.1388 H   0  0  0  0  0  0
  -20.5571  -26.2306   23.3612 H   0  0  0  0  0  0
  -21.6614  -26.7382   22.1250 H   0  0  0  0  0  0
  -19.6880  -25.6267   21.1232 H   0  0  0  0  0  0
  -19.6649  -27.3160   20.6703 H   0  0  0  0  0  0
  -17.4165  -26.6615   21.4035 H   0  0  0  0  0  0
  -18.0335  -26.0055   22.9030 H   0  0  0  0  0  0
  -19.7949  -30.7240   24.2248 H   0  0  0  0  0  0
  -17.5035  -31.6255   24.5166 H   0  0  0  0  0  0
  -15.5355  -30.3002   23.7636 H   0  0  0  0  0  0
  -15.8651  -28.0833   22.7048 H   0  0  0  0  0  0
  -24.5910  -30.7064   25.7862 H   0  0  0  0  0  0
  -24.8980  -32.2912   26.4912 H   0  0  0  0  0  0
  -25.8116  -30.8940   27.0254 H   0  0  0  0  0  0
  -26.2903  -29.6750   24.1173 H   0  0  0  0  0  0
  -27.3955  -29.7211   25.4696 H   0  0  0  0  0  0
  -27.8801  -30.4215   23.9434 H   0  0  0  0  0  0
  -27.2554  -33.3595   26.2109 H   0  0  0  0  0  0
  -28.3860  -32.6914   25.0410 H   0  0  0  0  0  0
  -28.0657  -31.8467   26.5485 H   0  0  0  0  0  0
  -28.2567  -38.0116   24.7479 H   0  0  0  0  0  0
  -28.1064  -36.2637   24.6290 H   0  0  0  0  0  0
  -27.2299  -37.1469   25.8869 H   0  0  0  0  0  0
  -20.9345  -29.8881   21.7011 H   0  0  0  0  0  0
  -26.0129  -38.2841   24.1409 H   0  0  0  0  0  0
  -29.4302  -20.0402   22.4440 H   0  0  0  0  0  0
  -27.9644  -19.6397   17.5679 H   0  0  0  0  0  0
  -29.6215  -19.0007   17.6518 H   0  0  0  0  0  0
  -29.3180  -20.5980   16.9744 H   0  0  0  0  0  0
  -28.5559  -17.8596   19.4533 H   0  0  0  0  0  0
  -28.3101  -18.0109   21.1484 H   0  0  0  0  0  0
  -30.1282  -24.3513   19.4987 H   0  0  0  0  0  0
  -29.9539  -24.3939   21.2091 H   0  0  0  0  0  0
  -31.0180  -17.3209   19.8727 H   0  0  0  0  0  0
  -30.7483  -17.4755   21.5901 H   0  0  0  0  0  0
  -27.4469  -24.7626   20.9251 H   0  0  0  0  0  0
  -27.6811  -24.7294   19.1961 H   0  0  0  0  0  0
  -28.9326  -15.5442   21.0107 H   0  0  0  0  0  0
  1 25  1  0  0  0
  1 30  2  0  0  0
  1 82  1  0  0  0
  2  3  1  0  0  0
  2 25  1  0  0  0
  2 83  1  0  0  0
  2 84  1  0  0  0
  3  4  1  0  0  0
  3 85  1  0  0  0
  3 86  1  0  0  0
  4  5  1  0  0  0
  4 87  1  0  0  0
  4 88  1  0  0  0
  5  6  1  0  0  0
  5 26  1  0  0  0
  5 89  1  0  0  0
  6 25  1  0  0  0
  6 90  1  0  0  0
  6 91  1  0  0  0
  7  8  2  0  0  0
  7 26  1  0  0  0
  7 29  1  0  0  0
  8  9  1  0  0  0
  8 22  1  0  0  0
  9 10  1  0  0  0
  9 27  2  0  0  0
 10 11  2  0  0  0
 10 15  1  0  0  0
 11 12  1  0  0  0
 11 92  1  0  0  0
 12 13  2  0  0  0
 12 93  1  0  0  0
 13 14  1  0  0  0
 13 31  1  0  0  0
 14 15  2  0  0  0
 14 94  1  0  0  0
 15 95  1  0  0  0
 16 17  2  0  0  0
 16 21  1  0  0  0
 16 31  1  0  0  0
 17 18  1  0  0  0
 17 96  1  0  0  0
 18 19  2  0  0  0
 18 97  1  0  0  0
 19 20  1  0  0  0
 19 24  1  0  0  0
 20 21  2  0  0  0
 20 98  1  0  0  0
 21 23  1  0  0  0
 22 28  1  0  0  0
 22 32  2  0  0  0
 26 27  1  0  0  0
 28 99  1  0  0  0
 28100  1  0  0  0
 29101  1  0  0  0
 29102  1  0  0  0
 33 34  1  0  0  0
 33 66  1  0  0  0
 33 70  2  0  0  0
 34 36  1  0  0  0
 34 59  1  0  0  0
 34103  1  0  0  0
 35 44  2  0  0  0
 35 45  1  0  0  0
 35 68  1  0  0  0
 36 56  1  0  0  0
 36104  1  0  0  0
 37 39  1  0  0  0
 37 47  1  0  0  0
 37 66  1  0  0  0
 37105  1  0  0  0
 38 43  2  0  0  0
 38 46  1  0  0  0
 38 47  1  0  0  0
 39 64  1  0  0  0
 39 67  2  0  0  0
 40 52  1  0  0  0
 40 53  2  0  0  0
 40 58  1  0  0  0
 41106  1  0  0  0
 41107  1  0  0  0
 41108  1  0  0  0
 41 48  1  0  0  0
 42 43  1  0  0  0
 42 66  1  0  0  0
 42109  1  0  0  0
 42110  1  0  0  0
 43 44  1  0  0  0
 44111  1  0  0  0
 45 46  2  0  0  0
 45112  1  0  0  0
 46113  1  0  0  0
 47114  1  0  0  0
 47115  1  0  0  0
 48 56  1  0  0  0
 48 65  1  0  0  0
 48116  1  0  0  0
 49 50  1  0  0  0
 49 53  1  0  0  0
 49 64  1  0  0  0
 49117  1  0  0  0
 50 51  1  0  0  0
 50118  1  0  0  0
 50119  1  0  0  0
 51 52  1  0  0  0
 51120  1  0  0  0
 51121  1  0  0  0
 52122  1  0  0  0
 52123  1  0  0  0
 53 54  1  0  0  0
 54 55  2  0  0  0
 54124  1  0  0  0
 55 57  1  0  0  0
 55125  1  0  0  0
 56 69  2  0  0  0
 57 58  2  0  0  0
 57126  1  0  0  0
 58127  1  0  0  0
 59 60  1  0  0  0
 59 61  1  0  0  0
 59 62  1  0  0  0
 60128  1  0  0  0
 60129  1  0  0  0
 60130  1  0  0  0
 61131  1  0  0  0
 61132  1  0  0  0
 61133  1  0  0  0
 62134  1  0  0  0
 62135  1  0  0  0
 62136  1  0  0  0
 63 65  1  0  0  0
 63137  1  0  0  0
 63138  1  0  0  0
 63139  1  0  0  0
 64140  1  0  0  0
 65141  1  0  0  0
 68 79  1  0  0  0
 71 72  2  0  0  0
 71 80  1  0  0  0
 71142  1  0  0  0
 72 73  1  0  0  0
 72 76  1  0  0  0
 73 75  1  0  0  0
 73 81  2  0  0  0
 74 77  1  0  0  0
 74 80  2  0  0  0
 74 81  1  0  0  0
 75143  1  0  0  0
 75144  1  0  0  0
 75145  1  0  0  0
 76 78  1  0  0  0
 76146  1  0  0  0
 76147  1  0  0  0
 77 79  1  0  0  0
 77148  1  0  0  0
 77149  1  0  0  0
 78 82  1  0  0  0
 78150  1  0  0  0
 78151  1  0  0  0
 79152  1  0  0  0
 79153  1  0  0  0
 82154  1  0  0  0
M  ISO  4   1 100  68 101  79 101  82 100
M  END
> <chiral flag>
0

> <version>
0

> <s_m_source_file>
/data/baiqing/PycharmProjects/Reinvent-master-3.2/result/LINK_invent/BTK/process_docking_weight1_custom_sum_contain_oxygen_bond_distance_aromatic_linkinvent_7_9_3/rearranged_h_0041.sdf

> <i_m_source_file_index>
12

> <r_mmod_Potential_Energy-OPLS-2005>
-426.691162109375

> <r_mmod_Stretch_Energy-OPLS-2005>
73.7007827758789

> <r_mmod_Bend_Energy-OPLS-2005>
129.776016235352

> <r_mmod_Torsional_Energy-OPLS-2005>
190.60498046875

> <r_mmod_Improper_Torsional_Energy-OPLS-2005>
5.88813209533691

> <r_mmod_Van_der_Waal_Energy-OPLS-2005>
148.045318603516

> <r_mmod_Electrostatic_Energy-OPLS-2005>
-782.89892578125

> <r_mmod_Solvation_Energy-OPLS-2005>
-238.909545898438

> <b_mmod_Minimization_Converged-OPLS-2005>
0

> <r_mmod_RMS_Derivative-OPLS-2005>
4.06267404556274

$$$$
12
                    3D
 Structure written by MMmdl.
148156  0  0  1  0            999 V2000
  -30.4666  -15.2158   20.3779 C   0  0  0  0  0  0
  -30.4380  -12.7749   19.5220 C   0  0  0  0  0  0
  -29.5331  -12.5674   18.2826 C   0  0  0  0  0  0
  -28.0792  -12.3013   18.7101 C   0  0  0  0  0  0
  -27.6138  -13.2727   19.8241 C   0  0  2  0  0  0
  -28.6493  -13.4312   20.9578 C   0  0  0  0  0  0
  -25.2399  -13.8247   20.5748 C   0  0  0  0  0  0
  -24.1747  -13.0438   20.9257 C   0  0  0  0  0  0
  -24.6399  -11.6935   20.8764 C   0  0  0  0  0  0
  -23.9094  -10.4294   21.0409 C   0  0  0  0  0  0
  -24.3638   -9.4206   21.9187 C   0  0  0  0  0  0
  -23.6306   -8.2244   22.0756 C   0  0  0  0  0  0
  -22.4288   -8.0286   21.3546 C   0  0  0  0  0  0
  -21.9931   -9.0259   20.4645 C   0  0  0  0  0  0
  -22.7267  -10.2135   20.3054 C   0  0  0  0  0  0
  -21.6856   -6.0741   22.5279 C   0  0  0  0  0  0
  -21.4017   -6.5643   23.8213 C   0  0  0  0  0  0
  -21.3659   -5.6794   24.9173 C   0  0  0  0  0  0
  -21.6043   -4.3057   24.7223 C   0  0  0  0  0  0
  -21.8819   -3.8150   23.4343 C   0  0  0  0  0  0
  -21.9193   -4.6968   22.3400 C   0  0  0  0  0  0
  -22.7762  -13.5189   21.1898 C   0  0  0  0  0  0
  -22.1661   -4.2156   21.0977 F   0  0  0  0  0  0
  -21.5626   -3.4537   25.7733 F   0  0  0  0  0  0
  -29.8877  -13.9203   20.3324 N   0  0  0  0  0  0
  -26.2825  -12.9518   20.3221 N   0  0  0  0  0  0
  -25.9336  -11.6624   20.5724 N   0  0  0  0  0  0
  -22.0416  -12.8173   22.0452 N   0  0  0  0  0  0
  -25.4031  -15.1983   20.4184 N   0  0  0  0  0  0
  -31.6867  -15.2102   20.1640 O   0  0  0  0  0  0
  -21.6643   -6.8888   21.4243 O   0  0  0  0  0  0
  -22.3442  -14.5487   20.6734 O   0  0  0  0  0  0
  -24.6605  -31.8271   23.1742 C   0  0  0  0  0  0
  -25.9299  -32.4609   23.8194 C   0  0  1  0  0  0
  -27.2153  -26.9563   20.1771 C   0  0  0  0  0  0
  -25.5980  -33.8422   24.2106 N   0  0  0  0  0  0
  -23.4737  -30.4410   21.5233 C   0  0  2  0  0  0
  -24.9270  -28.8365   20.1121 C   0  0  0  0  0  0
  -22.7654  -29.4462   22.4797 C   0  0  0  0  0  0
  -18.0320  -28.1407   22.8474 C   0  0  0  0  0  0
  -24.1495  -36.7215   23.2646 C   0  0  0  0  0  0
  -26.0421  -30.6432   21.4004 C   0  0  0  0  0  0
  -26.1110  -29.2362   20.7443 C   0  0  0  0  0  0
  -27.2517  -28.3165   20.7543 C   0  0  0  0  0  0
  -26.0033  -26.7085   19.4923 C   0  0  0  0  0  0
  -24.8973  -27.5926   19.4657 C   0  0  0  0  0  0
  -23.7118  -29.7603   20.1482 C   0  0  0  0  0  0
  -25.4135  -36.2980   24.0304 C   0  0  1  0  0  0
  -20.5943  -28.3750   23.1198 C   0  0  2  0  0  0
  -20.6797  -26.9434   22.5403 C   0  0  0  0  0  0
  -19.5771  -26.6382   21.5214 C   0  0  0  0  0  0
  -18.1954  -26.7945   22.1623 C   0  0  0  0  0  0
  -19.1580  -28.8900   23.2824 C   0  0  0  0  0  0
  -18.9489  -30.1491   23.8856 C   0  0  0  0  0  0
  -17.6482  -30.6598   24.0557 C   0  0  0  0  0  0
  -25.9093  -34.9361   23.5023 C   0  0  0  0  0  0
  -16.5374  -29.9084   23.6343 C   0  0  0  0  0  0
  -16.7302  -28.6503   23.0365 C   0  0  0  0  0  0
  -26.4562  -31.6536   25.0704 C   0  0  0  0  0  0
  -25.3697  -31.3779   26.1367 C   0  0  0  0  0  0
  -27.0450  -30.2909   24.6406 C   0  0  0  0  0  0
  -27.6065  -32.4334   25.7499 C   0  0  0  0  0  0
  -27.5570  -37.1771   24.8470 C   0  0  0  0  0  0
  -21.4325  -29.3047   22.3550 N   0  0  0  0  0  0
  -26.4285  -37.3708   23.9401 N   0  0  0  0  0  0
  -24.7467  -30.9963   22.0865 N   0  0  0  0  0  0
  -23.4218  -28.8025   23.3021 O   0  0  0  0  0  0
  -28.2035  -25.8470   20.2619 O   0  0  0  0  0  0
  -26.5691  -34.8887   22.4610 O   0  0  0  0  0  0
  -23.5682  -32.1225   23.6855 O   0  0  0  0  0  0
  -29.7102  -20.7140   19.3177 C   0  0  0  0  0  0
  -29.4073  -19.6866   20.3053 C   0  0  0  0  0  0
  -28.6426  -20.4366   21.2907 C   0  0  0  0  0  0
  -28.6191  -22.7204   20.2660 C   0  0  0  0  0  0
  -28.1840  -19.7268   22.5468 C   0  0  0  0  0  0
  -30.1456  -18.0951   20.3506 C   0  0  0  0  0  0
  -27.8270  -24.2670   20.0608 C   0  0  0  0  0  0
  -29.3341  -22.0818   19.2889 N   0  0  0  0  0  0
  -28.2712  -21.8117   21.2421 N   0  0  0  0  0  0
  -29.7248  -16.4939   20.4576 N   0  0  0  0  0  0
  -31.4601  -12.9676   19.1925 H   0  0  0  0  0  0
  -30.4912  -11.8642   20.1209 H   0  0  0  0  0  0
  -29.9035  -11.7415   17.6737 H   0  0  0  0  0  0
  -29.5719  -13.4567   17.6516 H   0  0  0  0  0  0
  -28.0281  -11.2754   19.0765 H   0  0  0  0  0  0
  -27.4108  -12.3529   17.8499 H   0  0  0  0  0  0
  -27.5343  -14.2435   19.3333 H   0  0  0  0  0  0
  -28.8061  -12.4923   21.4911 H   0  0  0  0  0  0
  -28.2984  -14.1550   21.6953 H   0  0  0  0  0  0
  -25.2779   -9.5678   22.4769 H   0  0  0  0  0  0
  -24.0008   -7.4634   22.7479 H   0  0  0  0  0  0
  -21.0862   -8.8783   19.8949 H   0  0  0  0  0  0
  -22.3728  -10.9674   19.6164 H   0  0  0  0  0  0
  -21.2014   -7.6152   23.9721 H   0  0  0  0  0  0
  -21.1479   -6.0521   25.9078 H   0  0  0  0  0  0
  -22.0599   -2.7613   23.2837 H   0  0  0  0  0  0
  -22.4039  -11.9840   22.4842 H   0  0  0  0  0  0
  -21.1024  -13.1182   22.2642 H   0  0  0  0  0  0
  -24.6317  -15.8472   20.5325 H   0  0  0  0  0  0
  -26.2413  -15.6405   20.0653 H   0  0  0  0  0  0
  -26.7367  -32.5163   23.0911 H   0  0  0  0  0  0
  -25.0100  -33.9508   25.0238 H   0  0  0  0  0  0
  -22.7854  -31.2721   21.3560 H   0  0  0  0  0  0
  -23.3760  -35.9543   23.3294 H   0  0  0  0  0  0
  -24.3572  -36.8865   22.2063 H   0  0  0  0  0  0
  -23.7248  -37.6402   23.6703 H   0  0  0  0  0  0
  -26.2174  -31.3862   20.6213 H   0  0  0  0  0  0
  -26.9045  -30.7015   22.0525 H   0  0  0  0  0  0
  -28.1467  -28.6185   21.2798 H   0  0  0  0  0  0
  -25.8648  -25.7624   18.9919 H   0  0  0  0  0  0
  -23.9980  -27.2823   18.9514 H   0  0  0  0  0  0
  -23.8649  -30.5303   19.3912 H   0  0  0  0  0  0
  -22.8220  -29.2134   19.8307 H   0  0  0  0  0  0
  -25.1333  -36.1784   25.0795 H   0  0  0  0  0  0
  -21.0037  -28.3348   24.1319 H   0  0  0  0  0  0
  -20.5681  -26.2364   23.3638 H   0  0  0  0  0  0
  -21.6661  -26.7416   22.1205 H   0  0  0  0  0  0
  -19.6924  -25.6281   21.1269 H   0  0  0  0  0  0
  -19.6704  -27.3172   20.6726 H   0  0  0  0  0  0
  -17.4222  -26.6694   21.4026 H   0  0  0  0  0  0
  -18.0345  -26.0096   22.9027 H   0  0  0  0  0  0
  -19.7960  -30.7326   24.2203 H   0  0  0  0  0  0
  -17.5027  -31.6271   24.5167 H   0  0  0  0  0  0
  -15.5370  -30.2970   23.7690 H   0  0  0  0  0  0
  -15.8703  -28.0806   22.7105 H   0  0  0  0  0  0
  -24.5900  -30.7103   25.7681 H   0  0  0  0  0  0
  -24.8864  -32.2977   26.4669 H   0  0  0  0  0  0
  -25.7943  -30.9031   27.0222 H   0  0  0  0  0  0
  -26.3110  -29.6597   24.1388 H   0  0  0  0  0  0
  -27.3972  -29.7256   25.5044 H   0  0  0  0  0  0
  -27.9056  -30.4101   23.9822 H   0  0  0  0  0  0
  -27.2650  -33.3684   26.1953 H   0  0  0  0  0  0
  -28.3944  -32.6809   25.0373 H   0  0  0  0  0  0
  -28.0658  -31.8533   26.5514 H   0  0  0  0  0  0
  -28.2587  -38.0065   24.7496 H   0  0  0  0  0  0
  -28.1062  -36.2591   24.6329 H   0  0  0  0  0  0
  -27.2281  -37.1455   25.8872 H   0  0  0  0  0  0
  -20.9571  -29.8737   21.6684 H   0  0  0  0  0  0
  -26.0135  -38.2769   24.1392 H   0  0  0  0  0  0
  -30.3352  -20.4300   18.4840 H   0  0  0  0  0  0
  -28.7351  -18.8004   22.7040 H   0  0  0  0  0  0
  -27.1241  -19.4839   22.4756 H   0  0  0  0  0  0
  -28.3335  -20.3558   23.4245 H   0  0  0  0  0  0
  -30.8603  -18.1976   21.1682 H   0  0  0  0  0  0
  -30.7823  -18.1044   19.4650 H   0  0  0  0  0  0
  -26.9109  -24.1501   20.6399 H   0  0  0  0  0  0
  -27.4949  -24.2164   19.0244 H   0  0  0  0  0  0
  -28.7350  -16.3426   20.5859 H   0  0  0  0  0  0
  1 25  1  0  0  0
  1 30  2  0  0  0
  1 80  1  0  0  0
  2  3  1  0  0  0
  2 25  1  0  0  0
  2 81  1  0  0  0
  2 82  1  0  0  0
  3  4  1  0  0  0
  3 83  1  0  0  0
  3 84  1  0  0  0
  4  5  1  0  0  0
  4 85  1  0  0  0
  4 86  1  0  0  0
  5  6  1  0  0  0
  5 26  1  0  0  0
  5 87  1  0  0  0
  6 25  1  0  0  0
  6 88  1  0  0  0
  6 89  1  0  0  0
  7  8  2  0  0  0
  7 26  1  0  0  0
  7 29  1  0  0  0
  8  9  1  0  0  0
  8 22  1  0  0  0
  9 10  1  0  0  0
  9 27  2  0  0  0
 10 11  2  0  0  0
 10 15  1  0  0  0
 11 12  1  0  0  0
 11 90  1  0  0  0
 12 13  2  0  0  0
 12 91  1  0  0  0
 13 14  1  0  0  0
 13 31  1  0  0  0
 14 15  2  0  0  0
 14 92  1  0  0  0
 15 93  1  0  0  0
 16 17  2  0  0  0
 16 21  1  0  0  0
 16 31  1  0  0  0
 17 18  1  0  0  0
 17 94  1  0  0  0
 18 19  2  0  0  0
 18 95  1  0  0  0
 19 20  1  0  0  0
 19 24  1  0  0  0
 20 21  2  0  0  0
 20 96  1  0  0  0
 21 23  1  0  0  0
 22 28  1  0  0  0
 22 32  2  0  0  0
 26 27  1  0  0  0
 28 97  1  0  0  0
 28 98  1  0  0  0
 29 99  1  0  0  0
 29100  1  0  0  0
 33 34  1  0  0  0
 33 66  1  0  0  0
 33 70  2  0  0  0
 34 36  1  0  0  0
 34 59  1  0  0  0
 34101  1  0  0  0
 35 44  2  0  0  0
 35 45  1  0  0  0
 35 68  1  0  0  0
 36 56  1  0  0  0
 36102  1  0  0  0
 37 39  1  0  0  0
 37 47  1  0  0  0
 37 66  1  0  0  0
 37103  1  0  0  0
 38 43  2  0  0  0
 38 46  1  0  0  0
 38 47  1  0  0  0
 39 64  1  0  0  0
 39 67  2  0  0  0
 40 52  1  0  0  0
 40 53  2  0  0  0
 40 58  1  0  0  0
 41104  1  0  0  0
 41105  1  0  0  0
 41106  1  0  0  0
 41 48  1  0  0  0
 42 43  1  0  0  0
 42 66  1  0  0  0
 42107  1  0  0  0
 42108  1  0  0  0
 43 44  1  0  0  0
 44109  1  0  0  0
 45 46  2  0  0  0
 45110  1  0  0  0
 46111  1  0  0  0
 47112  1  0  0  0
 47113  1  0  0  0
 48 56  1  0  0  0
 48 65  1  0  0  0
 48114  1  0  0  0
 49 50  1  0  0  0
 49 53  1  0  0  0
 49 64  1  0  0  0
 49115  1  0  0  0
 50 51  1  0  0  0
 50116  1  0  0  0
 50117  1  0  0  0
 51 52  1  0  0  0
 51118  1  0  0  0
 51119  1  0  0  0
 52120  1  0  0  0
 52121  1  0  0  0
 53 54  1  0  0  0
 54 55  2  0  0  0
 54122  1  0  0  0
 55 57  1  0  0  0
 55123  1  0  0  0
 56 69  2  0  0  0
 57 58  2  0  0  0
 57124  1  0  0  0
 58125  1  0  0  0
 59 60  1  0  0  0
 59 61  1  0  0  0
 59 62  1  0  0  0
 60126  1  0  0  0
 60127  1  0  0  0
 60128  1  0  0  0
 61129  1  0  0  0
 61130  1  0  0  0
 61131  1  0  0  0
 62132  1  0  0  0
 62133  1  0  0  0
 62134  1  0  0  0
 63 65  1  0  0  0
 63135  1  0  0  0
 63136  1  0  0  0
 63137  1  0  0  0
 64138  1  0  0  0
 65139  1  0  0  0
 68 77  1  0  0  0
 71 72  2  0  0  0
 71 78  1  0  0  0
 71140  1  0  0  0
 72 73  1  0  0  0
 72 76  1  0  0  0
 73 75  1  0  0  0
 73 79  2  0  0  0
 74 77  1  0  0  0
 74 78  2  0  0  0
 74 79  1  0  0  0
 75141  1  0  0  0
 75142  1  0  0  0
 75143  1  0  0  0
 76 80  1  0  0  0
 76144  1  0  0  0
 76145  1  0  0  0
 77146  1  0  0  0
 77147  1  0  0  0
 80148  1  0  0  0
M  ISO  4   1 100  68 101  77 101  80 100
M  END
> <chiral flag>
0

> <version>
0

> <s_m_source_file>
/data/baiqing/PycharmProjects/Reinvent-master-3.2/result/LINK_invent/BTK/process_docking_weight1_custom_sum_contain_oxygen_bond_distance_aromatic_linkinvent_7_9_3/rearranged_h_0041.sdf

> <i_m_source_file_index>
13

> <r_mmod_Potential_Energy-OPLS-2005>
810.883056640625

> <r_mmod_Stretch_Energy-OPLS-2005>
484.482269287109

> <r_mmod_Bend_Energy-OPLS-2005>
443.674194335938

> <r_mmod_Torsional_Energy-OPLS-2005>
215.372756958008

> <r_mmod_Improper_Torsional_Energy-OPLS-2005>
9.86579322814941

> <r_mmod_Van_der_Waal_Energy-OPLS-2005>
136.795471191406

> <r_mmod_Electrostatic_Energy-OPLS-2005>
-648.921447753906

> <r_mmod_Solvation_Energy-OPLS-2005>
-244.835311889648

> <b_mmod_Minimization_Converged-OPLS-2005>
0

> <r_mmod_RMS_Derivative-OPLS-2005>
0.567332029342651

$$$$
13
                    3D
 Structure written by MMmdl.
164172  0  0  1  0            999 V2000
  -29.4675  -17.2373   19.9165 C   0  0  0  0  0  0
  -30.1422  -14.2872   19.3693 C   0  0  0  0  0  0
  -29.5335  -13.1591   18.3958 C   0  0  0  0  0  0
  -28.2859  -12.4711   18.9501 C   0  0  0  0  0  0
  -27.5349  -13.5203   19.7735 C   0  0  2  0  0  0
  -28.4007  -14.4945   20.7000 C   0  0  0  0  0  0
  -25.1983  -13.8665   20.5984 C   0  0  0  0  0  0
  -24.1633  -13.0486   20.9386 C   0  0  0  0  0  0
  -24.6640  -11.7102   20.8734 C   0  0  0  0  0  0
  -23.9349  -10.4339   21.0288 C   0  0  0  0  0  0
  -24.3796   -9.4246   21.9137 C   0  0  0  0  0  0
  -23.6405   -8.2321   22.0747 C   0  0  0  0  0  0
  -22.4375   -8.0350   21.3550 C   0  0  0  0  0  0
  -22.0069   -9.0315   20.4628 C   0  0  0  0  0  0
  -22.7470  -10.2169   20.2989 C   0  0  0  0  0  0
  -21.6893   -6.0783   22.5274 C   0  0  0  0  0  0
  -21.4035   -6.5663   23.8209 C   0  0  0  0  0  0
  -21.3671   -5.6811   24.9168 C   0  0  0  0  0  0
  -21.6044   -4.3070   24.7214 C   0  0  0  0  0  0
  -21.8813   -3.8171   23.4329 C   0  0  0  0  0  0
  -21.9191   -4.7001   22.3388 C   0  0  0  0  0  0
  -22.7576  -13.5025   21.1967 C   0  0  0  0  0  0
  -22.1659   -4.2177   21.0969 F   0  0  0  0  0  0
  -21.5624   -3.4544   25.7723 F   0  0  0  0  0  0
  -29.2134  -15.5688   19.8799 N   0  0  0  0  0  0
  -26.2743  -13.0466   20.3465 N   0  0  0  0  0  0
  -25.9667  -11.7289   20.5528 N   0  0  0  0  0  0
  -22.0331  -12.7944   22.0509 N   0  0  0  0  0  0
  -25.3163  -15.2405   20.4249 N   0  0  0  0  0  0
  -30.7293  -16.9561   20.0145 O   0  0  0  0  0  0
  -21.6700   -6.8960   21.4259 O   0  0  0  0  0  0
  -22.3157  -14.5292   20.6775 O   0  0  0  0  0  0
  -24.8065  -31.5652   22.8218 C   0  0  0  0  0  0
  -25.9651  -32.3277   23.6171 C   0  0  1  0  0  0
  -27.9235  -25.8230   21.1301 C   0  0  0  0  0  0
  -25.5438  -33.7128   23.9977 N   0  0  0  0  0  0
  -23.5750  -30.0230   21.3134 C   0  0  2  0  0  0
  -24.9369  -27.9352   20.0600 C   0  0  0  0  0  0
  -22.7939  -29.3186   22.4515 C   0  0  0  0  0  0
  -18.0263  -28.1444   22.8462 C   0  0  0  0  0  0
  -24.1543  -36.6605   23.2787 C   0  0  0  0  0  0
  -25.9331  -30.2584   20.4821 C   0  0  0  0  0  0
  -26.3540  -28.5816   19.7781 C   0  0  0  0  0  0
  -28.3390  -27.2187   20.3410 C   0  0  0  0  0  0
  -26.1743  -25.4203   21.3085 C   0  0  0  0  0  0
  -24.8584  -26.4452   20.7357 C   0  0  0  0  0  0
  -23.7156  -28.9881   20.0995 C   0  0  0  0  0  0
  -25.4245  -36.2024   24.0078 C   0  0  1  0  0  0
  -20.5891  -28.3674   23.1273 C   0  0  2  0  0  0
  -20.6644  -26.9300   22.5599 C   0  0  0  0  0  0
  -19.5722  -26.6349   21.5282 C   0  0  0  0  0  0
  -18.1889  -26.7944   22.1635 C   0  0  0  0  0  0
  -19.1560  -28.8908   23.2780 C   0  0  0  0  0  0
  -18.9451  -30.1515   23.8856 C   0  0  0  0  0  0
  -17.6477  -30.6605   24.0556 C   0  0  0  0  0  0
  -25.9215  -34.8596   23.4159 C   0  0  0  0  0  0
  -16.5333  -29.9140   23.6325 C   0  0  0  0  0  0
  -16.7275  -28.6544   23.0335 C   0  0  0  0  0  0
  -26.4136  -31.6532   25.0001 C   0  0  0  0  0  0
  -25.3012  -31.3623   26.0388 C   0  0  0  0  0  0
  -27.0829  -30.3359   24.7062 C   0  0  0  0  0  0
  -27.4963  -32.5220   25.7005 C   0  0  0  0  0  0
  -27.5534  -37.1256   24.8438 C   0  0  0  0  0  0
  -21.4482  -29.2622   22.3472 N   0  0  0  0  0  0
  -26.4167  -37.3021   23.9474 N   0  0  0  0  0  0
  -24.8864  -30.6506   21.6789 N   0  0  0  0  0  0
  -23.4131  -28.7575   23.3550 O   0  0  0  0  0  0
  -29.1134  -25.4111   21.4104 O   0  0  0  0  0  0
  -26.6472  -34.8708   22.4211 O   0  0  0  0  0  0
  -23.7072  -31.8746   23.3407 O   0  0  0  0  0  0
  -26.6946  -27.6454   21.6926 C   0  0  0  0  0  0
  -27.8338  -29.0092   21.6546 C   0  0  0  0  0  0
  -26.7251  -26.2582   19.2627 C   0  0  0  0  0  0
  -28.5441  -29.5337   20.1081 C   0  0  0  0  0  0
  -27.5933  -27.3312   18.1389 C   0  0  0  0  0  0
  -29.6984  -30.5075   20.2538 C   0  0  0  0  0  0
  -29.4729  -26.2303   16.8286 C   0  0  0  0  0  0
  -28.8590  -28.7578   22.7986 C   0  0  0  0  0  0
  -27.2086  -23.7807   19.2158 C   0  0  0  0  0  0
  -28.0345  -26.7719   16.7882 C   0  0  0  0  0  0
  -29.9895  -27.6677   22.5948 C   0  0  0  0  0  0
  -28.3099  -21.3697   19.6777 C   0  0  0  0  0  0
  -29.6534  -26.1049   22.5762 C   0  0  0  0  0  0
  -28.3910  -28.7821   18.5766 N   0  0  0  0  0  0
  -28.6374  -19.0147   19.7351 N   0  0  0  0  0  0
  -30.9721  -14.7118   18.8025 H   0  0  0  0  0  0
  -30.6674  -13.8155   20.2020 H   0  0  0  0  0  0
  -30.2888  -12.4128   18.1402 H   0  0  0  0  0  0
  -29.2713  -13.6406   17.4509 H   0  0  0  0  0  0
  -28.5775  -11.6456   19.5990 H   0  0  0  0  0  0
  -27.6715  -12.0459   18.1544 H   0  0  0  0  0  0
  -27.1931  -14.1903   18.9812 H   0  0  0  0  0  0
  -28.9821  -13.9536   21.4530 H   0  0  0  0  0  0
  -27.7334  -15.0989   21.3149 H   0  0  0  0  0  0
  -25.2916   -9.5698   22.4750 H   0  0  0  0  0  0
  -24.0054   -7.4716   22.7492 H   0  0  0  0  0  0
  -21.1006   -8.8877   19.8927 H   0  0  0  0  0  0
  -22.3933  -10.9706   19.6084 H   0  0  0  0  0  0
  -21.2047   -7.6168   23.9731 H   0  0  0  0  0  0
  -21.1501   -6.0531   25.9078 H   0  0  0  0  0  0
  -22.0575   -2.7626   23.2823 H   0  0  0  0  0  0
  -22.4010  -11.9601   22.4870 H   0  0  0  0  0  0
  -21.0887  -13.0832   22.2665 H   0  0  0  0  0  0
  -24.5374  -15.8804   20.5235 H   0  0  0  0  0  0
  -26.1622  -15.6909   20.1040 H   0  0  0  0  0  0
  -26.8278  -32.3701   22.9486 H   0  0  0  0  0  0
  -24.8838  -33.7706   24.7590 H   0  0  0  0  0  0
  -22.9423  -30.8353   20.9621 H   0  0  0  0  0  0
  -23.3859  -35.8884   23.2999 H   0  0  0  0  0  0
  -24.3568  -36.8916   22.2339 H   0  0  0  0  0  0
  -23.7318  -37.5486   23.7435 H   0  0  0  0  0  0
  -25.4987  -30.7349   19.6017 H   0  0  0  0  0  0
  -26.7454  -30.9735   20.6025 H   0  0  0  0  0  0
  -29.3993  -27.4076   20.2250 H   0  0  0  0  0  0
  -25.9213  -24.4910   21.8063 H   0  0  0  0  0  0
  -23.8698  -26.0996   21.0024 H   0  0  0  0  0  0
  -23.7192  -29.5283   19.1524 H   0  0  0  0  0  0
  -22.8047  -28.3941   20.0290 H   0  0  0  0  0  0
  -25.1664  -36.0249   25.0540 H   0  0  0  0  0  0
  -20.9948  -28.3351   24.1403 H   0  0  0  0  0  0
  -20.5247  -26.2330   23.3856 H   0  0  0  0  0  0
  -21.6515  -26.7018   22.1580 H   0  0  0  0  0  0
  -19.6825  -25.6255   21.1303 H   0  0  0  0  0  0
  -19.6746  -27.3181   20.6837 H   0  0  0  0  0  0
  -17.4157  -26.6698   21.4036 H   0  0  0  0  0  0
  -18.0246  -26.0129   22.9070 H   0  0  0  0  0  0
  -19.7920  -30.7316   24.2261 H   0  0  0  0  0  0
  -17.4974  -31.6281   24.5153 H   0  0  0  0  0  0
  -15.5337  -30.3017   23.7610 H   0  0  0  0  0  0
  -15.8661  -28.0849   22.7056 H   0  0  0  0  0  0
  -24.5036  -30.7485   25.6185 H   0  0  0  0  0  0
  -24.8564  -32.2765   26.4295 H   0  0  0  0  0  0
  -25.6870  -30.8038   26.8934 H   0  0  0  0  0  0
  -26.4138  -29.5697   24.3089 H   0  0  0  0  0  0
  -27.5799  -29.9276   25.5884 H   0  0  0  0  0  0
  -27.8527  -30.5953   23.9968 H   0  0  0  0  0  0
  -27.0570  -33.4245   26.1272 H   0  0  0  0  0  0
  -28.2617  -32.8472   24.9927 H   0  0  0  0  0  0
  -27.9992  -32.0112   26.5234 H   0  0  0  0  0  0
  -28.2202  -37.9839   24.7685 H   0  0  0  0  0  0
  -28.1334  -36.2358   24.5967 H   0  0  0  0  0  0
  -27.2313  -37.0481   25.8824 H   0  0  0  0  0  0
  -21.0066  -29.7758   21.5973 H   0  0  0  0  0  0
  -25.9745  -38.1891   24.1689 H   0  0  0  0  0  0
  -26.4676  -27.2737   22.6890 H   0  0  0  0  0  0
  -29.4573  -31.1986   21.0616 H   0  0  0  0  0  0
  -29.9090  -31.0864   19.3578 H   0  0  0  0  0  0
  -30.6133  -29.9855   20.5469 H   0  0  0  0  0  0
  -29.8119  -25.8673   15.8559 H   0  0  0  0  0  0
  -29.5637  -25.4094   17.5398 H   0  0  0  0  0  0
  -30.1701  -27.0107   17.1301 H   0  0  0  0  0  0
  -28.3187  -28.4563   23.6974 H   0  0  0  0  0  0
  -29.3672  -29.6943   22.9989 H   0  0  0  0  0  0
  -27.4340  -23.7783   18.1500 H   0  0  0  0  0  0
  -26.1650  -23.4701   19.2367 H   0  0  0  0  0  0
  -27.9682  -27.5434   16.0215 H   0  0  0  0  0  0
  -27.3722  -25.9616   16.4799 H   0  0  0  0  0  0
  -30.6395  -27.8000   23.4599 H   0  0  0  0  0  0
  -30.6446  -27.9658   21.7752 H   0  0  0  0  0  0
  -28.4355  -21.5001   20.7522 H   0  0  0  0  0  0
  -29.2894  -21.5940   19.2484 H   0  0  0  0  0  0
  -29.0269  -25.8341   23.4293 H   0  0  0  0  0  0
  -30.5987  -25.5934   22.7496 H   0  0  0  0  0  0
  -27.6868  -18.6864   19.6030 H   0  0  0  0  0  0
  1 25  1  0  0  0
  1 30  2  0  0  0
  1 85  1  0  0  0
  2  3  1  0  0  0
  2 25  1  0  0  0
  2 86  1  0  0  0
  2 87  1  0  0  0
  3  4  1  0  0  0
  3 88  1  0  0  0
  3 89  1  0  0  0
  4  5  1  0  0  0
  4 90  1  0  0  0
  4 91  1  0  0  0
  5  6  1  0  0  0
  5 26  1  0  0  0
  5 92  1  0  0  0
  6 25  1  0  0  0
  6 93  1  0  0  0
  6 94  1  0  0  0
  7  8  2  0  0  0
  7 26  1  0  0  0
  7 29  1  0  0  0
  8  9  1  0  0  0
  8 22  1  0  0  0
  9 10  1  0  0  0
  9 27  2  0  0  0
 10 11  2  0  0  0
 10 15  1  0  0  0
 11 12  1  0  0  0
 11 95  1  0  0  0
 12 13  2  0  0  0
 12 96  1  0  0  0
 13 14  1  0  0  0
 13 31  1  0  0  0
 14 15  2  0  0  0
 14 97  1  0  0  0
 15 98  1  0  0  0
 16 17  2  0  0  0
 16 21  1  0  0  0
 16 31  1  0  0  0
 17 18  1  0  0  0
 17 99  1  0  0  0
 18 19  2  0  0  0
 18100  1  0  0  0
 19 20  1  0  0  0
 19 24  1  0  0  0
 20 21  2  0  0  0
 20101  1  0  0  0
 21 23  1  0  0  0
 22 28  1  0  0  0
 22 32  2  0  0  0
 26 27  1  0  0  0
 28102  1  0  0  0
 28103  1  0  0  0
 29104  1  0  0  0
 29105  1  0  0  0
 33 34  1  0  0  0
 33 66  1  0  0  0
 33 70  2  0  0  0
 34 36  1  0  0  0
 34 59  1  0  0  0
 34106  1  0  0  0
 35 44  2  0  0  0
 35 45  1  0  0  0
 35 68  1  0  0  0
 36 56  1  0  0  0
 36107  1  0  0  0
 37 39  1  0  0  0
 37 47  1  0  0  0
 37 66  1  0  0  0
 37108  1  0  0  0
 38 43  2  0  0  0
 38 46  1  0  0  0
 38 47  1  0  0  0
 39 64  1  0  0  0
 39 67  2  0  0  0
 40 52  1  0  0  0
 40 53  2  0  0  0
 40 58  1  0  0  0
 41109  1  0  0  0
 41110  1  0  0  0
 41111  1  0  0  0
 41 48  1  0  0  0
 42 43  1  0  0  0
 42 66  1  0  0  0
 42112  1  0  0  0
 42113  1  0  0  0
 43 44  1  0  0  0
 44114  1  0  0  0
 45 46  2  0  0  0
 45115  1  0  0  0
 46116  1  0  0  0
 47117  1  0  0  0
 47118  1  0  0  0
 48 56  1  0  0  0
 48 65  1  0  0  0
 48119  1  0  0  0
 49 50  1  0  0  0
 49 53  1  0  0  0
 49 64  1  0  0  0
 49120  1  0  0  0
 50 51  1  0  0  0
 50121  1  0  0  0
 50122  1  0  0  0
 51 52  1  0  0  0
 51123  1  0  0  0
 51124  1  0  0  0
 52125  1  0  0  0
 52126  1  0  0  0
 53 54  1  0  0  0
 54 55  2  0  0  0
 54127  1  0  0  0
 55 57  1  0  0  0
 55128  1  0  0  0
 56 69  2  0  0  0
 57 58  2  0  0  0
 57129  1  0  0  0
 58130  1  0  0  0
 59 60  1  0  0  0
 59 61  1  0  0  0
 59 62  1  0  0  0
 60131  1  0  0  0
 60132  1  0  0  0
 60133  1  0  0  0
 61134  1  0  0  0
 61135  1  0  0  0
 61136  1  0  0  0
 62137  1  0  0  0
 62138  1  0  0  0
 62139  1  0  0  0
 63 65  1  0  0  0
 63140  1  0  0  0
 63141  1  0  0  0
 63142  1  0  0  0
 64143  1  0  0  0
 65144  1  0  0  0
 68 83  1  0  0  0
 71 72  2  0  0  0
 71 73  1  0  0  0
 71145  1  0  0  0
 72 74  1  0  0  0
 72 78  1  0  0  0
 73 75  2  0  0  0
 73 79  1  0  0  0
 74 76  1  0  0  0
 74 84  2  0  0  0
 75 80  1  0  0  0
 75 84  1  0  0  0
 76146  1  0  0  0
 76147  1  0  0  0
 76148  1  0  0  0
 77 80  1  0  0  0
 77149  1  0  0  0
 77150  1  0  0  0
 77151  1  0  0  0
 78 81  1  0  0  0
 78152  1  0  0  0
 78153  1  0  0  0
 79 82  1  0  0  0
 79154  1  0  0  0
 79155  1  0  0  0
 80156  1  0  0  0
 80157  1  0  0  0
 81 83  1  0  0  0
 81158  1  0  0  0
 81159  1  0  0  0
 82 85  1  0  0  0
 82160  1  0  0  0
 82161  1  0  0  0
 83162  1  0  0  0
 83163  1  0  0  0
 85164  1  0  0  0
M  ISO  4   1 100  68 101  83 101  85 100
M  END
> <chiral flag>
0

> <version>
0

> <s_m_source_file>
/data/baiqing/PycharmProjects/Reinvent-master-3.2/result/LINK_invent/BTK/process_docking_weight1_custom_sum_contain_oxygen_bond_distance_aromatic_linkinvent_7_9_3/rearranged_h_0041.sdf

> <i_m_source_file_index>
14

> <r_mmod_Potential_Energy-OPLS-2005>
25293.1328125

> <r_mmod_Stretch_Energy-OPLS-2005>
14019.2021484375

> <r_mmod_Bend_Energy-OPLS-2005>
1557.38842773438

> <r_mmod_Torsional_Energy-OPLS-2005>
473.262512207031

> <r_mmod_Improper_Torsional_Energy-OPLS-2005>
80.2953109741211

> <r_mmod_Van_der_Waal_Energy-OPLS-2005>
4044.05004882812

> <r_mmod_Electrostatic_Energy-OPLS-2005>
-485.412719726562

> <r_mmod_Solvation_Energy-OPLS-2005>
-251.330627441406

> <b_mmod_Minimization_Converged-OPLS-2005>
0

> <r_mmod_RMS_Derivative-OPLS-2005>
16.049898147583

$$$$
14
                    3D
 Structure written by MMmdl.
156164  0  0  1  0            999 V2000
  -30.4534  -15.1288   20.3846 C   0  0  0  0  0  0
  -30.4487  -12.7008   19.5285 C   0  0  0  0  0  0
  -29.5387  -12.5576   18.2813 C   0  0  0  0  0  0
  -28.0757  -12.3087   18.6946 C   0  0  0  0  0  0
  -27.6225  -13.2631   19.8284 C   0  0  2  0  0  0
  -28.6563  -13.3634   20.9682 C   0  0  0  0  0  0
  -25.2446  -13.8230   20.5729 C   0  0  0  0  0  0
  -24.1773  -13.0435   20.9223 C   0  0  0  0  0  0
  -24.6409  -11.6927   20.8739 C   0  0  0  0  0  0
  -23.9095  -10.4293   21.0397 C   0  0  0  0  0  0
  -24.3642   -9.4211   21.9179 C   0  0  0  0  0  0
  -23.6312   -8.2248   22.0751 C   0  0  0  0  0  0
  -22.4293   -8.0288   21.3545 C   0  0  0  0  0  0
  -21.9929   -9.0259   20.4643 C   0  0  0  0  0  0
  -22.7261  -10.2137   20.3053 C   0  0  0  0  0  0
  -21.6856   -6.0745   22.5281 C   0  0  0  0  0  0
  -21.4014   -6.5646   23.8215 C   0  0  0  0  0  0
  -21.3656   -5.6796   24.9174 C   0  0  0  0  0  0
  -21.6045   -4.3060   24.7223 C   0  0  0  0  0  0
  -21.8814   -3.8154   23.4342 C   0  0  0  0  0  0
  -21.9193   -4.6972   22.3399 C   0  0  0  0  0  0
  -22.7792  -13.5197   21.1889 C   0  0  0  0  0  0
  -22.1661   -4.2159   21.0976 F   0  0  0  0  0  0
  -21.5628   -3.4541   25.7730 F   0  0  0  0  0  0
  -29.9210  -13.8211   20.3766 N   0  0  0  0  0  0
  -26.2864  -12.9486   20.3202 N   0  0  0  0  0  0
  -25.9345  -11.6601   20.5699 N   0  0  0  0  0  0
  -22.0455  -12.8176   22.0449 N   0  0  0  0  0  0
  -25.4121  -15.1964   20.4204 N   0  0  0  0  0  0
  -31.6630  -15.1708   20.1210 O   0  0  0  0  0  0
  -21.6648   -6.8890   21.4244 O   0  0  0  0  0  0
  -22.3464  -14.5501   20.6741 O   0  0  0  0  0  0
  -24.6556  -31.8342   23.1800 C   0  0  0  0  0  0
  -25.9277  -32.4646   23.8225 C   0  0  1  0  0  0
  -27.2060  -27.0127   20.1611 C   0  0  0  0  0  0
  -25.5993  -33.8455   24.2133 N   0  0  0  0  0  0
  -23.4652  -30.4531   21.5278 C   0  0  2  0  0  0
  -24.9151  -28.8645   20.1093 C   0  0  0  0  0  0
  -22.7636  -29.4502   22.4802 C   0  0  0  0  0  0
  -18.0321  -28.1417   22.8477 C   0  0  0  0  0  0
  -24.1482  -36.7213   23.2642 C   0  0  0  0  0  0
  -26.0321  -30.6672   21.4001 C   0  0  0  0  0  0
  -26.0986  -29.2683   20.7392 C   0  0  0  0  0  0
  -27.2433  -28.3617   20.7460 C   0  0  0  0  0  0
  -25.9949  -26.7530   19.4779 C   0  0  0  0  0  0
  -24.8837  -27.6246   19.4598 C   0  0  0  0  0  0
  -23.6992  -29.7828   20.1493 C   0  0  0  0  0  0
  -25.4119  -36.2989   24.0307 C   0  0  1  0  0  0
  -20.5944  -28.3750   23.1202 C   0  0  2  0  0  0
  -20.6803  -26.9442   22.5401 C   0  0  0  0  0  0
  -19.5768  -26.6384   21.5224 C   0  0  0  0  0  0
  -18.1950  -26.7955   22.1627 C   0  0  0  0  0  0
  -19.1583  -28.8903   23.2833 C   0  0  0  0  0  0
  -18.9498  -30.1495   23.8863 C   0  0  0  0  0  0
  -17.6492  -30.6608   24.0566 C   0  0  0  0  0  0
  -25.9091  -34.9380   23.5027 C   0  0  0  0  0  0
  -16.5380  -29.9096   23.6355 C   0  0  0  0  0  0
  -16.7306  -28.6517   23.0372 C   0  0  0  0  0  0
  -26.4551  -31.6566   25.0719 C   0  0  0  0  0  0
  -25.3699  -31.3814   26.1397 C   0  0  0  0  0  0
  -27.0433  -30.2940   24.6404 C   0  0  0  0  0  0
  -27.6061  -32.4361   25.7503 C   0  0  0  0  0  0
  -27.5572  -37.1747   24.8457 C   0  0  0  0  0  0
  -21.4316  -29.3061   22.3561 N   0  0  0  0  0  0
  -26.4255  -37.3736   23.9438 N   0  0  0  0  0  0
  -24.7384  -31.0092   22.0895 N   0  0  0  0  0  0
  -23.4232  -28.8051   23.2989 O   0  0  0  0  0  0
  -28.1945  -25.9197   20.2410 O   0  0  0  0  0  0
  -26.5679  -34.8900   22.4605 O   0  0  0  0  0  0
  -23.5647  -32.1266   23.6949 O   0  0  0  0  0  0
  -28.3055  -20.2905   19.5677 C   0  0  0  0  0  0
  -27.8634  -21.6841   19.4775 C   0  0  0  0  0  0
  -29.4277  -19.8305   20.3435 C   0  0  0  0  0  0
  -28.4673  -22.8242   20.1310 C   0  0  0  0  0  0
  -29.9796  -21.0363   20.9815 C   0  0  0  0  0  0
  -31.9928  -20.5771   24.2940 C   0  0  0  0  0  0
  -30.1363  -18.2552   20.3149 C   0  0  0  0  0  0
  -31.1981  -20.9105   21.8820 C   0  0  0  0  0  0
  -27.7598  -24.3880   20.0187 C   0  0  0  0  0  0
  -29.5889  -16.6107   20.5442 C   0  0  0  0  0  0
  -30.8068  -20.5410   23.3221 C   0  0  0  0  0  0
  -29.5289  -22.3853   20.9042 N   0  0  0  0  0  0
  -31.4771  -12.8814   19.2135 H   0  0  0  0  0  0
  -30.4754  -11.7690   20.0957 H   0  0  0  0  0  0
  -29.8917  -11.7444   17.6455 H   0  0  0  0  0  0
  -29.5982  -13.4664   17.6801 H   0  0  0  0  0  0
  -28.0016  -11.2747   19.0348 H   0  0  0  0  0  0
  -27.4124  -12.3947   17.8328 H   0  0  0  0  0  0
  -27.5629  -14.2489   19.3663 H   0  0  0  0  0  0
  -28.7781  -12.4065   21.4779 H   0  0  0  0  0  0
  -28.3203  -14.0753   21.7235 H   0  0  0  0  0  0
  -25.2788   -9.5685   22.4754 H   0  0  0  0  0  0
  -24.0017   -7.4638   22.7473 H   0  0  0  0  0  0
  -21.0857   -8.8781   19.8950 H   0  0  0  0  0  0
  -22.3720  -10.9678   19.6162 H   0  0  0  0  0  0
  -21.2009   -7.6156   23.9721 H   0  0  0  0  0  0
  -21.1479   -6.0526   25.9077 H   0  0  0  0  0  0
  -22.0596   -2.7617   23.2835 H   0  0  0  0  0  0
  -22.4087  -11.9839   22.4825 H   0  0  0  0  0  0
  -21.1070  -13.1181   22.2669 H   0  0  0  0  0  0
  -24.6485  -15.8514   20.5476 H   0  0  0  0  0  0
  -26.2707  -15.6415   20.1222 H   0  0  0  0  0  0
  -26.7337  -32.5202   23.0933 H   0  0  0  0  0  0
  -25.0165  -33.9557   25.0301 H   0  0  0  0  0  0
  -22.7743  -31.2837   21.3677 H   0  0  0  0  0  0
  -23.3774  -35.9511   23.3243 H   0  0  0  0  0  0
  -24.3581  -36.8916   22.2072 H   0  0  0  0  0  0
  -23.7187  -37.6363   23.6725 H   0  0  0  0  0  0
  -26.2081  -31.4155   20.6261 H   0  0  0  0  0  0
  -26.8949  -30.7167   22.0528 H   0  0  0  0  0  0
  -28.1378  -28.6665   21.2699 H   0  0  0  0  0  0
  -25.8490  -25.8154   18.9659 H   0  0  0  0  0  0
  -23.9842  -27.3119   18.9468 H   0  0  0  0  0  0
  -23.8506  -30.5582   19.3979 H   0  0  0  0  0  0
  -22.8102  -29.2373   19.8283 H   0  0  0  0  0  0
  -25.1300  -36.1789   25.0794 H   0  0  0  0  0  0
  -21.0038  -28.3350   24.1321 H   0  0  0  0  0  0
  -20.5715  -26.2368   23.3635 H   0  0  0  0  0  0
  -21.6664  -26.7449   22.1182 H   0  0  0  0  0  0
  -19.6932  -25.6285   21.1278 H   0  0  0  0  0  0
  -19.6702  -27.3180   20.6744 H   0  0  0  0  0  0
  -17.4222  -26.6720   21.4025 H   0  0  0  0  0  0
  -18.0331  -26.0105   22.9027 H   0  0  0  0  0  0
  -19.7975  -30.7333   24.2201 H   0  0  0  0  0  0
  -17.5046  -31.6289   24.5171 H   0  0  0  0  0  0
  -15.5382  -30.2994   23.7703 H   0  0  0  0  0  0
  -15.8704  -28.0832   22.7106 H   0  0  0  0  0  0
  -24.5854  -30.7200   25.7702 H   0  0  0  0  0  0
  -24.8925  -32.3027   26.4746 H   0  0  0  0  0  0
  -25.7939  -30.9013   27.0227 H   0  0  0  0  0  0
  -26.3091  -29.6634   24.1379 H   0  0  0  0  0  0
  -27.3959  -29.7281   25.5035 H   0  0  0  0  0  0
  -27.9034  -30.4138   23.9813 H   0  0  0  0  0  0
  -27.2652  -33.3720   26.1939 H   0  0  0  0  0  0
  -28.3938  -32.6831   25.0371 H   0  0  0  0  0  0
  -28.0649  -31.8579   26.5531 H   0  0  0  0  0  0
  -28.2518  -38.0115   24.7595 H   0  0  0  0  0  0
  -28.1130  -36.2646   24.6151 H   0  0  0  0  0  0
  -27.2313  -37.1235   25.8861 H   0  0  0  0  0  0
  -20.9540  -29.8772   21.6726 H   0  0  0  0  0  0
  -26.0097  -38.2771   24.1530 H   0  0  0  0  0  0
  -27.7646  -19.5563   18.9878 H   0  0  0  0  0  0
  -26.9943  -21.8820   18.8639 H   0  0  0  0  0  0
  -31.6788  -20.2902   25.2982 H   0  0  0  0  0  0
  -32.4197  -21.5789   24.3545 H   0  0  0  0  0  0
  -32.7826  -19.8934   23.9820 H   0  0  0  0  0  0
  -30.9660  -18.3181   21.0146 H   0  0  0  0  0  0
  -30.6313  -18.2340   19.3440 H   0  0  0  0  0  0
  -31.7288  -21.8641   21.8867 H   0  0  0  0  0  0
  -31.9127  -20.2001   21.4702 H   0  0  0  0  0  0
  -26.8437  -24.2815   20.6005 H   0  0  0  0  0  0
  -27.4340  -24.3810   18.9796 H   0  0  0  0  0  0
  -28.7381  -16.4893   19.8745 H   0  0  0  0  0  0
  -29.1565  -16.5682   21.5434 H   0  0  0  0  0  0
  -30.0413  -21.2338   23.6754 H   0  0  0  0  0  0
  -30.3490  -19.5512   23.3317 H   0  0  0  0  0  0
  1 25  1  0  0  0
  1 30  2  0  0  0
  1 80  1  0  0  0
  2  3  1  0  0  0
  2 25  1  0  0  0
  2 83  1  0  0  0
  2 84  1  0  0  0
  3  4  1  0  0  0
  3 85  1  0  0  0
  3 86  1  0  0  0
  4  5  1  0  0  0
  4 87  1  0  0  0
  4 88  1  0  0  0
  5  6  1  0  0  0
  5 26  1  0  0  0
  5 89  1  0  0  0
  6 25  1  0  0  0
  6 90  1  0  0  0
  6 91  1  0  0  0
  7  8  2  0  0  0
  7 26  1  0  0  0
  7 29  1  0  0  0
  8  9  1  0  0  0
  8 22  1  0  0  0
  9 10  1  0  0  0
  9 27  2  0  0  0
 10 11  2  0  0  0
 10 15  1  0  0  0
 11 12  1  0  0  0
 11 92  1  0  0  0
 12 13  2  0  0  0
 12 93  1  0  0  0
 13 14  1  0  0  0
 13 31  1  0  0  0
 14 15  2  0  0  0
 14 94  1  0  0  0
 15 95  1  0  0  0
 16 17  2  0  0  0
 16 21  1  0  0  0
 16 31  1  0  0  0
 17 18  1  0  0  0
 17 96  1  0  0  0
 18 19  2  0  0  0
 18 97  1  0  0  0
 19 20  1  0  0  0
 19 24  1  0  0  0
 20 21  2  0  0  0
 20 98  1  0  0  0
 21 23  1  0  0  0
 22 28  1  0  0  0
 22 32  2  0  0  0
 26 27  1  0  0  0
 28 99  1  0  0  0
 28100  1  0  0  0
 29101  1  0  0  0
 29102  1  0  0  0
 33 34  1  0  0  0
 33 66  1  0  0  0
 33 70  2  0  0  0
 34 36  1  0  0  0
 34 59  1  0  0  0
 34103  1  0  0  0
 35 44  2  0  0  0
 35 45  1  0  0  0
 35 68  1  0  0  0
 36 56  1  0  0  0
 36104  1  0  0  0
 37 39  1  0  0  0
 37 47  1  0  0  0
 37 66  1  0  0  0
 37105  1  0  0  0
 38 43  2  0  0  0
 38 46  1  0  0  0
 38 47  1  0  0  0
 39 64  1  0  0  0
 39 67  2  0  0  0
 40 52  1  0  0  0
 40 53  2  0  0  0
 40 58  1  0  0  0
 41106  1  0  0  0
 41107  1  0  0  0
 41108  1  0  0  0
 41 48  1  0  0  0
 42 43  1  0  0  0
 42 66  1  0  0  0
 42109  1  0  0  0
 42110  1  0  0  0
 43 44  1  0  0  0
 44111  1  0  0  0
 45 46  2  0  0  0
 45112  1  0  0  0
 46113  1  0  0  0
 47114  1  0  0  0
 47115  1  0  0  0
 48 56  1  0  0  0
 48 65  1  0  0  0
 48116  1  0  0  0
 49 50  1  0  0  0
 49 53  1  0  0  0
 49 64  1  0  0  0
 49117  1  0  0  0
 50 51  1  0  0  0
 50118  1  0  0  0
 50119  1  0  0  0
 51 52  1  0  0  0
 51120  1  0  0  0
 51121  1  0  0  0
 52122  1  0  0  0
 52123  1  0  0  0
 53 54  1  0  0  0
 54 55  2  0  0  0
 54124  1  0  0  0
 55 57  1  0  0  0
 55125  1  0  0  0
 56 69  2  0  0  0
 57 58  2  0  0  0
 57126  1  0  0  0
 58127  1  0  0  0
 59 60  1  0  0  0
 59 61  1  0  0  0
 59 62  1  0  0  0
 60128  1  0  0  0
 60129  1  0  0  0
 60130  1  0  0  0
 61131  1  0  0  0
 61132  1  0  0  0
 61133  1  0  0  0
 62134  1  0  0  0
 62135  1  0  0  0
 62136  1  0  0  0
 63 65  1  0  0  0
 63137  1  0  0  0
 63138  1  0  0  0
 63139  1  0  0  0
 64140  1  0  0  0
 65141  1  0  0  0
 68 79  1  0  0  0
 71 72  2  0  0  0
 71 73  1  0  0  0
 71142  1  0  0  0
 72 74  1  0  0  0
 72143  1  0  0  0
 73 75  2  0  0  0
 73 77  1  0  0  0
 74 79  1  0  0  0
 74 82  2  0  0  0
 75 78  1  0  0  0
 75 82  1  0  0  0
 76 81  1  0  0  0
 76144  1  0  0  0
 76145  1  0  0  0
 76146  1  0  0  0
 77 80  1  0  0  0
 77147  1  0  0  0
 77148  1  0  0  0
 78 81  1  0  0  0
 78149  1  0  0  0
 78150  1  0  0  0
 79151  1  0  0  0
 79152  1  0  0  0
 80153  1  0  0  0
 80154  1  0  0  0
 81155  1  0  0  0
 81156  1  0  0  0
M  ISO  4   1 100  68 101  79 101  80 100
M  END
> <chiral flag>
0

> <version>
0

> <s_m_source_file>
/data/baiqing/PycharmProjects/Reinvent-master-3.2/result/LINK_invent/BTK/process_docking_weight1_custom_sum_contain_oxygen_bond_distance_aromatic_linkinvent_7_9_3/rearranged_h_0041.sdf

> <i_m_source_file_index>
15

> <r_mmod_Potential_Energy-OPLS-2005>
838.733276367188

> <r_mmod_Stretch_Energy-OPLS-2005>
415.694244384766

> <r_mmod_Bend_Energy-OPLS-2005>
397.376251220703

> <r_mmod_Torsional_Energy-OPLS-2005>
177.701171875

> <r_mmod_Improper_Torsional_Energy-OPLS-2005>
4.93470048904419

> <r_mmod_Van_der_Waal_Energy-OPLS-2005>
133.772964477539

> <r_mmod_Electrostatic_Energy-OPLS-2005>
-412.833862304688

> <r_mmod_Solvation_Energy-OPLS-2005>
-214.567031860352

> <b_mmod_Minimization_Converged-OPLS-2005>
0

> <r_mmod_RMS_Derivative-OPLS-2005>
1.22371423244476

$$$$
15
                    3D
 Structure written by MMmdl.
162170  0  0  1  0            999 V2000
  -30.7420  -14.5152   20.5405 C   0  0  0  0  0  0
  -30.4112  -12.3291   19.4461 C   0  0  0  0  0  0
  -29.4945  -12.5006   18.2185 C   0  0  0  0  0  0
  -28.0182  -12.3592   18.6320 C   0  0  0  0  0  0
  -27.6566  -13.2252   19.8691 C   0  0  2  0  0  0
  -28.7019  -13.0747   20.9999 C   0  0  0  0  0  0
  -25.2551  -13.8206   20.5697 C   0  0  0  0  0  0
  -24.1822  -13.0448   20.9180 C   0  0  0  0  0  0
  -24.6409  -11.6932   20.8740 C   0  0  0  0  0  0
  -23.9083  -10.4308   21.0411 C   0  0  0  0  0  0
  -24.3629   -9.4218   21.9193 C   0  0  0  0  0  0
  -23.6303   -8.2250   22.0756 C   0  0  0  0  0  0
  -22.4286   -8.0287   21.3542 C   0  0  0  0  0  0
  -21.9923   -9.0268   20.4645 C   0  0  0  0  0  0
  -22.7257  -10.2143   20.3057 C   0  0  0  0  0  0
  -21.6858   -6.0743   22.5287 C   0  0  0  0  0  0
  -21.4027   -6.5646   23.8223 C   0  0  0  0  0  0
  -21.3673   -5.6791   24.9185 C   0  0  0  0  0  0
  -21.6045   -4.3052   24.7228 C   0  0  0  0  0  0
  -21.8812   -3.8146   23.4347 C   0  0  0  0  0  0
  -21.9187   -4.6969   22.3405 C   0  0  0  0  0  0
  -22.7838  -13.5218   21.1859 C   0  0  0  0  0  0
  -22.1649   -4.2154   21.0982 F   0  0  0  0  0  0
  -21.5627   -3.4537   25.7743 F   0  0  0  0  0  0
  -30.0298  -13.3548   20.4356 N   0  0  0  0  0  0
  -26.3012  -12.9418   20.3369 N   0  0  0  0  0  0
  -25.9349  -11.6559   20.5788 N   0  0  0  0  0  0
  -22.0494  -12.8209   22.0424 N   0  0  0  0  0  0
  -25.4210  -15.1933   20.4126 N   0  0  0  0  0  0
  -31.8848  -14.6145   20.0910 O   0  0  0  0  0  0
  -21.6635   -6.8892   21.4250 O   0  0  0  0  0  0
  -22.3522  -14.5533   20.6724 O   0  0  0  0  0  0
  -24.6225  -31.8692   23.2163 C   0  0  0  0  0  0
  -25.9104  -32.4824   23.8447 C   0  0  1  0  0  0
  -27.2013  -27.3564   20.0943 C   0  0  0  0  0  0
  -25.5950  -33.8629   24.2364 N   0  0  0  0  0  0
  -23.4128  -30.5048   21.5577 C   0  0  2  0  0  0
  -24.8545  -28.9915   20.1059 C   0  0  0  0  0  0
  -22.7452  -29.4691   22.4939 C   0  0  0  0  0  0
  -18.0282  -28.1390   22.8488 C   0  0  0  0  0  0
  -24.1489  -36.7308   23.2633 C   0  0  0  0  0  0
  -25.9574  -30.8061   21.3939 C   0  0  0  0  0  0
  -26.0251  -29.4431   20.7283 C   0  0  0  0  0  0
  -27.1988  -28.6318   20.7322 C   0  0  0  0  0  0
  -26.0149  -27.0047   19.3885 C   0  0  0  0  0  0
  -24.8494  -27.7729   19.4303 C   0  0  0  0  0  0
  -23.6251  -29.8674   20.1642 C   0  0  0  0  0  0
  -25.4113  -36.3117   24.0337 C   0  0  1  0  0  0
  -20.5879  -28.3715   23.1254 C   0  0  2  0  0  0
  -20.6785  -26.9449   22.5368 C   0  0  0  0  0  0
  -19.5751  -26.6390   21.5198 C   0  0  0  0  0  0
  -18.1934  -26.7934   22.1619 C   0  0  0  0  0  0
  -19.1529  -28.8872   23.2864 C   0  0  0  0  0  0
  -18.9451  -30.1475   23.8876 C   0  0  0  0  0  0
  -17.6451  -30.6599   24.0552 C   0  0  0  0  0  0
  -25.9047  -34.9476   23.5139 C   0  0  0  0  0  0
  -16.5346  -29.9080   23.6352 C   0  0  0  0  0  0
  -16.7267  -28.6494   23.0383 C   0  0  0  0  0  0
  -26.4502  -31.6593   25.0777 C   0  0  0  0  0  0
  -25.3756  -31.3704   26.1514 C   0  0  0  0  0  0
  -27.0329  -30.3015   24.6196 C   0  0  0  0  0  0
  -27.6071  -32.4313   25.7539 C   0  0  0  0  0  0
  -27.5583  -37.1820   24.8470 C   0  0  0  0  0  0
  -21.4167  -29.3097   22.3675 N   0  0  0  0  0  0
  -26.4298  -37.3799   23.9411 N   0  0  0  0  0  0
  -24.6827  -31.0740   22.1114 N   0  0  0  0  0  0
  -23.4196  -28.8186   23.2968 O   0  0  0  0  0  0
  -28.2737  -26.4456   20.1958 O   0  0  0  0  0  0
  -26.5591  -34.8924   22.4686 O   0  0  0  0  0  0
  -23.5399  -32.1487   23.7499 O   0  0  0  0  0  0
  -28.5714  -23.7632   20.1735 C   0  0  0  0  0  0
  -28.0025  -22.5445   19.6831 C   0  0  0  0  0  0
  -29.5717  -23.3123   21.0102 C   0  0  0  0  0  0
  -30.5112  -24.0715   21.8867 C   0  0  0  0  0  0
  -25.5057  -22.2383   19.6357 C   0  0  0  0  0  0
  -27.9079  -25.0888   19.7693 C   0  0  0  0  0  0
  -26.7900  -22.3651   18.8037 C   0  0  0  0  0  0
  -30.6811  -19.5715   20.9933 C   0  0  0  0  0  0
  -29.9473  -18.2310   21.3547 C   0  0  0  0  0  0
  -30.2930  -20.8936   21.7525 C   0  0  0  0  0  0
  -30.6859  -16.9871   20.7613 C   0  0  0  0  0  0
  -28.5788  -21.4615   20.1627 N   0  0  0  0  0  0
  -29.5518  -21.9047   20.9736 N   0  0  0  0  0  0
  -30.1055  -15.6308   20.9752 N   0  0  0  0  0  0
  -31.4588  -12.3954   19.1463 H   0  0  0  0  0  0
  -30.2913  -11.3321   19.8744 H   0  0  0  0  0  0
  -29.7399  -11.7618   17.4547 H   0  0  0  0  0  0
  -29.6602  -13.4786   17.7633 H   0  0  0  0  0  0
  -27.8355  -11.3071   18.8510 H   0  0  0  0  0  0
  -27.3659  -12.6108   17.7951 H   0  0  0  0  0  0
  -27.6820  -14.2636   19.5386 H   0  0  0  0  0  0
  -28.6805  -12.0630   21.4082 H   0  0  0  0  0  0
  -28.4708  -13.7410   21.8322 H   0  0  0  0  0  0
  -25.2787   -9.5683   22.4755 H   0  0  0  0  0  0
  -24.0015   -7.4637   22.7468 H   0  0  0  0  0  0
  -21.0856   -8.8795   19.8951 H   0  0  0  0  0  0
  -22.3737  -10.9678   19.6148 H   0  0  0  0  0  0
  -21.2035   -7.6154   23.9737 H   0  0  0  0  0  0
  -21.1498   -6.0518   25.9086 H   0  0  0  0  0  0
  -22.0575   -2.7606   23.2844 H   0  0  0  0  0  0
  -22.4112  -11.9864   22.4797 H   0  0  0  0  0  0
  -21.1117  -13.1225   22.2666 H   0  0  0  0  0  0
  -24.6497  -15.8425   20.5245 H   0  0  0  0  0  0
  -26.2742  -15.6408   20.1021 H   0  0  0  0  0  0
  -26.7163  -32.5512   23.1196 H   0  0  0  0  0  0
  -25.0129  -33.9807   25.0529 H   0  0  0  0  0  0
  -22.7048  -31.3260   21.4293 H   0  0  0  0  0  0
  -23.3752  -35.9638   23.3309 H   0  0  0  0  0  0
  -24.3592  -36.8909   22.2046 H   0  0  0  0  0  0
  -23.7235  -37.6515   23.6635 H   0  0  0  0  0  0
  -26.0973  -31.5749   20.6329 H   0  0  0  0  0  0
  -26.8361  -30.8417   22.0257 H   0  0  0  0  0  0
  -28.0825  -28.9607   21.2610 H   0  0  0  0  0  0
  -25.9157  -26.1111   18.7916 H   0  0  0  0  0  0
  -23.9631  -27.4360   18.9107 H   0  0  0  0  0  0
  -23.7495  -30.6583   19.4235 H   0  0  0  0  0  0
  -22.7442  -29.3053   19.8476 H   0  0  0  0  0  0
  -25.1281  -36.1989   25.0827 H   0  0  0  0  0  0
  -20.9965  -28.3289   24.1375 H   0  0  0  0  0  0
  -20.5730  -26.2322   23.3565 H   0  0  0  0  0  0
  -21.6638  -26.7519   22.1111 H   0  0  0  0  0  0
  -19.6926  -25.6286   21.1265 H   0  0  0  0  0  0
  -19.6680  -27.3165   20.6699 H   0  0  0  0  0  0
  -17.4196  -26.6674   21.4030 H   0  0  0  0  0  0
  -18.0360  -26.0073   22.9017 H   0  0  0  0  0  0
  -19.7928  -30.7299   24.2224 H   0  0  0  0  0  0
  -17.5009  -31.6289   24.5133 H   0  0  0  0  0  0
  -15.5345  -30.2976   23.7700 H   0  0  0  0  0  0
  -15.8658  -28.0796   22.7147 H   0  0  0  0  0  0
  -24.5929  -30.7055   25.7842 H   0  0  0  0  0  0
  -24.8953  -32.2859   26.4971 H   0  0  0  0  0  0
  -25.8107  -30.8860   27.0264 H   0  0  0  0  0  0
  -26.2883  -29.6782   24.1230 H   0  0  0  0  0  0
  -27.4033  -29.7254   25.4681 H   0  0  0  0  0  0
  -27.8769  -30.4296   23.9420 H   0  0  0  0  0  0
  -27.2694  -33.3609   26.2136 H   0  0  0  0  0  0
  -28.3874  -32.6877   25.0362 H   0  0  0  0  0  0
  -28.0746  -31.8417   26.5441 H   0  0  0  0  0  0
  -28.2607  -38.0108   24.7511 H   0  0  0  0  0  0
  -28.1074  -36.2645   24.6302 H   0  0  0  0  0  0
  -27.2307  -37.1469   25.8874 H   0  0  0  0  0  0
  -20.9340  -29.8878   21.6940 H   0  0  0  0  0  0
  -26.0189  -38.2875   24.1414 H   0  0  0  0  0  0
  -30.3997  -25.1466   21.7478 H   0  0  0  0  0  0
  -31.5453  -23.8103   21.6627 H   0  0  0  0  0  0
  -30.3257  -23.8484   22.9369 H   0  0  0  0  0  0
  -24.6338  -22.1161   18.9938 H   0  0  0  0  0  0
  -25.3431  -23.1210   20.2543 H   0  0  0  0  0  0
  -25.5524  -21.3769   20.3022 H   0  0  0  0  0  0
  -26.9033  -24.9070   20.1493 H   0  0  0  0  0  0
  -27.8562  -25.1223   18.6800 H   0  0  0  0  0  0
  -26.9005  -21.4735   18.1852 H   0  0  0  0  0  0
  -26.6928  -23.1943   18.1029 H   0  0  0  0  0  0
  -31.7412  -19.4114   21.1922 H   0  0  0  0  0  0
  -30.6337  -19.7311   19.9150 H   0  0  0  0  0  0
  -29.8853  -18.1284   22.4388 H   0  0  0  0  0  0
  -28.9196  -18.2733   20.9900 H   0  0  0  0  0  0
  -31.2077  -21.3692   22.1080 H   0  0  0  0  0  0
  -29.7165  -20.6621   22.6489 H   0  0  0  0  0  0
  -31.7041  -16.9854   21.1542 H   0  0  0  0  0  0
  -30.7859  -17.1331   19.6836 H   0  0  0  0  0  0
  -29.1564  -15.5460   21.3094 H   0  0  0  0  0  0
  1 25  1  0  0  0
  1 30  2  0  0  0
  1 84  1  0  0  0
  2  3  1  0  0  0
  2 25  1  0  0  0
  2 85  1  0  0  0
  2 86  1  0  0  0
  3  4  1  0  0  0
  3 87  1  0  0  0
  3 88  1  0  0  0
  4  5  1  0  0  0
  4 89  1  0  0  0
  4 90  1  0  0  0
  5  6  1  0  0  0
  5 26  1  0  0  0
  5 91  1  0  0  0
  6 25  1  0  0  0
  6 92  1  0  0  0
  6 93  1  0  0  0
  7  8  2  0  0  0
  7 26  1  0  0  0
  7 29  1  0  0  0
  8  9  1  0  0  0
  8 22  1  0  0  0
  9 10  1  0  0  0
  9 27  2  0  0  0
 10 11  2  0  0  0
 10 15  1  0  0  0
 11 12  1  0  0  0
 11 94  1  0  0  0
 12 13  2  0  0  0
 12 95  1  0  0  0
 13 14  1  0  0  0
 13 31  1  0  0  0
 14 15  2  0  0  0
 14 96  1  0  0  0
 15 97  1  0  0  0
 16 17  2  0  0  0
 16 21  1  0  0  0
 16 31  1  0  0  0
 17 18  1  0  0  0
 17 98  1  0  0  0
 18 19  2  0  0  0
 18 99  1  0  0  0
 19 20  1  0  0  0
 19 24  1  0  0  0
 20 21  2  0  0  0
 20100  1  0  0  0
 21 23  1  0  0  0
 22 28  1  0  0  0
 22 32  2  0  0  0
 26 27  1  0  0  0
 28101  1  0  0  0
 28102  1  0  0  0
 29103  1  0  0  0
 29104  1  0  0  0
 33 34  1  0  0  0
 33 66  1  0  0  0
 33 70  2  0  0  0
 34 36  1  0  0  0
 34 59  1  0  0  0
 34105  1  0  0  0
 35 44  2  0  0  0
 35 45  1  0  0  0
 35 68  1  0  0  0
 36 56  1  0  0  0
 36106  1  0  0  0
 37 39  1  0  0  0
 37 47  1  0  0  0
 37 66  1  0  0  0
 37107  1  0  0  0
 38 43  2  0  0  0
 38 46  1  0  0  0
 38 47  1  0  0  0
 39 64  1  0  0  0
 39 67  2  0  0  0
 40 52  1  0  0  0
 40 53  2  0  0  0
 40 58  1  0  0  0
 41108  1  0  0  0
 41109  1  0  0  0
 41110  1  0  0  0
 41 48  1  0  0  0
 42 43  1  0  0  0
 42 66  1  0  0  0
 42111  1  0  0  0
 42112  1  0  0  0
 43 44  1  0  0  0
 44113  1  0  0  0
 45 46  2  0  0  0
 45114  1  0  0  0
 46115  1  0  0  0
 47116  1  0  0  0
 47117  1  0  0  0
 48 56  1  0  0  0
 48 65  1  0  0  0
 48118  1  0  0  0
 49 50  1  0  0  0
 49 53  1  0  0  0
 49 64  1  0  0  0
 49119  1  0  0  0
 50 51  1  0  0  0
 50120  1  0  0  0
 50121  1  0  0  0
 51 52  1  0  0  0
 51122  1  0  0  0
 51123  1  0  0  0
 52124  1  0  0  0
 52125  1  0  0  0
 53 54  1  0  0  0
 54 55  2  0  0  0
 54126  1  0  0  0
 55 57  1  0  0  0
 55127  1  0  0  0
 56 69  2  0  0  0
 57 58  2  0  0  0
 57128  1  0  0  0
 58129  1  0  0  0
 59 60  1  0  0  0
 59 61  1  0  0  0
 59 62  1  0  0  0
 60130  1  0  0  0
 60131  1  0  0  0
 60132  1  0  0  0
 61133  1  0  0  0
 61134  1  0  0  0
 61135  1  0  0  0
 62136  1  0  0  0
 62137  1  0  0  0
 62138  1  0  0  0
 63 65  1  0  0  0
 63139  1  0  0  0
 63140  1  0  0  0
 63141  1  0  0  0
 64142  1  0  0  0
 65143  1  0  0  0
 68 76  1  0  0  0
 71 72  1  0  0  0
 71 73  2  0  0  0
 71 76  1  0  0  0
 72 77  1  0  0  0
 72 82  2  0  0  0
 73 74  1  0  0  0
 73 83  1  0  0  0
 74144  1  0  0  0
 74145  1  0  0  0
 74146  1  0  0  0
 75 77  1  0  0  0
 75147  1  0  0  0
 75148  1  0  0  0
 75149  1  0  0  0
 76150  1  0  0  0
 76151  1  0  0  0
 77152  1  0  0  0
 77153  1  0  0  0
 78 79  1  0  0  0
 78 80  1  0  0  0
 78154  1  0  0  0
 78155  1  0  0  0
 79 81  1  0  0  0
 79156  1  0  0  0
 79157  1  0  0  0
 80 83  1  0  0  0
 80158  1  0  0  0
 80159  1  0  0  0
 81 84  1  0  0  0
 81160  1  0  0  0
 81161  1  0  0  0
 82 83  1  0  0  0
 84162  1  0  0  0
M  ISO  4   1 100  68 101  76 101  84 100
M  END
> <chiral flag>
0

> <version>
0

> <s_m_source_file>
/data/baiqing/PycharmProjects/Reinvent-master-3.2/result/LINK_invent/BTK/process_docking_weight1_custom_sum_contain_oxygen_bond_distance_aromatic_linkinvent_7_9_3/rearranged_h_0041.sdf

> <i_m_source_file_index>
16

> <r_mmod_Potential_Energy-OPLS-2005>
4.1458044052124

> <r_mmod_Stretch_Energy-OPLS-2005>
55.415599822998

> <r_mmod_Bend_Energy-OPLS-2005>
160.882308959961

> <r_mmod_Torsional_Energy-OPLS-2005>
218.668182373047

> <r_mmod_Improper_Torsional_Energy-OPLS-2005>
5.53674268722534

> <r_mmod_Van_der_Waal_Energy-OPLS-2005>
146.266952514648

> <r_mmod_Electrostatic_Energy-OPLS-2005>
-408.804321289062

> <r_mmod_Solvation_Energy-OPLS-2005>
-213.653778076172

> <b_mmod_Minimization_Converged-OPLS-2005>
0

> <r_mmod_RMS_Derivative-OPLS-2005>
1.82312524318695

$$$$
16
                    3D
 Structure written by MMmdl.
156164  0  0  1  0            999 V2000
  -30.6167  -14.5129   20.6084 C   0  0  0  0  0  0
  -30.4456  -12.3532   19.4015 C   0  0  0  0  0  0
  -29.4957  -12.5326   18.1971 C   0  0  0  0  0  0
  -28.0151  -12.3685   18.6112 C   0  0  0  0  0  0
  -27.6583  -13.1930   19.8769 C   0  0  2  0  0  0
  -28.7029  -12.9309   20.9855 C   0  0  0  0  0  0
  -25.2566  -13.8109   20.5616 C   0  0  0  0  0  0
  -24.1819  -13.0395   20.9146 C   0  0  0  0  0  0
  -24.6393  -11.6880   20.8728 C   0  0  0  0  0  0
  -23.9068  -10.4272   21.0399 C   0  0  0  0  0  0
  -24.3641   -9.4183   21.9174 C   0  0  0  0  0  0
  -23.6308   -8.2226   22.0755 C   0  0  0  0  0  0
  -22.4276   -8.0286   21.3556 C   0  0  0  0  0  0
  -21.9914   -9.0246   20.4632 C   0  0  0  0  0  0
  -22.7237  -10.2127   20.3038 C   0  0  0  0  0  0
  -21.6833   -6.0732   22.5284 C   0  0  0  0  0  0
  -21.3999   -6.5622   23.8215 C   0  0  0  0  0  0
  -21.3668   -5.6768   24.9181 C   0  0  0  0  0  0
  -21.6048   -4.3023   24.7212 C   0  0  0  0  0  0
  -21.8813   -3.8135   23.4322 C   0  0  0  0  0  0
  -21.9187   -4.6969   22.3391 C   0  0  0  0  0  0
  -22.7847  -13.5202   21.1810 C   0  0  0  0  0  0
  -22.1649   -4.2175   21.0958 F   0  0  0  0  0  0
  -21.5683   -3.4483   25.7707 F   0  0  0  0  0  0
  -30.0190  -13.3017   20.4385 N   0  0  0  0  0  0
  -26.3011  -12.9259   20.3371 N   0  0  0  0  0  0
  -25.9310  -11.6441   20.5766 N   0  0  0  0  0  0
  -22.0520  -12.8211   22.0403 N   0  0  0  0  0  0
  -25.4196  -15.1828   20.3963 N   0  0  0  0  0  0
  -31.7579  -14.7658   20.2033 O   0  0  0  0  0  0
  -21.6632   -6.8888   21.4248 O   0  0  0  0  0  0
  -22.3507  -14.5498   20.6656 O   0  0  0  0  0  0
  -24.6199  -31.8660   23.2090 C   0  0  0  0  0  0
  -25.9080  -32.4809   23.8394 C   0  0  1  0  0  0
  -27.2236  -27.3875   20.0880 C   0  0  0  0  0  0
  -25.5928  -33.8608   24.2304 N   0  0  0  0  0  0
  -23.4079  -30.4908   21.5522 C   0  0  2  0  0  0
  -24.8474  -28.9486   20.1163 C   0  0  0  0  0  0
  -22.7411  -29.4673   22.5007 C   0  0  0  0  0  0
  -18.0276  -28.1392   22.8495 C   0  0  0  0  0  0
  -24.1499  -36.7296   23.2645 C   0  0  0  0  0  0
  -25.9433  -30.8142   21.3710 C   0  0  0  0  0  0
  -26.0141  -29.4488   20.7068 C   0  0  0  0  0  0
  -27.2019  -28.6770   20.6839 C   0  0  0  0  0  0
  -26.0287  -26.9057   19.5042 C   0  0  0  0  0  0
  -24.8527  -27.6791   19.5145 C   0  0  0  0  0  0
  -23.6149  -29.8238   20.1670 C   0  0  0  0  0  0
  -25.4123  -36.3098   24.0337 C   0  0  1  0  0  0
  -20.5868  -28.3680   23.1323 C   0  0  2  0  0  0
  -20.6779  -26.9415   22.5428 C   0  0  0  0  0  0
  -19.5763  -26.6394   21.5226 C   0  0  0  0  0  0
  -18.1934  -26.7954   22.1626 C   0  0  0  0  0  0
  -19.1524  -28.8858   23.2908 C   0  0  0  0  0  0
  -18.9450  -30.1460   23.8916 C   0  0  0  0  0  0
  -17.6462  -30.6599   24.0557 C   0  0  0  0  0  0
  -25.9052  -34.9471   23.5118 C   0  0  0  0  0  0
  -16.5344  -29.9100   23.6335 C   0  0  0  0  0  0
  -16.7264  -28.6508   23.0361 C   0  0  0  0  0  0
  -26.4482  -31.6620   25.0761 C   0  0  0  0  0  0
  -25.3734  -31.3748   26.1499 C   0  0  0  0  0  0
  -27.0326  -30.3058   24.6208 C   0  0  0  0  0  0
  -27.6045  -32.4367   25.7516 C   0  0  0  0  0  0
  -27.5588  -37.1806   24.8457 C   0  0  0  0  0  0
  -21.4147  -29.3040   22.3711 N   0  0  0  0  0  0
  -26.4294  -37.3788   23.9406 N   0  0  0  0  0  0
  -24.6756  -31.0717   22.1015 N   0  0  0  0  0  0
  -23.4160  -28.8226   23.3084 O   0  0  0  0  0  0
  -28.4067  -26.6629   20.0974 O   0  0  0  0  0  0
  -26.5597  -34.8920   22.4670 O   0  0  0  0  0  0
  -23.5378  -32.1450   23.7448 O   0  0  0  0  0  0
  -28.7823  -21.8353   21.5612 C   0  0  0  0  0  0
  -29.2586  -20.6911   20.9547 C   0  0  0  0  0  0
  -29.3172  -21.0896   19.5802 C   0  0  0  0  0  0
  -29.7649  -20.2912   18.3888 C   0  0  0  0  0  0
  -29.6689  -19.3787   21.6616 C   0  0  0  0  0  0
  -29.6262  -18.0252   20.8631 C   0  0  0  0  0  0
  -28.1962  -24.2443   20.8385 C   0  0  0  0  0  0
  -30.0848  -16.7859   21.7081 C   0  0  0  0  0  0
  -28.4667  -25.2684   19.6902 C   0  0  0  0  0  0
  -28.9365  -22.3561   19.3914 N   0  0  0  0  0  0
  -28.6347  -22.8420   20.6184 N   0  0  0  0  0  0
  -29.8002  -15.4508   21.1436 N   0  0  0  0  0  0
  -31.4814  -12.5146   19.0939 H   0  0  0  0  0  0
  -30.4018  -11.3327   19.7818 H   0  0  0  0  0  0
  -29.7487  -11.8267   17.4046 H   0  0  0  0  0  0
  -29.6402  -13.5252   17.7693 H   0  0  0  0  0  0
  -27.8319  -11.3066   18.7893 H   0  0  0  0  0  0
  -27.3643  -12.6541   17.7859 H   0  0  0  0  0  0
  -27.7061  -14.2455   19.5961 H   0  0  0  0  0  0
  -28.7073  -11.8725   21.2592 H   0  0  0  0  0  0
  -28.4592  -13.4591   21.9077 H   0  0  0  0  0  0
  -25.2819   -9.5613   22.4720 H   0  0  0  0  0  0
  -23.9997   -7.4590   22.7463 H   0  0  0  0  0  0
  -21.0849   -8.8719   19.8944 H   0  0  0  0  0  0
  -22.3687  -10.9650   19.6123 H   0  0  0  0  0  0
  -21.1964   -7.6124   23.9680 H   0  0  0  0  0  0
  -21.1529   -6.0544   25.9083 H   0  0  0  0  0  0
  -22.0603   -2.7600   23.2802 H   0  0  0  0  0  0
  -22.4187  -11.9902   22.4811 H   0  0  0  0  0  0
  -21.1129  -13.1225   22.2626 H   0  0  0  0  0  0
  -24.6377  -15.8223   20.4890 H   0  0  0  0  0  0
  -26.2573  -15.6309   20.0517 H   0  0  0  0  0  0
  -26.7156  -32.5475   23.1143 H   0  0  0  0  0  0
  -25.0102  -33.9759   25.0469 H   0  0  0  0  0  0
  -22.7028  -31.3116   21.4123 H   0  0  0  0  0  0
  -23.3773  -35.9617   23.3305 H   0  0  0  0  0  0
  -24.3594  -36.8911   22.2059 H   0  0  0  0  0  0
  -23.7231  -37.6490   23.6663 H   0  0  0  0  0  0
  -26.0780  -31.5902   20.6144 H   0  0  0  0  0  0
  -26.8210  -30.8498   22.0055 H   0  0  0  0  0  0
  -28.1059  -29.0620   21.1359 H   0  0  0  0  0  0
  -25.9687  -25.9348   19.0369 H   0  0  0  0  0  0
  -23.9491  -27.2869   19.0678 H   0  0  0  0  0  0
  -23.7305  -30.6022   19.4118 H   0  0  0  0  0  0
  -22.7335  -29.2549   19.8641 H   0  0  0  0  0  0
  -25.1305  -36.1964   25.0828 H   0  0  0  0  0  0
  -20.9947  -28.3261   24.1450 H   0  0  0  0  0  0
  -20.5738  -26.2277   23.3604 H   0  0  0  0  0  0
  -21.6652  -26.7501   22.1179 H   0  0  0  0  0  0
  -19.6930  -25.6301   21.1271 H   0  0  0  0  0  0
  -19.6729  -27.3201   20.6753 H   0  0  0  0  0  0
  -17.4203  -26.6712   21.4011 H   0  0  0  0  0  0
  -18.0312  -26.0089   22.9013 H   0  0  0  0  0  0
  -19.7926  -30.7273   24.2303 H   0  0  0  0  0  0
  -17.5009  -31.6288   24.5152 H   0  0  0  0  0  0
  -15.5353  -30.3004   23.7661 H   0  0  0  0  0  0
  -15.8658  -28.0830   22.7098 H   0  0  0  0  0  0
  -24.5844  -30.7181   25.7815 H   0  0  0  0  0  0
  -24.9007  -32.2915   26.5035 H   0  0  0  0  0  0
  -25.8059  -30.8819   27.0213 H   0  0  0  0  0  0
  -26.2904  -29.6813   24.1223 H   0  0  0  0  0  0
  -27.4012  -29.7318   25.4719 H   0  0  0  0  0  0
  -27.8777  -30.4358   23.9443 H   0  0  0  0  0  0
  -27.2639  -33.3629   26.2155 H   0  0  0  0  0  0
  -28.3803  -32.7001   25.0318 H   0  0  0  0  0  0
  -28.0781  -31.8484   26.5377 H   0  0  0  0  0  0
  -28.2589  -38.0121   24.7509 H   0  0  0  0  0  0
  -28.1102  -36.2646   24.6279 H   0  0  0  0  0  0
  -27.2296  -37.1428   25.8856 H   0  0  0  0  0  0
  -20.9329  -29.8701   21.6867 H   0  0  0  0  0  0
  -26.0193  -38.2867   24.1421 H   0  0  0  0  0  0
  -28.5697  -22.0339   22.6024 H   0  0  0  0  0  0
  -29.0662  -19.4808   18.1865 H   0  0  0  0  0  0
  -30.7531  -19.8606   18.5530 H   0  0  0  0  0  0
  -29.8288  -20.8986   17.4855 H   0  0  0  0  0  0
  -29.0436  -19.2460   22.5483 H   0  0  0  0  0  0
  -30.6772  -19.4957   22.0650 H   0  0  0  0  0  0
  -30.2814  -18.0848   19.9947 H   0  0  0  0  0  0
  -28.6129  -17.8641   20.4864 H   0  0  0  0  0  0
  -27.1358  -24.2311   21.0880 H   0  0  0  0  0  0
  -28.7112  -24.6017   21.7336 H   0  0  0  0  0  0
  -29.5374  -16.7989   22.6530 H   0  0  0  0  0  0
  -31.1397  -16.8585   21.9795 H   0  0  0  0  0  0
  -27.8542  -25.0476   18.8159 H   0  0  0  0  0  0
  -29.4879  -25.1179   19.3388 H   0  0  0  0  0  0
  -28.8691  -15.1066   21.3264 H   0  0  0  0  0  0
  1 25  1  0  0  0
  1 30  2  0  0  0
  1 82  1  0  0  0
  2  3  1  0  0  0
  2 25  1  0  0  0
  2 83  1  0  0  0
  2 84  1  0  0  0
  3  4  1  0  0  0
  3 85  1  0  0  0
  3 86  1  0  0  0
  4  5  1  0  0  0
  4 87  1  0  0  0
  4 88  1  0  0  0
  5  6  1  0  0  0
  5 26  1  0  0  0
  5 89  1  0  0  0
  6 25  1  0  0  0
  6 90  1  0  0  0
  6 91  1  0  0  0
  7  8  2  0  0  0
  7 26  1  0  0  0
  7 29  1  0  0  0
  8  9  1  0  0  0
  8 22  1  0  0  0
  9 10  1  0  0  0
  9 27  2  0  0  0
 10 11  2  0  0  0
 10 15  1  0  0  0
 11 12  1  0  0  0
 11 92  1  0  0  0
 12 13  2  0  0  0
 12 93  1  0  0  0
 13 14  1  0  0  0
 13 31  1  0  0  0
 14 15  2  0  0  0
 14 94  1  0  0  0
 15 95  1  0  0  0
 16 17  2  0  0  0
 16 21  1  0  0  0
 16 31  1  0  0  0
 17 18  1  0  0  0
 17 96  1  0  0  0
 18 19  2  0  0  0
 18 97  1  0  0  0
 19 20  1  0  0  0
 19 24  1  0  0  0
 20 21  2  0  0  0
 20 98  1  0  0  0
 21 23  1  0  0  0
 22 28  1  0  0  0
 22 32  2  0  0  0
 26 27  1  0  0  0
 28 99  1  0  0  0
 28100  1  0  0  0
 29101  1  0  0  0
 29102  1  0  0  0
 33 34  1  0  0  0
 33 66  1  0  0  0
 33 70  2  0  0  0
 34 36  1  0  0  0
 34 59  1  0  0  0
 34103  1  0  0  0
 35 44  2  0  0  0
 35 45  1  0  0  0
 35 68  1  0  0  0
 36 56  1  0  0  0
 36104  1  0  0  0
 37 39  1  0  0  0
 37 47  1  0  0  0
 37 66  1  0  0  0
 37105  1  0  0  0
 38 43  2  0  0  0
 38 46  1  0  0  0
 38 47  1  0  0  0
 39 64  1  0  0  0
 39 67  2  0  0  0
 40 52  1  0  0  0
 40 53  2  0  0  0
 40 58  1  0  0  0
 41106  1  0  0  0
 41107  1  0  0  0
 41108  1  0  0  0
 41 48  1  0  0  0
 42 43  1  0  0  0
 42 66  1  0  0  0
 42109  1  0  0  0
 42110  1  0  0  0
 43 44  1  0  0  0
 44111  1  0  0  0
 45 46  2  0  0  0
 45112  1  0  0  0
 46113  1  0  0  0
 47114  1  0  0  0
 47115  1  0  0  0
 48 56  1  0  0  0
 48 65  1  0  0  0
 48116  1  0  0  0
 49 50  1  0  0  0
 49 53  1  0  0  0
 49 64  1  0  0  0
 49117  1  0  0  0
 50 51  1  0  0  0
 50118  1  0  0  0
 50119  1  0  0  0
 51 52  1  0  0  0
 51120  1  0  0  0
 51121  1  0  0  0
 52122  1  0  0  0
 52123  1  0  0  0
 53 54  1  0  0  0
 54 55  2  0  0  0
 54124  1  0  0  0
 55 57  1  0  0  0
 55125  1  0  0  0
 56 69  2  0  0  0
 57 58  2  0  0  0
 57126  1  0  0  0
 58127  1  0  0  0
 59 60  1  0  0  0
 59 61  1  0  0  0
 59 62  1  0  0  0
 60128  1  0  0  0
 60129  1  0  0  0
 60130  1  0  0  0
 61131  1  0  0  0
 61132  1  0  0  0
 61133  1  0  0  0
 62134  1  0  0  0
 62135  1  0  0  0
 62136  1  0  0  0
 63 65  1  0  0  0
 63137  1  0  0  0
 63138  1  0  0  0
 63139  1  0  0  0
 64140  1  0  0  0
 65141  1  0  0  0
 68 79  1  0  0  0
 71 72  2  0  0  0
 71 81  1  0  0  0
 71142  1  0  0  0
 72 73  1  0  0  0
 72 75  1  0  0  0
 73 74  1  0  0  0
 73 80  2  0  0  0
 74143  1  0  0  0
 74144  1  0  0  0
 74145  1  0  0  0
 75 76  1  0  0  0
 75146  1  0  0  0
 75147  1  0  0  0
 76 78  1  0  0  0
 76148  1  0  0  0
 76149  1  0  0  0
 77 79  1  0  0  0
 77 81  1  0  0  0
 77150  1  0  0  0
 77151  1  0  0  0
 78 82  1  0  0  0
 78152  1  0  0  0
 78153  1  0  0  0
 79154  1  0  0  0
 79155  1  0  0  0
 80 81  1  0  0  0
 82156  1  0  0  0
M  ISO  4   1 100  68 101  79 101  82 100
M  END
> <chiral flag>
0

> <version>
0

> <s_m_source_file>
/data/baiqing/PycharmProjects/Reinvent-master-3.2/result/LINK_invent/BTK/process_docking_weight1_custom_sum_contain_oxygen_bond_distance_aromatic_linkinvent_7_9_3/rearranged_h_0041.sdf

> <i_m_source_file_index>
17

> <r_mmod_Potential_Energy-OPLS-2005>
-90.0079879760742

> <r_mmod_Stretch_Energy-OPLS-2005>
46.9710845947266

> <r_mmod_Bend_Energy-OPLS-2005>
124.682258605957

> <r_mmod_Torsional_Energy-OPLS-2005>
197.27766418457

> <r_mmod_Improper_Torsional_Energy-OPLS-2005>
3.53525876998901

> <r_mmod_Van_der_Waal_Energy-OPLS-2005>
123.577293395996

> <r_mmod_Electrostatic_Energy-OPLS-2005>
-385.107788085938

> <r_mmod_Solvation_Energy-OPLS-2005>
-222.813354492188

> <b_mmod_Minimization_Converged-OPLS-2005>
0

> <r_mmod_RMS_Derivative-OPLS-2005>
4.33204698562622

$$$$
17
                    3D
 Structure written by MMmdl.
163172  0  0  1  0            999 V2000
  -30.6712  -14.4989   20.5119 C   0  0  0  0  0  0
  -30.4258  -12.3057   19.4339 C   0  0  0  0  0  0
  -29.4965  -12.4887   18.2139 C   0  0  0  0  0  0
  -28.0159  -12.3554   18.6227 C   0  0  0  0  0  0
  -27.6594  -13.2031   19.8726 C   0  0  2  0  0  0
  -28.7020  -13.0026   20.9985 C   0  0  0  0  0  0
  -25.2580  -13.8154   20.5669 C   0  0  0  0  0  0
  -24.1826  -13.0434   20.9171 C   0  0  0  0  0  0
  -24.6368  -11.6901   20.8727 C   0  0  0  0  0  0
  -23.9032  -10.4289   21.0395 C   0  0  0  0  0  0
  -24.3596   -9.4209   21.9174 C   0  0  0  0  0  0
  -23.6277   -8.2240   22.0748 C   0  0  0  0  0  0
  -22.4262   -8.0271   21.3537 C   0  0  0  0  0  0
  -21.9889   -9.0239   20.4642 C   0  0  0  0  0  0
  -22.7204  -10.2124   20.3047 C   0  0  0  0  0  0
  -21.6852   -6.0721   22.5269 C   0  0  0  0  0  0
  -21.4016   -6.5633   23.8200 C   0  0  0  0  0  0
  -21.3657   -5.6789   24.9168 C   0  0  0  0  0  0
  -21.6042   -4.3049   24.7227 C   0  0  0  0  0  0
  -21.8825   -3.8138   23.4349 C   0  0  0  0  0  0
  -21.9198   -4.6948   22.3400 C   0  0  0  0  0  0
  -22.7853  -13.5239   21.1832 C   0  0  0  0  0  0
  -22.1664   -4.2131   21.0976 F   0  0  0  0  0  0
  -21.5630   -3.4536   25.7744 F   0  0  0  0  0  0
  -30.0334  -13.2997   20.4463 N   0  0  0  0  0  0
  -26.3004  -12.9308   20.3355 N   0  0  0  0  0  0
  -25.9297  -11.6474   20.5766 N   0  0  0  0  0  0
  -22.0499  -12.8229   22.0399 N   0  0  0  0  0  0
  -25.4328  -15.1860   20.4057 N   0  0  0  0  0  0
  -31.8217  -14.6669   20.0991 O   0  0  0  0  0  0
  -21.6637   -6.8861   21.4228 O   0  0  0  0  0  0
  -22.3537  -14.5544   20.6681 O   0  0  0  0  0  0
  -24.6184  -31.8657   23.2060 C   0  0  0  0  0  0
  -25.9065  -32.4814   23.8378 C   0  0  1  0  0  0
  -27.2329  -27.3970   20.0917 C   0  0  0  0  0  0
  -25.5904  -33.8614   24.2298 N   0  0  0  0  0  0
  -23.4073  -30.4883   21.5473 C   0  0  2  0  0  0
  -24.8522  -28.9493   20.1109 C   0  0  0  0  0  0
  -22.7432  -29.4641   22.4965 C   0  0  0  0  0  0
  -18.0265  -28.1384   22.8480 C   0  0  0  0  0  0
  -24.1472  -36.7313   23.2638 C   0  0  0  0  0  0
  -25.9386  -30.8176   21.3641 C   0  0  0  0  0  0
  -26.0128  -29.4476   20.7147 C   0  0  0  0  0  0
  -27.2005  -28.6753   20.7065 C   0  0  0  0  0  0
  -26.0565  -26.9356   19.4601 C   0  0  0  0  0  0
  -24.8702  -27.6938   19.4816 C   0  0  0  0  0  0
  -23.6167  -29.8199   20.1621 C   0  0  0  0  0  0
  -25.4095  -36.3102   24.0329 C   0  0  1  0  0  0
  -20.5858  -28.3672   23.1294 C   0  0  2  0  0  0
  -20.6750  -26.9402   22.5411 C   0  0  0  0  0  0
  -19.5728  -26.6381   21.5204 C   0  0  0  0  0  0
  -18.1903  -26.7925   22.1608 C   0  0  0  0  0  0
  -19.1519  -28.8846   23.2881 C   0  0  0  0  0  0
  -18.9459  -30.1446   23.8897 C   0  0  0  0  0  0
  -17.6465  -30.6588   24.0565 C   0  0  0  0  0  0
  -25.9038  -34.9474   23.5113 C   0  0  0  0  0  0
  -16.5352  -29.9094   23.6323 C   0  0  0  0  0  0
  -16.7260  -28.6512   23.0337 C   0  0  0  0  0  0
  -26.4476  -31.6627   25.0732 C   0  0  0  0  0  0
  -25.3725  -31.3750   26.1471 C   0  0  0  0  0  0
  -27.0320  -30.3066   24.6135 C   0  0  0  0  0  0
  -27.6037  -32.4370   25.7503 C   0  0  0  0  0  0
  -27.5567  -37.1797   24.8460 C   0  0  0  0  0  0
  -21.4152  -29.3042   22.3717 N   0  0  0  0  0  0
  -26.4283  -37.3791   23.9412 N   0  0  0  0  0  0
  -24.6731  -31.0732   22.0976 N   0  0  0  0  0  0
  -23.4193  -28.8188   23.3018 O   0  0  0  0  0  0
  -28.4124  -26.6664   20.1332 O   0  0  0  0  0  0
  -26.5608  -34.8931   22.4681 O   0  0  0  0  0  0
  -23.5369  -32.1432   23.7439 O   0  0  0  0  0  0
  -28.9558  -22.8516   20.3922 C   0  0  0  0  0  0
  -30.3132  -22.6081   20.3410 C   0  0  0  0  0  0
  -29.3397  -20.6813   20.0906 C   0  0  0  0  0  0
  -26.2311  -22.5028   21.1608 C   0  0  0  0  0  0
  -26.6362  -23.8664   20.5764 C   0  0  0  0  0  0
  -26.9285  -21.3416   20.4306 C   0  0  0  0  0  0
  -28.1589  -24.1426   20.5990 C   0  0  2  0  0  0
  -31.4654  -23.5533   20.4907 C   0  0  0  0  0  0
  -29.1234  -19.2318   19.6974 C   0  0  0  0  0  0
  -28.5178  -25.3160   19.6145 C   0  0  0  0  0  0
  -29.5126  -18.1194   20.7170 C   0  0  0  0  0  0
  -29.9165  -16.8046   19.9872 C   0  0  0  0  0  0
  -30.5417  -21.2499   20.1243 N   0  0  0  0  0  0
  -28.3563  -21.5833   20.3243 N   0  0  0  0  0  0
  -29.8691  -15.5533   20.7720 N   0  0  0  0  0  0
  -31.4685  -12.4095   19.1287 H   0  0  0  0  0  0
  -30.3352  -11.2978   19.8425 H   0  0  0  0  0  0
  -29.7359  -11.7524   17.4451 H   0  0  0  0  0  0
  -29.6657  -13.4672   17.7619 H   0  0  0  0  0  0
  -27.8208  -11.3015   18.8218 H   0  0  0  0  0  0
  -27.3696  -12.6288   17.7879 H   0  0  0  0  0  0
  -27.6961  -14.2464   19.5599 H   0  0  0  0  0  0
  -28.6777  -11.9727   21.3583 H   0  0  0  0  0  0
  -28.4718  -13.6247   21.8645 H   0  0  0  0  0  0
  -25.2744   -9.5693   22.4743 H   0  0  0  0  0  0
  -23.9992   -7.4637   22.7469 H   0  0  0  0  0  0
  -21.0822   -8.8743   19.8954 H   0  0  0  0  0  0
  -22.3648  -10.9656   19.6156 H   0  0  0  0  0  0
  -21.2007   -7.6144   23.9696 H   0  0  0  0  0  0
  -21.1472   -6.0525   25.9068 H   0  0  0  0  0  0
  -22.0609   -2.7599   23.2856 H   0  0  0  0  0  0
  -22.4133  -11.9900   22.4794 H   0  0  0  0  0  0
  -21.1113  -13.1239   22.2601 H   0  0  0  0  0  0
  -24.6696  -15.8452   20.5133 H   0  0  0  0  0  0
  -26.2832  -15.6186   20.0683 H   0  0  0  0  0  0
  -26.7145  -32.5517   23.1150 H   0  0  0  0  0  0
  -25.0045  -33.9771   25.0438 H   0  0  0  0  0  0
  -22.6979  -31.3058   21.4054 H   0  0  0  0  0  0
  -23.3729  -35.9654   23.3313 H   0  0  0  0  0  0
  -24.3535  -36.8924   22.2046 H   0  0  0  0  0  0
  -23.7242  -37.6523   23.6662 H   0  0  0  0  0  0
  -26.0479  -31.5786   20.5909 H   0  0  0  0  0  0
  -26.8282  -30.8781   21.9789 H   0  0  0  0  0  0
  -28.0970  -29.0525   21.1799 H   0  0  0  0  0  0
  -26.0272  -25.9924   18.9393 H   0  0  0  0  0  0
  -23.9812  -27.3098   18.9991 H   0  0  0  0  0  0
  -23.7270  -30.5938   19.4015 H   0  0  0  0  0  0
  -22.7389  -29.2412   19.8663 H   0  0  0  0  0  0
  -25.1269  -36.1953   25.0823 H   0  0  0  0  0  0
  -20.9935  -28.3251   24.1418 H   0  0  0  0  0  0
  -20.5619  -26.2299   23.3610 H   0  0  0  0  0  0
  -21.6624  -26.7426   22.1224 H   0  0  0  0  0  0
  -19.6891  -25.6290   21.1234 H   0  0  0  0  0  0
  -19.6663  -27.3190   20.6733 H   0  0  0  0  0  0
  -17.4172  -26.6672   21.4013 H   0  0  0  0  0  0
  -18.0299  -26.0078   22.9012 H   0  0  0  0  0  0
  -19.7951  -30.7236   24.2271 H   0  0  0  0  0  0
  -17.5039  -31.6263   24.5177 H   0  0  0  0  0  0
  -15.5357  -30.2998   23.7659 H   0  0  0  0  0  0
  -15.8655  -28.0841   22.7041 H   0  0  0  0  0  0
  -24.5897  -30.7097   25.7809 H   0  0  0  0  0  0
  -24.8916  -32.2918   26.4903 H   0  0  0  0  0  0
  -25.8061  -30.8938   27.0247 H   0  0  0  0  0  0
  -26.2873  -29.6798   24.1216 H   0  0  0  0  0  0
  -27.4103  -29.7325   25.4602 H   0  0  0  0  0  0
  -27.8700  -30.4362   23.9279 H   0  0  0  0  0  0
  -27.2645  -33.3683   26.2053 H   0  0  0  0  0  0
  -28.3869  -32.6915   25.0348 H   0  0  0  0  0  0
  -28.0688  -31.8523   26.5445 H   0  0  0  0  0  0
  -28.2587  -38.0094   24.7506 H   0  0  0  0  0  0
  -28.1055  -36.2620   24.6291 H   0  0  0  0  0  0
  -27.2272  -37.1452   25.8860 H   0  0  0  0  0  0
  -20.9330  -29.8833   21.6981 H   0  0  0  0  0  0
  -26.0163  -38.2855   24.1452 H   0  0  0  0  0  0
  -25.1491  -22.3815   21.0951 H   0  0  0  0  0  0
  -26.4838  -22.4718   22.2224 H   0  0  0  0  0  0
  -26.0996  -24.6715   21.0788 H   0  0  0  0  0  0
  -26.2928  -23.8662   19.5418 H   0  0  0  0  0  0
  -26.5253  -21.2227   19.4239 H   0  0  0  0  0  0
  -26.7613  -20.4054   20.9653 H   0  0  0  0  0  0
  -28.4132  -24.4855   21.6030 H   0  0  0  0  0  0
  -31.1906  -24.4330   21.0724 H   0  0  0  0  0  0
  -31.8307  -23.8894   19.5203 H   0  0  0  0  0  0
  -32.3005  -23.0791   21.0073 H   0  0  0  0  0  0
  -29.7108  -19.0828   18.7909 H   0  0  0  0  0  0
  -28.0905  -19.0858   19.3788 H   0  0  0  0  0  0
  -28.0219  -25.2002   18.6512 H   0  0  0  0  0  0
  -29.5732  -25.2267   19.3630 H   0  0  0  0  0  0
  -28.6877  -17.9599   21.4117 H   0  0  0  0  0  0
  -30.3627  -18.4500   21.3159 H   0  0  0  0  0  0
  -30.9024  -16.9468   19.5395 H   0  0  0  0  0  0
  -29.2372  -16.6460   19.1477 H   0  0  0  0  0  0
  -28.9704  -15.3113   21.1624 H   0  0  0  0  0  0
  1 25  1  0  0  0
  1 30  2  0  0  0
  1 85  1  0  0  0
  2  3  1  0  0  0
  2 25  1  0  0  0
  2 86  1  0  0  0
  2 87  1  0  0  0
  3  4  1  0  0  0
  3 88  1  0  0  0
  3 89  1  0  0  0
  4  5  1  0  0  0
  4 90  1  0  0  0
  4 91  1  0  0  0
  5  6  1  0  0  0
  5 26  1  0  0  0
  5 92  1  0  0  0
  6 25  1  0  0  0
  6 93  1  0  0  0
  6 94  1  0  0  0
  7  8  2  0  0  0
  7 26  1  0  0  0
  7 29  1  0  0  0
  8  9  1  0  0  0
  8 22  1  0  0  0
  9 10  1  0  0  0
  9 27  2  0  0  0
 10 11  2  0  0  0
 10 15  1  0  0  0
 11 12  1  0  0  0
 11 95  1  0  0  0
 12 13  2  0  0  0
 12 96  1  0  0  0
 13 14  1  0  0  0
 13 31  1  0  0  0
 14 15  2  0  0  0
 14 97  1  0  0  0
 15 98  1  0  0  0
 16 17  2  0  0  0
 16 21  1  0  0  0
 16 31  1  0  0  0
 17 18  1  0  0  0
 17 99  1  0  0  0
 18 19  2  0  0  0
 18100  1  0  0  0
 19 20  1  0  0  0
 19 24  1  0  0  0
 20 21  2  0  0  0
 20101  1  0  0  0
 21 23  1  0  0  0
 22 28  1  0  0  0
 22 32  2  0  0  0
 26 27  1  0  0  0
 28102  1  0  0  0
 28103  1  0  0  0
 29104  1  0  0  0
 29105  1  0  0  0
 33 34  1  0  0  0
 33 66  1  0  0  0
 33 70  2  0  0  0
 34 36  1  0  0  0
 34 59  1  0  0  0
 34106  1  0  0  0
 35 44  2  0  0  0
 35 45  1  0  0  0
 35 68  1  0  0  0
 36 56  1  0  0  0
 36107  1  0  0  0
 37 39  1  0  0  0
 37 47  1  0  0  0
 37 66  1  0  0  0
 37108  1  0  0  0
 38 43  2  0  0  0
 38 46  1  0  0  0
 38 47  1  0  0  0
 39 64  1  0  0  0
 39 67  2  0  0  0
 40 52  1  0  0  0
 40 53  2  0  0  0
 40 58  1  0  0  0
 41109  1  0  0  0
 41110  1  0  0  0
 41111  1  0  0  0
 41 48  1  0  0  0
 42 43  1  0  0  0
 42 66  1  0  0  0
 42112  1  0  0  0
 42113  1  0  0  0
 43 44  1  0  0  0
 44114  1  0  0  0
 45 46  2  0  0  0
 45115  1  0  0  0
 46116  1  0  0  0
 47117  1  0  0  0
 47118  1  0  0  0
 48 56  1  0  0  0
 48 65  1  0  0  0
 48119  1  0  0  0
 49 50  1  0  0  0
 49 53  1  0  0  0
 49 64  1  0  0  0
 49120  1  0  0  0
 50 51  1  0  0  0
 50121  1  0  0  0
 50122  1  0  0  0
 51 52  1  0  0  0
 51123  1  0  0  0
 51124  1  0  0  0
 52125  1  0  0  0
 52126  1  0  0  0
 53 54  1  0  0  0
 54 55  2  0  0  0
 54127  1  0  0  0
 55 57  1  0  0  0
 55128  1  0  0  0
 56 69  2  0  0  0
 57 58  2  0  0  0
 57129  1  0  0  0
 58130  1  0  0  0
 59 60  1  0  0  0
 59 61  1  0  0  0
 59 62  1  0  0  0
 60131  1  0  0  0
 60132  1  0  0  0
 60133  1  0  0  0
 61134  1  0  0  0
 61135  1  0  0  0
 61136  1  0  0  0
 62137  1  0  0  0
 62138  1  0  0  0
 62139  1  0  0  0
 63 65  1  0  0  0
 63140  1  0  0  0
 63141  1  0  0  0
 63142  1  0  0  0
 64143  1  0  0  0
 65144  1  0  0  0
 68 80  1  0  0  0
 71 72  2  0  0  0
 71 77  1  0  0  0
 71 84  1  0  0  0
 72 78  1  0  0  0
 72 83  1  0  0  0
 73 79  1  0  0  0
 73 83  2  0  0  0
 73 84  1  0  0  0
 74 75  1  0  0  0
 74 76  1  0  0  0
 74145  1  0  0  0
 74146  1  0  0  0
 75 77  1  0  0  0
 75147  1  0  0  0
 75148  1  0  0  0
 76 84  1  0  0  0
 76149  1  0  0  0
 76150  1  0  0  0
 77 80  1  0  0  0
 77151  1  0  0  0
 78152  1  0  0  0
 78153  1  0  0  0
 78154  1  0  0  0
 79 81  1  0  0  0
 79155  1  0  0  0
 79156  1  0  0  0
 80157  1  0  0  0
 80158  1  0  0  0
 81 82  1  0  0  0
 81159  1  0  0  0
 81160  1  0  0  0
 82 85  1  0  0  0
 82161  1  0  0  0
 82162  1  0  0  0
 85163  1  0  0  0
M  ISO  4   1 100  68 101  80 101  85 100
M  END
> <chiral flag>
0

> <version>
0

> <s_m_source_file>
/data/baiqing/PycharmProjects/Reinvent-master-3.2/result/LINK_invent/BTK/process_docking_weight1_custom_sum_contain_oxygen_bond_distance_aromatic_linkinvent_7_9_3/rearranged_h_0041.sdf

> <i_m_source_file_index>
18

> <r_mmod_Potential_Energy-OPLS-2005>
-47.0566101074219

> <r_mmod_Stretch_Energy-OPLS-2005>
44.4445991516113

> <r_mmod_Bend_Energy-OPLS-2005>
126.990989685059

> <r_mmod_Torsional_Energy-OPLS-2005>
246.580276489258

> <r_mmod_Improper_Torsional_Energy-OPLS-2005>
10.2585048675537

> <r_mmod_Van_der_Waal_Energy-OPLS-2005>
127.647117614746

> <r_mmod_Electrostatic_Energy-OPLS-2005>
-391.762725830078

> <r_mmod_Solvation_Energy-OPLS-2005>
-230.058792114258

> <b_mmod_Minimization_Converged-OPLS-2005>
0

> <r_mmod_RMS_Derivative-OPLS-2005>
1.83823537826538

$$$$
18
                    3D
 Structure written by MMmdl.
175183  0  0  1  0            999 V2000
  -30.7028  -14.4183   20.5422 C   0  0  0  0  0  0
  -30.4103  -12.2570   19.4296 C   0  0  0  0  0  0
  -29.4975  -12.4932   18.2097 C   0  0  0  0  0  0
  -28.0144  -12.3716   18.6122 C   0  0  0  0  0  0
  -27.6606  -13.2015   19.8771 C   0  0  2  0  0  0
  -28.6982  -12.9711   21.0011 C   0  0  0  0  0  0
  -25.2585  -13.8164   20.5677 C   0  0  0  0  0  0
  -24.1834  -13.0447   20.9208 C   0  0  0  0  0  0
  -24.6386  -11.6913   20.8761 C   0  0  0  0  0  0
  -23.9055  -10.4297   21.0425 C   0  0  0  0  0  0
  -24.3614   -9.4205   21.9197 C   0  0  0  0  0  0
  -23.6284   -8.2241   22.0757 C   0  0  0  0  0  0
  -22.4268   -8.0280   21.3552 C   0  0  0  0  0  0
  -21.9909   -9.0259   20.4659 C   0  0  0  0  0  0
  -22.7243  -10.2133   20.3065 C   0  0  0  0  0  0
  -21.6844   -6.0754   22.5296 C   0  0  0  0  0  0
  -21.4023   -6.5655   23.8238 C   0  0  0  0  0  0
  -21.3664   -5.6796   24.9194 C   0  0  0  0  0  0
  -21.6041   -4.3060   24.7237 C   0  0  0  0  0  0
  -21.8815   -3.8164   23.4355 C   0  0  0  0  0  0
  -21.9188   -4.6987   22.3416 C   0  0  0  0  0  0
  -22.7875  -13.5244   21.1875 C   0  0  0  0  0  0
  -22.1646   -4.2173   21.0988 F   0  0  0  0  0  0
  -21.5617   -3.4529   25.7742 F   0  0  0  0  0  0
  -30.0344  -13.2436   20.4505 N   0  0  0  0  0  0
  -26.3009  -12.9320   20.3362 N   0  0  0  0  0  0
  -25.9294  -11.6483   20.5779 N   0  0  0  0  0  0
  -22.0471  -12.8269   22.0418 N   0  0  0  0  0  0
  -25.4276  -15.1890   20.4095 N   0  0  0  0  0  0
  -31.8412  -14.5851   20.0972 O   0  0  0  0  0  0
  -21.6622   -6.8887   21.4253 O   0  0  0  0  0  0
  -22.3568  -14.5565   20.6715 O   0  0  0  0  0  0
  -24.6084  -31.8720   23.2142 C   0  0  0  0  0  0
  -25.8999  -32.4845   23.8420 C   0  0  1  0  0  0
  -27.2484  -27.4870   20.0852 C   0  0  0  0  0  0
  -25.5884  -33.8640   24.2358 N   0  0  0  0  0  0
  -23.3940  -30.4946   21.5536 C   0  0  2  0  0  0
  -24.8429  -28.9644   20.1185 C   0  0  0  0  0  0
  -22.7379  -29.4673   22.5018 C   0  0  0  0  0  0
  -18.0265  -28.1372   22.8497 C   0  0  0  0  0  0
  -24.1484  -36.7333   23.2640 C   0  0  0  0  0  0
  -25.9150  -30.8549   21.3565 C   0  0  0  0  0  0
  -25.9967  -29.4901   20.7115 C   0  0  0  0  0  0
  -27.2027  -28.7613   20.6984 C   0  0  0  0  0  0
  -26.0771  -26.9650   19.5001 C   0  0  0  0  0  0
  -24.8737  -27.6957   19.5135 C   0  0  0  0  0  0
  -23.6006  -29.8240   20.1681 C   0  0  0  0  0  0
  -25.4101  -36.3126   24.0342 C   0  0  1  0  0  0
  -20.5852  -28.3649   23.1341 C   0  0  2  0  0  0
  -20.6753  -26.9391   22.5422 C   0  0  0  0  0  0
  -19.5734  -26.6385   21.5211 C   0  0  0  0  0  0
  -18.1913  -26.7920   22.1628 C   0  0  0  0  0  0
  -19.1512  -28.8830   23.2920 C   0  0  0  0  0  0
  -18.9446  -30.1435   23.8926 C   0  0  0  0  0  0
  -17.6443  -30.6585   24.0568 C   0  0  0  0  0  0
  -25.9026  -34.9490   23.5145 C   0  0  0  0  0  0
  -16.5335  -29.9085   23.6322 C   0  0  0  0  0  0
  -16.7252  -28.6505   23.0345 C   0  0  0  0  0  0
  -26.4456  -31.6604   25.0719 C   0  0  0  0  0  0
  -25.3742  -31.3696   26.1480 C   0  0  0  0  0  0
  -27.0272  -30.3056   24.6040 C   0  0  0  0  0  0
  -27.6053  -32.4304   25.7467 C   0  0  0  0  0  0
  -27.5584  -37.1814   24.8463 C   0  0  0  0  0  0
  -21.4113  -29.3024   22.3758 N   0  0  0  0  0  0
  -26.4295  -37.3799   23.9409 N   0  0  0  0  0  0
  -24.6573  -31.0861   22.1014 N   0  0  0  0  0  0
  -23.4177  -28.8221   23.3049 O   0  0  0  0  0  0
  -28.3759  -26.7050   20.0068 O   0  0  0  0  0  0
  -26.5580  -34.8928   22.4702 O   0  0  0  0  0  0
  -23.5289  -32.1443   23.7567 O   0  0  0  0  0  0
  -32.5759  -25.2529   19.6847 C   0  0  0  0  0  0
  -32.4334  -24.0376   20.4023 C   0  0  0  0  0  0
  -30.6091  -26.0391   20.6086 C   0  0  0  0  0  0
  -30.4745  -24.8353   21.3551 C   0  0  0  0  0  0
  -33.7582  -25.5224   18.7723 C   0  0  0  0  0  0
  -29.8203  -24.4760   23.7722 C   0  0  0  0  0  0
  -28.4965  -23.3348   21.9195 C   0  0  0  0  0  0
  -33.4372  -22.8963   20.2444 C   0  0  0  0  0  0
  -29.5661  -27.1422   20.6502 C   0  0  0  0  0  0
  -29.6328  -17.8959   21.4414 C   0  0  0  0  0  0
  -29.9486  -19.3333   20.9775 C   0  0  0  0  0  0
  -30.2685  -16.8346   20.5307 C   0  0  0  0  0  0
  -33.0733  -21.5668   20.9420 C   0  0  0  0  0  0
  -31.4431  -19.7048   21.0844 C   0  0  0  0  0  0
  -29.3194  -24.5680   22.3239 C   0  0  0  0  0  0
  -31.6631  -26.2461   19.7814 N   0  0  0  0  0  0
  -31.3923  -23.8426   21.2491 N   0  0  0  0  0  0
  -29.9553  -15.4629   20.9274 N   0  0  0  0  0  0
  -31.7395  -21.0516   20.5569 N   0  3  0  0  0  0
  -31.4616  -12.3229   19.1456 H   0  0  0  0  0  0
  -30.2686  -11.2464   19.8178 H   0  0  0  0  0  0
  -29.7287  -11.7759   17.4205 H   0  0  0  0  0  0
  -29.6891  -13.4829   17.7925 H   0  0  0  0  0  0
  -27.8116  -11.3167   18.7923 H   0  0  0  0  0  0
  -27.3725  -12.6625   17.7799 H   0  0  0  0  0  0
  -27.7050  -14.2506   19.5878 H   0  0  0  0  0  0
  -28.6518  -11.9389   21.3500 H   0  0  0  0  0  0
  -28.4748  -13.5844   21.8752 H   0  0  0  0  0  0
  -25.2745   -9.5659   22.4778 H   0  0  0  0  0  0
  -23.9986   -7.4627   22.7458 H   0  0  0  0  0  0
  -21.0841   -8.8802   19.8968 H   0  0  0  0  0  0
  -22.3709  -10.9687   19.6185 H   0  0  0  0  0  0
  -21.2011   -7.6162   23.9764 H   0  0  0  0  0  0
  -21.1491   -6.0519   25.9108 H   0  0  0  0  0  0
  -22.0581   -2.7624   23.2861 H   0  0  0  0  0  0
  -22.4004  -11.9891   22.4805 H   0  0  0  0  0  0
  -21.1108  -13.1342   22.2599 H   0  0  0  0  0  0
  -24.6569  -15.8391   20.5171 H   0  0  0  0  0  0
  -26.2791  -15.6361   20.0915 H   0  0  0  0  0  0
  -26.7082  -32.5596   23.1208 H   0  0  0  0  0  0
  -25.0023  -33.9810   25.0492 H   0  0  0  0  0  0
  -22.6801  -31.3096   21.4167 H   0  0  0  0  0  0
  -23.3726  -35.9688   23.3314 H   0  0  0  0  0  0
  -24.3580  -36.8923   22.2052 H   0  0  0  0  0  0
  -23.7254  -37.6555   23.6628 H   0  0  0  0  0  0
  -26.0108  -31.6180   20.5827 H   0  0  0  0  0  0
  -26.8097  -30.9193   21.9636 H   0  0  0  0  0  0
  -28.0805  -29.2002   21.1498 H   0  0  0  0  0  0
  -26.0989  -25.9917   19.0291 H   0  0  0  0  0  0
  -23.9849  -27.2826   19.0567 H   0  0  0  0  0  0
  -23.7034  -30.5988   19.4077 H   0  0  0  0  0  0
  -22.7268  -29.2386   19.8758 H   0  0  0  0  0  0
  -25.1272  -36.2003   25.0834 H   0  0  0  0  0  0
  -20.9942  -28.3201   24.1461 H   0  0  0  0  0  0
  -20.5650  -26.2255   23.3602 H   0  0  0  0  0  0
  -21.6625  -26.7443   22.1214 H   0  0  0  0  0  0
  -19.6896  -25.6303   21.1219 H   0  0  0  0  0  0
  -19.6677  -27.3219   20.6757 H   0  0  0  0  0  0
  -17.4184  -26.6674   21.4025 H   0  0  0  0  0  0
  -18.0321  -26.0057   22.9024 H   0  0  0  0  0  0
  -19.7917  -30.7241   24.2322 H   0  0  0  0  0  0
  -17.4998  -31.6262   24.5166 H   0  0  0  0  0  0
  -15.5333  -30.3001   23.7622 H   0  0  0  0  0  0
  -15.8653  -28.0828   22.7039 H   0  0  0  0  0  0
  -24.5904  -30.7056   25.7817 H   0  0  0  0  0  0
  -24.8944  -32.2849   26.4958 H   0  0  0  0  0  0
  -25.8108  -30.8842   27.0216 H   0  0  0  0  0  0
  -26.2796  -29.6831   24.1105 H   0  0  0  0  0  0
  -27.4079  -29.7272   25.4469 H   0  0  0  0  0  0
  -27.8613  -30.4401   23.9148 H   0  0  0  0  0  0
  -27.2692  -33.3588   26.2099 H   0  0  0  0  0  0
  -28.3830  -32.6886   25.0266 H   0  0  0  0  0  0
  -28.0752  -31.8386   26.5332 H   0  0  0  0  0  0
  -28.2605  -38.0106   24.7495 H   0  0  0  0  0  0
  -28.1068  -36.2633   24.6292 H   0  0  0  0  0  0
  -27.2302  -37.1478   25.8867 H   0  0  0  0  0  0
  -20.9269  -29.8752   21.6987 H   0  0  0  0  0  0
  -26.0187  -38.2882   24.1390 H   0  0  0  0  0  0
  -34.6923  -25.4550   19.3307 H   0  0  0  0  0  0
  -33.7059  -26.5201   18.3342 H   0  0  0  0  0  0
  -33.7886  -24.7970   17.9596 H   0  0  0  0  0  0
  -30.3643  -25.3786   24.0520 H   0  0  0  0  0  0
  -30.4927  -23.6283   23.9114 H   0  0  0  0  0  0
  -28.9883  -24.3614   24.4673 H   0  0  0  0  0  0
  -28.0948  -23.4452   20.9118 H   0  0  0  0  0  0
  -27.6528  -23.1895   22.5952 H   0  0  0  0  0  0
  -29.0969  -22.4264   21.9458 H   0  0  0  0  0  0
  -34.3957  -23.2381   20.6345 H   0  0  0  0  0  0
  -33.5923  -22.7094   19.1813 H   0  0  0  0  0  0
  -29.9457  -28.0358   20.1513 H   0  0  0  0  0  0
  -29.3849  -27.4104   21.6918 H   0  0  0  0  0  0
  -28.5499  -17.7597   21.4588 H   0  0  0  0  0  0
  -29.9726  -17.7551   22.4682 H   0  0  0  0  0  0
  -29.3675  -20.0268   21.5877 H   0  0  0  0  0  0
  -29.5966  -19.4663   19.9528 H   0  0  0  0  0  0
  -31.3496  -16.9647   20.5161 H   0  0  0  0  0  0
  -29.9249  -16.9749   19.5026 H   0  0  0  0  0  0
  -33.0962  -21.7057   22.0234 H   0  0  0  0  0  0
  -33.8359  -20.8225   20.7084 H   0  0  0  0  0  0
  -32.0632  -19.0061   20.5245 H   0  0  0  0  0  0
  -31.7542  -19.6381   22.1291 H   0  0  0  0  0  0
  -28.6215  -25.4030   22.2940 H   0  0  0  0  0  0
  -29.0204  -15.2606   21.2531 H   0  0  0  0  0  0
  -31.6622  -21.0432   19.5530 H   0  0  0  0  0  0
  -31.0706  -21.7219   20.9095 H   0  0  0  0  0  0
  1 25  1  0  0  0
  1 30  2  0  0  0
  1 88  1  0  0  0
  2  3  1  0  0  0
  2 25  1  0  0  0
  2 90  1  0  0  0
  2 91  1  0  0  0
  3  4  1  0  0  0
  3 92  1  0  0  0
  3 93  1  0  0  0
  4  5  1  0  0  0
  4 94  1  0  0  0
  4 95  1  0  0  0
  5  6  1  0  0  0
  5 26  1  0  0  0
  5 96  1  0  0  0
  6 25  1  0  0  0
  6 97  1  0  0  0
  6 98  1  0  0  0
  7  8  2  0  0  0
  7 26  1  0  0  0
  7 29  1  0  0  0
  8  9  1  0  0  0
  8 22  1  0  0  0
  9 10  1  0  0  0
  9 27  2  0  0  0
 10 11  2  0  0  0
 10 15  1  0  0  0
 11 12  1  0  0  0
 11 99  1  0  0  0
 12 13  2  0  0  0
 12100  1  0  0  0
 13 14  1  0  0  0
 13 31  1  0  0  0
 14 15  2  0  0  0
 14101  1  0  0  0
 15102  1  0  0  0
 16 17  2  0  0  0
 16 21  1  0  0  0
 16 31  1  0  0  0
 17 18  1  0  0  0
 17103  1  0  0  0
 18 19  2  0  0  0
 18104  1  0  0  0
 19 20  1  0  0  0
 19 24  1  0  0  0
 20 21  2  0  0  0
 20105  1  0  0  0
 21 23  1  0  0  0
 22 28  1  0  0  0
 22 32  2  0  0  0
 26 27  1  0  0  0
 28106  1  0  0  0
 28107  1  0  0  0
 29108  1  0  0  0
 29109  1  0  0  0
 33 34  1  0  0  0
 33 66  1  0  0  0
 33 70  2  0  0  0
 34 36  1  0  0  0
 34 59  1  0  0  0
 34110  1  0  0  0
 35 44  2  0  0  0
 35 45  1  0  0  0
 35 68  1  0  0  0
 36 56  1  0  0  0
 36111  1  0  0  0
 37 39  1  0  0  0
 37 47  1  0  0  0
 37 66  1  0  0  0
 37112  1  0  0  0
 38 43  2  0  0  0
 38 46  1  0  0  0
 38 47  1  0  0  0
 39 64  1  0  0  0
 39 67  2  0  0  0
 40 52  1  0  0  0
 40 53  2  0  0  0
 40 58  1  0  0  0
 41113  1  0  0  0
 41114  1  0  0  0
 41115  1  0  0  0
 41 48  1  0  0  0
 42 43  1  0  0  0
 42 66  1  0  0  0
 42116  1  0  0  0
 42117  1  0  0  0
 43 44  1  0  0  0
 44118  1  0  0  0
 45 46  2  0  0  0
 45119  1  0  0  0
 46120  1  0  0  0
 47121  1  0  0  0
 47122  1  0  0  0
 48 56  1  0  0  0
 48 65  1  0  0  0
 48123  1  0  0  0
 49 50  1  0  0  0
 49 53  1  0  0  0
 49 64  1  0  0  0
 49124  1  0  0  0
 50 51  1  0  0  0
 50125  1  0  0  0
 50126  1  0  0  0
 51 52  1  0  0  0
 51127  1  0  0  0
 51128  1  0  0  0
 52129  1  0  0  0
 52130  1  0  0  0
 53 54  1  0  0  0
 54 55  2  0  0  0
 54131  1  0  0  0
 55 57  1  0  0  0
 55132  1  0  0  0
 56 69  2  0  0  0
 57 58  2  0  0  0
 57133  1  0  0  0
 58134  1  0  0  0
 59 60  1  0  0  0
 59 61  1  0  0  0
 59 62  1  0  0  0
 60135  1  0  0  0
 60136  1  0  0  0
 60137  1  0  0  0
 61138  1  0  0  0
 61139  1  0  0  0
 61140  1  0  0  0
 62141  1  0  0  0
 62142  1  0  0  0
 62143  1  0  0  0
 63 65  1  0  0  0
 63144  1  0  0  0
 63145  1  0  0  0
 63146  1  0  0  0
 64147  1  0  0  0
 65148  1  0  0  0
 68 79  1  0  0  0
 71 72  2  0  0  0
 71 75  1  0  0  0
 71 86  1  0  0  0
 72 78  1  0  0  0
 72 87  1  0  0  0
 73 74  1  0  0  0
 73 79  1  0  0  0
 73 86  2  0  0  0
 74 85  1  0  0  0
 74 87  2  0  0  0
 75149  1  0  0  0
 75150  1  0  0  0
 75151  1  0  0  0
 76152  1  0  0  0
 76153  1  0  0  0
 76154  1  0  0  0
 76 85  1  0  0  0
 77 85  1  0  0  0
 77155  1  0  0  0
 77156  1  0  0  0
 77157  1  0  0  0
 78 83  1  0  0  0
 78158  1  0  0  0
 78159  1  0  0  0
 79160  1  0  0  0
 79161  1  0  0  0
 80 81  1  0  0  0
 80 82  1  0  0  0
 80162  1  0  0  0
 80163  1  0  0  0
 81 84  1  0  0  0
 81164  1  0  0  0
 81165  1  0  0  0
 82 88  1  0  0  0
 82166  1  0  0  0
 82167  1  0  0  0
 83 89  1  0  0  0
 83168  1  0  0  0
 83169  1  0  0  0
 84 89  1  0  0  0
 84170  1  0  0  0
 84171  1  0  0  0
 85172  1  0  0  0
 88173  1  0  0  0
 89174  1  0  0  0
 89175  1  0  0  0
M  CHG  1  89   1
M  ISO  4   1 100  68 101  79 101  88 100
M  END
> <chiral flag>
0

> <version>
0

> <s_m_source_file>
/data/baiqing/PycharmProjects/Reinvent-master-3.2/result/LINK_invent/BTK/process_docking_weight1_custom_sum_contain_oxygen_bond_distance_aromatic_linkinvent_7_9_3/rearranged_h_0041.sdf

> <i_m_source_file_index>
19

> <r_mmod_Potential_Energy-OPLS-2005>
-217.249496459961

> <r_mmod_Stretch_Energy-OPLS-2005>
34.3396339416504

> <r_mmod_Bend_Energy-OPLS-2005>
100.827514648438

> <r_mmod_Torsional_Energy-OPLS-2005>
210.190643310547

> <r_mmod_Improper_Torsional_Energy-OPLS-2005>
6.54127883911133

> <r_mmod_Van_der_Waal_Energy-OPLS-2005>
167.125778198242

> <r_mmod_Electrostatic_Energy-OPLS-2005>
-303.375946044922

> <r_mmod_Solvation_Energy-OPLS-2005>
-442.427917480469

> <b_mmod_Minimization_Converged-OPLS-2005>
0

> <r_mmod_RMS_Derivative-OPLS-2005>
2.98355388641357

$$$$
19
                    3D
 Structure written by MMmdl.
161169  0  0  1  0            999 V2000
  -30.6201  -14.6959   20.4540 C   0  0  0  0  0  0
  -30.4223  -12.4161   19.4731 C   0  0  0  0  0  0
  -29.5061  -12.5047   18.2338 C   0  0  0  0  0  0
  -28.0349  -12.3222   18.6511 C   0  0  0  0  0  0
  -27.6406  -13.2260   19.8498 C   0  0  2  0  0  0
  -28.6812  -13.1508   20.9882 C   0  0  0  0  0  0
  -25.2500  -13.8184   20.5666 C   0  0  0  0  0  0
  -24.1784  -13.0424   20.9187 C   0  0  0  0  0  0
  -24.6378  -11.6905   20.8749 C   0  0  0  0  0  0
  -23.9057  -10.4279   21.0424 C   0  0  0  0  0  0
  -24.3613   -9.4198   21.9202 C   0  0  0  0  0  0
  -23.6287   -8.2235   22.0772 C   0  0  0  0  0  0
  -22.4277   -8.0270   21.3555 C   0  0  0  0  0  0
  -21.9903   -9.0243   20.4665 C   0  0  0  0  0  0
  -22.7229  -10.2121   20.3070 C   0  0  0  0  0  0
  -21.6850   -6.0730   22.5285 C   0  0  0  0  0  0
  -21.4023   -6.5645   23.8217 C   0  0  0  0  0  0
  -21.3651   -5.6799   24.9181 C   0  0  0  0  0  0
  -21.6036   -4.3060   24.7242 C   0  0  0  0  0  0
  -21.8812   -3.8148   23.4365 C   0  0  0  0  0  0
  -21.9191   -4.6956   22.3417 C   0  0  0  0  0  0
  -22.7811  -13.5213   21.1865 C   0  0  0  0  0  0
  -22.1655   -4.2137   21.0999 F   0  0  0  0  0  0
  -21.5618   -3.4552   25.7760 F   0  0  0  0  0  0
  -29.9887  -13.4777   20.4082 N   0  0  0  0  0  0
  -26.2922  -12.9379   20.3263 N   0  0  0  0  0  0
  -25.9304  -11.6525   20.5742 N   0  0  0  0  0  0
  -22.0483  -12.8193   22.0439 N   0  0  0  0  0  0
  -25.4185  -15.1908   20.4089 N   0  0  0  0  0  0
  -31.8109  -14.7885   20.1462 O   0  0  0  0  0  0
  -21.6634   -6.8873   21.4249 O   0  0  0  0  0  0
  -22.3487  -14.5513   20.6717 O   0  0  0  0  0  0
  -24.6264  -31.8575   23.1983 C   0  0  0  0  0  0
  -25.9095  -32.4763   23.8332 C   0  0  1  0  0  0
  -27.2299  -27.3025   20.1306 C   0  0  0  0  0  0
  -25.5879  -33.8563   24.2246 N   0  0  0  0  0  0
  -23.4221  -30.4740   21.5425 C   0  0  2  0  0  0
  -24.8697  -28.9143   20.1218 C   0  0  0  0  0  0
  -22.7489  -29.4597   22.4962 C   0  0  0  0  0  0
  -18.0278  -28.1370   22.8468 C   0  0  0  0  0  0
  -24.1489  -36.7334   23.2636 C   0  0  0  0  0  0
  -25.9597  -30.7849   21.3684 C   0  0  0  0  0  0
  -26.0378  -29.4048   20.7209 C   0  0  0  0  0  0
  -27.2237  -28.6122   20.7079 C   0  0  0  0  0  0
  -26.0404  -26.8552   19.5237 C   0  0  0  0  0  0
  -24.8735  -27.6464   19.5131 C   0  0  0  0  0  0
  -23.6374  -29.7951   20.1624 C   0  0  0  0  0  0
  -25.4111  -36.3084   24.0311 C   0  0  1  0  0  0
  -20.5876  -28.3686   23.1284 C   0  0  2  0  0  0
  -20.6781  -26.9415   22.5407 C   0  0  0  0  0  0
  -19.5763  -26.6381   21.5204 C   0  0  0  0  0  0
  -18.1940  -26.7914   22.1609 C   0  0  0  0  0  0
  -19.1527  -28.8846   23.2866 C   0  0  0  0  0  0
  -18.9454  -30.1443   23.8888 C   0  0  0  0  0  0
  -17.6456  -30.6581   24.0542 C   0  0  0  0  0  0
  -25.9039  -34.9445   23.5096 C   0  0  0  0  0  0
  -16.5342  -29.9077   23.6320 C   0  0  0  0  0  0
  -16.7267  -28.6493   23.0344 C   0  0  0  0  0  0
  -26.4478  -31.6573   25.0710 C   0  0  0  0  0  0
  -25.3708  -31.3694   26.1439 C   0  0  0  0  0  0
  -27.0330  -30.2995   24.6169 C   0  0  0  0  0  0
  -27.6026  -32.4324   25.7484 C   0  0  0  0  0  0
  -27.5593  -37.1812   24.8448 C   0  0  0  0  0  0
  -21.4199  -29.3035   22.3700 N   0  0  0  0  0  0
  -26.4297  -37.3777   23.9398 N   0  0  0  0  0  0
  -24.6879  -31.0555   22.0947 N   0  0  0  0  0  0
  -23.4206  -28.8155   23.3058 O   0  0  0  0  0  0
  -28.3704  -26.4930   20.0763 O   0  0  0  0  0  0
  -26.5639  -34.8912   22.4684 O   0  0  0  0  0  0
  -23.5415  -32.1369   23.7307 O   0  0  0  0  0  0
  -28.8177  -21.1661   20.2632 C   0  0  0  0  0  0
  -29.7688  -20.0748   20.1398 C   0  0  0  0  0  0
  -31.0773  -20.4923   19.7292 C   0  0  0  0  0  0
  -29.1606  -22.5481   20.0098 C   0  0  0  0  0  0
  -31.3467  -21.8796   19.5366 C   0  0  0  0  0  0
  -32.1856  -19.4843   19.4306 C   0  0  0  0  0  0
  -32.8485  -22.3665   17.5407 C   0  0  0  0  0  0
  -29.3216  -18.5453   20.3928 C   0  0  0  0  0  0
  -28.1623  -23.7734   19.8629 C   0  0  0  0  0  0
  -32.6987  -22.4169   19.0699 C   0  0  0  0  0  0
  -30.3305  -17.2698   20.3920 C   0  0  0  0  0  0
  -28.3967  -25.1349   20.6867 C   0  0  0  0  0  0
  -30.4205  -22.8503   19.6600 N   0  0  0  0  0  0
  -29.8555  -15.8378   20.6128 N   0  0  0  0  0  0
  -31.4700  -12.5165   19.1831 H   0  0  0  0  0  0
  -30.3338  -11.4352   19.9454 H   0  0  0  0  0  0
  -29.7851  -11.7529   17.4945 H   0  0  0  0  0  0
  -29.6327  -13.4747   17.7504 H   0  0  0  0  0  0
  -27.9016  -11.2753   18.9238 H   0  0  0  0  0  0
  -27.3716  -12.5005   17.8039 H   0  0  0  0  0  0
  -27.6392  -14.2464   19.4673 H   0  0  0  0  0  0
  -28.7002  -12.1551   21.4342 H   0  0  0  0  0  0
  -28.4251  -13.8434   21.7921 H   0  0  0  0  0  0
  -25.2759   -9.5667   22.4770 H   0  0  0  0  0  0
  -23.9982   -7.4637   22.7508 H   0  0  0  0  0  0
  -21.0819   -8.8769   19.8994 H   0  0  0  0  0  0
  -22.3691  -10.9656   19.6178 H   0  0  0  0  0  0
  -21.2033   -7.6160   23.9718 H   0  0  0  0  0  0
  -21.1471   -6.0542   25.9079 H   0  0  0  0  0  0
  -22.0599   -2.7612   23.2883 H   0  0  0  0  0  0
  -22.4088  -11.9802   22.4732 H   0  0  0  0  0  0
  -21.1143  -13.1249   22.2758 H   0  0  0  0  0  0
  -24.6484  -15.8430   20.5099 H   0  0  0  0  0  0
  -26.2668  -15.6323   20.0787 H   0  0  0  0  0  0
  -26.7168  -32.5430   23.1082 H   0  0  0  0  0  0
  -24.9919  -33.9692   25.0318 H   0  0  0  0  0  0
  -22.7141  -31.2917   21.3929 H   0  0  0  0  0  0
  -23.3727  -35.9695   23.3277 H   0  0  0  0  0  0
  -24.3573  -36.9012   22.2059 H   0  0  0  0  0  0
  -23.7280  -37.6537   23.6693 H   0  0  0  0  0  0
  -26.0793  -31.5428   20.5921 H   0  0  0  0  0  0
  -26.8431  -30.8472   21.9919 H   0  0  0  0  0  0
  -28.1303  -28.9914   21.1603 H   0  0  0  0  0  0
  -26.0188  -25.8865   19.0455 H   0  0  0  0  0  0
  -23.9773  -27.2678   19.0387 H   0  0  0  0  0  0
  -23.7542  -30.5622   19.3969 H   0  0  0  0  0  0
  -22.7584  -29.2195   19.8685 H   0  0  0  0  0  0
  -25.1300  -36.1940   25.0803 H   0  0  0  0  0  0
  -20.9928  -28.3265   24.1414 H   0  0  0  0  0  0
  -20.5699  -26.2300   23.3610 H   0  0  0  0  0  0
  -21.6661  -26.7459   22.1206 H   0  0  0  0  0  0
  -19.6943  -25.6292   21.1248 H   0  0  0  0  0  0
  -19.6705  -27.3170   20.6716 H   0  0  0  0  0  0
  -17.4221  -26.6628   21.3998 H   0  0  0  0  0  0
  -18.0335  -26.0048   22.8987 H   0  0  0  0  0  0
  -19.7937  -30.7235   24.2279 H   0  0  0  0  0  0
  -17.5024  -31.6264   24.5147 H   0  0  0  0  0  0
  -15.5351  -30.2981   23.7666 H   0  0  0  0  0  0
  -15.8659  -28.0817   22.7072 H   0  0  0  0  0  0
  -24.5904  -30.7011   25.7772 H   0  0  0  0  0  0
  -24.8845  -32.2834   26.4848 H   0  0  0  0  0  0
  -25.8046  -30.8905   27.0223 H   0  0  0  0  0  0
  -26.2902  -29.6720   24.1224 H   0  0  0  0  0  0
  -27.4047  -29.7276   25.4674 H   0  0  0  0  0  0
  -27.8757  -30.4270   23.9378 H   0  0  0  0  0  0
  -27.2641  -33.3645   26.2011 H   0  0  0  0  0  0
  -28.3863  -32.6848   25.0329 H   0  0  0  0  0  0
  -28.0660  -31.8481   26.5437 H   0  0  0  0  0  0
  -28.2581  -38.0137   24.7528 H   0  0  0  0  0  0
  -28.1129  -36.2666   24.6241 H   0  0  0  0  0  0
  -27.2306  -37.1431   25.8848 H   0  0  0  0  0  0
  -20.9411  -29.8751   21.6873 H   0  0  0  0  0  0
  -26.0184  -38.2860   24.1376 H   0  0  0  0  0  0
  -27.7921  -20.9342   20.5135 H   0  0  0  0  0  0
  -32.4675  -18.9244   20.3197 H   0  0  0  0  0  0
  -33.1091  -19.9155   19.0571 H   0  0  0  0  0  0
  -31.8725  -18.8168   18.6322 H   0  0  0  0  0  0
  -33.8251  -22.7346   17.2257 H   0  0  0  0  0  0
  -32.0861  -22.9791   17.0583 H   0  0  0  0  0  0
  -32.7397  -21.3512   17.1603 H   0  0  0  0  0  0
  -28.5431  -18.3458   19.6566 H   0  0  0  0  0  0
  -28.8035  -18.5434   21.3522 H   0  0  0  0  0  0
  -27.1595  -23.4106   20.0878 H   0  0  0  0  0  0
  -28.1308  -24.0226   18.8023 H   0  0  0  0  0  0
  -33.5192  -21.9013   19.5671 H   0  0  0  0  0  0
  -32.8041  -23.4532   19.3945 H   0  0  0  0  0  0
  -31.1068  -17.4417   21.1376 H   0  0  0  0  0  0
  -30.8093  -17.2226   19.4177 H   0  0  0  0  0  0
  -29.4025  -25.0658   21.0987 H   0  0  0  0  0  0
  -27.7532  -25.1302   21.5664 H   0  0  0  0  0  0
  -28.8747  -15.6994   20.8053 H   0  0  0  0  0  0
  1 25  1  0  0  0
  1 30  2  0  0  0
  1 84  1  0  0  0
  2  3  1  0  0  0
  2 25  1  0  0  0
  2 85  1  0  0  0
  2 86  1  0  0  0
  3  4  1  0  0  0
  3 87  1  0  0  0
  3 88  1  0  0  0
  4  5  1  0  0  0
  4 89  1  0  0  0
  4 90  1  0  0  0
  5  6  1  0  0  0
  5 26  1  0  0  0
  5 91  1  0  0  0
  6 25  1  0  0  0
  6 92  1  0  0  0
  6 93  1  0  0  0
  7  8  2  0  0  0
  7 26  1  0  0  0
  7 29  1  0  0  0
  8  9  1  0  0  0
  8 22  1  0  0  0
  9 10  1  0  0  0
  9 27  2  0  0  0
 10 11  2  0  0  0
 10 15  1  0  0  0
 11 12  1  0  0  0
 11 94  1  0  0  0
 12 13  2  0  0  0
 12 95  1  0  0  0
 13 14  1  0  0  0
 13 31  1  0  0  0
 14 15  2  0  0  0
 14 96  1  0  0  0
 15 97  1  0  0  0
 16 17  2  0  0  0
 16 21  1  0  0  0
 16 31  1  0  0  0
 17 18  1  0  0  0
 17 98  1  0  0  0
 18 19  2  0  0  0
 18 99  1  0  0  0
 19 20  1  0  0  0
 19 24  1  0  0  0
 20 21  2  0  0  0
 20100  1  0  0  0
 21 23  1  0  0  0
 22 28  1  0  0  0
 22 32  2  0  0  0
 26 27  1  0  0  0
 28101  1  0  0  0
 28102  1  0  0  0
 29103  1  0  0  0
 29104  1  0  0  0
 33 34  1  0  0  0
 33 66  1  0  0  0
 33 70  2  0  0  0
 34 36  1  0  0  0
 34 59  1  0  0  0
 34105  1  0  0  0
 35 44  2  0  0  0
 35 45  1  0  0  0
 35 68  1  0  0  0
 36 56  1  0  0  0
 36106  1  0  0  0
 37 39  1  0  0  0
 37 47  1  0  0  0
 37 66  1  0  0  0
 37107  1  0  0  0
 38 43  2  0  0  0
 38 46  1  0  0  0
 38 47  1  0  0  0
 39 64  1  0  0  0
 39 67  2  0  0  0
 40 52  1  0  0  0
 40 53  2  0  0  0
 40 58  1  0  0  0
 41108  1  0  0  0
 41109  1  0  0  0
 41110  1  0  0  0
 41 48  1  0  0  0
 42 43  1  0  0  0
 42 66  1  0  0  0
 42111  1  0  0  0
 42112  1  0  0  0
 43 44  1  0  0  0
 44113  1  0  0  0
 45 46  2  0  0  0
 45114  1  0  0  0
 46115  1  0  0  0
 47116  1  0  0  0
 47117  1  0  0  0
 48 56  1  0  0  0
 48 65  1  0  0  0
 48118  1  0  0  0
 49 50  1  0  0  0
 49 53  1  0  0  0
 49 64  1  0  0  0
 49119  1  0  0  0
 50 51  1  0  0  0
 50120  1  0  0  0
 50121  1  0  0  0
 51 52  1  0  0  0
 51122  1  0  0  0
 51123  1  0  0  0
 52124  1  0  0  0
 52125  1  0  0  0
 53 54  1  0  0  0
 54 55  2  0  0  0
 54126  1  0  0  0
 55 57  1  0  0  0
 55127  1  0  0  0
 56 69  2  0  0  0
 57 58  2  0  0  0
 57128  1  0  0  0
 58129  1  0  0  0
 59 60  1  0  0  0
 59 61  1  0  0  0
 59 62  1  0  0  0
 60130  1  0  0  0
 60131  1  0  0  0
 60132  1  0  0  0
 61133  1  0  0  0
 61134  1  0  0  0
 61135  1  0  0  0
 62136  1  0  0  0
 62137  1  0  0  0
 62138  1  0  0  0
 63 65  1  0  0  0
 63139  1  0  0  0
 63140  1  0  0  0
 63141  1  0  0  0
 64142  1  0  0  0
 65143  1  0  0  0
 68 82  1  0  0  0
 71 72  2  0  0  0
 71 74  1  0  0  0
 71144  1  0  0  0
 72 73  1  0  0  0
 72 78  1  0  0  0
 73 75  2  0  0  0
 73 76  1  0  0  0
 74 79  1  0  0  0
 74 83  2  0  0  0
 75 80  1  0  0  0
 75 83  1  0  0  0
 76145  1  0  0  0
 76146  1  0  0  0
 76147  1  0  0  0
 77 80  1  0  0  0
 77148  1  0  0  0
 77149  1  0  0  0
 77150  1  0  0  0
 78 81  1  0  0  0
 78151  1  0  0  0
 78152  1  0  0  0
 79 82  1  0  0  0
 79153  1  0  0  0
 79154  1  0  0  0
 80155  1  0  0  0
 80156  1  0  0  0
 81 84  1  0  0  0
 81157  1  0  0  0
 81158  1  0  0  0
 82159  1  0  0  0
 82160  1  0  0  0
 84161  1  0  0  0
M  ISO  4   1 100  68 101  82 101  84 100
M  END
> <chiral flag>
0

> <version>
0

> <s_m_source_file>
/data/baiqing/PycharmProjects/Reinvent-master-3.2/result/LINK_invent/BTK/process_docking_weight1_custom_sum_contain_oxygen_bond_distance_aromatic_linkinvent_7_9_3/rearranged_h_0041.sdf

> <i_m_source_file_index>
20

> <r_mmod_Potential_Energy-OPLS-2005>
-11.3725814819336

> <r_mmod_Stretch_Energy-OPLS-2005>
112.812957763672

> <r_mmod_Bend_Energy-OPLS-2005>
178.712814331055

> <r_mmod_Torsional_Energy-OPLS-2005>
221.711410522461

> <r_mmod_Improper_Torsional_Energy-OPLS-2005>
6.72991371154785

> <r_mmod_Van_der_Waal_Energy-OPLS-2005>
148.729598999023

> <r_mmod_Electrostatic_Energy-OPLS-2005>
-512.642272949219

> <r_mmod_Solvation_Energy-OPLS-2005>
-227.894683837891

> <b_mmod_Minimization_Converged-OPLS-2005>
0

> <r_mmod_RMS_Derivative-OPLS-2005>
2.26704740524292

$$$$
20
                    3D
 Structure written by MMmdl.
161169  0  0  1  0            999 V2000
  -30.7477  -14.4281   20.5481 C   0  0  0  0  0  0
  -30.4042  -12.2670   19.4185 C   0  0  0  0  0  0
  -29.4888  -12.5044   18.2032 C   0  0  0  0  0  0
  -28.0032  -12.4027   18.6061 C   0  0  0  0  0  0
  -27.6654  -13.2151   19.8879 C   0  0  2  0  0  0
  -28.7158  -12.9925   21.0020 C   0  0  0  0  0  0
  -25.2615  -13.8190   20.5723 C   0  0  0  0  0  0
  -24.1871  -13.0437   20.9209 C   0  0  0  0  0  0
  -24.6429  -11.6922   20.8759 C   0  0  0  0  0  0
  -23.9083  -10.4305   21.0406 C   0  0  0  0  0  0
  -24.3638   -9.4229   21.9175 C   0  0  0  0  0  0
  -23.6314   -8.2263   22.0737 C   0  0  0  0  0  0
  -22.4272   -8.0312   21.3544 C   0  0  0  0  0  0
  -21.9927   -9.0269   20.4626 C   0  0  0  0  0  0
  -22.7264  -10.2150   20.3046 C   0  0  0  0  0  0
  -21.6848   -6.0770   22.5268 C   0  0  0  0  0  0
  -21.4005   -6.5656   23.8217 C   0  0  0  0  0  0
  -21.3685   -5.6795   24.9171 C   0  0  0  0  0  0
  -21.6048   -4.3051   24.7230 C   0  0  0  0  0  0
  -21.8820   -3.8178   23.4338 C   0  0  0  0  0  0
  -21.9206   -4.6999   22.3405 C   0  0  0  0  0  0
  -22.7923  -13.5234   21.1895 C   0  0  0  0  0  0
  -22.1666   -4.2201   21.0983 F   0  0  0  0  0  0
  -21.5656   -3.4529   25.7746 F   0  0  0  0  0  0
  -30.0437  -13.2703   20.4287 N   0  0  0  0  0  0
  -26.3062  -12.9369   20.3488 N   0  0  0  0  0  0
  -25.9347  -11.6513   20.5832 N   0  0  0  0  0  0
  -22.0557  -12.8148   22.0421 N   0  0  0  0  0  0
  -25.4333  -15.1892   20.4109 N   0  0  0  0  0  0
  -31.8714  -14.5860   20.0696 O   0  0  0  0  0  0
  -21.6634   -6.8891   21.4228 O   0  0  0  0  0  0
  -22.3611  -14.5577   20.6830 O   0  0  0  0  0  0
  -24.6108  -31.8695   23.2148 C   0  0  0  0  0  0
  -25.8995  -32.4838   23.8439 C   0  0  1  0  0  0
  -27.2404  -27.4576   20.0645 C   0  0  0  0  0  0
  -25.5861  -33.8649   24.2363 N   0  0  0  0  0  0
  -23.3977  -30.4938   21.5567 C   0  0  2  0  0  0
  -24.8381  -28.9518   20.1254 C   0  0  0  0  0  0
  -22.7344  -29.4683   22.5041 C   0  0  0  0  0  0
  -18.0268  -28.1407   22.8501 C   0  0  0  0  0  0
  -24.1466  -36.7308   23.2630 C   0  0  0  0  0  0
  -25.9202  -30.8359   21.3597 C   0  0  0  0  0  0
  -25.9972  -29.4681   20.7165 C   0  0  0  0  0  0
  -27.1981  -28.7279   20.6842 C   0  0  0  0  0  0
  -26.0578  -26.9476   19.4858 C   0  0  0  0  0  0
  -24.8585  -27.6847   19.5183 C   0  0  0  0  0  0
  -23.5976  -29.8131   20.1773 C   0  0  0  0  0  0
  -25.4097  -36.3117   24.0331 C   0  0  1  0  0  0
  -20.5830  -28.3663   23.1389 C   0  0  2  0  0  0
  -20.6770  -26.9423   22.5446 C   0  0  0  0  0  0
  -19.5763  -26.6425   21.5224 C   0  0  0  0  0  0
  -18.1924  -26.7986   22.1622 C   0  0  0  0  0  0
  -19.1492  -28.8857   23.2965 C   0  0  0  0  0  0
  -18.9438  -30.1477   23.8967 C   0  0  0  0  0  0
  -17.6438  -30.6611   24.0574 C   0  0  0  0  0  0
  -25.9019  -34.9470   23.5139 C   0  0  0  0  0  0
  -16.5336  -29.9086   23.6359 C   0  0  0  0  0  0
  -16.7255  -28.6502   23.0376 C   0  0  0  0  0  0
  -26.4437  -31.6605   25.0735 C   0  0  0  0  0  0
  -25.3716  -31.3596   26.1444 C   0  0  0  0  0  0
  -27.0297  -30.3073   24.6088 C   0  0  0  0  0  0
  -27.6093  -32.4234   25.7456 C   0  0  0  0  0  0
  -27.5570  -37.1777   24.8474 C   0  0  0  0  0  0
  -21.4067  -29.3027   22.3769 N   0  0  0  0  0  0
  -26.4291  -37.3800   23.9426 N   0  0  0  0  0  0
  -24.6636  -31.0786   22.1050 N   0  0  0  0  0  0
  -23.4119  -28.8222   23.3104 O   0  0  0  0  0  0
  -28.4595  -26.8342   19.9176 O   0  0  0  0  0  0
  -26.5552  -34.8903   22.4685 O   0  0  0  0  0  0
  -23.5339  -32.1429   23.7576 O   0  0  0  0  0  0
  -29.0806  -20.5807   19.2348 C   0  0  0  0  0  0
  -30.1840  -21.6824   21.0670 C   0  0  0  0  0  0
  -29.9793  -20.5110   20.3162 C   0  0  0  0  0  0
  -28.4451  -21.8104   18.9373 C   0  0  0  0  0  0
  -28.7642  -22.9528   19.7198 C   0  0  0  0  0  0
  -26.1249  -21.1463   18.1249 C   0  0  0  0  0  0
  -30.7587  -19.2414   20.6698 C   0  0  0  0  0  0
  -27.4438  -21.8536   17.7855 C   0  0  0  0  0  0
  -28.1996  -24.3514   19.4070 C   0  0  0  0  0  0
  -30.0129  -17.8978   20.4908 C   0  0  0  0  0  0
  -30.6524  -16.7864   21.3619 C   0  0  0  0  0  0
  -28.6660  -25.4876   20.3552 C   0  0  0  0  0  0
  -29.6069  -22.8638   20.7739 N   0  0  0  0  0  0
  -30.0900  -15.4520   21.1155 N   0  0  0  0  0  0
  -31.4547  -12.3125   19.1245 H   0  0  0  0  0  0
  -30.2452  -11.2625   19.8130 H   0  0  0  0  0  0
  -29.7093  -11.7794   17.4177 H   0  0  0  0  0  0
  -29.6999  -13.4879   17.7784 H   0  0  0  0  0  0
  -27.7588  -11.3487   18.7514 H   0  0  0  0  0  0
  -27.3749  -12.7382   17.7797 H   0  0  0  0  0  0
  -27.7025  -14.2713   19.6213 H   0  0  0  0  0  0
  -28.6761  -11.9642   21.3592 H   0  0  0  0  0  0
  -28.4987  -13.6043   21.8779 H   0  0  0  0  0  0
  -25.2785   -9.5727   22.4739 H   0  0  0  0  0  0
  -24.0078   -7.4644   22.7410 H   0  0  0  0  0  0
  -21.0891   -8.8739   19.8894 H   0  0  0  0  0  0
  -22.3703  -10.9677   19.6160 H   0  0  0  0  0  0
  -21.1928   -7.6150   23.9724 H   0  0  0  0  0  0
  -21.1518   -6.0525   25.9074 H   0  0  0  0  0  0
  -22.0573   -2.7647   23.2811 H   0  0  0  0  0  0
  -22.4171  -11.9776   22.4738 H   0  0  0  0  0  0
  -21.1170  -13.1142   22.2617 H   0  0  0  0  0  0
  -24.6703  -15.8477   20.5254 H   0  0  0  0  0  0
  -26.2944  -15.6246   20.1050 H   0  0  0  0  0  0
  -26.7047  -32.5496   23.1208 H   0  0  0  0  0  0
  -25.0068  -33.9896   25.0529 H   0  0  0  0  0  0
  -22.6887  -31.3101   21.4158 H   0  0  0  0  0  0
  -23.3761  -35.9611   23.3305 H   0  0  0  0  0  0
  -24.3581  -36.8941   22.2054 H   0  0  0  0  0  0
  -23.7192  -37.6497   23.6655 H   0  0  0  0  0  0
  -26.0108  -31.5931   20.5808 H   0  0  0  0  0  0
  -26.8192  -30.9080   21.9619 H   0  0  0  0  0  0
  -28.1017  -29.1401   21.1109 H   0  0  0  0  0  0
  -26.0530  -26.0088   18.9625 H   0  0  0  0  0  0
  -23.9659  -27.2840   19.0594 H   0  0  0  0  0  0
  -23.6908  -30.5787   19.4069 H   0  0  0  0  0  0
  -22.7187  -29.2254   19.8997 H   0  0  0  0  0  0
  -25.1279  -36.2007   25.0835 H   0  0  0  0  0  0
  -20.9929  -28.3200   24.1512 H   0  0  0  0  0  0
  -20.5736  -26.2228   23.3590 H   0  0  0  0  0  0
  -21.6631  -26.7533   22.1200 H   0  0  0  0  0  0
  -19.6908  -25.6330   21.1235 H   0  0  0  0  0  0
  -19.6739  -27.3256   20.6771 H   0  0  0  0  0  0
  -17.4223  -26.6787   21.3978 H   0  0  0  0  0  0
  -18.0288  -26.0127   22.9015 H   0  0  0  0  0  0
  -19.7907  -30.7306   24.2321 H   0  0  0  0  0  0
  -17.4986  -31.6304   24.5149 H   0  0  0  0  0  0
  -15.5327  -30.3001   23.7692 H   0  0  0  0  0  0
  -15.8664  -28.0844   22.7083 H   0  0  0  0  0  0
  -24.6033  -30.6779   25.7742 H   0  0  0  0  0  0
  -24.8702  -32.2687   26.4788 H   0  0  0  0  0  0
  -25.8087  -30.8860   27.0259 H   0  0  0  0  0  0
  -26.2865  -29.6797   24.1166 H   0  0  0  0  0  0
  -27.4134  -29.7295   25.4520 H   0  0  0  0  0  0
  -27.8644  -30.4446   23.9216 H   0  0  0  0  0  0
  -27.2878  -33.3628   26.1964 H   0  0  0  0  0  0
  -28.3955  -32.6606   25.0261 H   0  0  0  0  0  0
  -28.0692  -31.8337   26.5410 H   0  0  0  0  0  0
  -28.2554  -38.0089   24.7587 H   0  0  0  0  0  0
  -28.1080  -36.2634   24.6248 H   0  0  0  0  0  0
  -27.2292  -37.1400   25.8866 H   0  0  0  0  0  0
  -20.9175  -29.8565   21.6873 H   0  0  0  0  0  0
  -26.0167  -38.2866   24.1476 H   0  0  0  0  0  0
  -28.8751  -19.7040   18.6365 H   0  0  0  0  0  0
  -30.8501  -21.6880   21.9158 H   0  0  0  0  0  0
  -25.4512  -21.1511   17.2675 H   0  0  0  0  0  0
  -25.5966  -21.6351   18.9435 H   0  0  0  0  0  0
  -26.2900  -20.1096   18.4163 H   0  0  0  0  0  0
  -31.0969  -19.3283   21.7081 H   0  0  0  0  0  0
  -31.6758  -19.2334   20.0737 H   0  0  0  0  0  0
  -27.8955  -21.3746   16.9144 H   0  0  0  0  0  0
  -27.2256  -22.8772   17.4834 H   0  0  0  0  0  0
  -27.1148  -24.2803   19.4249 H   0  0  0  0  0  0
  -28.4818  -24.6088   18.3854 H   0  0  0  0  0  0
  -30.0197  -17.6170   19.4329 H   0  0  0  0  0  0
  -28.9645  -18.0066   20.7793 H   0  0  0  0  0  0
  -30.4845  -17.0106   22.4168 H   0  0  0  0  0  0
  -31.7383  -16.7891   21.2347 H   0  0  0  0  0  0
  -29.7522  -25.4351   20.4313 H   0  0  0  0  0  0
  -28.2784  -25.3450   21.3633 H   0  0  0  0  0  0
  -29.1365  -15.2834   21.3995 H   0  0  0  0  0  0
  1 25  1  0  0  0
  1 30  2  0  0  0
  1 84  1  0  0  0
  2  3  1  0  0  0
  2 25  1  0  0  0
  2 85  1  0  0  0
  2 86  1  0  0  0
  3  4  1  0  0  0
  3 87  1  0  0  0
  3 88  1  0  0  0
  4  5  1  0  0  0
  4 89  1  0  0  0
  4 90  1  0  0  0
  5  6  1  0  0  0
  5 26  1  0  0  0
  5 91  1  0  0  0
  6 25  1  0  0  0
  6 92  1  0  0  0
  6 93  1  0  0  0
  7  8  2  0  0  0
  7 26  1  0  0  0
  7 29  1  0  0  0
  8  9  1  0  0  0
  8 22  1  0  0  0
  9 10  1  0  0  0
  9 27  2  0  0  0
 10 11  2  0  0  0
 10 15  1  0  0  0
 11 12  1  0  0  0
 11 94  1  0  0  0
 12 13  2  0  0  0
 12 95  1  0  0  0
 13 14  1  0  0  0
 13 31  1  0  0  0
 14 15  2  0  0  0
 14 96  1  0  0  0
 15 97  1  0  0  0
 16 17  2  0  0  0
 16 21  1  0  0  0
 16 31  1  0  0  0
 17 18  1  0  0  0
 17 98  1  0  0  0
 18 19  2  0  0  0
 18 99  1  0  0  0
 19 20  1  0  0  0
 19 24  1  0  0  0
 20 21  2  0  0  0
 20100  1  0  0  0
 21 23  1  0  0  0
 22 28  1  0  0  0
 22 32  2  0  0  0
 26 27  1  0  0  0
 28101  1  0  0  0
 28102  1  0  0  0
 29103  1  0  0  0
 29104  1  0  0  0
 33 34  1  0  0  0
 33 66  1  0  0  0
 33 70  2  0  0  0
 34 36  1  0  0  0
 34 59  1  0  0  0
 34105  1  0  0  0
 35 44  2  0  0  0
 35 45  1  0  0  0
 35 68  1  0  0  0
 36 56  1  0  0  0
 36106  1  0  0  0
 37 39  1  0  0  0
 37 47  1  0  0  0
 37 66  1  0  0  0
 37107  1  0  0  0
 38 43  2  0  0  0
 38 46  1  0  0  0
 38 47  1  0  0  0
 39 64  1  0  0  0
 39 67  2  0  0  0
 40 52  1  0  0  0
 40 53  2  0  0  0
 40 58  1  0  0  0
 41108  1  0  0  0
 41109  1  0  0  0
 41110  1  0  0  0
 41 48  1  0  0  0
 42 43  1  0  0  0
 42 66  1  0  0  0
 42111  1  0  0  0
 42112  1  0  0  0
 43 44  1  0  0  0
 44113  1  0  0  0
 45 46  2  0  0  0
 45114  1  0  0  0
 46115  1  0  0  0
 47116  1  0  0  0
 47117  1  0  0  0
 48 56  1  0  0  0
 48 65  1  0  0  0
 48118  1  0  0  0
 49 50  1  0  0  0
 49 53  1  0  0  0
 49 64  1  0  0  0
 49119  1  0  0  0
 50 51  1  0  0  0
 50120  1  0  0  0
 50121  1  0  0  0
 51 52  1  0  0  0
 51122  1  0  0  0
 51123  1  0  0  0
 52124  1  0  0  0
 52125  1  0  0  0
 53 54  1  0  0  0
 54 55  2  0  0  0
 54126  1  0  0  0
 55 57  1  0  0  0
 55127  1  0  0  0
 56 69  2  0  0  0
 57 58  2  0  0  0
 57128  1  0  0  0
 58129  1  0  0  0
 59 60  1  0  0  0
 59 61  1  0  0  0
 59 62  1  0  0  0
 60130  1  0  0  0
 60131  1  0  0  0
 60132  1  0  0  0
 61133  1  0  0  0
 61134  1  0  0  0
 61135  1  0  0  0
 62136  1  0  0  0
 62137  1  0  0  0
 62138  1  0  0  0
 63 65  1  0  0  0
 63139  1  0  0  0
 63140  1  0  0  0
 63141  1  0  0  0
 64142  1  0  0  0
 65143  1  0  0  0
 68 82  1  0  0  0
 71 73  2  0  0  0
 71 74  1  0  0  0
 71144  1  0  0  0
 72 73  1  0  0  0
 72 83  2  0  0  0
 72145  1  0  0  0
 73 77  1  0  0  0
 74 75  2  0  0  0
 74 78  1  0  0  0
 75 79  1  0  0  0
 75 83  1  0  0  0
 76 78  1  0  0  0
 76146  1  0  0  0
 76147  1  0  0  0
 76148  1  0  0  0
 77 80  1  0  0  0
 77149  1  0  0  0
 77150  1  0  0  0
 78151  1  0  0  0
 78152  1  0  0  0
 79 82  1  0  0  0
 79153  1  0  0  0
 79154  1  0  0  0
 80 81  1  0  0  0
 80155  1  0  0  0
 80156  1  0  0  0
 81 84  1  0  0  0
 81157  1  0  0  0
 81158  1  0  0  0
 82159  1  0  0  0
 82160  1  0  0  0
 84161  1  0  0  0
M  ISO  4   1 100  68 101  82 101  84 100
M  END
> <chiral flag>
0

> <version>
0

> <s_m_source_file>
/data/baiqing/PycharmProjects/Reinvent-master-3.2/result/LINK_invent/BTK/process_docking_weight1_custom_sum_contain_oxygen_bond_distance_aromatic_linkinvent_7_9_3/rearranged_h_0041.sdf

> <i_m_source_file_index>
21

> <r_mmod_Potential_Energy-OPLS-2005>
-168.00700378418

> <r_mmod_Stretch_Energy-OPLS-2005>
35.62109375

> <r_mmod_Bend_Energy-OPLS-2005>
108.163566589355

> <r_mmod_Torsional_Energy-OPLS-2005>
219.164596557617

> <r_mmod_Improper_Torsional_Energy-OPLS-2005>
3.36258411407471

> <r_mmod_Van_der_Waal_Energy-OPLS-2005>
157.458862304688

> <r_mmod_Electrostatic_Energy-OPLS-2005>
-484.608764648438

> <r_mmod_Solvation_Energy-OPLS-2005>
-220.302871704102

> <b_mmod_Minimization_Converged-OPLS-2005>
0

> <r_mmod_RMS_Derivative-OPLS-2005>
7.12017250061035

$$$$
21
                    3D
 Structure written by MMmdl.
158166  0  0  1  0            999 V2000
  -30.6831  -14.5134   20.5165 C   0  0  0  0  0  0
  -30.4234  -12.3124   19.4482 C   0  0  0  0  0  0
  -29.5019  -12.5002   18.2231 C   0  0  0  0  0  0
  -28.0225  -12.3590   18.6302 C   0  0  0  0  0  0
  -27.6618  -13.2101   19.8769 C   0  0  2  0  0  0
  -28.7033  -13.0222   21.0067 C   0  0  0  0  0  0
  -25.2591  -13.8167   20.5696 C   0  0  0  0  0  0
  -24.1841  -13.0439   20.9183 C   0  0  0  0  0  0
  -24.6401  -11.6904   20.8735 C   0  0  0  0  0  0
  -23.9062  -10.4290   21.0401 C   0  0  0  0  0  0
  -24.3614   -9.4206   21.9181 C   0  0  0  0  0  0
  -23.6288   -8.2240   22.0753 C   0  0  0  0  0  0
  -22.4275   -8.0278   21.3538 C   0  0  0  0  0  0
  -21.9908   -9.0252   20.4642 C   0  0  0  0  0  0
  -22.7235  -10.2132   20.3049 C   0  0  0  0  0  0
  -21.6853   -6.0733   22.5277 C   0  0  0  0  0  0
  -21.4014   -6.5638   23.8210 C   0  0  0  0  0  0
  -21.3659   -5.6792   24.9172 C   0  0  0  0  0  0
  -21.6044   -4.3052   24.7224 C   0  0  0  0  0  0
  -21.8819   -3.8144   23.4344 C   0  0  0  0  0  0
  -21.9193   -4.6959   22.3400 C   0  0  0  0  0  0
  -22.7862  -13.5231   21.1841 C   0  0  0  0  0  0
  -22.1662   -4.2145   21.0977 F   0  0  0  0  0  0
  -21.5628   -3.4536   25.7738 F   0  0  0  0  0  0
  -30.0363  -13.3154   20.4567 N   0  0  0  0  0  0
  -26.3031  -12.9339   20.3381 N   0  0  0  0  0  0
  -25.9332  -11.6498   20.5785 N   0  0  0  0  0  0
  -22.0500  -12.8224   22.0395 N   0  0  0  0  0  0
  -25.4320  -15.1884   20.4112 N   0  0  0  0  0  0
  -31.8175  -14.6689   20.0673 O   0  0  0  0  0  0
  -21.6636   -6.8880   21.4239 O   0  0  0  0  0  0
  -22.3547  -14.5539   20.6689 O   0  0  0  0  0  0
  -24.6182  -31.8650   23.2094 C   0  0  0  0  0  0
  -25.9066  -32.4809   23.8384 C   0  0  1  0  0  0
  -27.2279  -27.3914   20.0977 C   0  0  0  0  0  0
  -25.5910  -33.8609   24.2312 N   0  0  0  0  0  0
  -23.4074  -30.4916   21.5499 C   0  0  2  0  0  0
  -24.8526  -28.9586   20.1101 C   0  0  0  0  0  0
  -22.7429  -29.4647   22.4961 C   0  0  0  0  0  0
  -18.0278  -28.1383   22.8490 C   0  0  0  0  0  0
  -24.1488  -36.7304   23.2641 C   0  0  0  0  0  0
  -25.9416  -30.8170   21.3706 C   0  0  0  0  0  0
  -26.0151  -29.4498   20.7154 C   0  0  0  0  0  0
  -27.2017  -28.6728   20.7093 C   0  0  0  0  0  0
  -26.0469  -26.9446   19.4563 C   0  0  0  0  0  0
  -24.8663  -27.7079   19.4759 C   0  0  0  0  0  0
  -23.6171  -29.8300   20.1625 C   0  0  0  0  0  0
  -25.4112  -36.3100   24.0336 C   0  0  1  0  0  0
  -20.5871  -28.3667   23.1310 C   0  0  2  0  0  0
  -20.6764  -26.9398   22.5417 C   0  0  0  0  0  0
  -19.5743  -26.6383   21.5216 C   0  0  0  0  0  0
  -18.1920  -26.7928   22.1626 C   0  0  0  0  0  0
  -19.1528  -28.8843   23.2897 C   0  0  0  0  0  0
  -18.9458  -30.1448   23.8906 C   0  0  0  0  0  0
  -17.6461  -30.6585   24.0569 C   0  0  0  0  0  0
  -25.9041  -34.9467   23.5119 C   0  0  0  0  0  0
  -16.5348  -29.9088   23.6337 C   0  0  0  0  0  0
  -16.7267  -28.6511   23.0346 C   0  0  0  0  0  0
  -26.4482  -31.6601   25.0723 C   0  0  0  0  0  0
  -25.3740  -31.3715   26.1466 C   0  0  0  0  0  0
  -27.0316  -30.3043   24.6111 C   0  0  0  0  0  0
  -27.6052  -32.4324   25.7487 C   0  0  0  0  0  0
  -27.5577  -37.1810   24.8470 C   0  0  0  0  0  0
  -21.4151  -29.3030   22.3708 N   0  0  0  0  0  0
  -26.4294  -37.3786   23.9409 N   0  0  0  0  0  0
  -24.6742  -31.0727   22.1012 N   0  0  0  0  0  0
  -23.4195  -28.8174   23.2998 O   0  0  0  0  0  0
  -28.3871  -26.6233   20.1568 O   0  0  0  0  0  0
  -26.5596  -34.8919   22.4675 O   0  0  0  0  0  0
  -23.5367  -32.1409   23.7476 O   0  0  0  0  0  0
  -29.7992  -19.2083   20.6799 C   0  0  0  0  0  0
  -31.6609  -20.5434   19.9202 C   0  0  0  0  0  0
  -30.4267  -20.4800   20.5850 C   0  0  0  0  0  0
  -30.3958  -18.0676   20.0676 C   0  0  0  0  0  0
  -31.6194  -18.2810   19.3780 C   0  0  0  0  0  0
  -32.3274  -17.2169   18.5584 C   0  0  0  0  0  0
  -29.8518  -21.7687   21.2011 C   0  0  0  0  0  0
  -29.6179  -16.7255   19.9860 C   0  0  0  0  0  0
  -29.3184  -22.8171   20.1761 C   0  0  0  0  0  0
  -29.2239  -24.2901   20.6914 C   0  0  0  0  0  0
  -28.3342  -25.2135   19.8095 C   0  0  0  0  0  0
  -32.2403  -19.4788   19.3371 N   0  0  0  0  0  0
  -29.9228  -15.5729   20.8715 N   0  0  0  0  0  0
  -31.4701  -12.3978   19.1502 H   0  0  0  0  0  0
  -30.3147  -11.3071   19.8588 H   0  0  0  0  0  0
  -29.7472  -11.7696   17.4512 H   0  0  0  0  0  0
  -29.6700  -13.4827   17.7797 H   0  0  0  0  0  0
  -27.8381  -11.3040   18.8374 H   0  0  0  0  0  0
  -27.3729  -12.6202   17.7941 H   0  0  0  0  0  0
  -27.6963  -14.2526   19.5613 H   0  0  0  0  0  0
  -28.6786  -11.9975   21.3806 H   0  0  0  0  0  0
  -28.4677  -13.6544   21.8637 H   0  0  0  0  0  0
  -25.2762   -9.5674   22.4753 H   0  0  0  0  0  0
  -23.9992   -7.4631   22.7473 H   0  0  0  0  0  0
  -21.0839   -8.8769   19.8947 H   0  0  0  0  0  0
  -22.3698  -10.9667   19.6151 H   0  0  0  0  0  0
  -21.2009   -7.6147   23.9711 H   0  0  0  0  0  0
  -21.1483   -6.0522   25.9074 H   0  0  0  0  0  0
  -22.0601   -2.7606   23.2846 H   0  0  0  0  0  0
  -22.4119  -11.9882   22.4772 H   0  0  0  0  0  0
  -21.1117  -13.1245   22.2601 H   0  0  0  0  0  0
  -24.6663  -15.8449   20.5206 H   0  0  0  0  0  0
  -26.2832  -15.6252   20.0837 H   0  0  0  0  0  0
  -26.7124  -32.5507   23.1132 H   0  0  0  0  0  0
  -25.0093  -33.9765   25.0477 H   0  0  0  0  0  0
  -22.6980  -31.3100   21.4114 H   0  0  0  0  0  0
  -23.3743  -35.9644   23.3329 H   0  0  0  0  0  0
  -24.3575  -36.8888   22.2048 H   0  0  0  0  0  0
  -23.7245  -37.6518   23.6636 H   0  0  0  0  0  0
  -26.0603  -31.5825   20.6021 H   0  0  0  0  0  0
  -26.8280  -30.8672   21.9917 H   0  0  0  0  0  0
  -28.0944  -29.0439   21.1926 H   0  0  0  0  0  0
  -26.0008  -26.0085   18.9219 H   0  0  0  0  0  0
  -23.9780  -27.3322   18.9870 H   0  0  0  0  0  0
  -23.7283  -30.6068   19.4050 H   0  0  0  0  0  0
  -22.7398  -29.2533   19.8642 H   0  0  0  0  0  0
  -25.1289  -36.1962   25.0829 H   0  0  0  0  0  0
  -20.9971  -28.3227   24.1430 H   0  0  0  0  0  0
  -20.5670  -26.2266   23.3598 H   0  0  0  0  0  0
  -21.6631  -26.7432   22.1204 H   0  0  0  0  0  0
  -19.6901  -25.6299   21.1231 H   0  0  0  0  0  0
  -19.6692  -27.3207   20.6755 H   0  0  0  0  0  0
  -17.4189  -26.6686   21.4022 H   0  0  0  0  0  0
  -18.0317  -26.0066   22.9019 H   0  0  0  0  0  0
  -19.7933  -30.7262   24.2276 H   0  0  0  0  0  0
  -17.5016  -31.6270   24.5159 H   0  0  0  0  0  0
  -15.5349  -30.2993   23.7657 H   0  0  0  0  0  0
  -15.8666  -28.0838   22.7050 H   0  0  0  0  0  0
  -24.5925  -30.7044   25.7808 H   0  0  0  0  0  0
  -24.8920  -32.2870   26.4902 H   0  0  0  0  0  0
  -25.8094  -30.8898   27.0230 H   0  0  0  0  0  0
  -26.2862  -29.6802   24.1164 H   0  0  0  0  0  0
  -27.4082  -29.7283   25.4572 H   0  0  0  0  0  0
  -27.8698  -30.4361   23.9267 H   0  0  0  0  0  0
  -27.2672  -33.3627   26.2065 H   0  0  0  0  0  0
  -28.3864  -32.6876   25.0314 H   0  0  0  0  0  0
  -28.0709  -31.8442   26.5402 H   0  0  0  0  0  0
  -28.2610  -38.0091   24.7499 H   0  0  0  0  0  0
  -28.1055  -36.2620   24.6323 H   0  0  0  0  0  0
  -27.2291  -37.1497   25.8873 H   0  0  0  0  0  0
  -20.9306  -29.8769   21.6948 H   0  0  0  0  0  0
  -26.0184  -38.2864   24.1407 H   0  0  0  0  0  0
  -28.8462  -19.1164   21.1822 H   0  0  0  0  0  0
  -32.1944  -21.4794   19.8384 H   0  0  0  0  0  0
  -31.6456  -16.4772   18.1439 H   0  0  0  0  0  0
  -33.0719  -16.7077   19.1693 H   0  0  0  0  0  0
  -32.8500  -17.6637   17.7119 H   0  0  0  0  0  0
  -30.6504  -22.2233   21.7903 H   0  0  0  0  0  0
  -29.0665  -21.5168   21.9152 H   0  0  0  0  0  0
  -28.5692  -16.9598   20.1734 H   0  0  0  0  0  0
  -29.6136  -16.3820   18.9503 H   0  0  0  0  0  0
  -28.3436  -22.4825   19.8178 H   0  0  0  0  0  0
  -29.9654  -22.8271   19.2979 H   0  0  0  0  0  0
  -30.2282  -24.7079   20.7635 H   0  0  0  0  0  0
  -28.8223  -24.2941   21.7057 H   0  0  0  0  0  0
  -27.3338  -24.7959   19.9063 H   0  0  0  0  0  0
  -28.6197  -25.1161   18.7614 H   0  0  0  0  0  0
  -29.1304  -15.2968   21.4331 H   0  0  0  0  0  0
  1 25  1  0  0  0
  1 30  2  0  0  0
  1 83  1  0  0  0
  2  3  1  0  0  0
  2 25  1  0  0  0
  2 84  1  0  0  0
  2 85  1  0  0  0
  3  4  1  0  0  0
  3 86  1  0  0  0
  3 87  1  0  0  0
  4  5  1  0  0  0
  4 88  1  0  0  0
  4 89  1  0  0  0
  5  6  1  0  0  0
  5 26  1  0  0  0
  5 90  1  0  0  0
  6 25  1  0  0  0
  6 91  1  0  0  0
  6 92  1  0  0  0
  7  8  2  0  0  0
  7 26  1  0  0  0
  7 29  1  0  0  0
  8  9  1  0  0  0
  8 22  1  0  0  0
  9 10  1  0  0  0
  9 27  2  0  0  0
 10 11  2  0  0  0
 10 15  1  0  0  0
 11 12  1  0  0  0
 11 93  1  0  0  0
 12 13  2  0  0  0
 12 94  1  0  0  0
 13 14  1  0  0  0
 13 31  1  0  0  0
 14 15  2  0  0  0
 14 95  1  0  0  0
 15 96  1  0  0  0
 16 17  2  0  0  0
 16 21  1  0  0  0
 16 31  1  0  0  0
 17 18  1  0  0  0
 17 97  1  0  0  0
 18 19  2  0  0  0
 18 98  1  0  0  0
 19 20  1  0  0  0
 19 24  1  0  0  0
 20 21  2  0  0  0
 20 99  1  0  0  0
 21 23  1  0  0  0
 22 28  1  0  0  0
 22 32  2  0  0  0
 26 27  1  0  0  0
 28100  1  0  0  0
 28101  1  0  0  0
 29102  1  0  0  0
 29103  1  0  0  0
 33 34  1  0  0  0
 33 66  1  0  0  0
 33 70  2  0  0  0
 34 36  1  0  0  0
 34 59  1  0  0  0
 34104  1  0  0  0
 35 44  2  0  0  0
 35 45  1  0  0  0
 35 68  1  0  0  0
 36 56  1  0  0  0
 36105  1  0  0  0
 37 39  1  0  0  0
 37 47  1  0  0  0
 37 66  1  0  0  0
 37106  1  0  0  0
 38 43  2  0  0  0
 38 46  1  0  0  0
 38 47  1  0  0  0
 39 64  1  0  0  0
 39 67  2  0  0  0
 40 52  1  0  0  0
 40 53  2  0  0  0
 40 58  1  0  0  0
 41107  1  0  0  0
 41108  1  0  0  0
 41109  1  0  0  0
 41 48  1  0  0  0
 42 43  1  0  0  0
 42 66  1  0  0  0
 42110  1  0  0  0
 42111  1  0  0  0
 43 44  1  0  0  0
 44112  1  0  0  0
 45 46  2  0  0  0
 45113  1  0  0  0
 46114  1  0  0  0
 47115  1  0  0  0
 47116  1  0  0  0
 48 56  1  0  0  0
 48 65  1  0  0  0
 48117  1  0  0  0
 49 50  1  0  0  0
 49 53  1  0  0  0
 49 64  1  0  0  0
 49118  1  0  0  0
 50 51  1  0  0  0
 50119  1  0  0  0
 50120  1  0  0  0
 51 52  1  0  0  0
 51121  1  0  0  0
 51122  1  0  0  0
 52123  1  0  0  0
 52124  1  0  0  0
 53 54  1  0  0  0
 54 55  2  0  0  0
 54125  1  0  0  0
 55 57  1  0  0  0
 55126  1  0  0  0
 56 69  2  0  0  0
 57 58  2  0  0  0
 57127  1  0  0  0
 58128  1  0  0  0
 59 60  1  0  0  0
 59 61  1  0  0  0
 59 62  1  0  0  0
 60129  1  0  0  0
 60130  1  0  0  0
 60131  1  0  0  0
 61132  1  0  0  0
 61133  1  0  0  0
 61134  1  0  0  0
 62135  1  0  0  0
 62136  1  0  0  0
 62137  1  0  0  0
 63 65  1  0  0  0
 63138  1  0  0  0
 63139  1  0  0  0
 63140  1  0  0  0
 64141  1  0  0  0
 65142  1  0  0  0
 68 81  1  0  0  0
 71 73  2  0  0  0
 71 74  1  0  0  0
 71143  1  0  0  0
 72 73  1  0  0  0
 72 82  2  0  0  0
 72144  1  0  0  0
 73 77  1  0  0  0
 74 75  2  0  0  0
 74 78  1  0  0  0
 75 76  1  0  0  0
 75 82  1  0  0  0
 76145  1  0  0  0
 76146  1  0  0  0
 76147  1  0  0  0
 77 79  1  0  0  0
 77148  1  0  0  0
 77149  1  0  0  0
 78 83  1  0  0  0
 78150  1  0  0  0
 78151  1  0  0  0
 79 80  1  0  0  0
 79152  1  0  0  0
 79153  1  0  0  0
 80 81  1  0  0  0
 80154  1  0  0  0
 80155  1  0  0  0
 81156  1  0  0  0
 81157  1  0  0  0
 83158  1  0  0  0
M  ISO  4   1 100  68 101  81 101  83 100
M  END
> <chiral flag>
0

> <version>
0

> <s_m_source_file>
/data/baiqing/PycharmProjects/Reinvent-master-3.2/result/LINK_invent/BTK/process_docking_weight1_custom_sum_contain_oxygen_bond_distance_aromatic_linkinvent_7_9_3/rearranged_h_0041.sdf

> <i_m_source_file_index>
22

> <r_mmod_Potential_Energy-OPLS-2005>
-135.457366943359

> <r_mmod_Stretch_Energy-OPLS-2005>
47.2809028625488

> <r_mmod_Bend_Energy-OPLS-2005>
118.418251037598

> <r_mmod_Torsional_Energy-OPLS-2005>
237.58935546875

> <r_mmod_Improper_Torsional_Energy-OPLS-2005>
10.0818786621094

> <r_mmod_Van_der_Waal_Energy-OPLS-2005>
152.073593139648

> <r_mmod_Electrostatic_Energy-OPLS-2005>
-489.871215820312

> <r_mmod_Solvation_Energy-OPLS-2005>
-232.17399597168

> <b_mmod_Minimization_Converged-OPLS-2005>
0

> <r_mmod_RMS_Derivative-OPLS-2005>
0.952761709690094

$$$$
22
                    3D
 Structure written by MMmdl.
169177  0  0  1  0            999 V2000
  -30.6882  -14.5109   20.5593 C   0  0  0  0  0  0
  -30.4262  -12.3299   19.4261 C   0  0  0  0  0  0
  -29.4964  -12.4991   18.2069 C   0  0  0  0  0  0
  -28.0186  -12.3568   18.6217 C   0  0  0  0  0  0
  -27.6587  -13.2111   19.8672 C   0  0  2  0  0  0
  -28.7021  -13.0102   20.9901 C   0  0  0  0  0  0
  -25.2599  -13.8194   20.5707 C   0  0  0  0  0  0
  -24.1852  -13.0464   20.9201 C   0  0  0  0  0  0
  -24.6403  -11.6923   20.8736 C   0  0  0  0  0  0
  -23.9082  -10.4302   21.0399 C   0  0  0  0  0  0
  -24.3625   -9.4219   21.9176 C   0  0  0  0  0  0
  -23.6304   -8.2255   22.0738 C   0  0  0  0  0  0
  -22.4285   -8.0304   21.3538 C   0  0  0  0  0  0
  -21.9928   -9.0279   20.4640 C   0  0  0  0  0  0
  -22.7261  -10.2152   20.3055 C   0  0  0  0  0  0
  -21.6864   -6.0762   22.5283 C   0  0  0  0  0  0
  -21.4021   -6.5647   23.8221 C   0  0  0  0  0  0
  -21.3646   -5.6793   24.9171 C   0  0  0  0  0  0
  -21.6038   -4.3057   24.7219 C   0  0  0  0  0  0
  -21.8820   -3.8163   23.4337 C   0  0  0  0  0  0
  -21.9191   -4.6984   22.3397 C   0  0  0  0  0  0
  -22.7868  -13.5260   21.1833 C   0  0  0  0  0  0
  -22.1664   -4.2171   21.0981 F   0  0  0  0  0  0
  -21.5612   -3.4537   25.7730 F   0  0  0  0  0  0
  -30.0274  -13.3267   20.4335 N   0  0  0  0  0  0
  -26.3020  -12.9357   20.3339 N   0  0  0  0  0  0
  -25.9328  -11.6512   20.5750 N   0  0  0  0  0  0
  -22.0481  -12.8275   22.0383 N   0  0  0  0  0  0
  -25.4336  -15.1917   20.4135 N   0  0  0  0  0  0
  -31.8283  -14.6824   20.1163 O   0  0  0  0  0  0
  -21.6647   -6.8905   21.4247 O   0  0  0  0  0  0
  -22.3556  -14.5554   20.6656 O   0  0  0  0  0  0
  -24.6158  -31.8661   23.2085 C   0  0  0  0  0  0
  -25.9044  -32.4815   23.8382 C   0  0  1  0  0  0
  -27.2364  -27.4136   20.1084 C   0  0  0  0  0  0
  -25.5897  -33.8613   24.2316 N   0  0  0  0  0  0
  -23.4065  -30.4879   21.5485 C   0  0  2  0  0  0
  -24.8571  -28.9511   20.1146 C   0  0  0  0  0  0
  -22.7420  -29.4651   22.4982 C   0  0  0  0  0  0
  -18.0270  -28.1386   22.8490 C   0  0  0  0  0  0
  -24.1485  -36.7311   23.2641 C   0  0  0  0  0  0
  -25.9372  -30.8271   21.3652 C   0  0  0  0  0  0
  -26.0183  -29.4593   20.7113 C   0  0  0  0  0  0
  -27.2157  -28.7005   20.7010 C   0  0  0  0  0  0
  -26.0620  -26.9271   19.4995 C   0  0  0  0  0  0
  -24.8747  -27.6846   19.5042 C   0  0  0  0  0  0
  -23.6177  -29.8181   20.1641 C   0  0  0  0  0  0
  -25.4106  -36.3105   24.0339 C   0  0  1  0  0  0
  -20.5865  -28.3678   23.1316 C   0  0  2  0  0  0
  -20.6766  -26.9415   22.5423 C   0  0  0  0  0  0
  -19.5746  -26.6389   21.5218 C   0  0  0  0  0  0
  -18.1922  -26.7930   22.1624 C   0  0  0  0  0  0
  -19.1522  -28.8843   23.2897 C   0  0  0  0  0  0
  -18.9450  -30.1454   23.8911 C   0  0  0  0  0  0
  -17.6457  -30.6590   24.0567 C   0  0  0  0  0  0
  -25.9035  -34.9473   23.5128 C   0  0  0  0  0  0
  -16.5346  -29.9094   23.6332 C   0  0  0  0  0  0
  -16.7263  -28.6507   23.0350 C   0  0  0  0  0  0
  -26.4476  -31.6595   25.0713 C   0  0  0  0  0  0
  -25.3741  -31.3717   26.1464 C   0  0  0  0  0  0
  -27.0311  -30.3026   24.6111 C   0  0  0  0  0  0
  -27.6051  -32.4321   25.7467 C   0  0  0  0  0  0
  -27.5583  -37.1806   24.8467 C   0  0  0  0  0  0
  -21.4145  -29.3036   22.3718 N   0  0  0  0  0  0
  -26.4293  -37.3789   23.9412 N   0  0  0  0  0  0
  -24.6711  -31.0745   22.0999 N   0  0  0  0  0  0
  -23.4180  -28.8202   23.3035 O   0  0  0  0  0  0
  -28.3642  -26.6153   20.1203 O   0  0  0  0  0  0
  -26.5601  -34.8931   22.4693 O   0  0  0  0  0  0
  -23.5341  -32.1428   23.7464 O   0  0  0  0  0  0
  -29.7037  -24.0397   19.3527 C   0  0  0  0  0  0
  -29.8751  -22.6472   19.0917 C   0  0  0  0  0  0
  -28.7988  -24.2042   20.3620 C   0  0  0  0  0  0
  -29.0622  -21.9569   19.9536 C   0  0  0  0  0  0
  -30.7629  -22.0496   18.0306 C   0  0  0  0  0  0
  -28.1072  -22.4509   25.7681 C   0  0  0  0  0  0
  -28.7818  -20.4520   19.9801 C   0  0  0  0  0  0
  -28.2710  -25.4794   21.0153 C   0  0  0  0  0  0
  -27.3921  -22.2722   24.4236 C   0  0  0  0  0  0
  -29.7759  -19.5050   20.7168 C   0  0  0  0  0  0
  -28.2697  -22.6981   23.2372 C   0  0  0  0  0  0
  -29.3923  -17.9898   20.5890 C   0  0  0  0  0  0
  -27.5352  -22.6120   21.8890 C   0  0  0  0  0  0
  -30.4023  -16.9599   21.1820 C   0  0  0  0  0  0
  -28.4341  -22.9103   20.7741 N   0  0  0  0  0  0
  -29.9706  -15.5447   21.0557 N   0  0  0  0  0  0
  -31.4680  -12.4382   19.1220 H   0  0  0  0  0  0
  -30.3411  -11.3227   19.8371 H   0  0  0  0  0  0
  -29.7441  -11.7599   17.4437 H   0  0  0  0  0  0
  -29.6571  -13.4761   17.7481 H   0  0  0  0  0  0
  -27.8352  -11.3034   18.8344 H   0  0  0  0  0  0
  -27.3666  -12.6087   17.7837 H   0  0  0  0  0  0
  -27.6963  -14.2561   19.5545 H   0  0  0  0  0  0
  -28.6902  -11.9768   21.3396 H   0  0  0  0  0  0
  -28.4602  -13.6173   21.8623 H   0  0  0  0  0  0
  -25.2760   -9.5712   22.4756 H   0  0  0  0  0  0
  -24.0013   -7.4661   22.7463 H   0  0  0  0  0  0
  -21.0851   -8.8821   19.8958 H   0  0  0  0  0  0
  -22.3723  -10.9698   19.6174 H   0  0  0  0  0  0
  -21.2033   -7.6159   23.9746 H   0  0  0  0  0  0
  -21.1453   -6.0503   25.9072 H   0  0  0  0  0  0
  -22.0610   -2.7627   23.2826 H   0  0  0  0  0  0
  -22.4063  -11.9956   22.4837 H   0  0  0  0  0  0
  -21.1091  -13.1322   22.2526 H   0  0  0  0  0  0
  -24.6709  -15.8522   20.5247 H   0  0  0  0  0  0
  -26.2861  -15.6245   20.0819 H   0  0  0  0  0  0
  -26.7115  -32.5527   23.1144 H   0  0  0  0  0  0
  -25.0034  -33.9771   25.0453 H   0  0  0  0  0  0
  -22.6949  -31.3046   21.4067 H   0  0  0  0  0  0
  -23.3747  -35.9647   23.3315 H   0  0  0  0  0  0
  -24.3578  -36.8917   22.2054 H   0  0  0  0  0  0
  -23.7243  -37.6521   23.6651 H   0  0  0  0  0  0
  -26.0523  -31.5945   20.5977 H   0  0  0  0  0  0
  -26.8231  -30.8798   21.9868 H   0  0  0  0  0  0
  -28.1113  -29.0886   21.1667 H   0  0  0  0  0  0
  -26.0646  -25.9520   19.0333 H   0  0  0  0  0  0
  -23.9819  -27.2861   19.0419 H   0  0  0  0  0  0
  -23.7275  -30.5925   19.4043 H   0  0  0  0  0  0
  -22.7420  -29.2378   19.8680 H   0  0  0  0  0  0
  -25.1281  -36.1971   25.0830 H   0  0  0  0  0  0
  -20.9947  -28.3249   24.1442 H   0  0  0  0  0  0
  -20.5678  -26.2284   23.3612 H   0  0  0  0  0  0
  -21.6639  -26.7467   22.1217 H   0  0  0  0  0  0
  -19.6919  -25.6300   21.1244 H   0  0  0  0  0  0
  -19.6692  -27.3200   20.6750 H   0  0  0  0  0  0
  -17.4201  -26.6684   21.4020 H   0  0  0  0  0  0
  -18.0324  -26.0067   22.9012 H   0  0  0  0  0  0
  -19.7932  -30.7258   24.2286 H   0  0  0  0  0  0
  -17.5018  -31.6274   24.5171 H   0  0  0  0  0  0
  -15.5351  -30.3004   23.7648 H   0  0  0  0  0  0
  -15.8661  -28.0835   22.7064 H   0  0  0  0  0  0
  -24.5890  -30.7093   25.7798 H   0  0  0  0  0  0
  -24.8963  -32.2883   26.4926 H   0  0  0  0  0  0
  -25.8081  -30.8862   27.0211 H   0  0  0  0  0  0
  -26.2859  -29.6775   24.1173 H   0  0  0  0  0  0
  -27.4077  -29.7275   25.4582 H   0  0  0  0  0  0
  -27.8698  -30.4333   23.9268 H   0  0  0  0  0  0
  -27.2667  -33.3608   26.2070 H   0  0  0  0  0  0
  -28.3833  -32.6903   25.0276 H   0  0  0  0  0  0
  -28.0752  -31.8438   26.5356 H   0  0  0  0  0  0
  -28.2608  -38.0095   24.7503 H   0  0  0  0  0  0
  -28.1067  -36.2627   24.6294 H   0  0  0  0  0  0
  -27.2308  -37.1468   25.8872 H   0  0  0  0  0  0
  -20.9312  -29.8736   21.6920 H   0  0  0  0  0  0
  -26.0187  -38.2871   24.1400 H   0  0  0  0  0  0
  -30.1915  -24.8556   18.8346 H   0  0  0  0  0  0
  -31.3492  -22.8215   17.5316 H   0  0  0  0  0  0
  -30.1633  -21.5386   17.2772 H   0  0  0  0  0  0
  -31.4542  -21.3280   18.4680 H   0  0  0  0  0  0
  -27.4818  -22.1140   26.5954 H   0  0  0  0  0  0
  -28.3500  -23.4993   25.9457 H   0  0  0  0  0  0
  -29.0374  -21.8823   25.8030 H   0  0  0  0  0  0
  -28.7484  -20.1184   18.9417 H   0  0  0  0  0  0
  -27.7750  -20.2533   20.3391 H   0  0  0  0  0  0
  -28.8615  -25.7041   21.9034 H   0  0  0  0  0  0
  -27.2480  -25.3377   21.3634 H   0  0  0  0  0  0
  -26.4700  -22.8555   24.4263 H   0  0  0  0  0  0
  -27.0939  -21.2285   24.3062 H   0  0  0  0  0  0
  -29.8350  -19.7858   21.7707 H   0  0  0  0  0  0
  -30.7737  -19.6585   20.3047 H   0  0  0  0  0  0
  -29.1583  -22.0674   23.2010 H   0  0  0  0  0  0
  -28.6225  -23.7171   23.3946 H   0  0  0  0  0  0
  -29.2457  -17.7567   19.5337 H   0  0  0  0  0  0
  -28.4204  -17.8396   21.0618 H   0  0  0  0  0  0
  -26.6828  -23.2896   21.8658 H   0  0  0  0  0  0
  -27.1060  -21.6200   21.7756 H   0  0  0  0  0  0
  -30.5437  -17.1683   22.2434 H   0  0  0  0  0  0
  -31.3785  -17.1073   20.7151 H   0  0  0  0  0  0
  -29.0367  -15.3203   21.3685 H   0  0  0  0  0  0
  1 25  1  0  0  0
  1 30  2  0  0  0
  1 86  1  0  0  0
  2  3  1  0  0  0
  2 25  1  0  0  0
  2 87  1  0  0  0
  2 88  1  0  0  0
  3  4  1  0  0  0
  3 89  1  0  0  0
  3 90  1  0  0  0
  4  5  1  0  0  0
  4 91  1  0  0  0
  4 92  1  0  0  0
  5  6  1  0  0  0
  5 26  1  0  0  0
  5 93  1  0  0  0
  6 25  1  0  0  0
  6 94  1  0  0  0
  6 95  1  0  0  0
  7  8  2  0  0  0
  7 26  1  0  0  0
  7 29  1  0  0  0
  8  9  1  0  0  0
  8 22  1  0  0  0
  9 10  1  0  0  0
  9 27  2  0  0  0
 10 11  2  0  0  0
 10 15  1  0  0  0
 11 12  1  0  0  0
 11 96  1  0  0  0
 12 13  2  0  0  0
 12 97  1  0  0  0
 13 14  1  0  0  0
 13 31  1  0  0  0
 14 15  2  0  0  0
 14 98  1  0  0  0
 15 99  1  0  0  0
 16 17  2  0  0  0
 16 21  1  0  0  0
 16 31  1  0  0  0
 17 18  1  0  0  0
 17100  1  0  0  0
 18 19  2  0  0  0
 18101  1  0  0  0
 19 20  1  0  0  0
 19 24  1  0  0  0
 20 21  2  0  0  0
 20102  1  0  0  0
 21 23  1  0  0  0
 22 28  1  0  0  0
 22 32  2  0  0  0
 26 27  1  0  0  0
 28103  1  0  0  0
 28104  1  0  0  0
 29105  1  0  0  0
 29106  1  0  0  0
 33 34  1  0  0  0
 33 66  1  0  0  0
 33 70  2  0  0  0
 34 36  1  0  0  0
 34 59  1  0  0  0
 34107  1  0  0  0
 35 44  2  0  0  0
 35 45  1  0  0  0
 35 68  1  0  0  0
 36 56  1  0  0  0
 36108  1  0  0  0
 37 39  1  0  0  0
 37 47  1  0  0  0
 37 66  1  0  0  0
 37109  1  0  0  0
 38 43  2  0  0  0
 38 46  1  0  0  0
 38 47  1  0  0  0
 39 64  1  0  0  0
 39 67  2  0  0  0
 40 52  1  0  0  0
 40 53  2  0  0  0
 40 58  1  0  0  0
 41110  1  0  0  0
 41111  1  0  0  0
 41112  1  0  0  0
 41 48  1  0  0  0
 42 43  1  0  0  0
 42 66  1  0  0  0
 42113  1  0  0  0
 42114  1  0  0  0
 43 44  1  0  0  0
 44115  1  0  0  0
 45 46  2  0  0  0
 45116  1  0  0  0
 46117  1  0  0  0
 47118  1  0  0  0
 47119  1  0  0  0
 48 56  1  0  0  0
 48 65  1  0  0  0
 48120  1  0  0  0
 49 50  1  0  0  0
 49 53  1  0  0  0
 49 64  1  0  0  0
 49121  1  0  0  0
 50 51  1  0  0  0
 50122  1  0  0  0
 50123  1  0  0  0
 51 52  1  0  0  0
 51124  1  0  0  0
 51125  1  0  0  0
 52126  1  0  0  0
 52127  1  0  0  0
 53 54  1  0  0  0
 54 55  2  0  0  0
 54128  1  0  0  0
 55 57  1  0  0  0
 55129  1  0  0  0
 56 69  2  0  0  0
 57 58  2  0  0  0
 57130  1  0  0  0
 58131  1  0  0  0
 59 60  1  0  0  0
 59 61  1  0  0  0
 59 62  1  0  0  0
 60132  1  0  0  0
 60133  1  0  0  0
 60134  1  0  0  0
 61135  1  0  0  0
 61136  1  0  0  0
 61137  1  0  0  0
 62138  1  0  0  0
 62139  1  0  0  0
 62140  1  0  0  0
 63 65  1  0  0  0
 63141  1  0  0  0
 63142  1  0  0  0
 63143  1  0  0  0
 64144  1  0  0  0
 65145  1  0  0  0
 68 78  1  0  0  0
 71 72  1  0  0  0
 71 73  2  0  0  0
 71146  1  0  0  0
 72 74  2  0  0  0
 72 75  1  0  0  0
 73 78  1  0  0  0
 73 85  1  0  0  0
 74 77  1  0  0  0
 74 85  1  0  0  0
 75147  1  0  0  0
 75148  1  0  0  0
 75149  1  0  0  0
 76 79  1  0  0  0
 76150  1  0  0  0
 76151  1  0  0  0
 76152  1  0  0  0
 77 80  1  0  0  0
 77153  1  0  0  0
 77154  1  0  0  0
 78155  1  0  0  0
 78156  1  0  0  0
 79 81  1  0  0  0
 79157  1  0  0  0
 79158  1  0  0  0
 80 82  1  0  0  0
 80159  1  0  0  0
 80160  1  0  0  0
 81 83  1  0  0  0
 81161  1  0  0  0
 81162  1  0  0  0
 82 84  1  0  0  0
 82163  1  0  0  0
 82164  1  0  0  0
 83 85  1  0  0  0
 83165  1  0  0  0
 83166  1  0  0  0
 84 86  1  0  0  0
 84167  1  0  0  0
 84168  1  0  0  0
 86169  1  0  0  0
M  ISO  4   1 100  68 101  78 101  86 100
M  END
> <chiral flag>
0

> <version>
0

> <s_m_source_file>
/data/baiqing/PycharmProjects/Reinvent-master-3.2/result/LINK_invent/BTK/process_docking_weight1_custom_sum_contain_oxygen_bond_distance_aromatic_linkinvent_7_9_3/rearranged_h_0041.sdf

> <i_m_source_file_index>
23

> <r_mmod_Potential_Energy-OPLS-2005>
-38.9704284667969

> <r_mmod_Stretch_Energy-OPLS-2005>
45.6859703063965

> <r_mmod_Bend_Energy-OPLS-2005>
103.419509887695

> <r_mmod_Torsional_Energy-OPLS-2005>
245.794815063477

> <r_mmod_Improper_Torsional_Energy-OPLS-2005>
3.64288067817688

> <r_mmod_Van_der_Waal_Energy-OPLS-2005>
117.56517791748

> <r_mmod_Electrostatic_Energy-OPLS-2005>
-367.518463134766

> <r_mmod_Solvation_Energy-OPLS-2005>
-205.643051147461

> <b_mmod_Minimization_Converged-OPLS-2005>
0

> <r_mmod_RMS_Derivative-OPLS-2005>
2.23161792755127

$$$$
23
                    3D
 Structure written by MMmdl.
156164  0  0  1  0            999 V2000
  -30.7228  -14.4685   20.5664 C   0  0  0  0  0  0
  -30.4164  -12.3044   19.4255 C   0  0  0  0  0  0
  -29.4913  -12.4952   18.2065 C   0  0  0  0  0  0
  -28.0120  -12.3621   18.6195 C   0  0  0  0  0  0
  -27.6588  -13.2124   19.8691 C   0  0  2  0  0  0
  -28.7010  -13.0114   20.9925 C   0  0  0  0  0  0
  -25.2583  -13.8169   20.5695 C   0  0  0  0  0  0
  -24.1825  -13.0444   20.9172 C   0  0  0  0  0  0
  -24.6373  -11.6910   20.8717 C   0  0  0  0  0  0
  -23.9040  -10.4293   21.0381 C   0  0  0  0  0  0
  -24.3598   -9.4215   21.9163 C   0  0  0  0  0  0
  -23.6288   -8.2244   22.0736 C   0  0  0  0  0  0
  -22.4271   -8.0270   21.3526 C   0  0  0  0  0  0
  -21.9896   -9.0244   20.4635 C   0  0  0  0  0  0
  -22.7214  -10.2125   20.3033 C   0  0  0  0  0  0
  -21.6856   -6.0728   22.5271 C   0  0  0  0  0  0
  -21.4022   -6.5633   23.8202 C   0  0  0  0  0  0
  -21.3665   -5.6779   24.9164 C   0  0  0  0  0  0
  -21.6046   -4.3044   24.7217 C   0  0  0  0  0  0
  -21.8822   -3.8137   23.4340 C   0  0  0  0  0  0
  -21.9200   -4.6959   22.3395 C   0  0  0  0  0  0
  -22.7847  -13.5247   21.1840 C   0  0  0  0  0  0
  -22.1666   -4.2139   21.0977 F   0  0  0  0  0  0
  -21.5630   -3.4530   25.7736 F   0  0  0  0  0  0
  -30.0308  -13.3036   20.4342 N   0  0  0  0  0  0
  -26.3014  -12.9351   20.3347 N   0  0  0  0  0  0
  -25.9307  -11.6502   20.5750 N   0  0  0  0  0  0
  -22.0491  -12.8236   22.0397 N   0  0  0  0  0  0
  -25.4333  -15.1885   20.4133 N   0  0  0  0  0  0
  -31.8539  -14.6227   20.1001 O   0  0  0  0  0  0
  -21.6632   -6.8871   21.4228 O   0  0  0  0  0  0
  -22.3537  -14.5564   20.6709 O   0  0  0  0  0  0
  -24.6152  -31.8682   23.2116 C   0  0  0  0  0  0
  -25.9050  -32.4823   23.8403 C   0  0  1  0  0  0
  -27.2154  -27.4074   20.0937 C   0  0  0  0  0  0
  -25.5912  -33.8627   24.2334 N   0  0  0  0  0  0
  -23.4034  -30.4957   21.5517 C   0  0  2  0  0  0
  -24.8455  -28.9657   20.1109 C   0  0  0  0  0  0
  -22.7419  -29.4657   22.4957 C   0  0  0  0  0  0
  -18.0284  -28.1379   22.8491 C   0  0  0  0  0  0
  -24.1492  -36.7301   23.2633 C   0  0  0  0  0  0
  -25.9373  -30.8224   21.3742 C   0  0  0  0  0  0
  -26.0084  -29.4580   20.7160 C   0  0  0  0  0  0
  -27.1954  -28.6854   20.7065 C   0  0  0  0  0  0
  -26.0384  -26.9567   19.4503 C   0  0  0  0  0  0
  -24.8572  -27.7159   19.4740 C   0  0  0  0  0  0
  -23.6122  -29.8367   20.1637 C   0  0  0  0  0  0
  -25.4112  -36.3111   24.0335 C   0  0  1  0  0  0
  -20.5874  -28.3665   23.1311 C   0  0  2  0  0  0
  -20.6772  -26.9399   22.5416 C   0  0  0  0  0  0
  -19.5754  -26.6388   21.5208 C   0  0  0  0  0  0
  -18.1931  -26.7931   22.1615 C   0  0  0  0  0  0
  -19.1534  -28.8837   23.2904 C   0  0  0  0  0  0
  -18.9453  -30.1444   23.8917 C   0  0  0  0  0  0
  -17.6456  -30.6583   24.0565 C   0  0  0  0  0  0
  -25.9038  -34.9477   23.5130 C   0  0  0  0  0  0
  -16.5348  -29.9080   23.6330 C   0  0  0  0  0  0
  -16.7274  -28.6497   23.0349 C   0  0  0  0  0  0
  -26.4480  -31.6610   25.0730 C   0  0  0  0  0  0
  -25.3748  -31.3715   26.1472 C   0  0  0  0  0  0
  -27.0312  -30.3053   24.6117 C   0  0  0  0  0  0
  -27.6058  -32.4325   25.7484 C   0  0  0  0  0  0
  -27.5593  -37.1799   24.8458 C   0  0  0  0  0  0
  -21.4142  -29.3039   22.3710 N   0  0  0  0  0  0
  -26.4298  -37.3796   23.9418 N   0  0  0  0  0  0
  -24.6698  -31.0769   22.1030 N   0  0  0  0  0  0
  -23.4190  -28.8180   23.2984 O   0  0  0  0  0  0
  -28.3650  -26.6349   20.1377 O   0  0  0  0  0  0
  -26.5587  -34.8922   22.4681 O   0  0  0  0  0  0
  -23.5348  -32.1441   23.7506 O   0  0  0  0  0  0
  -30.1366  -21.9740   20.9020 C   0  0  0  0  0  0
  -29.0517  -22.8990   20.9106 C   0  0  0  0  0  0
  -29.5814  -20.7239   21.0246 C   0  0  0  0  0  0
  -27.1178  -19.9747   21.1369 C   0  0  0  0  0  0
  -29.1170  -24.4225   20.9987 C   0  0  0  0  0  0
  -30.3376  -19.4145   21.1993 C   0  0  0  0  0  0
  -29.6294  -18.0326   21.0740 C   0  0  0  0  0  0
  -30.6298  -16.8618   21.2861 C   0  0  0  0  0  0
  -28.2317  -25.1965   19.9946 C   0  0  0  0  0  0
  -27.8956  -22.2517   20.9873 N   0  0  0  0  0  0
  -28.2066  -20.9293   21.0402 N   0  0  0  0  0  0
  -30.0624  -15.5069   21.1175 N   0  0  0  0  0  0
  -31.4615  -12.3913   19.1216 H   0  0  0  0  0  0
  -30.3100  -11.2992   19.8357 H   0  0  0  0  0  0
  -29.7294  -11.7630   17.4338 H   0  0  0  0  0  0
  -29.6613  -13.4780   17.7637 H   0  0  0  0  0  0
  -27.8198  -11.3077   18.8235 H   0  0  0  0  0  0
  -27.3611  -12.6309   17.7867 H   0  0  0  0  0  0
  -27.6989  -14.2580   19.5604 H   0  0  0  0  0  0
  -28.6730  -11.9833   21.3543 H   0  0  0  0  0  0
  -28.4647  -13.6344   21.8565 H   0  0  0  0  0  0
  -25.2740   -9.5715   22.4740 H   0  0  0  0  0  0
  -24.0002   -7.4648   22.7467 H   0  0  0  0  0  0
  -21.0814   -8.8765   19.8964 H   0  0  0  0  0  0
  -22.3658  -10.9657   19.6145 H   0  0  0  0  0  0
  -21.2009   -7.6138   23.9704 H   0  0  0  0  0  0
  -21.1486   -6.0504   25.9063 H   0  0  0  0  0  0
  -22.0601   -2.7601   23.2833 H   0  0  0  0  0  0
  -22.4114  -11.9909   22.4799 H   0  0  0  0  0  0
  -21.1119  -13.1270   22.2617 H   0  0  0  0  0  0
  -24.6701  -15.8460   20.5300 H   0  0  0  0  0  0
  -26.2903  -15.6258   20.0990 H   0  0  0  0  0  0
  -26.7102  -32.5522   23.1142 H   0  0  0  0  0  0
  -25.0120  -33.9798   25.0518 H   0  0  0  0  0  0
  -22.6927  -31.3135   21.4174 H   0  0  0  0  0  0
  -23.3768  -35.9621   23.3293 H   0  0  0  0  0  0
  -24.3592  -36.8917   22.2050 H   0  0  0  0  0  0
  -23.7231  -37.6497   23.6647 H   0  0  0  0  0  0
  -26.0637  -31.5906   20.6103 H   0  0  0  0  0  0
  -26.8215  -30.8654   21.9987 H   0  0  0  0  0  0
  -28.0890  -29.0557   21.1908 H   0  0  0  0  0  0
  -26.0088  -26.0192   18.9153 H   0  0  0  0  0  0
  -23.9679  -27.3405   18.9853 H   0  0  0  0  0  0
  -23.7262  -30.6159   19.4095 H   0  0  0  0  0  0
  -22.7349  -29.2610   19.8616 H   0  0  0  0  0  0
  -25.1292  -36.1972   25.0831 H   0  0  0  0  0  0
  -20.9984  -28.3239   24.1423 H   0  0  0  0  0  0
  -20.5671  -26.2270   23.3603 H   0  0  0  0  0  0
  -21.6643  -26.7436   22.1212 H   0  0  0  0  0  0
  -19.6908  -25.6301   21.1229 H   0  0  0  0  0  0
  -19.6703  -27.3201   20.6743 H   0  0  0  0  0  0
  -17.4206  -26.6691   21.4011 H   0  0  0  0  0  0
  -18.0327  -26.0065   22.9006 H   0  0  0  0  0  0
  -19.7929  -30.7257   24.2295 H   0  0  0  0  0  0
  -17.5009  -31.6264   24.5160 H   0  0  0  0  0  0
  -15.5348  -30.2980   23.7647 H   0  0  0  0  0  0
  -15.8676  -28.0817   22.7053 H   0  0  0  0  0  0
  -24.5919  -30.7061   25.7806 H   0  0  0  0  0  0
  -24.8932  -32.2868   26.4926 H   0  0  0  0  0  0
  -25.8102  -30.8879   27.0228 H   0  0  0  0  0  0
  -26.2853  -29.6806   24.1180 H   0  0  0  0  0  0
  -27.4094  -29.7294   25.4579 H   0  0  0  0  0  0
  -27.8695  -30.4373   23.9267 H   0  0  0  0  0  0
  -27.2687  -33.3620   26.2086 H   0  0  0  0  0  0
  -28.3855  -32.6895   25.0298 H   0  0  0  0  0  0
  -28.0740  -31.8432   26.5381 H   0  0  0  0  0  0
  -28.2589  -38.0117   24.7553 H   0  0  0  0  0  0
  -28.1116  -36.2655   24.6234 H   0  0  0  0  0  0
  -27.2318  -37.1385   25.8860 H   0  0  0  0  0  0
  -20.9284  -29.8783   21.6961 H   0  0  0  0  0  0
  -26.0187  -38.2873   24.1441 H   0  0  0  0  0  0
  -31.1928  -22.2038   20.8824 H   0  0  0  0  0  0
  -27.1778  -19.2577   20.3179 H   0  0  0  0  0  0
  -26.1536  -20.4798   21.0772 H   0  0  0  0  0  0
  -27.1691  -19.4476   22.0892 H   0  0  0  0  0  0
  -30.1494  -24.7457   20.8665 H   0  0  0  0  0  0
  -28.8408  -24.7290   22.0083 H   0  0  0  0  0  0
  -30.8190  -19.4505   22.1767 H   0  0  0  0  0  0
  -31.1625  -19.4236   20.4858 H   0  0  0  0  0  0
  -29.1637  -17.9484   20.0920 H   0  0  0  0  0  0
  -28.8394  -17.9482   21.8182 H   0  0  0  0  0  0
  -31.0522  -16.9179   22.2897 H   0  0  0  0  0  0
  -31.4698  -17.0100   20.6043 H   0  0  0  0  0  0
  -27.2161  -24.8509   20.1848 H   0  0  0  0  0  0
  -28.4808  -24.9180   18.9701 H   0  0  0  0  0  0
  -29.1269  -15.3328   21.4552 H   0  0  0  0  0  0
  1 25  1  0  0  0
  1 30  2  0  0  0
  1 82  1  0  0  0
  2  3  1  0  0  0
  2 25  1  0  0  0
  2 83  1  0  0  0
  2 84  1  0  0  0
  3  4  1  0  0  0
  3 85  1  0  0  0
  3 86  1  0  0  0
  4  5  1  0  0  0
  4 87  1  0  0  0
  4 88  1  0  0  0
  5  6  1  0  0  0
  5 26  1  0  0  0
  5 89  1  0  0  0
  6 25  1  0  0  0
  6 90  1  0  0  0
  6 91  1  0  0  0
  7  8  2  0  0  0
  7 26  1  0  0  0
  7 29  1  0  0  0
  8  9  1  0  0  0
  8 22  1  0  0  0
  9 10  1  0  0  0
  9 27  2  0  0  0
 10 11  2  0  0  0
 10 15  1  0  0  0
 11 12  1  0  0  0
 11 92  1  0  0  0
 12 13  2  0  0  0
 12 93  1  0  0  0
 13 14  1  0  0  0
 13 31  1  0  0  0
 14 15  2  0  0  0
 14 94  1  0  0  0
 15 95  1  0  0  0
 16 17  2  0  0  0
 16 21  1  0  0  0
 16 31  1  0  0  0
 17 18  1  0  0  0
 17 96  1  0  0  0
 18 19  2  0  0  0
 18 97  1  0  0  0
 19 20  1  0  0  0
 19 24  1  0  0  0
 20 21  2  0  0  0
 20 98  1  0  0  0
 21 23  1  0  0  0
 22 28  1  0  0  0
 22 32  2  0  0  0
 26 27  1  0  0  0
 28 99  1  0  0  0
 28100  1  0  0  0
 29101  1  0  0  0
 29102  1  0  0  0
 33 34  1  0  0  0
 33 66  1  0  0  0
 33 70  2  0  0  0
 34 36  1  0  0  0
 34 59  1  0  0  0
 34103  1  0  0  0
 35 44  2  0  0  0
 35 45  1  0  0  0
 35 68  1  0  0  0
 36 56  1  0  0  0
 36104  1  0  0  0
 37 39  1  0  0  0
 37 47  1  0  0  0
 37 66  1  0  0  0
 37105  1  0  0  0
 38 43  2  0  0  0
 38 46  1  0  0  0
 38 47  1  0  0  0
 39 64  1  0  0  0
 39 67  2  0  0  0
 40 52  1  0  0  0
 40 53  2  0  0  0
 40 58  1  0  0  0
 41106  1  0  0  0
 41107  1  0  0  0
 41108  1  0  0  0
 41 48  1  0  0  0
 42 43  1  0  0  0
 42 66  1  0  0  0
 42109  1  0  0  0
 42110  1  0  0  0
 43 44  1  0  0  0
 44111  1  0  0  0
 45 46  2  0  0  0
 45112  1  0  0  0
 46113  1  0  0  0
 47114  1  0  0  0
 47115  1  0  0  0
 48 56  1  0  0  0
 48 65  1  0  0  0
 48116  1  0  0  0
 49 50  1  0  0  0
 49 53  1  0  0  0
 49 64  1  0  0  0
 49117  1  0  0  0
 50 51  1  0  0  0
 50118  1  0  0  0
 50119  1  0  0  0
 51 52  1  0  0  0
 51120  1  0  0  0
 51121  1  0  0  0
 52122  1  0  0  0
 52123  1  0  0  0
 53 54  1  0  0  0
 54 55  2  0  0  0
 54124  1  0  0  0
 55 57  1  0  0  0
 55125  1  0  0  0
 56 69  2  0  0  0
 57 58  2  0  0  0
 57126  1  0  0  0
 58127  1  0  0  0
 59 60  1  0  0  0
 59 61  1  0  0  0
 59 62  1  0  0  0
 60128  1  0  0  0
 60129  1  0  0  0
 60130  1  0  0  0
 61131  1  0  0  0
 61132  1  0  0  0
 61133  1  0  0  0
 62134  1  0  0  0
 62135  1  0  0  0
 62136  1  0  0  0
 63 65  1  0  0  0
 63137  1  0  0  0
 63138  1  0  0  0
 63139  1  0  0  0
 64140  1  0  0  0
 65141  1  0  0  0
 68 79  1  0  0  0
 71 72  1  0  0  0
 71 73  2  0  0  0
 71142  1  0  0  0
 72 75  1  0  0  0
 72 80  2  0  0  0
 73 76  1  0  0  0
 73 81  1  0  0  0
 74 81  1  0  0  0
 74143  1  0  0  0
 74144  1  0  0  0
 74145  1  0  0  0
 75 79  1  0  0  0
 75146  1  0  0  0
 75147  1  0  0  0
 76 77  1  0  0  0
 76148  1  0  0  0
 76149  1  0  0  0
 77 78  1  0  0  0
 77150  1  0  0  0
 77151  1  0  0  0
 78 82  1  0  0  0
 78152  1  0  0  0
 78153  1  0  0  0
 79154  1  0  0  0
 79155  1  0  0  0
 80 81  1  0  0  0
 82156  1  0  0  0
M  ISO  4   1 100  68 101  79 101  82 100
M  END
> <chiral flag>
0

> <version>
0

> <s_m_source_file>
/data/baiqing/PycharmProjects/Reinvent-master-3.2/result/LINK_invent/BTK/process_docking_weight1_custom_sum_contain_oxygen_bond_distance_aromatic_linkinvent_7_9_3/rearranged_h_0041.sdf

> <i_m_source_file_index>
24

> <r_mmod_Potential_Energy-OPLS-2005>
-116.034851074219

> <r_mmod_Stretch_Energy-OPLS-2005>
39.2543983459473

> <r_mmod_Bend_Energy-OPLS-2005>
109.598686218262

> <r_mmod_Torsional_Energy-OPLS-2005>
195.522445678711

> <r_mmod_Improper_Torsional_Energy-OPLS-2005>
3.52295756340027

> <r_mmod_Van_der_Waal_Energy-OPLS-2005>
135.79167175293

> <r_mmod_Electrostatic_Energy-OPLS-2005>
-393.696838378906

> <r_mmod_Solvation_Energy-OPLS-2005>
-223.261932373047

> <b_mmod_Minimization_Converged-OPLS-2005>
0

> <r_mmod_RMS_Derivative-OPLS-2005>
1.81884241104126

$$$$
24
                    3D
 Structure written by MMmdl.
159167  0  0  1  0            999 V2000
  -30.6763  -14.5098   20.5181 C   0  0  0  0  0  0
  -30.4231  -12.3114   19.4269 C   0  0  0  0  0  0
  -29.4954  -12.4875   18.2062 C   0  0  0  0  0  0
  -28.0153  -12.3513   18.6185 C   0  0  0  0  0  0
  -27.6565  -13.2069   19.8644 C   0  0  2  0  0  0
  -28.7023  -13.0121   20.9860 C   0  0  0  0  0  0
  -25.2568  -13.8166   20.5689 C   0  0  0  0  0  0
  -24.1827  -13.0454   20.9210 C   0  0  0  0  0  0
  -24.6373  -11.6917   20.8763 C   0  0  0  0  0  0
  -23.9039  -10.4310   21.0410 C   0  0  0  0  0  0
  -24.3599   -9.4216   21.9189 C   0  0  0  0  0  0
  -23.6294   -8.2236   22.0742 C   0  0  0  0  0  0
  -22.4273   -8.0277   21.3529 C   0  0  0  0  0  0
  -21.9898   -9.0250   20.4635 C   0  0  0  0  0  0
  -22.7214  -10.2141   20.3051 C   0  0  0  0  0  0
  -21.6845   -6.0739   22.5286 C   0  0  0  0  0  0
  -21.4010   -6.5635   23.8225 C   0  0  0  0  0  0
  -21.3660   -5.6775   24.9186 C   0  0  0  0  0  0
  -21.6043   -4.3048   24.7230 C   0  0  0  0  0  0
  -21.8820   -3.8143   23.4347 C   0  0  0  0  0  0
  -21.9186   -4.6958   22.3405 C   0  0  0  0  0  0
  -22.7842  -13.5250   21.1872 C   0  0  0  0  0  0
  -22.1651   -4.2147   21.0983 F   0  0  0  0  0  0
  -21.5622   -3.4532   25.7740 F   0  0  0  0  0  0
  -30.0268  -13.3175   20.4235 N   0  0  0  0  0  0
  -26.3004  -12.9334   20.3330 N   0  0  0  0  0  0
  -25.9302  -11.6505   20.5765 N   0  0  0  0  0  0
  -22.0470  -12.8259   22.0426 N   0  0  0  0  0  0
  -25.4280  -15.1888   20.4045 N   0  0  0  0  0  0
  -31.8380  -14.6733   20.1321 O   0  0  0  0  0  0
  -21.6624   -6.8884   21.4243 O   0  0  0  0  0  0
  -22.3528  -14.5565   20.6719 O   0  0  0  0  0  0
  -24.6223  -31.8590   23.2053 C   0  0  0  0  0  0
  -25.9084  -32.4771   23.8346 C   0  0  1  0  0  0
  -27.1996  -27.3555   20.1195 C   0  0  0  0  0  0
  -25.5924  -33.8581   24.2276 N   0  0  0  0  0  0
  -23.4112  -30.4885   21.5449 C   0  0  2  0  0  0
  -24.8472  -28.9460   20.1104 C   0  0  0  0  0  0
  -22.7433  -29.4631   22.4927 C   0  0  0  0  0  0
  -18.0281  -28.1344   22.8501 C   0  0  0  0  0  0
  -24.1491  -36.7312   23.2626 C   0  0  0  0  0  0
  -25.9471  -30.8081   21.3608 C   0  0  0  0  0  0
  -26.0156  -29.4375   20.7072 C   0  0  0  0  0  0
  -27.1981  -28.6528   20.7002 C   0  0  0  0  0  0
  -26.0154  -26.9000   19.4984 C   0  0  0  0  0  0
  -24.8464  -27.6815   19.4971 C   0  0  0  0  0  0
  -23.6176  -29.8249   20.1586 C   0  0  0  0  0  0
  -25.4110  -36.3090   24.0320 C   0  0  1  0  0  0
  -20.5880  -28.3646   23.1295 C   0  0  2  0  0  0
  -20.6765  -26.9369   22.5408 C   0  0  0  0  0  0
  -19.5740  -26.6358   21.5203 C   0  0  0  0  0  0
  -18.1924  -26.7893   22.1629 C   0  0  0  0  0  0
  -19.1533  -28.8810   23.2897 C   0  0  0  0  0  0
  -18.9459  -30.1420   23.8898 C   0  0  0  0  0  0
  -17.6461  -30.6555   24.0559 C   0  0  0  0  0  0
  -25.9049  -34.9455   23.5100 C   0  0  0  0  0  0
  -16.5350  -29.9054   23.6322 C   0  0  0  0  0  0
  -16.7270  -28.6465   23.0352 C   0  0  0  0  0  0
  -26.4502  -31.6572   25.0700 C   0  0  0  0  0  0
  -25.3786  -31.3720   26.1466 C   0  0  0  0  0  0
  -27.0305  -30.2996   24.6099 C   0  0  0  0  0  0
  -27.6049  -32.4309   25.7477 C   0  0  0  0  0  0
  -27.5585  -37.1787   24.8441 C   0  0  0  0  0  0
  -21.4144  -29.3030   22.3693 N   0  0  0  0  0  0
  -26.4270  -37.3801   23.9435 N   0  0  0  0  0  0
  -24.6797  -31.0683   22.0943 N   0  0  0  0  0  0
  -23.4192  -28.8142   23.2951 O   0  0  0  0  0  0
  -28.3220  -26.5410   20.1528 O   0  0  0  0  0  0
  -26.5610  -34.8924   22.4660 O   0  0  0  0  0  0
  -23.5413  -32.1305   23.7467 O   0  0  0  0  0  0
  -26.5311  -21.9031   20.6074 C   0  0  0  0  0  0
  -27.9275  -21.6604   20.4628 C   0  0  0  0  0  0
  -28.0888  -20.3599   20.9257 C   0  0  0  0  0  0
  -26.4812  -18.8160   22.2155 C   0  0  0  0  0  0
  -28.9711  -22.6448   19.9374 C   0  0  0  0  0  0
  -29.3038  -19.4381   21.0374 C   0  0  0  0  0  0
  -28.5159  -24.0822   19.4781 C   0  0  0  0  0  0
  -29.1519  -17.9717   20.4973 C   0  0  0  0  0  0
  -30.2908  -16.9900   20.9180 C   0  0  0  0  0  0
  -28.1289  -25.1456   20.5561 C   0  0  0  0  0  0
  -25.9023  -20.9156   21.2151 N   0  0  0  0  0  0
  -26.8557  -19.9931   21.4530 N   0  0  0  0  0  0
  -29.9058  -15.5589   20.8723 N   0  0  0  0  0  0
  -31.4681  -12.4071   19.1290 H   0  0  0  0  0  0
  -30.3203  -11.3101   19.8491 H   0  0  0  0  0  0
  -29.7409  -11.7508   17.4399 H   0  0  0  0  0  0
  -29.6608  -13.4659   17.7522 H   0  0  0  0  0  0
  -27.8341  -11.2977   18.8318 H   0  0  0  0  0  0
  -27.3636  -12.6043   17.7817 H   0  0  0  0  0  0
  -27.6907  -14.2513   19.5515 H   0  0  0  0  0  0
  -28.6841  -11.9804   21.3435 H   0  0  0  0  0  0
  -28.4714  -13.6293   21.8563 H   0  0  0  0  0  0
  -25.2736   -9.5695   22.4765 H   0  0  0  0  0  0
  -24.0010   -7.4606   22.7447 H   0  0  0  0  0  0
  -21.0826   -8.8771   19.8929 H   0  0  0  0  0  0
  -22.3681  -10.9678   19.6156 H   0  0  0  0  0  0
  -21.2005   -7.6140   23.9743 H   0  0  0  0  0  0
  -21.1484   -6.0500   25.9093 H   0  0  0  0  0  0
  -22.0602   -2.7603   23.2844 H   0  0  0  0  0  0
  -22.4076  -11.9918   22.4812 H   0  0  0  0  0  0
  -21.1077  -13.1275   22.2627 H   0  0  0  0  0  0
  -24.6540  -15.8370   20.4973 H   0  0  0  0  0  0
  -26.2652  -15.6184   20.0315 H   0  0  0  0  0  0
  -26.7150  -32.5447   23.1093 H   0  0  0  0  0  0
  -25.0137  -33.9732   25.0465 H   0  0  0  0  0  0
  -22.7045  -31.3098   21.4082 H   0  0  0  0  0  0
  -23.3746  -35.9650   23.3257 H   0  0  0  0  0  0
  -24.3605  -36.8960   22.2049 H   0  0  0  0  0  0
  -23.7238  -37.6505   23.6663 H   0  0  0  0  0  0
  -26.0690  -31.5711   20.5909 H   0  0  0  0  0  0
  -26.8352  -30.8584   21.9809 H   0  0  0  0  0  0
  -28.0988  -29.0208   21.1719 H   0  0  0  0  0  0
  -25.9811  -25.9315   19.0206 H   0  0  0  0  0  0
  -23.9492  -27.3013   19.0267 H   0  0  0  0  0  0
  -23.7344  -30.5990   19.3982 H   0  0  0  0  0  0
  -22.7378  -29.2508   19.8616 H   0  0  0  0  0  0
  -25.1293  -36.1926   25.0810 H   0  0  0  0  0  0
  -21.0007  -28.3195   24.1398 H   0  0  0  0  0  0
  -20.5650  -26.2244   23.3595 H   0  0  0  0  0  0
  -21.6632  -26.7364   22.1211 H   0  0  0  0  0  0
  -19.6887  -25.6270   21.1214 H   0  0  0  0  0  0
  -19.6674  -27.3188   20.6745 H   0  0  0  0  0  0
  -17.4192  -26.6639   21.4032 H   0  0  0  0  0  0
  -18.0314  -26.0023   22.9013 H   0  0  0  0  0  0
  -19.7940  -30.7244   24.2248 H   0  0  0  0  0  0
  -17.5014  -31.6248   24.5142 H   0  0  0  0  0  0
  -15.5347  -30.2966   23.7633 H   0  0  0  0  0  0
  -15.8667  -28.0799   22.7050 H   0  0  0  0  0  0
  -24.5921  -30.7095   25.7840 H   0  0  0  0  0  0
  -24.9044  -32.2907   26.4920 H   0  0  0  0  0  0
  -25.8160  -30.8884   27.0208 H   0  0  0  0  0  0
  -26.2822  -29.6781   24.1157 H   0  0  0  0  0  0
  -27.4047  -29.7225   25.4564 H   0  0  0  0  0  0
  -27.8693  -30.4282   23.9255 H   0  0  0  0  0  0
  -27.2595  -33.3571   26.2082 H   0  0  0  0  0  0
  -28.3839  -32.6919   25.0303 H   0  0  0  0  0  0
  -28.0731  -31.8420   26.5372 H   0  0  0  0  0  0
  -28.2536  -38.0152   24.7597 H   0  0  0  0  0  0
  -28.1136  -36.2688   24.6107 H   0  0  0  0  0  0
  -27.2327  -37.1257   25.8843 H   0  0  0  0  0  0
  -20.9253  -29.8809   21.7001 H   0  0  0  0  0  0
  -26.0134  -38.2849   24.1524 H   0  0  0  0  0  0
  -25.9608  -22.7821   20.3378 H   0  0  0  0  0  0
  -27.3271  -18.4607   22.8060 H   0  0  0  0  0  0
  -26.1512  -18.0288   21.5381 H   0  0  0  0  0  0
  -25.6689  -19.0498   22.9044 H   0  0  0  0  0  0
  -29.4662  -22.1898   19.0786 H   0  0  0  0  0  0
  -29.7583  -22.7527   20.6825 H   0  0  0  0  0  0
  -29.5884  -19.3827   22.0889 H   0  0  0  0  0  0
  -30.1577  -19.9018   20.5431 H   0  0  0  0  0  0
  -27.7257  -24.0095   18.7320 H   0  0  0  0  0  0
  -29.3684  -24.4965   18.9380 H   0  0  0  0  0  0
  -29.0652  -17.9954   19.4105 H   0  0  0  0  0  0
  -28.2175  -17.5413   20.8400 H   0  0  0  0  0  0
  -30.5920  -17.1969   21.9446 H   0  0  0  0  0  0
  -31.1693  -17.1766   20.2966 H   0  0  0  0  0  0
  -28.7263  -24.9766   21.4533 H   0  0  0  0  0  0
  -27.1032  -24.9531   20.8719 H   0  0  0  0  0  0
  -28.9625  -15.3258   21.1404 H   0  0  0  0  0  0
  1 25  1  0  0  0
  1 30  2  0  0  0
  1 83  1  0  0  0
  2  3  1  0  0  0
  2 25  1  0  0  0
  2 84  1  0  0  0
  2 85  1  0  0  0
  3  4  1  0  0  0
  3 86  1  0  0  0
  3 87  1  0  0  0
  4  5  1  0  0  0
  4 88  1  0  0  0
  4 89  1  0  0  0
  5  6  1  0  0  0
  5 26  1  0  0  0
  5 90  1  0  0  0
  6 25  1  0  0  0
  6 91  1  0  0  0
  6 92  1  0  0  0
  7  8  2  0  0  0
  7 26  1  0  0  0
  7 29  1  0  0  0
  8  9  1  0  0  0
  8 22  1  0  0  0
  9 10  1  0  0  0
  9 27  2  0  0  0
 10 11  2  0  0  0
 10 15  1  0  0  0
 11 12  1  0  0  0
 11 93  1  0  0  0
 12 13  2  0  0  0
 12 94  1  0  0  0
 13 14  1  0  0  0
 13 31  1  0  0  0
 14 15  2  0  0  0
 14 95  1  0  0  0
 15 96  1  0  0  0
 16 17  2  0  0  0
 16 21  1  0  0  0
 16 31  1  0  0  0
 17 18  1  0  0  0
 17 97  1  0  0  0
 18 19  2  0  0  0
 18 98  1  0  0  0
 19 20  1  0  0  0
 19 24  1  0  0  0
 20 21  2  0  0  0
 20 99  1  0  0  0
 21 23  1  0  0  0
 22 28  1  0  0  0
 22 32  2  0  0  0
 26 27  1  0  0  0
 28100  1  0  0  0
 28101  1  0  0  0
 29102  1  0  0  0
 29103  1  0  0  0
 33 34  1  0  0  0
 33 66  1  0  0  0
 33 70  2  0  0  0
 34 36  1  0  0  0
 34 59  1  0  0  0
 34104  1  0  0  0
 35 44  2  0  0  0
 35 45  1  0  0  0
 35 68  1  0  0  0
 36 56  1  0  0  0
 36105  1  0  0  0
 37 39  1  0  0  0
 37 47  1  0  0  0
 37 66  1  0  0  0
 37106  1  0  0  0
 38 43  2  0  0  0
 38 46  1  0  0  0
 38 47  1  0  0  0
 39 64  1  0  0  0
 39 67  2  0  0  0
 40 52  1  0  0  0
 40 53  2  0  0  0
 40 58  1  0  0  0
 41107  1  0  0  0
 41108  1  0  0  0
 41109  1  0  0  0
 41 48  1  0  0  0
 42 43  1  0  0  0
 42 66  1  0  0  0
 42110  1  0  0  0
 42111  1  0  0  0
 43 44  1  0  0  0
 44112  1  0  0  0
 45 46  2  0  0  0
 45113  1  0  0  0
 46114  1  0  0  0
 47115  1  0  0  0
 47116  1  0  0  0
 48 56  1  0  0  0
 48 65  1  0  0  0
 48117  1  0  0  0
 49 50  1  0  0  0
 49 53  1  0  0  0
 49 64  1  0  0  0
 49118  1  0  0  0
 50 51  1  0  0  0
 50119  1  0  0  0
 50120  1  0  0  0
 51 52  1  0  0  0
 51121  1  0  0  0
 51122  1  0  0  0
 52123  1  0  0  0
 52124  1  0  0  0
 53 54  1  0  0  0
 54 55  2  0  0  0
 54125  1  0  0  0
 55 57  1  0  0  0
 55126  1  0  0  0
 56 69  2  0  0  0
 57 58  2  0  0  0
 57127  1  0  0  0
 58128  1  0  0  0
 59 60  1  0  0  0
 59 61  1  0  0  0
 59 62  1  0  0  0
 60129  1  0  0  0
 60130  1  0  0  0
 60131  1  0  0  0
 61132  1  0  0  0
 61133  1  0  0  0
 61134  1  0  0  0
 62135  1  0  0  0
 62136  1  0  0  0
 62137  1  0  0  0
 63 65  1  0  0  0
 63138  1  0  0  0
 63139  1  0  0  0
 63140  1  0  0  0
 64141  1  0  0  0
 65142  1  0  0  0
 68 80  1  0  0  0
 71 72  1  0  0  0
 71 81  2  0  0  0
 71143  1  0  0  0
 72 73  2  0  0  0
 72 75  1  0  0  0
 73 76  1  0  0  0
 73 82  1  0  0  0
 74 82  1  0  0  0
 74144  1  0  0  0
 74145  1  0  0  0
 74146  1  0  0  0
 75 77  1  0  0  0
 75147  1  0  0  0
 75148  1  0  0  0
 76 78  1  0  0  0
 76149  1  0  0  0
 76150  1  0  0  0
 77 80  1  0  0  0
 77151  1  0  0  0
 77152  1  0  0  0
 78 79  1  0  0  0
 78153  1  0  0  0
 78154  1  0  0  0
 79 83  1  0  0  0
 79155  1  0  0  0
 79156  1  0  0  0
 80157  1  0  0  0
 80158  1  0  0  0
 81 82  1  0  0  0
 83159  1  0  0  0
M  ISO  4   1 100  68 101  80 101  83 100
M  END
> <chiral flag>
0

> <version>
0

> <s_m_source_file>
/data/baiqing/PycharmProjects/Reinvent-master-3.2/result/LINK_invent/BTK/process_docking_weight1_custom_sum_contain_oxygen_bond_distance_aromatic_linkinvent_7_9_3/rearranged_h_0041.sdf

> <i_m_source_file_index>
25

> <r_mmod_Potential_Energy-OPLS-2005>
-62.4932518005371

> <r_mmod_Stretch_Energy-OPLS-2005>
49.4552268981934

> <r_mmod_Bend_Energy-OPLS-2005>
109.812957763672

> <r_mmod_Torsional_Energy-OPLS-2005>
225.806137084961

> <r_mmod_Improper_Torsional_Energy-OPLS-2005>
4.89488840103149

> <r_mmod_Van_der_Waal_Energy-OPLS-2005>
120.313957214355

> <r_mmod_Electrostatic_Energy-OPLS-2005>
-374.103149414062

> <r_mmod_Solvation_Energy-OPLS-2005>
-226.067108154297

> <b_mmod_Minimization_Converged-OPLS-2005>
0

> <r_mmod_RMS_Derivative-OPLS-2005>
3.73860549926758

$$$$
25
                    3D
 Structure written by MMmdl.
169177  0  0  1  0            999 V2000
  -30.7167  -14.4569   20.5336 C   0  0  0  0  0  0
  -30.4114  -12.2844   19.4315 C   0  0  0  0  0  0
  -29.4914  -12.4910   18.2111 C   0  0  0  0  0  0
  -28.0124  -12.3629   18.6222 C   0  0  0  0  0  0
  -27.6602  -13.2088   19.8754 C   0  0  2  0  0  0
  -28.7025  -13.0085   21.0005 C   0  0  0  0  0  0
  -25.2577  -13.8168   20.5685 C   0  0  0  0  0  0
  -24.1831  -13.0435   20.9180 C   0  0  0  0  0  0
  -24.6394  -11.6910   20.8739 C   0  0  0  0  0  0
  -23.9060  -10.4293   21.0413 C   0  0  0  0  0  0
  -24.3611   -9.4207   21.9190 C   0  0  0  0  0  0
  -23.6290   -8.2237   22.0760 C   0  0  0  0  0  0
  -22.4275   -8.0278   21.3543 C   0  0  0  0  0  0
  -21.9907   -9.0256   20.4643 C   0  0  0  0  0  0
  -22.7236  -10.2139   20.3057 C   0  0  0  0  0  0
  -21.6853   -6.0735   22.5276 C   0  0  0  0  0  0
  -21.4016   -6.5640   23.8208 C   0  0  0  0  0  0
  -21.3658   -5.6794   24.9172 C   0  0  0  0  0  0
  -21.6043   -4.3054   24.7221 C   0  0  0  0  0  0
  -21.8821   -3.8146   23.4346 C   0  0  0  0  0  0
  -21.9195   -4.6962   22.3399 C   0  0  0  0  0  0
  -22.7853  -13.5228   21.1844 C   0  0  0  0  0  0
  -22.1662   -4.2146   21.0977 F   0  0  0  0  0  0
  -21.5628   -3.4539   25.7736 F   0  0  0  0  0  0
  -30.0348  -13.2848   20.4421 N   0  0  0  0  0  0
  -26.3018  -12.9346   20.3375 N   0  0  0  0  0  0
  -25.9321  -11.6506   20.5781 N   0  0  0  0  0  0
  -22.0502  -12.8208   22.0401 N   0  0  0  0  0  0
  -25.4291  -15.1887   20.4085 N   0  0  0  0  0  0
  -31.8627  -14.5954   20.0997 O   0  0  0  0  0  0
  -21.6636   -6.8878   21.4241 O   0  0  0  0  0  0
  -22.3532  -14.5540   20.6714 O   0  0  0  0  0  0
  -24.6133  -31.8675   23.2110 C   0  0  0  0  0  0
  -25.9019  -32.4818   23.8402 C   0  0  1  0  0  0
  -27.2363  -27.4463   20.0958 C   0  0  0  0  0  0
  -25.5867  -33.8616   24.2330 N   0  0  0  0  0  0
  -23.4009  -30.4922   21.5523 C   0  0  2  0  0  0
  -24.8474  -28.9605   20.1156 C   0  0  0  0  0  0
  -22.7400  -29.4652   22.5000 C   0  0  0  0  0  0
  -18.0258  -28.1373   22.8491 C   0  0  0  0  0  0
  -24.1482  -36.7334   23.2636 C   0  0  0  0  0  0
  -25.9289  -30.8404   21.3600 C   0  0  0  0  0  0
  -26.0087  -29.4764   20.7050 C   0  0  0  0  0  0
  -27.2090  -28.7303   20.6844 C   0  0  0  0  0  0
  -26.0580  -26.9419   19.5003 C   0  0  0  0  0  0
  -24.8673  -27.6929   19.5078 C   0  0  0  0  0  0
  -23.6067  -29.8246   20.1670 C   0  0  0  0  0  0
  -25.4098  -36.3117   24.0334 C   0  0  1  0  0  0
  -20.5848  -28.3655   23.1320 C   0  0  2  0  0  0
  -20.6741  -26.9387   22.5419 C   0  0  0  0  0  0
  -19.5729  -26.6386   21.5198 C   0  0  0  0  0  0
  -18.1912  -26.7915   22.1618 C   0  0  0  0  0  0
  -19.1512  -28.8829   23.2901 C   0  0  0  0  0  0
  -18.9442  -30.1436   23.8908 C   0  0  0  0  0  0
  -17.6445  -30.6578   24.0571 C   0  0  0  0  0  0
  -25.9025  -34.9474   23.5137 C   0  0  0  0  0  0
  -16.5334  -29.9089   23.6326 C   0  0  0  0  0  0
  -16.7246  -28.6510   23.0338 C   0  0  0  0  0  0
  -26.4459  -31.6593   25.0725 C   0  0  0  0  0  0
  -25.3731  -31.3668   26.1474 C   0  0  0  0  0  0
  -27.0274  -30.3038   24.6074 C   0  0  0  0  0  0
  -27.6046  -32.4297   25.7476 C   0  0  0  0  0  0
  -27.5574  -37.1809   24.8458 C   0  0  0  0  0  0
  -21.4124  -29.3031   22.3735 N   0  0  0  0  0  0
  -26.4290  -37.3795   23.9401 N   0  0  0  0  0  0
  -24.6663  -31.0800   22.0999 N   0  0  0  0  0  0
  -23.4175  -28.8169   23.3018 O   0  0  0  0  0  0
  -28.4008  -26.7087   20.1125 O   0  0  0  0  0  0
  -26.5623  -34.8927   22.4718 O   0  0  0  0  0  0
  -23.5326  -32.1410   23.7513 O   0  0  0  0  0  0
  -28.1039  -20.5814   20.3369 C   0  0  0  0  0  0
  -28.2334  -21.9500   20.4007 C   0  0  0  0  0  0
  -29.3174  -21.0348   22.1351 C   0  0  0  0  0  0
  -29.3274  -23.8194   25.8737 C   0  0  0  0  0  0
  -27.6251  -23.0174   19.5254 C   0  0  0  0  0  0
  -30.1524  -20.8939   23.3775 C   0  0  0  0  0  0
  -29.0538  -22.6794   24.8866 C   0  0  0  0  0  0
  -28.4183  -24.3388   19.3646 C   0  0  0  0  0  0
  -30.3414  -22.1758   24.2101 C   0  0  0  0  0  0
  -30.2214  -17.9633   21.6137 C   0  0  0  0  0  0
  -28.8247  -18.6090   21.7839 C   0  0  0  0  0  0
  -30.3275  -16.9105   20.4912 C   0  0  0  0  0  0
  -28.2689  -25.3405   20.5308 C   0  0  0  0  0  0
  -28.7644  -20.0432   21.4139 N   0  0  0  0  0  0
  -29.0078  -22.1814   21.5110 N   0  3  0  0  0  0
  -29.9921  -15.5316   20.8982 N   0  0  0  0  0  0
  -31.4581  -12.3597   19.1320 H   0  0  0  0  0  0
  -30.2904  -11.2788   19.8376 H   0  0  0  0  0  0
  -29.7275  -11.7631   17.4333 H   0  0  0  0  0  0
  -29.6685  -13.4737   17.7718 H   0  0  0  0  0  0
  -27.8163  -11.3089   18.8214 H   0  0  0  0  0  0
  -27.3656  -12.6402   17.7888 H   0  0  0  0  0  0
  -27.7004  -14.2533   19.5671 H   0  0  0  0  0  0
  -28.6676  -11.9834   21.3732 H   0  0  0  0  0  0
  -28.4771  -13.6440   21.8581 H   0  0  0  0  0  0
  -25.2766   -9.5677   22.4748 H   0  0  0  0  0  0
  -24.0002   -7.4623   22.7474 H   0  0  0  0  0  0
  -21.0843   -8.8777   19.8936 H   0  0  0  0  0  0
  -22.3709  -10.9676   19.6151 H   0  0  0  0  0  0
  -21.2011   -7.6149   23.9707 H   0  0  0  0  0  0
  -21.1477   -6.0526   25.9070 H   0  0  0  0  0  0
  -22.0604   -2.7607   23.2849 H   0  0  0  0  0  0
  -22.4141  -11.9863   22.4761 H   0  0  0  0  0  0
  -21.1116  -13.1218   22.2611 H   0  0  0  0  0  0
  -24.6618  -15.8439   20.5096 H   0  0  0  0  0  0
  -26.2781  -15.6243   20.0719 H   0  0  0  0  0  0
  -26.7091  -32.5557   23.1170 H   0  0  0  0  0  0
  -24.9933  -33.9766   25.0422 H   0  0  0  0  0  0
  -22.6887  -31.3093   21.4163 H   0  0  0  0  0  0
  -23.3728  -35.9686   23.3312 H   0  0  0  0  0  0
  -24.3573  -36.8956   22.2050 H   0  0  0  0  0  0
  -23.7256  -37.6548   23.6656 H   0  0  0  0  0  0
  -26.0328  -31.6061   20.5904 H   0  0  0  0  0  0
  -26.8196  -30.8982   21.9747 H   0  0  0  0  0  0
  -28.1076  -29.1261   21.1383 H   0  0  0  0  0  0
  -26.0523  -25.9703   19.0294 H   0  0  0  0  0  0
  -23.9748  -27.2909   19.0490 H   0  0  0  0  0  0
  -23.7103  -30.6010   19.4081 H   0  0  0  0  0  0
  -22.7294  -29.2453   19.8737 H   0  0  0  0  0  0
  -25.1270  -36.1989   25.0829 H   0  0  0  0  0  0
  -20.9941  -28.3218   24.1439 H   0  0  0  0  0  0
  -20.5638  -26.2249   23.3602 H   0  0  0  0  0  0
  -21.6613  -26.7430   22.1219 H   0  0  0  0  0  0
  -19.6898  -25.6306   21.1206 H   0  0  0  0  0  0
  -19.6671  -27.3220   20.6745 H   0  0  0  0  0  0
  -17.4172  -26.6646   21.4033 H   0  0  0  0  0  0
  -18.0336  -26.0055   22.9017 H   0  0  0  0  0  0
  -19.7923  -30.7248   24.2286 H   0  0  0  0  0  0
  -17.5006  -31.6261   24.5170 H   0  0  0  0  0  0
  -15.5340  -30.2998   23.7657 H   0  0  0  0  0  0
  -15.8639  -28.0854   22.7027 H   0  0  0  0  0  0
  -24.5919  -30.7003   25.7804 H   0  0  0  0  0  0
  -24.8893  -32.2798   26.4949 H   0  0  0  0  0  0
  -25.8093  -30.8821   27.0217 H   0  0  0  0  0  0
  -26.2814  -29.6798   24.1135 H   0  0  0  0  0  0
  -27.4065  -29.7262   25.4516 H   0  0  0  0  0  0
  -27.8633  -30.4370   23.9202 H   0  0  0  0  0  0
  -27.2696  -33.3596   26.2084 H   0  0  0  0  0  0
  -28.3831  -32.6853   25.0278 H   0  0  0  0  0  0
  -28.0734  -31.8395   26.5361 H   0  0  0  0  0  0
  -28.2592  -38.0105   24.7499 H   0  0  0  0  0  0
  -28.1073  -36.2630   24.6299 H   0  0  0  0  0  0
  -27.2280  -37.1479   25.8860 H   0  0  0  0  0  0
  -20.9279  -29.8788   21.6991 H   0  0  0  0  0  0
  -26.0179  -38.2877   24.1412 H   0  0  0  0  0  0
  -27.5703  -19.9626   19.6282 H   0  0  0  0  0  0
  -28.4006  -24.1709   26.3281 H   0  0  0  0  0  0
  -29.7981  -24.6712   25.3812 H   0  0  0  0  0  0
  -29.9879  -23.4936   26.6784 H   0  0  0  0  0  0
  -26.6151  -23.2255   19.8796 H   0  0  0  0  0  0
  -27.4951  -22.5820   18.5336 H   0  0  0  0  0  0
  -31.1207  -20.5164   23.0496 H   0  0  0  0  0  0
  -29.6985  -20.1176   23.9916 H   0  0  0  0  0  0
  -28.3365  -23.0143   24.1372 H   0  0  0  0  0  0
  -28.5727  -21.8592   25.4218 H   0  0  0  0  0  0
  -28.0294  -24.8221   18.4683 H   0  0  0  0  0  0
  -29.4690  -24.1446   19.1477 H   0  0  0  0  0  0
  -30.7871  -22.9631   23.6004 H   0  0  0  0  0  0
  -31.0735  -21.9569   24.9887 H   0  0  0  0  0  0
  -30.5515  -17.5279   22.5575 H   0  0  0  0  0  0
  -30.9484  -18.7480   21.3975 H   0  0  0  0  0  0
  -28.4986  -18.5247   22.8211 H   0  0  0  0  0  0
  -28.0736  -18.0782   21.1971 H   0  0  0  0  0  0
  -31.3446  -16.9588   20.0978 H   0  0  0  0  0  0
  -29.6922  -17.1935   19.6507 H   0  0  0  0  0  0
  -29.0497  -25.1463   21.2659 H   0  0  0  0  0  0
  -27.3325  -25.1801   21.0689 H   0  0  0  0  0  0
  -29.3030  -23.0919   21.8406 H   0  0  0  0  0  0
  -29.0584  -15.3540   21.2371 H   0  0  0  0  0  0
  1 25  1  0  0  0
  1 30  2  0  0  0
  1 86  1  0  0  0
  2  3  1  0  0  0
  2 25  1  0  0  0
  2 87  1  0  0  0
  2 88  1  0  0  0
  3  4  1  0  0  0
  3 89  1  0  0  0
  3 90  1  0  0  0
  4  5  1  0  0  0
  4 91  1  0  0  0
  4 92  1  0  0  0
  5  6  1  0  0  0
  5 26  1  0  0  0
  5 93  1  0  0  0
  6 25  1  0  0  0
  6 94  1  0  0  0
  6 95  1  0  0  0
  7  8  2  0  0  0
  7 26  1  0  0  0
  7 29  1  0  0  0
  8  9  1  0  0  0
  8 22  1  0  0  0
  9 10  1  0  0  0
  9 27  2  0  0  0
 10 11  2  0  0  0
 10 15  1  0  0  0
 11 12  1  0  0  0
 11 96  1  0  0  0
 12 13  2  0  0  0
 12 97  1  0  0  0
 13 14  1  0  0  0
 13 31  1  0  0  0
 14 15  2  0  0  0
 14 98  1  0  0  0
 15 99  1  0  0  0
 16 17  2  0  0  0
 16 21  1  0  0  0
 16 31  1  0  0  0
 17 18  1  0  0  0
 17100  1  0  0  0
 18 19  2  0  0  0
 18101  1  0  0  0
 19 20  1  0  0  0
 19 24  1  0  0  0
 20 21  2  0  0  0
 20102  1  0  0  0
 21 23  1  0  0  0
 22 28  1  0  0  0
 22 32  2  0  0  0
 26 27  1  0  0  0
 28103  1  0  0  0
 28104  1  0  0  0
 29105  1  0  0  0
 29106  1  0  0  0
 33 34  1  0  0  0
 33 66  1  0  0  0
 33 70  2  0  0  0
 34 36  1  0  0  0
 34 59  1  0  0  0
 34107  1  0  0  0
 35 44  2  0  0  0
 35 45  1  0  0  0
 35 68  1  0  0  0
 36 56  1  0  0  0
 36108  1  0  0  0
 37 39  1  0  0  0
 37 47  1  0  0  0
 37 66  1  0  0  0
 37109  1  0  0  0
 38 43  2  0  0  0
 38 46  1  0  0  0
 38 47  1  0  0  0
 39 64  1  0  0  0
 39 67  2  0  0  0
 40 52  1  0  0  0
 40 53  2  0  0  0
 40 58  1  0  0  0
 41110  1  0  0  0
 41111  1  0  0  0
 41112  1  0  0  0
 41 48  1  0  0  0
 42 43  1  0  0  0
 42 66  1  0  0  0
 42113  1  0  0  0
 42114  1  0  0  0
 43 44  1  0  0  0
 44115  1  0  0  0
 45 46  2  0  0  0
 45116  1  0  0  0
 46117  1  0  0  0
 47118  1  0  0  0
 47119  1  0  0  0
 48 56  1  0  0  0
 48 65  1  0  0  0
 48120  1  0  0  0
 49 50  1  0  0  0
 49 53  1  0  0  0
 49 64  1  0  0  0
 49121  1  0  0  0
 50 51  1  0  0  0
 50122  1  0  0  0
 50123  1  0  0  0
 51 52  1  0  0  0
 51124  1  0  0  0
 51125  1  0  0  0
 52126  1  0  0  0
 52127  1  0  0  0
 53 54  1  0  0  0
 54 55  2  0  0  0
 54128  1  0  0  0
 55 57  1  0  0  0
 55129  1  0  0  0
 56 69  2  0  0  0
 57 58  2  0  0  0
 57130  1  0  0  0
 58131  1  0  0  0
 59 60  1  0  0  0
 59 61  1  0  0  0
 59 62  1  0  0  0
 60132  1  0  0  0
 60133  1  0  0  0
 60134  1  0  0  0
 61135  1  0  0  0
 61136  1  0  0  0
 61137  1  0  0  0
 62138  1  0  0  0
 62139  1  0  0  0
 62140  1  0  0  0
 63 65  1  0  0  0
 63141  1  0  0  0
 63142  1  0  0  0
 63143  1  0  0  0
 64144  1  0  0  0
 65145  1  0  0  0
 68 83  1  0  0  0
 71 72  2  0  0  0
 71 84  1  0  0  0
 71146  1  0  0  0
 72 75  1  0  0  0
 72 85  1  0  0  0
 73 76  1  0  0  0
 73 84  1  0  0  0
 73 85  2  0  0  0
 74 77  1  0  0  0
 74147  1  0  0  0
 74148  1  0  0  0
 74149  1  0  0  0
 75 78  1  0  0  0
 75150  1  0  0  0
 75151  1  0  0  0
 76 79  1  0  0  0
 76152  1  0  0  0
 76153  1  0  0  0
 77 79  1  0  0  0
 77154  1  0  0  0
 77155  1  0  0  0
 78 83  1  0  0  0
 78156  1  0  0  0
 78157  1  0  0  0
 79158  1  0  0  0
 79159  1  0  0  0
 80 81  1  0  0  0
 80 82  1  0  0  0
 80160  1  0  0  0
 80161  1  0  0  0
 81 84  1  0  0  0
 81162  1  0  0  0
 81163  1  0  0  0
 82 86  1  0  0  0
 82164  1  0  0  0
 82165  1  0  0  0
 83166  1  0  0  0
 83167  1  0  0  0
 85168  1  0  0  0
 86169  1  0  0  0
M  CHG  1  85   1
M  ISO  4   1 100  68 101  83 101  86 100
M  END
> <chiral flag>
0

> <version>
0

> <s_m_source_file>
/data/baiqing/PycharmProjects/Reinvent-master-3.2/result/LINK_invent/BTK/process_docking_weight1_custom_sum_contain_oxygen_bond_distance_aromatic_linkinvent_7_9_3/rearranged_h_0041.sdf

> <i_m_source_file_index>
26

> <r_mmod_Potential_Energy-OPLS-2005>
-65.75927734375

> <r_mmod_Stretch_Energy-OPLS-2005>
34.9851341247559

> <r_mmod_Bend_Energy-OPLS-2005>
98.9331436157227

> <r_mmod_Torsional_Energy-OPLS-2005>
271.055450439453

> <r_mmod_Improper_Torsional_Energy-OPLS-2005>
6.60107278823853

> <r_mmod_Van_der_Waal_Energy-OPLS-2005>
125.183380126953

> <r_mmod_Electrostatic_Energy-OPLS-2005>
-198.741958618164

> <r_mmod_Solvation_Energy-OPLS-2005>
-417.20703125

> <b_mmod_Minimization_Converged-OPLS-2005>
0

> <r_mmod_RMS_Derivative-OPLS-2005>
1.64338481426239

$$$$
26
                    3D
 Structure written by MMmdl.
142150  0  0  1  0            999 V2000
  -30.2786  -15.7215   20.3157 C   0  0  0  0  0  0
  -30.4179  -13.1336   19.5685 C   0  0  0  0  0  0
  -29.5626  -12.6806   18.3468 C   0  0  0  0  0  0
  -28.1374  -12.3087   18.7780 C   0  0  0  0  0  0
  -27.5909  -13.3231   19.8065 C   0  0  2  0  0  0
  -28.5904  -13.6978   20.9259 C   0  0  0  0  0  0
  -25.2309  -13.8312   20.5794 C   0  0  0  0  0  0
  -24.1716  -13.0444   20.9292 C   0  0  0  0  0  0
  -24.6430  -11.6960   20.8742 C   0  0  0  0  0  0
  -23.9134  -10.4304   21.0382 C   0  0  0  0  0  0
  -24.3665   -9.4219   21.9171 C   0  0  0  0  0  0
  -23.6326   -8.2259   22.0753 C   0  0  0  0  0  0
  -22.4305   -8.0296   21.3544 C   0  0  0  0  0  0
  -21.9949   -9.0271   20.4643 C   0  0  0  0  0  0
  -22.7294  -10.2143   20.3046 C   0  0  0  0  0  0
  -21.6864   -6.0749   22.5276 C   0  0  0  0  0  0
  -21.4023   -6.5646   23.8211 C   0  0  0  0  0  0
  -21.3668   -5.6795   24.9170 C   0  0  0  0  0  0
  -21.6047   -4.3058   24.7216 C   0  0  0  0  0  0
  -21.8820   -3.8154   23.4336 C   0  0  0  0  0  0
  -21.9198   -4.6976   22.3395 C   0  0  0  0  0  0
  -22.7728  -13.5165   21.1923 C   0  0  0  0  0  0
  -22.1666   -4.2164   21.0972 F   0  0  0  0  0  0
  -21.5628   -3.4540   25.7725 F   0  0  0  0  0  0
  -29.7712  -14.3337   20.2898 N   0  0  0  0  0  0
  -26.2754  -12.9668   20.3183 N   0  0  0  0  0  0
  -25.9375  -11.6722   20.5646 N   0  0  0  0  0  0
  -22.0396  -12.8138   22.0472 N   0  0  0  0  0  0
  -25.3903  -15.2055   20.4247 N   0  0  0  0  0  0
  -31.5090  -15.6171   20.1301 O   0  0  0  0  0  0
  -21.6659   -6.8896   21.4239 O   0  0  0  0  0  0
  -22.3397  -14.5460   20.6754 O   0  0  0  0  0  0
  -24.6909  -31.7918   23.1448 C   0  0  0  0  0  0
  -25.9456  -32.4425   23.8024 C   0  0  1  0  0  0
  -27.2284  -26.6291   20.2249 C   0  0  0  0  0  0
  -25.6004  -33.8254   24.1908 N   0  0  0  0  0  0
  -23.5202  -30.3899   21.5008 C   0  0  2  0  0  0
  -24.9779  -28.7146   20.1205 C   0  0  0  0  0  0
  -22.7801  -29.4273   22.4697 C   0  0  0  0  0  0
  -18.0342  -28.1422   22.8461 C   0  0  0  0  0  0
  -24.1500  -36.7135   23.2658 C   0  0  0  0  0  0
  -26.1037  -30.5009   21.4201 C   0  0  0  0  0  0
  -26.1680  -29.0575   20.7719 C   0  0  0  0  0  0
  -27.2750  -28.0454   20.7874 C   0  0  0  0  0  0
  -26.0036  -26.5128   19.5151 C   0  0  0  0  0  0
  -24.9391  -27.4692   19.4677 C   0  0  0  0  0  0
  -23.7777  -29.6793   20.1394 C   0  0  0  0  0  0
  -25.4155  -36.2874   24.0279 C   0  0  1  0  0  0
  -20.5983  -28.3789   23.1134 C   0  0  2  0  0  0
  -20.6809  -26.9444   22.5405 C   0  0  0  0  0  0
  -19.5781  -26.6370   21.5222 C   0  0  0  0  0  0
  -18.1966  -26.7949   22.1628 C   0  0  0  0  0  0
  -19.1611  -28.8933   23.2776 C   0  0  0  0  0  0
  -18.9514  -30.1515   23.8822 C   0  0  0  0  0  0
  -17.6503  -30.6608   24.0549 C   0  0  0  0  0  0
  -25.9136  -34.9264   23.4937 C   0  0  0  0  0  0
  -16.5394  -29.9087   23.6354 C   0  0  0  0  0  0
  -16.7323  -28.6507   23.0376 C   0  0  0  0  0  0
  -26.4605  -31.6489   25.0678 C   0  0  0  0  0  0
  -25.3651  -31.3826   26.1280 C   0  0  0  0  0  0
  -27.0550  -30.2822   24.6628 C   0  0  0  0  0  0
  -27.6044  -32.4363   25.7497 C   0  0  0  0  0  0
  -27.5559  -37.1735   24.8476 C   0  0  0  0  0  0
  -21.4441  -29.3020   22.3445 N   0  0  0  0  0  0
  -26.4280  -37.3637   23.9395 N   0  0  0  0  0  0
  -24.7959  -30.9291   22.0739 N   0  0  0  0  0  0
  -23.4214  -28.7892   23.3080 O   0  0  0  0  0  0
  -28.1922  -25.3856   20.2945 O   0  0  0  0  0  0
  -26.5786  -34.8858   22.4562 O   0  0  0  0  0  0
  -23.5912  -32.1025   23.6357 O   0  0  0  0  0  0
  -28.2813  -17.8742   20.8332 C   0  0  0  0  0  0
  -29.9835  -18.8178   20.1149 C   0  0  0  0  0  0
  -29.5744  -17.3845   20.3771 C   0  0  0  0  0  0
  -29.1007  -21.9113   20.3351 C   0  0  0  0  0  0
  -28.0463  -23.5902   20.2038 C   0  0  0  0  0  0
  -28.0168  -19.2644   20.8141 N   0  0  0  0  0  0
  -29.0476  -20.0720   20.3308 N   0  0  0  0  0  0
  -31.4152  -13.3857   19.2075 H   0  0  0  0  0  0
  -30.5754  -12.3013   20.2563 H   0  0  0  0  0  0
  -30.0361  -11.8384   17.8408 H   0  0  0  0  0  0
  -29.5224  -13.4935   17.6204 H   0  0  0  0  0  0
  -28.1725  -11.3156   19.2279 H   0  0  0  0  0  0
  -27.4766  -12.2346   17.9133 H   0  0  0  0  0  0
  -27.4426  -14.2329   19.2229 H   0  0  0  0  0  0
  -28.8535  -12.8339   21.5381 H   0  0  0  0  0  0
  -28.1351  -14.4214   21.6036 H   0  0  0  0  0  0
  -25.2804   -9.5699   22.4750 H   0  0  0  0  0  0
  -24.0034   -7.4653   22.7474 H   0  0  0  0  0  0
  -21.0882   -8.8791   19.8946 H   0  0  0  0  0  0
  -22.3744  -10.9680   19.6157 H   0  0  0  0  0  0
  -21.2016   -7.6154   23.9717 H   0  0  0  0  0  0
  -21.1491   -6.0523   25.9074 H   0  0  0  0  0  0
  -22.0590   -2.7617   23.2829 H   0  0  0  0  0  0
  -22.4050  -11.9830   22.4886 H   0  0  0  0  0  0
  -21.0996  -13.1120   22.2655 H   0  0  0  0  0  0
  -24.6154  -15.8508   20.5340 H   0  0  0  0  0  0
  -26.2215  -15.6420   20.0494 H   0  0  0  0  0  0
  -26.7549  -32.4880   23.0745 H   0  0  0  0  0  0
  -25.0050  -33.9276   24.9991 H   0  0  0  0  0  0
  -22.8497  -31.2290   21.3048 H   0  0  0  0  0  0
  -23.3771  -35.9457   23.3300 H   0  0  0  0  0  0
  -24.3555  -36.8815   22.2075 H   0  0  0  0  0  0
  -23.7260  -37.6311   23.6748 H   0  0  0  0  0  0
  -26.3153  -31.2216   20.6290 H   0  0  0  0  0  0
  -26.9509  -30.5704   22.0896 H   0  0  0  0  0  0
  -28.1702  -28.3184   21.3282 H   0  0  0  0  0  0
  -25.8257  -25.5742   19.0096 H   0  0  0  0  0  0
  -24.0429  -27.1965   18.9272 H   0  0  0  0  0  0
  -23.9588  -30.4351   19.3744 H   0  0  0  0  0  0
  -22.8807  -29.1490   19.8150 H   0  0  0  0  0  0
  -25.1373  -36.1634   25.0770 H   0  0  0  0  0  0
  -21.0063  -28.3417   24.1261 H   0  0  0  0  0  0
  -20.5677  -26.2416   23.3673 H   0  0  0  0  0  0
  -21.6669  -26.7382   22.1220 H   0  0  0  0  0  0
  -19.6937  -25.6259   21.1304 H   0  0  0  0  0  0
  -19.6718  -27.3139   20.6720 H   0  0  0  0  0  0
  -17.4236  -26.6697   21.4030 H   0  0  0  0  0  0
  -18.0351  -26.0106   22.9038 H   0  0  0  0  0  0
  -19.7987  -30.7353   24.2161 H   0  0  0  0  0  0
  -17.5050  -31.6279   24.5163 H   0  0  0  0  0  0
  -15.5391  -30.2963   23.7714 H   0  0  0  0  0  0
  -15.8725  -28.0791   22.7143 H   0  0  0  0  0  0
  -24.5835  -30.7192   25.7557 H   0  0  0  0  0  0
  -24.8848  -32.3059   26.4529 H   0  0  0  0  0  0
  -25.7799  -30.9078   27.0179 H   0  0  0  0  0  0
  -26.3279  -29.6416   24.1628 H   0  0  0  0  0  0
  -27.3960  -29.7297   25.5394 H   0  0  0  0  0  0
  -27.9267  -30.3938   24.0180 H   0  0  0  0  0  0
  -27.2575  -33.3732   26.1869 H   0  0  0  0  0  0
  -28.3953  -32.6818   25.0397 H   0  0  0  0  0  0
  -28.0607  -31.8636   26.5581 H   0  0  0  0  0  0
  -28.2577  -38.0027   24.7475 H   0  0  0  0  0  0
  -28.1055  -36.2547   24.6371 H   0  0  0  0  0  0
  -27.2264  -37.1455   25.8877 H   0  0  0  0  0  0
  -20.9770  -29.8655   21.6478 H   0  0  0  0  0  0
  -26.0107  -38.2694   24.1363 H   0  0  0  0  0  0
  -27.4844  -17.2506   21.2142 H   0  0  0  0  0  0
  -30.9743  -19.0780   19.7695 H   0  0  0  0  0  0
  -29.6328  -22.0940   21.2683 H   0  0  0  0  0  0
  -29.8674  -22.0987   19.5838 H   0  0  0  0  0  0
  -27.2435  -23.4167   20.9203 H   0  0  0  0  0  0
  -27.5498  -23.4755   19.2400 H   0  0  0  0  0  0
  1 25  1  0  0  0
  1 30  2  0  0  0
  1 73  1  0  0  0
  2  3  1  0  0  0
  2 25  1  0  0  0
  2 78  1  0  0  0
  2 79  1  0  0  0
  3  4  1  0  0  0
  3 80  1  0  0  0
  3 81  1  0  0  0
  4  5  1  0  0  0
  4 82  1  0  0  0
  4 83  1  0  0  0
  5  6  1  0  0  0
  5 26  1  0  0  0
  5 84  1  0  0  0
  6 25  1  0  0  0
  6 85  1  0  0  0
  6 86  1  0  0  0
  7  8  2  0  0  0
  7 26  1  0  0  0
  7 29  1  0  0  0
  8  9  1  0  0  0
  8 22  1  0  0  0
  9 10  1  0  0  0
  9 27  2  0  0  0
 10 11  2  0  0  0
 10 15  1  0  0  0
 11 12  1  0  0  0
 11 87  1  0  0  0
 12 13  2  0  0  0
 12 88  1  0  0  0
 13 14  1  0  0  0
 13 31  1  0  0  0
 14 15  2  0  0  0
 14 89  1  0  0  0
 15 90  1  0  0  0
 16 17  2  0  0  0
 16 21  1  0  0  0
 16 31  1  0  0  0
 17 18  1  0  0  0
 17 91  1  0  0  0
 18 19  2  0  0  0
 18 92  1  0  0  0
 19 20  1  0  0  0
 19 24  1  0  0  0
 20 21  2  0  0  0
 20 93  1  0  0  0
 21 23  1  0  0  0
 22 28  1  0  0  0
 22 32  2  0  0  0
 26 27  1  0  0  0
 28 94  1  0  0  0
 28 95  1  0  0  0
 29 96  1  0  0  0
 29 97  1  0  0  0
 33 34  1  0  0  0
 33 66  1  0  0  0
 33 70  2  0  0  0
 34 36  1  0  0  0
 34 59  1  0  0  0
 34 98  1  0  0  0
 35 44  2  0  0  0
 35 45  1  0  0  0
 35 68  1  0  0  0
 36 56  1  0  0  0
 36 99  1  0  0  0
 37 39  1  0  0  0
 37 47  1  0  0  0
 37 66  1  0  0  0
 37100  1  0  0  0
 38 43  2  0  0  0
 38 46  1  0  0  0
 38 47  1  0  0  0
 39 64  1  0  0  0
 39 67  2  0  0  0
 40 52  1  0  0  0
 40 53  2  0  0  0
 40 58  1  0  0  0
 41101  1  0  0  0
 41102  1  0  0  0
 41103  1  0  0  0
 41 48  1  0  0  0
 42 43  1  0  0  0
 42 66  1  0  0  0
 42104  1  0  0  0
 42105  1  0  0  0
 43 44  1  0  0  0
 44106  1  0  0  0
 45 46  2  0  0  0
 45107  1  0  0  0
 46108  1  0  0  0
 47109  1  0  0  0
 47110  1  0  0  0
 48 56  1  0  0  0
 48 65  1  0  0  0
 48111  1  0  0  0
 49 50  1  0  0  0
 49 53  1  0  0  0
 49 64  1  0  0  0
 49112  1  0  0  0
 50 51  1  0  0  0
 50113  1  0  0  0
 50114  1  0  0  0
 51 52  1  0  0  0
 51115  1  0  0  0
 51116  1  0  0  0
 52117  1  0  0  0
 52118  1  0  0  0
 53 54  1  0  0  0
 54 55  2  0  0  0
 54119  1  0  0  0
 55 57  1  0  0  0
 55120  1  0  0  0
 56 69  2  0  0  0
 57 58  2  0  0  0
 57121  1  0  0  0
 58122  1  0  0  0
 59 60  1  0  0  0
 59 61  1  0  0  0
 59 62  1  0  0  0
 60123  1  0  0  0
 60124  1  0  0  0
 60125  1  0  0  0
 61126  1  0  0  0
 61127  1  0  0  0
 61128  1  0  0  0
 62129  1  0  0  0
 62130  1  0  0  0
 62131  1  0  0  0
 63 65  1  0  0  0
 63132  1  0  0  0
 63133  1  0  0  0
 63134  1  0  0  0
 64135  1  0  0  0
 65136  1  0  0  0
 68 75  1  0  0  0
 71 73  1  0  0  0
 71 76  2  0  0  0
 71137  1  0  0  0
 72 73  2  0  0  0
 72 77  1  0  0  0
 72138  1  0  0  0
 74 75  1  0  0  0
 74 77  1  0  0  0
 74139  1  0  0  0
 74140  1  0  0  0
 75141  1  0  0  0
 75142  1  0  0  0
 76 77  1  0  0  0
M  ISO  4   1 100  68 101  73 100  75 101
M  END
> <chiral flag>
0

> <version>
0

> <s_m_source_file>
/data/baiqing/PycharmProjects/Reinvent-master-3.2/result/LINK_invent/BTK/process_docking_weight1_custom_sum_contain_oxygen_bond_distance_aromatic_linkinvent_7_9_3/rearranged_h_0041.sdf

> <i_m_source_file_index>
27

> <r_mmod_Potential_Energy-OPLS-2005>
2722.40649414062

> <r_mmod_Stretch_Energy-OPLS-2005>
1201.3857421875

> <r_mmod_Bend_Energy-OPLS-2005>
707.724182128906

> <r_mmod_Torsional_Energy-OPLS-2005>
203.828948974609

> <r_mmod_Improper_Torsional_Energy-OPLS-2005>
4.14941740036011

> <r_mmod_Van_der_Waal_Energy-OPLS-2005>
107.002288818359

> <r_mmod_Electrostatic_Energy-OPLS-2005>
-322.149505615234

> <r_mmod_Solvation_Energy-OPLS-2005>
-215.653747558594

> <b_mmod_Minimization_Converged-OPLS-2005>
0

> <r_mmod_RMS_Derivative-OPLS-2005>
0.68613874912262

$$$$
27
                    3D
 Structure written by MMmdl.
157165  0  0  1  0            999 V2000
  -30.6844  -14.4956   20.5233 C   0  0  0  0  0  0
  -30.4204  -12.3039   19.4327 C   0  0  0  0  0  0
  -29.4959  -12.4847   18.2103 C   0  0  0  0  0  0
  -28.0154  -12.3537   18.6185 C   0  0  0  0  0  0
  -27.6573  -13.2073   19.8664 C   0  0  2  0  0  0
  -28.6981  -13.0103   20.9923 C   0  0  0  0  0  0
  -25.2573  -13.8177   20.5693 C   0  0  0  0  0  0
  -24.1821  -13.0449   20.9198 C   0  0  0  0  0  0
  -24.6374  -11.6914   20.8731 C   0  0  0  0  0  0
  -23.9052  -10.4297   21.0399 C   0  0  0  0  0  0
  -24.3608   -9.4208   21.9177 C   0  0  0  0  0  0
  -23.6289   -8.2237   22.0740 C   0  0  0  0  0  0
  -22.4279   -8.0273   21.3523 C   0  0  0  0  0  0
  -21.9904   -9.0255   20.4638 C   0  0  0  0  0  0
  -22.7224  -10.2136   20.3050 C   0  0  0  0  0  0
  -21.6854   -6.0730   22.5286 C   0  0  0  0  0  0
  -21.4014   -6.5634   23.8224 C   0  0  0  0  0  0
  -21.3657   -5.6776   24.9182 C   0  0  0  0  0  0
  -21.6050   -4.3045   24.7223 C   0  0  0  0  0  0
  -21.8817   -3.8145   23.4342 C   0  0  0  0  0  0
  -21.9194   -4.6961   22.3400 C   0  0  0  0  0  0
  -22.7836  -13.5237   21.1855 C   0  0  0  0  0  0
  -22.1654   -4.2149   21.0978 F   0  0  0  0  0  0
  -21.5636   -3.4523   25.7735 F   0  0  0  0  0  0
  -30.0283  -13.3055   20.4367 N   0  0  0  0  0  0
  -26.2993  -12.9338   20.3323 N   0  0  0  0  0  0
  -25.9291  -11.6494   20.5723 N   0  0  0  0  0  0
  -22.0460  -12.8253   22.0429 N   0  0  0  0  0  0
  -25.4303  -15.1892   20.4099 N   0  0  0  0  0  0
  -31.8325  -14.6583   20.1039 O   0  0  0  0  0  0
  -21.6631   -6.8874   21.4244 O   0  0  0  0  0  0
  -22.3520  -14.5534   20.6696 O   0  0  0  0  0  0
  -24.6161  -31.8673   23.2111 C   0  0  0  0  0  0
  -25.9051  -32.4833   23.8396 C   0  0  1  0  0  0
  -27.2313  -27.4163   20.0961 C   0  0  0  0  0  0
  -25.5898  -33.8625   24.2326 N   0  0  0  0  0  0
  -23.4052  -30.4931   21.5525 C   0  0  2  0  0  0
  -24.8514  -28.9640   20.1102 C   0  0  0  0  0  0
  -22.7410  -29.4659   22.4982 C   0  0  0  0  0  0
  -18.0271  -28.1379   22.8496 C   0  0  0  0  0  0
  -24.1485  -36.7311   23.2636 C   0  0  0  0  0  0
  -25.9373  -30.8264   21.3693 C   0  0  0  0  0  0
  -26.0146  -29.4633   20.7088 C   0  0  0  0  0  0
  -27.2081  -28.6995   20.6970 C   0  0  0  0  0  0
  -26.0505  -26.9517   19.4683 C   0  0  0  0  0  0
  -24.8655  -27.7075   19.4857 C   0  0  0  0  0  0
  -23.6131  -29.8300   20.1663 C   0  0  0  0  0  0
  -25.4111  -36.3120   24.0336 C   0  0  1  0  0  0
  -20.5862  -28.3663   23.1315 C   0  0  2  0  0  0
  -20.6764  -26.9403   22.5410 C   0  0  0  0  0  0
  -19.5742  -26.6393   21.5211 C   0  0  0  0  0  0
  -18.1920  -26.7926   22.1626 C   0  0  0  0  0  0
  -19.1521  -28.8841   23.2901 C   0  0  0  0  0  0
  -18.9444  -30.1447   23.8911 C   0  0  0  0  0  0
  -17.6448  -30.6583   24.0569 C   0  0  0  0  0  0
  -25.9042  -34.9482   23.5135 C   0  0  0  0  0  0
  -16.5339  -29.9084   23.6337 C   0  0  0  0  0  0
  -16.7259  -28.6503   23.0353 C   0  0  0  0  0  0
  -26.4471  -31.6614   25.0731 C   0  0  0  0  0  0
  -25.3732  -31.3725   26.1481 C   0  0  0  0  0  0
  -27.0288  -30.3051   24.6110 C   0  0  0  0  0  0
  -27.6042  -32.4335   25.7481 C   0  0  0  0  0  0
  -27.5589  -37.1813   24.8472 C   0  0  0  0  0  0
  -21.4133  -29.3041   22.3724 N   0  0  0  0  0  0
  -26.4297  -37.3802   23.9408 N   0  0  0  0  0  0
  -24.6715  -31.0755   22.1024 N   0  0  0  0  0  0
  -23.4179  -28.8194   23.3020 O   0  0  0  0  0  0
  -28.3765  -26.6335   20.1517 O   0  0  0  0  0  0
  -26.5594  -34.8940   22.4693 O   0  0  0  0  0  0
  -23.5350  -32.1427   23.7507 O   0  0  0  0  0  0
  -27.6147  -22.8900   22.2493 C   0  0  0  0  0  0
  -28.6839  -22.9731   21.3318 C   0  0  0  0  0  0
  -27.5312  -20.5958   21.9861 C   0  0  0  0  0  0
  -28.6653  -20.6366   21.1180 C   0  0  0  0  0  0
  -26.7344  -19.3450   22.3012 C   0  0  0  0  0  0
  -29.2133  -24.3583   20.9242 C   0  0  0  0  0  0
  -29.3017  -19.4046   20.4264 C   0  0  0  0  0  0
  -29.3209  -18.0191   21.1550 C   0  0  0  0  0  0
  -30.2167  -16.9520   20.4634 C   0  0  0  0  0  0
  -28.1703  -25.1988   20.1362 C   0  0  0  0  0  0
  -27.0335  -21.7137   22.5654 N   0  0  0  0  0  0
  -29.2185  -21.8445   20.7797 N   0  0  0  0  0  0
  -29.9247  -15.5572   20.8622 N   0  0  0  0  0  0
  -31.4649  -12.3994   19.1326 H   0  0  0  0  0  0
  -30.3218  -11.2976   19.8441 H   0  0  0  0  0  0
  -29.7374  -11.7469   17.4435 H   0  0  0  0  0  0
  -29.6702  -13.4619   17.7577 H   0  0  0  0  0  0
  -27.8263  -11.3001   18.8244 H   0  0  0  0  0  0
  -27.3708  -12.6148   17.7781 H   0  0  0  0  0  0
  -27.6940  -14.2513   19.5540 H   0  0  0  0  0  0
  -28.6703  -11.9813   21.3549 H   0  0  0  0  0  0
  -28.4640  -13.6370   21.8548 H   0  0  0  0  0  0
  -25.2746   -9.5692   22.4755 H   0  0  0  0  0  0
  -24.0008   -7.4624   22.7445 H   0  0  0  0  0  0
  -21.0839   -8.8781   19.8924 H   0  0  0  0  0  0
  -22.3690  -10.9687   19.6160 H   0  0  0  0  0  0
  -21.2000   -7.6140   23.9732 H   0  0  0  0  0  0
  -21.1485   -6.0498   25.9090 H   0  0  0  0  0  0
  -22.0602   -2.7603   23.2843 H   0  0  0  0  0  0
  -22.4050  -11.9948   22.4886 H   0  0  0  0  0  0
  -21.1056  -13.1270   22.2567 H   0  0  0  0  0  0
  -24.6619  -15.8426   20.5203 H   0  0  0  0  0  0
  -26.2743  -15.6251   20.0620 H   0  0  0  0  0  0
  -26.7116  -32.5527   23.1148 H   0  0  0  0  0  0
  -25.0069  -33.9798   25.0486 H   0  0  0  0  0  0
  -22.6946  -31.3106   21.4161 H   0  0  0  0  0  0
  -23.3759  -35.9641   23.3315 H   0  0  0  0  0  0
  -24.3575  -36.8903   22.2048 H   0  0  0  0  0  0
  -23.7234  -37.6520   23.6629 H   0  0  0  0  0  0
  -26.0565  -31.5946   20.6054 H   0  0  0  0  0  0
  -26.8241  -30.8742   21.9900 H   0  0  0  0  0  0
  -28.1011  -29.0790   21.1743 H   0  0  0  0  0  0
  -26.0205  -25.9950   18.9667 H   0  0  0  0  0  0
  -23.9753  -27.3177   19.0130 H   0  0  0  0  0  0
  -23.7198  -30.6069   19.4081 H   0  0  0  0  0  0
  -22.7371  -29.2492   19.8706 H   0  0  0  0  0  0
  -25.1288  -36.1991   25.0830 H   0  0  0  0  0  0
  -20.9957  -28.3228   24.1435 H   0  0  0  0  0  0
  -20.5678  -26.2267   23.3587 H   0  0  0  0  0  0
  -21.6632  -26.7456   22.1197 H   0  0  0  0  0  0
  -19.6902  -25.6314   21.1215 H   0  0  0  0  0  0
  -19.6684  -27.3224   20.6754 H   0  0  0  0  0  0
  -17.4193  -26.6680   21.4020 H   0  0  0  0  0  0
  -18.0327  -26.0058   22.9011 H   0  0  0  0  0  0
  -19.7918  -30.7258   24.2283 H   0  0  0  0  0  0
  -17.5004  -31.6272   24.5152 H   0  0  0  0  0  0
  -15.5340  -30.2988   23.7658 H   0  0  0  0  0  0
  -15.8653  -28.0825   22.7059 H   0  0  0  0  0  0
  -24.5896  -30.7083   25.7821 H   0  0  0  0  0  0
  -24.8940  -32.2882   26.4941 H   0  0  0  0  0  0
  -25.8091  -30.8878   27.0226 H   0  0  0  0  0  0
  -26.2828  -29.6826   24.1156 H   0  0  0  0  0  0
  -27.4039  -29.7279   25.4569 H   0  0  0  0  0  0
  -27.8675  -30.4365   23.9273 H   0  0  0  0  0  0
  -27.2656  -33.3619   26.2090 H   0  0  0  0  0  0
  -28.3825  -32.6925   25.0291 H   0  0  0  0  0  0
  -28.0736  -31.8441   26.5367 H   0  0  0  0  0  0
  -28.2628  -38.0092   24.7515 H   0  0  0  0  0  0
  -28.1062  -36.2622   24.6302 H   0  0  0  0  0  0
  -27.2298  -37.1476   25.8875 H   0  0  0  0  0  0
  -20.9285  -29.8761   21.6946 H   0  0  0  0  0  0
  -26.0194  -38.2888   24.1404 H   0  0  0  0  0  0
  -27.1934  -23.7765   22.7004 H   0  0  0  0  0  0
  -25.7925  -19.5862   22.7957 H   0  0  0  0  0  0
  -27.2901  -18.6868   22.9686 H   0  0  0  0  0  0
  -26.4782  -18.8154   21.3839 H   0  0  0  0  0  0
  -30.1321  -24.2577   20.3462 H   0  0  0  0  0  0
  -29.4824  -24.8867   21.8394 H   0  0  0  0  0  0
  -30.3339  -19.6711   20.1883 H   0  0  0  0  0  0
  -28.8059  -19.2878   19.4623 H   0  0  0  0  0  0
  -28.3137  -17.6142   21.2033 H   0  0  0  0  0  0
  -29.6593  -18.1467   22.1848 H   0  0  0  0  0  0
  -31.2688  -17.1864   20.6380 H   0  0  0  0  0  0
  -30.0675  -17.0117   19.3839 H   0  0  0  0  0  0
  -27.2028  -24.9821   20.5921 H   0  0  0  0  0  0
  -28.1120  -24.8449   19.1067 H   0  0  0  0  0  0
  -28.9872  -15.3510   21.1702 H   0  0  0  0  0  0
  1 25  1  0  0  0
  1 30  2  0  0  0
  1 83  1  0  0  0
  2  3  1  0  0  0
  2 25  1  0  0  0
  2 84  1  0  0  0
  2 85  1  0  0  0
  3  4  1  0  0  0
  3 86  1  0  0  0
  3 87  1  0  0  0
  4  5  1  0  0  0
  4 88  1  0  0  0
  4 89  1  0  0  0
  5  6  1  0  0  0
  5 26  1  0  0  0
  5 90  1  0  0  0
  6 25  1  0  0  0
  6 91  1  0  0  0
  6 92  1  0  0  0
  7  8  2  0  0  0
  7 26  1  0  0  0
  7 29  1  0  0  0
  8  9  1  0  0  0
  8 22  1  0  0  0
  9 10  1  0  0  0
  9 27  2  0  0  0
 10 11  2  0  0  0
 10 15  1  0  0  0
 11 12  1  0  0  0
 11 93  1  0  0  0
 12 13  2  0  0  0
 12 94  1  0  0  0
 13 14  1  0  0  0
 13 31  1  0  0  0
 14 15  2  0  0  0
 14 95  1  0  0  0
 15 96  1  0  0  0
 16 17  2  0  0  0
 16 21  1  0  0  0
 16 31  1  0  0  0
 17 18  1  0  0  0
 17 97  1  0  0  0
 18 19  2  0  0  0
 18 98  1  0  0  0
 19 20  1  0  0  0
 19 24  1  0  0  0
 20 21  2  0  0  0
 20 99  1  0  0  0
 21 23  1  0  0  0
 22 28  1  0  0  0
 22 32  2  0  0  0
 26 27  1  0  0  0
 28100  1  0  0  0
 28101  1  0  0  0
 29102  1  0  0  0
 29103  1  0  0  0
 33 34  1  0  0  0
 33 66  1  0  0  0
 33 70  2  0  0  0
 34 36  1  0  0  0
 34 59  1  0  0  0
 34104  1  0  0  0
 35 44  2  0  0  0
 35 45  1  0  0  0
 35 68  1  0  0  0
 36 56  1  0  0  0
 36105  1  0  0  0
 37 39  1  0  0  0
 37 47  1  0  0  0
 37 66  1  0  0  0
 37106  1  0  0  0
 38 43  2  0  0  0
 38 46  1  0  0  0
 38 47  1  0  0  0
 39 64  1  0  0  0
 39 67  2  0  0  0
 40 52  1  0  0  0
 40 53  2  0  0  0
 40 58  1  0  0  0
 41107  1  0  0  0
 41108  1  0  0  0
 41109  1  0  0  0
 41 48  1  0  0  0
 42 43  1  0  0  0
 42 66  1  0  0  0
 42110  1  0  0  0
 42111  1  0  0  0
 43 44  1  0  0  0
 44112  1  0  0  0
 45 46  2  0  0  0
 45113  1  0  0  0
 46114  1  0  0  0
 47115  1  0  0  0
 47116  1  0  0  0
 48 56  1  0  0  0
 48 65  1  0  0  0
 48117  1  0  0  0
 49 50  1  0  0  0
 49 53  1  0  0  0
 49 64  1  0  0  0
 49118  1  0  0  0
 50 51  1  0  0  0
 50119  1  0  0  0
 50120  1  0  0  0
 51 52  1  0  0  0
 51121  1  0  0  0
 51122  1  0  0  0
 52123  1  0  0  0
 52124  1  0  0  0
 53 54  1  0  0  0
 54 55  2  0  0  0
 54125  1  0  0  0
 55 57  1  0  0  0
 55126  1  0  0  0
 56 69  2  0  0  0
 57 58  2  0  0  0
 57127  1  0  0  0
 58128  1  0  0  0
 59 60  1  0  0  0
 59 61  1  0  0  0
 59 62  1  0  0  0
 60129  1  0  0  0
 60130  1  0  0  0
 60131  1  0  0  0
 61132  1  0  0  0
 61133  1  0  0  0
 61134  1  0  0  0
 62135  1  0  0  0
 62136  1  0  0  0
 62137  1  0  0  0
 63 65  1  0  0  0
 63138  1  0  0  0
 63139  1  0  0  0
 63140  1  0  0  0
 64141  1  0  0  0
 65142  1  0  0  0
 68 80  1  0  0  0
 71 72  2  0  0  0
 71 81  1  0  0  0
 71143  1  0  0  0
 72 76  1  0  0  0
 72 82  1  0  0  0
 73 74  1  0  0  0
 73 75  1  0  0  0
 73 81  2  0  0  0
 74 77  1  0  0  0
 74 82  2  0  0  0
 75144  1  0  0  0
 75145  1  0  0  0
 75146  1  0  0  0
 76 80  1  0  0  0
 76147  1  0  0  0
 76148  1  0  0  0
 77 78  1  0  0  0
 77149  1  0  0  0
 77150  1  0  0  0
 78 79  1  0  0  0
 78151  1  0  0  0
 78152  1  0  0  0
 79 83  1  0  0  0
 79153  1  0  0  0
 79154  1  0  0  0
 80155  1  0  0  0
 80156  1  0  0  0
 83157  1  0  0  0
M  ISO  4   1 100  68 101  80 101  83 100
M  END
> <chiral flag>
0

> <version>
0

> <s_m_source_file>
/data/baiqing/PycharmProjects/Reinvent-master-3.2/result/LINK_invent/BTK/process_docking_weight1_custom_sum_contain_oxygen_bond_distance_aromatic_linkinvent_7_9_3/rearranged_h_0041.sdf

> <i_m_source_file_index>
28

> <r_mmod_Potential_Energy-OPLS-2005>
-15.6417961120605

> <r_mmod_Stretch_Energy-OPLS-2005>
46.934154510498

> <r_mmod_Bend_Energy-OPLS-2005>
105.244781494141

> <r_mmod_Torsional_Energy-OPLS-2005>
209.489028930664

> <r_mmod_Improper_Torsional_Energy-OPLS-2005>
6.87056732177734

> <r_mmod_Van_der_Waal_Energy-OPLS-2005>
163.601181030273

> <r_mmod_Electrostatic_Energy-OPLS-2005>
-338.657653808594

> <r_mmod_Solvation_Energy-OPLS-2005>
-227.674499511719

> <b_mmod_Minimization_Converged-OPLS-2005>
0

> <r_mmod_RMS_Derivative-OPLS-2005>
2.22062540054321

$$$$
28
                    3D
 Structure written by MMmdl.
159167  0  0  1  0            999 V2000
  -30.7142  -14.4069   20.5791 C   0  0  0  0  0  0
  -30.4174  -12.2691   19.4004 C   0  0  0  0  0  0
  -29.4856  -12.5021   18.1936 C   0  0  0  0  0  0
  -28.0044  -12.3830   18.6072 C   0  0  0  0  0  0
  -27.6667  -13.2023   19.8834 C   0  0  2  0  0  0
  -28.7113  -12.9291   20.9887 C   0  0  0  0  0  0
  -25.2610  -13.8174   20.5677 C   0  0  0  0  0  0
  -24.1855  -13.0447   20.9178 C   0  0  0  0  0  0
  -24.6405  -11.6911   20.8771 C   0  0  0  0  0  0
  -23.9070  -10.4306   21.0427 C   0  0  0  0  0  0
  -24.3622   -9.4220   21.9203 C   0  0  0  0  0  0
  -23.6297   -8.2253   22.0765 C   0  0  0  0  0  0
  -22.4274   -8.0301   21.3554 C   0  0  0  0  0  0
  -21.9912   -9.0275   20.4653 C   0  0  0  0  0  0
  -22.7246  -10.2156   20.3071 C   0  0  0  0  0  0
  -21.6849   -6.0760   22.5287 C   0  0  0  0  0  0
  -21.4007   -6.5649   23.8225 C   0  0  0  0  0  0
  -21.3656   -5.6794   24.9186 C   0  0  0  0  0  0
  -21.6043   -4.3055   24.7224 C   0  0  0  0  0  0
  -21.8817   -3.8160   23.4336 C   0  0  0  0  0  0
  -21.9182   -4.6988   22.3403 C   0  0  0  0  0  0
  -22.7873  -13.5256   21.1825 C   0  0  0  0  0  0
  -22.1651   -4.2166   21.0981 F   0  0  0  0  0  0
  -21.5628   -3.4539   25.7734 F   0  0  0  0  0  0
  -30.0401  -13.2370   20.4405 N   0  0  0  0  0  0
  -26.3050  -12.9337   20.3422 N   0  0  0  0  0  0
  -25.9329  -11.6499   20.5807 N   0  0  0  0  0  0
  -22.0486  -12.8280   22.0390 N   0  0  0  0  0  0
  -25.4318  -15.1886   20.4034 N   0  0  0  0  0  0
  -31.8393  -14.5722   20.0955 O   0  0  0  0  0  0
  -21.6631   -6.8900   21.4250 O   0  0  0  0  0  0
  -22.3571  -14.5561   20.6667 O   0  0  0  0  0  0
  -24.6083  -31.8715   23.2125 C   0  0  0  0  0  0
  -25.8992  -32.4853   23.8392 C   0  0  1  0  0  0
  -27.2439  -27.4675   20.0870 C   0  0  0  0  0  0
  -25.5846  -33.8647   24.2320 N   0  0  0  0  0  0
  -23.3935  -30.4911   21.5562 C   0  0  2  0  0  0
  -24.8394  -28.9578   20.1202 C   0  0  0  0  0  0
  -22.7381  -29.4657   22.5060 C   0  0  0  0  0  0
  -18.0250  -28.1356   22.8513 C   0  0  0  0  0  0
  -24.1477  -36.7317   23.2642 C   0  0  0  0  0  0
  -25.9160  -30.8469   21.3566 C   0  0  0  0  0  0
  -25.9959  -29.4802   20.7098 C   0  0  0  0  0  0
  -27.1960  -28.7401   20.6934 C   0  0  0  0  0  0
  -26.0647  -26.9456   19.5052 C   0  0  0  0  0  0
  -24.8676  -27.6868   19.5191 C   0  0  0  0  0  0
  -23.5983  -29.8197   20.1715 C   0  0  0  0  0  0
  -25.4106  -36.3123   24.0332 C   0  0  1  0  0  0
  -20.5839  -28.3637   23.1362 C   0  0  2  0  0  0
  -20.6762  -26.9393   22.5440 C   0  0  0  0  0  0
  -19.5745  -26.6377   21.5238 C   0  0  0  0  0  0
  -18.1915  -26.7906   22.1634 C   0  0  0  0  0  0
  -19.1496  -28.8808   23.2930 C   0  0  0  0  0  0
  -18.9435  -30.1418   23.8942 C   0  0  0  0  0  0
  -17.6441  -30.6584   24.0554 C   0  0  0  0  0  0
  -25.9024  -34.9495   23.5139 C   0  0  0  0  0  0
  -16.5331  -29.9095   23.6312 C   0  0  0  0  0  0
  -16.7241  -28.6499   23.0365 C   0  0  0  0  0  0
  -26.4449  -31.6620   25.0697 C   0  0  0  0  0  0
  -25.3714  -31.3679   26.1441 C   0  0  0  0  0  0
  -27.0270  -30.3077   24.6006 C   0  0  0  0  0  0
  -27.6027  -32.4340   25.7440 C   0  0  0  0  0  0
  -27.5585  -37.1805   24.8465 C   0  0  0  0  0  0
  -21.4115  -29.3009   22.3783 N   0  0  0  0  0  0
  -26.4301  -37.3801   23.9409 N   0  0  0  0  0  0
  -24.6582  -31.0831   22.1016 N   0  0  0  0  0  0
  -23.4182  -28.8211   23.3086 O   0  0  0  0  0  0
  -28.4612  -26.8214   20.0798 O   0  0  0  0  0  0
  -26.5623  -34.8943   22.4718 O   0  0  0  0  0  0
  -23.5284  -32.1469   23.7541 O   0  0  0  0  0  0
  -28.1524  -18.3432   21.0479 C   0  0  0  0  0  0
  -27.7865  -19.6490   21.4162 C   0  0  0  0  0  0
  -30.3751  -19.1935   20.6111 C   0  0  0  0  0  0
  -29.4736  -18.1130   20.6211 C   0  0  0  0  0  0
  -28.7519  -20.6705   21.3517 C   0  0  0  0  0  0
  -30.8447  -16.1068   22.4449 C   0  0  0  0  0  0
  -29.9161  -16.7445   20.1246 C   0  0  0  0  0  0
  -28.4009  -22.1108   21.6921 C   0  0  0  0  0  0
  -28.5042  -23.0410   20.4677 C   0  0  0  0  0  0
  -28.1683  -24.5069   20.7865 C   0  0  0  0  0  0
  -28.5679  -25.4687   19.6536 C   0  0  0  0  0  0
  -30.0439  -15.6467   21.2111 C   0  0  1  0  0  0
  -30.0284  -20.4435   20.9752 N   0  0  0  0  0  0
  -31.4601  -12.3588   19.0905 H   0  0  0  0  0  0
  -30.3092  -11.2506   19.7762 H   0  0  0  0  0  0
  -29.7081  -11.7823   17.4049 H   0  0  0  0  0  0
  -29.6689  -13.4890   17.7669 H   0  0  0  0  0  0
  -27.7914  -11.3267   18.7786 H   0  0  0  0  0  0
  -27.3580  -12.6882   17.7832 H   0  0  0  0  0  0
  -27.7255  -14.2577   19.6168 H   0  0  0  0  0  0
  -28.6778  -11.8752   21.2719 H   0  0  0  0  0  0
  -28.4878  -13.4624   21.9119 H   0  0  0  0  0  0
  -25.2765   -9.5684   22.4781 H   0  0  0  0  0  0
  -23.9993   -7.4644   22.7492 H   0  0  0  0  0  0
  -21.0845   -8.8823   19.8965 H   0  0  0  0  0  0
  -22.3727  -10.9705   19.6188 H   0  0  0  0  0  0
  -21.2005   -7.6155   23.9739 H   0  0  0  0  0  0
  -21.1472   -6.0519   25.9088 H   0  0  0  0  0  0
  -22.0596   -2.7621   23.2836 H   0  0  0  0  0  0
  -22.4060  -11.9930   22.4793 H   0  0  0  0  0  0
  -21.1113  -13.1369   22.2582 H   0  0  0  0  0  0
  -24.6608  -15.8413   20.4969 H   0  0  0  0  0  0
  -26.2814  -15.6223   20.0657 H   0  0  0  0  0  0
  -26.7072  -32.5587   23.1167 H   0  0  0  0  0  0
  -24.9922  -33.9806   25.0413 H   0  0  0  0  0  0
  -22.6757  -31.3036   21.4196 H   0  0  0  0  0  0
  -23.3755  -35.9632   23.3302 H   0  0  0  0  0  0
  -24.3577  -36.8931   22.2059 H   0  0  0  0  0  0
  -23.7217  -37.6508   23.6677 H   0  0  0  0  0  0
  -26.0104  -31.6126   20.5866 H   0  0  0  0  0  0
  -26.8100  -30.9136   21.9629 H   0  0  0  0  0  0
  -28.0916  -29.1486   21.1423 H   0  0  0  0  0  0
  -26.0456  -25.9764   19.0308 H   0  0  0  0  0  0
  -23.9771  -27.2736   19.0654 H   0  0  0  0  0  0
  -23.6984  -30.5933   19.4093 H   0  0  0  0  0  0
  -22.7243  -29.2320   19.8848 H   0  0  0  0  0  0
  -25.1288  -36.1996   25.0823 H   0  0  0  0  0  0
  -20.9907  -28.3209   24.1489 H   0  0  0  0  0  0
  -20.5696  -26.2231   23.3603 H   0  0  0  0  0  0
  -21.6630  -26.7480   22.1206 H   0  0  0  0  0  0
  -19.6900  -25.6308   21.1235 H   0  0  0  0  0  0
  -19.6672  -27.3217   20.6794 H   0  0  0  0  0  0
  -17.4181  -26.6652   21.4038 H   0  0  0  0  0  0
  -18.0297  -26.0041   22.9013 H   0  0  0  0  0  0
  -19.7915  -30.7206   24.2346 H   0  0  0  0  0  0
  -17.5013  -31.6274   24.5149 H   0  0  0  0  0  0
  -15.5347  -30.3009   23.7621 H   0  0  0  0  0  0
  -15.8630  -28.0827   22.7074 H   0  0  0  0  0  0
  -24.5908  -30.7005   25.7763 H   0  0  0  0  0  0
  -24.8864  -32.2802   26.4922 H   0  0  0  0  0  0
  -25.8071  -30.8830   27.0182 H   0  0  0  0  0  0
  -26.2775  -29.6829   24.1124 H   0  0  0  0  0  0
  -27.4147  -29.7320   25.4417 H   0  0  0  0  0  0
  -27.8560  -30.4416   23.9047 H   0  0  0  0  0  0
  -27.2667  -33.3649   26.2025 H   0  0  0  0  0  0
  -28.3825  -32.6892   25.0247 H   0  0  0  0  0  0
  -28.0718  -31.8455   26.5337 H   0  0  0  0  0  0
  -28.2606  -38.0104   24.7562 H   0  0  0  0  0  0
  -28.1080  -36.2646   24.6253 H   0  0  0  0  0  0
  -27.2300  -37.1397   25.8862 H   0  0  0  0  0  0
  -20.9264  -29.8678   21.6968 H   0  0  0  0  0  0
  -26.0191  -38.2867   24.1456 H   0  0  0  0  0  0
  -27.4280  -17.5421   21.0726 H   0  0  0  0  0  0
  -26.7738  -19.8626   21.7311 H   0  0  0  0  0  0
  -31.3960  -19.0615   20.2812 H   0  0  0  0  0  0
  -30.3379  -16.9173   22.9681 H   0  0  0  0  0  0
  -31.8401  -16.4563   22.1660 H   0  0  0  0  0  0
  -30.9674  -15.2889   23.1571 H   0  0  0  0  0  0
  -30.8648  -16.8758   19.6009 H   0  0  0  0  0  0
  -29.2092  -16.4185   19.3595 H   0  0  0  0  0  0
  -29.0699  -22.4564   22.4827 H   0  0  0  0  0  0
  -27.3932  -22.1498   22.1075 H   0  0  0  0  0  0
  -27.8557  -22.6775   19.6699 H   0  0  0  0  0  0
  -29.5220  -22.9880   20.0809 H   0  0  0  0  0  0
  -28.6995  -24.8054   21.6915 H   0  0  0  0  0  0
  -27.1046  -24.5987   21.0061 H   0  0  0  0  0  0
  -28.0372  -25.2709   18.7230 H   0  0  0  0  0  0
  -29.6220  -25.3116   19.4223 H   0  0  0  0  0  0
  -29.0353  -15.4334   21.5525 H   0  0  0  0  0  0
  1 25  1  0  0  0
  1 30  2  0  0  0
  1 82  1  0  0  0
  2  3  1  0  0  0
  2 25  1  0  0  0
  2 84  1  0  0  0
  2 85  1  0  0  0
  3  4  1  0  0  0
  3 86  1  0  0  0
  3 87  1  0  0  0
  4  5  1  0  0  0
  4 88  1  0  0  0
  4 89  1  0  0  0
  5  6  1  0  0  0
  5 26  1  0  0  0
  5 90  1  0  0  0
  6 25  1  0  0  0
  6 91  1  0  0  0
  6 92  1  0  0  0
  7  8  2  0  0  0
  7 26  1  0  0  0
  7 29  1  0  0  0
  8  9  1  0  0  0
  8 22  1  0  0  0
  9 10  1  0  0  0
  9 27  2  0  0  0
 10 11  2  0  0  0
 10 15  1  0  0  0
 11 12  1  0  0  0
 11 93  1  0  0  0
 12 13  2  0  0  0
 12 94  1  0  0  0
 13 14  1  0  0  0
 13 31  1  0  0  0
 14 15  2  0  0  0
 14 95  1  0  0  0
 15 96  1  0  0  0
 16 17  2  0  0  0
 16 21  1  0  0  0
 16 31  1  0  0  0
 17 18  1  0  0  0
 17 97  1  0  0  0
 18 19  2  0  0  0
 18 98  1  0  0  0
 19 20  1  0  0  0
 19 24  1  0  0  0
 20 21  2  0  0  0
 20 99  1  0  0  0
 21 23  1  0  0  0
 22 28  1  0  0  0
 22 32  2  0  0  0
 26 27  1  0  0  0
 28100  1  0  0  0
 28101  1  0  0  0
 29102  1  0  0  0
 29103  1  0  0  0
 33 34  1  0  0  0
 33 66  1  0  0  0
 33 70  2  0  0  0
 34 36  1  0  0  0
 34 59  1  0  0  0
 34104  1  0  0  0
 35 44  2  0  0  0
 35 45  1  0  0  0
 35 68  1  0  0  0
 36 56  1  0  0  0
 36105  1  0  0  0
 37 39  1  0  0  0
 37 47  1  0  0  0
 37 66  1  0  0  0
 37106  1  0  0  0
 38 43  2  0  0  0
 38 46  1  0  0  0
 38 47  1  0  0  0
 39 64  1  0  0  0
 39 67  2  0  0  0
 40 52  1  0  0  0
 40 53  2  0  0  0
 40 58  1  0  0  0
 41107  1  0  0  0
 41108  1  0  0  0
 41109  1  0  0  0
 41 48  1  0  0  0
 42 43  1  0  0  0
 42 66  1  0  0  0
 42110  1  0  0  0
 42111  1  0  0  0
 43 44  1  0  0  0
 44112  1  0  0  0
 45 46  2  0  0  0
 45113  1  0  0  0
 46114  1  0  0  0
 47115  1  0  0  0
 47116  1  0  0  0
 48 56  1  0  0  0
 48 65  1  0  0  0
 48117  1  0  0  0
 49 50  1  0  0  0
 49 53  1  0  0  0
 49 64  1  0  0  0
 49118  1  0  0  0
 50 51  1  0  0  0
 50119  1  0  0  0
 50120  1  0  0  0
 51 52  1  0  0  0
 51121  1  0  0  0
 51122  1  0  0  0
 52123  1  0  0  0
 52124  1  0  0  0
 53 54  1  0  0  0
 54 55  2  0  0  0
 54125  1  0  0  0
 55 57  1  0  0  0
 55126  1  0  0  0
 56 69  2  0  0  0
 57 58  2  0  0  0
 57127  1  0  0  0
 58128  1  0  0  0
 59 60  1  0  0  0
 59 61  1  0  0  0
 59 62  1  0  0  0
 60129  1  0  0  0
 60130  1  0  0  0
 60131  1  0  0  0
 61132  1  0  0  0
 61133  1  0  0  0
 61134  1  0  0  0
 62135  1  0  0  0
 62136  1  0  0  0
 62137  1  0  0  0
 63 65  1  0  0  0
 63138  1  0  0  0
 63139  1  0  0  0
 63140  1  0  0  0
 64141  1  0  0  0
 65142  1  0  0  0
 68 81  1  0  0  0
 71 72  2  0  0  0
 71 74  1  0  0  0
 71143  1  0  0  0
 72 75  1  0  0  0
 72144  1  0  0  0
 73 74  2  0  0  0
 73 83  1  0  0  0
 73145  1  0  0  0
 74 77  1  0  0  0
 75 78  1  0  0  0
 75 83  2  0  0  0
 76146  1  0  0  0
 76147  1  0  0  0
 76148  1  0  0  0
 76 82  1  0  0  0
 77 82  1  0  0  0
 77149  1  0  0  0
 77150  1  0  0  0
 78 79  1  0  0  0
 78151  1  0  0  0
 78152  1  0  0  0
 79 80  1  0  0  0
 79153  1  0  0  0
 79154  1  0  0  0
 80 81  1  0  0  0
 80155  1  0  0  0
 80156  1  0  0  0
 81157  1  0  0  0
 81158  1  0  0  0
 82159  1  0  0  0
M  ISO  4   1 100  68 101  81 101  82 100
M  END
> <chiral flag>
0

> <version>
0

> <s_m_source_file>
/data/baiqing/PycharmProjects/Reinvent-master-3.2/result/LINK_invent/BTK/process_docking_weight1_custom_sum_contain_oxygen_bond_distance_aromatic_linkinvent_7_9_3/rearranged_h_0041.sdf

> <i_m_source_file_index>
29

> <r_mmod_Potential_Energy-OPLS-2005>
-185.130020141602

> <r_mmod_Stretch_Energy-OPLS-2005>
31.4493350982666

> <r_mmod_Bend_Energy-OPLS-2005>
100.189109802246

> <r_mmod_Torsional_Energy-OPLS-2005>
161.191223144531

> <r_mmod_Improper_Torsional_Energy-OPLS-2005>
3.3522777557373

> <r_mmod_Van_der_Waal_Energy-OPLS-2005>
154.178451538086

> <r_mmod_Electrostatic_Energy-OPLS-2005>
-446.821411132812

> <r_mmod_Solvation_Energy-OPLS-2005>
-199.11442565918

> <b_mmod_Minimization_Converged-OPLS-2005>
0

> <r_mmod_RMS_Derivative-OPLS-2005>
2.56215023994446

$$$$
29
                    3D
 Structure written by MMmdl.
164172  0  0  1  0            999 V2000
  -30.7431  -14.4097   20.6806 C   0  0  0  0  0  0
  -30.4284  -12.3230   19.3927 C   0  0  0  0  0  0
  -29.4817  -12.5321   18.1919 C   0  0  0  0  0  0
  -28.0044  -12.3707   18.6024 C   0  0  0  0  0  0
  -27.6644  -13.1792   19.8781 C   0  0  2  0  0  0
  -28.7098  -12.8777   20.9776 C   0  0  0  0  0  0
  -25.2598  -13.8107   20.5607 C   0  0  0  0  0  0
  -24.1825  -13.0437   20.9166 C   0  0  0  0  0  0
  -24.6348  -11.6888   20.8756 C   0  0  0  0  0  0
  -23.9011  -10.4297   21.0440 C   0  0  0  0  0  0
  -24.3585   -9.4216   21.9206 C   0  0  0  0  0  0
  -23.6276   -8.2240   22.0757 C   0  0  0  0  0  0
  -22.4260   -8.0282   21.3545 C   0  0  0  0  0  0
  -21.9884   -9.0248   20.4652 C   0  0  0  0  0  0
  -22.7195  -10.2140   20.3076 C   0  0  0  0  0  0
  -21.6845   -6.0734   22.5278 C   0  0  0  0  0  0
  -21.4011   -6.5636   23.8219 C   0  0  0  0  0  0
  -21.3649   -5.6785   24.9172 C   0  0  0  0  0  0
  -21.6038   -4.3047   24.7225 C   0  0  0  0  0  0
  -21.8823   -3.8143   23.4344 C   0  0  0  0  0  0
  -21.9197   -4.6959   22.3404 C   0  0  0  0  0  0
  -22.7855  -13.5282   21.1820 C   0  0  0  0  0  0
  -22.1663   -4.2146   21.0982 F   0  0  0  0  0  0
  -21.5627   -3.4533   25.7735 F   0  0  0  0  0  0
  -30.0372  -13.2580   20.4639 N   0  0  0  0  0  0
  -26.3016  -12.9211   20.3365 N   0  0  0  0  0  0
  -25.9261  -11.6411   20.5773 N   0  0  0  0  0  0
  -22.0467  -12.8305   22.0391 N   0  0  0  0  0  0
  -25.4348  -15.1793   20.3840 N   0  0  0  0  0  0
  -31.7977  -14.6516   20.0879 O   0  0  0  0  0  0
  -21.6624   -6.8872   21.4245 O   0  0  0  0  0  0
  -22.3568  -14.5583   20.6643 O   0  0  0  0  0  0
  -24.6124  -31.8704   23.2122 C   0  0  0  0  0  0
  -25.9027  -32.4840   23.8410 C   0  0  1  0  0  0
  -27.2487  -27.4760   20.0545 C   0  0  0  0  0  0
  -25.5898  -33.8635   24.2347 N   0  0  0  0  0  0
  -23.3993  -30.4951   21.5506 C   0  0  2  0  0  0
  -24.8450  -28.9655   20.1169 C   0  0  0  0  0  0
  -22.7389  -29.4667   22.4974 C   0  0  0  0  0  0
  -18.0270  -28.1386   22.8519 C   0  0  0  0  0  0
  -24.1494  -36.7330   23.2634 C   0  0  0  0  0  0
  -25.9254  -30.8402   21.3653 C   0  0  0  0  0  0
  -26.0004  -29.4752   20.7181 C   0  0  0  0  0  0
  -27.1971  -28.7292   20.7019 C   0  0  0  0  0  0
  -26.0671  -26.9702   19.4626 C   0  0  0  0  0  0
  -24.8684  -27.7054   19.4966 C   0  0  0  0  0  0
  -23.6101  -29.8325   20.1641 C   0  0  0  0  0  0
  -25.4111  -36.3123   24.0336 C   0  0  1  0  0  0
  -20.5861  -28.3680   23.1334 C   0  0  2  0  0  0
  -20.6744  -26.9405   22.5459 C   0  0  0  0  0  0
  -19.5742  -26.6429   21.5221 C   0  0  0  0  0  0
  -18.1929  -26.7926   22.1660 C   0  0  0  0  0  0
  -19.1520  -28.8847   23.2928 C   0  0  0  0  0  0
  -18.9452  -30.1445   23.8953 C   0  0  0  0  0  0
  -17.6457  -30.6603   24.0576 C   0  0  0  0  0  0
  -25.9022  -34.9484   23.5133 C   0  0  0  0  0  0
  -16.5348  -29.9116   23.6319 C   0  0  0  0  0  0
  -16.7258  -28.6518   23.0367 C   0  0  0  0  0  0
  -26.4464  -31.6611   25.0729 C   0  0  0  0  0  0
  -25.3726  -31.3736   26.1484 C   0  0  0  0  0  0
  -27.0307  -30.3066   24.6079 C   0  0  0  0  0  0
  -27.6046  -32.4323   25.7490 C   0  0  0  0  0  0
  -27.5589  -37.1823   24.8458 C   0  0  0  0  0  0
  -21.4119  -29.3031   22.3718 N   0  0  0  0  0  0
  -26.4302  -37.3801   23.9397 N   0  0  0  0  0  0
  -24.6633  -31.0829   22.1015 N   0  0  0  0  0  0
  -23.4168  -28.8205   23.3006 O   0  0  0  0  0  0
  -28.4604  -26.8165   20.0366 O   0  0  0  0  0  0
  -26.5574  -34.8925   22.4688 O   0  0  0  0  0  0
  -23.5323  -32.1436   23.7531 O   0  0  0  0  0  0
  -26.4983  -21.5881   20.1971 C   0  0  0  0  0  0
  -28.1659  -22.2361   21.8167 C   0  0  0  0  0  0
  -27.3891  -22.5556   20.6893 C   0  0  0  0  0  0
  -26.3711  -20.3654   20.8803 C   0  0  0  0  0  0
  -27.1745  -20.1431   22.0255 C   0  0  0  0  0  0
  -25.3513  -19.3585   20.3735 C   0  0  0  0  0  0
  -27.4164  -23.9402   20.0696 C   0  0  0  0  0  0
  -27.0114  -18.9312   22.9379 C   0  0  0  0  0  0
  -28.7961  -24.4353   19.6138 C   0  0  0  0  0  0
  -27.3823  -17.5593   22.3481 C   0  0  0  0  0  0
  -28.8809  -17.2379   22.1749 C   0  0  0  0  0  0
  -29.0295  -15.7162   22.0220 C   0  0  0  0  0  0
  -28.7398  -25.8532   19.0189 C   0  0  0  0  0  0
  -28.0722  -21.0541   22.4585 N   0  0  0  0  0  0
  -30.3704  -15.2490   21.6662 N   0  0  0  0  0  0
  -31.4628  -12.4591   19.0749 H   0  0  0  0  0  0
  -30.3728  -11.2947   19.7530 H   0  0  0  0  0  0
  -29.7225  -11.8271   17.3949 H   0  0  0  0  0  0
  -29.6359  -13.5292   17.7779 H   0  0  0  0  0  0
  -27.8155  -11.3102   18.7747 H   0  0  0  0  0  0
  -27.3471  -12.6678   17.7835 H   0  0  0  0  0  0
  -27.7257  -14.2282   19.5958 H   0  0  0  0  0  0
  -28.7030  -11.8077   21.1875 H   0  0  0  0  0  0
  -28.4518  -13.3074   21.9392 H   0  0  0  0  0  0
  -25.2732   -9.5680   22.4783 H   0  0  0  0  0  0
  -23.9980   -7.4625   22.7475 H   0  0  0  0  0  0
  -21.0807   -8.8769   19.8958 H   0  0  0  0  0  0
  -22.3662  -10.9679   19.6185 H   0  0  0  0  0  0
  -21.2006   -7.6143   23.9718 H   0  0  0  0  0  0
  -21.1459   -6.0512   25.9075 H   0  0  0  0  0  0
  -22.0613   -2.7606   23.2844 H   0  0  0  0  0  0
  -22.4023  -11.9969   22.4823 H   0  0  0  0  0  0
  -21.1105  -13.1391   22.2581 H   0  0  0  0  0  0
  -24.6585  -15.8289   20.4352 H   0  0  0  0  0  0
  -26.2692  -15.5863   19.9827 H   0  0  0  0  0  0
  -26.7099  -32.5576   23.1184 H   0  0  0  0  0  0
  -25.0141  -33.9801   25.0555 H   0  0  0  0  0  0
  -22.6866  -31.3100   21.4106 H   0  0  0  0  0  0
  -23.3747  -35.9676   23.3310 H   0  0  0  0  0  0
  -24.3597  -36.8926   22.2044 H   0  0  0  0  0  0
  -23.7244  -37.6540   23.6641 H   0  0  0  0  0  0
  -26.0306  -31.6041   20.5937 H   0  0  0  0  0  0
  -26.8154  -30.8986   21.9794 H   0  0  0  0  0  0
  -28.0890  -29.1271   21.1648 H   0  0  0  0  0  0
  -26.0472  -26.0180   18.9587 H   0  0  0  0  0  0
  -23.9783  -27.3082   19.0275 H   0  0  0  0  0  0
  -23.7247  -30.6079   19.4046 H   0  0  0  0  0  0
  -22.7370  -29.2516   19.8661 H   0  0  0  0  0  0
  -25.1289  -36.2003   25.0829 H   0  0  0  0  0  0
  -20.9953  -28.3261   24.1453 H   0  0  0  0  0  0
  -20.5561  -26.2303   23.3653 H   0  0  0  0  0  0
  -21.6630  -26.7407   22.1316 H   0  0  0  0  0  0
  -19.6672  -27.3296   20.6793 H   0  0  0  0  0  0
  -19.6911  -25.6363   21.1194 H   0  0  0  0  0  0
  -17.4179  -26.6647   21.4087 H   0  0  0  0  0  0
  -18.0376  -26.0069   22.9067 H   0  0  0  0  0  0
  -19.7930  -30.7235   24.2364 H   0  0  0  0  0  0
  -17.5023  -31.6291   24.5161 H   0  0  0  0  0  0
  -15.5355  -30.3048   23.7593 H   0  0  0  0  0  0
  -15.8656  -28.0837   22.7079 H   0  0  0  0  0  0
  -24.5864  -30.7122   25.7826 H   0  0  0  0  0  0
  -24.8968  -32.2920   26.4945 H   0  0  0  0  0  0
  -25.8069  -30.8885   27.0235 H   0  0  0  0  0  0
  -26.2865  -29.6821   24.1124 H   0  0  0  0  0  0
  -27.4103  -29.7299   25.4522 H   0  0  0  0  0  0
  -27.8681  -30.4422   23.9226 H   0  0  0  0  0  0
  -27.2661  -33.3594   26.2133 H   0  0  0  0  0  0
  -28.3831  -32.6921   25.0301 H   0  0  0  0  0  0
  -28.0750  -31.8407   26.5356 H   0  0  0  0  0  0
  -28.2613  -38.0115   24.7513 H   0  0  0  0  0  0
  -28.1079  -36.2648   24.6288 H   0  0  0  0  0  0
  -27.2313  -37.1484   25.8863 H   0  0  0  0  0  0
  -20.9260  -29.8747   21.6953 H   0  0  0  0  0  0
  -26.0201  -38.2891   24.1376 H   0  0  0  0  0  0
  -25.8829  -21.7998   19.3332 H   0  0  0  0  0  0
  -28.8516  -22.9543   22.2437 H   0  0  0  0  0  0
  -24.8454  -18.8393   21.1867 H   0  0  0  0  0  0
  -25.8421  -18.6225   19.7364 H   0  0  0  0  0  0
  -24.5814  -19.8500   19.7768 H   0  0  0  0  0  0
  -26.9922  -24.6287   20.8006 H   0  0  0  0  0  0
  -26.7455  -23.9450   19.2109 H   0  0  0  0  0  0
  -25.9695  -18.9047   23.2610 H   0  0  0  0  0  0
  -27.5834  -19.0827   23.8535 H   0  0  0  0  0  0
  -29.1955  -23.7538   18.8607 H   0  0  0  0  0  0
  -29.5049  -24.4282   20.4416 H   0  0  0  0  0  0
  -26.8678  -17.3963   21.4047 H   0  0  0  0  0  0
  -26.9581  -16.8189   23.0275 H   0  0  0  0  0  0
  -29.2700  -17.7554   21.2960 H   0  0  0  0  0  0
  -29.4543  -17.5867   23.0344 H   0  0  0  0  0  0
  -28.7391  -15.2384   22.9593 H   0  0  0  0  0  0
  -28.3124  -15.4194   21.2660 H   0  0  0  0  0  0
  -28.0690  -25.9045   18.1622 H   0  0  0  0  0  0
  -29.7225  -26.1036   18.6179 H   0  0  0  0  0  0
  -31.1027  -15.9003   21.9112 H   0  0  0  0  0  0
  1 25  1  0  0  0
  1 30  2  0  0  0
  1 85  1  0  0  0
  2  3  1  0  0  0
  2 25  1  0  0  0
  2 86  1  0  0  0
  2 87  1  0  0  0
  3  4  1  0  0  0
  3 88  1  0  0  0
  3 89  1  0  0  0
  4  5  1  0  0  0
  4 90  1  0  0  0
  4 91  1  0  0  0
  5  6  1  0  0  0
  5 26  1  0  0  0
  5 92  1  0  0  0
  6 25  1  0  0  0
  6 93  1  0  0  0
  6 94  1  0  0  0
  7  8  2  0  0  0
  7 26  1  0  0  0
  7 29  1  0  0  0
  8  9  1  0  0  0
  8 22  1  0  0  0
  9 10  1  0  0  0
  9 27  2  0  0  0
 10 11  2  0  0  0
 10 15  1  0  0  0
 11 12  1  0  0  0
 11 95  1  0  0  0
 12 13  2  0  0  0
 12 96  1  0  0  0
 13 14  1  0  0  0
 13 31  1  0  0  0
 14 15  2  0  0  0
 14 97  1  0  0  0
 15 98  1  0  0  0
 16 17  2  0  0  0
 16 21  1  0  0  0
 16 31  1  0  0  0
 17 18  1  0  0  0
 17 99  1  0  0  0
 18 19  2  0  0  0
 18100  1  0  0  0
 19 20  1  0  0  0
 19 24  1  0  0  0
 20 21  2  0  0  0
 20101  1  0  0  0
 21 23  1  0  0  0
 22 28  1  0  0  0
 22 32  2  0  0  0
 26 27  1  0  0  0
 28102  1  0  0  0
 28103  1  0  0  0
 29104  1  0  0  0
 29105  1  0  0  0
 33 34  1  0  0  0
 33 66  1  0  0  0
 33 70  2  0  0  0
 34 36  1  0  0  0
 34 59  1  0  0  0
 34106  1  0  0  0
 35 44  2  0  0  0
 35 45  1  0  0  0
 35 68  1  0  0  0
 36 56  1  0  0  0
 36107  1  0  0  0
 37 39  1  0  0  0
 37 47  1  0  0  0
 37 66  1  0  0  0
 37108  1  0  0  0
 38 43  2  0  0  0
 38 46  1  0  0  0
 38 47  1  0  0  0
 39 64  1  0  0  0
 39 67  2  0  0  0
 40 52  1  0  0  0
 40 53  2  0  0  0
 40 58  1  0  0  0
 41109  1  0  0  0
 41110  1  0  0  0
 41111  1  0  0  0
 41 48  1  0  0  0
 42 43  1  0  0  0
 42 66  1  0  0  0
 42112  1  0  0  0
 42113  1  0  0  0
 43 44  1  0  0  0
 44114  1  0  0  0
 45 46  2  0  0  0
 45115  1  0  0  0
 46116  1  0  0  0
 47117  1  0  0  0
 47118  1  0  0  0
 48 56  1  0  0  0
 48 65  1  0  0  0
 48119  1  0  0  0
 49 50  1  0  0  0
 49 53  1  0  0  0
 49 64  1  0  0  0
 49120  1  0  0  0
 50 51  1  0  0  0
 50121  1  0  0  0
 50122  1  0  0  0
 51 52  1  0  0  0
 51123  1  0  0  0
 51124  1  0  0  0
 52125  1  0  0  0
 52126  1  0  0  0
 53 54  1  0  0  0
 54 55  2  0  0  0
 54127  1  0  0  0
 55 57  1  0  0  0
 55128  1  0  0  0
 56 69  2  0  0  0
 57 58  2  0  0  0
 57129  1  0  0  0
 58130  1  0  0  0
 59 60  1  0  0  0
 59 61  1  0  0  0
 59 62  1  0  0  0
 60131  1  0  0  0
 60132  1  0  0  0
 60133  1  0  0  0
 61134  1  0  0  0
 61135  1  0  0  0
 61136  1  0  0  0
 62137  1  0  0  0
 62138  1  0  0  0
 62139  1  0  0  0
 63 65  1  0  0  0
 63140  1  0  0  0
 63141  1  0  0  0
 63142  1  0  0  0
 64143  1  0  0  0
 65144  1  0  0  0
 68 83  1  0  0  0
 71 73  2  0  0  0
 71 74  1  0  0  0
 71145  1  0  0  0
 72 73  1  0  0  0
 72 84  2  0  0  0
 72146  1  0  0  0
 73 77  1  0  0  0
 74 75  2  0  0  0
 74 76  1  0  0  0
 75 78  1  0  0  0
 75 84  1  0  0  0
 76147  1  0  0  0
 76148  1  0  0  0
 76149  1  0  0  0
 77 79  1  0  0  0
 77150  1  0  0  0
 77151  1  0  0  0
 78 80  1  0  0  0
 78152  1  0  0  0
 78153  1  0  0  0
 79 83  1  0  0  0
 79154  1  0  0  0
 79155  1  0  0  0
 80 81  1  0  0  0
 80156  1  0  0  0
 80157  1  0  0  0
 81 82  1  0  0  0
 81158  1  0  0  0
 81159  1  0  0  0
 82 85  1  0  0  0
 82160  1  0  0  0
 82161  1  0  0  0
 83162  1  0  0  0
 83163  1  0  0  0
 85164  1  0  0  0
M  ISO  4   1 100  68 101  83 101  85 100
M  END
> <chiral flag>
0

> <version>
0

> <s_m_source_file>
/data/baiqing/PycharmProjects/Reinvent-master-3.2/result/LINK_invent/BTK/process_docking_weight1_custom_sum_contain_oxygen_bond_distance_aromatic_linkinvent_7_9_3/rearranged_h_0041.sdf

> <i_m_source_file_index>
30

> <r_mmod_Potential_Energy-OPLS-2005>
-154.761962890625

> <r_mmod_Stretch_Energy-OPLS-2005>
33.3128318786621

> <r_mmod_Bend_Energy-OPLS-2005>
127.262435913086

> <r_mmod_Torsional_Energy-OPLS-2005>
241.286315917969

> <r_mmod_Improper_Torsional_Energy-OPLS-2005>
5.82579612731934

> <r_mmod_Van_der_Waal_Energy-OPLS-2005>
160.179641723633

> <r_mmod_Electrostatic_Energy-OPLS-2005>
-514.105163574219

> <r_mmod_Solvation_Energy-OPLS-2005>
-218.692108154297

> <b_mmod_Minimization_Converged-OPLS-2005>
0

> <r_mmod_RMS_Derivative-OPLS-2005>
2.35689735412598

$$$$
30
                    3D
 Structure written by MMmdl.
163171  0  0  1  0            999 V2000
  -30.5869  -14.7576   20.4443 C   0  0  0  0  0  0
  -30.4449  -12.4656   19.4480 C   0  0  0  0  0  0
  -29.5120  -12.5215   18.2185 C   0  0  0  0  0  0
  -28.0382  -12.3416   18.6376 C   0  0  0  0  0  0
  -27.6454  -13.2295   19.8478 C   0  0  2  0  0  0
  -28.6956  -13.1476   20.9742 C   0  0  0  0  0  0
  -25.2535  -13.8184   20.5698 C   0  0  0  0  0  0
  -24.1819  -13.0441   20.9206 C   0  0  0  0  0  0
  -24.6409  -11.6914   20.8753 C   0  0  0  0  0  0
  -23.9081  -10.4303   21.0433 C   0  0  0  0  0  0
  -24.3630   -9.4200   21.9195 C   0  0  0  0  0  0
  -23.6302   -8.2237   22.0760 C   0  0  0  0  0  0
  -22.4276   -8.0290   21.3562 C   0  0  0  0  0  0
  -21.9916   -9.0261   20.4661 C   0  0  0  0  0  0
  -22.7259  -10.2134   20.3066 C   0  0  0  0  0  0
  -21.6844   -6.0735   22.5293 C   0  0  0  0  0  0
  -21.4020   -6.5645   23.8227 C   0  0  0  0  0  0
  -21.3656   -5.6791   24.9187 C   0  0  0  0  0  0
  -21.6026   -4.3050   24.7231 C   0  0  0  0  0  0
  -21.8815   -3.8147   23.4359 C   0  0  0  0  0  0
  -21.9197   -4.6968   22.3417 C   0  0  0  0  0  0
  -22.7837  -13.5233   21.1857 C   0  0  0  0  0  0
  -22.1666   -4.2159   21.0993 F   0  0  0  0  0  0
  -21.5626   -3.4533   25.7745 F   0  0  0  0  0  0
  -29.9917  -13.5175   20.3848 N   0  0  0  0  0  0
  -26.2971  -12.9385   20.3281 N   0  0  0  0  0  0
  -25.9339  -11.6527   20.5710 N   0  0  0  0  0  0
  -22.0458  -12.8231   22.0405 N   0  0  0  0  0  0
  -25.4174  -15.1911   20.4152 N   0  0  0  0  0  0
  -31.7862  -14.8861   20.1845 O   0  0  0  0  0  0
  -21.6637   -6.8883   21.4256 O   0  0  0  0  0  0
  -22.3522  -14.5536   20.6691 O   0  0  0  0  0  0
  -24.6362  -31.8524   23.1943 C   0  0  0  0  0  0
  -25.9187  -32.4723   23.8285 C   0  0  1  0  0  0
  -27.2254  -27.2471   20.1201 C   0  0  0  0  0  0
  -25.5989  -33.8519   24.2230 N   0  0  0  0  0  0
  -23.4293  -30.4771   21.5376 C   0  0  2  0  0  0
  -24.8774  -28.9176   20.1089 C   0  0  0  0  0  0
  -22.7506  -29.4592   22.4867 C   0  0  0  0  0  0
  -18.0303  -28.1369   22.8518 C   0  0  0  0  0  0
  -24.1496  -36.7272   23.2640 C   0  0  0  0  0  0
  -25.9773  -30.7606   21.3756 C   0  0  0  0  0  0
  -26.0521  -29.3813   20.7178 C   0  0  0  0  0  0
  -27.2257  -28.5601   20.7086 C   0  0  0  0  0  0
  -26.0250  -26.8529   19.4855 C   0  0  0  0  0  0
  -24.8723  -27.6637   19.4813 C   0  0  0  0  0  0
  -23.6509  -29.8089   20.1552 C   0  0  0  0  0  0
  -25.4116  -36.3036   24.0330 C   0  0  1  0  0  0
  -20.5912  -28.3691   23.1260 C   0  0  2  0  0  0
  -20.6772  -26.9403   22.5408 C   0  0  0  0  0  0
  -19.5741  -26.6380   21.5215 C   0  0  0  0  0  0
  -18.1926  -26.7915   22.1630 C   0  0  0  0  0  0
  -19.1559  -28.8845   23.2891 C   0  0  0  0  0  0
  -18.9463  -30.1444   23.8900 C   0  0  0  0  0  0
  -17.6460  -30.6565   24.0573 C   0  0  0  0  0  0
  -25.9066  -34.9414   23.5061 C   0  0  0  0  0  0
  -16.5358  -29.9063   23.6335 C   0  0  0  0  0  0
  -16.7292  -28.6482   23.0371 C   0  0  0  0  0  0
  -26.4518  -31.6577   25.0692 C   0  0  0  0  0  0
  -25.3741  -31.3810   26.1428 C   0  0  0  0  0  0
  -27.0347  -30.2973   24.6221 C   0  0  0  0  0  0
  -27.6050  -32.4340   25.7469 C   0  0  0  0  0  0
  -27.5576  -37.1774   24.8458 C   0  0  0  0  0  0
  -21.4213  -29.3024   22.3621 N   0  0  0  0  0  0
  -26.4276  -37.3756   23.9421 N   0  0  0  0  0  0
  -24.6987  -31.0492   22.0914 N   0  0  0  0  0  0
  -23.4227  -28.8139   23.2977 O   0  0  0  0  0  0
  -28.3257  -26.3510   20.1728 O   0  0  0  0  0  0
  -26.5611  -34.8905   22.4611 O   0  0  0  0  0  0
  -23.5503  -32.1361   23.7231 O   0  0  0  0  0  0
  -29.7123  -21.0256   20.4997 C   0  0  0  0  0  0
  -29.0986  -22.2076   20.0187 C   0  0  0  0  0  0
  -28.4600  -20.3961   18.8094 C   0  0  0  0  0  0
  -29.0071  -18.2988   15.8578 C   0  0  0  0  0  0
  -28.0363  -20.5536   15.2551 C   0  0  0  0  0  0
  -29.2531  -23.7635   20.3282 C   0  0  0  0  0  0
  -27.8126  -19.6942   17.6476 C   0  0  0  0  0  0
  -29.8654  -18.4287   19.6292 C   0  0  0  0  0  0
  -29.9448  -17.3645   20.8429 C   0  0  0  0  0  0
  -28.1233  -24.8673   19.9402 C   0  0  0  0  0  0
  -28.6859  -19.7131   16.3690 C   0  0  0  0  0  0
  -29.3326  -19.9064   19.7276 N   0  0  0  0  0  0
  -28.3265  -21.7247   18.9943 N   0  3  0  0  0  0
  -29.7501  -15.8543   20.6002 N   0  0  0  0  0  0
  -31.4821  -12.6095   19.1375 H   0  0  0  0  0  0
  -30.4067  -11.4849   19.9262 H   0  0  0  0  0  0
  -29.7933  -11.7597   17.4923 H   0  0  0  0  0  0
  -29.6370  -13.4790   17.7100 H   0  0  0  0  0  0
  -27.8903  -11.2916   18.8889 H   0  0  0  0  0  0
  -27.3780  -12.5466   17.7943 H   0  0  0  0  0  0
  -27.6418  -14.2544   19.4769 H   0  0  0  0  0  0
  -28.7354  -12.1419   21.3953 H   0  0  0  0  0  0
  -28.4334  -13.8124   21.7982 H   0  0  0  0  0  0
  -25.2783   -9.5644   22.4767 H   0  0  0  0  0  0
  -24.0003   -7.4611   22.7473 H   0  0  0  0  0  0
  -21.0835   -8.8780   19.8980 H   0  0  0  0  0  0
  -22.3727  -10.9663   19.6162 H   0  0  0  0  0  0
  -21.2014   -7.6152   23.9727 H   0  0  0  0  0  0
  -21.1478   -6.0525   25.9083 H   0  0  0  0  0  0
  -22.0593   -2.7610   23.2854 H   0  0  0  0  0  0
  -22.4067  -11.9922   22.4848 H   0  0  0  0  0  0
  -21.1070  -13.1253   22.2592 H   0  0  0  0  0  0
  -24.6376  -15.8307   20.5270 H   0  0  0  0  0  0
  -26.2478  -15.6444   20.0598 H   0  0  0  0  0  0
  -26.7257  -32.5398   23.1028 H   0  0  0  0  0  0
  -25.0143  -33.9645   25.0376 H   0  0  0  0  0  0
  -22.7246  -31.2990   21.3909 H   0  0  0  0  0  0
  -23.3732  -35.9627   23.3278 H   0  0  0  0  0  0
  -24.3586  -36.8921   22.2057 H   0  0  0  0  0  0
  -23.7268  -37.6475   23.6677 H   0  0  0  0  0  0
  -26.1264  -31.5176   20.6036 H   0  0  0  0  0  0
  -26.8494  -30.8071   22.0157 H   0  0  0  0  0  0
  -28.1247  -28.9151   21.1933 H   0  0  0  0  0  0
  -25.9480  -25.8934   18.9959 H   0  0  0  0  0  0
  -23.9775  -27.3028   18.9949 H   0  0  0  0  0  0
  -23.7730  -30.5809   19.3941 H   0  0  0  0  0  0
  -22.7686  -29.2422   19.8550 H   0  0  0  0  0  0
  -25.1300  -36.1844   25.0824 H   0  0  0  0  0  0
  -21.0063  -28.3274   24.1365 H   0  0  0  0  0  0
  -20.5639  -26.2303   23.3618 H   0  0  0  0  0  0
  -21.6632  -26.7367   22.1227 H   0  0  0  0  0  0
  -19.6866  -25.6294   21.1239 H   0  0  0  0  0  0
  -19.6669  -27.3175   20.6744 H   0  0  0  0  0  0
  -17.4207  -26.6721   21.4025 H   0  0  0  0  0  0
  -18.0293  -26.0016   22.8982 H   0  0  0  0  0  0
  -19.7923  -30.7289   24.2256 H   0  0  0  0  0  0
  -17.4990  -31.6249   24.5160 H   0  0  0  0  0  0
  -15.5345  -30.2966   23.7616 H   0  0  0  0  0  0
  -15.8696  -28.0789   22.7085 H   0  0  0  0  0  0
  -24.5894  -30.7166   25.7795 H   0  0  0  0  0  0
  -24.8973  -32.3024   26.4781 H   0  0  0  0  0  0
  -25.8063  -30.9050   27.0244 H   0  0  0  0  0  0
  -26.2937  -29.6717   24.1232 H   0  0  0  0  0  0
  -27.3962  -29.7244   25.4771 H   0  0  0  0  0  0
  -27.8852  -30.4181   23.9505 H   0  0  0  0  0  0
  -27.2619  -33.3648   26.2004 H   0  0  0  0  0  0
  -28.3878  -32.6908   25.0316 H   0  0  0  0  0  0
  -28.0695  -31.8512   26.5441 H   0  0  0  0  0  0
  -28.2580  -38.0085   24.7489 H   0  0  0  0  0  0
  -28.1081  -36.2599   24.6270 H   0  0  0  0  0  0
  -27.2308  -37.1439   25.8872 H   0  0  0  0  0  0
  -20.9363  -29.8807   21.6885 H   0  0  0  0  0  0
  -26.0129  -38.2822   24.1421 H   0  0  0  0  0  0
  -30.4452  -20.9161   21.2876 H   0  0  0  0  0  0
  -29.6062  -18.3335   14.9466 H   0  0  0  0  0  0
  -28.0993  -17.7378   15.6374 H   0  0  0  0  0  0
  -29.5787  -17.7281   16.5902 H   0  0  0  0  0  0
  -27.1270  -20.0842   14.8793 H   0  0  0  0  0  0
  -28.7147  -20.6842   14.4106 H   0  0  0  0  0  0
  -27.7698  -21.5501   15.6115 H   0  0  0  0  0  0
  -30.1752  -24.0784   19.8374 H   0  0  0  0  0  0
  -29.4524  -23.8590   21.3944 H   0  0  0  0  0  0
  -26.8727  -20.2179   17.4753 H   0  0  0  0  0  0
  -27.5216  -18.6933   17.9580 H   0  0  0  0  0  0
  -29.2913  -17.9275   18.8567 H   0  0  0  0  0  0
  -30.8645  -18.5104   19.2001 H   0  0  0  0  0  0
  -29.1620  -17.6326   21.5538 H   0  0  0  0  0  0
  -30.8776  -17.5142   21.3896 H   0  0  0  0  0  0
  -27.2079  -24.5721   20.4550 H   0  0  0  0  0  0
  -27.9199  -24.7460   18.8768 H   0  0  0  0  0  0
  -29.6411  -20.1827   16.6142 H   0  0  0  0  0  0
  -27.7609  -22.3063   18.3856 H   0  0  0  0  0  0
  -28.7881  -15.5631   20.6932 H   0  0  0  0  0  0
  1 25  1  0  0  0
  1 30  2  0  0  0
  1 84  1  0  0  0
  2  3  1  0  0  0
  2 25  1  0  0  0
  2 85  1  0  0  0
  2 86  1  0  0  0
  3  4  1  0  0  0
  3 87  1  0  0  0
  3 88  1  0  0  0
  4  5  1  0  0  0
  4 89  1  0  0  0
  4 90  1  0  0  0
  5  6  1  0  0  0
  5 26  1  0  0  0
  5 91  1  0  0  0
  6 25  1  0  0  0
  6 92  1  0  0  0
  6 93  1  0  0  0
  7  8  2  0  0  0
  7 26  1  0  0  0
  7 29  1  0  0  0
  8  9  1  0  0  0
  8 22  1  0  0  0
  9 10  1  0  0  0
  9 27  2  0  0  0
 10 11  2  0  0  0
 10 15  1  0  0  0
 11 12  1  0  0  0
 11 94  1  0  0  0
 12 13  2  0  0  0
 12 95  1  0  0  0
 13 14  1  0  0  0
 13 31  1  0  0  0
 14 15  2  0  0  0
 14 96  1  0  0  0
 15 97  1  0  0  0
 16 17  2  0  0  0
 16 21  1  0  0  0
 16 31  1  0  0  0
 17 18  1  0  0  0
 17 98  1  0  0  0
 18 19  2  0  0  0
 18 99  1  0  0  0
 19 20  1  0  0  0
 19 24  1  0  0  0
 20 21  2  0  0  0
 20100  1  0  0  0
 21 23  1  0  0  0
 22 28  1  0  0  0
 22 32  2  0  0  0
 26 27  1  0  0  0
 28101  1  0  0  0
 28102  1  0  0  0
 29103  1  0  0  0
 29104  1  0  0  0
 33 34  1  0  0  0
 33 66  1  0  0  0
 33 70  2  0  0  0
 34 36  1  0  0  0
 34 59  1  0  0  0
 34105  1  0  0  0
 35 44  2  0  0  0
 35 45  1  0  0  0
 35 68  1  0  0  0
 36 56  1  0  0  0
 36106  1  0  0  0
 37 39  1  0  0  0
 37 47  1  0  0  0
 37 66  1  0  0  0
 37107  1  0  0  0
 38 43  2  0  0  0
 38 46  1  0  0  0
 38 47  1  0  0  0
 39 64  1  0  0  0
 39 67  2  0  0  0
 40 52  1  0  0  0
 40 53  2  0  0  0
 40 58  1  0  0  0
 41108  1  0  0  0
 41109  1  0  0  0
 41110  1  0  0  0
 41 48  1  0  0  0
 42 43  1  0  0  0
 42 66  1  0  0  0
 42111  1  0  0  0
 42112  1  0  0  0
 43 44  1  0  0  0
 44113  1  0  0  0
 45 46  2  0  0  0
 45114  1  0  0  0
 46115  1  0  0  0
 47116  1  0  0  0
 47117  1  0  0  0
 48 56  1  0  0  0
 48 65  1  0  0  0
 48118  1  0  0  0
 49 50  1  0  0  0
 49 53  1  0  0  0
 49 64  1  0  0  0
 49119  1  0  0  0
 50 51  1  0  0  0
 50120  1  0  0  0
 50121  1  0  0  0
 51 52  1  0  0  0
 51122  1  0  0  0
 51123  1  0  0  0
 52124  1  0  0  0
 52125  1  0  0  0
 53 54  1  0  0  0
 54 55  2  0  0  0
 54126  1  0  0  0
 55 57  1  0  0  0
 55127  1  0  0  0
 56 69  2  0  0  0
 57 58  2  0  0  0
 57128  1  0  0  0
 58129  1  0  0  0
 59 60  1  0  0  0
 59 61  1  0  0  0
 59 62  1  0  0  0
 60130  1  0  0  0
 60131  1  0  0  0
 60132  1  0  0  0
 61133  1  0  0  0
 61134  1  0  0  0
 61135  1  0  0  0
 62136  1  0  0  0
 62137  1  0  0  0
 62138  1  0  0  0
 63 65  1  0  0  0
 63139  1  0  0  0
 63140  1  0  0  0
 63141  1  0  0  0
 64142  1  0  0  0
 65143  1  0  0  0
 68 80  1  0  0  0
 71 72  2  0  0  0
 71 82  1  0  0  0
 71144  1  0  0  0
 72 76  1  0  0  0
 72 83  1  0  0  0
 73 77  1  0  0  0
 73 82  1  0  0  0
 73 83  2  0  0  0
 74145  1  0  0  0
 74146  1  0  0  0
 74147  1  0  0  0
 74 81  1  0  0  0
 75 81  1  0  0  0
 75148  1  0  0  0
 75149  1  0  0  0
 75150  1  0  0  0
 76 80  1  0  0  0
 76151  1  0  0  0
 76152  1  0  0  0
 77 81  1  0  0  0
 77153  1  0  0  0
 77154  1  0  0  0
 78 79  1  0  0  0
 78 82  1  0  0  0
 78155  1  0  0  0
 78156  1  0  0  0
 79 84  1  0  0  0
 79157  1  0  0  0
 79158  1  0  0  0
 80159  1  0  0  0
 80160  1  0  0  0
 81161  1  0  0  0
 83162  1  0  0  0
 84163  1  0  0  0
M  CHG  1  83   1
M  ISO  4   1 100  68 101  80 101  84 100
M  END
> <chiral flag>
0

> <version>
0

> <s_m_source_file>
/data/baiqing/PycharmProjects/Reinvent-master-3.2/result/LINK_invent/BTK/process_docking_weight1_custom_sum_contain_oxygen_bond_distance_aromatic_linkinvent_7_9_3/rearranged_h_0041.sdf

> <i_m_source_file_index>
31

> <r_mmod_Potential_Energy-OPLS-2005>
191.025512695312

> <r_mmod_Stretch_Energy-OPLS-2005>
137.851333618164

> <r_mmod_Bend_Energy-OPLS-2005>
194.773086547852

> <r_mmod_Torsional_Energy-OPLS-2005>
240.93293762207

> <r_mmod_Improper_Torsional_Energy-OPLS-2005>
6.83012199401855

> <r_mmod_Van_der_Waal_Energy-OPLS-2005>
114.455589294434

> <r_mmod_Electrostatic_Energy-OPLS-2005>
-168.95344543457

> <r_mmod_Solvation_Energy-OPLS-2005>
-427.827789306641

> <b_mmod_Minimization_Converged-OPLS-2005>
0

> <r_mmod_RMS_Derivative-OPLS-2005>
3.77331447601318

$$$$
31
                    3D
 Structure written by MMmdl.
163171  0  0  1  0            999 V2000
  -30.7034  -14.4354   20.6172 C   0  0  0  0  0  0
  -30.4232  -12.3049   19.4022 C   0  0  0  0  0  0
  -29.4825  -12.5098   18.1967 C   0  0  0  0  0  0
  -28.0057  -12.3713   18.6137 C   0  0  0  0  0  0
  -27.6612  -13.1989   19.8804 C   0  0  2  0  0  0
  -28.7032  -12.9470   20.9930 C   0  0  0  0  0  0
  -25.2585  -13.8156   20.5699 C   0  0  0  0  0  0
  -24.1819  -13.0452   20.9161 C   0  0  0  0  0  0
  -24.6350  -11.6907   20.8730 C   0  0  0  0  0  0
  -23.9014  -10.4295   21.0407 C   0  0  0  0  0  0
  -24.3571   -9.4209   21.9182 C   0  0  0  0  0  0
  -23.6242   -8.2245   22.0755 C   0  0  0  0  0  0
  -22.4229   -8.0264   21.3540 C   0  0  0  0  0  0
  -21.9859   -9.0247   20.4649 C   0  0  0  0  0  0
  -22.7185  -10.2125   20.3060 C   0  0  0  0  0  0
  -21.6841   -6.0712   22.5269 C   0  0  0  0  0  0
  -21.4018   -6.5625   23.8199 C   0  0  0  0  0  0
  -21.3658   -5.6781   24.9167 C   0  0  0  0  0  0
  -21.6043   -4.3038   24.7212 C   0  0  0  0  0  0
  -21.8822   -3.8125   23.4334 C   0  0  0  0  0  0
  -21.9191   -4.6942   22.3391 C   0  0  0  0  0  0
  -22.7838  -13.5266   21.1812 C   0  0  0  0  0  0
  -22.1661   -4.2131   21.0967 F   0  0  0  0  0  0
  -21.5634   -3.4524   25.7725 F   0  0  0  0  0  0
  -30.0340  -13.2658   20.4440 N   0  0  0  0  0  0
  -26.3005  -12.9304   20.3381 N   0  0  0  0  0  0
  -25.9276  -11.6472   20.5757 N   0  0  0  0  0  0
  -22.0474  -12.8291   22.0372 N   0  0  0  0  0  0
  -25.4371  -15.1877   20.4161 N   0  0  0  0  0  0
  -31.8036  -14.6670   20.1049 O   0  0  0  0  0  0
  -21.6622   -6.8842   21.4218 O   0  0  0  0  0  0
  -22.3544  -14.5572   20.6645 O   0  0  0  0  0  0
  -24.6145  -31.8687   23.2073 C   0  0  0  0  0  0
  -25.9050  -32.4822   23.8370 C   0  0  1  0  0  0
  -27.2385  -27.4388   20.1063 C   0  0  0  0  0  0
  -25.5919  -33.8617   24.2319 N   0  0  0  0  0  0
  -23.4027  -30.4909   21.5466 C   0  0  2  0  0  0
  -24.8523  -28.9514   20.1177 C   0  0  0  0  0  0
  -22.7408  -29.4677   22.4976 C   0  0  0  0  0  0
  -18.0279  -28.1370   22.8468 C   0  0  0  0  0  0
  -24.1488  -36.7315   23.2633 C   0  0  0  0  0  0
  -25.9292  -30.8339   21.3611 C   0  0  0  0  0  0
  -26.0091  -29.4657   20.7174 C   0  0  0  0  0  0
  -27.2063  -28.7147   20.7119 C   0  0  0  0  0  0
  -26.0717  -26.9408   19.4919 C   0  0  0  0  0  0
  -24.8780  -27.6873   19.5015 C   0  0  0  0  0  0
  -23.6128  -29.8163   20.1631 C   0  0  0  0  0  0
  -25.4103  -36.3101   24.0329 C   0  0  1  0  0  0
  -20.5868  -28.3677   23.1307 C   0  0  2  0  0  0
  -20.6784  -26.9413   22.5410 C   0  0  0  0  0  0
  -19.5759  -26.6355   21.5221 C   0  0  0  0  0  0
  -18.1934  -26.7906   22.1626 C   0  0  0  0  0  0
  -19.1520  -28.8839   23.2888 C   0  0  0  0  0  0
  -18.9431  -30.1440   23.8903 C   0  0  0  0  0  0
  -17.6430  -30.6561   24.0565 C   0  0  0  0  0  0
  -25.9038  -34.9478   23.5121 C   0  0  0  0  0  0
  -16.5331  -29.9062   23.6309 C   0  0  0  0  0  0
  -16.7268  -28.6492   23.0312 C   0  0  0  0  0  0
  -26.4476  -31.6588   25.0691 C   0  0  0  0  0  0
  -25.3741  -31.3698   26.1435 C   0  0  0  0  0  0
  -27.0303  -30.3026   24.6066 C   0  0  0  0  0  0
  -27.6059  -32.4297   25.7450 C   0  0  0  0  0  0
  -27.5575  -37.1807   24.8460 C   0  0  0  0  0  0
  -21.4140  -29.3046   22.3712 N   0  0  0  0  0  0
  -26.4294  -37.3778   23.9400 N   0  0  0  0  0  0
  -24.6665  -31.0801   22.0962 N   0  0  0  0  0  0
  -23.4173  -28.8238   23.3033 O   0  0  0  0  0  0
  -28.3998  -26.7022   20.0743 O   0  0  0  0  0  0
  -26.5585  -34.8943   22.4674 O   0  0  0  0  0  0
  -23.5347  -32.1430   23.7488 O   0  0  0  0  0  0
  -30.3933  -23.1462   22.5476 C   0  0  0  0  0  0
  -29.4939  -22.4450   21.7233 C   0  0  0  0  0  0
  -29.9503  -21.1860   21.2453 C   0  0  0  0  0  0
  -31.9674  -21.5256   22.2950 C   0  0  0  0  0  0
  -33.3569  -21.0031   22.5863 C   0  0  0  0  0  0
  -28.1160  -23.0606   21.4477 C   0  0  0  0  0  0
  -29.1499  -20.1870   20.3965 C   0  0  0  0  0  0
  -28.1044  -24.2423   20.4386 C   0  0  0  0  0  0
  -29.0508  -18.7669   21.0274 C   0  0  0  0  0  0
  -30.2051  -17.8028   20.6376 C   0  0  0  0  0  0
  -30.5338  -16.7049   21.6815 C   0  0  0  0  0  0
  -28.4774  -25.6292   21.0241 C   0  0  0  0  0  0
  -31.6229  -22.6853   22.8354 N   0  0  0  0  0  0
  -31.2029  -20.7780   21.5179 N   0  0  0  0  0  0
  -30.0442  -15.3693   21.3242 N   0  0  0  0  0  0
  -31.4634  -12.4216   19.0916 H   0  0  0  0  0  0
  -30.3407  -11.2881   19.7872 H   0  0  0  0  0  0
  -29.7115  -11.7889   17.4100 H   0  0  0  0  0  0
  -29.6504  -13.4984   17.7668 H   0  0  0  0  0  0
  -27.8121  -11.3133   18.7969 H   0  0  0  0  0  0
  -27.3544  -12.6621   17.7892 H   0  0  0  0  0  0
  -27.7153  -14.2507   19.5991 H   0  0  0  0  0  0
  -28.6833  -11.9003   21.3022 H   0  0  0  0  0  0
  -28.4582  -13.5120   21.8929 H   0  0  0  0  0  0
  -25.2711   -9.5694   22.4755 H   0  0  0  0  0  0
  -23.9939   -7.4648   22.7492 H   0  0  0  0  0  0
  -21.0785   -8.8771   19.8954 H   0  0  0  0  0  0
  -22.3639  -10.9669   19.6170 H   0  0  0  0  0  0
  -21.2029   -7.6133   23.9705 H   0  0  0  0  0  0
  -21.1477   -6.0506   25.9076 H   0  0  0  0  0  0
  -22.0604   -2.7582   23.2840 H   0  0  0  0  0  0
  -22.4037  -11.9927   22.4749 H   0  0  0  0  0  0
  -21.1106  -13.1363   22.2585 H   0  0  0  0  0  0
  -24.6792  -15.8490   20.5454 H   0  0  0  0  0  0
  -26.3000  -15.6254   20.1199 H   0  0  0  0  0  0
  -26.7120  -32.5543   23.1142 H   0  0  0  0  0  0
  -25.0094  -33.9753   25.0478 H   0  0  0  0  0  0
  -22.6906  -31.3061   21.4029 H   0  0  0  0  0  0
  -23.3742  -35.9658   23.3304 H   0  0  0  0  0  0
  -24.3587  -36.8921   22.2048 H   0  0  0  0  0  0
  -23.7262  -37.6530   23.6642 H   0  0  0  0  0  0
  -26.0368  -31.5973   20.5895 H   0  0  0  0  0  0
  -26.8176  -30.8948   21.9762 H   0  0  0  0  0  0
  -28.1031  -29.1100   21.1699 H   0  0  0  0  0  0
  -26.0895  -25.9838   18.9912 H   0  0  0  0  0  0
  -23.9935  -27.2882   19.0238 H   0  0  0  0  0  0
  -23.7194  -30.5849   19.3963 H   0  0  0  0  0  0
  -22.7393  -29.2303   19.8724 H   0  0  0  0  0  0
  -25.1287  -36.1952   25.0819 H   0  0  0  0  0  0
  -20.9952  -28.3251   24.1429 H   0  0  0  0  0  0
  -20.5710  -26.2297   23.3606 H   0  0  0  0  0  0
  -21.6660  -26.7466   22.1213 H   0  0  0  0  0  0
  -19.6942  -25.6253   21.1286 H   0  0  0  0  0  0
  -19.6700  -27.3132   20.6727 H   0  0  0  0  0  0
  -17.4210  -26.6632   21.4030 H   0  0  0  0  0  0
  -18.0339  -26.0054   22.9030 H   0  0  0  0  0  0
  -19.7899  -30.7256   24.2285 H   0  0  0  0  0  0
  -17.4970  -31.6225   24.5186 H   0  0  0  0  0  0
  -15.5327  -30.2959   23.7603 H   0  0  0  0  0  0
  -15.8681  -28.0815   22.6986 H   0  0  0  0  0  0
  -24.5911  -30.7057   25.7752 H   0  0  0  0  0  0
  -24.8949  -32.2871   26.4873 H   0  0  0  0  0  0
  -25.8097  -30.8855   27.0187 H   0  0  0  0  0  0
  -26.2847  -29.6776   24.1147 H   0  0  0  0  0  0
  -27.4097  -29.7266   25.4516 H   0  0  0  0  0  0
  -27.8668  -30.4319   23.9194 H   0  0  0  0  0  0
  -27.2676  -33.3585   26.2054 H   0  0  0  0  0  0
  -28.3856  -32.6873   25.0268 H   0  0  0  0  0  0
  -28.0740  -31.8402   26.5343 H   0  0  0  0  0  0
  -28.2599  -38.0096   24.7500 H   0  0  0  0  0  0
  -28.1071  -36.2636   24.6296 H   0  0  0  0  0  0
  -27.2306  -37.1466   25.8868 H   0  0  0  0  0  0
  -20.9307  -29.8744   21.6907 H   0  0  0  0  0  0
  -26.0190  -38.2862   24.1382 H   0  0  0  0  0  0
  -30.1284  -24.0943   22.9910 H   0  0  0  0  0  0
  -34.0991  -21.5979   22.0567 H   0  0  0  0  0  0
  -33.4624  -19.9666   22.2652 H   0  0  0  0  0  0
  -33.5786  -21.0465   23.6526 H   0  0  0  0  0  0
  -27.6963  -23.4019   22.3960 H   0  0  0  0  0  0
  -27.4179  -22.2974   21.1117 H   0  0  0  0  0  0
  -29.5965  -20.1269   19.4037 H   0  0  0  0  0  0
  -28.1406  -20.5499   20.2270 H   0  0  0  0  0  0
  -27.0857  -24.3152   20.0622 H   0  0  0  0  0  0
  -28.7229  -24.0107   19.5714 H   0  0  0  0  0  0
  -28.1174  -18.3040   20.7060 H   0  0  0  0  0  0
  -28.9636  -18.8686   22.1091 H   0  0  0  0  0  0
  -31.1139  -18.3895   20.5024 H   0  0  0  0  0  0
  -30.0160  -17.3671   19.6560 H   0  0  0  0  0  0
  -30.1340  -16.9716   22.6601 H   0  0  0  0  0  0
  -31.6160  -16.6584   21.8236 H   0  0  0  0  0  0
  -29.5088  -25.6071   21.3759 H   0  0  0  0  0  0
  -27.8662  -25.8431   21.9021 H   0  0  0  0  0  0
  -29.1357  -15.1026   21.6769 H   0  0  0  0  0  0
  1 25  1  0  0  0
  1 30  2  0  0  0
  1 85  1  0  0  0
  2  3  1  0  0  0
  2 25  1  0  0  0
  2 86  1  0  0  0
  2 87  1  0  0  0
  3  4  1  0  0  0
  3 88  1  0  0  0
  3 89  1  0  0  0
  4  5  1  0  0  0
  4 90  1  0  0  0
  4 91  1  0  0  0
  5  6  1  0  0  0
  5 26  1  0  0  0
  5 92  1  0  0  0
  6 25  1  0  0  0
  6 93  1  0  0  0
  6 94  1  0  0  0
  7  8  2  0  0  0
  7 26  1  0  0  0
  7 29  1  0  0  0
  8  9  1  0  0  0
  8 22  1  0  0  0
  9 10  1  0  0  0
  9 27  2  0  0  0
 10 11  2  0  0  0
 10 15  1  0  0  0
 11 12  1  0  0  0
 11 95  1  0  0  0
 12 13  2  0  0  0
 12 96  1  0  0  0
 13 14  1  0  0  0
 13 31  1  0  0  0
 14 15  2  0  0  0
 14 97  1  0  0  0
 15 98  1  0  0  0
 16 17  2  0  0  0
 16 21  1  0  0  0
 16 31  1  0  0  0
 17 18  1  0  0  0
 17 99  1  0  0  0
 18 19  2  0  0  0
 18100  1  0  0  0
 19 20  1  0  0  0
 19 24  1  0  0  0
 20 21  2  0  0  0
 20101  1  0  0  0
 21 23  1  0  0  0
 22 28  1  0  0  0
 22 32  2  0  0  0
 26 27  1  0  0  0
 28102  1  0  0  0
 28103  1  0  0  0
 29104  1  0  0  0
 29105  1  0  0  0
 33 34  1  0  0  0
 33 66  1  0  0  0
 33 70  2  0  0  0
 34 36  1  0  0  0
 34 59  1  0  0  0
 34106  1  0  0  0
 35 44  2  0  0  0
 35 45  1  0  0  0
 35 68  1  0  0  0
 36 56  1  0  0  0
 36107  1  0  0  0
 37 39  1  0  0  0
 37 47  1  0  0  0
 37 66  1  0  0  0
 37108  1  0  0  0
 38 43  2  0  0  0
 38 46  1  0  0  0
 38 47  1  0  0  0
 39 64  1  0  0  0
 39 67  2  0  0  0
 40 52  1  0  0  0
 40 53  2  0  0  0
 40 58  1  0  0  0
 41109  1  0  0  0
 41110  1  0  0  0
 41111  1  0  0  0
 41 48  1  0  0  0
 42 43  1  0  0  0
 42 66  1  0  0  0
 42112  1  0  0  0
 42113  1  0  0  0
 43 44  1  0  0  0
 44114  1  0  0  0
 45 46  2  0  0  0
 45115  1  0  0  0
 46116  1  0  0  0
 47117  1  0  0  0
 47118  1  0  0  0
 48 56  1  0  0  0
 48 65  1  0  0  0
 48119  1  0  0  0
 49 50  1  0  0  0
 49 53  1  0  0  0
 49 64  1  0  0  0
 49120  1  0  0  0
 50 51  1  0  0  0
 50121  1  0  0  0
 50122  1  0  0  0
 51 52  1  0  0  0
 51123  1  0  0  0
 51124  1  0  0  0
 52125  1  0  0  0
 52126  1  0  0  0
 53 54  1  0  0  0
 54 55  2  0  0  0
 54127  1  0  0  0
 55 57  1  0  0  0
 55128  1  0  0  0
 56 69  2  0  0  0
 57 58  2  0  0  0
 57129  1  0  0  0
 58130  1  0  0  0
 59 60  1  0  0  0
 59 61  1  0  0  0
 59 62  1  0  0  0
 60131  1  0  0  0
 60132  1  0  0  0
 60133  1  0  0  0
 61134  1  0  0  0
 61135  1  0  0  0
 61136  1  0  0  0
 62137  1  0  0  0
 62138  1  0  0  0
 62139  1  0  0  0
 63 65  1  0  0  0
 63140  1  0  0  0
 63141  1  0  0  0
 63142  1  0  0  0
 64143  1  0  0  0
 65144  1  0  0  0
 68 82  1  0  0  0
 71 72  2  0  0  0
 71 83  1  0  0  0
 71145  1  0  0  0
 72 73  1  0  0  0
 72 76  1  0  0  0
 73 77  1  0  0  0
 73 84  2  0  0  0
 74 75  1  0  0  0
 74 83  2  0  0  0
 74 84  1  0  0  0
 75146  1  0  0  0
 75147  1  0  0  0
 75148  1  0  0  0
 76 78  1  0  0  0
 76149  1  0  0  0
 76150  1  0  0  0
 77 79  1  0  0  0
 77151  1  0  0  0
 77152  1  0  0  0
 78 82  1  0  0  0
 78153  1  0  0  0
 78154  1  0  0  0
 79 80  1  0  0  0
 79155  1  0  0  0
 79156  1  0  0  0
 80 81  1  0  0  0
 80157  1  0  0  0
 80158  1  0  0  0
 81 85  1  0  0  0
 81159  1  0  0  0
 81160  1  0  0  0
 82161  1  0  0  0
 82162  1  0  0  0
 85163  1  0  0  0
M  ISO  4   1 100  68 101  82 101  85 100
M  END
> <chiral flag>
0

> <version>
0

> <s_m_source_file>
/data/baiqing/PycharmProjects/Reinvent-master-3.2/result/LINK_invent/BTK/process_docking_weight1_custom_sum_contain_oxygen_bond_distance_aromatic_linkinvent_7_9_3/rearranged_h_0041.sdf

> <i_m_source_file_index>
32

> <r_mmod_Potential_Energy-OPLS-2005>
-428.094268798828

> <r_mmod_Stretch_Energy-OPLS-2005>
36.6446571350098

> <r_mmod_Bend_Energy-OPLS-2005>
104.543182373047

> <r_mmod_Torsional_Energy-OPLS-2005>
239.588912963867

> <r_mmod_Improper_Torsional_Energy-OPLS-2005>
2.22499895095825

> <r_mmod_Van_der_Waal_Energy-OPLS-2005>
158.308731079102

> <r_mmod_Electrostatic_Energy-OPLS-2005>
-748.547668457031

> <r_mmod_Solvation_Energy-OPLS-2005>
-230.327056884766

> <b_mmod_Minimization_Converged-OPLS-2005>
0

> <r_mmod_RMS_Derivative-OPLS-2005>
2.183274269104

$$$$
32
                    3D
 Structure written by MMmdl.
156164  0  0  1  0            999 V2000
  -30.6608  -14.5394   20.5557 C   0  0  0  0  0  0
  -30.4337  -12.3440   19.4320 C   0  0  0  0  0  0
  -29.5024  -12.5084   18.2127 C   0  0  0  0  0  0
  -28.0236  -12.3592   18.6228 C   0  0  0  0  0  0
  -27.6610  -13.2076   19.8718 C   0  0  2  0  0  0
  -28.7035  -13.0068   20.9950 C   0  0  0  0  0  0
  -25.2594  -13.8160   20.5669 C   0  0  0  0  0  0
  -24.1849  -13.0436   20.9173 C   0  0  0  0  0  0
  -24.6406  -11.6902   20.8727 C   0  0  0  0  0  0
  -23.9067  -10.4289   21.0389 C   0  0  0  0  0  0
  -24.3616   -9.4207   21.9170 C   0  0  0  0  0  0
  -23.6295   -8.2241   22.0753 C   0  0  0  0  0  0
  -22.4274   -8.0274   21.3547 C   0  0  0  0  0  0
  -21.9904   -9.0249   20.4645 C   0  0  0  0  0  0
  -22.7235  -10.2128   20.3045 C   0  0  0  0  0  0
  -21.6854   -6.0729   22.5286 C   0  0  0  0  0  0
  -21.4015   -6.5637   23.8217 C   0  0  0  0  0  0
  -21.3655   -5.6790   24.9182 C   0  0  0  0  0  0
  -21.6043   -4.3055   24.7227 C   0  0  0  0  0  0
  -21.8819   -3.8143   23.4352 C   0  0  0  0  0  0
  -21.9196   -4.6960   22.3407 C   0  0  0  0  0  0
  -22.7869  -13.5233   21.1844 C   0  0  0  0  0  0
  -22.1659   -4.2145   21.0984 F   0  0  0  0  0  0
  -21.5631   -3.4536   25.7739 F   0  0  0  0  0  0
  -30.0281  -13.3363   20.4423 N   0  0  0  0  0  0
  -26.3027  -12.9325   20.3344 N   0  0  0  0  0  0
  -25.9336  -11.6487   20.5757 N   0  0  0  0  0  0
  -22.0508  -12.8225   22.0397 N   0  0  0  0  0  0
  -25.4325  -15.1878   20.4073 N   0  0  0  0  0  0
  -31.7925  -14.7413   20.1059 O   0  0  0  0  0  0
  -21.6650   -6.8867   21.4240 O   0  0  0  0  0  0
  -22.3546  -14.5535   20.6699 O   0  0  0  0  0  0
  -24.6187  -31.8642   23.2056 C   0  0  0  0  0  0
  -25.9071  -32.4800   23.8353 C   0  0  1  0  0  0
  -27.2361  -27.4005   20.1168 C   0  0  0  0  0  0
  -25.5916  -33.8600   24.2285 N   0  0  0  0  0  0
  -23.4082  -30.4872   21.5452 C   0  0  2  0  0  0
  -24.8566  -28.9413   20.1167 C   0  0  0  0  0  0
  -22.7432  -29.4661   22.4961 C   0  0  0  0  0  0
  -18.0285  -28.1385   22.8526 C   0  0  0  0  0  0
  -24.1484  -36.7309   23.2639 C   0  0  0  0  0  0
  -25.9385  -30.8215   21.3613 C   0  0  0  0  0  0
  -26.0174  -29.4511   20.7131 C   0  0  0  0  0  0
  -27.2123  -28.6905   20.7040 C   0  0  0  0  0  0
  -26.0592  -26.9074   19.5177 C   0  0  0  0  0  0
  -24.8740  -27.6701   19.5144 C   0  0  0  0  0  0
  -23.6213  -29.8138   20.1622 C   0  0  0  0  0  0
  -25.4103  -36.3095   24.0339 C   0  0  1  0  0  0
  -20.5882  -28.3685   23.1318 C   0  0  2  0  0  0
  -20.6779  -26.9417   22.5424 C   0  0  0  0  0  0
  -19.5745  -26.6392   21.5241 C   0  0  0  0  0  0
  -18.1925  -26.7939   22.1652 C   0  0  0  0  0  0
  -19.1541  -28.8854   23.2922 C   0  0  0  0  0  0
  -18.9464  -30.1468   23.8916 C   0  0  0  0  0  0
  -17.6464  -30.6592   24.0591 C   0  0  0  0  0  0
  -25.9038  -34.9472   23.5108 C   0  0  0  0  0  0
  -16.5360  -29.9097   23.6331 C   0  0  0  0  0  0
  -16.7276  -28.6518   23.0348 C   0  0  0  0  0  0
  -26.4475  -31.6595   25.0707 C   0  0  0  0  0  0
  -25.3740  -31.3732   26.1460 C   0  0  0  0  0  0
  -27.0301  -30.3030   24.6106 C   0  0  0  0  0  0
  -27.6025  -32.4334   25.7483 C   0  0  0  0  0  0
  -27.5570  -37.1804   24.8474 C   0  0  0  0  0  0
  -21.4152  -29.3049   22.3716 N   0  0  0  0  0  0
  -26.4278  -37.3789   23.9421 N   0  0  0  0  0  0
  -24.6733  -31.0725   22.0962 N   0  0  0  0  0  0
  -23.4191  -28.8211   23.3020 O   0  0  0  0  0  0
  -28.3936  -26.6458   20.0830 O   0  0  0  0  0  0
  -26.5602  -34.8944   22.4672 O   0  0  0  0  0  0
  -23.5375  -32.1399   23.7448 O   0  0  0  0  0  0
  -28.4510  -20.0116   19.0419 C   0  0  0  0  0  0
  -29.2111  -19.3112   20.0240 C   0  0  0  0  0  0
  -29.5791  -20.3307   20.8838 C   0  0  0  0  0  0
  -30.4022  -20.2935   22.1319 C   0  0  0  0  0  0
  -29.4147  -17.7794   19.9573 C   0  0  0  0  0  0
  -28.5462  -24.0904   20.1314 C   0  0  0  0  0  0
  -28.9799  -22.8790   21.0373 C   0  0  0  0  0  0
  -30.1596  -17.0105   21.0942 C   0  0  0  0  0  0
  -28.4236  -25.4490   20.8984 C   0  0  0  0  0  0
  -28.3192  -21.3071   19.2830 N   0  0  0  0  0  0
  -29.0070  -21.5280   20.4208 N   0  0  0  0  0  0
  -29.9020  -15.5464   21.0498 N   0  0  0  0  0  0
  -31.4756  -12.4614   19.1296 H   0  0  0  0  0  0
  -30.3556  -11.3362   19.8418 H   0  0  0  0  0  0
  -29.7547  -11.7733   17.4475 H   0  0  0  0  0  0
  -29.6624  -13.4869   17.7577 H   0  0  0  0  0  0
  -27.8433  -11.3031   18.8271 H   0  0  0  0  0  0
  -27.3724  -12.6185   17.7866 H   0  0  0  0  0  0
  -27.6984  -14.2528   19.5625 H   0  0  0  0  0  0
  -28.6973  -11.9725   21.3413 H   0  0  0  0  0  0
  -28.4559  -13.6069   21.8720 H   0  0  0  0  0  0
  -25.2757   -9.5689   22.4745 H   0  0  0  0  0  0
  -24.0009   -7.4632   22.7475 H   0  0  0  0  0  0
  -21.0832   -8.8758   19.8950 H   0  0  0  0  0  0
  -22.3684  -10.9663   19.6151 H   0  0  0  0  0  0
  -21.2004   -7.6145   23.9715 H   0  0  0  0  0  0
  -21.1477   -6.0526   25.9086 H   0  0  0  0  0  0
  -22.0602   -2.7604   23.2860 H   0  0  0  0  0  0
  -22.4135  -11.9887   22.4778 H   0  0  0  0  0  0
  -21.1123  -13.1246   22.2600 H   0  0  0  0  0  0
  -24.6683  -15.8450   20.5175 H   0  0  0  0  0  0
  -26.2848  -15.6240   20.0792 H   0  0  0  0  0  0
  -26.7143  -32.5485   23.1108 H   0  0  0  0  0  0
  -25.0103  -33.9763   25.0455 H   0  0  0  0  0  0
  -22.7000  -31.3057   21.3997 H   0  0  0  0  0  0
  -23.3740  -35.9648   23.3318 H   0  0  0  0  0  0
  -24.3565  -36.8904   22.2048 H   0  0  0  0  0  0
  -23.7251  -37.6524   23.6645 H   0  0  0  0  0  0
  -26.0502  -31.5846   20.5903 H   0  0  0  0  0  0
  -26.8277  -30.8770   21.9772 H   0  0  0  0  0  0
  -28.1112  -29.0850   21.1573 H   0  0  0  0  0  0
  -26.0613  -25.9326   19.0498 H   0  0  0  0  0  0
  -23.9805  -27.2710   19.0519 H   0  0  0  0  0  0
  -23.7375  -30.5864   19.4014 H   0  0  0  0  0  0
  -22.7445  -29.2373   19.8609 H   0  0  0  0  0  0
  -25.1274  -36.1935   25.0830 H   0  0  0  0  0  0
  -20.9989  -28.3252   24.1431 H   0  0  0  0  0  0
  -20.5719  -26.2288   23.3617 H   0  0  0  0  0  0
  -21.6638  -26.7466   22.1189 H   0  0  0  0  0  0
  -19.6908  -25.6309   21.1251 H   0  0  0  0  0  0
  -19.6672  -27.3231   20.6803 H   0  0  0  0  0  0
  -17.4200  -26.6741   21.4042 H   0  0  0  0  0  0
  -18.0289  -26.0064   22.9028 H   0  0  0  0  0  0
  -19.7943  -30.7304   24.2253 H   0  0  0  0  0  0
  -17.5020  -31.6265   24.5202 H   0  0  0  0  0  0
  -15.5363  -30.3011   23.7631 H   0  0  0  0  0  0
  -15.8686  -28.0857   22.7008 H   0  0  0  0  0  0
  -24.5910  -30.7077   25.7820 H   0  0  0  0  0  0
  -24.8954  -32.2914   26.4889 H   0  0  0  0  0  0
  -25.8100  -30.8922   27.0228 H   0  0  0  0  0  0
  -26.2854  -29.6803   24.1144 H   0  0  0  0  0  0
  -27.4043  -29.7251   25.4563 H   0  0  0  0  0  0
  -27.8700  -30.4323   23.9272 H   0  0  0  0  0  0
  -27.2596  -33.3621   26.2057 H   0  0  0  0  0  0
  -28.3831  -32.6926   25.0319 H   0  0  0  0  0  0
  -28.0701  -31.8479   26.5405 H   0  0  0  0  0  0
  -28.2596  -38.0089   24.7484 H   0  0  0  0  0  0
  -28.1040  -36.2620   24.6313 H   0  0  0  0  0  0
  -27.2295  -37.1474   25.8879 H   0  0  0  0  0  0
  -20.9323  -29.8749   21.6920 H   0  0  0  0  0  0
  -26.0164  -38.2869   24.1405 H   0  0  0  0  0  0
  -27.9621  -19.6037   18.1680 H   0  0  0  0  0  0
  -31.0840  -19.4454   22.1341 H   0  0  0  0  0  0
  -29.7704  -20.2283   23.0182 H   0  0  0  0  0  0
  -31.0217  -21.1846   22.2229 H   0  0  0  0  0  0
  -29.9143  -17.5258   19.0215 H   0  0  0  0  0  0
  -28.4289  -17.3236   19.8606 H   0  0  0  0  0  0
  -27.5881  -23.8788   19.6554 H   0  0  0  0  0  0
  -29.2711  -24.1973   19.3246 H   0  0  0  0  0  0
  -28.3171  -22.8218   21.9017 H   0  0  0  0  0  0
  -29.9724  -23.0858   21.4371 H   0  0  0  0  0  0
  -29.7974  -17.3594   22.0613 H   0  0  0  0  0  0
  -31.2308  -17.2184   21.0694 H   0  0  0  0  0  0
  -27.5680  -25.4089   21.5752 H   0  0  0  0  0  0
  -29.2939  -25.5580   21.5468 H   0  0  0  0  0  0
  -29.0002  -15.2560   21.3977 H   0  0  0  0  0  0
  1 25  1  0  0  0
  1 30  2  0  0  0
  1 82  1  0  0  0
  2  3  1  0  0  0
  2 25  1  0  0  0
  2 83  1  0  0  0
  2 84  1  0  0  0
  3  4  1  0  0  0
  3 85  1  0  0  0
  3 86  1  0  0  0
  4  5  1  0  0  0
  4 87  1  0  0  0
  4 88  1  0  0  0
  5  6  1  0  0  0
  5 26  1  0  0  0
  5 89  1  0  0  0
  6 25  1  0  0  0
  6 90  1  0  0  0
  6 91  1  0  0  0
  7  8  2  0  0  0
  7 26  1  0  0  0
  7 29  1  0  0  0
  8  9  1  0  0  0
  8 22  1  0  0  0
  9 10  1  0  0  0
  9 27  2  0  0  0
 10 11  2  0  0  0
 10 15  1  0  0  0
 11 12  1  0  0  0
 11 92  1  0  0  0
 12 13  2  0  0  0
 12 93  1  0  0  0
 13 14  1  0  0  0
 13 31  1  0  0  0
 14 15  2  0  0  0
 14 94  1  0  0  0
 15 95  1  0  0  0
 16 17  2  0  0  0
 16 21  1  0  0  0
 16 31  1  0  0  0
 17 18  1  0  0  0
 17 96  1  0  0  0
 18 19  2  0  0  0
 18 97  1  0  0  0
 19 20  1  0  0  0
 19 24  1  0  0  0
 20 21  2  0  0  0
 20 98  1  0  0  0
 21 23  1  0  0  0
 22 28  1  0  0  0
 22 32  2  0  0  0
 26 27  1  0  0  0
 28 99  1  0  0  0
 28100  1  0  0  0
 29101  1  0  0  0
 29102  1  0  0  0
 33 34  1  0  0  0
 33 66  1  0  0  0
 33 70  2  0  0  0
 34 36  1  0  0  0
 34 59  1  0  0  0
 34103  1  0  0  0
 35 44  2  0  0  0
 35 45  1  0  0  0
 35 68  1  0  0  0
 36 56  1  0  0  0
 36104  1  0  0  0
 37 39  1  0  0  0
 37 47  1  0  0  0
 37 66  1  0  0  0
 37105  1  0  0  0
 38 43  2  0  0  0
 38 46  1  0  0  0
 38 47  1  0  0  0
 39 64  1  0  0  0
 39 67  2  0  0  0
 40 52  1  0  0  0
 40 53  2  0  0  0
 40 58  1  0  0  0
 41106  1  0  0  0
 41107  1  0  0  0
 41108  1  0  0  0
 41 48  1  0  0  0
 42 43  1  0  0  0
 42 66  1  0  0  0
 42109  1  0  0  0
 42110  1  0  0  0
 43 44  1  0  0  0
 44111  1  0  0  0
 45 46  2  0  0  0
 45112  1  0  0  0
 46113  1  0  0  0
 47114  1  0  0  0
 47115  1  0  0  0
 48 56  1  0  0  0
 48 65  1  0  0  0
 48116  1  0  0  0
 49 50  1  0  0  0
 49 53  1  0  0  0
 49 64  1  0  0  0
 49117  1  0  0  0
 50 51  1  0  0  0
 50118  1  0  0  0
 50119  1  0  0  0
 51 52  1  0  0  0
 51120  1  0  0  0
 51121  1  0  0  0
 52122  1  0  0  0
 52123  1  0  0  0
 53 54  1  0  0  0
 54 55  2  0  0  0
 54124  1  0  0  0
 55 57  1  0  0  0
 55125  1  0  0  0
 56 69  2  0  0  0
 57 58  2  0  0  0
 57126  1  0  0  0
 58127  1  0  0  0
 59 60  1  0  0  0
 59 61  1  0  0  0
 59 62  1  0  0  0
 60128  1  0  0  0
 60129  1  0  0  0
 60130  1  0  0  0
 61131  1  0  0  0
 61132  1  0  0  0
 61133  1  0  0  0
 62134  1  0  0  0
 62135  1  0  0  0
 62136  1  0  0  0
 63 65  1  0  0  0
 63137  1  0  0  0
 63138  1  0  0  0
 63139  1  0  0  0
 64140  1  0  0  0
 65141  1  0  0  0
 68 79  1  0  0  0
 71 72  1  0  0  0
 71 80  2  0  0  0
 71142  1  0  0  0
 72 73  2  0  0  0
 72 75  1  0  0  0
 73 74  1  0  0  0
 73 81  1  0  0  0
 74143  1  0  0  0
 74144  1  0  0  0
 74145  1  0  0  0
 75 78  1  0  0  0
 75146  1  0  0  0
 75147  1  0  0  0
 76 77  1  0  0  0
 76 79  1  0  0  0
 76148  1  0  0  0
 76149  1  0  0  0
 77 81  1  0  0  0
 77150  1  0  0  0
 77151  1  0  0  0
 78 82  1  0  0  0
 78152  1  0  0  0
 78153  1  0  0  0
 79154  1  0  0  0
 79155  1  0  0  0
 80 81  1  0  0  0
 82156  1  0  0  0
M  ISO  4   1 100  68 101  79 101  82 100
M  END
> <chiral flag>
0

> <version>
0

> <s_m_source_file>
/data/baiqing/PycharmProjects/Reinvent-master-3.2/result/LINK_invent/BTK/process_docking_weight1_custom_sum_contain_oxygen_bond_distance_aromatic_linkinvent_7_9_3/rearranged_h_0041.sdf

> <i_m_source_file_index>
33

> <r_mmod_Potential_Energy-OPLS-2005>
-105.687507629395

> <r_mmod_Stretch_Energy-OPLS-2005>
47.5119247436523

> <r_mmod_Bend_Energy-OPLS-2005>
117.21541595459

> <r_mmod_Torsional_Energy-OPLS-2005>
227.693725585938

> <r_mmod_Improper_Torsional_Energy-OPLS-2005>
3.83946537971497

> <r_mmod_Van_der_Waal_Energy-OPLS-2005>
117.424377441406

> <r_mmod_Electrostatic_Energy-OPLS-2005>
-413.551635742188

> <r_mmod_Solvation_Energy-OPLS-2005>
-225.542053222656

> <b_mmod_Minimization_Converged-OPLS-2005>
0

> <r_mmod_RMS_Derivative-OPLS-2005>
1.91675341129303

$$$$
33
                    3D
 Structure written by MMmdl.
190200  0  0  1  0            999 V2000
  -30.7146  -14.4483   20.6105 C   0  0  0  0  0  0
  -30.4260  -12.3034   19.4122 C   0  0  0  0  0  0
  -29.4917  -12.5010   18.2012 C   0  0  0  0  0  0
  -28.0147  -12.3580   18.6187 C   0  0  0  0  0  0
  -27.6639  -13.2017   19.8726 C   0  0  2  0  0  0
  -28.7059  -12.9819   20.9914 C   0  0  0  0  0  0
  -25.2613  -13.8144   20.5669 C   0  0  0  0  0  0
  -24.1861  -13.0442   20.9182 C   0  0  0  0  0  0
  -24.6401  -11.6901   20.8746 C   0  0  0  0  0  0
  -23.9060  -10.4291   21.0413 C   0  0  0  0  0  0
  -24.3611   -9.4204   21.9193 C   0  0  0  0  0  0
  -23.6286   -8.2242   22.0758 C   0  0  0  0  0  0
  -22.4275   -8.0282   21.3541 C   0  0  0  0  0  0
  -21.9905   -9.0259   20.4652 C   0  0  0  0  0  0
  -22.7231  -10.2138   20.3061 C   0  0  0  0  0  0
  -21.6851   -6.0734   22.5278 C   0  0  0  0  0  0
  -21.4016   -6.5639   23.8211 C   0  0  0  0  0  0
  -21.3657   -5.6793   24.9176 C   0  0  0  0  0  0
  -21.6039   -4.3053   24.7228 C   0  0  0  0  0  0
  -21.8821   -3.8147   23.4348 C   0  0  0  0  0  0
  -21.9194   -4.6963   22.3403 C   0  0  0  0  0  0
  -22.7883  -13.5254   21.1843 C   0  0  0  0  0  0
  -22.1662   -4.2148   21.0979 F   0  0  0  0  0  0
  -21.5626   -3.4537   25.7740 F   0  0  0  0  0  0
  -30.0390  -13.2793   20.4422 N   0  0  0  0  0  0
  -26.3045  -12.9307   20.3362 N   0  0  0  0  0  0
  -25.9326  -11.6472   20.5768 N   0  0  0  0  0  0
  -22.0511  -12.8252   22.0393 N   0  0  0  0  0  0
  -25.4347  -15.1851   20.4037 N   0  0  0  0  0  0
  -31.8094  -14.6512   20.0772 O   0  0  0  0  0  0
  -21.6636   -6.8880   21.4238 O   0  0  0  0  0  0
  -22.3574  -14.5559   20.6685 O   0  0  0  0  0  0
  -24.6154  -31.8697   23.2105 C   0  0  0  0  0  0
  -25.9047  -32.4828   23.8404 C   0  0  1  0  0  0
  -27.2431  -27.4311   20.1127 C   0  0  0  0  0  0
  -25.5905  -33.8626   24.2330 N   0  0  0  0  0  0
  -23.4038  -30.4908   21.5510 C   0  0  2  0  0  0
  -24.8557  -28.9508   20.1246 C   0  0  0  0  0  0
  -22.7413  -29.4664   22.5000 C   0  0  0  0  0  0
  -18.0279  -28.1373   22.8489 C   0  0  0  0  0  0
  -24.1491  -36.7305   23.2634 C   0  0  0  0  0  0
  -25.9315  -30.8299   21.3680 C   0  0  0  0  0  0
  -26.0136  -29.4583   20.7307 C   0  0  0  0  0  0
  -27.2109  -28.7031   20.7347 C   0  0  0  0  0  0
  -26.0751  -26.9459   19.4937 C   0  0  0  0  0  0
  -24.8806  -27.6893   19.5062 C   0  0  0  0  0  0
  -23.6173  -29.8188   20.1682 C   0  0  0  0  0  0
  -25.4111  -36.3111   24.0333 C   0  0  1  0  0  0
  -20.5866  -28.3675   23.1304 C   0  0  2  0  0  0
  -20.6774  -26.9416   22.5401 C   0  0  0  0  0  0
  -19.5755  -26.6385   21.5206 C   0  0  0  0  0  0
  -18.1923  -26.7918   22.1611 C   0  0  0  0  0  0
  -19.1529  -28.8834   23.2896 C   0  0  0  0  0  0
  -18.9461  -30.1437   23.8914 C   0  0  0  0  0  0
  -17.6464  -30.6586   24.0558 C   0  0  0  0  0  0
  -25.9030  -34.9476   23.5121 C   0  0  0  0  0  0
  -16.5353  -29.9088   23.6322 C   0  0  0  0  0  0
  -16.7267  -28.6501   23.0345 C   0  0  0  0  0  0
  -26.4483  -31.6589   25.0726 C   0  0  0  0  0  0
  -25.3747  -31.3695   26.1472 C   0  0  0  0  0  0
  -27.0289  -30.3019   24.6086 C   0  0  0  0  0  0
  -27.6081  -32.4282   25.7478 C   0  0  0  0  0  0
  -27.5593  -37.1800   24.8468 C   0  0  0  0  0  0
  -21.4146  -29.3042   22.3716 N   0  0  0  0  0  0
  -26.4301  -37.3794   23.9417 N   0  0  0  0  0  0
  -24.6682  -31.0777   22.1028 N   0  0  0  0  0  0
  -23.4180  -28.8217   23.3055 O   0  0  0  0  0  0
  -28.3663  -26.6385   19.9976 O   0  0  0  0  0  0
  -26.5594  -34.8924   22.4686 O   0  0  0  0  0  0
  -23.5342  -32.1481   23.7482 O   0  0  0  0  0  0
  -28.0520  -19.6624   20.4766 C   0  0  0  0  0  0
  -27.1165  -23.5891   21.2126 C   0  0  0  0  0  0
  -29.0421  -20.6053   20.8358 C   0  0  0  0  0  0
  -27.2548  -22.2407   20.9205 C   0  0  0  0  0  0
  -28.6003  -21.9369   21.0785 C   0  0  0  0  0  0
  -26.7073  -20.0755   20.3605 C   0  0  0  0  0  0
  -26.2927  -17.2545   26.1155 C   0  0  0  0  0  0
  -27.4259  -17.0886   27.1408 C   0  0  0  0  0  0
  -26.7049  -17.7764   24.7284 C   0  0  0  0  0  0
  -28.5053  -18.1798   27.0894 C   0  0  0  0  0  0
  -28.0201  -17.1998   24.1762 C   0  0  0  0  0  0
  -29.6288  -17.8551   26.0904 C   0  0  0  0  0  0
  -29.2715  -18.0123   24.5961 C   0  0  0  0  0  0
  -25.5226  -19.0303   18.3945 C   0  0  0  0  0  0
  -30.5046  -20.1692   20.8607 C   0  0  0  0  0  0
  -25.6427  -19.0916   19.9205 C   0  0  0  0  0  0
  -30.0694  -15.5998   21.4152 C   0  0  0  0  0  0
  -30.5005  -17.6146   23.7502 C   0  0  0  0  0  0
  -28.7170  -25.3548   22.1218 C   0  0  0  0  0  0
  -30.9626  -19.3651   22.1043 C   0  0  0  0  0  0
  -30.8784  -16.9415   21.3951 C   0  0  0  0  0  0
  -29.2174  -26.4307   21.1263 C   0  0  0  0  0  0
  -26.3035  -21.3506   20.5648 N   0  0  0  0  0  0
  -29.3248  -23.0176   21.4633 N   0  0  0  0  0  0
  -28.3821  -24.0414   21.5636 N   0  0  0  0  0  0
  -30.3605  -18.0058   22.3185 N   0  3  1  0  0  0
  -31.4682  -12.4068   19.1046 H   0  0  0  0  0  0
  -30.3342  -11.2899   19.8060 H   0  0  0  0  0  0
  -29.7296  -11.7740   17.4233 H   0  0  0  0  0  0
  -29.6574  -13.4858   17.7626 H   0  0  0  0  0  0
  -27.8305  -11.3018   18.8212 H   0  0  0  0  0  0
  -27.3606  -12.6248   17.7885 H   0  0  0  0  0  0
  -27.7103  -14.2487   19.5739 H   0  0  0  0  0  0
  -28.6775  -11.9471   21.3354 H   0  0  0  0  0  0
  -28.4616  -13.5827   21.8668 H   0  0  0  0  0  0
  -25.2757   -9.5679   22.4765 H   0  0  0  0  0  0
  -23.9996   -7.4630   22.7472 H   0  0  0  0  0  0
  -21.0837   -8.8782   19.8952 H   0  0  0  0  0  0
  -22.3696  -10.9683   19.6173 H   0  0  0  0  0  0
  -21.2010   -7.6148   23.9716 H   0  0  0  0  0  0
  -21.1472   -6.0522   25.9078 H   0  0  0  0  0  0
  -22.0603   -2.7610   23.2850 H   0  0  0  0  0  0
  -22.4098  -11.9903   22.4787 H   0  0  0  0  0  0
  -21.1128  -13.1287   22.2587 H   0  0  0  0  0  0
  -24.6598  -15.8333   20.4863 H   0  0  0  0  0  0
  -26.2771  -15.6101   20.0404 H   0  0  0  0  0  0
  -26.7139  -32.5547   23.1190 H   0  0  0  0  0  0
  -25.0117  -33.9801   25.0516 H   0  0  0  0  0  0
  -22.6918  -31.3067   21.4094 H   0  0  0  0  0  0
  -23.3760  -35.9628   23.3280 H   0  0  0  0  0  0
  -24.3610  -36.8937   22.2060 H   0  0  0  0  0  0
  -23.7217  -37.6490   23.6656 H   0  0  0  0  0  0
  -26.0386  -31.5879   20.5901 H   0  0  0  0  0  0
  -26.8212  -30.8939   21.9829 H   0  0  0  0  0  0
  -28.1017  -29.1130   21.1877 H   0  0  0  0  0  0
  -26.0930  -25.9838   19.0003 H   0  0  0  0  0  0
  -23.9951  -27.2916   19.0301 H   0  0  0  0  0  0
  -23.7291  -30.5927   19.4080 H   0  0  0  0  0  0
  -22.7431  -29.2371   19.8700 H   0  0  0  0  0  0
  -25.1281  -36.1986   25.0822 H   0  0  0  0  0  0
  -20.9949  -28.3248   24.1429 H   0  0  0  0  0  0
  -20.5684  -26.2291   23.3593 H   0  0  0  0  0  0
  -21.6654  -26.7482   22.1192 H   0  0  0  0  0  0
  -19.6929  -25.6301   21.1232 H   0  0  0  0  0  0
  -19.6676  -27.3197   20.6736 H   0  0  0  0  0  0
  -17.4198  -26.6669   21.4014 H   0  0  0  0  0  0
  -18.0340  -26.0048   22.9000 H   0  0  0  0  0  0
  -19.7941  -30.7245   24.2288 H   0  0  0  0  0  0
  -17.5025  -31.6266   24.5173 H   0  0  0  0  0  0
  -15.5351  -30.2995   23.7637 H   0  0  0  0  0  0
  -15.8668  -28.0823   22.7051 H   0  0  0  0  0  0
  -24.5969  -30.6974   25.7827 H   0  0  0  0  0  0
  -24.8884  -32.2848   26.4864 H   0  0  0  0  0  0
  -25.8129  -30.8941   27.0259 H   0  0  0  0  0  0
  -26.2819  -29.6776   24.1178 H   0  0  0  0  0  0
  -27.4099  -29.7260   25.4527 H   0  0  0  0  0  0
  -27.8637  -30.4313   23.9190 H   0  0  0  0  0  0
  -27.2755  -33.3630   26.2002 H   0  0  0  0  0  0
  -28.3931  -32.6743   25.0309 H   0  0  0  0  0  0
  -28.0681  -31.8406   26.5438 H   0  0  0  0  0  0
  -28.2595  -38.0114   24.7556 H   0  0  0  0  0  0
  -28.1099  -36.2652   24.6239 H   0  0  0  0  0  0
  -27.2321  -37.1386   25.8870 H   0  0  0  0  0  0
  -20.9323  -29.8736   21.6911 H   0  0  0  0  0  0
  -26.0187  -38.2867   24.1430 H   0  0  0  0  0  0
  -28.3137  -18.6420   20.2377 H   0  0  0  0  0  0
  -26.2662  -24.2546   21.2453 H   0  0  0  0  0  0
  -25.5398  -17.9312   26.5223 H   0  0  0  0  0  0
  -25.7884  -16.2930   26.0044 H   0  0  0  0  0  0
  -27.8900  -16.1085   27.0208 H   0  0  0  0  0  0
  -26.9813  -17.0709   28.1370 H   0  0  0  0  0  0
  -26.7604  -18.8658   24.7450 H   0  0  0  0  0  0
  -25.8963  -17.5449   24.0332 H   0  0  0  0  0  0
  -28.9573  -18.2503   28.0797 H   0  0  0  0  0  0
  -28.0698  -19.1602   26.8929 H   0  0  0  0  0  0
  -27.9321  -17.2130   23.0896 H   0  0  0  0  0  0
  -28.1249  -16.1471   24.4448 H   0  0  0  0  0  0
  -29.9992  -16.8465   26.2813 H   0  0  0  0  0  0
  -30.4692  -18.5156   26.3119 H   0  0  0  0  0  0
  -29.0709  -19.0709   24.4216 H   0  0  0  0  0  0
  -24.7586  -18.3132   18.0955 H   0  0  0  0  0  0
  -26.4656  -18.7231   17.9416 H   0  0  0  0  0  0
  -25.2536  -20.0030   17.9818 H   0  0  0  0  0  0
  -31.1185  -21.0676   20.7907 H   0  0  0  0  0  0
  -30.7181  -19.6119   19.9487 H   0  0  0  0  0  0
  -24.6825  -19.3711   20.3560 H   0  0  0  0  0  0
  -25.8816  -18.1052   20.3188 H   0  0  0  0  0  0
  -29.0696  -15.7811   21.0211 H   0  0  0  0  0  0
  -29.9397  -15.2203   22.4260 H   0  0  0  0  0  0
  -30.6755  -16.5481   23.8765 H   0  0  0  0  0  0
  -31.4076  -18.0661   24.1569 H   0  0  0  0  0  0
  -27.8275  -25.7347   22.6275 H   0  0  0  0  0  0
  -29.4616  -25.2137   22.9061 H   0  0  0  0  0  0
  -30.7607  -19.9935   22.9736 H   0  0  0  0  0  0
  -32.0478  -19.2552   22.0714 H   0  0  0  0  0  0
  -30.8776  -17.3196   20.3725 H   0  0  0  0  0  0
  -31.9251  -16.7534   21.6422 H   0  0  0  0  0  0
  -30.1879  -26.1158   20.7427 H   0  0  0  0  0  0
  -29.4060  -27.3613   21.6595 H   0  0  0  0  0  0
  -29.3697  -18.0958   22.1500 H   0  0  0  0  0  0
  1 25  1  0  0  0
  1 30  2  0  0  0
  1 87  1  0  0  0
  2  3  1  0  0  0
  2 25  1  0  0  0
  2 97  1  0  0  0
  2 98  1  0  0  0
  3  4  1  0  0  0
  3 99  1  0  0  0
  3100  1  0  0  0
  4  5  1  0  0  0
  4101  1  0  0  0
  4102  1  0  0  0
  5  6  1  0  0  0
  5 26  1  0  0  0
  5103  1  0  0  0
  6 25  1  0  0  0
  6104  1  0  0  0
  6105  1  0  0  0
  7  8  2  0  0  0
  7 26  1  0  0  0
  7 29  1  0  0  0
  8  9  1  0  0  0
  8 22  1  0  0  0
  9 10  1  0  0  0
  9 27  2  0  0  0
 10 11  2  0  0  0
 10 15  1  0  0  0
 11 12  1  0  0  0
 11106  1  0  0  0
 12 13  2  0  0  0
 12107  1  0  0  0
 13 14  1  0  0  0
 13 31  1  0  0  0
 14 15  2  0  0  0
 14108  1  0  0  0
 15109  1  0  0  0
 16 17  2  0  0  0
 16 21  1  0  0  0
 16 31  1  0  0  0
 17 18  1  0  0  0
 17110  1  0  0  0
 18 19  2  0  0  0
 18111  1  0  0  0
 19 20  1  0  0  0
 19 24  1  0  0  0
 20 21  2  0  0  0
 20112  1  0  0  0
 21 23  1  0  0  0
 22 28  1  0  0  0
 22 32  2  0  0  0
 26 27  1  0  0  0
 28113  1  0  0  0
 28114  1  0  0  0
 29115  1  0  0  0
 29116  1  0  0  0
 33 34  1  0  0  0
 33 66  1  0  0  0
 33 70  2  0  0  0
 34 36  1  0  0  0
 34 59  1  0  0  0
 34117  1  0  0  0
 35 44  2  0  0  0
 35 45  1  0  0  0
 35 68  1  0  0  0
 36 56  1  0  0  0
 36118  1  0  0  0
 37 39  1  0  0  0
 37 47  1  0  0  0
 37 66  1  0  0  0
 37119  1  0  0  0
 38 43  2  0  0  0
 38 46  1  0  0  0
 38 47  1  0  0  0
 39 64  1  0  0  0
 39 67  2  0  0  0
 40 52  1  0  0  0
 40 53  2  0  0  0
 40 58  1  0  0  0
 41120  1  0  0  0
 41121  1  0  0  0
 41122  1  0  0  0
 41 48  1  0  0  0
 42 43  1  0  0  0
 42 66  1  0  0  0
 42123  1  0  0  0
 42124  1  0  0  0
 43 44  1  0  0  0
 44125  1  0  0  0
 45 46  2  0  0  0
 45126  1  0  0  0
 46127  1  0  0  0
 47128  1  0  0  0
 47129  1  0  0  0
 48 56  1  0  0  0
 48 65  1  0  0  0
 48130  1  0  0  0
 49 50  1  0  0  0
 49 53  1  0  0  0
 49 64  1  0  0  0
 49131  1  0  0  0
 50 51  1  0  0  0
 50132  1  0  0  0
 50133  1  0  0  0
 51 52  1  0  0  0
 51134  1  0  0  0
 51135  1  0  0  0
 52136  1  0  0  0
 52137  1  0  0  0
 53 54  1  0  0  0
 54 55  2  0  0  0
 54138  1  0  0  0
 55 57  1  0  0  0
 55139  1  0  0  0
 56 69  2  0  0  0
 57 58  2  0  0  0
 57140  1  0  0  0
 58141  1  0  0  0
 59 60  1  0  0  0
 59 61  1  0  0  0
 59 62  1  0  0  0
 60142  1  0  0  0
 60143  1  0  0  0
 60144  1  0  0  0
 61145  1  0  0  0
 61146  1  0  0  0
 61147  1  0  0  0
 62148  1  0  0  0
 62149  1  0  0  0
 62150  1  0  0  0
 63 65  1  0  0  0
 63151  1  0  0  0
 63152  1  0  0  0
 63153  1  0  0  0
 64154  1  0  0  0
 65155  1  0  0  0
 68 92  1  0  0  0
 71 73  2  0  0  0
 71 76  1  0  0  0
 71156  1  0  0  0
 72 74  2  0  0  0
 72 95  1  0  0  0
 72157  1  0  0  0
 73 75  1  0  0  0
 73 85  1  0  0  0
 74 75  1  0  0  0
 74 93  1  0  0  0
 75 94  2  0  0  0
 76 86  1  0  0  0
 76 93  2  0  0  0
 77 78  1  0  0  0
 77 79  1  0  0  0
 77158  1  0  0  0
 77159  1  0  0  0
 78 80  1  0  0  0
 78160  1  0  0  0
 78161  1  0  0  0
 79 81  1  0  0  0
 79162  1  0  0  0
 79163  1  0  0  0
 80 82  1  0  0  0
 80164  1  0  0  0
 80165  1  0  0  0
 81 83  1  0  0  0
 81166  1  0  0  0
 81167  1  0  0  0
 82 83  1  0  0  0
 82168  1  0  0  0
 82169  1  0  0  0
 83 88  1  0  0  0
 83170  1  0  0  0
 84 86  1  0  0  0
 84171  1  0  0  0
 84172  1  0  0  0
 84173  1  0  0  0
 85 90  1  0  0  0
 85174  1  0  0  0
 85175  1  0  0  0
 86176  1  0  0  0
 86177  1  0  0  0
 87 91  1  0  0  0
 87178  1  0  0  0
 87179  1  0  0  0
 88180  1  0  0  0
 88181  1  0  0  0
 88 96  1  0  0  0
 89 92  1  0  0  0
 89 95  1  0  0  0
 89182  1  0  0  0
 89183  1  0  0  0
 90 96  1  0  0  0
 90184  1  0  0  0
 90185  1  0  0  0
 91 96  1  0  0  0
 91186  1  0  0  0
 91187  1  0  0  0
 92188  1  0  0  0
 92189  1  0  0  0
 94 95  1  0  0  0
 96190  1  0  0  0
M  CHG  1  96   1
M  ISO  4   1 100  68 101  87 100  92 101
M  END
> <chiral flag>
0

> <version>
0

> <s_m_source_file>
/data/baiqing/PycharmProjects/Reinvent-master-3.2/result/LINK_invent/BTK/process_docking_weight1_custom_sum_contain_oxygen_bond_distance_aromatic_linkinvent_7_9_3/rearranged_h_0041.sdf

> <i_m_source_file_index>
34

> <r_mmod_Potential_Energy-OPLS-2005>
-163.291473388672

> <r_mmod_Stretch_Energy-OPLS-2005>
47.3693466186523

> <r_mmod_Bend_Energy-OPLS-2005>
176.746063232422

> <r_mmod_Torsional_Energy-OPLS-2005>
245.875946044922

> <r_mmod_Improper_Torsional_Energy-OPLS-2005>
3.2402708530426

> <r_mmod_Van_der_Waal_Energy-OPLS-2005>
128.012786865234

> <r_mmod_Electrostatic_Energy-OPLS-2005>
-336.421722412109

> <r_mmod_Solvation_Energy-OPLS-2005>
-438.763275146484

> <b_mmod_Minimization_Converged-OPLS-2005>
0

> <r_mmod_RMS_Derivative-OPLS-2005>
1.70540654659271

$$$$
34
                    3D
 Structure written by MMmdl.
159167  0  0  1  0            999 V2000
  -30.7174  -14.4358   20.6202 C   0  0  0  0  0  0
  -30.4230  -12.3041   19.4093 C   0  0  0  0  0  0
  -29.4910  -12.5131   18.1995 C   0  0  0  0  0  0
  -28.0135  -12.3690   18.6146 C   0  0  0  0  0  0
  -27.6627  -13.2031   19.8760 C   0  0  2  0  0  0
  -28.7023  -12.9631   20.9929 C   0  0  0  0  0  0
  -25.2595  -13.8155   20.5672 C   0  0  0  0  0  0
  -24.1840  -13.0442   20.9175 C   0  0  0  0  0  0
  -24.6384  -11.6905   20.8728 C   0  0  0  0  0  0
  -23.9049  -10.4293   21.0402 C   0  0  0  0  0  0
  -24.3600   -9.4213   21.9186 C   0  0  0  0  0  0
  -23.6282   -8.2246   22.0753 C   0  0  0  0  0  0
  -22.4267   -8.0276   21.3540 C   0  0  0  0  0  0
  -21.9900   -9.0250   20.4644 C   0  0  0  0  0  0
  -22.7221  -10.2133   20.3054 C   0  0  0  0  0  0
  -21.6850   -6.0736   22.5281 C   0  0  0  0  0  0
  -21.4010   -6.5639   23.8214 C   0  0  0  0  0  0
  -21.3659   -5.6792   24.9175 C   0  0  0  0  0  0
  -21.6045   -4.3054   24.7226 C   0  0  0  0  0  0
  -21.8820   -3.8147   23.4346 C   0  0  0  0  0  0
  -21.9193   -4.6965   22.3404 C   0  0  0  0  0  0
  -22.7865  -13.5251   21.1844 C   0  0  0  0  0  0
  -22.1662   -4.2150   21.0981 F   0  0  0  0  0  0
  -21.5631   -3.4540   25.7741 F   0  0  0  0  0  0
  -30.0355  -13.2728   20.4466 N   0  0  0  0  0  0
  -26.3025  -12.9314   20.3364 N   0  0  0  0  0  0
  -25.9309  -11.6475   20.5756 N   0  0  0  0  0  0
  -22.0488  -12.8243   22.0387 N   0  0  0  0  0  0
  -25.4347  -15.1867   20.4085 N   0  0  0  0  0  0
  -31.8087  -14.6616   20.0888 O   0  0  0  0  0  0
  -21.6631   -6.8875   21.4241 O   0  0  0  0  0  0
  -22.3563  -14.5563   20.6698 O   0  0  0  0  0  0
  -24.6157  -31.8678   23.2112 C   0  0  0  0  0  0
  -25.9042  -32.4830   23.8405 C   0  0  1  0  0  0
  -27.2349  -27.4473   20.0932 C   0  0  0  0  0  0
  -25.5885  -33.8625   24.2332 N   0  0  0  0  0  0
  -23.4031  -30.4921   21.5501 C   0  0  2  0  0  0
  -24.8531  -28.9601   20.1133 C   0  0  0  0  0  0
  -22.7425  -29.4649   22.4978 C   0  0  0  0  0  0
  -18.0286  -28.1373   22.8479 C   0  0  0  0  0  0
  -24.1487  -36.7305   23.2635 C   0  0  0  0  0  0
  -25.9316  -30.8371   21.3645 C   0  0  0  0  0  0
  -26.0119  -29.4721   20.7129 C   0  0  0  0  0  0
  -27.2087  -28.7193   20.7078 C   0  0  0  0  0  0
  -26.0666  -26.9462   19.4891 C   0  0  0  0  0  0
  -24.8739  -27.6934   19.5017 C   0  0  0  0  0  0
  -23.6141  -29.8247   20.1641 C   0  0  0  0  0  0
  -25.4106  -36.3113   24.0343 C   0  0  1  0  0  0
  -20.5881  -28.3648   23.1322 C   0  0  2  0  0  0
  -20.6770  -26.9376   22.5425 C   0  0  0  0  0  0
  -19.5747  -26.6370   21.5224 C   0  0  0  0  0  0
  -18.1921  -26.7922   22.1619 C   0  0  0  0  0  0
  -19.1535  -28.8827   23.2900 C   0  0  0  0  0  0
  -18.9459  -30.1433   23.8909 C   0  0  0  0  0  0
  -17.6457  -30.6573   24.0555 C   0  0  0  0  0  0
  -25.9026  -34.9483   23.5138 C   0  0  0  0  0  0
  -16.5349  -29.9069   23.6330 C   0  0  0  0  0  0
  -16.7271  -28.6500   23.0331 C   0  0  0  0  0  0
  -26.4477  -31.6601   25.0732 C   0  0  0  0  0  0
  -25.3735  -31.3699   26.1473 C   0  0  0  0  0  0
  -27.0309  -30.3055   24.6083 C   0  0  0  0  0  0
  -27.6071  -32.4303   25.7484 C   0  0  0  0  0  0
  -27.5582  -37.1799   24.8462 C   0  0  0  0  0  0
  -21.4155  -29.3021   22.3724 N   0  0  0  0  0  0
  -26.4293  -37.3785   23.9411 N   0  0  0  0  0  0
  -24.6676  -31.0788   22.1011 N   0  0  0  0  0  0
  -23.4202  -28.8175   23.3011 O   0  0  0  0  0  0
  -28.3661  -26.6673   20.0748 O   0  0  0  0  0  0
  -26.5594  -34.8943   22.4702 O   0  0  0  0  0  0
  -23.5338  -32.1421   23.7507 O   0  0  0  0  0  0
  -28.6946  -20.6222   22.4844 C   0  0  0  0  0  0
  -28.7411  -19.9171   21.2500 C   0  0  0  0  0  0
  -28.6720  -20.9200   20.3101 C   0  0  0  0  0  0
  -28.6525  -20.8315   18.8186 C   0  0  0  0  0  0
  -28.8033  -18.4037   21.1030 C   0  0  0  0  0  0
  -30.2333  -17.8623   20.8681 C   0  0  0  0  0  0
  -29.2615  -24.5905   21.1154 C   0  0  0  0  0  0
  -28.3551  -23.4962   20.4836 C   0  0  0  0  0  0
  -30.6525  -16.6672   21.7641 C   0  0  0  0  0  0
  -28.5909  -25.9723   21.3029 C   0  0  0  0  0  0
  -28.5846  -21.9305   22.3272 N   0  0  0  0  0  0
  -28.5829  -22.1338   20.9904 N   0  0  0  0  0  0
  -30.0980  -15.3662   21.3673 N   0  0  0  0  0  0
  -31.4663  -12.4093   19.1060 H   0  0  0  0  0  0
  -30.3294  -11.2878   19.7948 H   0  0  0  0  0  0
  -29.7289  -11.7970   17.4122 H   0  0  0  0  0  0
  -29.6575  -13.5038   17.7736 H   0  0  0  0  0  0
  -27.8262  -11.3118   18.8075 H   0  0  0  0  0  0
  -27.3608  -12.6453   17.7862 H   0  0  0  0  0  0
  -27.7146  -14.2539   19.5898 H   0  0  0  0  0  0
  -28.6776  -11.9202   21.3120 H   0  0  0  0  0  0
  -28.4562  -13.5402   21.8844 H   0  0  0  0  0  0
  -25.2743   -9.5699   22.4760 H   0  0  0  0  0  0
  -23.9998   -7.4640   22.7470 H   0  0  0  0  0  0
  -21.0834   -8.8760   19.8947 H   0  0  0  0  0  0
  -22.3674  -10.9669   19.6160 H   0  0  0  0  0  0
  -21.1993   -7.6145   23.9719 H   0  0  0  0  0  0
  -21.1482   -6.0519   25.9078 H   0  0  0  0  0  0
  -22.0598   -2.7607   23.2847 H   0  0  0  0  0  0
  -22.4074  -11.9895   22.4780 H   0  0  0  0  0  0
  -21.1105  -13.1276   22.2571 H   0  0  0  0  0  0
  -24.6733  -15.8477   20.5163 H   0  0  0  0  0  0
  -26.2930  -15.6190   20.0908 H   0  0  0  0  0  0
  -26.7122  -32.5581   23.1175 H   0  0  0  0  0  0
  -25.0073  -33.9776   25.0506 H   0  0  0  0  0  0
  -22.6929  -31.3101   21.4120 H   0  0  0  0  0  0
  -23.3755  -35.9625   23.3305 H   0  0  0  0  0  0
  -24.3583  -36.8912   22.2046 H   0  0  0  0  0  0
  -23.7251  -37.6516   23.6641 H   0  0  0  0  0  0
  -26.0441  -31.6018   20.5950 H   0  0  0  0  0  0
  -26.8199  -30.8933   21.9814 H   0  0  0  0  0  0
  -28.1063  -29.1042   21.1728 H   0  0  0  0  0  0
  -26.0793  -25.9728   19.0208 H   0  0  0  0  0  0
  -23.9826  -27.2909   19.0410 H   0  0  0  0  0  0
  -23.7219  -30.6001   19.4056 H   0  0  0  0  0  0
  -22.7401  -29.2435   19.8659 H   0  0  0  0  0  0
  -25.1279  -36.1974   25.0834 H   0  0  0  0  0  0
  -20.9977  -28.3207   24.1442 H   0  0  0  0  0  0
  -20.5694  -26.2233   23.3602 H   0  0  0  0  0  0
  -21.6631  -26.7416   22.1190 H   0  0  0  0  0  0
  -19.6897  -25.6298   21.1208 H   0  0  0  0  0  0
  -19.6695  -27.3219   20.6791 H   0  0  0  0  0  0
  -17.4193  -26.6697   21.4014 H   0  0  0  0  0  0
  -18.0289  -26.0076   22.9023 H   0  0  0  0  0  0
  -19.7938  -30.7250   24.2264 H   0  0  0  0  0  0
  -17.5012  -31.6253   24.5151 H   0  0  0  0  0  0
  -15.5342  -30.2953   23.7657 H   0  0  0  0  0  0
  -15.8684  -28.0819   22.7009 H   0  0  0  0  0  0
  -24.5921  -30.7039   25.7797 H   0  0  0  0  0  0
  -24.8906  -32.2848   26.4915 H   0  0  0  0  0  0
  -25.8076  -30.8862   27.0237 H   0  0  0  0  0  0
  -26.2842  -29.6826   24.1142 H   0  0  0  0  0  0
  -27.4123  -29.7289   25.4522 H   0  0  0  0  0  0
  -27.8653  -30.4403   23.9199 H   0  0  0  0  0  0
  -27.2708  -33.3598   26.2089 H   0  0  0  0  0  0
  -28.3852  -32.6865   25.0282 H   0  0  0  0  0  0
  -28.0762  -31.8412   26.5374 H   0  0  0  0  0  0
  -28.2580  -38.0111   24.7535 H   0  0  0  0  0  0
  -28.1095  -36.2656   24.6237 H   0  0  0  0  0  0
  -27.2302  -37.1391   25.8860 H   0  0  0  0  0  0
  -20.9314  -29.8753   21.6956 H   0  0  0  0  0  0
  -26.0189  -38.2853   24.1453 H   0  0  0  0  0  0
  -28.7083  -20.2161   23.4863 H   0  0  0  0  0  0
  -28.5839  -19.7959   18.4868 H   0  0  0  0  0  0
  -29.5595  -21.2597   18.3927 H   0  0  0  0  0  0
  -27.7974  -21.3632   18.4024 H   0  0  0  0  0  0
  -28.1476  -18.0542   20.3041 H   0  0  0  0  0  0
  -28.3960  -17.9418   22.0033 H   0  0  0  0  0  0
  -30.9372  -18.6672   21.0792 H   0  0  0  0  0  0
  -30.3829  -17.6291   19.8123 H   0  0  0  0  0  0
  -30.1833  -24.6906   20.5429 H   0  0  0  0  0  0
  -29.5780  -24.2737   22.1084 H   0  0  0  0  0  0
  -28.4729  -23.5070   19.3997 H   0  0  0  0  0  0
  -27.3076  -23.7352   20.6714 H   0  0  0  0  0  0
  -30.3652  -16.8663   22.7973 H   0  0  0  0  0  0
  -31.7418  -16.6038   21.7806 H   0  0  0  0  0  0
  -29.2355  -26.6004   21.9190 H   0  0  0  0  0  0
  -27.6671  -25.8419   21.8719 H   0  0  0  0  0  0
  -29.2055  -15.1025   21.7587 H   0  0  0  0  0  0
  1 25  1  0  0  0
  1 30  2  0  0  0
  1 83  1  0  0  0
  2  3  1  0  0  0
  2 25  1  0  0  0
  2 84  1  0  0  0
  2 85  1  0  0  0
  3  4  1  0  0  0
  3 86  1  0  0  0
  3 87  1  0  0  0
  4  5  1  0  0  0
  4 88  1  0  0  0
  4 89  1  0  0  0
  5  6  1  0  0  0
  5 26  1  0  0  0
  5 90  1  0  0  0
  6 25  1  0  0  0
  6 91  1  0  0  0
  6 92  1  0  0  0
  7  8  2  0  0  0
  7 26  1  0  0  0
  7 29  1  0  0  0
  8  9  1  0  0  0
  8 22  1  0  0  0
  9 10  1  0  0  0
  9 27  2  0  0  0
 10 11  2  0  0  0
 10 15  1  0  0  0
 11 12  1  0  0  0
 11 93  1  0  0  0
 12 13  2  0  0  0
 12 94  1  0  0  0
 13 14  1  0  0  0
 13 31  1  0  0  0
 14 15  2  0  0  0
 14 95  1  0  0  0
 15 96  1  0  0  0
 16 17  2  0  0  0
 16 21  1  0  0  0
 16 31  1  0  0  0
 17 18  1  0  0  0
 17 97  1  0  0  0
 18 19  2  0  0  0
 18 98  1  0  0  0
 19 20  1  0  0  0
 19 24  1  0  0  0
 20 21  2  0  0  0
 20 99  1  0  0  0
 21 23  1  0  0  0
 22 28  1  0  0  0
 22 32  2  0  0  0
 26 27  1  0  0  0
 28100  1  0  0  0
 28101  1  0  0  0
 29102  1  0  0  0
 29103  1  0  0  0
 33 34  1  0  0  0
 33 66  1  0  0  0
 33 70  2  0  0  0
 34 36  1  0  0  0
 34 59  1  0  0  0
 34104  1  0  0  0
 35 44  2  0  0  0
 35 45  1  0  0  0
 35 68  1  0  0  0
 36 56  1  0  0  0
 36105  1  0  0  0
 37 39  1  0  0  0
 37 47  1  0  0  0
 37 66  1  0  0  0
 37106  1  0  0  0
 38 43  2  0  0  0
 38 46  1  0  0  0
 38 47  1  0  0  0
 39 64  1  0  0  0
 39 67  2  0  0  0
 40 52  1  0  0  0
 40 53  2  0  0  0
 40 58  1  0  0  0
 41107  1  0  0  0
 41108  1  0  0  0
 41109  1  0  0  0
 41 48  1  0  0  0
 42 43  1  0  0  0
 42 66  1  0  0  0
 42110  1  0  0  0
 42111  1  0  0  0
 43 44  1  0  0  0
 44112  1  0  0  0
 45 46  2  0  0  0
 45113  1  0  0  0
 46114  1  0  0  0
 47115  1  0  0  0
 47116  1  0  0  0
 48 56  1  0  0  0
 48 65  1  0  0  0
 48117  1  0  0  0
 49 50  1  0  0  0
 49 53  1  0  0  0
 49 64  1  0  0  0
 49118  1  0  0  0
 50 51  1  0  0  0
 50119  1  0  0  0
 50120  1  0  0  0
 51 52  1  0  0  0
 51121  1  0  0  0
 51122  1  0  0  0
 52123  1  0  0  0
 52124  1  0  0  0
 53 54  1  0  0  0
 54 55  2  0  0  0
 54125  1  0  0  0
 55 57  1  0  0  0
 55126  1  0  0  0
 56 69  2  0  0  0
 57 58  2  0  0  0
 57127  1  0  0  0
 58128  1  0  0  0
 59 60  1  0  0  0
 59 61  1  0  0  0
 59 62  1  0  0  0
 60129  1  0  0  0
 60130  1  0  0  0
 60131  1  0  0  0
 61132  1  0  0  0
 61133  1  0  0  0
 61134  1  0  0  0
 62135  1  0  0  0
 62136  1  0  0  0
 62137  1  0  0  0
 63 65  1  0  0  0
 63138  1  0  0  0
 63139  1  0  0  0
 63140  1  0  0  0
 64141  1  0  0  0
 65142  1  0  0  0
 68 80  1  0  0  0
 71 72  1  0  0  0
 71 81  2  0  0  0
 71143  1  0  0  0
 72 73  2  0  0  0
 72 75  1  0  0  0
 73 74  1  0  0  0
 73 82  1  0  0  0
 74144  1  0  0  0
 74145  1  0  0  0
 74146  1  0  0  0
 75 76  1  0  0  0
 75147  1  0  0  0
 75148  1  0  0  0
 76 79  1  0  0  0
 76149  1  0  0  0
 76150  1  0  0  0
 77 78  1  0  0  0
 77 80  1  0  0  0
 77151  1  0  0  0
 77152  1  0  0  0
 78 82  1  0  0  0
 78153  1  0  0  0
 78154  1  0  0  0
 79 83  1  0  0  0
 79155  1  0  0  0
 79156  1  0  0  0
 80157  1  0  0  0
 80158  1  0  0  0
 81 82  1  0  0  0
 83159  1  0  0  0
M  ISO  4   1 100  68 101  80 101  83 100
M  END
> <chiral flag>
0

> <version>
0

> <s_m_source_file>
/data/baiqing/PycharmProjects/Reinvent-master-3.2/result/LINK_invent/BTK/process_docking_weight1_custom_sum_contain_oxygen_bond_distance_aromatic_linkinvent_7_9_3/rearranged_h_0041.sdf

> <i_m_source_file_index>
35

> <r_mmod_Potential_Energy-OPLS-2005>
-101.123550415039

> <r_mmod_Stretch_Energy-OPLS-2005>
34.4721031188965

> <r_mmod_Bend_Energy-OPLS-2005>
93.4157104492188

> <r_mmod_Torsional_Energy-OPLS-2005>
250.651580810547

> <r_mmod_Improper_Torsional_Energy-OPLS-2005>
2.52611660957336

> <r_mmod_Van_der_Waal_Energy-OPLS-2005>
123.291229248047

> <r_mmod_Electrostatic_Energy-OPLS-2005>
-395.893524169922

> <r_mmod_Solvation_Energy-OPLS-2005>
-219.205001831055

> <b_mmod_Minimization_Converged-OPLS-2005>
0

> <r_mmod_RMS_Derivative-OPLS-2005>
1.79456841945648

$$$$
35
                    3D
 Structure written by MMmdl.
164172  0  0  1  0            999 V2000
  -30.7199  -14.4811   20.5208 C   0  0  0  0  0  0
  -30.4172  -12.3014   19.4344 C   0  0  0  0  0  0
  -29.5032  -12.5416   18.2168 C   0  0  0  0  0  0
  -28.0138  -12.4438   18.6038 C   0  0  0  0  0  0
  -27.6690  -13.2344   19.8973 C   0  0  2  0  0  0
  -28.7257  -13.0284   21.0115 C   0  0  0  0  0  0
  -25.2594  -13.8201   20.5775 C   0  0  0  0  0  0
  -24.1841  -13.0436   20.9150 C   0  0  0  0  0  0
  -24.6458  -11.6919   20.8723 C   0  0  0  0  0  0
  -23.9136  -10.4292   21.0348 C   0  0  0  0  0  0
  -24.3652   -9.4216   21.9156 C   0  0  0  0  0  0
  -23.6306   -8.2247   22.0767 C   0  0  0  0  0  0
  -22.4265   -8.0300   21.3573 C   0  0  0  0  0  0
  -21.9936   -9.0290   20.4661 C   0  0  0  0  0  0
  -22.7297  -10.2149   20.3035 C   0  0  0  0  0  0
  -21.6891   -6.0735   22.5268 C   0  0  0  0  0  0
  -21.4062   -6.5639   23.8204 C   0  0  0  0  0  0
  -21.3669   -5.6786   24.9155 C   0  0  0  0  0  0
  -21.6015   -4.3041   24.7199 C   0  0  0  0  0  0
  -21.8831   -3.8139   23.4326 C   0  0  0  0  0  0
  -21.9193   -4.6958   22.3382 C   0  0  0  0  0  0
  -22.7826  -13.5201   21.1741 C   0  0  0  0  0  0
  -22.1649   -4.2159   21.0955 F   0  0  0  0  0  0
  -21.5617   -3.4516   25.7697 F   0  0  0  0  0  0
  -30.0542  -13.3018   20.4455 N   0  0  0  0  0  0
  -26.3098  -12.9433   20.3538 N   0  0  0  0  0  0
  -25.9405  -11.6568   20.5828 N   0  0  0  0  0  0
  -22.0443  -12.8286   22.0311 N   0  0  0  0  0  0
  -25.4185  -15.1948   20.4347 N   0  0  0  0  0  0
  -31.8724  -14.6324   20.1030 O   0  0  0  0  0  0
  -21.6647   -6.8888   21.4235 O   0  0  0  0  0  0
  -22.3519  -14.5459   20.6495 O   0  0  0  0  0  0
  -24.6148  -31.8719   23.2128 C   0  0  0  0  0  0
  -25.9045  -32.4840   23.8424 C   0  0  1  0  0  0
  -27.1842  -27.3994   20.1242 C   0  0  0  0  0  0
  -25.5939  -33.8651   24.2335 N   0  0  0  0  0  0
  -23.4015  -30.5044   21.5511 C   0  0  2  0  0  0
  -24.8437  -28.9845   20.0987 C   0  0  0  0  0  0
  -22.7403  -29.4704   22.4939 C   0  0  0  0  0  0
  -18.0286  -28.1342   22.8514 C   0  0  0  0  0  0
  -24.1483  -36.7297   23.2640 C   0  0  0  0  0  0
  -25.9384  -30.8256   21.3779 C   0  0  0  0  0  0
  -26.0086  -29.4654   20.7163 C   0  0  0  0  0  0
  -27.1846  -28.6781   20.7296 C   0  0  0  0  0  0
  -26.0243  -26.9713   19.4439 C   0  0  0  0  0  0
  -24.8557  -27.7439   19.4478 C   0  0  0  0  0  0
  -23.6105  -29.8547   20.1577 C   0  0  0  0  0  0
  -25.4109  -36.3122   24.0338 C   0  0  1  0  0  0
  -20.5904  -28.3631   23.1287 C   0  0  2  0  0  0
  -20.6788  -26.9353   22.5388 C   0  0  0  0  0  0
  -19.5751  -26.6341   21.5211 C   0  0  0  0  0  0
  -18.1937  -26.7894   22.1632 C   0  0  0  0  0  0
  -19.1557  -28.8811   23.2902 C   0  0  0  0  0  0
  -18.9463  -30.1426   23.8900 C   0  0  0  0  0  0
  -17.6454  -30.6565   24.0554 C   0  0  0  0  0  0
  -25.9035  -34.9480   23.5129 C   0  0  0  0  0  0
  -16.5357  -29.9040   23.6338 C   0  0  0  0  0  0
  -16.7272  -28.6468   23.0371 C   0  0  0  0  0  0
  -26.4453  -31.6631   25.0758 C   0  0  0  0  0  0
  -25.3698  -31.3790   26.1492 C   0  0  0  0  0  0
  -27.0282  -30.3076   24.6168 C   0  0  0  0  0  0
  -27.6026  -32.4377   25.7519 C   0  0  0  0  0  0
  -27.5568  -37.1819   24.8455 C   0  0  0  0  0  0
  -21.4174  -29.3019   22.3686 N   0  0  0  0  0  0
  -26.4289  -37.3804   23.9422 N   0  0  0  0  0  0
  -24.6707  -31.0817   22.1062 N   0  0  0  0  0  0
  -23.4180  -28.8219   23.2949 O   0  0  0  0  0  0
  -28.2614  -26.5424   20.2385 O   0  0  0  0  0  0
  -26.5519  -34.8945   22.4628 O   0  0  0  0  0  0
  -23.5345  -32.1447   23.7543 O   0  0  0  0  0  0
  -28.3234  -21.6058   20.1436 C   0  0  0  0  0  0
  -28.0165  -20.2441   20.4076 C   0  0  0  0  0  0
  -27.4652  -22.6461   20.5830 C   0  0  0  0  0  0
  -26.8170  -19.9866   21.1154 C   0  0  0  0  0  0
  -26.3384  -22.2597   21.3489 C   0  0  0  0  0  0
  -26.2450  -18.5963   21.3426 C   0  0  0  0  0  0
  -25.7544  -23.6620   23.3722 C   0  0  0  0  0  0
  -28.9030  -19.1210   19.8355 C   0  0  0  0  0  0
  -27.6780  -24.0723   20.0169 C   0  0  0  0  0  0
  -25.3420  -23.2315   21.9587 C   0  0  0  0  0  0
  -29.4474  -18.0632   20.8454 C   0  0  0  0  0  0
  -30.1543  -16.8571   20.1616 C   0  0  0  0  0  0
  -27.9554  -25.3009   20.9462 C   0  0  0  0  0  0
  -26.0463  -20.9713   21.6101 N   0  0  0  0  0  0
  -29.9562  -15.5505   20.8115 N   0  0  0  0  0  0
  -31.4647  -12.3695   19.1369 H   0  0  0  0  0  0
  -30.2780  -11.2989   19.8383 H   0  0  0  0  0  0
  -29.7331  -11.8252   17.4255 H   0  0  0  0  0  0
  -29.7097  -13.5297   17.7981 H   0  0  0  0  0  0
  -27.7599  -11.3894   18.7219 H   0  0  0  0  0  0
  -27.3967  -12.8218   17.7845 H   0  0  0  0  0  0
  -27.7020  -14.2909   19.6305 H   0  0  0  0  0  0
  -28.6927  -12.0085   21.4011 H   0  0  0  0  0  0
  -28.5103  -13.6774   21.8646 H   0  0  0  0  0  0
  -25.2777   -9.5672   22.4769 H   0  0  0  0  0  0
  -23.9993   -7.4654   22.7516 H   0  0  0  0  0  0
  -21.0858   -8.8825   19.8974 H   0  0  0  0  0  0
  -22.3751  -10.9696   19.6152 H   0  0  0  0  0  0
  -21.2084   -7.6155   23.9721 H   0  0  0  0  0  0
  -21.1490   -6.0504   25.9078 H   0  0  0  0  0  0
  -22.0592   -2.7599   23.2813 H   0  0  0  0  0  0
  -22.4039  -12.0086   22.4924 H   0  0  0  0  0  0
  -21.1036  -13.1380   22.2339 H   0  0  0  0  0  0
  -24.6396  -15.8289   20.5763 H   0  0  0  0  0  0
  -26.2845  -15.6691   20.2125 H   0  0  0  0  0  0
  -26.7114  -32.5538   23.1181 H   0  0  0  0  0  0
  -25.0174  -33.9835   25.0539 H   0  0  0  0  0  0
  -22.6918  -31.3229   21.4223 H   0  0  0  0  0  0
  -23.3774  -35.9602   23.3307 H   0  0  0  0  0  0
  -24.3563  -36.8874   22.2042 H   0  0  0  0  0  0
  -23.7193  -37.6506   23.6617 H   0  0  0  0  0  0
  -26.0607  -31.6015   20.6214 H   0  0  0  0  0  0
  -26.8234  -30.8671   22.0009 H   0  0  0  0  0  0
  -28.0687  -29.0308   21.2418 H   0  0  0  0  0  0
  -25.9915  -26.0441   18.9013 H   0  0  0  0  0  0
  -23.9745  -27.3849   18.9334 H   0  0  0  0  0  0
  -23.7158  -30.6379   19.4047 H   0  0  0  0  0  0
  -22.7330  -29.2775   19.8604 H   0  0  0  0  0  0
  -25.1304  -36.1987   25.0836 H   0  0  0  0  0  0
  -21.0029  -28.3167   24.1391 H   0  0  0  0  0  0
  -20.5711  -26.2215   23.3561 H   0  0  0  0  0  0
  -21.6650  -26.7376   22.1178 H   0  0  0  0  0  0
  -19.6886  -25.6256   21.1213 H   0  0  0  0  0  0
  -19.6719  -27.3183   20.6769 H   0  0  0  0  0  0
  -17.4213  -26.6683   21.4001 H   0  0  0  0  0  0
  -18.0317  -26.0027   22.9024 H   0  0  0  0  0  0
  -19.7934  -30.7256   24.2272 H   0  0  0  0  0  0
  -17.5004  -31.6260   24.5113 H   0  0  0  0  0  0
  -15.5351  -30.2927   23.7693 H   0  0  0  0  0  0
  -15.8669  -28.0765   22.7087 H   0  0  0  0  0  0
  -24.5814  -30.7210   25.7823 H   0  0  0  0  0  0
  -24.8955  -32.2986   26.4966 H   0  0  0  0  0  0
  -25.8009  -30.8910   27.0238 H   0  0  0  0  0  0
  -26.2834  -29.6882   24.1166 H   0  0  0  0  0  0
  -27.3966  -29.7317   25.4667 H   0  0  0  0  0  0
  -27.8726  -30.4415   23.9395 H   0  0  0  0  0  0
  -27.2608  -33.3668   26.2125 H   0  0  0  0  0  0
  -28.3815  -32.6970   25.0322 H   0  0  0  0  0  0
  -28.0706  -31.8478   26.5408 H   0  0  0  0  0  0
  -28.2619  -38.0091   24.7528 H   0  0  0  0  0  0
  -28.1047  -36.2635   24.6290 H   0  0  0  0  0  0
  -27.2279  -37.1468   25.8854 H   0  0  0  0  0  0
  -20.9279  -29.8739   21.6973 H   0  0  0  0  0  0
  -26.0179  -38.2894   24.1444 H   0  0  0  0  0  0
  -29.1807  -21.8600   19.5388 H   0  0  0  0  0  0
  -26.4273  -18.2707   22.3707 H   0  0  0  0  0  0
  -26.6552  -17.8464   20.6690 H   0  0  0  0  0  0
  -25.1689  -18.5872   21.1785 H   0  0  0  0  0  0
  -25.0012  -24.3187   23.8095 H   0  0  0  0  0  0
  -26.7079  -24.1852   23.3666 H   0  0  0  0  0  0
  -25.8646  -22.7964   24.0259 H   0  0  0  0  0  0
  -29.7519  -19.5721   19.3208 H   0  0  0  0  0  0
  -28.3445  -18.6095   19.0451 H   0  0  0  0  0  0
  -26.7879  -24.2584   19.4250 H   0  0  0  0  0  0
  -28.4944  -24.0128   19.3005 H   0  0  0  0  0  0
  -24.3732  -22.7337   22.0369 H   0  0  0  0  0  0
  -25.1823  -24.0924   21.3126 H   0  0  0  0  0  0
  -28.6571  -17.6755   21.4809 H   0  0  0  0  0  0
  -30.1331  -18.5626   21.5328 H   0  0  0  0  0  0
  -31.2162  -17.0832   20.0076 H   0  0  0  0  0  0
  -29.7125  -16.6808   19.1769 H   0  0  0  0  0  0
  -28.7989  -25.0745   21.5984 H   0  0  0  0  0  0
  -27.1113  -25.4689   21.6157 H   0  0  0  0  0  0
  -29.0198  -15.3164   21.1152 H   0  0  0  0  0  0
  1 25  1  0  0  0
  1 30  2  0  0  0
  1 85  1  0  0  0
  2  3  1  0  0  0
  2 25  1  0  0  0
  2 86  1  0  0  0
  2 87  1  0  0  0
  3  4  1  0  0  0
  3 88  1  0  0  0
  3 89  1  0  0  0
  4  5  1  0  0  0
  4 90  1  0  0  0
  4 91  1  0  0  0
  5  6  1  0  0  0
  5 26  1  0  0  0
  5 92  1  0  0  0
  6 25  1  0  0  0
  6 93  1  0  0  0
  6 94  1  0  0  0
  7  8  2  0  0  0
  7 26  1  0  0  0
  7 29  1  0  0  0
  8  9  1  0  0  0
  8 22  1  0  0  0
  9 10  1  0  0  0
  9 27  2  0  0  0
 10 11  2  0  0  0
 10 15  1  0  0  0
 11 12  1  0  0  0
 11 95  1  0  0  0
 12 13  2  0  0  0
 12 96  1  0  0  0
 13 14  1  0  0  0
 13 31  1  0  0  0
 14 15  2  0  0  0
 14 97  1  0  0  0
 15 98  1  0  0  0
 16 17  2  0  0  0
 16 21  1  0  0  0
 16 31  1  0  0  0
 17 18  1  0  0  0
 17 99  1  0  0  0
 18 19  2  0  0  0
 18100  1  0  0  0
 19 20  1  0  0  0
 19 24  1  0  0  0
 20 21  2  0  0  0
 20101  1  0  0  0
 21 23  1  0  0  0
 22 28  1  0  0  0
 22 32  2  0  0  0
 26 27  1  0  0  0
 28102  1  0  0  0
 28103  1  0  0  0
 29104  1  0  0  0
 29105  1  0  0  0
 33 34  1  0  0  0
 33 66  1  0  0  0
 33 70  2  0  0  0
 34 36  1  0  0  0
 34 59  1  0  0  0
 34106  1  0  0  0
 35 44  2  0  0  0
 35 45  1  0  0  0
 35 68  1  0  0  0
 36 56  1  0  0  0
 36107  1  0  0  0
 37 39  1  0  0  0
 37 47  1  0  0  0
 37 66  1  0  0  0
 37108  1  0  0  0
 38 43  2  0  0  0
 38 46  1  0  0  0
 38 47  1  0  0  0
 39 64  1  0  0  0
 39 67  2  0  0  0
 40 52  1  0  0  0
 40 53  2  0  0  0
 40 58  1  0  0  0
 41109  1  0  0  0
 41110  1  0  0  0
 41111  1  0  0  0
 41 48  1  0  0  0
 42 43  1  0  0  0
 42 66  1  0  0  0
 42112  1  0  0  0
 42113  1  0  0  0
 43 44  1  0  0  0
 44114  1  0  0  0
 45 46  2  0  0  0
 45115  1  0  0  0
 46116  1  0  0  0
 47117  1  0  0  0
 47118  1  0  0  0
 48 56  1  0  0  0
 48 65  1  0  0  0
 48119  1  0  0  0
 49 50  1  0  0  0
 49 53  1  0  0  0
 49 64  1  0  0  0
 49120  1  0  0  0
 50 51  1  0  0  0
 50121  1  0  0  0
 50122  1  0  0  0
 51 52  1  0  0  0
 51123  1  0  0  0
 51124  1  0  0  0
 52125  1  0  0  0
 52126  1  0  0  0
 53 54  1  0  0  0
 54 55  2  0  0  0
 54127  1  0  0  0
 55 57  1  0  0  0
 55128  1  0  0  0
 56 69  2  0  0  0
 57 58  2  0  0  0
 57129  1  0  0  0
 58130  1  0  0  0
 59 60  1  0  0  0
 59 61  1  0  0  0
 59 62  1  0  0  0
 60131  1  0  0  0
 60132  1  0  0  0
 60133  1  0  0  0
 61134  1  0  0  0
 61135  1  0  0  0
 61136  1  0  0  0
 62137  1  0  0  0
 62138  1  0  0  0
 62139  1  0  0  0
 63 65  1  0  0  0
 63140  1  0  0  0
 63141  1  0  0  0
 63142  1  0  0  0
 64143  1  0  0  0
 65144  1  0  0  0
 68 83  1  0  0  0
 71 72  2  0  0  0
 71 73  1  0  0  0
 71145  1  0  0  0
 72 74  1  0  0  0
 72 78  1  0  0  0
 73 75  2  0  0  0
 73 79  1  0  0  0
 74 76  1  0  0  0
 74 84  2  0  0  0
 75 80  1  0  0  0
 75 84  1  0  0  0
 76146  1  0  0  0
 76147  1  0  0  0
 76148  1  0  0  0
 77 80  1  0  0  0
 77149  1  0  0  0
 77150  1  0  0  0
 77151  1  0  0  0
 78 81  1  0  0  0
 78152  1  0  0  0
 78153  1  0  0  0
 79 83  1  0  0  0
 79154  1  0  0  0
 79155  1  0  0  0
 80156  1  0  0  0
 80157  1  0  0  0
 81 82  1  0  0  0
 81158  1  0  0  0
 81159  1  0  0  0
 82 85  1  0  0  0
 82160  1  0  0  0
 82161  1  0  0  0
 83162  1  0  0  0
 83163  1  0  0  0
 85164  1  0  0  0
M  ISO  4   1 100  68 101  83 101  85 100
M  END
> <chiral flag>
0

> <version>
0

> <s_m_source_file>
/data/baiqing/PycharmProjects/Reinvent-master-3.2/result/LINK_invent/BTK/process_docking_weight1_custom_sum_contain_oxygen_bond_distance_aromatic_linkinvent_7_9_3/rearranged_h_0041.sdf

> <i_m_source_file_index>
36

> <r_mmod_Potential_Energy-OPLS-2005>
-178.584075927734

> <r_mmod_Stretch_Energy-OPLS-2005>
44.3169975280762

> <r_mmod_Bend_Energy-OPLS-2005>
113.609001159668

> <r_mmod_Torsional_Energy-OPLS-2005>
241.073364257812

> <r_mmod_Improper_Torsional_Energy-OPLS-2005>
10.3107891082764

> <r_mmod_Van_der_Waal_Energy-OPLS-2005>
152.717895507812

> <r_mmod_Electrostatic_Energy-OPLS-2005>
-547.139343261719

> <r_mmod_Solvation_Energy-OPLS-2005>
-222.548889160156

> <b_mmod_Minimization_Converged-OPLS-2005>
0

> <r_mmod_RMS_Derivative-OPLS-2005>
8.73885631561279

$$$$
36
                    3D
 Structure written by MMmdl.
156164  0  0  1  0            999 V2000
  -30.5869  -14.6874   20.4778 C   0  0  0  0  0  0
  -30.4313  -12.4198   19.4647 C   0  0  0  0  0  0
  -29.5078  -12.5099   18.2294 C   0  0  0  0  0  0
  -28.0268  -12.3564   18.6335 C   0  0  0  0  0  0
  -27.6456  -13.2233   19.8639 C   0  0  2  0  0  0
  -28.6854  -13.0987   20.9975 C   0  0  0  0  0  0
  -25.2541  -13.8186   20.5695 C   0  0  0  0  0  0
  -24.1818  -13.0433   20.9212 C   0  0  0  0  0  0
  -24.6400  -11.6909   20.8757 C   0  0  0  0  0  0
  -23.9083  -10.4296   21.0417 C   0  0  0  0  0  0
  -24.3634   -9.4208   21.9190 C   0  0  0  0  0  0
  -23.6305   -8.2240   22.0753 C   0  0  0  0  0  0
  -22.4287   -8.0297   21.3544 C   0  0  0  0  0  0
  -21.9924   -9.0278   20.4645 C   0  0  0  0  0  0
  -22.7252  -10.2153   20.3056 C   0  0  0  0  0  0
  -21.6860   -6.0751   22.5285 C   0  0  0  0  0  0
  -21.4013   -6.5649   23.8220 C   0  0  0  0  0  0
  -21.3657   -5.6791   24.9183 C   0  0  0  0  0  0
  -21.6040   -4.3051   24.7213 C   0  0  0  0  0  0
  -21.8819   -3.8154   23.4335 C   0  0  0  0  0  0
  -21.9194   -4.6982   22.3399 C   0  0  0  0  0  0
  -22.7848  -13.5230   21.1866 C   0  0  0  0  0  0
  -22.1664   -4.2169   21.0967 F   0  0  0  0  0  0
  -21.5630   -3.4535   25.7725 F   0  0  0  0  0  0
  -29.9903  -13.4525   20.4287 N   0  0  0  0  0  0
  -26.2957  -12.9365   20.3330 N   0  0  0  0  0  0
  -25.9325  -11.6521   20.5757 N   0  0  0  0  0  0
  -22.0480  -12.8241   22.0430 N   0  0  0  0  0  0
  -25.4223  -15.1911   20.4091 N   0  0  0  0  0  0
  -31.7582  -14.8270   20.1124 O   0  0  0  0  0  0
  -21.6640   -6.8902   21.4245 O   0  0  0  0  0  0
  -22.3551  -14.5538   20.6712 O   0  0  0  0  0  0
  -24.6322  -31.8612   23.2011 C   0  0  0  0  0  0
  -25.9160  -32.4800   23.8361 C   0  0  1  0  0  0
  -27.2141  -27.2931   20.1333 C   0  0  0  0  0  0
  -25.6001  -33.8590   24.2332 N   0  0  0  0  0  0
  -23.4241  -30.4853   21.5421 C   0  0  2  0  0  0
  -24.8697  -28.9303   20.1142 C   0  0  0  0  0  0
  -22.7511  -29.4634   22.4912 C   0  0  0  0  0  0
  -18.0291  -28.1401   22.8468 C   0  0  0  0  0  0
  -24.1491  -36.7280   23.2626 C   0  0  0  0  0  0
  -25.9648  -30.7883   21.3658 C   0  0  0  0  0  0
  -26.0380  -29.4073   20.7209 C   0  0  0  0  0  0
  -27.2184  -28.6021   20.7141 C   0  0  0  0  0  0
  -26.0215  -26.8677   19.5131 C   0  0  0  0  0  0
  -24.8640  -27.6688   19.4995 C   0  0  0  0  0  0
  -23.6432  -29.8203   20.1564 C   0  0  0  0  0  0
  -25.4111  -36.3098   24.0339 C   0  0  1  0  0  0
  -20.5902  -28.3715   23.1265 C   0  0  2  0  0  0
  -20.6780  -26.9437   22.5389 C   0  0  0  0  0  0
  -19.5756  -26.6396   21.5200 C   0  0  0  0  0  0
  -18.1936  -26.7945   22.1613 C   0  0  0  0  0  0
  -19.1545  -28.8873   23.2865 C   0  0  0  0  0  0
  -18.9463  -30.1467   23.8899 C   0  0  0  0  0  0
  -17.6460  -30.6597   24.0567 C   0  0  0  0  0  0
  -25.9043  -34.9463   23.5123 C   0  0  0  0  0  0
  -16.5352  -29.9096   23.6324 C   0  0  0  0  0  0
  -16.7278  -28.6515   23.0340 C   0  0  0  0  0  0
  -26.4521  -31.6562   25.0702 C   0  0  0  0  0  0
  -25.3735  -31.3678   26.1412 C   0  0  0  0  0  0
  -27.0321  -30.3003   24.6057 C   0  0  0  0  0  0
  -27.6122  -32.4220   25.7489 C   0  0  0  0  0  0
  -27.5584  -37.1819   24.8483 C   0  0  0  0  0  0
  -21.4220  -29.3091   22.3694 N   0  0  0  0  0  0
  -26.4301  -37.3798   23.9416 N   0  0  0  0  0  0
  -24.6932  -31.0604   22.0961 N   0  0  0  0  0  0
  -23.4237  -28.8164   23.2978 O   0  0  0  0  0  0
  -28.3343  -26.4464   20.1291 O   0  0  0  0  0  0
  -26.5565  -34.8935   22.4657 O   0  0  0  0  0  0
  -23.5488  -32.1409   23.7357 O   0  0  0  0  0  0
  -27.9180  -22.0480   18.2714 C   0  0  0  0  0  0
  -28.2969  -22.3808   19.5483 C   0  0  0  0  0  0
  -28.1415  -23.8623   19.5346 C   0  0  0  0  0  0
  -27.0687  -23.2942   16.2287 C   0  0  0  0  0  0
  -28.6588  -21.2472   20.5933 C   0  0  0  0  0  0
  -28.2181  -25.0242   20.5876 C   0  0  0  0  0  0
  -29.2753  -19.8566   20.0300 C   0  0  0  0  0  0
  -29.1720  -18.4514   20.8183 C   0  0  0  0  0  0
  -30.0333  -17.2128   20.2467 C   0  0  0  0  0  0
  -27.7672  -24.2757   18.3264 N   0  0  0  0  0  0
  -27.5904  -23.1799   17.5773 N   0  0  0  0  0  0
  -29.7785  -15.7846   20.7021 N   0  0  0  0  0  0
  -31.4728  -12.5506   19.1646 H   0  0  0  0  0  0
  -30.3797  -11.4264   19.9116 H   0  0  0  0  0  0
  -29.7749  -11.7463   17.4973 H   0  0  0  0  0  0
  -29.6539  -13.4724   17.7354 H   0  0  0  0  0  0
  -27.8501  -11.3023   18.8518 H   0  0  0  0  0  0
  -27.3797  -12.6008   17.7900 H   0  0  0  0  0  0
  -27.6565  -14.2567   19.5200 H   0  0  0  0  0  0
  -28.7092  -12.0826   21.3927 H   0  0  0  0  0  0
  -28.4336  -13.7454   21.8401 H   0  0  0  0  0  0
  -25.2779   -9.5692   22.4776 H   0  0  0  0  0  0
  -24.0027   -7.4633   22.7465 H   0  0  0  0  0  0
  -21.0865   -8.8792   19.8957 H   0  0  0  0  0  0
  -22.3709  -10.9702   19.6178 H   0  0  0  0  0  0
  -21.1996   -7.6151   23.9733 H   0  0  0  0  0  0
  -21.1485   -6.0515   25.9089 H   0  0  0  0  0  0
  -22.0602   -2.7623   23.2817 H   0  0  0  0  0  0
  -22.4082  -11.9898   22.4813 H   0  0  0  0  0  0
  -21.1097  -13.1289   22.2600 H   0  0  0  0  0  0
  -24.6552  -15.8432   20.5329 H   0  0  0  0  0  0
  -26.2576  -15.6322   20.0457 H   0  0  0  0  0  0
  -26.7231  -32.5479   23.1118 H   0  0  0  0  0  0
  -25.0334  -33.9730   25.0611 H   0  0  0  0  0  0
  -22.7184  -31.3068   21.3969 H   0  0  0  0  0  0
  -23.3791  -35.9585   23.3300 H   0  0  0  0  0  0
  -24.3594  -36.8870   22.2041 H   0  0  0  0  0  0
  -23.7196  -37.6473   23.6612 H   0  0  0  0  0  0
  -26.0725  -31.5405   20.5826 H   0  0  0  0  0  0
  -26.8569  -30.8620   21.9769 H   0  0  0  0  0  0
  -28.1222  -28.9703   21.1799 H   0  0  0  0  0  0
  -25.9701  -25.9026   19.0332 H   0  0  0  0  0  0
  -23.9687  -27.3059   19.0151 H   0  0  0  0  0  0
  -23.7861  -30.5989   19.4051 H   0  0  0  0  0  0
  -22.7594  -29.2608   19.8422 H   0  0  0  0  0  0
  -25.1287  -36.1968   25.0838 H   0  0  0  0  0  0
  -20.9975  -28.3287   24.1399 H   0  0  0  0  0  0
  -20.5676  -26.2341   23.3605 H   0  0  0  0  0  0
  -21.6650  -26.7461   22.1197 H   0  0  0  0  0  0
  -19.6925  -25.6302   21.1256 H   0  0  0  0  0  0
  -19.6695  -27.3192   20.6723 H   0  0  0  0  0  0
  -17.4209  -26.6685   21.4016 H   0  0  0  0  0  0
  -18.0339  -26.0079   22.9005 H   0  0  0  0  0  0
  -19.7925  -30.7277   24.2294 H   0  0  0  0  0  0
  -17.5006  -31.6276   24.5179 H   0  0  0  0  0  0
  -15.5355  -30.3008   23.7630 H   0  0  0  0  0  0
  -15.8671  -28.0836   22.7059 H   0  0  0  0  0  0
  -24.5987  -30.6943   25.7737 H   0  0  0  0  0  0
  -24.8834  -32.2820   26.4768 H   0  0  0  0  0  0
  -25.8060  -30.8924   27.0224 H   0  0  0  0  0  0
  -26.2875  -29.6834   24.1018 H   0  0  0  0  0  0
  -27.4012  -29.7158   25.4491 H   0  0  0  0  0  0
  -27.8747  -30.4340   23.9271 H   0  0  0  0  0  0
  -27.2828  -33.3568   26.2039 H   0  0  0  0  0  0
  -28.3986  -32.6673   25.0333 H   0  0  0  0  0  0
  -28.0715  -31.8304   26.5421 H   0  0  0  0  0  0
  -28.2630  -38.0098   24.7537 H   0  0  0  0  0  0
  -28.1058  -36.2632   24.6314 H   0  0  0  0  0  0
  -27.2301  -37.1473   25.8890 H   0  0  0  0  0  0
  -20.9426  -29.8873   21.6935 H   0  0  0  0  0  0
  -26.0194  -38.2888   24.1416 H   0  0  0  0  0  0
  -27.8162  -21.0847   17.7928 H   0  0  0  0  0  0
  -25.9845  -23.4082   16.2639 H   0  0  0  0  0  0
  -27.3017  -22.3990   15.6521 H   0  0  0  0  0  0
  -27.5063  -24.1550   15.7255 H   0  0  0  0  0  0
  -27.7544  -20.9931   21.1475 H   0  0  0  0  0  0
  -29.3447  -21.6275   21.3516 H   0  0  0  0  0  0
  -29.0783  -24.8381   21.2292 H   0  0  0  0  0  0
  -27.3584  -24.9546   21.2541 H   0  0  0  0  0  0
  -30.3245  -20.0452   19.8009 H   0  0  0  0  0  0
  -28.8123  -19.6465   19.0683 H   0  0  0  0  0  0
  -28.1182  -18.1652   20.8480 H   0  0  0  0  0  0
  -29.4544  -18.6070   21.8586 H   0  0  0  0  0  0
  -31.0904  -17.4273   20.4100 H   0  0  0  0  0  0
  -29.9013  -17.2097   19.1637 H   0  0  0  0  0  0
  -28.8388  -15.5710   21.0028 H   0  0  0  0  0  0
  1 25  1  0  0  0
  1 30  2  0  0  0
  1 82  1  0  0  0
  2  3  1  0  0  0
  2 25  1  0  0  0
  2 83  1  0  0  0
  2 84  1  0  0  0
  3  4  1  0  0  0
  3 85  1  0  0  0
  3 86  1  0  0  0
  4  5  1  0  0  0
  4 87  1  0  0  0
  4 88  1  0  0  0
  5  6  1  0  0  0
  5 26  1  0  0  0
  5 89  1  0  0  0
  6 25  1  0  0  0
  6 90  1  0  0  0
  6 91  1  0  0  0
  7  8  2  0  0  0
  7 26  1  0  0  0
  7 29  1  0  0  0
  8  9  1  0  0  0
  8 22  1  0  0  0
  9 10  1  0  0  0
  9 27  2  0  0  0
 10 11  2  0  0  0
 10 15  1  0  0  0
 11 12  1  0  0  0
 11 92  1  0  0  0
 12 13  2  0  0  0
 12 93  1  0  0  0
 13 14  1  0  0  0
 13 31  1  0  0  0
 14 15  2  0  0  0
 14 94  1  0  0  0
 15 95  1  0  0  0
 16 17  2  0  0  0
 16 21  1  0  0  0
 16 31  1  0  0  0
 17 18  1  0  0  0
 17 96  1  0  0  0
 18 19  2  0  0  0
 18 97  1  0  0  0
 19 20  1  0  0  0
 19 24  1  0  0  0
 20 21  2  0  0  0
 20 98  1  0  0  0
 21 23  1  0  0  0
 22 28  1  0  0  0
 22 32  2  0  0  0
 26 27  1  0  0  0
 28 99  1  0  0  0
 28100  1  0  0  0
 29101  1  0  0  0
 29102  1  0  0  0
 33 34  1  0  0  0
 33 66  1  0  0  0
 33 70  2  0  0  0
 34 36  1  0  0  0
 34 59  1  0  0  0
 34103  1  0  0  0
 35 44  2  0  0  0
 35 45  1  0  0  0
 35 68  1  0  0  0
 36 56  1  0  0  0
 36104  1  0  0  0
 37 39  1  0  0  0
 37 47  1  0  0  0
 37 66  1  0  0  0
 37105  1  0  0  0
 38 43  2  0  0  0
 38 46  1  0  0  0
 38 47  1  0  0  0
 39 64  1  0  0  0
 39 67  2  0  0  0
 40 52  1  0  0  0
 40 53  2  0  0  0
 40 58  1  0  0  0
 41106  1  0  0  0
 41107  1  0  0  0
 41108  1  0  0  0
 41 48  1  0  0  0
 42 43  1  0  0  0
 42 66  1  0  0  0
 42109  1  0  0  0
 42110  1  0  0  0
 43 44  1  0  0  0
 44111  1  0  0  0
 45 46  2  0  0  0
 45112  1  0  0  0
 46113  1  0  0  0
 47114  1  0  0  0
 47115  1  0  0  0
 48 56  1  0  0  0
 48 65  1  0  0  0
 48116  1  0  0  0
 49 50  1  0  0  0
 49 53  1  0  0  0
 49 64  1  0  0  0
 49117  1  0  0  0
 50 51  1  0  0  0
 50118  1  0  0  0
 50119  1  0  0  0
 51 52  1  0  0  0
 51120  1  0  0  0
 51121  1  0  0  0
 52122  1  0  0  0
 52123  1  0  0  0
 53 54  1  0  0  0
 54 55  2  0  0  0
 54124  1  0  0  0
 55 57  1  0  0  0
 55125  1  0  0  0
 56 69  2  0  0  0
 57 58  2  0  0  0
 57126  1  0  0  0
 58127  1  0  0  0
 59 60  1  0  0  0
 59 61  1  0  0  0
 59 62  1  0  0  0
 60128  1  0  0  0
 60129  1  0  0  0
 60130  1  0  0  0
 61131  1  0  0  0
 61132  1  0  0  0
 61133  1  0  0  0
 62134  1  0  0  0
 62135  1  0  0  0
 62136  1  0  0  0
 63 65  1  0  0  0
 63137  1  0  0  0
 63138  1  0  0  0
 63139  1  0  0  0
 64140  1  0  0  0
 65141  1  0  0  0
 68 76  1  0  0  0
 71 72  2  0  0  0
 71 81  1  0  0  0
 71142  1  0  0  0
 72 73  1  0  0  0
 72 75  1  0  0  0
 73 76  1  0  0  0
 73 80  2  0  0  0
 74 81  1  0  0  0
 74143  1  0  0  0
 74144  1  0  0  0
 74145  1  0  0  0
 75 77  1  0  0  0
 75146  1  0  0  0
 75147  1  0  0  0
 76148  1  0  0  0
 76149  1  0  0  0
 77 78  1  0  0  0
 77150  1  0  0  0
 77151  1  0  0  0
 78 79  1  0  0  0
 78152  1  0  0  0
 78153  1  0  0  0
 79 82  1  0  0  0
 79154  1  0  0  0
 79155  1  0  0  0
 80 81  1  0  0  0
 82156  1  0  0  0
M  ISO  4   1 100  68 101  76 101  82 100
M  END
> <chiral flag>
0

> <version>
0

> <s_m_source_file>
/data/baiqing/PycharmProjects/Reinvent-master-3.2/result/LINK_invent/BTK/process_docking_weight1_custom_sum_contain_oxygen_bond_distance_aromatic_linkinvent_7_9_3/rearranged_h_0041.sdf

> <i_m_source_file_index>
37

> <r_mmod_Potential_Energy-OPLS-2005>
105.979095458984

> <r_mmod_Stretch_Energy-OPLS-2005>
111.753211975098

> <r_mmod_Bend_Energy-OPLS-2005>
160.710876464844

> <r_mmod_Torsional_Energy-OPLS-2005>
225.484741210938

> <r_mmod_Improper_Torsional_Energy-OPLS-2005>
6.82375860214233

> <r_mmod_Van_der_Waal_Energy-OPLS-2005>
114.824333190918

> <r_mmod_Electrostatic_Energy-OPLS-2005>
-346.564270019531

> <r_mmod_Solvation_Energy-OPLS-2005>
-227.869766235352

> <b_mmod_Minimization_Converged-OPLS-2005>
0

> <r_mmod_RMS_Derivative-OPLS-2005>
3.33373379707336

$$$$
37
                    3D
 Structure written by MMmdl.
159167  0  0  1  0            999 V2000
  -30.6396  -14.5360   20.5679 C   0  0  0  0  0  0
  -30.4351  -12.3492   19.4223 C   0  0  0  0  0  0
  -29.4988  -12.5115   18.2056 C   0  0  0  0  0  0
  -28.0189  -12.3563   18.6145 C   0  0  0  0  0  0
  -27.6530  -13.2036   19.8623 C   0  0  2  0  0  0
  -28.6921  -12.9927   20.9840 C   0  0  0  0  0  0
  -25.2537  -13.8139   20.5662 C   0  0  0  0  0  0
  -24.1797  -13.0406   20.9139 C   0  0  0  0  0  0
  -24.6355  -11.6871   20.8684 C   0  0  0  0  0  0
  -23.9029  -10.4260   21.0374 C   0  0  0  0  0  0
  -24.3600   -9.4197   21.9151 C   0  0  0  0  0  0
  -23.6291   -8.2228   22.0735 C   0  0  0  0  0  0
  -22.4268   -8.0254   21.3534 C   0  0  0  0  0  0
  -21.9896   -9.0206   20.4626 C   0  0  0  0  0  0
  -22.7209  -10.2092   20.3025 C   0  0  0  0  0  0
  -21.6854   -6.0719   22.5278 C   0  0  0  0  0  0
  -21.4006   -6.5623   23.8213 C   0  0  0  0  0  0
  -21.3671   -5.6786   24.9180 C   0  0  0  0  0  0
  -21.6054   -4.3049   24.7234 C   0  0  0  0  0  0
  -21.8813   -3.8136   23.4362 C   0  0  0  0  0  0
  -21.9190   -4.6948   22.3409 C   0  0  0  0  0  0
  -22.7831  -13.5190   21.1872 C   0  0  0  0  0  0
  -22.1658   -4.2126   21.0995 F   0  0  0  0  0  0
  -21.5648   -3.4545   25.7757 F   0  0  0  0  0  0
  -30.0182  -13.3303   20.4366 N   0  0  0  0  0  0
  -26.2964  -12.9310   20.3268 N   0  0  0  0  0  0
  -25.9272  -11.6461   20.5662 N   0  0  0  0  0  0
  -22.0532  -12.8122   22.0449 N   0  0  0  0  0  0
  -25.4218  -15.1879   20.4161 N   0  0  0  0  0  0
  -31.7802  -14.7496   20.1480 O   0  0  0  0  0  0
  -21.6648   -6.8855   21.4241 O   0  0  0  0  0  0
  -22.3482  -14.5516   20.6790 O   0  0  0  0  0  0
  -24.6188  -31.8593   23.2034 C   0  0  0  0  0  0
  -25.9043  -32.4794   23.8348 C   0  0  1  0  0  0
  -27.2558  -27.3869   20.1062 C   0  0  0  0  0  0
  -25.5921  -33.8614   24.2266 N   0  0  0  0  0  0
  -23.4095  -30.4765   21.5460 C   0  0  2  0  0  0
  -24.8651  -28.9334   20.1144 C   0  0  0  0  0  0
  -22.7425  -29.4590   22.4997 C   0  0  0  0  0  0
  -18.0249  -28.1293   22.8488 C   0  0  0  0  0  0
  -24.1515  -36.7300   23.2653 C   0  0  0  0  0  0
  -25.9426  -30.8109   21.3667 C   0  0  0  0  0  0
  -26.0249  -29.4450   20.7079 C   0  0  0  0  0  0
  -27.2204  -28.6829   20.6890 C   0  0  0  0  0  0
  -26.0677  -26.8915   19.5221 C   0  0  0  0  0  0
  -24.8862  -27.6612   19.5186 C   0  0  0  0  0  0
  -23.6190  -29.7940   20.1677 C   0  0  0  0  0  0
  -25.4146  -36.3106   24.0302 C   0  0  1  0  0  0
  -20.5843  -28.3631   23.1278 C   0  0  2  0  0  0
  -20.6764  -26.9362   22.5404 C   0  0  0  0  0  0
  -19.5755  -26.6304   21.5218 C   0  0  0  0  0  0
  -18.1909  -26.7820   22.1604 C   0  0  0  0  0  0
  -19.1497  -28.8788   23.2860 C   0  0  0  0  0  0
  -18.9462  -30.1421   23.8840 C   0  0  0  0  0  0
  -17.6470  -30.6545   24.0557 C   0  0  0  0  0  0
  -25.9073  -34.9473   23.5071 C   0  0  0  0  0  0
  -16.5361  -29.9039   23.6347 C   0  0  0  0  0  0
  -16.7231  -28.6446   23.0352 C   0  0  0  0  0  0
  -26.4442  -31.6622   25.0711 C   0  0  0  0  0  0
  -25.3652  -31.3747   26.1440 C   0  0  0  0  0  0
  -27.0374  -30.3072   24.6182 C   0  0  0  0  0  0
  -27.6021  -32.4397   25.7429 C   0  0  0  0  0  0
  -27.5571  -37.1811   24.8441 C   0  0  0  0  0  0
  -21.4141  -29.3027   22.3729 N   0  0  0  0  0  0
  -26.4311  -37.3818   23.9366 N   0  0  0  0  0  0
  -24.6750  -31.0637   22.0968 N   0  0  0  0  0  0
  -23.4150  -28.8090   23.3044 O   0  0  0  0  0  0
  -28.4504  -26.6752   20.1316 O   0  0  0  0  0  0
  -26.5630  -34.8935   22.4632 O   0  0  0  0  0  0
  -23.5356  -32.1362   23.7420 O   0  0  0  0  0  0
  -30.3134  -21.1219   20.9041 C   0  0  0  0  0  0
  -29.0611  -20.5791   20.7217 C   0  0  0  0  0  0
  -28.9393  -22.8248   20.7620 C   0  0  0  0  0  0
  -31.6140  -20.4258   21.1714 C   0  0  0  0  0  0
  -26.7499  -21.6179   20.4616 C   0  0  0  0  0  0
  -28.5693  -19.1218   20.7500 C   0  0  0  0  0  0
  -28.3884  -24.2552   20.9289 C   0  0  0  0  0  0
  -29.4545  -17.9335   20.2168 C   0  0  0  0  0  0
  -30.1170  -16.9710   21.2646 C   0  0  0  0  0  0
  -28.5688  -25.2714   19.7533 C   0  0  0  0  0  0
  -30.2316  -22.5199   20.8992 N   0  0  0  0  0  0
  -28.1939  -21.6929   20.6206 N   0  0  0  0  0  0
  -29.8500  -15.5253   21.0538 N   0  0  0  0  0  0
  -31.4741  -12.4838   19.1201 H   0  0  0  0  0  0
  -30.3710  -11.3375   19.8272 H   0  0  0  0  0  0
  -29.7508  -11.7840   17.4350 H   0  0  0  0  0  0
  -29.6474  -13.4940   17.7562 H   0  0  0  0  0  0
  -27.8404  -11.2999   18.8181 H   0  0  0  0  0  0
  -27.3691  -12.6167   17.7781 H   0  0  0  0  0  0
  -27.6870  -14.2498   19.5537 H   0  0  0  0  0  0
  -28.6815  -11.9530   21.3127 H   0  0  0  0  0  0
  -28.4380  -13.5781   21.8688 H   0  0  0  0  0  0
  -25.2760   -9.5695   22.4689 H   0  0  0  0  0  0
  -24.0026   -7.4629   22.7450 H   0  0  0  0  0  0
  -21.0830   -8.8683   19.8933 H   0  0  0  0  0  0
  -22.3649  -10.9602   19.6112 H   0  0  0  0  0  0
  -21.1977   -7.6120   23.9701 H   0  0  0  0  0  0
  -21.1513   -6.0527   25.9079 H   0  0  0  0  0  0
  -22.0583   -2.7594   23.2874 H   0  0  0  0  0  0
  -22.4192  -11.9750   22.4739 H   0  0  0  0  0  0
  -21.1157  -13.1090   22.2767 H   0  0  0  0  0  0
  -24.6519  -15.8369   20.5415 H   0  0  0  0  0  0
  -26.2757  -15.6413   20.1173 H   0  0  0  0  0  0
  -26.7108  -32.5457   23.1090 H   0  0  0  0  0  0
  -25.0207  -33.9837   25.0489 H   0  0  0  0  0  0
  -22.7030  -31.2969   21.3999 H   0  0  0  0  0  0
  -23.3801  -35.9616   23.3338 H   0  0  0  0  0  0
  -24.3618  -36.8911   22.2079 H   0  0  0  0  0  0
  -23.7285  -37.6506   23.6672 H   0  0  0  0  0  0
  -26.0657  -31.5809   20.6034 H   0  0  0  0  0  0
  -26.8247  -30.8593   21.9939 H   0  0  0  0  0  0
  -28.1204  -29.0815   21.1374 H   0  0  0  0  0  0
  -26.0321  -25.9105   19.0742 H   0  0  0  0  0  0
  -23.9916  -27.2573   19.0691 H   0  0  0  0  0  0
  -23.7044  -30.5589   19.3967 H   0  0  0  0  0  0
  -22.7470  -29.1968   19.8901 H   0  0  0  0  0  0
  -25.1344  -36.1966   25.0794 H   0  0  0  0  0  0
  -20.9939  -28.3200   24.1390 H   0  0  0  0  0  0
  -20.5704  -26.2229   23.3596 H   0  0  0  0  0  0
  -21.6623  -26.7396   22.1195 H   0  0  0  0  0  0
  -19.6954  -25.6217   21.1251 H   0  0  0  0  0  0
  -19.6676  -27.3133   20.6754 H   0  0  0  0  0  0
  -17.4204  -26.6604   21.3967 H   0  0  0  0  0  0
  -18.0282  -25.9885   22.8908 H   0  0  0  0  0  0
  -19.7971  -30.7262   24.2084 H   0  0  0  0  0  0
  -17.5051  -31.6217   24.5173 H   0  0  0  0  0  0
  -15.5388  -30.2959   23.7698 H   0  0  0  0  0  0
  -15.8590  -28.0807   22.7040 H   0  0  0  0  0  0
  -24.5897  -30.6998   25.7759 H   0  0  0  0  0  0
  -24.8748  -32.2914   26.4754 H   0  0  0  0  0  0
  -25.7963  -30.9030   27.0281 H   0  0  0  0  0  0
  -26.3003  -29.6753   24.1235 H   0  0  0  0  0  0
  -27.4148  -29.7393   25.4698 H   0  0  0  0  0  0
  -27.8763  -30.4392   23.9349 H   0  0  0  0  0  0
  -27.2664  -33.3770   26.1861 H   0  0  0  0  0  0
  -28.3859  -32.6852   25.0245 H   0  0  0  0  0  0
  -28.0622  -31.8601   26.5442 H   0  0  0  0  0  0
  -28.2608  -38.0106   24.7570 H   0  0  0  0  0  0
  -28.1058  -36.2641   24.6208 H   0  0  0  0  0  0
  -27.2253  -37.1406   25.8839 H   0  0  0  0  0  0
  -20.9320  -29.8745   21.6939 H   0  0  0  0  0  0
  -26.0170  -38.2870   24.1425 H   0  0  0  0  0  0
  -32.1128  -20.1392   20.2461 H   0  0  0  0  0  0
  -31.4598  -19.5205   21.7582 H   0  0  0  0  0  0
  -32.3008  -21.0529   21.7422 H   0  0  0  0  0  0
  -26.4961  -20.9230   19.6608 H   0  0  0  0  0  0
  -26.3256  -22.5862   20.2005 H   0  0  0  0  0  0
  -26.2978  -21.2710   21.3928 H   0  0  0  0  0  0
  -27.6540  -19.0746   20.1612 H   0  0  0  0  0  0
  -28.2318  -18.8868   21.7592 H   0  0  0  0  0  0
  -28.8990  -24.6744   21.7975 H   0  0  0  0  0  0
  -27.3405  -24.2263   21.2220 H   0  0  0  0  0  0
  -30.1877  -18.2847   19.4888 H   0  0  0  0  0  0
  -28.7821  -17.3133   19.6230 H   0  0  0  0  0  0
  -29.7320  -17.2074   22.2572 H   0  0  0  0  0  0
  -31.1908  -17.1538   21.3166 H   0  0  0  0  0  0
  -27.9527  -25.0062   18.8956 H   0  0  0  0  0  0
  -29.5962  -25.1739   19.3934 H   0  0  0  0  0  0
  -28.9374  -15.2063   21.3446 H   0  0  0  0  0  0
  1 25  1  0  0  0
  1 30  2  0  0  0
  1 83  1  0  0  0
  2  3  1  0  0  0
  2 25  1  0  0  0
  2 84  1  0  0  0
  2 85  1  0  0  0
  3  4  1  0  0  0
  3 86  1  0  0  0
  3 87  1  0  0  0
  4  5  1  0  0  0
  4 88  1  0  0  0
  4 89  1  0  0  0
  5  6  1  0  0  0
  5 26  1  0  0  0
  5 90  1  0  0  0
  6 25  1  0  0  0
  6 91  1  0  0  0
  6 92  1  0  0  0
  7  8  2  0  0  0
  7 26  1  0  0  0
  7 29  1  0  0  0
  8  9  1  0  0  0
  8 22  1  0  0  0
  9 10  1  0  0  0
  9 27  2  0  0  0
 10 11  2  0  0  0
 10 15  1  0  0  0
 11 12  1  0  0  0
 11 93  1  0  0  0
 12 13  2  0  0  0
 12 94  1  0  0  0
 13 14  1  0  0  0
 13 31  1  0  0  0
 14 15  2  0  0  0
 14 95  1  0  0  0
 15 96  1  0  0  0
 16 17  2  0  0  0
 16 21  1  0  0  0
 16 31  1  0  0  0
 17 18  1  0  0  0
 17 97  1  0  0  0
 18 19  2  0  0  0
 18 98  1  0  0  0
 19 20  1  0  0  0
 19 24  1  0  0  0
 20 21  2  0  0  0
 20 99  1  0  0  0
 21 23  1  0  0  0
 22 28  1  0  0  0
 22 32  2  0  0  0
 26 27  1  0  0  0
 28100  1  0  0  0
 28101  1  0  0  0
 29102  1  0  0  0
 29103  1  0  0  0
 33 34  1  0  0  0
 33 66  1  0  0  0
 33 70  2  0  0  0
 34 36  1  0  0  0
 34 59  1  0  0  0
 34104  1  0  0  0
 35 44  2  0  0  0
 35 45  1  0  0  0
 35 68  1  0  0  0
 36 56  1  0  0  0
 36105  1  0  0  0
 37 39  1  0  0  0
 37 47  1  0  0  0
 37 66  1  0  0  0
 37106  1  0  0  0
 38 43  2  0  0  0
 38 46  1  0  0  0
 38 47  1  0  0  0
 39 64  1  0  0  0
 39 67  2  0  0  0
 40 52  1  0  0  0
 40 53  2  0  0  0
 40 58  1  0  0  0
 41107  1  0  0  0
 41108  1  0  0  0
 41109  1  0  0  0
 41 48  1  0  0  0
 42 43  1  0  0  0
 42 66  1  0  0  0
 42110  1  0  0  0
 42111  1  0  0  0
 43 44  1  0  0  0
 44112  1  0  0  0
 45 46  2  0  0  0
 45113  1  0  0  0
 46114  1  0  0  0
 47115  1  0  0  0
 47116  1  0  0  0
 48 56  1  0  0  0
 48 65  1  0  0  0
 48117  1  0  0  0
 49 50  1  0  0  0
 49 53  1  0  0  0
 49 64  1  0  0  0
 49118  1  0  0  0
 50 51  1  0  0  0
 50119  1  0  0  0
 50120  1  0  0  0
 51 52  1  0  0  0
 51121  1  0  0  0
 51122  1  0  0  0
 52123  1  0  0  0
 52124  1  0  0  0
 53 54  1  0  0  0
 54 55  2  0  0  0
 54125  1  0  0  0
 55 57  1  0  0  0
 55126  1  0  0  0
 56 69  2  0  0  0
 57 58  2  0  0  0
 57127  1  0  0  0
 58128  1  0  0  0
 59 60  1  0  0  0
 59 61  1  0  0  0
 59 62  1  0  0  0
 60129  1  0  0  0
 60130  1  0  0  0
 60131  1  0  0  0
 61132  1  0  0  0
 61133  1  0  0  0
 61134  1  0  0  0
 62135  1  0  0  0
 62136  1  0  0  0
 62137  1  0  0  0
 63 65  1  0  0  0
 63138  1  0  0  0
 63139  1  0  0  0
 63140  1  0  0  0
 64141  1  0  0  0
 65142  1  0  0  0
 68 80  1  0  0  0
 71 72  2  0  0  0
 71 74  1  0  0  0
 71 81  1  0  0  0
 72 76  1  0  0  0
 72 82  1  0  0  0
 73 77  1  0  0  0
 73 81  2  0  0  0
 73 82  1  0  0  0
 74143  1  0  0  0
 74144  1  0  0  0
 74145  1  0  0  0
 75 82  1  0  0  0
 75146  1  0  0  0
 75147  1  0  0  0
 75148  1  0  0  0
 76 78  1  0  0  0
 76149  1  0  0  0
 76150  1  0  0  0
 77 80  1  0  0  0
 77151  1  0  0  0
 77152  1  0  0  0
 78 79  1  0  0  0
 78153  1  0  0  0
 78154  1  0  0  0
 79 83  1  0  0  0
 79155  1  0  0  0
 79156  1  0  0  0
 80157  1  0  0  0
 80158  1  0  0  0
 83159  1  0  0  0
M  ISO  4   1 100  68 101  80 101  83 100
M  END
> <chiral flag>
0

> <version>
0

> <s_m_source_file>
/data/baiqing/PycharmProjects/Reinvent-master-3.2/result/LINK_invent/BTK/process_docking_weight1_custom_sum_contain_oxygen_bond_distance_aromatic_linkinvent_7_9_3/rearranged_h_0041.sdf

> <i_m_source_file_index>
38

> <r_mmod_Potential_Energy-OPLS-2005>
-74.2318267822266

> <r_mmod_Stretch_Energy-OPLS-2005>
53.771183013916

> <r_mmod_Bend_Energy-OPLS-2005>
140.874465942383

> <r_mmod_Torsional_Energy-OPLS-2005>
211.661636352539

> <r_mmod_Improper_Torsional_Energy-OPLS-2005>
4.40285921096802

> <r_mmod_Van_der_Waal_Energy-OPLS-2005>
121.111351013184

> <r_mmod_Electrostatic_Energy-OPLS-2005>
-397.570465087891

> <r_mmod_Solvation_Energy-OPLS-2005>
-230.885238647461

> <b_mmod_Minimization_Converged-OPLS-2005>
0

> <r_mmod_RMS_Derivative-OPLS-2005>
4.35220146179199

$$$$
38
                    3D
 Structure written by MMmdl.
163171  0  0  1  0            999 V2000
  -31.3363  -14.7141   20.0242 C   0  0  0  0  0  0
  -30.9770  -12.3104   19.5821 C   0  0  0  0  0  0
  -30.3680  -12.4606   18.2371 C   0  0  0  0  0  0
  -29.0280  -13.0485   18.3992 C   0  0  0  0  0  0
  -28.3673  -14.1072   19.7033 C   0  0  2  0  0  0
  -29.4356  -13.5872   20.8283 C   0  0  0  0  0  0
  -24.5816  -14.4375   20.9631 C   0  0  0  0  0  0
  -23.8101  -13.3666   21.3616 C   0  0  0  0  0  0
  -24.3428  -12.1141   20.9830 C   0  0  0  0  0  0
  -23.8246  -10.6655   21.0273 C   0  0  0  0  0  0
  -24.3226   -9.6425   21.8981 C   0  0  0  0  0  0
  -23.6653   -8.3821   22.0523 C   0  0  0  0  0  0
  -22.4743   -8.1014   21.3375 C   0  0  0  0  0  0
  -22.0200   -9.0744   20.4277 C   0  0  0  0  0  0
  -22.6838  -10.3130   20.2697 C   0  0  0  0  0  0
  -21.7329   -6.1064   22.5198 C   0  0  0  0  0  0
  -21.4362   -6.5882   23.8144 C   0  0  0  0  0  0
  -21.3764   -5.6970   24.9073 C   0  0  0  0  0  0
  -21.6027   -4.3209   24.7122 C   0  0  0  0  0  0
  -21.8775   -3.8333   23.4231 C   0  0  0  0  0  0
  -21.9345   -4.7204   22.3324 C   0  0  0  0  0  0
  -22.3800  -13.5818   21.4535 C   0  0  0  0  0  0
  -22.1727   -4.2322   21.0910 F   0  0  0  0  0  0
  -21.5536   -3.4660   25.7618 F   0  0  0  0  0  0
  -30.6725  -13.5698   20.2406 N   0  0  0  0  0  0
  -25.4970  -14.0204   20.1331 N   0  0  0  0  0  0
  -24.6971  -12.7419   19.8930 N   0  0  0  0  0  0
  -21.7176  -12.7496   22.2266 N   0  0  0  0  0  0
  -24.4850  -15.7912   21.0164 N   0  0  0  0  0  0
  -32.4996  -14.7699   20.3119 O   0  0  0  0  0  0
  -21.7419   -6.9281   21.4132 O   0  0  0  0  0  0
  -21.8725  -14.5007   20.8131 O   0  0  0  0  0  0
  -24.7214  -31.7502   23.1236 C   0  0  0  0  0  0
  -25.9636  -32.4183   23.7874 C   0  0  1  0  0  0
  -26.8630  -26.1551   20.2387 C   0  0  0  0  0  0
  -25.6064  -33.8051   24.1702 N   0  0  0  0  0  0
  -23.5431  -30.3634   21.4922 C   0  0  2  0  0  0
  -24.9297  -28.6234   20.0907 C   0  0  0  0  0  0
  -22.7844  -29.4101   22.4577 C   0  0  0  0  0  0
  -18.0345  -28.1431   22.8441 C   0  0  0  0  0  0
  -24.1506  -36.7030   23.2661 C   0  0  0  0  0  0
  -26.1314  -30.2842   21.4660 C   0  0  0  0  0  0
  -26.1147  -28.8064   20.8052 C   0  0  0  0  0  0
  -27.0682  -27.6005   20.8470 C   0  0  0  0  0  0
  -25.7408  -26.3385   19.3990 C   0  0  0  0  0  0
  -24.8205  -27.4347   19.3529 C   0  0  0  0  0  0
  -23.7954  -29.6703   20.1206 C   0  0  0  0  0  0
  -25.4174  -36.2732   24.0243 C   0  0  1  0  0  0
  -20.5987  -28.3796   23.1081 C   0  0  2  0  0  0
  -20.6790  -26.9427   22.5407 C   0  0  0  0  0  0
  -19.5774  -26.6351   21.5217 C   0  0  0  0  0  0
  -18.1958  -26.7953   22.1613 C   0  0  0  0  0  0
  -19.1617  -28.8945   23.2739 C   0  0  0  0  0  0
  -18.9524  -30.1521   23.8798 C   0  0  0  0  0  0
  -17.6512  -30.6607   24.0545 C   0  0  0  0  0  0
  -25.9189  -34.9137   23.4837 C   0  0  0  0  0  0
  -16.5399  -29.9086   23.6358 C   0  0  0  0  0  0
  -16.7326  -28.6510   23.0373 C   0  0  0  0  0  0
  -26.4671  -31.6437   25.0698 C   0  0  0  0  0  0
  -25.3622  -31.3898   26.1236 C   0  0  0  0  0  0
  -27.0672  -30.2723   24.6971 C   0  0  0  0  0  0
  -27.6036  -32.4417   25.7519 C   0  0  0  0  0  0
  -27.5554  -37.1673   24.8463 C   0  0  0  0  0  0
  -21.4468  -29.2984   22.3351 N   0  0  0  0  0  0
  -26.4254  -37.3550   23.9406 N   0  0  0  0  0  0
  -24.8330  -30.8484   22.0753 N   0  0  0  0  0  0
  -23.4158  -28.7715   23.3031 O   0  0  0  0  0  0
  -27.4665  -24.6056   20.3631 O   0  0  0  0  0  0
  -26.5881  -34.8798   22.4492 O   0  0  0  0  0  0
  -23.6176  -32.0858   23.5944 O   0  0  0  0  0  0
  -27.1429  -15.0540   21.4392 C   0  0  0  0  0  0
  -26.9468  -16.2168   20.0645 C   0  0  0  0  0  0
  -26.7301  -15.2769   18.5495 C   0  0  0  0  0  0
  -26.6626  -13.4244   18.3489 C   0  0  0  0  0  0
  -25.9091  -11.2928   17.1162 C   0  0  0  0  0  0
  -27.3101  -18.3164   20.1886 C   0  0  0  0  0  0
  -27.3708  -16.0391   17.3560 C   0  0  0  0  0  0
  -26.3441  -12.7612   17.0050 C   0  0  0  0  0  0
  -26.8096  -20.4836   20.2842 C   0  0  0  0  0  0
  -28.9215  -16.4787   17.5250 C   0  0  0  0  0  0
  -30.3951  -15.9304   17.8890 C   0  0  0  0  0  0
  -27.1393  -22.6738   19.9466 C   0  0  0  0  0  0
  -27.1299  -13.2490   21.4236 N   0  0  0  0  0  0
  -27.0125  -12.3710   19.8743 N   0  0  0  0  0  0
  -30.8107  -15.7803   19.3391 N   0  0  0  0  0  0
  -32.0564  -12.1675   19.5027 H   0  0  0  0  0  0
  -30.5916  -11.4281   20.0958 H   0  0  0  0  0  0
  -30.3618  -11.4991   17.7149 H   0  0  0  0  0  0
  -31.0142  -13.0823   17.6219 H   0  0  0  0  0  0
  -28.5800  -12.0580   18.3132 H   0  0  0  0  0  0
  -28.8888  -13.4663   17.4076 H   0  0  0  0  0  0
  -28.7605  -15.0713   19.6004 H   0  0  0  0  0  0
  -29.3013  -12.5783   21.2288 H   0  0  0  0  0  0
  -29.5020  -14.2407   21.7025 H   0  0  0  0  0  0
  -25.1963   -9.8544   22.4982 H   0  0  0  0  0  0
  -24.0704   -7.6530   22.7398 H   0  0  0  0  0  0
  -21.1302   -8.8791   19.8459 H   0  0  0  0  0  0
  -22.2654  -11.0443   19.5920 H   0  0  0  0  0  0
  -21.2503   -7.6409   23.9698 H   0  0  0  0  0  0
  -21.1560   -6.0697   25.8970 H   0  0  0  0  0  0
  -22.0393   -2.7776   23.2686 H   0  0  0  0  0  0
  -22.1945  -12.0136   22.7253 H   0  0  0  0  0  0
  -20.7176  -12.8461   22.3305 H   0  0  0  0  0  0
  -23.6235  -16.2380   21.3077 H   0  0  0  0  0  0
  -25.0296  -16.3486   20.3667 H   0  0  0  0  0  0
  -26.7731  -32.4475   23.0568 H   0  0  0  0  0  0
  -25.0056  -33.9024   24.9754 H   0  0  0  0  0  0
  -22.8942  -31.2207   21.3012 H   0  0  0  0  0  0
  -23.3802  -35.9321   23.3220 H   0  0  0  0  0  0
  -24.3560  -36.8827   22.2097 H   0  0  0  0  0  0
  -23.7236  -37.6148   23.6847 H   0  0  0  0  0  0
  -26.4184  -30.9747   20.6718 H   0  0  0  0  0  0
  -26.9638  -30.3198   22.1543 H   0  0  0  0  0  0
  -27.9345  -27.7181   21.4825 H   0  0  0  0  0  0
  -25.4527  -25.4756   18.8152 H   0  0  0  0  0  0
  -23.9430  -27.3064   18.7339 H   0  0  0  0  0  0
  -24.0403  -30.4327   19.3800 H   0  0  0  0  0  0
  -22.8722  -29.2095   19.7652 H   0  0  0  0  0  0
  -25.1406  -36.1426   25.0730 H   0  0  0  0  0  0
  -21.0073  -28.3451   24.1207 H   0  0  0  0  0  0
  -20.5621  -26.2431   23.3697 H   0  0  0  0  0  0
  -21.6650  -26.7317   22.1246 H   0  0  0  0  0  0
  -19.6920  -25.6234   21.1314 H   0  0  0  0  0  0
  -19.6727  -27.3105   20.6704 H   0  0  0  0  0  0
  -17.4227  -26.6703   21.4014 H   0  0  0  0  0  0
  -18.0330  -26.0118   22.9030 H   0  0  0  0  0  0
  -19.8002  -30.7359   24.2122 H   0  0  0  0  0  0
  -17.5064  -31.6276   24.5167 H   0  0  0  0  0  0
  -15.5396  -30.2960   23.7736 H   0  0  0  0  0  0
  -15.8725  -28.0797   22.7144 H   0  0  0  0  0  0
  -24.5855  -30.7194   25.7535 H   0  0  0  0  0  0
  -24.8766  -32.3163   26.4307 H   0  0  0  0  0  0
  -25.7698  -30.9292   27.0243 H   0  0  0  0  0  0
  -26.3424  -29.6137   24.2177 H   0  0  0  0  0  0
  -27.4086  -29.7432   25.5879 H   0  0  0  0  0  0
  -27.9429  -30.3727   24.0558 H   0  0  0  0  0  0
  -27.2523  -33.3850   26.1712 H   0  0  0  0  0  0
  -28.4025  -32.6767   25.0474 H   0  0  0  0  0  0
  -28.0507  -31.8823   26.5745 H   0  0  0  0  0  0
  -28.2496  -38.0036   24.7527 H   0  0  0  0  0  0
  -28.1123  -36.2550   24.6272 H   0  0  0  0  0  0
  -27.2265  -37.1271   25.8862 H   0  0  0  0  0  0
  -20.9818  -29.8646   21.6391 H   0  0  0  0  0  0
  -26.0033  -38.2571   24.1437 H   0  0  0  0  0  0
  -27.3215  -15.4709   22.4191 H   0  0  0  0  0  0
  -25.6940  -10.8785   16.1313 H   0  0  0  0  0  0
  -25.0097  -11.1862   17.7220 H   0  0  0  0  0  0
  -26.6911  -10.6824   17.5679 H   0  0  0  0  0  0
  -28.2056  -18.4494   19.6025 H   0  0  0  0  0  0
  -27.7291  -18.2511   21.1929 H   0  0  0  0  0  0
  -26.7773  -16.9417   17.2070 H   0  0  0  0  0  0
  -27.2219  -15.4579   16.4419 H   0  0  0  0  0  0
  -27.1782  -12.8469   16.3117 H   0  0  0  0  0  0
  -25.5331  -13.3332   16.5542 H   0  0  0  0  0  0
  -26.2626  -20.5158   21.2262 H   0  0  0  0  0  0
  -26.0162  -20.4110   19.5405 H   0  0  0  0  0  0
  -28.8718  -15.4235   17.5871 H   0  0  0  0  0  0
  -28.8332  -17.0577   18.4156 H   0  0  0  0  0  0
  -30.7391  -15.1047   17.2648 H   0  0  0  0  0  0
  -31.0576  -16.7274   17.5501 H   0  0  0  0  0  0
  -26.1642  -22.8662   19.4988 H   0  0  0  0  0  0
  -27.8048  -22.6096   19.0856 H   0  0  0  0  0  0
  -31.3071  -16.6122   19.6260 H   0  0  0  0  0  0
  1 25  1  0  0  0
  1 30  2  0  0  0
  1 85  1  0  0  0
  2  3  1  0  0  0
  2 25  1  0  0  0
  2 86  1  0  0  0
  2 87  1  0  0  0
  3  4  1  0  0  0
  3 88  1  0  0  0
  3 89  1  0  0  0
  4  5  1  0  0  0
  4 90  1  0  0  0
  4 91  1  0  0  0
  5  6  1  0  0  0
  5 26  1  0  0  0
  5 92  1  0  0  0
  6 25  1  0  0  0
  6 93  1  0  0  0
  6 94  1  0  0  0
  7  8  2  0  0  0
  7 26  1  0  0  0
  7 29  1  0  0  0
  8  9  1  0  0  0
  8 22  1  0  0  0
  9 10  1  0  0  0
  9 27  2  0  0  0
 10 11  2  0  0  0
 10 15  1  0  0  0
 11 12  1  0  0  0
 11 95  1  0  0  0
 12 13  2  0  0  0
 12 96  1  0  0  0
 13 14  1  0  0  0
 13 31  1  0  0  0
 14 15  2  0  0  0
 14 97  1  0  0  0
 15 98  1  0  0  0
 16 17  2  0  0  0
 16 21  1  0  0  0
 16 31  1  0  0  0
 17 18  1  0  0  0
 17 99  1  0  0  0
 18 19  2  0  0  0
 18100  1  0  0  0
 19 20  1  0  0  0
 19 24  1  0  0  0
 20 21  2  0  0  0
 20101  1  0  0  0
 21 23  1  0  0  0
 22 28  1  0  0  0
 22 32  2  0  0  0
 26 27  1  0  0  0
 28102  1  0  0  0
 28103  1  0  0  0
 29104  1  0  0  0
 29105  1  0  0  0
 33 34  1  0  0  0
 33 66  1  0  0  0
 33 70  2  0  0  0
 34 36  1  0  0  0
 34 59  1  0  0  0
 34106  1  0  0  0
 35 44  2  0  0  0
 35 45  1  0  0  0
 35 68  1  0  0  0
 36 56  1  0  0  0
 36107  1  0  0  0
 37 39  1  0  0  0
 37 47  1  0  0  0
 37 66  1  0  0  0
 37108  1  0  0  0
 38 43  2  0  0  0
 38 46  1  0  0  0
 38 47  1  0  0  0
 39 64  1  0  0  0
 39 67  2  0  0  0
 40 52  1  0  0  0
 40 53  2  0  0  0
 40 58  1  0  0  0
 41109  1  0  0  0
 41110  1  0  0  0
 41111  1  0  0  0
 41 48  1  0  0  0
 42 43  1  0  0  0
 42 66  1  0  0  0
 42112  1  0  0  0
 42113  1  0  0  0
 43 44  1  0  0  0
 44114  1  0  0  0
 45 46  2  0  0  0
 45115  1  0  0  0
 46116  1  0  0  0
 47117  1  0  0  0
 47118  1  0  0  0
 48 56  1  0  0  0
 48 65  1  0  0  0
 48119  1  0  0  0
 49 50  1  0  0  0
 49 53  1  0  0  0
 49 64  1  0  0  0
 49120  1  0  0  0
 50 51  1  0  0  0
 50121  1  0  0  0
 50122  1  0  0  0
 51 52  1  0  0  0
 51123  1  0  0  0
 51124  1  0  0  0
 52125  1  0  0  0
 52126  1  0  0  0
 53 54  1  0  0  0
 54 55  2  0  0  0
 54127  1  0  0  0
 55 57  1  0  0  0
 55128  1  0  0  0
 56 69  2  0  0  0
 57 58  2  0  0  0
 57129  1  0  0  0
 58130  1  0  0  0
 59 60  1  0  0  0
 59 61  1  0  0  0
 59 62  1  0  0  0
 60131  1  0  0  0
 60132  1  0  0  0
 60133  1  0  0  0
 61134  1  0  0  0
 61135  1  0  0  0
 61136  1  0  0  0
 62137  1  0  0  0
 62138  1  0  0  0
 62139  1  0  0  0
 63 65  1  0  0  0
 63140  1  0  0  0
 63141  1  0  0  0
 63142  1  0  0  0
 64143  1  0  0  0
 65144  1  0  0  0
 68 82  1  0  0  0
 71 72  2  0  0  0
 71 83  1  0  0  0
 71145  1  0  0  0
 72 73  1  0  0  0
 72 76  1  0  0  0
 73 74  2  0  0  0
 73 77  1  0  0  0
 74 78  1  0  0  0
 74 84  1  0  0  0
 75 78  1  0  0  0
 75146  1  0  0  0
 75147  1  0  0  0
 75148  1  0  0  0
 76 79  1  0  0  0
 76149  1  0  0  0
 76150  1  0  0  0
 77 80  1  0  0  0
 77151  1  0  0  0
 77152  1  0  0  0
 78153  1  0  0  0
 78154  1  0  0  0
 79 82  1  0  0  0
 79155  1  0  0  0
 79156  1  0  0  0
 80 81  1  0  0  0
 80157  1  0  0  0
 80158  1  0  0  0
 81 85  1  0  0  0
 81159  1  0  0  0
 81160  1  0  0  0
 82161  1  0  0  0
 82162  1  0  0  0
 83 84  2  0  0  0
 85163  1  0  0  0
M  ISO  4   1 100  68 101  82 101  85 100
M  END
> <chiral flag>
0

> <version>
0

> <s_m_source_file>
/data/baiqing/PycharmProjects/Reinvent-master-3.2/result/LINK_invent/BTK/process_docking_weight1_custom_sum_contain_oxygen_bond_distance_aromatic_linkinvent_7_9_3/rearranged_h_0041.sdf

> <i_m_source_file_index>
39

> <r_mmod_Potential_Energy-OPLS-2005>
15184.04296875

> <r_mmod_Stretch_Energy-OPLS-2005>
8086.91064453125

> <r_mmod_Bend_Energy-OPLS-2005>
1489.93725585938

> <r_mmod_Torsional_Energy-OPLS-2005>
570.441711425781

> <r_mmod_Improper_Torsional_Energy-OPLS-2005>
49.8056526184082

> <r_mmod_Van_der_Waal_Energy-OPLS-2005>
2823.74975585938

> <r_mmod_Electrostatic_Energy-OPLS-2005>
-321.561187744141

> <r_mmod_Solvation_Energy-OPLS-2005>
-234.440124511719

> <b_mmod_Minimization_Converged-OPLS-2005>
0

> <r_mmod_RMS_Derivative-OPLS-2005>
0.97321081161499

$$$$
39
                    3D
 Structure written by MMmdl.
169177  0  0  1  0            999 V2000
  -30.7523  -14.3579   20.6539 C   0  0  0  0  0  0
  -30.4292  -12.2602   19.4088 C   0  0  0  0  0  0
  -29.4981  -12.5327   18.2088 C   0  0  0  0  0  0
  -28.0207  -12.3832   18.6184 C   0  0  0  0  0  0
  -27.6775  -13.1884   19.8943 C   0  0  2  0  0  0
  -28.7157  -12.9120   21.0057 C   0  0  0  0  0  0
  -25.2612  -13.8053   20.5603 C   0  0  0  0  0  0
  -24.1889  -13.0349   20.9138 C   0  0  0  0  0  0
  -24.6436  -11.6825   20.8759 C   0  0  0  0  0  0
  -23.9109  -10.4219   21.0468 C   0  0  0  0  0  0
  -24.3644   -9.4105   21.9223 C   0  0  0  0  0  0
  -23.6275   -8.2172   22.0772 C   0  0  0  0  0  0
  -22.4265   -8.0266   21.3544 C   0  0  0  0  0  0
  -21.9917   -9.0260   20.4665 C   0  0  0  0  0  0
  -22.7288  -10.2116   20.3091 C   0  0  0  0  0  0
  -21.6829   -6.0765   22.5306 C   0  0  0  0  0  0
  -21.3988   -6.5654   23.8238 C   0  0  0  0  0  0
  -21.3621   -5.6805   24.9199 C   0  0  0  0  0  0
  -21.6043   -4.3062   24.7244 C   0  0  0  0  0  0
  -21.8799   -3.8168   23.4355 C   0  0  0  0  0  0
  -21.9162   -4.6989   22.3422 C   0  0  0  0  0  0
  -22.7881  -13.5137   21.1784 C   0  0  0  0  0  0
  -22.1649   -4.2173   21.1010 F   0  0  0  0  0  0
  -21.5619   -3.4540   25.7759 F   0  0  0  0  0  0
  -30.0717  -13.1963   20.4824 N   0  0  0  0  0  0
  -26.3115  -12.9239   20.3422 N   0  0  0  0  0  0
  -25.9368  -11.6406   20.5848 N   0  0  0  0  0  0
  -22.0551  -12.8198   22.0407 N   0  0  0  0  0  0
  -25.4117  -15.1773   20.3889 N   0  0  0  0  0  0
  -31.7539  -14.6756   20.0033 O   0  0  0  0  0  0
  -21.6568   -6.8897   21.4277 O   0  0  0  0  0  0
  -22.3541  -14.5426   20.6611 O   0  0  0  0  0  0
  -24.6135  -31.8708   23.2150 C   0  0  0  0  0  0
  -25.9052  -32.4835   23.8404 C   0  0  1  0  0  0
  -27.2323  -27.4937   20.0673 C   0  0  0  0  0  0
  -25.5905  -33.8630   24.2317 N   0  0  0  0  0  0
  -23.3948  -30.4971   21.5595 C   0  0  2  0  0  0
  -24.8359  -28.9708   20.1168 C   0  0  0  0  0  0
  -22.7390  -29.4699   22.5080 C   0  0  0  0  0  0
  -18.0288  -28.1334   22.8454 C   0  0  0  0  0  0
  -24.1487  -36.7317   23.2640 C   0  0  0  0  0  0
  -25.9201  -30.8529   21.3572 C   0  0  0  0  0  0
  -25.9952  -29.4940   20.7015 C   0  0  0  0  0  0
  -27.1973  -28.7618   20.6745 C   0  0  0  0  0  0
  -26.0631  -26.9872   19.4537 C   0  0  0  0  0  0
  -24.8612  -27.7117   19.4961 C   0  0  0  0  0  0
  -23.5938  -29.8254   20.1761 C   0  0  0  0  0  0
  -25.4100  -36.3103   24.0343 C   0  0  1  0  0  0
  -20.5875  -28.3635   23.1363 C   0  0  2  0  0  0
  -20.6817  -26.9402   22.5404 C   0  0  0  0  0  0
  -19.5813  -26.6318   21.5225 C   0  0  0  0  0  0
  -18.1952  -26.7898   22.1534 C   0  0  0  0  0  0
  -19.1517  -28.8779   23.2930 C   0  0  0  0  0  0
  -18.9397  -30.1366   23.8960 C   0  0  0  0  0  0
  -17.6386  -30.6495   24.0563 C   0  0  0  0  0  0
  -25.9021  -34.9485   23.5119 C   0  0  0  0  0  0
  -16.5312  -29.9000   23.6277 C   0  0  0  0  0  0
  -16.7253  -28.6438   23.0274 C   0  0  0  0  0  0
  -26.4486  -31.6601   25.0713 C   0  0  0  0  0  0
  -25.3762  -31.3719   26.1469 C   0  0  0  0  0  0
  -27.0285  -30.3038   24.6071 C   0  0  0  0  0  0
  -27.6054  -32.4312   25.7479 C   0  0  0  0  0  0
  -27.5560  -37.1814   24.8468 C   0  0  0  0  0  0
  -21.4123  -29.3078   22.3866 N   0  0  0  0  0  0
  -26.4274  -37.3781   23.9415 N   0  0  0  0  0  0
  -24.6619  -31.0866   22.1013 N   0  0  0  0  0  0
  -23.4221  -28.8193   23.3024 O   0  0  0  0  0  0
  -28.3952  -26.7674   20.1319 O   0  0  0  0  0  0
  -26.5603  -34.8936   22.4688 O   0  0  0  0  0  0
  -23.5348  -32.1450   23.7582 O   0  0  0  0  0  0
  -27.7127  -21.5093   21.9599 C   0  0  0  0  0  0
  -26.5206  -21.1184   21.2712 C   0  0  0  0  0  0
  -25.7773  -23.3162   21.3185 C   0  0  0  0  0  0
  -27.0269  -23.7194   21.8599 C   0  0  0  0  0  0
  -28.8526  -20.6078   22.4092 C   0  0  0  0  0  0
  -23.3420  -23.9388   21.7054 C   0  0  0  0  0  0
  -24.6386  -24.2550   20.9416 C   0  0  0  0  0  0
  -26.1772  -19.7756   20.6285 C   0  0  0  0  0  0
  -27.5291  -25.1483   21.8104 C   0  0  0  0  0  0
  -26.8347  -18.4864   21.1184 C   0  0  0  0  0  0
  -28.0988  -18.1301   20.3072 C   0  0  0  0  0  0
  -28.6135  -16.7197   20.5885 C   0  0  0  0  0  0
  -29.9793  -16.6061   21.2919 C   0  0  0  0  0  0
  -28.2214  -25.3869   20.4404 C   0  0  0  0  0  0
  -27.9564  -22.8118   22.2315 N   0  0  0  0  0  0
  -25.5557  -22.0258   21.0063 N   0  0  0  0  0  0
  -30.2079  -15.1890   21.5437 N   0  0  0  0  0  0
  -31.4750  -12.3608   19.1085 H   0  0  0  0  0  0
  -30.3201  -11.2308   19.7573 H   0  0  0  0  0  0
  -29.7317  -11.8578   17.3833 H   0  0  0  0  0  0
  -29.6695  -13.5431   17.8322 H   0  0  0  0  0  0
  -27.8210  -11.3243   18.7838 H   0  0  0  0  0  0
  -27.3708  -12.6946   17.7998 H   0  0  0  0  0  0
  -27.7345  -14.2401   19.6289 H   0  0  0  0  0  0
  -28.6686  -11.8627   21.2996 H   0  0  0  0  0  0
  -28.4631  -13.4724   21.9067 H   0  0  0  0  0  0
  -25.2811   -9.5523   22.4765 H   0  0  0  0  0  0
  -23.9946   -7.4552   22.7491 H   0  0  0  0  0  0
  -21.0818   -8.8848   19.8988 H   0  0  0  0  0  0
  -22.3810  -10.9685   19.6204 H   0  0  0  0  0  0
  -21.1991   -7.6164   23.9744 H   0  0  0  0  0  0
  -21.1452   -6.0547   25.9101 H   0  0  0  0  0  0
  -22.0609   -2.7625   23.2876 H   0  0  0  0  0  0
  -22.4153  -11.9854   22.4788 H   0  0  0  0  0  0
  -21.1222  -13.1331   22.2699 H   0  0  0  0  0  0
  -24.6203  -15.8083   20.4673 H   0  0  0  0  0  0
  -26.2514  -15.6334   20.0595 H   0  0  0  0  0  0
  -26.7106  -32.5560   23.1158 H   0  0  0  0  0  0
  -25.0054  -33.9799   25.0459 H   0  0  0  0  0  0
  -22.6832  -31.3126   21.4228 H   0  0  0  0  0  0
  -23.3718  -35.9667   23.3325 H   0  0  0  0  0  0
  -24.3582  -36.8909   22.2041 H   0  0  0  0  0  0
  -23.7274  -37.6547   23.6641 H   0  0  0  0  0  0
  -26.0234  -31.6173   20.5858 H   0  0  0  0  0  0
  -26.8160  -30.9070   21.9669 H   0  0  0  0  0  0
  -28.0933  -29.1596   21.1351 H   0  0  0  0  0  0
  -26.0570  -26.0370   18.9432 H   0  0  0  0  0  0
  -23.9683  -27.3012   19.0455 H   0  0  0  0  0  0
  -23.6802  -30.5924   19.4061 H   0  0  0  0  0  0
  -22.7212  -29.2307   19.9001 H   0  0  0  0  0  0
  -25.1263  -36.1943   25.0827 H   0  0  0  0  0  0
  -20.9978  -28.3130   24.1488 H   0  0  0  0  0  0
  -20.5808  -26.2250   23.3579 H   0  0  0  0  0  0
  -21.6698  -26.7553   22.1170 H   0  0  0  0  0  0
  -19.6988  -25.6186   21.1372 H   0  0  0  0  0  0
  -19.6821  -27.3037   20.6691 H   0  0  0  0  0  0
  -17.4309  -26.6726   21.3818 H   0  0  0  0  0  0
  -18.0180  -25.9984   22.8820 H   0  0  0  0  0  0
  -19.7829  -30.7186   24.2432 H   0  0  0  0  0  0
  -17.4884  -31.6155   24.5175 H   0  0  0  0  0  0
  -15.5285  -30.2874   23.7539 H   0  0  0  0  0  0
  -15.8660  -28.0763   22.6928 H   0  0  0  0  0  0
  -24.5926  -30.7064   25.7832 H   0  0  0  0  0  0
  -24.8966  -32.2880   26.4926 H   0  0  0  0  0  0
  -25.8127  -30.8894   27.0226 H   0  0  0  0  0  0
  -26.2813  -29.6842   24.1100 H   0  0  0  0  0  0
  -27.4019  -29.7231   25.4516 H   0  0  0  0  0  0
  -27.8664  -30.4347   23.9224 H   0  0  0  0  0  0
  -27.2661  -33.3590   26.2102 H   0  0  0  0  0  0
  -28.3847  -32.6919   25.0307 H   0  0  0  0  0  0
  -28.0741  -31.8413   26.5368 H   0  0  0  0  0  0
  -28.2591  -38.0096   24.7472 H   0  0  0  0  0  0
  -28.1047  -36.2630   24.6323 H   0  0  0  0  0  0
  -27.2305  -37.1496   25.8883 H   0  0  0  0  0  0
  -20.9270  -29.8958   21.7242 H   0  0  0  0  0  0
  -26.0159  -38.2850   24.1412 H   0  0  0  0  0  0
  -29.3675  -21.0449   23.2642 H   0  0  0  0  0  0
  -29.5934  -20.5080   21.6191 H   0  0  0  0  0  0
  -28.5360  -19.6287   22.7451 H   0  0  0  0  0  0
  -22.5374  -24.6063   21.3988 H   0  0  0  0  0  0
  -23.4781  -24.0435   22.7825 H   0  0  0  0  0  0
  -23.0008  -22.9212   21.5172 H   0  0  0  0  0  0
  -24.4738  -24.1713   19.8673 H   0  0  0  0  0  0
  -24.8928  -25.2925   21.1296 H   0  0  0  0  0  0
  -26.3564  -19.8786   19.5583 H   0  0  0  0  0  0
  -25.0968  -19.6483   20.7121 H   0  0  0  0  0  0
  -28.2486  -25.3221   22.6129 H   0  0  0  0  0  0
  -26.7161  -25.8430   22.0077 H   0  0  0  0  0  0
  -26.1057  -17.7031   20.9242 H   0  0  0  0  0  0
  -26.9497  -18.4598   22.2010 H   0  0  0  0  0  0
  -28.8837  -18.8723   20.4191 H   0  0  0  0  0  0
  -27.8371  -18.1563   19.2478 H   0  0  0  0  0  0
  -28.6909  -16.2267   19.6199 H   0  0  0  0  0  0
  -27.8600  -16.1676   21.1551 H   0  0  0  0  0  0
  -29.9691  -17.1324   22.2459 H   0  0  0  0  0  0
  -30.7809  -17.0407   20.6860 H   0  0  0  0  0  0
  -27.6769  -24.8936   19.6381 H   0  0  0  0  0  0
  -29.1993  -24.9040   20.4384 H   0  0  0  0  0  0
  -29.5558  -14.7560   22.1809 H   0  0  0  0  0  0
  1 25  1  0  0  0
  1 30  2  0  0  0
  1 87  1  0  0  0
  2  3  1  0  0  0
  2 25  1  0  0  0
  2 88  1  0  0  0
  2 89  1  0  0  0
  3  4  1  0  0  0
  3 90  1  0  0  0
  3 91  1  0  0  0
  4  5  1  0  0  0
  4 92  1  0  0  0
  4 93  1  0  0  0
  5  6  1  0  0  0
  5 26  1  0  0  0
  5 94  1  0  0  0
  6 25  1  0  0  0
  6 95  1  0  0  0
  6 96  1  0  0  0
  7  8  2  0  0  0
  7 26  1  0  0  0
  7 29  1  0  0  0
  8  9  1  0  0  0
  8 22  1  0  0  0
  9 10  1  0  0  0
  9 27  2  0  0  0
 10 11  2  0  0  0
 10 15  1  0  0  0
 11 12  1  0  0  0
 11 97  1  0  0  0
 12 13  2  0  0  0
 12 98  1  0  0  0
 13 14  1  0  0  0
 13 31  1  0  0  0
 14 15  2  0  0  0
 14 99  1  0  0  0
 15100  1  0  0  0
 16 17  2  0  0  0
 16 21  1  0  0  0
 16 31  1  0  0  0
 17 18  1  0  0  0
 17101  1  0  0  0
 18 19  2  0  0  0
 18102  1  0  0  0
 19 20  1  0  0  0
 19 24  1  0  0  0
 20 21  2  0  0  0
 20103  1  0  0  0
 21 23  1  0  0  0
 22 28  1  0  0  0
 22 32  2  0  0  0
 26 27  1  0  0  0
 28104  1  0  0  0
 28105  1  0  0  0
 29106  1  0  0  0
 29107  1  0  0  0
 33 34  1  0  0  0
 33 66  1  0  0  0
 33 70  2  0  0  0
 34 36  1  0  0  0
 34 59  1  0  0  0
 34108  1  0  0  0
 35 44  2  0  0  0
 35 45  1  0  0  0
 35 68  1  0  0  0
 36 56  1  0  0  0
 36109  1  0  0  0
 37 39  1  0  0  0
 37 47  1  0  0  0
 37 66  1  0  0  0
 37110  1  0  0  0
 38 43  2  0  0  0
 38 46  1  0  0  0
 38 47  1  0  0  0
 39 64  1  0  0  0
 39 67  2  0  0  0
 40 52  1  0  0  0
 40 53  2  0  0  0
 40 58  1  0  0  0
 41111  1  0  0  0
 41112  1  0  0  0
 41113  1  0  0  0
 41 48  1  0  0  0
 42 43  1  0  0  0
 42 66  1  0  0  0
 42114  1  0  0  0
 42115  1  0  0  0
 43 44  1  0  0  0
 44116  1  0  0  0
 45 46  2  0  0  0
 45117  1  0  0  0
 46118  1  0  0  0
 47119  1  0  0  0
 47120  1  0  0  0
 48 56  1  0  0  0
 48 65  1  0  0  0
 48121  1  0  0  0
 49 50  1  0  0  0
 49 53  1  0  0  0
 49 64  1  0  0  0
 49122  1  0  0  0
 50 51  1  0  0  0
 50123  1  0  0  0
 50124  1  0  0  0
 51 52  1  0  0  0
 51125  1  0  0  0
 51126  1  0  0  0
 52127  1  0  0  0
 52128  1  0  0  0
 53 54  1  0  0  0
 54 55  2  0  0  0
 54129  1  0  0  0
 55 57  1  0  0  0
 55130  1  0  0  0
 56 69  2  0  0  0
 57 58  2  0  0  0
 57131  1  0  0  0
 58132  1  0  0  0
 59 60  1  0  0  0
 59 61  1  0  0  0
 59 62  1  0  0  0
 60133  1  0  0  0
 60134  1  0  0  0
 60135  1  0  0  0
 61136  1  0  0  0
 61137  1  0  0  0
 61138  1  0  0  0
 62139  1  0  0  0
 62140  1  0  0  0
 62141  1  0  0  0
 63 65  1  0  0  0
 63142  1  0  0  0
 63143  1  0  0  0
 63144  1  0  0  0
 64145  1  0  0  0
 65146  1  0  0  0
 68 84  1  0  0  0
 71 72  2  0  0  0
 71 75  1  0  0  0
 71 85  1  0  0  0
 72 78  1  0  0  0
 72 86  1  0  0  0
 73 74  1  0  0  0
 73 77  1  0  0  0
 73 86  2  0  0  0
 74 79  1  0  0  0
 74 85  2  0  0  0
 75147  1  0  0  0
 75148  1  0  0  0
 75149  1  0  0  0
 76 77  1  0  0  0
 76150  1  0  0  0
 76151  1  0  0  0
 76152  1  0  0  0
 77153  1  0  0  0
 77154  1  0  0  0
 78 80  1  0  0  0
 78155  1  0  0  0
 78156  1  0  0  0
 79 84  1  0  0  0
 79157  1  0  0  0
 79158  1  0  0  0
 80 81  1  0  0  0
 80159  1  0  0  0
 80160  1  0  0  0
 81 82  1  0  0  0
 81161  1  0  0  0
 81162  1  0  0  0
 82 83  1  0  0  0
 82163  1  0  0  0
 82164  1  0  0  0
 83 87  1  0  0  0
 83165  1  0  0  0
 83166  1  0  0  0
 84167  1  0  0  0
 84168  1  0  0  0
 87169  1  0  0  0
M  ISO  4   1 100  68 101  84 101  87 100
M  END
> <chiral flag>
0

> <version>
0

> <s_m_source_file>
/data/baiqing/PycharmProjects/Reinvent-master-3.2/result/LINK_invent/BTK/process_docking_weight1_custom_sum_contain_oxygen_bond_distance_aromatic_linkinvent_7_9_3/rearranged_h_0041.sdf

> <i_m_source_file_index>
40

> <r_mmod_Potential_Energy-OPLS-2005>
12.5894575119019

> <r_mmod_Stretch_Energy-OPLS-2005>
34.2095222473145

> <r_mmod_Bend_Energy-OPLS-2005>
127.731719970703

> <r_mmod_Torsional_Energy-OPLS-2005>
239.827941894531

> <r_mmod_Improper_Torsional_Energy-OPLS-2005>
6.69645929336548

> <r_mmod_Van_der_Waal_Energy-OPLS-2005>
166.294158935547

> <r_mmod_Electrostatic_Energy-OPLS-2005>
-355.514953613281

> <r_mmod_Solvation_Energy-OPLS-2005>
-216.023803710938

> <b_mmod_Minimization_Converged-OPLS-2005>
0

> <r_mmod_RMS_Derivative-OPLS-2005>
5.38350439071655

$$$$
40
                    3D
 Structure written by MMmdl.
156164  0  0  1  0            999 V2000
  -30.6823  -14.5096   20.5497 C   0  0  0  0  0  0
  -30.4264  -12.3238   19.4250 C   0  0  0  0  0  0
  -29.4930  -12.4979   18.2093 C   0  0  0  0  0  0
  -28.0150  -12.3570   18.6224 C   0  0  0  0  0  0
  -27.6593  -13.2072   19.8700 C   0  0  2  0  0  0
  -28.7026  -13.0102   20.9923 C   0  0  0  0  0  0
  -25.2592  -13.8162   20.5684 C   0  0  0  0  0  0
  -24.1854  -13.0453   20.9176 C   0  0  0  0  0  0
  -24.6407  -11.6911   20.8749 C   0  0  0  0  0  0
  -23.9097  -10.4289   21.0418 C   0  0  0  0  0  0
  -24.3648   -9.4195   21.9190 C   0  0  0  0  0  0
  -23.6307   -8.2242   22.0762 C   0  0  0  0  0  0
  -22.4283   -8.0292   21.3557 C   0  0  0  0  0  0
  -21.9933   -9.0273   20.4661 C   0  0  0  0  0  0
  -22.7279  -10.2135   20.3066 C   0  0  0  0  0  0
  -21.6850   -6.0746   22.5276 C   0  0  0  0  0  0
  -21.4010   -6.5651   23.8208 C   0  0  0  0  0  0
  -21.3660   -5.6802   24.9171 C   0  0  0  0  0  0
  -21.6042   -4.3062   24.7214 C   0  0  0  0  0  0
  -21.8825   -3.8157   23.4334 C   0  0  0  0  0  0
  -21.9191   -4.6976   22.3393 C   0  0  0  0  0  0
  -22.7875  -13.5239   21.1822 C   0  0  0  0  0  0
  -22.1669   -4.2169   21.0969 F   0  0  0  0  0  0
  -21.5624   -3.4545   25.7722 F   0  0  0  0  0  0
  -30.0292  -13.3194   20.4333 N   0  0  0  0  0  0
  -26.3020  -12.9334   20.3355 N   0  0  0  0  0  0
  -25.9329  -11.6496   20.5784 N   0  0  0  0  0  0
  -22.0538  -12.8234   22.0385 N   0  0  0  0  0  0
  -25.4319  -15.1881   20.4084 N   0  0  0  0  0  0
  -31.8278  -14.6873   20.1278 O   0  0  0  0  0  0
  -21.6642   -6.8896   21.4241 O   0  0  0  0  0  0
  -22.3559  -14.5549   20.6661 O   0  0  0  0  0  0
  -24.6178  -31.8687   23.2093 C   0  0  0  0  0  0
  -25.9060  -32.4830   23.8412 C   0  0  1  0  0  0
  -27.2251  -27.4106   20.0979 C   0  0  0  0  0  0
  -25.5909  -33.8625   24.2364 N   0  0  0  0  0  0
  -23.4061  -30.4944   21.5502 C   0  0  2  0  0  0
  -24.8502  -28.9574   20.1113 C   0  0  0  0  0  0
  -22.7421  -29.4696   22.4976 C   0  0  0  0  0  0
  -18.0287  -28.1405   22.8510 C   0  0  0  0  0  0
  -24.1473  -36.7294   23.2646 C   0  0  0  0  0  0
  -25.9382  -30.8244   21.3648 C   0  0  0  0  0  0
  -26.0126  -29.4576   20.7121 C   0  0  0  0  0  0
  -27.2064  -28.6939   20.6990 C   0  0  0  0  0  0
  -26.0515  -26.9426   19.4686 C   0  0  0  0  0  0
  -24.8668  -27.7021   19.4822 C   0  0  0  0  0  0
  -23.6143  -29.8298   20.1633 C   0  0  0  0  0  0
  -25.4098  -36.3117   24.0359 C   0  0  1  0  0  0
  -20.5875  -28.3702   23.1309 C   0  0  2  0  0  0
  -20.6759  -26.9433   22.5419 C   0  0  0  0  0  0
  -19.5733  -26.6413   21.5216 C   0  0  0  0  0  0
  -18.1921  -26.7958   22.1639 C   0  0  0  0  0  0
  -19.1535  -28.8863   23.2917 C   0  0  0  0  0  0
  -18.9461  -30.1460   23.8946 C   0  0  0  0  0  0
  -17.6464  -30.6604   24.0577 C   0  0  0  0  0  0
  -25.9030  -34.9479   23.5158 C   0  0  0  0  0  0
  -16.5353  -29.9114   23.6326 C   0  0  0  0  0  0
  -16.7277  -28.6522   23.0364 C   0  0  0  0  0  0
  -26.4471  -31.6599   25.0735 C   0  0  0  0  0  0
  -25.3750  -31.3680   26.1495 C   0  0  0  0  0  0
  -27.0291  -30.3058   24.6060 C   0  0  0  0  0  0
  -27.6063  -32.4306   25.7489 C   0  0  0  0  0  0
  -27.5584  -37.1812   24.8484 C   0  0  0  0  0  0
  -21.4148  -29.3064   22.3704 N   0  0  0  0  0  0
  -26.4289  -37.3800   23.9429 N   0  0  0  0  0  0
  -24.6728  -31.0778   22.0994 N   0  0  0  0  0  0
  -23.4178  -28.8246   23.3039 O   0  0  0  0  0  0
  -28.3674  -26.6294   20.1058 O   0  0  0  0  0  0
  -26.5598  -34.8920   22.4721 O   0  0  0  0  0  0
  -23.5370  -32.1458   23.7473 O   0  0  0  0  0  0
  -28.8185  -20.3024   19.6557 C   0  0  0  0  0  0
  -29.4648  -21.5766   19.6899 C   0  0  0  0  0  0
  -29.7716  -19.3708   19.9997 C   0  0  0  0  0  0
  -32.2116  -19.6593   20.7359 C   0  0  0  0  0  0
  -28.9355  -22.9177   19.1692 C   0  0  0  0  0  0
  -29.6914  -17.8438   19.9398 C   0  0  0  0  0  0
  -29.2016  -24.2066   20.0374 C   0  0  0  0  0  0
  -30.3020  -16.9766   21.0866 C   0  0  0  0  0  0
  -28.1980  -25.2733   20.6050 C   0  0  0  0  0  0
  -30.7222  -21.4441   20.0854 N   0  0  0  0  0  0
  -30.9073  -20.1128   20.2951 N   0  0  0  0  0  0
  -29.9344  -15.5414   20.9992 N   0  0  0  0  0  0
  -31.4658  -12.4373   19.1119 H   0  0  0  0  0  0
  -30.3453  -11.3152   19.8356 H   0  0  0  0  0  0
  -29.7363  -11.7653   17.4382 H   0  0  0  0  0  0
  -29.6523  -13.4791   17.7612 H   0  0  0  0  0  0
  -27.8255  -11.3026   18.8282 H   0  0  0  0  0  0
  -27.3659  -12.6247   17.7874 H   0  0  0  0  0  0
  -27.6999  -14.2517   19.5586 H   0  0  0  0  0  0
  -28.6825  -11.9827   21.3591 H   0  0  0  0  0  0
  -28.4619  -13.6301   21.8574 H   0  0  0  0  0  0
  -25.2800   -9.5650   22.4765 H   0  0  0  0  0  0
  -24.0010   -7.4629   22.7472 H   0  0  0  0  0  0
  -21.0874   -8.8817   19.8961 H   0  0  0  0  0  0
  -22.3771  -10.9689   19.6176 H   0  0  0  0  0  0
  -21.2013   -7.6159   23.9721 H   0  0  0  0  0  0
  -21.1475   -6.0526   25.9077 H   0  0  0  0  0  0
  -22.0602   -2.7624   23.2821 H   0  0  0  0  0  0
  -22.4178  -11.9888   22.4751 H   0  0  0  0  0  0
  -21.1157  -13.1247   22.2613 H   0  0  0  0  0  0
  -24.6678  -15.8432   20.5259 H   0  0  0  0  0  0
  -26.2785  -15.6261   20.0703 H   0  0  0  0  0  0
  -26.7139  -32.5519   23.1180 H   0  0  0  0  0  0
  -25.0080  -33.9793   25.0525 H   0  0  0  0  0  0
  -22.6986  -31.3143   21.4145 H   0  0  0  0  0  0
  -23.3732  -35.9628   23.3318 H   0  0  0  0  0  0
  -24.3576  -36.8876   22.2058 H   0  0  0  0  0  0
  -23.7193  -37.6498   23.6625 H   0  0  0  0  0  0
  -26.0579  -31.5854   20.5918 H   0  0  0  0  0  0
  -26.8257  -30.8792   21.9835 H   0  0  0  0  0  0
  -28.1025  -29.0794   21.1660 H   0  0  0  0  0  0
  -26.0436  -25.9896   18.9571 H   0  0  0  0  0  0
  -23.9819  -27.3202   18.9942 H   0  0  0  0  0  0
  -23.7286  -30.6089   19.4091 H   0  0  0  0  0  0
  -22.7332  -29.2592   19.8644 H   0  0  0  0  0  0
  -25.1255  -36.2009   25.0853 H   0  0  0  0  0  0
  -21.0006  -28.3270   24.1410 H   0  0  0  0  0  0
  -20.5652  -26.2320   23.3613 H   0  0  0  0  0  0
  -21.6631  -26.7463   22.1208 H   0  0  0  0  0  0
  -19.6880  -25.6325   21.1235 H   0  0  0  0  0  0
  -19.6652  -27.3223   20.6738 H   0  0  0  0  0  0
  -17.4182  -26.6729   21.4040 H   0  0  0  0  0  0
  -18.0317  -26.0097   22.9034 H   0  0  0  0  0  0
  -19.7928  -30.7268   24.2341 H   0  0  0  0  0  0
  -17.5014  -31.6286   24.5177 H   0  0  0  0  0  0
  -15.5355  -30.3036   23.7604 H   0  0  0  0  0  0
  -15.8678  -28.0837   22.7083 H   0  0  0  0  0  0
  -24.5929  -30.7010   25.7839 H   0  0  0  0  0  0
  -24.8927  -32.2818   26.4980 H   0  0  0  0  0  0
  -25.8139  -30.8840   27.0230 H   0  0  0  0  0  0
  -26.2818  -29.6840   24.1116 H   0  0  0  0  0  0
  -27.4081  -29.7259   25.4479 H   0  0  0  0  0  0
  -27.8644  -30.4395   23.9179 H   0  0  0  0  0  0
  -27.2703  -33.3588   26.2118 H   0  0  0  0  0  0
  -28.3846  -32.6900   25.0301 H   0  0  0  0  0  0
  -28.0757  -31.8398   26.5360 H   0  0  0  0  0  0
  -28.2638  -38.0079   24.7527 H   0  0  0  0  0  0
  -28.1044  -36.2619   24.6312 H   0  0  0  0  0  0
  -27.2321  -37.1480   25.8895 H   0  0  0  0  0  0
  -20.9307  -29.8788   21.6926 H   0  0  0  0  0  0
  -26.0177  -38.2887   24.1397 H   0  0  0  0  0  0
  -27.8091  -20.0978   19.3263 H   0  0  0  0  0  0
  -32.9429  -20.4652   20.6694 H   0  0  0  0  0  0
  -32.5482  -18.8301   20.1139 H   0  0  0  0  0  0
  -32.1539  -19.3343   21.7758 H   0  0  0  0  0  0
  -27.8601  -22.8179   18.9960 H   0  0  0  0  0  0
  -29.3548  -23.0493   18.1660 H   0  0  0  0  0  0
  -30.1462  -17.5230   19.0010 H   0  0  0  0  0  0
  -28.6383  -17.5777   19.8457 H   0  0  0  0  0  0
  -28.7741  -23.5944   20.8347 H   0  0  0  0  0  0
  -28.8207  -24.6715   19.1265 H   0  0  0  0  0  0
  -29.9435  -17.3489   22.0470 H   0  0  0  0  0  0
  -31.3875  -17.0716   21.1081 H   0  0  0  0  0  0
  -27.1761  -24.9022   20.4952 H   0  0  0  0  0  0
  -28.3349  -25.3592   21.6859 H   0  0  0  0  0  0
  -28.9942  -15.3037   21.2789 H   0  0  0  0  0  0
  1 25  1  0  0  0
  1 30  2  0  0  0
  1 82  1  0  0  0
  2  3  1  0  0  0
  2 25  1  0  0  0
  2 83  1  0  0  0
  2 84  1  0  0  0
  3  4  1  0  0  0
  3 85  1  0  0  0
  3 86  1  0  0  0
  4  5  1  0  0  0
  4 87  1  0  0  0
  4 88  1  0  0  0
  5  6  1  0  0  0
  5 26  1  0  0  0
  5 89  1  0  0  0
  6 25  1  0  0  0
  6 90  1  0  0  0
  6 91  1  0  0  0
  7  8  2  0  0  0
  7 26  1  0  0  0
  7 29  1  0  0  0
  8  9  1  0  0  0
  8 22  1  0  0  0
  9 10  1  0  0  0
  9 27  2  0  0  0
 10 11  2  0  0  0
 10 15  1  0  0  0
 11 12  1  0  0  0
 11 92  1  0  0  0
 12 13  2  0  0  0
 12 93  1  0  0  0
 13 14  1  0  0  0
 13 31  1  0  0  0
 14 15  2  0  0  0
 14 94  1  0  0  0
 15 95  1  0  0  0
 16 17  2  0  0  0
 16 21  1  0  0  0
 16 31  1  0  0  0
 17 18  1  0  0  0
 17 96  1  0  0  0
 18 19  2  0  0  0
 18 97  1  0  0  0
 19 20  1  0  0  0
 19 24  1  0  0  0
 20 21  2  0  0  0
 20 98  1  0  0  0
 21 23  1  0  0  0
 22 28  1  0  0  0
 22 32  2  0  0  0
 26 27  1  0  0  0
 28 99  1  0  0  0
 28100  1  0  0  0
 29101  1  0  0  0
 29102  1  0  0  0
 33 34  1  0  0  0
 33 66  1  0  0  0
 33 70  2  0  0  0
 34 36  1  0  0  0
 34 59  1  0  0  0
 34103  1  0  0  0
 35 44  2  0  0  0
 35 45  1  0  0  0
 35 68  1  0  0  0
 36 56  1  0  0  0
 36104  1  0  0  0
 37 39  1  0  0  0
 37 47  1  0  0  0
 37 66  1  0  0  0
 37105  1  0  0  0
 38 43  2  0  0  0
 38 46  1  0  0  0
 38 47  1  0  0  0
 39 64  1  0  0  0
 39 67  2  0  0  0
 40 52  1  0  0  0
 40 53  2  0  0  0
 40 58  1  0  0  0
 41106  1  0  0  0
 41107  1  0  0  0
 41108  1  0  0  0
 41 48  1  0  0  0
 42 43  1  0  0  0
 42 66  1  0  0  0
 42109  1  0  0  0
 42110  1  0  0  0
 43 44  1  0  0  0
 44111  1  0  0  0
 45 46  2  0  0  0
 45112  1  0  0  0
 46113  1  0  0  0
 47114  1  0  0  0
 47115  1  0  0  0
 48 56  1  0  0  0
 48 65  1  0  0  0
 48116  1  0  0  0
 49 50  1  0  0  0
 49 53  1  0  0  0
 49 64  1  0  0  0
 49117  1  0  0  0
 50 51  1  0  0  0
 50118  1  0  0  0
 50119  1  0  0  0
 51 52  1  0  0  0
 51120  1  0  0  0
 51121  1  0  0  0
 52122  1  0  0  0
 52123  1  0  0  0
 53 54  1  0  0  0
 54 55  2  0  0  0
 54124  1  0  0  0
 55 57  1  0  0  0
 55125  1  0  0  0
 56 69  2  0  0  0
 57 58  2  0  0  0
 57126  1  0  0  0
 58127  1  0  0  0
 59 60  1  0  0  0
 59 61  1  0  0  0
 59 62  1  0  0  0
 60128  1  0  0  0
 60129  1  0  0  0
 60130  1  0  0  0
 61131  1  0  0  0
 61132  1  0  0  0
 61133  1  0  0  0
 62134  1  0  0  0
 62135  1  0  0  0
 62136  1  0  0  0
 63 65  1  0  0  0
 63137  1  0  0  0
 63138  1  0  0  0
 63139  1  0  0  0
 64140  1  0  0  0
 65141  1  0  0  0
 68 79  1  0  0  0
 71 72  1  0  0  0
 71 73  2  0  0  0
 71142  1  0  0  0
 72 75  1  0  0  0
 72 80  2  0  0  0
 73 76  1  0  0  0
 73 81  1  0  0  0
 74 81  1  0  0  0
 74143  1  0  0  0
 74144  1  0  0  0
 74145  1  0  0  0
 75 77  1  0  0  0
 75146  1  0  0  0
 75147  1  0  0  0
 76 78  1  0  0  0
 76148  1  0  0  0
 76149  1  0  0  0
 77 79  1  0  0  0
 77150  1  0  0  0
 77151  1  0  0  0
 78 82  1  0  0  0
 78152  1  0  0  0
 78153  1  0  0  0
 79154  1  0  0  0
 79155  1  0  0  0
 80 81  1  0  0  0
 82156  1  0  0  0
M  ISO  4   1 100  68 101  79 101  82 100
M  END
> <chiral flag>
0

> <version>
0

> <s_m_source_file>
/data/baiqing/PycharmProjects/Reinvent-master-3.2/result/LINK_invent/BTK/process_docking_weight1_custom_sum_contain_oxygen_bond_distance_aromatic_linkinvent_7_9_3/rearranged_h_0041.sdf

> <i_m_source_file_index>
41

> <r_mmod_Potential_Energy-OPLS-2005>
107.602226257324

> <r_mmod_Stretch_Energy-OPLS-2005>
45.6077995300293

> <r_mmod_Bend_Energy-OPLS-2005>
330.862121582031

> <r_mmod_Torsional_Energy-OPLS-2005>
218.374465942383

> <r_mmod_Improper_Torsional_Energy-OPLS-2005>
4.91259717941284

> <r_mmod_Van_der_Waal_Energy-OPLS-2005>
140.584274291992

> <r_mmod_Electrostatic_Energy-OPLS-2005>
-421.964904785156

> <r_mmod_Solvation_Energy-OPLS-2005>
-228.89892578125

> <b_mmod_Minimization_Converged-OPLS-2005>
0

> <r_mmod_RMS_Derivative-OPLS-2005>
2.41485142707825

$$$$
41
                    3D
 Structure written by MMmdl.
168176  0  0  1  0            999 V2000
  -30.7261  -14.4639   20.5720 C   0  0  0  0  0  0
  -30.4297  -12.3059   19.4253 C   0  0  0  0  0  0
  -29.5017  -12.4947   18.2094 C   0  0  0  0  0  0
  -28.0218  -12.3571   18.6210 C   0  0  0  0  0  0
  -27.6628  -13.2081   19.8695 C   0  0  2  0  0  0
  -28.7072  -13.0082   20.9933 C   0  0  0  0  0  0
  -25.2592  -13.8164   20.5666 C   0  0  0  0  0  0
  -24.1839  -13.0451   20.9148 C   0  0  0  0  0  0
  -24.6364  -11.6905   20.8695 C   0  0  0  0  0  0
  -23.9005  -10.4294   21.0369 C   0  0  0  0  0  0
  -24.3577   -9.4223   21.9159 C   0  0  0  0  0  0
  -23.6286   -8.2244   22.0734 C   0  0  0  0  0  0
  -22.4268   -8.0247   21.3527 C   0  0  0  0  0  0
  -21.9868   -9.0204   20.4631 C   0  0  0  0  0  0
  -22.7166  -10.2107   20.3041 C   0  0  0  0  0  0
  -21.6844   -6.0704   22.5274 C   0  0  0  0  0  0
  -21.4009   -6.5614   23.8203 C   0  0  0  0  0  0
  -21.3670   -5.6776   24.9168 C   0  0  0  0  0  0
  -21.6072   -4.3042   24.7215 C   0  0  0  0  0  0
  -21.8824   -3.8118   23.4345 C   0  0  0  0  0  0
  -21.9194   -4.6940   22.3399 C   0  0  0  0  0  0
  -22.7858  -13.5253   21.1804 C   0  0  0  0  0  0
  -22.1660   -4.2124   21.0977 F   0  0  0  0  0  0
  -21.5636   -3.4528   25.7738 F   0  0  0  0  0  0
  -30.0411  -13.2982   20.4394 N   0  0  0  0  0  0
  -26.3030  -12.9331   20.3341 N   0  0  0  0  0  0
  -25.9310  -11.6485   20.5747 N   0  0  0  0  0  0
  -22.0483  -12.8288   22.0368 N   0  0  0  0  0  0
  -25.4329  -15.1892   20.4068 N   0  0  0  0  0  0
  -31.8474  -14.6422   20.0873 O   0  0  0  0  0  0
  -21.6644   -6.8847   21.4232 O   0  0  0  0  0  0
  -22.3548  -14.5536   20.6597 O   0  0  0  0  0  0
  -24.6145  -31.8708   23.2106 C   0  0  0  0  0  0
  -25.9056  -32.4824   23.8397 C   0  0  1  0  0  0
  -27.2206  -27.4605   20.1000 C   0  0  0  0  0  0
  -25.5931  -33.8615   24.2342 N   0  0  0  0  0  0
  -23.3989  -30.4994   21.5459 C   0  0  2  0  0  0
  -24.8392  -28.9705   20.1023 C   0  0  0  0  0  0
  -22.7407  -29.4722   22.4942 C   0  0  0  0  0  0
  -18.0299  -28.1382   22.8512 C   0  0  0  0  0  0
  -24.1481  -36.7308   23.2635 C   0  0  0  0  0  0
  -25.9243  -30.8469   21.3573 C   0  0  0  0  0  0
  -25.9987  -29.4866   20.6987 C   0  0  0  0  0  0
  -27.1963  -28.7413   20.6873 C   0  0  0  0  0  0
  -26.0488  -26.9560   19.4893 C   0  0  0  0  0  0
  -24.8601  -27.7059   19.4900 C   0  0  0  0  0  0
  -23.6003  -29.8356   20.1570 C   0  0  0  0  0  0
  -25.4092  -36.3098   24.0357 C   0  0  1  0  0  0
  -20.5895  -28.3687   23.1279 C   0  0  2  0  0  0
  -20.6793  -26.9420   22.5388 C   0  0  0  0  0  0
  -19.5754  -26.6405   21.5204 C   0  0  0  0  0  0
  -18.1940  -26.7940   22.1628 C   0  0  0  0  0  0
  -19.1547  -28.8844   23.2907 C   0  0  0  0  0  0
  -18.9475  -30.1458   23.8906 C   0  0  0  0  0  0
  -17.6471  -30.6579   24.0587 C   0  0  0  0  0  0
  -25.9029  -34.9472   23.5126 C   0  0  0  0  0  0
  -16.5369  -29.9089   23.6333 C   0  0  0  0  0  0
  -16.7289  -28.6507   23.0349 C   0  0  0  0  0  0
  -26.4493  -31.6593   25.0709 C   0  0  0  0  0  0
  -25.3799  -31.3727   26.1487 C   0  0  0  0  0  0
  -27.0323  -30.3036   24.6087 C   0  0  0  0  0  0
  -27.6054  -32.4319   25.7460 C   0  0  0  0  0  0
  -27.5576  -37.1791   24.8468 C   0  0  0  0  0  0
  -21.4134  -29.3067   22.3666 N   0  0  0  0  0  0
  -26.4272  -37.3784   23.9430 N   0  0  0  0  0  0
  -24.6632  -31.0877   22.0955 N   0  0  0  0  0  0
  -23.4191  -28.8306   23.2999 O   0  0  0  0  0  0
  -28.3730  -26.7132   20.1456 O   0  0  0  0  0  0
  -26.5561  -34.8930   22.4661 O   0  0  0  0  0  0
  -23.5346  -32.1407   23.7553 O   0  0  0  0  0  0
  -30.0027  -22.5596   20.4343 C   0  0  0  0  0  0
  -30.8757  -23.9888   19.1705 C   0  0  0  0  0  0
  -33.6241  -27.8320   18.9672 C   0  0  0  0  0  0
  -29.0404  -21.8449   21.3449 C   0  0  0  0  0  0
  -31.0995  -25.2084   18.3185 C   0  0  0  0  0  0
  -28.7142  -20.3814   20.9659 C   0  0  0  0  0  0
  -29.8441  -19.3572   21.2215 C   0  0  0  0  0  0
  -29.4148  -17.8895   20.9847 C   0  0  0  0  0  0
  -28.3883  -24.3268   19.5671 C   0  0  0  0  0  0
  -30.5351  -16.8654   21.2735 C   0  0  0  0  0  0
  -32.4427  -27.1590   18.2648 C   0  0  0  0  0  0
  -28.1913  -25.3904   20.6602 C   0  0  0  0  0  0
  -31.2951  -22.2273   20.3508 N   0  0  0  0  0  0
  -31.8651  -23.1535   19.5154 N   0  0  0  0  0  0
  -29.6782  -23.6522   19.7007 N   0  0  0  0  0  0
  -30.0593  -15.4773   21.1525 N   0  0  0  0  0  0
  -32.2446  -25.8788   18.8392 O   0  0  0  0  0  0
  -31.4717  -12.4100   19.1157 H   0  0  0  0  0  0
  -30.3389  -11.2992   19.8366 H   0  0  0  0  0  0
  -29.7444  -11.7656   17.4357 H   0  0  0  0  0  0
  -29.6774  -13.4785   17.7725 H   0  0  0  0  0  0
  -27.8268  -11.3032   18.8198 H   0  0  0  0  0  0
  -27.3759  -12.6304   17.7864 H   0  0  0  0  0  0
  -27.6986  -14.2534   19.5620 H   0  0  0  0  0  0
  -28.6834  -11.9831   21.3622 H   0  0  0  0  0  0
  -28.4674  -13.6331   21.8553 H   0  0  0  0  0  0
  -25.2720   -9.5736   22.4713 H   0  0  0  0  0  0
  -24.0005   -7.4655   22.7471 H   0  0  0  0  0  0
  -21.0776   -8.8701   19.8956 H   0  0  0  0  0  0
  -22.3586  -10.9628   19.6142 H   0  0  0  0  0  0
  -21.1991   -7.6124   23.9696 H   0  0  0  0  0  0
  -21.1495   -6.0502   25.9076 H   0  0  0  0  0  0
  -22.0599   -2.7574   23.2844 H   0  0  0  0  0  0
  -22.4072  -12.0000   22.4867 H   0  0  0  0  0  0
  -21.1091  -13.1308   22.2508 H   0  0  0  0  0  0
  -24.6665  -15.8462   20.5154 H   0  0  0  0  0  0
  -26.2902  -15.6254   20.0888 H   0  0  0  0  0  0
  -26.7128  -32.5519   23.1174 H   0  0  0  0  0  0
  -25.0208  -33.9763   25.0576 H   0  0  0  0  0  0
  -22.6891  -31.3180   21.4105 H   0  0  0  0  0  0
  -23.3733  -35.9644   23.3292 H   0  0  0  0  0  0
  -24.3601  -36.8898   22.2047 H   0  0  0  0  0  0
  -23.7242  -37.6522   23.6633 H   0  0  0  0  0  0
  -26.0459  -31.6230   20.5993 H   0  0  0  0  0  0
  -26.8081  -30.8858   21.9805 H   0  0  0  0  0  0
  -28.0916  -29.1347   21.1478 H   0  0  0  0  0  0
  -26.0475  -25.9854   19.0143 H   0  0  0  0  0  0
  -23.9735  -27.3101   19.0126 H   0  0  0  0  0  0
  -23.7010  -30.6088   19.3938 H   0  0  0  0  0  0
  -22.7244  -29.2515   19.8673 H   0  0  0  0  0  0
  -25.1264  -36.1953   25.0851 H   0  0  0  0  0  0
  -21.0038  -28.3272   24.1378 H   0  0  0  0  0  0
  -20.5707  -26.2318   23.3592 H   0  0  0  0  0  0
  -21.6664  -26.7463   22.1172 H   0  0  0  0  0  0
  -19.6918  -25.6321   21.1215 H   0  0  0  0  0  0
  -19.6671  -27.3228   20.6739 H   0  0  0  0  0  0
  -17.4219  -26.6720   21.4011 H   0  0  0  0  0  0
  -18.0327  -26.0053   22.8983 H   0  0  0  0  0  0
  -19.7956  -30.7295   24.2244 H   0  0  0  0  0  0
  -17.5030  -31.6250   24.5210 H   0  0  0  0  0  0
  -15.5372  -30.2998   23.7627 H   0  0  0  0  0  0
  -15.8706  -28.0834   22.7028 H   0  0  0  0  0  0
  -24.5987  -30.7018   25.7905 H   0  0  0  0  0  0
  -24.8982  -32.2888   26.4898 H   0  0  0  0  0  0
  -25.8198  -30.8981   27.0265 H   0  0  0  0  0  0
  -26.2841  -29.6765   24.1214 H   0  0  0  0  0  0
  -27.4175  -29.7307   25.4531 H   0  0  0  0  0  0
  -27.8653  -30.4348   23.9174 H   0  0  0  0  0  0
  -27.2662  -33.3618   26.2027 H   0  0  0  0  0  0
  -28.3857  -32.6871   25.0284 H   0  0  0  0  0  0
  -28.0733  -31.8469   26.5380 H   0  0  0  0  0  0
  -28.2594  -38.0091   24.7519 H   0  0  0  0  0  0
  -28.1071  -36.2624   24.6262 H   0  0  0  0  0  0
  -27.2319  -37.1404   25.8880 H   0  0  0  0  0  0
  -20.9278  -29.8765   21.6861 H   0  0  0  0  0  0
  -26.0169  -38.2858   24.1428 H   0  0  0  0  0  0
  -33.7176  -28.8706   18.6495 H   0  0  0  0  0  0
  -34.5643  -27.3263   18.7445 H   0  0  0  0  0  0
  -33.4803  -27.8269   20.0478 H   0  0  0  0  0  0
  -28.1075  -22.4023   21.3981 H   0  0  0  0  0  0
  -29.4398  -21.8903   22.3570 H   0  0  0  0  0  0
  -30.2350  -25.8687   18.3522 H   0  0  0  0  0  0
  -31.2563  -24.9101   17.2822 H   0  0  0  0  0  0
  -28.3781  -20.3391   19.9291 H   0  0  0  0  0  0
  -27.8567  -20.0791   21.5695 H   0  0  0  0  0  0
  -30.2021  -19.4697   22.2462 H   0  0  0  0  0  0
  -30.6959  -19.5783   20.5805 H   0  0  0  0  0  0
  -29.0945  -17.7775   19.9471 H   0  0  0  0  0  0
  -28.5436  -17.6703   21.6025 H   0  0  0  0  0  0
  -28.2982  -24.7693   18.5736 H   0  0  0  0  0  0
  -27.5932  -23.5825   19.6155 H   0  0  0  0  0  0
  -30.9218  -17.0092   22.2829 H   0  0  0  0  0  0
  -31.3738  -17.0579   20.5988 H   0  0  0  0  0  0
  -32.6340  -27.0737   17.1937 H   0  0  0  0  0  0
  -31.5503  -27.7736   18.3953 H   0  0  0  0  0  0
  -28.8994  -25.2349   21.4761 H   0  0  0  0  0  0
  -27.2109  -25.2598   21.1254 H   0  0  0  0  0  0
  -29.1329  -15.2719   21.4981 H   0  0  0  0  0  0
  1 25  1  0  0  0
  1 30  2  0  0  0
  1 86  1  0  0  0
  2  3  1  0  0  0
  2 25  1  0  0  0
  2 88  1  0  0  0
  2 89  1  0  0  0
  3  4  1  0  0  0
  3 90  1  0  0  0
  3 91  1  0  0  0
  4  5  1  0  0  0
  4 92  1  0  0  0
  4 93  1  0  0  0
  5  6  1  0  0  0
  5 26  1  0  0  0
  5 94  1  0  0  0
  6 25  1  0  0  0
  6 95  1  0  0  0
  6 96  1  0  0  0
  7  8  2  0  0  0
  7 26  1  0  0  0
  7 29  1  0  0  0
  8  9  1  0  0  0
  8 22  1  0  0  0
  9 10  1  0  0  0
  9 27  2  0  0  0
 10 11  2  0  0  0
 10 15  1  0  0  0
 11 12  1  0  0  0
 11 97  1  0  0  0
 12 13  2  0  0  0
 12 98  1  0  0  0
 13 14  1  0  0  0
 13 31  1  0  0  0
 14 15  2  0  0  0
 14 99  1  0  0  0
 15100  1  0  0  0
 16 17  2  0  0  0
 16 21  1  0  0  0
 16 31  1  0  0  0
 17 18  1  0  0  0
 17101  1  0  0  0
 18 19  2  0  0  0
 18102  1  0  0  0
 19 20  1  0  0  0
 19 24  1  0  0  0
 20 21  2  0  0  0
 20103  1  0  0  0
 21 23  1  0  0  0
 22 28  1  0  0  0
 22 32  2  0  0  0
 26 27  1  0  0  0
 28104  1  0  0  0
 28105  1  0  0  0
 29106  1  0  0  0
 29107  1  0  0  0
 33 34  1  0  0  0
 33 66  1  0  0  0
 33 70  2  0  0  0
 34 36  1  0  0  0
 34 59  1  0  0  0
 34108  1  0  0  0
 35 44  2  0  0  0
 35 45  1  0  0  0
 35 68  1  0  0  0
 36 56  1  0  0  0
 36109  1  0  0  0
 37 39  1  0  0  0
 37 47  1  0  0  0
 37 66  1  0  0  0
 37110  1  0  0  0
 38 43  2  0  0  0
 38 46  1  0  0  0
 38 47  1  0  0  0
 39 64  1  0  0  0
 39 67  2  0  0  0
 40 52  1  0  0  0
 40 53  2  0  0  0
 40 58  1  0  0  0
 41111  1  0  0  0
 41112  1  0  0  0
 41113  1  0  0  0
 41 48  1  0  0  0
 42 43  1  0  0  0
 42 66  1  0  0  0
 42114  1  0  0  0
 42115  1  0  0  0
 43 44  1  0  0  0
 44116  1  0  0  0
 45 46  2  0  0  0
 45117  1  0  0  0
 46118  1  0  0  0
 47119  1  0  0  0
 47120  1  0  0  0
 48 56  1  0  0  0
 48 65  1  0  0  0
 48121  1  0  0  0
 49 50  1  0  0  0
 49 53  1  0  0  0
 49 64  1  0  0  0
 49122  1  0  0  0
 50 51  1  0  0  0
 50123  1  0  0  0
 50124  1  0  0  0
 51 52  1  0  0  0
 51125  1  0  0  0
 51126  1  0  0  0
 52127  1  0  0  0
 52128  1  0  0  0
 53 54  1  0  0  0
 54 55  2  0  0  0
 54129  1  0  0  0
 55 57  1  0  0  0
 55130  1  0  0  0
 56 69  2  0  0  0
 57 58  2  0  0  0
 57131  1  0  0  0
 58132  1  0  0  0
 59 60  1  0  0  0
 59 61  1  0  0  0
 59 62  1  0  0  0
 60133  1  0  0  0
 60134  1  0  0  0
 60135  1  0  0  0
 61136  1  0  0  0
 61137  1  0  0  0
 61138  1  0  0  0
 62139  1  0  0  0
 62140  1  0  0  0
 62141  1  0  0  0
 63 65  1  0  0  0
 63142  1  0  0  0
 63143  1  0  0  0
 63144  1  0  0  0
 64145  1  0  0  0
 65146  1  0  0  0
 68 82  1  0  0  0
 71 74  1  0  0  0
 71 83  2  0  0  0
 71 85  1  0  0  0
 72 75  1  0  0  0
 72 84  2  0  0  0
 72 85  1  0  0  0
 73 81  1  0  0  0
 73147  1  0  0  0
 73148  1  0  0  0
 73149  1  0  0  0
 74 76  1  0  0  0
 74150  1  0  0  0
 74151  1  0  0  0
 75 87  1  0  0  0
 75152  1  0  0  0
 75153  1  0  0  0
 76 77  1  0  0  0
 76154  1  0  0  0
 76155  1  0  0  0
 77 78  1  0  0  0
 77156  1  0  0  0
 77157  1  0  0  0
 78 80  1  0  0  0
 78158  1  0  0  0
 78159  1  0  0  0
 79 82  1  0  0  0
 79 85  1  0  0  0
 79160  1  0  0  0
 79161  1  0  0  0
 80 86  1  0  0  0
 80162  1  0  0  0
 80163  1  0  0  0
 81 87  1  0  0  0
 81164  1  0  0  0
 81165  1  0  0  0
 82166  1  0  0  0
 82167  1  0  0  0
 83 84  1  0  0  0
 86168  1  0  0  0
M  ISO  4   1 100  68 101  82 101  86 100
M  END
> <chiral flag>
0

> <version>
0

> <s_m_source_file>
/data/baiqing/PycharmProjects/Reinvent-master-3.2/result/LINK_invent/BTK/process_docking_weight1_custom_sum_contain_oxygen_bond_distance_aromatic_linkinvent_7_9_3/rearranged_h_0041.sdf

> <i_m_source_file_index>
42

> <r_mmod_Potential_Energy-OPLS-2005>
-94.6433486938477

> <r_mmod_Stretch_Energy-OPLS-2005>
34.0370826721191

> <r_mmod_Bend_Energy-OPLS-2005>
100.517227172852

> <r_mmod_Torsional_Energy-OPLS-2005>
228.294464111328

> <r_mmod_Improper_Torsional_Energy-OPLS-2005>
3.19643712043762

> <r_mmod_Van_der_Waal_Energy-OPLS-2005>
129.281539916992

> <r_mmod_Electrostatic_Energy-OPLS-2005>
-349.901519775391

> <r_mmod_Solvation_Energy-OPLS-2005>
-253.582870483398

> <b_mmod_Minimization_Converged-OPLS-2005>
0

> <r_mmod_RMS_Derivative-OPLS-2005>
3.54101538658142

$$$$
42
                    3D
 Structure written by MMmdl.
166174  0  0  1  0            999 V2000
  -30.7429  -14.3982   20.6452 C   0  0  0  0  0  0
  -30.4203  -12.2938   19.3983 C   0  0  0  0  0  0
  -29.4860  -12.5139   18.1930 C   0  0  0  0  0  0
  -28.0099  -12.3724   18.6117 C   0  0  0  0  0  0
  -27.6657  -13.2014   19.8780 C   0  0  2  0  0  0
  -28.7054  -12.9496   20.9919 C   0  0  0  0  0  0
  -25.2606  -13.8153   20.5673 C   0  0  0  0  0  0
  -24.1844  -13.0439   20.9164 C   0  0  0  0  0  0
  -24.6393  -11.6906   20.8731 C   0  0  0  0  0  0
  -23.9053  -10.4297   21.0408 C   0  0  0  0  0  0
  -24.3612   -9.4208   21.9181 C   0  0  0  0  0  0
  -23.6291   -8.2238   22.0752 C   0  0  0  0  0  0
  -22.4270   -8.0279   21.3548 C   0  0  0  0  0  0
  -21.9911   -9.0250   20.4646 C   0  0  0  0  0  0
  -22.7226  -10.2137   20.3060 C   0  0  0  0  0  0
  -21.6846   -6.0726   22.5273 C   0  0  0  0  0  0
  -21.3997   -6.5631   23.8203 C   0  0  0  0  0  0
  -21.3668   -5.6794   24.9170 C   0  0  0  0  0  0
  -21.6053   -4.3054   24.7220 C   0  0  0  0  0  0
  -21.8816   -3.8141   23.4338 C   0  0  0  0  0  0
  -21.9193   -4.6958   22.3395 C   0  0  0  0  0  0
  -22.7875  -13.5244   21.1848 C   0  0  0  0  0  0
  -22.1665   -4.2140   21.0975 F   0  0  0  0  0  0
  -21.5653   -3.4542   25.7735 F   0  0  0  0  0  0
  -30.0426  -13.2512   20.4481 N   0  0  0  0  0  0
  -26.3044  -12.9316   20.3378 N   0  0  0  0  0  0
  -25.9315  -11.6479   20.5757 N   0  0  0  0  0  0
  -22.0523  -12.8221   22.0404 N   0  0  0  0  0  0
  -25.4363  -15.1867   20.4093 N   0  0  0  0  0  0
  -31.8114  -14.6472   20.0786 O   0  0  0  0  0  0
  -21.6639   -6.8869   21.4238 O   0  0  0  0  0  0
  -22.3549  -14.5553   20.6708 O   0  0  0  0  0  0
  -24.6099  -31.8709   23.2127 C   0  0  0  0  0  0
  -25.9009  -32.4848   23.8409 C   0  0  1  0  0  0
  -27.2524  -27.4778   20.0971 C   0  0  0  0  0  0
  -25.5877  -33.8642   24.2347 N   0  0  0  0  0  0
  -23.3966  -30.4926   21.5519 C   0  0  2  0  0  0
  -24.8471  -28.9622   20.1181 C   0  0  0  0  0  0
  -22.7388  -29.4664   22.5021 C   0  0  0  0  0  0
  -18.0263  -28.1381   22.8489 C   0  0  0  0  0  0
  -24.1482  -36.7330   23.2641 C   0  0  0  0  0  0
  -25.9180  -30.8539   21.3555 C   0  0  0  0  0  0
  -26.0010  -29.4877   20.7114 C   0  0  0  0  0  0
  -27.2058  -28.7567   20.7015 C   0  0  0  0  0  0
  -26.0833  -26.9628   19.5013 C   0  0  0  0  0  0
  -24.8798  -27.6948   19.5107 C   0  0  0  0  0  0
  -23.6037  -29.8204   20.1671 C   0  0  0  0  0  0
  -25.4100  -36.3128   24.0345 C   0  0  1  0  0  0
  -20.5849  -28.3653   23.1345 C   0  0  2  0  0  0
  -20.6753  -26.9396   22.5433 C   0  0  0  0  0  0
  -19.5740  -26.6389   21.5215 C   0  0  0  0  0  0
  -18.1911  -26.7930   22.1616 C   0  0  0  0  0  0
  -19.1512  -28.8831   23.2913 C   0  0  0  0  0  0
  -18.9442  -30.1437   23.8926 C   0  0  0  0  0  0
  -17.6446  -30.6585   24.0565 C   0  0  0  0  0  0
  -25.9020  -34.9490   23.5143 C   0  0  0  0  0  0
  -16.5336  -29.9091   23.6324 C   0  0  0  0  0  0
  -16.7253  -28.6509   23.0342 C   0  0  0  0  0  0
  -26.4470  -31.6612   25.0710 C   0  0  0  0  0  0
  -25.3764  -31.3697   26.1481 C   0  0  0  0  0  0
  -27.0285  -30.3064   24.6034 C   0  0  0  0  0  0
  -27.6061  -32.4322   25.7457 C   0  0  0  0  0  0
  -27.5584  -37.1816   24.8463 C   0  0  0  0  0  0
  -21.4123  -29.3022   22.3759 N   0  0  0  0  0  0
  -26.4293  -37.3805   23.9411 N   0  0  0  0  0  0
  -24.6597  -31.0850   22.1004 N   0  0  0  0  0  0
  -23.4179  -28.8216   23.3060 O   0  0  0  0  0  0
  -28.3783  -26.6887   20.0364 O   0  0  0  0  0  0
  -26.5578  -34.8942   22.4703 O   0  0  0  0  0  0
  -23.5304  -32.1430   23.7558 O   0  0  0  0  0  0
  -32.7797  -21.9078   20.3039 C   0  0  0  0  0  0
  -31.1017  -22.3884   21.6933 C   0  0  0  0  0  0
  -31.5191  -21.4537   20.7865 C   0  0  0  0  0  0
  -33.0984  -23.0815   20.9300 C   0  0  0  0  0  0
  -34.3118  -23.9471   20.7962 C   0  0  0  0  0  0
  -30.7975  -20.1888   20.3850 C   0  0  0  0  0  0
  -31.0991  -19.0205   21.3398 C   0  0  0  0  0  0
  -31.4684  -25.8235   22.0321 C   0  0  0  0  0  0
  -30.4428  -17.6947   20.9131 C   0  0  0  0  0  0
  -30.1925  -25.6498   21.1894 C   0  0  0  0  0  0
  -31.9745  -24.5281   22.6991 C   0  0  0  0  0  0
  -30.7523  -16.5549   21.9034 C   0  0  0  0  0  0
  -29.4667  -26.9723   20.9089 C   0  0  0  0  0  0
  -32.0591  -23.3835   21.7974 N   0  0  0  0  0  0
  -30.1814  -15.2737   21.4893 N   0  0  0  0  0  0
  -31.4628  -12.3969   19.0916 H   0  0  0  0  0  0
  -30.3240  -11.2753   19.7774 H   0  0  0  0  0  0
  -29.7191  -11.8003   17.4010 H   0  0  0  0  0  0
  -29.6549  -13.5049   17.7693 H   0  0  0  0  0  0
  -27.8194  -11.3149   18.7988 H   0  0  0  0  0  0
  -27.3554  -12.6567   17.7871 H   0  0  0  0  0  0
  -27.7217  -14.2530   19.5960 H   0  0  0  0  0  0
  -28.6749  -11.9045   21.3048 H   0  0  0  0  0  0
  -28.4568  -13.5203   21.8869 H   0  0  0  0  0  0
  -25.2765   -9.5681   22.4745 H   0  0  0  0  0  0
  -24.0010   -7.4624   22.7465 H   0  0  0  0  0  0
  -21.0849   -8.8754   19.8946 H   0  0  0  0  0  0
  -22.3681  -10.9672   19.6169 H   0  0  0  0  0  0
  -21.1964   -7.6132   23.9692 H   0  0  0  0  0  0
  -21.1514   -6.0528   25.9071 H   0  0  0  0  0  0
  -22.0593   -2.7601   23.2833 H   0  0  0  0  0  0
  -22.4156  -11.9878   22.4767 H   0  0  0  0  0  0
  -21.1149  -13.1242   22.2638 H   0  0  0  0  0  0
  -24.6789  -15.8515   20.5227 H   0  0  0  0  0  0
  -26.3006  -15.6211   20.1099 H   0  0  0  0  0  0
  -26.7091  -32.5594   23.1195 H   0  0  0  0  0  0
  -25.0039  -33.9807   25.0500 H   0  0  0  0  0  0
  -22.6828  -31.3072   21.4127 H   0  0  0  0  0  0
  -23.3739  -35.9669   23.3320 H   0  0  0  0  0  0
  -24.3573  -36.8924   22.2053 H   0  0  0  0  0  0
  -23.7243  -37.6546   23.6638 H   0  0  0  0  0  0
  -26.0127  -31.6184   20.5829 H   0  0  0  0  0  0
  -26.8122  -30.9189   21.9633 H   0  0  0  0  0  0
  -28.0864  -29.1939   21.1474 H   0  0  0  0  0  0
  -26.1076  -25.9885   19.0326 H   0  0  0  0  0  0
  -23.9933  -27.2812   19.0490 H   0  0  0  0  0  0
  -23.7043  -30.5930   19.4039 H   0  0  0  0  0  0
  -22.7313  -29.2322   19.8759 H   0  0  0  0  0  0
  -25.1278  -36.2000   25.0840 H   0  0  0  0  0  0
  -20.9930  -28.3208   24.1469 H   0  0  0  0  0  0
  -20.5651  -26.2256   23.3611 H   0  0  0  0  0  0
  -21.6627  -26.7440   22.1228 H   0  0  0  0  0  0
  -19.6901  -25.6304   21.1232 H   0  0  0  0  0  0
  -19.6694  -27.3209   20.6755 H   0  0  0  0  0  0
  -17.4191  -26.6688   21.4007 H   0  0  0  0  0  0
  -18.0296  -26.0067   22.9009 H   0  0  0  0  0  0
  -19.7920  -30.7242   24.2312 H   0  0  0  0  0  0
  -17.5003  -31.6267   24.5168 H   0  0  0  0  0  0
  -15.5341  -30.3003   23.7635 H   0  0  0  0  0  0
  -15.8651  -28.0844   22.7038 H   0  0  0  0  0  0
  -24.5933  -30.7038   25.7833 H   0  0  0  0  0  0
  -24.8955  -32.2846   26.4961 H   0  0  0  0  0  0
  -25.8156  -30.8859   27.0218 H   0  0  0  0  0  0
  -26.2794  -29.6825   24.1147 H   0  0  0  0  0  0
  -27.4136  -29.7300   25.4455 H   0  0  0  0  0  0
  -27.8596  -30.4397   23.9104 H   0  0  0  0  0  0
  -27.2681  -33.3592   26.2097 H   0  0  0  0  0  0
  -28.3828  -32.6932   25.0259 H   0  0  0  0  0  0
  -28.0776  -31.8412   26.5316 H   0  0  0  0  0  0
  -28.2617  -38.0098   24.7497 H   0  0  0  0  0  0
  -28.1063  -36.2635   24.6296 H   0  0  0  0  0  0
  -27.2302  -37.1478   25.8865 H   0  0  0  0  0  0
  -20.9278  -29.8746   21.6986 H   0  0  0  0  0  0
  -26.0194  -38.2891   24.1408 H   0  0  0  0  0  0
  -33.4034  -21.4116   19.5718 H   0  0  0  0  0  0
  -30.2007  -22.4310   22.2916 H   0  0  0  0  0  0
  -35.0277  -23.5106   20.0989 H   0  0  0  0  0  0
  -34.8194  -24.0638   21.7545 H   0  0  0  0  0  0
  -34.0516  -24.9385   20.4250 H   0  0  0  0  0  0
  -31.0912  -19.9290   19.3679 H   0  0  0  0  0  0
  -29.7245  -20.3852   20.3565 H   0  0  0  0  0  0
  -30.7676  -19.2830   22.3458 H   0  0  0  0  0  0
  -32.1792  -18.8796   21.3997 H   0  0  0  0  0  0
  -31.2913  -26.5593   22.8181 H   0  0  0  0  0  0
  -32.2527  -26.2475   21.4046 H   0  0  0  0  0  0
  -30.7937  -17.4265   19.9147 H   0  0  0  0  0  0
  -29.3628  -17.8316   20.8332 H   0  0  0  0  0  0
  -29.5020  -24.9848   21.7095 H   0  0  0  0  0  0
  -30.4454  -25.1558   20.2503 H   0  0  0  0  0  0
  -31.3069  -24.2616   23.5199 H   0  0  0  0  0  0
  -32.9508  -24.6968   23.1559 H   0  0  0  0  0  0
  -30.3470  -16.8020   22.8859 H   0  0  0  0  0  0
  -31.8309  -16.4518   22.0378 H   0  0  0  0  0  0
  -30.1330  -27.6978   20.4400 H   0  0  0  0  0  0
  -29.1324  -27.3824   21.8628 H   0  0  0  0  0  0
  -29.3035  -14.9998   21.9063 H   0  0  0  0  0  0
  1 25  1  0  0  0
  1 30  2  0  0  0
  1 85  1  0  0  0
  2  3  1  0  0  0
  2 25  1  0  0  0
  2 86  1  0  0  0
  2 87  1  0  0  0
  3  4  1  0  0  0
  3 88  1  0  0  0
  3 89  1  0  0  0
  4  5  1  0  0  0
  4 90  1  0  0  0
  4 91  1  0  0  0
  5  6  1  0  0  0
  5 26  1  0  0  0
  5 92  1  0  0  0
  6 25  1  0  0  0
  6 93  1  0  0  0
  6 94  1  0  0  0
  7  8  2  0  0  0
  7 26  1  0  0  0
  7 29  1  0  0  0
  8  9  1  0  0  0
  8 22  1  0  0  0
  9 10  1  0  0  0
  9 27  2  0  0  0
 10 11  2  0  0  0
 10 15  1  0  0  0
 11 12  1  0  0  0
 11 95  1  0  0  0
 12 13  2  0  0  0
 12 96  1  0  0  0
 13 14  1  0  0  0
 13 31  1  0  0  0
 14 15  2  0  0  0
 14 97  1  0  0  0
 15 98  1  0  0  0
 16 17  2  0  0  0
 16 21  1  0  0  0
 16 31  1  0  0  0
 17 18  1  0  0  0
 17 99  1  0  0  0
 18 19  2  0  0  0
 18100  1  0  0  0
 19 20  1  0  0  0
 19 24  1  0  0  0
 20 21  2  0  0  0
 20101  1  0  0  0
 21 23  1  0  0  0
 22 28  1  0  0  0
 22 32  2  0  0  0
 26 27  1  0  0  0
 28102  1  0  0  0
 28103  1  0  0  0
 29104  1  0  0  0
 29105  1  0  0  0
 33 34  1  0  0  0
 33 66  1  0  0  0
 33 70  2  0  0  0
 34 36  1  0  0  0
 34 59  1  0  0  0
 34106  1  0  0  0
 35 44  2  0  0  0
 35 45  1  0  0  0
 35 68  1  0  0  0
 36 56  1  0  0  0
 36107  1  0  0  0
 37 39  1  0  0  0
 37 47  1  0  0  0
 37 66  1  0  0  0
 37108  1  0  0  0
 38 43  2  0  0  0
 38 46  1  0  0  0
 38 47  1  0  0  0
 39 64  1  0  0  0
 39 67  2  0  0  0
 40 52  1  0  0  0
 40 53  2  0  0  0
 40 58  1  0  0  0
 41109  1  0  0  0
 41110  1  0  0  0
 41111  1  0  0  0
 41 48  1  0  0  0
 42 43  1  0  0  0
 42 66  1  0  0  0
 42112  1  0  0  0
 42113  1  0  0  0
 43 44  1  0  0  0
 44114  1  0  0  0
 45 46  2  0  0  0
 45115  1  0  0  0
 46116  1  0  0  0
 47117  1  0  0  0
 47118  1  0  0  0
 48 56  1  0  0  0
 48 65  1  0  0  0
 48119  1  0  0  0
 49 50  1  0  0  0
 49 53  1  0  0  0
 49 64  1  0  0  0
 49120  1  0  0  0
 50 51  1  0  0  0
 50121  1  0  0  0
 50122  1  0  0  0
 51 52  1  0  0  0
 51123  1  0  0  0
 51124  1  0  0  0
 52125  1  0  0  0
 52126  1  0  0  0
 53 54  1  0  0  0
 54 55  2  0  0  0
 54127  1  0  0  0
 55 57  1  0  0  0
 55128  1  0  0  0
 56 69  2  0  0  0
 57 58  2  0  0  0
 57129  1  0  0  0
 58130  1  0  0  0
 59 60  1  0  0  0
 59 61  1  0  0  0
 59 62  1  0  0  0
 60131  1  0  0  0
 60132  1  0  0  0
 60133  1  0  0  0
 61134  1  0  0  0
 61135  1  0  0  0
 61136  1  0  0  0
 62137  1  0  0  0
 62138  1  0  0  0
 62139  1  0  0  0
 63 65  1  0  0  0
 63140  1  0  0  0
 63141  1  0  0  0
 63142  1  0  0  0
 64143  1  0  0  0
 65144  1  0  0  0
 68 83  1  0  0  0
 71 73  1  0  0  0
 71 74  2  0  0  0
 71145  1  0  0  0
 72 73  2  0  0  0
 72 84  1  0  0  0
 72146  1  0  0  0
 73 76  1  0  0  0
 74 75  1  0  0  0
 74 84  1  0  0  0
 75147  1  0  0  0
 75148  1  0  0  0
 75149  1  0  0  0
 76 77  1  0  0  0
 76150  1  0  0  0
 76151  1  0  0  0
 77 79  1  0  0  0
 77152  1  0  0  0
 77153  1  0  0  0
 78 80  1  0  0  0
 78 81  1  0  0  0
 78154  1  0  0  0
 78155  1  0  0  0
 79 82  1  0  0  0
 79156  1  0  0  0
 79157  1  0  0  0
 80 83  1  0  0  0
 80158  1  0  0  0
 80159  1  0  0  0
 81 84  1  0  0  0
 81160  1  0  0  0
 81161  1  0  0  0
 82 85  1  0  0  0
 82162  1  0  0  0
 82163  1  0  0  0
 83164  1  0  0  0
 83165  1  0  0  0
 85166  1  0  0  0
M  ISO  4   1 100  68 101  83 101  85 100
M  END
> <chiral flag>
0

> <version>
0

> <s_m_source_file>
/data/baiqing/PycharmProjects/Reinvent-master-3.2/result/LINK_invent/BTK/process_docking_weight1_custom_sum_contain_oxygen_bond_distance_aromatic_linkinvent_7_9_3/rearranged_h_0041.sdf

> <i_m_source_file_index>
43

> <r_mmod_Potential_Energy-OPLS-2005>
-138.904235839844

> <r_mmod_Stretch_Energy-OPLS-2005>
30.5579261779785

> <r_mmod_Bend_Energy-OPLS-2005>
95.9220275878906

> <r_mmod_Torsional_Energy-OPLS-2005>
197.942626953125

> <r_mmod_Improper_Torsional_Energy-OPLS-2005>
1.73281419277191

> <r_mmod_Van_der_Waal_Energy-OPLS-2005>
127.807083129883

> <r_mmod_Electrostatic_Energy-OPLS-2005>
-386.451873779297

> <r_mmod_Solvation_Energy-OPLS-2005>
-212.929779052734

> <b_mmod_Minimization_Converged-OPLS-2005>
0

> <r_mmod_RMS_Derivative-OPLS-2005>
1.47734570503235

$$$$
43
                    3D
 Structure written by MMmdl.
163171  0  0  1  0            999 V2000
  -30.7544  -14.4187   20.5454 C   0  0  0  0  0  0
  -30.4064  -12.2635   19.4115 C   0  0  0  0  0  0
  -29.4901  -12.4740   18.1885 C   0  0  0  0  0  0
  -28.0033  -12.3783   18.5993 C   0  0  0  0  0  0
  -27.6623  -13.2180   19.8622 C   0  0  2  0  0  0
  -28.7074  -13.0124   20.9793 C   0  0  0  0  0  0
  -25.2579  -13.8169   20.5606 C   0  0  0  0  0  0
  -24.1829  -13.0440   20.9084 C   0  0  0  0  0  0
  -24.6391  -11.6920   20.8667 C   0  0  0  0  0  0
  -23.9039  -10.4301   21.0338 C   0  0  0  0  0  0
  -24.3572   -9.4252   21.9135 C   0  0  0  0  0  0
  -23.6289   -8.2258   22.0697 C   0  0  0  0  0  0
  -22.4292   -8.0252   21.3495 C   0  0  0  0  0  0
  -21.9904   -9.0223   20.4610 C   0  0  0  0  0  0
  -22.7201  -10.2127   20.3012 C   0  0  0  0  0  0
  -21.6895   -6.0727   22.5265 C   0  0  0  0  0  0
  -21.4031   -6.5601   23.8202 C   0  0  0  0  0  0
  -21.3658   -5.6745   24.9138 C   0  0  0  0  0  0
  -21.6050   -4.3009   24.7199 C   0  0  0  0  0  0
  -21.8821   -3.8127   23.4315 C   0  0  0  0  0  0
  -21.9212   -4.6937   22.3392 C   0  0  0  0  0  0
  -22.7850  -13.5265   21.1763 C   0  0  0  0  0  0
  -22.1658   -4.2114   21.0980 F   0  0  0  0  0  0
  -21.5671   -3.4507   25.7728 F   0  0  0  0  0  0
  -30.0354  -13.2765   20.4107 N   0  0  0  0  0  0
  -26.3055  -12.9369   20.3362 N   0  0  0  0  0  0
  -25.9358  -11.6529   20.5784 N   0  0  0  0  0  0
  -22.0482  -12.8295   22.0326 N   0  0  0  0  0  0
  -25.4301  -15.1861   20.3961 N   0  0  0  0  0  0
  -31.9030  -14.5425   20.1075 O   0  0  0  0  0  0
  -21.6627   -6.8867   21.4244 O   0  0  0  0  0  0
  -22.3580  -14.5627   20.6652 O   0  0  0  0  0  0
  -24.6121  -31.8693   23.2052 C   0  0  0  0  0  0
  -25.9010  -32.4832   23.8364 C   0  0  1  0  0  0
  -27.2413  -27.4388   20.1295 C   0  0  0  0  0  0
  -25.5858  -33.8617   24.2300 N   0  0  0  0  0  0
  -23.4002  -30.4905   21.5414 C   0  0  2  0  0  0
  -24.8528  -28.9544   20.1096 C   0  0  0  0  0  0
  -22.7409  -29.4664   22.4934 C   0  0  0  0  0  0
  -18.0283  -28.1385   22.8516 C   0  0  0  0  0  0
  -24.1458  -36.7293   23.2648 C   0  0  0  0  0  0
  -25.9258  -30.8436   21.3526 C   0  0  0  0  0  0
  -26.0084  -29.4752   20.7092 C   0  0  0  0  0  0
  -27.2046  -28.7261   20.7092 C   0  0  0  0  0  0
  -26.0773  -26.9400   19.5006 C   0  0  0  0  0  0
  -24.8844  -27.6887   19.4955 C   0  0  0  0  0  0
  -23.6104  -29.8153   20.1591 C   0  0  0  0  0  0
  -25.4089  -36.3104   24.0343 C   0  0  1  0  0  0
  -20.5876  -28.3656   23.1322 C   0  0  2  0  0  0
  -20.6732  -26.9383   22.5422 C   0  0  0  0  0  0
  -19.5700  -26.6395   21.5218 C   0  0  0  0  0  0
  -18.1904  -26.7936   22.1662 C   0  0  0  0  0  0
  -19.1542  -28.8844   23.2921 C   0  0  0  0  0  0
  -18.9464  -30.1447   23.8919 C   0  0  0  0  0  0
  -17.6470  -30.6590   24.0576 C   0  0  0  0  0  0
  -25.9022  -34.9470   23.5136 C   0  0  0  0  0  0
  -16.5354  -29.9089   23.6338 C   0  0  0  0  0  0
  -16.7280  -28.6505   23.0373 C   0  0  0  0  0  0
  -26.4430  -31.6620   25.0690 C   0  0  0  0  0  0
  -25.3689  -31.3764   26.1447 C   0  0  0  0  0  0
  -27.0234  -30.3056   24.6038 C   0  0  0  0  0  0
  -27.6011  -32.4330   25.7443 C   0  0  0  0  0  0
  -27.5554  -37.1814   24.8478 C   0  0  0  0  0  0
  -21.4141  -29.3028   22.3705 N   0  0  0  0  0  0
  -26.4279  -37.3787   23.9413 N   0  0  0  0  0  0
  -24.6642  -31.0827   22.0915 N   0  0  0  0  0  0
  -23.4189  -28.8213   23.2984 O   0  0  0  0  0  0
  -28.4021  -26.7006   20.1975 O   0  0  0  0  0  0
  -26.5615  -34.8931   22.4694 O   0  0  0  0  0  0
  -23.5322  -32.1409   23.7471 O   0  0  0  0  0  0
  -30.2590  -20.6133   21.5414 C   0  0  0  0  0  0
  -29.3884  -21.2366   22.4581 C   0  0  0  0  0  0
  -30.6359  -21.3977   20.4283 C   0  0  0  0  0  0
  -29.5807  -23.2279   21.3226 C   0  0  0  0  0  0
  -28.7769  -20.4811   23.6244 C   0  0  0  0  0  0
  -32.9705  -21.2304   19.4710 C   0  0  0  0  0  0
  -30.8500  -19.2183   21.7978 C   0  0  0  0  0  0
  -31.4905  -20.8868   19.2788 C   0  0  0  0  0  0
  -29.4250  -24.7508   21.3011 C   0  0  0  0  0  0
  -29.9347  -18.0070   21.5022 C   0  0  0  0  0  0
  -30.8118  -16.7712   21.2206 C   0  0  0  0  0  0
  -28.2604  -25.2864   20.4396 C   0  0  0  0  0  0
  -29.0570  -22.5427   22.3414 N   0  0  0  0  0  0
  -30.3021  -22.6983   20.3444 N   0  0  0  0  0  0
  -30.1172  -15.4885   21.0520 N   0  0  0  0  0  0
  -31.4574  -12.3203   19.1181 H   0  0  0  0  0  0
  -30.2635  -11.2653   19.8274 H   0  0  0  0  0  0
  -29.7156  -11.7341   17.4178 H   0  0  0  0  0  0
  -29.6901  -13.4472   17.7393 H   0  0  0  0  0  0
  -27.7680  -11.3266   18.7775 H   0  0  0  0  0  0
  -27.3694  -12.6928   17.7692 H   0  0  0  0  0  0
  -27.7070  -14.2660   19.5617 H   0  0  0  0  0  0
  -28.6677  -11.9862   21.3523 H   0  0  0  0  0  0
  -28.4880  -13.6442   21.8403 H   0  0  0  0  0  0
  -25.2657   -9.5812   22.4736 H   0  0  0  0  0  0
  -23.9999   -7.4706   22.7456 H   0  0  0  0  0  0
  -21.0801   -8.8777   19.8972 H   0  0  0  0  0  0
  -22.3591  -10.9653   19.6155 H   0  0  0  0  0  0
  -21.1995   -7.6111   23.9692 H   0  0  0  0  0  0
  -21.1487   -6.0450   25.9045 H   0  0  0  0  0  0
  -22.0611   -2.7586   23.2813 H   0  0  0  0  0  0
  -22.4031  -11.9967   22.4799 H   0  0  0  0  0  0
  -21.1142  -13.1446   22.2539 H   0  0  0  0  0  0
  -24.6493  -15.8327   20.4263 H   0  0  0  0  0  0
  -26.2940  -15.6253   20.1043 H   0  0  0  0  0  0
  -26.7068  -32.5562   23.1136 H   0  0  0  0  0  0
  -24.9941  -33.9739   25.0395 H   0  0  0  0  0  0
  -22.6868  -31.3052   21.3994 H   0  0  0  0  0  0
  -23.3703  -35.9651   23.3403 H   0  0  0  0  0  0
  -24.3529  -36.8802   22.2042 H   0  0  0  0  0  0
  -23.7239  -37.6533   23.6595 H   0  0  0  0  0  0
  -26.0317  -31.6057   20.5801 H   0  0  0  0  0  0
  -26.8160  -30.9065   21.9656 H   0  0  0  0  0  0
  -28.0934  -29.1231   21.1785 H   0  0  0  0  0  0
  -26.0909  -25.9761   19.0129 H   0  0  0  0  0  0
  -24.0040  -27.2865   19.0156 H   0  0  0  0  0  0
  -23.7108  -30.5823   19.3905 H   0  0  0  0  0  0
  -22.7387  -29.2252   19.8721 H   0  0  0  0  0  0
  -25.1273  -36.1960   25.0843 H   0  0  0  0  0  0
  -21.0019  -28.3221   24.1417 H   0  0  0  0  0  0
  -20.5591  -26.2276   23.3612 H   0  0  0  0  0  0
  -21.6605  -26.7375   22.1240 H   0  0  0  0  0  0
  -19.6822  -25.6312   21.1226 H   0  0  0  0  0  0
  -19.6621  -27.3216   20.6751 H   0  0  0  0  0  0
  -17.4154  -26.6707   21.4070 H   0  0  0  0  0  0
  -18.0304  -26.0075   22.9064 H   0  0  0  0  0  0
  -19.7935  -30.7280   24.2281 H   0  0  0  0  0  0
  -17.5017  -31.6271   24.5170 H   0  0  0  0  0  0
  -15.5350  -30.2999   23.7631 H   0  0  0  0  0  0
  -15.8690  -28.0817   22.7082 H   0  0  0  0  0  0
  -24.5838  -30.7129   25.7804 H   0  0  0  0  0  0
  -24.8908  -32.2942   26.4872 H   0  0  0  0  0  0
  -25.8044  -30.8949   27.0215 H   0  0  0  0  0  0
  -26.2768  -29.6875   24.1043 H   0  0  0  0  0  0
  -27.3950  -29.7239   25.4490 H   0  0  0  0  0  0
  -27.8626  -30.4383   23.9211 H   0  0  0  0  0  0
  -27.2630  -33.3618   26.2054 H   0  0  0  0  0  0
  -28.3800  -32.6929   25.0258 H   0  0  0  0  0  0
  -28.0700  -31.8437   26.5329 H   0  0  0  0  0  0
  -28.2651  -38.0038   24.7466 H   0  0  0  0  0  0
  -28.0985  -36.2580   24.6398 H   0  0  0  0  0  0
  -27.2288  -37.1583   25.8892 H   0  0  0  0  0  0
  -20.9273  -29.8780   21.6973 H   0  0  0  0  0  0
  -26.0172  -38.2871   24.1394 H   0  0  0  0  0  0
  -28.0575  -19.7531   23.2477 H   0  0  0  0  0  0
  -28.2475  -21.1397   24.3113 H   0  0  0  0  0  0
  -29.5293  -19.9395   24.1980 H   0  0  0  0  0  0
  -33.5609  -20.9277   18.6065 H   0  0  0  0  0  0
  -33.3720  -20.7331   20.3548 H   0  0  0  0  0  0
  -33.1011  -22.3037   19.6064 H   0  0  0  0  0  0
  -31.1925  -19.1644   22.8330 H   0  0  0  0  0  0
  -31.7673  -19.1212   21.2189 H   0  0  0  0  0  0
  -31.1301  -21.3352   18.3508 H   0  0  0  0  0  0
  -31.3552  -19.8126   19.1495 H   0  0  0  0  0  0
  -30.3625  -25.1789   20.9465 H   0  0  0  0  0  0
  -29.3198  -25.1089   22.3270 H   0  0  0  0  0  0
  -29.3254  -18.2122   20.6214 H   0  0  0  0  0  0
  -29.2535  -17.8302   22.3386 H   0  0  0  0  0  0
  -31.5549  -16.6443   22.0124 H   0  0  0  0  0  0
  -31.3695  -16.9976   20.3075 H   0  0  0  0  0  0
  -27.3261  -25.0456   20.9517 H   0  0  0  0  0  0
  -28.2438  -24.7734   19.4795 H   0  0  0  0  0  0
  -29.1422  -15.3998   21.2945 H   0  0  0  0  0  0
  1 25  1  0  0  0
  1 30  2  0  0  0
  1 85  1  0  0  0
  2  3  1  0  0  0
  2 25  1  0  0  0
  2 86  1  0  0  0
  2 87  1  0  0  0
  3  4  1  0  0  0
  3 88  1  0  0  0
  3 89  1  0  0  0
  4  5  1  0  0  0
  4 90  1  0  0  0
  4 91  1  0  0  0
  5  6  1  0  0  0
  5 26  1  0  0  0
  5 92  1  0  0  0
  6 25  1  0  0  0
  6 93  1  0  0  0
  6 94  1  0  0  0
  7  8  2  0  0  0
  7 26  1  0  0  0
  7 29  1  0  0  0
  8  9  1  0  0  0
  8 22  1  0  0  0
  9 10  1  0  0  0
  9 27  2  0  0  0
 10 11  2  0  0  0
 10 15  1  0  0  0
 11 12  1  0  0  0
 11 95  1  0  0  0
 12 13  2  0  0  0
 12 96  1  0  0  0
 13 14  1  0  0  0
 13 31  1  0  0  0
 14 15  2  0  0  0
 14 97  1  0  0  0
 15 98  1  0  0  0
 16 17  2  0  0  0
 16 21  1  0  0  0
 16 31  1  0  0  0
 17 18  1  0  0  0
 17 99  1  0  0  0
 18 19  2  0  0  0
 18100  1  0  0  0
 19 20  1  0  0  0
 19 24  1  0  0  0
 20 21  2  0  0  0
 20101  1  0  0  0
 21 23  1  0  0  0
 22 28  1  0  0  0
 22 32  2  0  0  0
 26 27  1  0  0  0
 28102  1  0  0  0
 28103  1  0  0  0
 29104  1  0  0  0
 29105  1  0  0  0
 33 34  1  0  0  0
 33 66  1  0  0  0
 33 70  2  0  0  0
 34 36  1  0  0  0
 34 59  1  0  0  0
 34106  1  0  0  0
 35 44  2  0  0  0
 35 45  1  0  0  0
 35 68  1  0  0  0
 36 56  1  0  0  0
 36107  1  0  0  0
 37 39  1  0  0  0
 37 47  1  0  0  0
 37 66  1  0  0  0
 37108  1  0  0  0
 38 43  2  0  0  0
 38 46  1  0  0  0
 38 47  1  0  0  0
 39 64  1  0  0  0
 39 67  2  0  0  0
 40 52  1  0  0  0
 40 53  2  0  0  0
 40 58  1  0  0  0
 41109  1  0  0  0
 41110  1  0  0  0
 41111  1  0  0  0
 41 48  1  0  0  0
 42 43  1  0  0  0
 42 66  1  0  0  0
 42112  1  0  0  0
 42113  1  0  0  0
 43 44  1  0  0  0
 44114  1  0  0  0
 45 46  2  0  0  0
 45115  1  0  0  0
 46116  1  0  0  0
 47117  1  0  0  0
 47118  1  0  0  0
 48 56  1  0  0  0
 48 65  1  0  0  0
 48119  1  0  0  0
 49 50  1  0  0  0
 49 53  1  0  0  0
 49 64  1  0  0  0
 49120  1  0  0  0
 50 51  1  0  0  0
 50121  1  0  0  0
 50122  1  0  0  0
 51 52  1  0  0  0
 51123  1  0  0  0
 51124  1  0  0  0
 52125  1  0  0  0
 52126  1  0  0  0
 53 54  1  0  0  0
 54 55  2  0  0  0
 54127  1  0  0  0
 55 57  1  0  0  0
 55128  1  0  0  0
 56 69  2  0  0  0
 57 58  2  0  0  0
 57129  1  0  0  0
 58130  1  0  0  0
 59 60  1  0  0  0
 59 61  1  0  0  0
 59 62  1  0  0  0
 60131  1  0  0  0
 60132  1  0  0  0
 60133  1  0  0  0
 61134  1  0  0  0
 61135  1  0  0  0
 61136  1  0  0  0
 62137  1  0  0  0
 62138  1  0  0  0
 62139  1  0  0  0
 63 65  1  0  0  0
 63140  1  0  0  0
 63141  1  0  0  0
 63142  1  0  0  0
 64143  1  0  0  0
 65144  1  0  0  0
 68 82  1  0  0  0
 71 72  2  0  0  0
 71 73  1  0  0  0
 71 77  1  0  0  0
 72 75  1  0  0  0
 72 83  1  0  0  0
 73 78  1  0  0  0
 73 84  2  0  0  0
 74 79  1  0  0  0
 74 83  2  0  0  0
 74 84  1  0  0  0
 75145  1  0  0  0
 75146  1  0  0  0
 75147  1  0  0  0
 76 78  1  0  0  0
 76148  1  0  0  0
 76149  1  0  0  0
 76150  1  0  0  0
 77 80  1  0  0  0
 77151  1  0  0  0
 77152  1  0  0  0
 78153  1  0  0  0
 78154  1  0  0  0
 79 82  1  0  0  0
 79155  1  0  0  0
 79156  1  0  0  0
 80 81  1  0  0  0
 80157  1  0  0  0
 80158  1  0  0  0
 81 85  1  0  0  0
 81159  1  0  0  0
 81160  1  0  0  0
 82161  1  0  0  0
 82162  1  0  0  0
 85163  1  0  0  0
M  ISO  4   1 100  68 101  82 101  85 100
M  END
> <chiral flag>
0

> <version>
0

> <s_m_source_file>
/data/baiqing/PycharmProjects/Reinvent-master-3.2/result/LINK_invent/BTK/process_docking_weight1_custom_sum_contain_oxygen_bond_distance_aromatic_linkinvent_7_9_3/rearranged_h_0041.sdf

> <i_m_source_file_index>
44

> <r_mmod_Potential_Energy-OPLS-2005>
-463.299896240234

> <r_mmod_Stretch_Energy-OPLS-2005>
35.0069847106934

> <r_mmod_Bend_Energy-OPLS-2005>
103.25666809082

> <r_mmod_Torsional_Energy-OPLS-2005>
198.381851196289

> <r_mmod_Improper_Torsional_Energy-OPLS-2005>
3.65445423126221

> <r_mmod_Van_der_Waal_Energy-OPLS-2005>
163.984420776367

> <r_mmod_Electrostatic_Energy-OPLS-2005>
-755.470642089844

> <r_mmod_Solvation_Energy-OPLS-2005>
-229.001190185547

> <b_mmod_Minimization_Converged-OPLS-2005>
0

> <r_mmod_RMS_Derivative-OPLS-2005>
5.50197601318359

$$$$
44
                    3D
 Structure written by MMmdl.
156164  0  0  1  0            999 V2000
  -30.5025  -14.9098   20.4276 C   0  0  0  0  0  0
  -30.4504  -12.5556   19.4914 C   0  0  0  0  0  0
  -29.5236  -12.5350   18.2509 C   0  0  0  0  0  0
  -28.0509  -12.3296   18.6579 C   0  0  0  0  0  0
  -27.6349  -13.2399   19.8419 C   0  0  2  0  0  0
  -28.6779  -13.2124   20.9775 C   0  0  0  0  0  0
  -25.2486  -13.8194   20.5710 C   0  0  0  0  0  0
  -24.1787  -13.0422   20.9212 C   0  0  0  0  0  0
  -24.6387  -11.6909   20.8730 C   0  0  0  0  0  0
  -23.9063  -10.4289   21.0394 C   0  0  0  0  0  0
  -24.3613   -9.4210   21.9175 C   0  0  0  0  0  0
  -23.6294   -8.2245   22.0745 C   0  0  0  0  0  0
  -22.4275   -8.0278   21.3540 C   0  0  0  0  0  0
  -21.9909   -9.0244   20.4635 C   0  0  0  0  0  0
  -22.7234  -10.2126   20.3046 C   0  0  0  0  0  0
  -21.6853   -6.0732   22.5280 C   0  0  0  0  0  0
  -21.4015   -6.5635   23.8215 C   0  0  0  0  0  0
  -21.3664   -5.6785   24.9176 C   0  0  0  0  0  0
  -21.6043   -4.3049   24.7226 C   0  0  0  0  0  0
  -21.8820   -3.8144   23.4347 C   0  0  0  0  0  0
  -21.9194   -4.6962   22.3402 C   0  0  0  0  0  0
  -22.7809  -13.5206   21.1867 C   0  0  0  0  0  0
  -22.1662   -4.2149   21.0982 F   0  0  0  0  0  0
  -21.5632   -3.4533   25.7741 F   0  0  0  0  0  0
  -29.9671  -13.6248   20.4075 N   0  0  0  0  0  0
  -26.2906  -12.9409   20.3240 N   0  0  0  0  0  0
  -25.9317  -11.6545   20.5712 N   0  0  0  0  0  0
  -22.0450  -12.8204   22.0426 N   0  0  0  0  0  0
  -25.4146  -15.1922   20.4173 N   0  0  0  0  0  0
  -31.6931  -15.0185   20.1155 O   0  0  0  0  0  0
  -21.6639   -6.8874   21.4242 O   0  0  0  0  0  0
  -22.3498  -14.5512   20.6718 O   0  0  0  0  0  0
  -24.6414  -31.8459   23.1899 C   0  0  0  0  0  0
  -25.9192  -32.4708   23.8284 C   0  0  1  0  0  0
  -27.2184  -27.1572   20.1482 C   0  0  0  0  0  0
  -25.5939  -33.8514   24.2200 N   0  0  0  0  0  0
  -23.4436  -30.4659   21.5360 C   0  0  2  0  0  0
  -24.8932  -28.8975   20.1085 C   0  0  0  0  0  0
  -22.7560  -29.4551   22.4873 C   0  0  0  0  0  0
  -18.0298  -28.1400   22.8482 C   0  0  0  0  0  0
  -24.1488  -36.7263   23.2645 C   0  0  0  0  0  0
  -25.9977  -30.7274   21.3845 C   0  0  0  0  0  0
  -26.0699  -29.3408   20.7253 C   0  0  0  0  0  0
  -27.2339  -28.4868   20.7281 C   0  0  0  0  0  0
  -26.0158  -26.8111   19.4908 C   0  0  0  0  0  0
  -24.8785  -27.6461   19.4756 C   0  0  0  0  0  0
  -23.6678  -29.7964   20.1544 C   0  0  0  0  0  0
  -25.4119  -36.3043   24.0324 C   0  0  1  0  0  0
  -20.5914  -28.3718   23.1247 C   0  0  2  0  0  0
  -20.6784  -26.9419   22.5416 C   0  0  0  0  0  0
  -19.5757  -26.6378   21.5224 C   0  0  0  0  0  0
  -18.1936  -26.7934   22.1633 C   0  0  0  0  0  0
  -19.1557  -28.8877   23.2853 C   0  0  0  0  0  0
  -18.9472  -30.1475   23.8877 C   0  0  0  0  0  0
  -17.6467  -30.6594   24.0563 C   0  0  0  0  0  0
  -25.9070  -34.9417   23.5073 C   0  0  0  0  0  0
  -16.5361  -29.9086   23.6342 C   0  0  0  0  0  0
  -16.7284  -28.6509   23.0359 C   0  0  0  0  0  0
  -26.4521  -31.6572   25.0718 C   0  0  0  0  0  0
  -25.3708  -31.3748   26.1410 C   0  0  0  0  0  0
  -27.0389  -30.2975   24.6281 C   0  0  0  0  0  0
  -27.6041  -32.4341   25.7504 C   0  0  0  0  0  0
  -27.5571  -37.1787   24.8467 C   0  0  0  0  0  0
  -21.4255  -29.3044   22.3624 N   0  0  0  0  0  0
  -26.4284  -37.3753   23.9411 N   0  0  0  0  0  0
  -24.7140  -31.0337   22.0923 N   0  0  0  0  0  0
  -23.4211  -28.8099   23.3015 O   0  0  0  0  0  0
  -28.2756  -26.1837   20.2314 O   0  0  0  0  0  0
  -26.5662  -34.8911   22.4653 O   0  0  0  0  0  0
  -23.5540  -32.1325   23.7138 O   0  0  0  0  0  0
  -29.1905  -19.0120   20.3001 C   0  0  0  0  0  0
  -30.6381  -20.6027   21.3523 C   0  0  0  0  0  0
  -29.4791  -20.4352   20.5811 C   0  0  0  0  0  0
  -29.9908  -17.8637   20.7842 C   0  0  0  0  0  0
  -31.0842  -18.2815   21.5882 C   0  0  0  0  0  0
  -33.4054  -17.2565   21.7453 C   0  0  0  0  0  0
  -29.5693  -16.2728   20.6238 C   0  0  0  0  0  0
  -28.6111  -21.7593   20.1358 C   0  0  0  0  0  0
  -31.9945  -17.3255   22.3467 C   0  0  0  0  0  0
  -28.9845  -23.3696   20.4503 C   0  0  0  0  0  0
  -28.0055  -24.6689   20.0353 C   0  0  0  0  0  0
  -31.3882  -19.5828   21.8273 N   0  0  0  0  0  0
  -31.4835  -12.7210   19.1816 H   0  0  0  0  0  0
  -30.4430  -11.5874   19.9938 H   0  0  0  0  0  0
  -29.8330  -11.7517   17.5576 H   0  0  0  0  0  0
  -29.6218  -13.4769   17.7090 H   0  0  0  0  0  0
  -27.9255  -11.2831   18.9375 H   0  0  0  0  0  0
  -27.3954  -12.4959   17.8021 H   0  0  0  0  0  0
  -27.6099  -14.2525   19.4407 H   0  0  0  0  0  0
  -28.7493  -12.2132   21.4094 H   0  0  0  0  0  0
  -28.3823  -13.8734   21.7923 H   0  0  0  0  0  0
  -25.2753   -9.5702   22.4752 H   0  0  0  0  0  0
  -24.0002   -7.4642   22.7467 H   0  0  0  0  0  0
  -21.0840   -8.8759   19.8941 H   0  0  0  0  0  0
  -22.3679  -10.9663   19.6158 H   0  0  0  0  0  0
  -21.2003   -7.6142   23.9724 H   0  0  0  0  0  0
  -21.1487   -6.0511   25.9080 H   0  0  0  0  0  0
  -22.0597   -2.7605   23.2846 H   0  0  0  0  0  0
  -22.4060  -11.9876   22.4836 H   0  0  0  0  0  0
  -21.1061  -13.1228   22.2606 H   0  0  0  0  0  0
  -24.6449  -15.8413   20.5418 H   0  0  0  0  0  0
  -26.2611  -15.6415   20.0931 H   0  0  0  0  0  0
  -26.7241  -32.5324   23.1002 H   0  0  0  0  0  0
  -25.0038  -33.9625   25.0313 H   0  0  0  0  0  0
  -22.7453  -31.2917   21.3843 H   0  0  0  0  0  0
  -23.3761  -35.9584   23.3304 H   0  0  0  0  0  0
  -24.3565  -36.8911   22.2058 H   0  0  0  0  0  0
  -23.7239  -37.6458   23.6688 H   0  0  0  0  0  0
  -26.1493  -31.4839   20.6136 H   0  0  0  0  0  0
  -26.8693  -30.7778   22.0259 H   0  0  0  0  0  0
  -28.1301  -28.8204   21.2327 H   0  0  0  0  0  0
  -25.9188  -25.8536   19.0011 H   0  0  0  0  0  0
  -23.9796  -27.3033   18.9814 H   0  0  0  0  0  0
  -23.7990  -30.5726   19.3993 H   0  0  0  0  0  0
  -22.7825  -29.2371   19.8464 H   0  0  0  0  0  0
  -25.1307  -36.1871   25.0819 H   0  0  0  0  0  0
  -20.9998  -28.3301   24.1372 H   0  0  0  0  0  0
  -20.5688  -26.2323   23.3632 H   0  0  0  0  0  0
  -21.6646  -26.7429   22.1206 H   0  0  0  0  0  0
  -19.6920  -25.6284   21.1265 H   0  0  0  0  0  0
  -19.6698  -27.3183   20.6747 H   0  0  0  0  0  0
  -17.4206  -26.6687   21.4035 H   0  0  0  0  0  0
  -18.0325  -26.0086   22.9038 H   0  0  0  0  0  0
  -19.7950  -30.7299   24.2237 H   0  0  0  0  0  0
  -17.5023  -31.6276   24.5164 H   0  0  0  0  0  0
  -15.5363  -30.2982   23.7677 H   0  0  0  0  0  0
  -15.8684  -28.0823   22.7082 H   0  0  0  0  0  0
  -24.5888  -30.7093   25.7728 H   0  0  0  0  0  0
  -24.8882  -32.2921   26.4789 H   0  0  0  0  0  0
  -25.7983  -30.8951   27.0221 H   0  0  0  0  0  0
  -26.3003  -29.6690   24.1284 H   0  0  0  0  0  0
  -27.4018  -29.7273   25.4842 H   0  0  0  0  0  0
  -27.8901  -30.4236   23.9585 H   0  0  0  0  0  0
  -27.2631  -33.3663   26.2014 H   0  0  0  0  0  0
  -28.3876  -32.6869   25.0351 H   0  0  0  0  0  0
  -28.0674  -31.8517   26.5476 H   0  0  0  0  0  0
  -28.2584  -38.0088   24.7514 H   0  0  0  0  0  0
  -28.1077  -36.2620   24.6297 H   0  0  0  0  0  0
  -27.2286  -37.1427   25.8869 H   0  0  0  0  0  0
  -20.9464  -29.8752   21.6804 H   0  0  0  0  0  0
  -26.0162  -38.2827   24.1419 H   0  0  0  0  0  0
  -28.3009  -18.7934   19.7272 H   0  0  0  0  0  0
  -30.9699  -21.5920   21.6317 H   0  0  0  0  0  0
  -34.0268  -16.5485   22.2928 H   0  0  0  0  0  0
  -33.8950  -18.2298   21.7847 H   0  0  0  0  0  0
  -33.3762  -16.9438   20.7021 H   0  0  0  0  0  0
  -28.8889  -16.2531   19.7734 H   0  0  0  0  0  0
  -28.9316  -16.0726   21.4840 H   0  0  0  0  0  0
  -27.6115  -21.5919   20.5382 H   0  0  0  0  0  0
  -28.4890  -21.6748   19.0555 H   0  0  0  0  0  0
  -31.5609  -16.3337   22.4285 H   0  0  0  0  0  0
  -32.0690  -17.6694   23.3792 H   0  0  0  0  0  0
  -29.9597  -23.5593   20.0014 H   0  0  0  0  0  0
  -29.1523  -23.4498   21.5244 H   0  0  0  0  0  0
  -27.0538  -24.4731   20.5312 H   0  0  0  0  0  0
  -27.7996  -24.5520   18.9708 H   0  0  0  0  0  0
  1 25  1  0  0  0
  1 30  2  0  0  0
  1 77  1  0  0  0
  2  3  1  0  0  0
  2 25  1  0  0  0
  2 83  1  0  0  0
  2 84  1  0  0  0
  3  4  1  0  0  0
  3 85  1  0  0  0
  3 86  1  0  0  0
  4  5  1  0  0  0
  4 87  1  0  0  0
  4 88  1  0  0  0
  5  6  1  0  0  0
  5 26  1  0  0  0
  5 89  1  0  0  0
  6 25  1  0  0  0
  6 90  1  0  0  0
  6 91  1  0  0  0
  7  8  2  0  0  0
  7 26  1  0  0  0
  7 29  1  0  0  0
  8  9  1  0  0  0
  8 22  1  0  0  0
  9 10  1  0  0  0
  9 27  2  0  0  0
 10 11  2  0  0  0
 10 15  1  0  0  0
 11 12  1  0  0  0
 11 92  1  0  0  0
 12 13  2  0  0  0
 12 93  1  0  0  0
 13 14  1  0  0  0
 13 31  1  0  0  0
 14 15  2  0  0  0
 14 94  1  0  0  0
 15 95  1  0  0  0
 16 17  2  0  0  0
 16 21  1  0  0  0
 16 31  1  0  0  0
 17 18  1  0  0  0
 17 96  1  0  0  0
 18 19  2  0  0  0
 18 97  1  0  0  0
 19 20  1  0  0  0
 19 24  1  0  0  0
 20 21  2  0  0  0
 20 98  1  0  0  0
 21 23  1  0  0  0
 22 28  1  0  0  0
 22 32  2  0  0  0
 26 27  1  0  0  0
 28 99  1  0  0  0
 28100  1  0  0  0
 29101  1  0  0  0
 29102  1  0  0  0
 33 34  1  0  0  0
 33 66  1  0  0  0
 33 70  2  0  0  0
 34 36  1  0  0  0
 34 59  1  0  0  0
 34103  1  0  0  0
 35 44  2  0  0  0
 35 45  1  0  0  0
 35 68  1  0  0  0
 36 56  1  0  0  0
 36104  1  0  0  0
 37 39  1  0  0  0
 37 47  1  0  0  0
 37 66  1  0  0  0
 37105  1  0  0  0
 38 43  2  0  0  0
 38 46  1  0  0  0
 38 47  1  0  0  0
 39 64  1  0  0  0
 39 67  2  0  0  0
 40 52  1  0  0  0
 40 53  2  0  0  0
 40 58  1  0  0  0
 41106  1  0  0  0
 41107  1  0  0  0
 41108  1  0  0  0
 41 48  1  0  0  0
 42 43  1  0  0  0
 42 66  1  0  0  0
 42109  1  0  0  0
 42110  1  0  0  0
 43 44  1  0  0  0
 44111  1  0  0  0
 45 46  2  0  0  0
 45112  1  0  0  0
 46113  1  0  0  0
 47114  1  0  0  0
 47115  1  0  0  0
 48 56  1  0  0  0
 48 65  1  0  0  0
 48116  1  0  0  0
 49 50  1  0  0  0
 49 53  1  0  0  0
 49 64  1  0  0  0
 49117  1  0  0  0
 50 51  1  0  0  0
 50118  1  0  0  0
 50119  1  0  0  0
 51 52  1  0  0  0
 51120  1  0  0  0
 51121  1  0  0  0
 52122  1  0  0  0
 52123  1  0  0  0
 53 54  1  0  0  0
 54 55  2  0  0  0
 54124  1  0  0  0
 55 57  1  0  0  0
 55125  1  0  0  0
 56 69  2  0  0  0
 57 58  2  0  0  0
 57126  1  0  0  0
 58127  1  0  0  0
 59 60  1  0  0  0
 59 61  1  0  0  0
 59 62  1  0  0  0
 60128  1  0  0  0
 60129  1  0  0  0
 60130  1  0  0  0
 61131  1  0  0  0
 61132  1  0  0  0
 61133  1  0  0  0
 62134  1  0  0  0
 62135  1  0  0  0
 62136  1  0  0  0
 63 65  1  0  0  0
 63137  1  0  0  0
 63138  1  0  0  0
 63139  1  0  0  0
 64140  1  0  0  0
 65141  1  0  0  0
 68 81  1  0  0  0
 71 73  2  0  0  0
 71 74  1  0  0  0
 71142  1  0  0  0
 72 73  1  0  0  0
 72 82  2  0  0  0
 72143  1  0  0  0
 73 78  1  0  0  0
 74 75  2  0  0  0
 74 77  1  0  0  0
 75 79  1  0  0  0
 75 82  1  0  0  0
 76 79  1  0  0  0
 76144  1  0  0  0
 76145  1  0  0  0
 76146  1  0  0  0
 77147  1  0  0  0
 77148  1  0  0  0
 78 80  1  0  0  0
 78149  1  0  0  0
 78150  1  0  0  0
 79151  1  0  0  0
 79152  1  0  0  0
 80 81  1  0  0  0
 80153  1  0  0  0
 80154  1  0  0  0
 81155  1  0  0  0
 81156  1  0  0  0
M  ISO  4   1 100  68 101  77 100  81 101
M  END
> <chiral flag>
0

> <version>
0

> <s_m_source_file>
/data/baiqing/PycharmProjects/Reinvent-master-3.2/result/LINK_invent/BTK/process_docking_weight1_custom_sum_contain_oxygen_bond_distance_aromatic_linkinvent_7_9_3/rearranged_h_0041.sdf

> <i_m_source_file_index>
45

> <r_mmod_Potential_Energy-OPLS-2005>
278.900024414062

> <r_mmod_Stretch_Energy-OPLS-2005>
241.989562988281

> <r_mmod_Bend_Energy-OPLS-2005>
244.369186401367

> <r_mmod_Torsional_Energy-OPLS-2005>
172.507080078125

> <r_mmod_Improper_Torsional_Energy-OPLS-2005>
5.57558727264404

> <r_mmod_Van_der_Waal_Energy-OPLS-2005>
132.107131958008

> <r_mmod_Electrostatic_Energy-OPLS-2005>
-474.442993164062

> <r_mmod_Solvation_Energy-OPLS-2005>
-212.693023681641

> <b_mmod_Minimization_Converged-OPLS-2005>
0

> <r_mmod_RMS_Derivative-OPLS-2005>
1.13990294933319

$$$$
45
                    3D
 Structure written by MMmdl.
166175  0  0  1  0            999 V2000
  -30.7826  -14.3508   20.6674 C   0  0  0  0  0  0
  -30.4082  -12.2753   19.3953 C   0  0  0  0  0  0
  -29.4806  -12.5154   18.1910 C   0  0  0  0  0  0
  -28.0050  -12.3782   18.6097 C   0  0  0  0  0  0
  -27.6645  -13.2042   19.8784 C   0  0  2  0  0  0
  -28.7033  -12.9536   20.9936 C   0  0  0  0  0  0
  -25.2599  -13.8163   20.5672 C   0  0  0  0  0  0
  -24.1847  -13.0440   20.9169 C   0  0  0  0  0  0
  -24.6398  -11.6906   20.8736 C   0  0  0  0  0  0
  -23.9066  -10.4294   21.0411 C   0  0  0  0  0  0
  -24.3618   -9.4204   21.9186 C   0  0  0  0  0  0
  -23.6293   -8.2241   22.0755 C   0  0  0  0  0  0
  -22.4272   -8.0283   21.3550 C   0  0  0  0  0  0
  -21.9911   -9.0258   20.4649 C   0  0  0  0  0  0
  -22.7242  -10.2136   20.3059 C   0  0  0  0  0  0
  -21.6851   -6.0736   22.5280 C   0  0  0  0  0  0
  -21.4015   -6.5641   23.8214 C   0  0  0  0  0  0
  -21.3658   -5.6793   24.9175 C   0  0  0  0  0  0
  -21.6042   -4.3056   24.7226 C   0  0  0  0  0  0
  -21.8820   -3.8149   23.4348 C   0  0  0  0  0  0
  -21.9193   -4.6965   22.3404 C   0  0  0  0  0  0
  -22.7870  -13.5242   21.1830 C   0  0  0  0  0  0
  -22.1660   -4.2151   21.0981 F   0  0  0  0  0  0
  -21.5626   -3.4540   25.7739 F   0  0  0  0  0  0
  -30.0440  -13.2342   20.4484 N   0  0  0  0  0  0
  -26.3038  -12.9333   20.3382 N   0  0  0  0  0  0
  -25.9323  -11.6492   20.5771 N   0  0  0  0  0  0
  -22.0512  -12.8237   22.0392 N   0  0  0  0  0  0
  -25.4334  -15.1878   20.4074 N   0  0  0  0  0  0
  -31.8442  -14.5771   20.0817 O   0  0  0  0  0  0
  -21.6639   -6.8878   21.4242 O   0  0  0  0  0  0
  -22.3562  -14.5553   20.6686 O   0  0  0  0  0  0
  -24.6101  -31.8713   23.2130 C   0  0  0  0  0  0
  -25.9011  -32.4835   23.8410 C   0  0  1  0  0  0
  -27.2341  -27.4754   20.0914 C   0  0  0  0  0  0
  -25.5883  -33.8635   24.2340 N   0  0  0  0  0  0
  -23.3956  -30.4951   21.5531 C   0  0  2  0  0  0
  -24.8396  -28.9651   20.1153 C   0  0  0  0  0  0
  -22.7387  -29.4673   22.5019 C   0  0  0  0  0  0
  -18.0264  -28.1378   22.8491 C   0  0  0  0  0  0
  -24.1488  -36.7327   23.2637 C   0  0  0  0  0  0
  -25.9183  -30.8512   21.3567 C   0  0  0  0  0  0
  -25.9973  -29.4874   20.7065 C   0  0  0  0  0  0
  -27.1975  -28.7502   20.6891 C   0  0  0  0  0  0
  -26.0621  -26.9584   19.4927 C   0  0  0  0  0  0
  -24.8649  -27.6981   19.5058 C   0  0  0  0  0  0
  -23.6003  -29.8277   20.1670 C   0  0  0  0  0  0
  -25.4105  -36.3121   24.0340 C   0  0  1  0  0  0
  -20.5855  -28.3650   23.1341 C   0  0  2  0  0  0
  -20.6756  -26.9392   22.5430 C   0  0  0  0  0  0
  -19.5736  -26.6388   21.5221 C   0  0  0  0  0  0
  -18.1909  -26.7926   22.1628 C   0  0  0  0  0  0
  -19.1515  -28.8831   23.2912 C   0  0  0  0  0  0
  -18.9447  -30.1443   23.8910 C   0  0  0  0  0  0
  -17.6451  -30.6584   24.0570 C   0  0  0  0  0  0
  -25.9029  -34.9485   23.5139 C   0  0  0  0  0  0
  -16.5338  -29.9090   23.6330 C   0  0  0  0  0  0
  -16.7258  -28.6515   23.0336 C   0  0  0  0  0  0
  -26.4457  -31.6602   25.0718 C   0  0  0  0  0  0
  -25.3738  -31.3696   26.1483 C   0  0  0  0  0  0
  -27.0278  -30.3058   24.6042 C   0  0  0  0  0  0
  -27.6043  -32.4312   25.7475 C   0  0  0  0  0  0
  -27.5573  -37.1815   24.8459 C   0  0  0  0  0  0
  -21.4122  -29.3024   22.3751 N   0  0  0  0  0  0
  -26.4292  -37.3802   23.9401 N   0  0  0  0  0  0
  -24.6596  -31.0858   22.1003 N   0  0  0  0  0  0
  -23.4175  -28.8221   23.3049 O   0  0  0  0  0  0
  -28.4219  -26.7880   20.0952 O   0  0  0  0  0  0
  -26.5597  -34.8927   22.4704 O   0  0  0  0  0  0
  -23.5308  -32.1440   23.7556 O   0  0  0  0  0  0
  -30.9647  -21.1536   21.0772 C   0  0  0  0  0  0
  -31.5868  -19.8990   21.1737 C   0  0  0  0  0  0
  -29.4159  -18.8172   20.9511 C   0  0  0  0  0  0
  -29.5651  -21.2600   20.9132 C   0  0  0  0  0  0
  -30.8143  -18.7261   21.0950 C   0  0  0  0  0  0
  -28.7828  -20.0750   20.8611 C   0  0  0  0  0  0
  -29.4009  -23.2630   19.3846 C   0  0  0  0  0  0
  -29.2594  -23.5983   21.9222 C   0  0  0  0  0  0
  -28.7012  -24.6042   19.0908 C   0  0  0  0  0  0
  -29.3328  -25.0822   21.5105 C   0  0  0  0  0  0
  -28.9603  -22.6508   20.7298 C   0  0  2  0  0  0
  -28.3566  -25.3933   20.3694 C   0  0  1  0  0  0
  -27.2745  -20.1119   20.6754 C   0  0  0  0  0  0
  -31.5006  -17.3766   21.0775 C   0  0  0  0  0  0
  -30.9816  -16.3702   22.1339 C   0  0  0  0  0  0
  -30.2927  -15.2007   21.5792 N   0  0  0  0  0  0
  -31.4528  -12.3574   19.0900 H   0  0  0  0  0  0
  -30.2920  -11.2567   19.7687 H   0  0  0  0  0  0
  -29.7091  -11.8082   17.3929 H   0  0  0  0  0  0
  -29.6572  -13.5107   17.7799 H   0  0  0  0  0  0
  -27.8091  -11.3210   18.7930 H   0  0  0  0  0  0
  -27.3518  -12.6686   17.7862 H   0  0  0  0  0  0
  -27.7216  -14.2572   19.6015 H   0  0  0  0  0  0
  -28.6627  -11.9133   21.3197 H   0  0  0  0  0  0
  -28.4593  -13.5405   21.8792 H   0  0  0  0  0  0
  -25.2762   -9.5675   22.4763 H   0  0  0  0  0  0
  -23.9999   -7.4631   22.7475 H   0  0  0  0  0  0
  -21.0840   -8.8782   19.8958 H   0  0  0  0  0  0
  -22.3705  -10.9677   19.6170 H   0  0  0  0  0  0
  -21.2012   -7.6150   23.9719 H   0  0  0  0  0  0
  -21.1476   -6.0523   25.9078 H   0  0  0  0  0  0
  -22.0602   -2.7613   23.2849 H   0  0  0  0  0  0
  -22.4122  -11.9886   22.4763 H   0  0  0  0  0  0
  -21.1138  -13.1277   22.2609 H   0  0  0  0  0  0
  -24.6700  -15.8463   20.5148 H   0  0  0  0  0  0
  -26.2914  -15.6235   20.0929 H   0  0  0  0  0  0
  -26.7086  -32.5574   23.1182 H   0  0  0  0  0  0
  -25.0037  -33.9804   25.0484 H   0  0  0  0  0  0
  -22.6823  -31.3102   21.4159 H   0  0  0  0  0  0
  -23.3740  -35.9675   23.3326 H   0  0  0  0  0  0
  -24.3582  -36.8925   22.2046 H   0  0  0  0  0  0
  -23.7258  -37.6544   23.6643 H   0  0  0  0  0  0
  -26.0185  -31.6165   20.5856 H   0  0  0  0  0  0
  -26.8105  -30.9111   21.9673 H   0  0  0  0  0  0
  -28.0940  -29.1502   21.1418 H   0  0  0  0  0  0
  -26.0692  -25.9948   19.0055 H   0  0  0  0  0  0
  -23.9765  -27.2936   19.0409 H   0  0  0  0  0  0
  -23.7036  -30.6022   19.4061 H   0  0  0  0  0  0
  -22.7253  -29.2447   19.8747 H   0  0  0  0  0  0
  -25.1282  -36.1995   25.0836 H   0  0  0  0  0  0
  -20.9934  -28.3205   24.1471 H   0  0  0  0  0  0
  -20.5682  -26.2241   23.3609 H   0  0  0  0  0  0
  -21.6623  -26.7460   22.1208 H   0  0  0  0  0  0
  -19.6903  -25.6307   21.1230 H   0  0  0  0  0  0
  -19.6682  -27.3220   20.6768 H   0  0  0  0  0  0
  -17.4186  -26.6685   21.4019 H   0  0  0  0  0  0
  -18.0295  -26.0072   22.9027 H   0  0  0  0  0  0
  -19.7929  -30.7258   24.2271 H   0  0  0  0  0  0
  -17.5012  -31.6267   24.5173 H   0  0  0  0  0  0
  -15.5339  -30.2995   23.7657 H   0  0  0  0  0  0
  -15.8656  -28.0852   22.7015 H   0  0  0  0  0  0
  -24.5913  -30.7038   25.7830 H   0  0  0  0  0  0
  -24.8915  -32.2846   26.4937 H   0  0  0  0  0  0
  -25.8101  -30.8870   27.0235 H   0  0  0  0  0  0
  -26.2798  -29.6828   24.1122 H   0  0  0  0  0  0
  -27.4110  -29.7280   25.4458 H   0  0  0  0  0  0
  -27.8604  -30.4406   23.9132 H   0  0  0  0  0  0
  -27.2676  -33.3606   26.2082 H   0  0  0  0  0  0
  -28.3832  -32.6887   25.0284 H   0  0  0  0  0  0
  -28.0735  -31.8420   26.5363 H   0  0  0  0  0  0
  -28.2605  -38.0094   24.7500 H   0  0  0  0  0  0
  -28.1057  -36.2632   24.6303 H   0  0  0  0  0  0
  -27.2292  -37.1487   25.8862 H   0  0  0  0  0  0
  -20.9267  -29.8752   21.6992 H   0  0  0  0  0  0
  -26.0189  -38.2885   24.1404 H   0  0  0  0  0  0
  -31.5794  -22.0425   21.1039 H   0  0  0  0  0  0
  -32.6624  -19.8444   21.2737 H   0  0  0  0  0  0
  -28.8296  -17.9109   20.8808 H   0  0  0  0  0  0
  -30.4809  -23.4178   19.3936 H   0  0  0  0  0  0
  -29.2032  -22.5662   18.5689 H   0  0  0  0  0  0
  -28.4918  -23.4544   22.6830 H   0  0  0  0  0  0
  -30.1997  -23.3492   22.4135 H   0  0  0  0  0  0
  -27.7877  -24.4322   18.5210 H   0  0  0  0  0  0
  -29.3508  -25.1965   18.4447 H   0  0  0  0  0  0
  -30.3466  -25.3255   21.1893 H   0  0  0  0  0  0
  -29.1271  -25.7143   22.3750 H   0  0  0  0  0  0
  -27.8762  -22.5687   20.6775 H   0  0  0  0  0  0
  -27.3682  -25.0927   20.7247 H   0  0  0  0  0  0
  -26.8461  -19.1091   20.6653 H   0  0  0  0  0  0
  -27.0158  -20.5883   19.7290 H   0  0  0  0  0  0
  -26.7991  -20.6638   21.4871 H   0  0  0  0  0  0
  -32.5708  -17.5211   21.2323 H   0  0  0  0  0  0
  -31.4066  -17.0065   20.0580 H   0  0  0  0  0  0
  -30.3290  -16.8629   22.8561 H   0  0  0  0  0  0
  -31.8288  -16.0010   22.7143 H   0  0  0  0  0  0
  -29.4109  -14.9460   21.9993 H   0  0  0  0  0  0
  1 25  1  0  0  0
  1 30  2  0  0  0
  1 86  1  0  0  0
  2  3  1  0  0  0
  2 25  1  0  0  0
  2 87  1  0  0  0
  2 88  1  0  0  0
  3  4  1  0  0  0
  3 89  1  0  0  0
  3 90  1  0  0  0
  4  5  1  0  0  0
  4 91  1  0  0  0
  4 92  1  0  0  0
  5  6  1  0  0  0
  5 26  1  0  0  0
  5 93  1  0  0  0
  6 25  1  0  0  0
  6 94  1  0  0  0
  6 95  1  0  0  0
  7  8  2  0  0  0
  7 26  1  0  0  0
  7 29  1  0  0  0
  8  9  1  0  0  0
  8 22  1  0  0  0
  9 10  1  0  0  0
  9 27  2  0  0  0
 10 11  2  0  0  0
 10 15  1  0  0  0
 11 12  1  0  0  0
 11 96  1  0  0  0
 12 13  2  0  0  0
 12 97  1  0  0  0
 13 14  1  0  0  0
 13 31  1  0  0  0
 14 15  2  0  0  0
 14 98  1  0  0  0
 15 99  1  0  0  0
 16 17  2  0  0  0
 16 21  1  0  0  0
 16 31  1  0  0  0
 17 18  1  0  0  0
 17100  1  0  0  0
 18 19  2  0  0  0
 18101  1  0  0  0
 19 20  1  0  0  0
 19 24  1  0  0  0
 20 21  2  0  0  0
 20102  1  0  0  0
 21 23  1  0  0  0
 22 28  1  0  0  0
 22 32  2  0  0  0
 26 27  1  0  0  0
 28103  1  0  0  0
 28104  1  0  0  0
 29105  1  0  0  0
 29106  1  0  0  0
 33 34  1  0  0  0
 33 66  1  0  0  0
 33 70  2  0  0  0
 34 36  1  0  0  0
 34 59  1  0  0  0
 34107  1  0  0  0
 35 44  2  0  0  0
 35 45  1  0  0  0
 35 68  1  0  0  0
 36 56  1  0  0  0
 36108  1  0  0  0
 37 39  1  0  0  0
 37 47  1  0  0  0
 37 66  1  0  0  0
 37109  1  0  0  0
 38 43  2  0  0  0
 38 46  1  0  0  0
 38 47  1  0  0  0
 39 64  1  0  0  0
 39 67  2  0  0  0
 40 52  1  0  0  0
 40 53  2  0  0  0
 40 58  1  0  0  0
 41110  1  0  0  0
 41111  1  0  0  0
 41112  1  0  0  0
 41 48  1  0  0  0
 42 43  1  0  0  0
 42 66  1  0  0  0
 42113  1  0  0  0
 42114  1  0  0  0
 43 44  1  0  0  0
 44115  1  0  0  0
 45 46  2  0  0  0
 45116  1  0  0  0
 46117  1  0  0  0
 47118  1  0  0  0
 47119  1  0  0  0
 48 56  1  0  0  0
 48 65  1  0  0  0
 48120  1  0  0  0
 49 50  1  0  0  0
 49 53  1  0  0  0
 49 64  1  0  0  0
 49121  1  0  0  0
 50 51  1  0  0  0
 50122  1  0  0  0
 50123  1  0  0  0
 51 52  1  0  0  0
 51124  1  0  0  0
 51125  1  0  0  0
 52126  1  0  0  0
 52127  1  0  0  0
 53 54  1  0  0  0
 54 55  2  0  0  0
 54128  1  0  0  0
 55 57  1  0  0  0
 55129  1  0  0  0
 56 69  2  0  0  0
 57 58  2  0  0  0
 57130  1  0  0  0
 58131  1  0  0  0
 59 60  1  0  0  0
 59 61  1  0  0  0
 59 62  1  0  0  0
 60132  1  0  0  0
 60133  1  0  0  0
 60134  1  0  0  0
 61135  1  0  0  0
 61136  1  0  0  0
 61137  1  0  0  0
 62138  1  0  0  0
 62139  1  0  0  0
 62140  1  0  0  0
 63 65  1  0  0  0
 63141  1  0  0  0
 63142  1  0  0  0
 63143  1  0  0  0
 64144  1  0  0  0
 65145  1  0  0  0
 68 82  1  0  0  0
 71 72  2  0  0  0
 71 74  1  0  0  0
 71146  1  0  0  0
 72 75  1  0  0  0
 72147  1  0  0  0
 73 75  2  0  0  0
 73 76  1  0  0  0
 73148  1  0  0  0
 74 76  2  0  0  0
 74 81  1  0  0  0
 75 84  1  0  0  0
 76 83  1  0  0  0
 77 79  1  0  0  0
 77 81  1  0  0  0
 77149  1  0  0  0
 77150  1  0  0  0
 78 80  1  0  0  0
 78 81  1  0  0  0
 78151  1  0  0  0
 78152  1  0  0  0
 79 82  1  0  0  0
 79153  1  0  0  0
 79154  1  0  0  0
 80 82  1  0  0  0
 80155  1  0  0  0
 80156  1  0  0  0
 81157  1  0  0  0
 82158  1  0  0  0
 83159  1  0  0  0
 83160  1  0  0  0
 83161  1  0  0  0
 84 85  1  0  0  0
 84162  1  0  0  0
 84163  1  0  0  0
 85 86  1  0  0  0
 85164  1  0  0  0
 85165  1  0  0  0
 86166  1  0  0  0
M  ISO  4   1 100  68 101  82 101  86 100
M  END
> <chiral flag>
0

> <version>
0

> <s_m_source_file>
/data/baiqing/PycharmProjects/Reinvent-master-3.2/result/LINK_invent/BTK/process_docking_weight1_custom_sum_contain_oxygen_bond_distance_aromatic_linkinvent_7_9_3/rearranged_h_0041.sdf

> <i_m_source_file_index>
46

> <r_mmod_Potential_Energy-OPLS-2005>
-28.1831893920898

> <r_mmod_Stretch_Energy-OPLS-2005>
32.5161514282227

> <r_mmod_Bend_Energy-OPLS-2005>
94.6163024902344

> <r_mmod_Torsional_Energy-OPLS-2005>
263.751403808594

> <r_mmod_Improper_Torsional_Energy-OPLS-2005>
2.05556273460388

> <r_mmod_Van_der_Waal_Energy-OPLS-2005>
172.816284179688

> <r_mmod_Electrostatic_Energy-OPLS-2005>
-404.423919677734

> <r_mmod_Solvation_Energy-OPLS-2005>
-197.937088012695

> <b_mmod_Minimization_Converged-OPLS-2005>
0

> <r_mmod_RMS_Derivative-OPLS-2005>
1.21140837669373

$$$$
46
                    3D
 Structure written by MMmdl.
162170  0  0  1  0            999 V2000
  -30.6883  -14.4303   20.5916 C   0  0  0  0  0  0
  -30.4242  -12.2797   19.4281 C   0  0  0  0  0  0
  -29.5017  -12.5199   18.2093 C   0  0  0  0  0  0
  -28.0184  -12.3785   18.6093 C   0  0  0  0  0  0
  -27.6669  -13.1973   19.8800 C   0  0  2  0  0  0
  -28.7003  -12.9360   21.0030 C   0  0  0  0  0  0
  -25.2599  -13.8142   20.5678 C   0  0  0  0  0  0
  -24.1829  -13.0446   20.9137 C   0  0  0  0  0  0
  -24.6356  -11.6902   20.8698 C   0  0  0  0  0  0
  -23.9025  -10.4294   21.0376 C   0  0  0  0  0  0
  -24.3584   -9.4230   21.9148 C   0  0  0  0  0  0
  -23.6279   -8.2254   22.0748 C   0  0  0  0  0  0
  -22.4250   -8.0282   21.3552 C   0  0  0  0  0  0
  -21.9871   -9.0245   20.4659 C   0  0  0  0  0  0
  -22.7197  -10.2123   20.3048 C   0  0  0  0  0  0
  -21.6857   -6.0724   22.5270 C   0  0  0  0  0  0
  -21.4029   -6.5635   23.8195 C   0  0  0  0  0  0
  -21.3661   -5.6783   24.9163 C   0  0  0  0  0  0
  -21.6033   -4.3042   24.7219 C   0  0  0  0  0  0
  -21.8817   -3.8139   23.4337 C   0  0  0  0  0  0
  -21.9193   -4.6963   22.3395 C   0  0  0  0  0  0
  -22.7843  -13.5287   21.1786 C   0  0  0  0  0  0
  -22.1657   -4.2163   21.0972 F   0  0  0  0  0  0
  -21.5624   -3.4533   25.7734 F   0  0  0  0  0  0
  -30.0478  -13.2362   20.4790 N   0  0  0  0  0  0
  -26.3031  -12.9297   20.3352 N   0  0  0  0  0  0
  -25.9283  -11.6460   20.5707 N   0  0  0  0  0  0
  -22.0479  -12.8301   22.0350 N   0  0  0  0  0  0
  -25.4322  -15.1855   20.4111 N   0  0  0  0  0  0
  -31.7574  -14.6904   20.0354 O   0  0  0  0  0  0
  -21.6641   -6.8869   21.4233 O   0  0  0  0  0  0
  -22.3526  -14.5572   20.6615 O   0  0  0  0  0  0
  -24.6152  -31.8683   23.2096 C   0  0  0  0  0  0
  -25.9049  -32.4822   23.8387 C   0  0  1  0  0  0
  -27.2413  -27.4538   20.0687 C   0  0  0  0  0  0
  -25.5900  -33.8621   24.2318 N   0  0  0  0  0  0
  -23.4007  -30.4934   21.5497 C   0  0  2  0  0  0
  -24.8467  -28.9600   20.1128 C   0  0  0  0  0  0
  -22.7405  -29.4672   22.4987 C   0  0  0  0  0  0
  -18.0278  -28.1391   22.8500 C   0  0  0  0  0  0
  -24.1480  -36.7311   23.2636 C   0  0  0  0  0  0
  -25.9290  -30.8363   21.3614 C   0  0  0  0  0  0
  -26.0042  -29.4711   20.7097 C   0  0  0  0  0  0
  -27.1975  -28.7186   20.6983 C   0  0  0  0  0  0
  -26.0577  -26.9424   19.4863 C   0  0  0  0  0  0
  -24.8656  -27.6921   19.5051 C   0  0  0  0  0  0
  -23.6086  -29.8255   20.1640 C   0  0  0  0  0  0
  -25.4100  -36.3100   24.0335 C   0  0  1  0  0  0
  -20.5866  -28.3674   23.1323 C   0  0  2  0  0  0
  -20.6766  -26.9411   22.5421 C   0  0  0  0  0  0
  -19.5743  -26.6405   21.5213 C   0  0  0  0  0  0
  -18.1921  -26.7939   22.1620 C   0  0  0  0  0  0
  -19.1528  -28.8840   23.2912 C   0  0  0  0  0  0
  -18.9455  -30.1452   23.8931 C   0  0  0  0  0  0
  -17.6455  -30.6588   24.0577 C   0  0  0  0  0  0
  -25.9029  -34.9473   23.5122 C   0  0  0  0  0  0
  -16.5348  -29.9102   23.6322 C   0  0  0  0  0  0
  -16.7269  -28.6518   23.0340 C   0  0  0  0  0  0
  -26.4484  -31.6605   25.0717 C   0  0  0  0  0  0
  -25.3758  -31.3718   26.1472 C   0  0  0  0  0  0
  -27.0309  -30.3043   24.6096 C   0  0  0  0  0  0
  -27.6072  -32.4320   25.7471 C   0  0  0  0  0  0
  -27.5572  -37.1808   24.8465 C   0  0  0  0  0  0
  -21.4134  -29.3045   22.3726 N   0  0  0  0  0  0
  -26.4276  -37.3790   23.9418 N   0  0  0  0  0  0
  -24.6666  -31.0796   22.0992 N   0  0  0  0  0  0
  -23.4183  -28.8227   23.3022 O   0  0  0  0  0  0
  -28.4269  -26.7536   20.1022 O   0  0  0  0  0  0
  -26.5592  -34.8920   22.4676 O   0  0  0  0  0  0
  -23.5349  -32.1446   23.7494 O   0  0  0  0  0  0
  -30.6111  -21.1107   19.7607 C   0  0  0  0  0  0
  -31.3722  -21.9556   19.0022 C   0  0  0  0  0  0
  -31.6658  -21.1922   17.8342 C   0  0  0  0  0  0
  -32.4577  -21.6031   16.6289 C   0  0  0  0  0  0
  -31.8058  -23.3655   19.3111 C   0  0  0  0  0  0
  -30.8710  -24.4246   18.6963 C   0  0  0  0  0  0
  -29.6203  -24.7221   19.5469 C   0  0  0  0  0  0
  -30.4616  -17.6632   20.1447 C   0  0  0  0  0  0
  -29.6756  -18.7717   19.4088 C   0  0  0  0  0  0
  -29.4643  -16.5867   20.6170 C   0  0  0  0  0  0
  -28.7902  -25.9062   19.0111 C   0  0  0  0  0  0
  -31.1241  -19.9806   17.8766 N   0  0  0  0  0  0
  -30.4697  -19.9341   19.0579 N   0  0  0  0  0  0
  -29.9854  -15.3668   21.2444 N   0  0  0  0  0  0
  -31.4736  -12.3738   19.1447 H   0  0  0  0  0  0
  -30.3086  -11.2611   19.8014 H   0  0  0  0  0  0
  -29.7438  -11.8232   17.4069 H   0  0  0  0  0  0
  -29.6743  -13.5201   17.8034 H   0  0  0  0  0  0
  -27.8192  -11.3203   18.7851 H   0  0  0  0  0  0
  -27.3752  -12.6765   17.7804 H   0  0  0  0  0  0
  -27.7215  -14.2504   19.6015 H   0  0  0  0  0  0
  -28.6502  -11.8937   21.3212 H   0  0  0  0  0  0
  -28.4474  -13.5067   21.8976 H   0  0  0  0  0  0
  -25.2741   -9.5706   22.4713 H   0  0  0  0  0  0
  -24.0000   -7.4646   22.7452 H   0  0  0  0  0  0
  -21.0798   -8.8750   19.8973 H   0  0  0  0  0  0
  -22.3642  -10.9639   19.6147 H   0  0  0  0  0  0
  -21.2039   -7.6135   23.9701 H   0  0  0  0  0  0
  -21.1485   -6.0515   25.9053 H   0  0  0  0  0  0
  -22.0606   -2.7603   23.2821 H   0  0  0  0  0  0
  -22.4093  -12.0010   22.4802 H   0  0  0  0  0  0
  -21.1089  -13.1320   22.2555 H   0  0  0  0  0  0
  -24.6605  -15.8391   20.4950 H   0  0  0  0  0  0
  -26.2896  -15.6201   20.0975 H   0  0  0  0  0  0
  -26.7125  -32.5535   23.1156 H   0  0  0  0  0  0
  -25.0047  -33.9790   25.0462 H   0  0  0  0  0  0
  -22.6886  -31.3097   21.4103 H   0  0  0  0  0  0
  -23.3731  -35.9654   23.3312 H   0  0  0  0  0  0
  -24.3573  -36.8919   22.2047 H   0  0  0  0  0  0
  -23.7249  -37.6523   23.6651 H   0  0  0  0  0  0
  -26.0357  -31.6000   20.5905 H   0  0  0  0  0  0
  -26.8190  -30.8927   21.9762 H   0  0  0  0  0  0
  -28.0921  -29.1087   21.1641 H   0  0  0  0  0  0
  -26.0236  -25.9606   19.0368 H   0  0  0  0  0  0
  -23.9699  -27.2847   19.0571 H   0  0  0  0  0  0
  -23.7214  -30.6010   19.4058 H   0  0  0  0  0  0
  -22.7324  -29.2481   19.8639 H   0  0  0  0  0  0
  -25.1270  -36.1953   25.0826 H   0  0  0  0  0  0
  -20.9962  -28.3248   24.1439 H   0  0  0  0  0  0
  -20.5666  -26.2286   23.3610 H   0  0  0  0  0  0
  -21.6642  -26.7462   22.1216 H   0  0  0  0  0  0
  -19.6907  -25.6326   21.1224 H   0  0  0  0  0  0
  -19.6674  -27.3234   20.6756 H   0  0  0  0  0  0
  -17.4194  -26.6711   21.4015 H   0  0  0  0  0  0
  -18.0305  -26.0077   22.9006 H   0  0  0  0  0  0
  -19.7930  -30.7258   24.2315 H   0  0  0  0  0  0
  -17.5012  -31.6265   24.5190 H   0  0  0  0  0  0
  -15.5348  -30.3009   23.7623 H   0  0  0  0  0  0
  -15.8673  -28.0843   22.7029 H   0  0  0  0  0  0
  -24.5919  -30.7079   25.7813 H   0  0  0  0  0  0
  -24.8967  -32.2880   26.4932 H   0  0  0  0  0  0
  -25.8111  -30.8874   27.0221 H   0  0  0  0  0  0
  -26.2846  -29.6796   24.1175 H   0  0  0  0  0  0
  -27.4109  -29.7287   25.4548 H   0  0  0  0  0  0
  -27.8669  -30.4355   23.9221 H   0  0  0  0  0  0
  -27.2704  -33.3612   26.2076 H   0  0  0  0  0  0
  -28.3861  -32.6893   25.0281 H   0  0  0  0  0  0
  -28.0769  -31.8433   26.5362 H   0  0  0  0  0  0
  -28.2598  -38.0093   24.7486 H   0  0  0  0  0  0
  -28.1050  -36.2628   24.6294 H   0  0  0  0  0  0
  -27.2301  -37.1479   25.8870 H   0  0  0  0  0  0
  -20.9296  -29.8752   21.6938 H   0  0  0  0  0  0
  -26.0159  -38.2863   24.1415 H   0  0  0  0  0  0
  -30.1412  -21.2552   20.7230 H   0  0  0  0  0  0
  -32.9477  -22.5669   16.7784 H   0  0  0  0  0  0
  -31.8163  -21.7001   15.7527 H   0  0  0  0  0  0
  -33.2319  -20.8720   16.3978 H   0  0  0  0  0  0
  -32.8141  -23.5344   18.9312 H   0  0  0  0  0  0
  -31.8890  -23.5224   20.3865 H   0  0  0  0  0  0
  -30.5929  -24.1516   17.6766 H   0  0  0  0  0  0
  -31.4394  -25.3501   18.6049 H   0  0  0  0  0  0
  -29.9352  -24.9359   20.5691 H   0  0  0  0  0  0
  -28.9902  -23.8335   19.6121 H   0  0  0  0  0  0
  -30.9939  -18.0817   21.0001 H   0  0  0  0  0  0
  -31.2106  -17.2473   19.4713 H   0  0  0  0  0  0
  -28.8493  -19.1151   20.0330 H   0  0  0  0  0  0
  -29.2183  -18.3730   18.4995 H   0  0  0  0  0  0
  -28.8471  -16.2826   19.7694 H   0  0  0  0  0  0
  -28.7797  -17.0455   21.3315 H   0  0  0  0  0  0
  -27.9660  -25.5299   18.4100 H   0  0  0  0  0  0
  -29.3914  -26.5130   18.3352 H   0  0  0  0  0  0
  -29.3119  -14.9550   21.8738 H   0  0  0  0  0  0
  1 25  1  0  0  0
  1 30  2  0  0  0
  1 84  1  0  0  0
  2  3  1  0  0  0
  2 25  1  0  0  0
  2 85  1  0  0  0
  2 86  1  0  0  0
  3  4  1  0  0  0
  3 87  1  0  0  0
  3 88  1  0  0  0
  4  5  1  0  0  0
  4 89  1  0  0  0
  4 90  1  0  0  0
  5  6  1  0  0  0
  5 26  1  0  0  0
  5 91  1  0  0  0
  6 25  1  0  0  0
  6 92  1  0  0  0
  6 93  1  0  0  0
  7  8  2  0  0  0
  7 26  1  0  0  0
  7 29  1  0  0  0
  8  9  1  0  0  0
  8 22  1  0  0  0
  9 10  1  0  0  0
  9 27  2  0  0  0
 10 11  2  0  0  0
 10 15  1  0  0  0
 11 12  1  0  0  0
 11 94  1  0  0  0
 12 13  2  0  0  0
 12 95  1  0  0  0
 13 14  1  0  0  0
 13 31  1  0  0  0
 14 15  2  0  0  0
 14 96  1  0  0  0
 15 97  1  0  0  0
 16 17  2  0  0  0
 16 21  1  0  0  0
 16 31  1  0  0  0
 17 18  1  0  0  0
 17 98  1  0  0  0
 18 19  2  0  0  0
 18 99  1  0  0  0
 19 20  1  0  0  0
 19 24  1  0  0  0
 20 21  2  0  0  0
 20100  1  0  0  0
 21 23  1  0  0  0
 22 28  1  0  0  0
 22 32  2  0  0  0
 26 27  1  0  0  0
 28101  1  0  0  0
 28102  1  0  0  0
 29103  1  0  0  0
 29104  1  0  0  0
 33 34  1  0  0  0
 33 66  1  0  0  0
 33 70  2  0  0  0
 34 36  1  0  0  0
 34 59  1  0  0  0
 34105  1  0  0  0
 35 44  2  0  0  0
 35 45  1  0  0  0
 35 68  1  0  0  0
 36 56  1  0  0  0
 36106  1  0  0  0
 37 39  1  0  0  0
 37 47  1  0  0  0
 37 66  1  0  0  0
 37107  1  0  0  0
 38 43  2  0  0  0
 38 46  1  0  0  0
 38 47  1  0  0  0
 39 64  1  0  0  0
 39 67  2  0  0  0
 40 52  1  0  0  0
 40 53  2  0  0  0
 40 58  1  0  0  0
 41108  1  0  0  0
 41109  1  0  0  0
 41110  1  0  0  0
 41 48  1  0  0  0
 42 43  1  0  0  0
 42 66  1  0  0  0
 42111  1  0  0  0
 42112  1  0  0  0
 43 44  1  0  0  0
 44113  1  0  0  0
 45 46  2  0  0  0
 45114  1  0  0  0
 46115  1  0  0  0
 47116  1  0  0  0
 47117  1  0  0  0
 48 56  1  0  0  0
 48 65  1  0  0  0
 48118  1  0  0  0
 49 50  1  0  0  0
 49 53  1  0  0  0
 49 64  1  0  0  0
 49119  1  0  0  0
 50 51  1  0  0  0
 50120  1  0  0  0
 50121  1  0  0  0
 51 52  1  0  0  0
 51122  1  0  0  0
 51123  1  0  0  0
 52124  1  0  0  0
 52125  1  0  0  0
 53 54  1  0  0  0
 54 55  2  0  0  0
 54126  1  0  0  0
 55 57  1  0  0  0
 55127  1  0  0  0
 56 69  2  0  0  0
 57 58  2  0  0  0
 57128  1  0  0  0
 58129  1  0  0  0
 59 60  1  0  0  0
 59 61  1  0  0  0
 59 62  1  0  0  0
 60130  1  0  0  0
 60131  1  0  0  0
 60132  1  0  0  0
 61133  1  0  0  0
 61134  1  0  0  0
 61135  1  0  0  0
 62136  1  0  0  0
 62137  1  0  0  0
 62138  1  0  0  0
 63 65  1  0  0  0
 63139  1  0  0  0
 63140  1  0  0  0
 63141  1  0  0  0
 64142  1  0  0  0
 65143  1  0  0  0
 68 81  1  0  0  0
 71 72  2  0  0  0
 71 83  1  0  0  0
 71144  1  0  0  0
 72 73  1  0  0  0
 72 75  1  0  0  0
 73 74  1  0  0  0
 73 82  2  0  0  0
 74145  1  0  0  0
 74146  1  0  0  0
 74147  1  0  0  0
 75 76  1  0  0  0
 75148  1  0  0  0
 75149  1  0  0  0
 76 77  1  0  0  0
 76150  1  0  0  0
 76151  1  0  0  0
 77 81  1  0  0  0
 77152  1  0  0  0
 77153  1  0  0  0
 78 79  1  0  0  0
 78 80  1  0  0  0
 78154  1  0  0  0
 78155  1  0  0  0
 79 83  1  0  0  0
 79156  1  0  0  0
 79157  1  0  0  0
 80 84  1  0  0  0
 80158  1  0  0  0
 80159  1  0  0  0
 81160  1  0  0  0
 81161  1  0  0  0
 82 83  1  0  0  0
 84162  1  0  0  0
M  ISO  4   1 100  68 101  81 101  84 100
M  END
> <chiral flag>
0

> <version>
0

> <s_m_source_file>
/data/baiqing/PycharmProjects/Reinvent-master-3.2/result/LINK_invent/BTK/process_docking_weight1_custom_sum_contain_oxygen_bond_distance_aromatic_linkinvent_7_9_3/rearranged_h_0041.sdf

> <i_m_source_file_index>
47

> <r_mmod_Potential_Energy-OPLS-2005>
-89.1349029541016

> <r_mmod_Stretch_Energy-OPLS-2005>
32.1056900024414

> <r_mmod_Bend_Energy-OPLS-2005>
105.60139465332

> <r_mmod_Torsional_Energy-OPLS-2005>
258.981872558594

> <r_mmod_Improper_Torsional_Energy-OPLS-2005>
7.59787034988403

> <r_mmod_Van_der_Waal_Energy-OPLS-2005>
125.371742248535

> <r_mmod_Electrostatic_Energy-OPLS-2005>
-393.914489746094

> <r_mmod_Solvation_Energy-OPLS-2005>
-235.094024658203

> <b_mmod_Minimization_Converged-OPLS-2005>
0

> <r_mmod_RMS_Derivative-OPLS-2005>
3.31478381156921

$$$$
47
                    3D
 Structure written by MMmdl.
153161  0  0  1  0            999 V2000
  -30.6842  -14.5555   20.5486 C   0  0  0  0  0  0
  -30.4252  -12.3572   19.4328 C   0  0  0  0  0  0
  -29.4958  -12.5026   18.2105 C   0  0  0  0  0  0
  -28.0196  -12.3503   18.6269 C   0  0  0  0  0  0
  -27.6532  -13.2152   19.8629 C   0  0  2  0  0  0
  -28.6981  -13.0526   20.9885 C   0  0  0  0  0  0
  -25.2560  -13.8176   20.5686 C   0  0  0  0  0  0
  -24.1825  -13.0440   20.9186 C   0  0  0  0  0  0
  -24.6392  -11.6911   20.8739 C   0  0  0  0  0  0
  -23.9064  -10.4294   21.0406 C   0  0  0  0  0  0
  -24.3617   -9.4209   21.9183 C   0  0  0  0  0  0
  -23.6293   -8.2244   22.0754 C   0  0  0  0  0  0
  -22.4275   -8.0282   21.3546 C   0  0  0  0  0  0
  -21.9910   -9.0255   20.4647 C   0  0  0  0  0  0
  -22.7238  -10.2134   20.3055 C   0  0  0  0  0  0
  -21.6853   -6.0737   22.5280 C   0  0  0  0  0  0
  -21.4014   -6.5641   23.8213 C   0  0  0  0  0  0
  -21.3658   -5.6794   24.9175 C   0  0  0  0  0  0
  -21.6043   -4.3056   24.7226 C   0  0  0  0  0  0
  -21.8819   -3.8148   23.4347 C   0  0  0  0  0  0
  -21.9193   -4.6965   22.3403 C   0  0  0  0  0  0
  -22.7848  -13.5233   21.1850 C   0  0  0  0  0  0
  -22.1661   -4.2151   21.0981 F   0  0  0  0  0  0
  -21.5628   -3.4539   25.7738 F   0  0  0  0  0  0
  -30.0166  -13.3717   20.4205 N   0  0  0  0  0  0
  -26.2987  -12.9356   20.3326 N   0  0  0  0  0  0
  -25.9319  -11.6509   20.5759 N   0  0  0  0  0  0
  -22.0492  -12.8223   22.0406 N   0  0  0  0  0  0
  -25.4275  -15.1896   20.4102 N   0  0  0  0  0  0
  -31.8394  -14.7002   20.1411 O   0  0  0  0  0  0
  -21.6639   -6.8879   21.4241 O   0  0  0  0  0  0
  -22.3534  -14.5541   20.6702 O   0  0  0  0  0  0
  -24.6218  -31.8645   23.2067 C   0  0  0  0  0  0
  -25.9086  -32.4804   23.8377 C   0  0  1  0  0  0
  -27.2204  -27.3655   20.1033 C   0  0  0  0  0  0
  -25.5918  -33.8603   24.2305 N   0  0  0  0  0  0
  -23.4117  -30.4911   21.5494 C   0  0  2  0  0  0
  -24.8556  -28.9554   20.1114 C   0  0  0  0  0  0
  -22.7447  -29.4652   22.4958 C   0  0  0  0  0  0
  -18.0281  -28.1384   22.8488 C   0  0  0  0  0  0
  -24.1489  -36.7305   23.2638 C   0  0  0  0  0  0
  -25.9497  -30.8100   21.3702 C   0  0  0  0  0  0
  -26.0240  -29.4421   20.7111 C   0  0  0  0  0  0
  -27.2105  -28.6584   20.6984 C   0  0  0  0  0  0
  -26.0275  -26.9214   19.4845 C   0  0  0  0  0  0
  -24.8566  -27.6978   19.4920 C   0  0  0  0  0  0
  -23.6222  -29.8299   20.1630 C   0  0  0  0  0  0
  -25.4112  -36.3099   24.0334 C   0  0  1  0  0  0
  -20.5877  -28.3679   23.1298 C   0  0  2  0  0  0
  -20.6773  -26.9409   22.5411 C   0  0  0  0  0  0
  -19.5750  -26.6388   21.5210 C   0  0  0  0  0  0
  -18.1928  -26.7928   22.1623 C   0  0  0  0  0  0
  -19.1533  -28.8846   23.2890 C   0  0  0  0  0  0
  -18.9460  -30.1449   23.8907 C   0  0  0  0  0  0
  -17.6462  -30.6587   24.0566 C   0  0  0  0  0  0
  -25.9047  -34.9467   23.5119 C   0  0  0  0  0  0
  -16.5352  -29.9089   23.6331 C   0  0  0  0  0  0
  -16.7270  -28.6506   23.0351 C   0  0  0  0  0  0
  -26.4487  -31.6595   25.0726 C   0  0  0  0  0  0
  -25.3734  -31.3722   26.1464 C   0  0  0  0  0  0
  -27.0318  -30.3029   24.6139 C   0  0  0  0  0  0
  -27.6058  -32.4319   25.7490 C   0  0  0  0  0  0
  -27.5581  -37.1804   24.8465 C   0  0  0  0  0  0
  -21.4168  -29.3042   22.3698 N   0  0  0  0  0  0
  -26.4295  -37.3787   23.9410 N   0  0  0  0  0  0
  -24.6801  -31.0699   22.0998 N   0  0  0  0  0  0
  -23.4195  -28.8187   23.3015 O   0  0  0  0  0  0
  -28.3509  -26.5470   20.1440 O   0  0  0  0  0  0
  -26.5610  -34.8924   22.4681 O   0  0  0  0  0  0
  -23.5395  -32.1423   23.7426 O   0  0  0  0  0  0
  -28.0665  -21.1936   21.9576 C   0  0  0  0  0  0
  -29.3903  -21.5240   20.2587 C   0  0  0  0  0  0
  -28.8272  -20.4858   20.9805 C   0  0  0  0  0  0
  -28.8581  -18.9406   20.8639 C   0  0  0  0  0  0
  -30.2337  -18.2300   20.6521 C   0  0  0  0  0  0
  -29.3139  -24.1518   20.4566 C   0  0  0  0  0  0
  -30.5290  -16.9213   21.4815 C   0  0  0  0  0  0
  -28.1102  -25.1006   20.1219 C   0  0  0  0  0  0
  -28.1515  -22.5138   21.8531 N   0  0  0  0  0  0
  -28.9550  -22.7459   20.7919 N   0  0  0  0  0  0
  -29.9780  -15.6125   21.0299 N   0  0  0  0  0  0
  -31.4676  -12.4662   19.1284 H   0  0  0  0  0  0
  -30.3438  -11.3583   19.8640 H   0  0  0  0  0  0
  -29.7491  -11.7592   17.4534 H   0  0  0  0  0  0
  -29.6471  -13.4780   17.7448 H   0  0  0  0  0  0
  -27.8478  -11.2965   18.8498 H   0  0  0  0  0  0
  -27.3644  -12.5931   17.7895 H   0  0  0  0  0  0
  -27.6794  -14.2541   19.5333 H   0  0  0  0  0  0
  -28.6956  -12.0303   21.3690 H   0  0  0  0  0  0
  -28.4534  -13.6869   21.8417 H   0  0  0  0  0  0
  -25.2764   -9.5683   22.4755 H   0  0  0  0  0  0
  -24.0003   -7.4636   22.7474 H   0  0  0  0  0  0
  -21.0842   -8.8775   19.8953 H   0  0  0  0  0  0
  -22.3699  -10.9672   19.6163 H   0  0  0  0  0  0
  -21.2008   -7.6149   23.9718 H   0  0  0  0  0  0
  -21.1479   -6.0523   25.9077 H   0  0  0  0  0  0
  -22.0600   -2.7611   23.2847 H   0  0  0  0  0  0
  -22.4108  -11.9881   22.4788 H   0  0  0  0  0  0
  -21.1111  -13.1248   22.2617 H   0  0  0  0  0  0
  -24.6613  -15.8449   20.5199 H   0  0  0  0  0  0
  -26.2787  -15.6286   20.0825 H   0  0  0  0  0  0
  -26.7155  -32.5491   23.1131 H   0  0  0  0  0  0
  -25.0065  -33.9756   25.0449 H   0  0  0  0  0  0
  -22.7034  -31.3108   21.4107 H   0  0  0  0  0  0
  -23.3749  -35.9639   23.3307 H   0  0  0  0  0  0
  -24.3581  -36.8918   22.2050 H   0  0  0  0  0  0
  -23.7244  -37.6512   23.6653 H   0  0  0  0  0  0
  -26.0735  -31.5759   20.6032 H   0  0  0  0  0  0
  -26.8338  -30.8587   21.9944 H   0  0  0  0  0  0
  -28.1083  -29.0271   21.1749 H   0  0  0  0  0  0
  -25.9659  -25.9638   18.9911 H   0  0  0  0  0  0
  -23.9605  -27.3188   19.0201 H   0  0  0  0  0  0
  -23.7364  -30.6081   19.4077 H   0  0  0  0  0  0
  -22.7431  -29.2567   19.8625 H   0  0  0  0  0  0
  -25.1287  -36.1960   25.0827 H   0  0  0  0  0  0
  -20.9970  -28.3249   24.1419 H   0  0  0  0  0  0
  -20.5679  -26.2286   23.3603 H   0  0  0  0  0  0
  -21.6643  -26.7450   22.1200 H   0  0  0  0  0  0
  -19.6916  -25.6301   21.1235 H   0  0  0  0  0  0
  -19.6693  -27.3203   20.6745 H   0  0  0  0  0  0
  -17.4199  -26.6678   21.4024 H   0  0  0  0  0  0
  -18.0330  -26.0066   22.9017 H   0  0  0  0  0  0
  -19.7936  -30.7261   24.2279 H   0  0  0  0  0  0
  -17.5019  -31.6267   24.5166 H   0  0  0  0  0  0
  -15.5353  -30.2996   23.7648 H   0  0  0  0  0  0
  -15.8670  -28.0831   22.7060 H   0  0  0  0  0  0
  -24.5917  -30.7058   25.7801 H   0  0  0  0  0  0
  -24.8911  -32.2883   26.4885 H   0  0  0  0  0  0
  -25.8070  -30.8913   27.0241 H   0  0  0  0  0  0
  -26.2875  -29.6789   24.1179 H   0  0  0  0  0  0
  -27.4056  -29.7270   25.4615 H   0  0  0  0  0  0
  -27.8727  -30.4332   23.9323 H   0  0  0  0  0  0
  -27.2680  -33.3617   26.2080 H   0  0  0  0  0  0
  -28.3858  -32.6885   25.0309 H   0  0  0  0  0  0
  -28.0737  -31.8437   26.5394 H   0  0  0  0  0  0
  -28.2602  -38.0097   24.7507 H   0  0  0  0  0  0
  -28.1074  -36.2629   24.6294 H   0  0  0  0  0  0
  -27.2301  -37.1458   25.8869 H   0  0  0  0  0  0
  -20.9332  -29.8776   21.6928 H   0  0  0  0  0  0
  -26.0184  -38.2866   24.1407 H   0  0  0  0  0  0
  -27.4457  -20.7818   22.7413 H   0  0  0  0  0  0
  -30.0597  -21.4981   19.4095 H   0  0  0  0  0  0
  -28.1866  -18.6153   20.0685 H   0  0  0  0  0  0
  -28.4128  -18.5186   21.7659 H   0  0  0  0  0  0
  -30.9994  -18.9453   20.9555 H   0  0  0  0  0  0
  -30.4161  -18.0651   19.5894 H   0  0  0  0  0  0
  -29.8546  -24.5574   21.3121 H   0  0  0  0  0  0
  -30.0213  -24.1441   19.6272 H   0  0  0  0  0  0
  -30.2008  -17.0754   22.5102 H   0  0  0  0  0  0
  -31.6136  -16.8233   21.5586 H   0  0  0  0  0  0
  -27.3055  -24.8882   20.8279 H   0  0  0  0  0  0
  -27.7498  -24.8078   19.1358 H   0  0  0  0  0  0
  -29.0161  -15.4204   21.2689 H   0  0  0  0  0  0
  1 25  1  0  0  0
  1 30  2  0  0  0
  1 81  1  0  0  0
  2  3  1  0  0  0
  2 25  1  0  0  0
  2 82  1  0  0  0
  2 83  1  0  0  0
  3  4  1  0  0  0
  3 84  1  0  0  0
  3 85  1  0  0  0
  4  5  1  0  0  0
  4 86  1  0  0  0
  4 87  1  0  0  0
  5  6  1  0  0  0
  5 26  1  0  0  0
  5 88  1  0  0  0
  6 25  1  0  0  0
  6 89  1  0  0  0
  6 90  1  0  0  0
  7  8  2  0  0  0
  7 26  1  0  0  0
  7 29  1  0  0  0
  8  9  1  0  0  0
  8 22  1  0  0  0
  9 10  1  0  0  0
  9 27  2  0  0  0
 10 11  2  0  0  0
 10 15  1  0  0  0
 11 12  1  0  0  0
 11 91  1  0  0  0
 12 13  2  0  0  0
 12 92  1  0  0  0
 13 14  1  0  0  0
 13 31  1  0  0  0
 14 15  2  0  0  0
 14 93  1  0  0  0
 15 94  1  0  0  0
 16 17  2  0  0  0
 16 21  1  0  0  0
 16 31  1  0  0  0
 17 18  1  0  0  0
 17 95  1  0  0  0
 18 19  2  0  0  0
 18 96  1  0  0  0
 19 20  1  0  0  0
 19 24  1  0  0  0
 20 21  2  0  0  0
 20 97  1  0  0  0
 21 23  1  0  0  0
 22 28  1  0  0  0
 22 32  2  0  0  0
 26 27  1  0  0  0
 28 98  1  0  0  0
 28 99  1  0  0  0
 29100  1  0  0  0
 29101  1  0  0  0
 33 34  1  0  0  0
 33 66  1  0  0  0
 33 70  2  0  0  0
 34 36  1  0  0  0
 34 59  1  0  0  0
 34102  1  0  0  0
 35 44  2  0  0  0
 35 45  1  0  0  0
 35 68  1  0  0  0
 36 56  1  0  0  0
 36103  1  0  0  0
 37 39  1  0  0  0
 37 47  1  0  0  0
 37 66  1  0  0  0
 37104  1  0  0  0
 38 43  2  0  0  0
 38 46  1  0  0  0
 38 47  1  0  0  0
 39 64  1  0  0  0
 39 67  2  0  0  0
 40 52  1  0  0  0
 40 53  2  0  0  0
 40 58  1  0  0  0
 41105  1  0  0  0
 41106  1  0  0  0
 41107  1  0  0  0
 41 48  1  0  0  0
 42 43  1  0  0  0
 42 66  1  0  0  0
 42108  1  0  0  0
 42109  1  0  0  0
 43 44  1  0  0  0
 44110  1  0  0  0
 45 46  2  0  0  0
 45111  1  0  0  0
 46112  1  0  0  0
 47113  1  0  0  0
 47114  1  0  0  0
 48 56  1  0  0  0
 48 65  1  0  0  0
 48115  1  0  0  0
 49 50  1  0  0  0
 49 53  1  0  0  0
 49 64  1  0  0  0
 49116  1  0  0  0
 50 51  1  0  0  0
 50117  1  0  0  0
 50118  1  0  0  0
 51 52  1  0  0  0
 51119  1  0  0  0
 51120  1  0  0  0
 52121  1  0  0  0
 52122  1  0  0  0
 53 54  1  0  0  0
 54 55  2  0  0  0
 54123  1  0  0  0
 55 57  1  0  0  0
 55124  1  0  0  0
 56 69  2  0  0  0
 57 58  2  0  0  0
 57125  1  0  0  0
 58126  1  0  0  0
 59 60  1  0  0  0
 59 61  1  0  0  0
 59 62  1  0  0  0
 60127  1  0  0  0
 60128  1  0  0  0
 60129  1  0  0  0
 61130  1  0  0  0
 61131  1  0  0  0
 61132  1  0  0  0
 62133  1  0  0  0
 62134  1  0  0  0
 62135  1  0  0  0
 63 65  1  0  0  0
 63136  1  0  0  0
 63137  1  0  0  0
 63138  1  0  0  0
 64139  1  0  0  0
 65140  1  0  0  0
 68 78  1  0  0  0
 71 73  1  0  0  0
 71 79  2  0  0  0
 71141  1  0  0  0
 72 73  2  0  0  0
 72 80  1  0  0  0
 72142  1  0  0  0
 73 74  1  0  0  0
 74 75  1  0  0  0
 74143  1  0  0  0
 74144  1  0  0  0
 75 77  1  0  0  0
 75145  1  0  0  0
 75146  1  0  0  0
 76 78  1  0  0  0
 76 80  1  0  0  0
 76147  1  0  0  0
 76148  1  0  0  0
 77 81  1  0  0  0
 77149  1  0  0  0
 77150  1  0  0  0
 78151  1  0  0  0
 78152  1  0  0  0
 79 80  1  0  0  0
 81153  1  0  0  0
M  ISO  4   1 100  68 101  78 101  81 100
M  END
> <chiral flag>
0

> <version>
0

> <s_m_source_file>
/data/baiqing/PycharmProjects/Reinvent-master-3.2/result/LINK_invent/BTK/process_docking_weight1_custom_sum_contain_oxygen_bond_distance_aromatic_linkinvent_7_9_3/rearranged_h_0041.sdf

> <i_m_source_file_index>
48

> <r_mmod_Potential_Energy-OPLS-2005>
-19.8215217590332

> <r_mmod_Stretch_Energy-OPLS-2005>
54.421257019043

> <r_mmod_Bend_Energy-OPLS-2005>
120.466575622559

> <r_mmod_Torsional_Energy-OPLS-2005>
224.382690429688

> <r_mmod_Improper_Torsional_Energy-OPLS-2005>
3.40023136138916

> <r_mmod_Van_der_Waal_Energy-OPLS-2005>
128.447006225586

> <r_mmod_Electrostatic_Energy-OPLS-2005>
-351.768524169922

> <r_mmod_Solvation_Energy-OPLS-2005>
-228.601013183594

> <b_mmod_Minimization_Converged-OPLS-2005>
0

> <r_mmod_RMS_Derivative-OPLS-2005>
0.414904087781906

$$$$
48
                    3D
 Structure written by MMmdl.
158166  0  0  1  0            999 V2000
  -30.7056  -14.4831   20.5773 C   0  0  0  0  0  0
  -30.4200  -12.3213   19.4131 C   0  0  0  0  0  0
  -29.4891  -12.5135   18.1992 C   0  0  0  0  0  0
  -28.0116  -12.3773   18.6151 C   0  0  0  0  0  0
  -27.6589  -13.2139   19.8750 C   0  0  2  0  0  0
  -28.7031  -13.0012   20.9918 C   0  0  0  0  0  0
  -25.2584  -13.8165   20.5723 C   0  0  0  0  0  0
  -24.1847  -13.0428   20.9193 C   0  0  0  0  0  0
  -24.6411  -11.6901   20.8748 C   0  0  0  0  0  0
  -23.9064  -10.4291   21.0422 C   0  0  0  0  0  0
  -24.3618   -9.4206   21.9195 C   0  0  0  0  0  0
  -23.6300   -8.2240   22.0746 C   0  0  0  0  0  0
  -22.4288   -8.0272   21.3537 C   0  0  0  0  0  0
  -21.9916   -9.0242   20.4645 C   0  0  0  0  0  0
  -22.7237  -10.2131   20.3071 C   0  0  0  0  0  0
  -21.6862   -6.0744   22.5289 C   0  0  0  0  0  0
  -21.4010   -6.5647   23.8216 C   0  0  0  0  0  0
  -21.3662   -5.6805   24.9183 C   0  0  0  0  0  0
  -21.6052   -4.3063   24.7246 C   0  0  0  0  0  0
  -21.8813   -3.8159   23.4364 C   0  0  0  0  0  0
  -21.9200   -4.6969   22.3421 C   0  0  0  0  0  0
  -22.7870  -13.5223   21.1879 C   0  0  0  0  0  0
  -22.1669   -4.2157   21.0995 F   0  0  0  0  0  0
  -21.5629   -3.4549   25.7760 F   0  0  0  0  0  0
  -30.0303  -13.3098   20.4325 N   0  0  0  0  0  0
  -26.3023  -12.9352   20.3392 N   0  0  0  0  0  0
  -25.9343  -11.6496   20.5774 N   0  0  0  0  0  0
  -22.0524  -12.8190   22.0425 N   0  0  0  0  0  0
  -25.4295  -15.1886   20.4136 N   0  0  0  0  0  0
  -31.8340  -14.6648   20.1130 O   0  0  0  0  0  0
  -21.6639   -6.8876   21.4248 O   0  0  0  0  0  0
  -22.3565  -14.5545   20.6754 O   0  0  0  0  0  0
  -24.6148  -31.8651   23.2058 C   0  0  0  0  0  0
  -25.9040  -32.4797   23.8367 C   0  0  1  0  0  0
  -27.2407  -27.4132   20.1065 C   0  0  0  0  0  0
  -25.5884  -33.8600   24.2260 N   0  0  0  0  0  0
  -23.4045  -30.4867   21.5453 C   0  0  2  0  0  0
  -24.8526  -28.9459   20.1148 C   0  0  0  0  0  0
  -22.7418  -29.4628   22.4951 C   0  0  0  0  0  0
  -18.0254  -28.1391   22.8472 C   0  0  0  0  0  0
  -24.1488  -36.7314   23.2639 C   0  0  0  0  0  0
  -25.9341  -30.8248   21.3630 C   0  0  0  0  0  0
  -26.0105  -29.4561   20.7121 C   0  0  0  0  0  0
  -27.2032  -28.6971   20.7040 C   0  0  0  0  0  0
  -26.0600  -26.9159   19.5073 C   0  0  0  0  0  0
  -24.8729  -27.6754   19.5110 C   0  0  0  0  0  0
  -23.6176  -29.8195   20.1597 C   0  0  0  0  0  0
  -25.4111  -36.3091   24.0313 C   0  0  1  0  0  0
  -20.5852  -28.3671   23.1308 C   0  0  2  0  0  0
  -20.6751  -26.9403   22.5423 C   0  0  0  0  0  0
  -19.5735  -26.6383   21.5214 C   0  0  0  0  0  0
  -18.1907  -26.7926   22.1614 C   0  0  0  0  0  0
  -19.1510  -28.8843   23.2881 C   0  0  0  0  0  0
  -18.9450  -30.1448   23.8893 C   0  0  0  0  0  0
  -17.6463  -30.6592   24.0567 C   0  0  0  0  0  0
  -25.9041  -34.9463   23.5080 C   0  0  0  0  0  0
  -16.5346  -29.9105   23.6330 C   0  0  0  0  0  0
  -16.7250  -28.6529   23.0326 C   0  0  0  0  0  0
  -26.4470  -31.6602   25.0718 C   0  0  0  0  0  0
  -25.3754  -31.3742   26.1490 C   0  0  0  0  0  0
  -27.0292  -30.3024   24.6130 C   0  0  0  0  0  0
  -27.5998  -32.4374   25.7514 C   0  0  0  0  0  0
  -27.5568  -37.1805   24.8460 C   0  0  0  0  0  0
  -21.4142  -29.3036   22.3717 N   0  0  0  0  0  0
  -26.4276  -37.3790   23.9411 N   0  0  0  0  0  0
  -24.6690  -31.0750   22.0958 N   0  0  0  0  0  0
  -23.4179  -28.8176   23.3003 O   0  0  0  0  0  0
  -28.4319  -26.7076   20.1468 O   0  0  0  0  0  0
  -26.5637  -34.8923   22.4662 O   0  0  0  0  0  0
  -23.5335  -32.1426   23.7425 O   0  0  0  0  0  0
  -28.4469  -22.5257   18.5096 C   0  0  0  0  0  0
  -29.0863  -21.7661   20.7068 C   0  0  0  0  0  0
  -28.5701  -22.8055   19.8860 C   0  0  0  0  0  0
  -28.8925  -21.2890   18.0105 C   0  0  0  0  0  0
  -29.4963  -20.5379   20.1241 C   0  0  0  0  0  0
  -28.7805  -20.9649   16.5363 C   0  0  0  0  0  0
  -28.1603  -24.1823   20.4497 C   0  0  0  0  0  0
  -30.1712  -19.4220   20.9396 C   0  0  0  0  0  0
  -29.7420  -17.9594   20.5924 C   0  0  0  0  0  0
  -30.4917  -16.8681   21.4096 C   0  0  0  0  0  0
  -28.5661  -25.3981   19.5557 C   0  0  0  0  0  0
  -29.4273  -20.3290   18.7919 N   0  0  0  0  0  0
  -30.0202  -15.4905   21.1556 N   0  0  0  0  0  0
  -31.4632  -12.4191   19.1083 H   0  0  0  0  0  0
  -30.3222  -11.3111   19.8129 H   0  0  0  0  0  0
  -29.7209  -11.7814   17.4254 H   0  0  0  0  0  0
  -29.6610  -13.4928   17.7492 H   0  0  0  0  0  0
  -27.8207  -11.3206   18.8071 H   0  0  0  0  0  0
  -27.3604  -12.6563   17.7869 H   0  0  0  0  0  0
  -27.6983  -14.2637   19.5829 H   0  0  0  0  0  0
  -28.6829  -11.9672   21.3398 H   0  0  0  0  0  0
  -28.4658  -13.6060   21.8679 H   0  0  0  0  0  0
  -25.2767   -9.5690   22.4760 H   0  0  0  0  0  0
  -24.0037   -7.4637   22.7451 H   0  0  0  0  0  0
  -21.0858   -8.8737   19.8947 H   0  0  0  0  0  0
  -22.3682  -10.9661   19.6181 H   0  0  0  0  0  0
  -21.1966   -7.6152   23.9711 H   0  0  0  0  0  0
  -21.1500   -6.0543   25.9077 H   0  0  0  0  0  0
  -22.0585   -2.7621   23.2868 H   0  0  0  0  0  0
  -22.4168  -11.9853   22.4814 H   0  0  0  0  0  0
  -21.1136  -13.1181   22.2628 H   0  0  0  0  0  0
  -24.6616  -15.8433   20.5138 H   0  0  0  0  0  0
  -26.2826  -15.6265   20.0889 H   0  0  0  0  0  0
  -26.7109  -32.5492   23.1126 H   0  0  0  0  0  0
  -25.0043  -33.9776   25.0410 H   0  0  0  0  0  0
  -22.6916  -31.3017   21.4023 H   0  0  0  0  0  0
  -23.3733  -35.9663   23.3310 H   0  0  0  0  0  0
  -24.3588  -36.8941   22.2057 H   0  0  0  0  0  0
  -23.7256  -37.6511   23.6684 H   0  0  0  0  0  0
  -26.0563  -31.5882   20.5935 H   0  0  0  0  0  0
  -26.8182  -30.8742   21.9880 H   0  0  0  0  0  0
  -28.0986  -29.0923   21.1650 H   0  0  0  0  0  0
  -26.0336  -25.9407   19.0445 H   0  0  0  0  0  0
  -23.9798  -27.2716   19.0542 H   0  0  0  0  0  0
  -23.7402  -30.5986   19.4064 H   0  0  0  0  0  0
  -22.7403  -29.2501   19.8509 H   0  0  0  0  0  0
  -25.1283  -36.1941   25.0800 H   0  0  0  0  0  0
  -20.9907  -28.3249   24.1442 H   0  0  0  0  0  0
  -20.5660  -26.2281   23.3618 H   0  0  0  0  0  0
  -21.6622  -26.7454   22.1214 H   0  0  0  0  0  0
  -19.6913  -25.6297   21.1243 H   0  0  0  0  0  0
  -19.6681  -27.3198   20.6749 H   0  0  0  0  0  0
  -17.4173  -26.6638   21.4022 H   0  0  0  0  0  0
  -18.0323  -26.0077   22.9026 H   0  0  0  0  0  0
  -19.7938  -30.7254   24.2246 H   0  0  0  0  0  0
  -17.5033  -31.6274   24.5187 H   0  0  0  0  0  0
  -15.5354  -30.3028   23.7656 H   0  0  0  0  0  0
  -15.8636  -28.0883   22.7008 H   0  0  0  0  0  0
  -24.5876  -30.7131   25.7867 H   0  0  0  0  0  0
  -24.9029  -32.2919   26.4994 H   0  0  0  0  0  0
  -25.8131  -30.8885   27.0221 H   0  0  0  0  0  0
  -26.2840  -29.6816   24.1134 H   0  0  0  0  0  0
  -27.3974  -29.7233   25.4612 H   0  0  0  0  0  0
  -27.8722  -30.4301   23.9333 H   0  0  0  0  0  0
  -27.2517  -33.3626   26.2128 H   0  0  0  0  0  0
  -28.3795  -32.7032   25.0364 H   0  0  0  0  0  0
  -28.0694  -31.8517   26.5428 H   0  0  0  0  0  0
  -28.2558  -38.0124   24.7493 H   0  0  0  0  0  0
  -28.1067  -36.2638   24.6271 H   0  0  0  0  0  0
  -27.2294  -37.1442   25.8867 H   0  0  0  0  0  0
  -20.9304  -29.8792   21.6977 H   0  0  0  0  0  0
  -26.0143  -38.2845   24.1451 H   0  0  0  0  0  0
  -28.0245  -23.2525   17.8294 H   0  0  0  0  0  0
  -29.1935  -21.9195   21.7741 H   0  0  0  0  0  0
  -28.8067  -21.8766   15.9403 H   0  0  0  0  0  0
  -27.8365  -20.4553   16.3430 H   0  0  0  0  0  0
  -29.5975  -20.3234   16.2035 H   0  0  0  0  0  0
  -28.6156  -24.2924   21.4340 H   0  0  0  0  0  0
  -27.0825  -24.1825   20.6166 H   0  0  0  0  0  0
  -29.9730  -19.6086   21.9957 H   0  0  0  0  0  0
  -31.2493  -19.5304   20.8191 H   0  0  0  0  0  0
  -29.9301  -17.7781   19.5333 H   0  0  0  0  0  0
  -28.6664  -17.8570   20.7353 H   0  0  0  0  0  0
  -30.3644  -17.0678   22.4738 H   0  0  0  0  0  0
  -31.5651  -16.9504   21.2293 H   0  0  0  0  0  0
  -28.0818  -25.3658   18.5809 H   0  0  0  0  0  0
  -29.6309  -25.2973   19.3424 H   0  0  0  0  0  0
  -29.0873  -15.2599   21.4661 H   0  0  0  0  0  0
  1 25  1  0  0  0
  1 30  2  0  0  0
  1 83  1  0  0  0
  2  3  1  0  0  0
  2 25  1  0  0  0
  2 84  1  0  0  0
  2 85  1  0  0  0
  3  4  1  0  0  0
  3 86  1  0  0  0
  3 87  1  0  0  0
  4  5  1  0  0  0
  4 88  1  0  0  0
  4 89  1  0  0  0
  5  6  1  0  0  0
  5 26  1  0  0  0
  5 90  1  0  0  0
  6 25  1  0  0  0
  6 91  1  0  0  0
  6 92  1  0  0  0
  7  8  2  0  0  0
  7 26  1  0  0  0
  7 29  1  0  0  0
  8  9  1  0  0  0
  8 22  1  0  0  0
  9 10  1  0  0  0
  9 27  2  0  0  0
 10 11  2  0  0  0
 10 15  1  0  0  0
 11 12  1  0  0  0
 11 93  1  0  0  0
 12 13  2  0  0  0
 12 94  1  0  0  0
 13 14  1  0  0  0
 13 31  1  0  0  0
 14 15  2  0  0  0
 14 95  1  0  0  0
 15 96  1  0  0  0
 16 17  2  0  0  0
 16 21  1  0  0  0
 16 31  1  0  0  0
 17 18  1  0  0  0
 17 97  1  0  0  0
 18 19  2  0  0  0
 18 98  1  0  0  0
 19 20  1  0  0  0
 19 24  1  0  0  0
 20 21  2  0  0  0
 20 99  1  0  0  0
 21 23  1  0  0  0
 22 28  1  0  0  0
 22 32  2  0  0  0
 26 27  1  0  0  0
 28100  1  0  0  0
 28101  1  0  0  0
 29102  1  0  0  0
 29103  1  0  0  0
 33 34  1  0  0  0
 33 66  1  0  0  0
 33 70  2  0  0  0
 34 36  1  0  0  0
 34 59  1  0  0  0
 34104  1  0  0  0
 35 44  2  0  0  0
 35 45  1  0  0  0
 35 68  1  0  0  0
 36 56  1  0  0  0
 36105  1  0  0  0
 37 39  1  0  0  0
 37 47  1  0  0  0
 37 66  1  0  0  0
 37106  1  0  0  0
 38 43  2  0  0  0
 38 46  1  0  0  0
 38 47  1  0  0  0
 39 64  1  0  0  0
 39 67  2  0  0  0
 40 52  1  0  0  0
 40 53  2  0  0  0
 40 58  1  0  0  0
 41107  1  0  0  0
 41108  1  0  0  0
 41109  1  0  0  0
 41 48  1  0  0  0
 42 43  1  0  0  0
 42 66  1  0  0  0
 42110  1  0  0  0
 42111  1  0  0  0
 43 44  1  0  0  0
 44112  1  0  0  0
 45 46  2  0  0  0
 45113  1  0  0  0
 46114  1  0  0  0
 47115  1  0  0  0
 47116  1  0  0  0
 48 56  1  0  0  0
 48 65  1  0  0  0
 48117  1  0  0  0
 49 50  1  0  0  0
 49 53  1  0  0  0
 49 64  1  0  0  0
 49118  1  0  0  0
 50 51  1  0  0  0
 50119  1  0  0  0
 50120  1  0  0  0
 51 52  1  0  0  0
 51121  1  0  0  0
 51122  1  0  0  0
 52123  1  0  0  0
 52124  1  0  0  0
 53 54  1  0  0  0
 54 55  2  0  0  0
 54125  1  0  0  0
 55 57  1  0  0  0
 55126  1  0  0  0
 56 69  2  0  0  0
 57 58  2  0  0  0
 57127  1  0  0  0
 58128  1  0  0  0
 59 60  1  0  0  0
 59 61  1  0  0  0
 59 62  1  0  0  0
 60129  1  0  0  0
 60130  1  0  0  0
 60131  1  0  0  0
 61132  1  0  0  0
 61133  1  0  0  0
 61134  1  0  0  0
 62135  1  0  0  0
 62136  1  0  0  0
 62137  1  0  0  0
 63 65  1  0  0  0
 63138  1  0  0  0
 63139  1  0  0  0
 63140  1  0  0  0
 64141  1  0  0  0
 65142  1  0  0  0
 68 81  1  0  0  0
 71 73  2  0  0  0
 71 74  1  0  0  0
 71143  1  0  0  0
 72 73  1  0  0  0
 72 75  2  0  0  0
 72144  1  0  0  0
 73 77  1  0  0  0
 74 76  1  0  0  0
 74 82  2  0  0  0
 75 78  1  0  0  0
 75 82  1  0  0  0
 76145  1  0  0  0
 76146  1  0  0  0
 76147  1  0  0  0
 77 81  1  0  0  0
 77148  1  0  0  0
 77149  1  0  0  0
 78 79  1  0  0  0
 78150  1  0  0  0
 78151  1  0  0  0
 79 80  1  0  0  0
 79152  1  0  0  0
 79153  1  0  0  0
 80 83  1  0  0  0
 80154  1  0  0  0
 80155  1  0  0  0
 81156  1  0  0  0
 81157  1  0  0  0
 83158  1  0  0  0
M  ISO  4   1 100  68 101  81 101  83 100
M  END
> <chiral flag>
0

> <version>
0

> <s_m_source_file>
/data/baiqing/PycharmProjects/Reinvent-master-3.2/result/LINK_invent/BTK/process_docking_weight1_custom_sum_contain_oxygen_bond_distance_aromatic_linkinvent_7_9_3/rearranged_h_0041.sdf

> <i_m_source_file_index>
49

> <r_mmod_Potential_Energy-OPLS-2005>
-242.858444213867

> <r_mmod_Stretch_Energy-OPLS-2005>
41.8909530639648

> <r_mmod_Bend_Energy-OPLS-2005>
107.187057495117

> <r_mmod_Torsional_Energy-OPLS-2005>
180.041244506836

> <r_mmod_Improper_Torsional_Energy-OPLS-2005>
3.02049708366394

> <r_mmod_Van_der_Waal_Energy-OPLS-2005>
151.380233764648

> <r_mmod_Electrostatic_Energy-OPLS-2005>
-520.482421875

> <r_mmod_Solvation_Energy-OPLS-2005>
-221.17041015625

> <b_mmod_Minimization_Converged-OPLS-2005>
0

> <r_mmod_RMS_Derivative-OPLS-2005>
2.64807915687561

$$$$
49
                    3D
 Structure written by MMmdl.
160168  0  0  1  0            999 V2000
  -30.7171  -14.4289   20.5236 C   0  0  0  0  0  0
  -30.4067  -12.2618   19.4305 C   0  0  0  0  0  0
  -29.4907  -12.4766   18.2094 C   0  0  0  0  0  0
  -28.0086  -12.3571   18.6135 C   0  0  0  0  0  0
  -27.6583  -13.2027   19.8684 C   0  0  2  0  0  0
  -28.6969  -13.0022   20.9967 C   0  0  0  0  0  0
  -25.2594  -13.8153   20.5656 C   0  0  0  0  0  0
  -24.1826  -13.0452   20.9149 C   0  0  0  0  0  0
  -24.6362  -11.6915   20.8715 C   0  0  0  0  0  0
  -23.9028  -10.4305   21.0400 C   0  0  0  0  0  0
  -24.3598   -9.4229   21.9178 C   0  0  0  0  0  0
  -23.6294   -8.2256   22.0756 C   0  0  0  0  0  0
  -22.4276   -8.0276   21.3548 C   0  0  0  0  0  0
  -21.9897   -9.0239   20.4650 C   0  0  0  0  0  0
  -22.7203  -10.2133   20.3050 C   0  0  0  0  0  0
  -21.6868   -6.0723   22.5280 C   0  0  0  0  0  0
  -21.4022   -6.5641   23.8209 C   0  0  0  0  0  0
  -21.3655   -5.6797   24.9179 C   0  0  0  0  0  0
  -21.6043   -4.3059   24.7219 C   0  0  0  0  0  0
  -21.8834   -3.8141   23.4348 C   0  0  0  0  0  0
  -21.9202   -4.6954   22.3402 C   0  0  0  0  0  0
  -22.7870  -13.5279   21.1817 C   0  0  0  0  0  0
  -22.1681   -4.2140   21.0979 F   0  0  0  0  0  0
  -21.5613   -3.4544   25.7728 F   0  0  0  0  0  0
  -30.0333  -13.2630   20.4371 N   0  0  0  0  0  0
  -26.3001  -12.9301   20.3340 N   0  0  0  0  0  0
  -25.9278  -11.6469   20.5746 N   0  0  0  0  0  0
  -22.0530  -12.8249   22.0382 N   0  0  0  0  0  0
  -25.4374  -15.1858   20.4044 N   0  0  0  0  0  0
  -31.8755  -14.5674   20.1183 O   0  0  0  0  0  0
  -21.6671   -6.8853   21.4230 O   0  0  0  0  0  0
  -22.3551  -14.5588   20.6688 O   0  0  0  0  0  0
  -24.6088  -31.8715   23.2105 C   0  0  0  0  0  0
  -25.9018  -32.4838   23.8371 C   0  0  1  0  0  0
  -27.2313  -27.4542   20.0774 C   0  0  0  0  0  0
  -25.5903  -33.8636   24.2324 N   0  0  0  0  0  0
  -23.3929  -30.4963   21.5511 C   0  0  2  0  0  0
  -24.8363  -28.9610   20.1124 C   0  0  0  0  0  0
  -22.7361  -29.4685   22.4996 C   0  0  0  0  0  0
  -18.0273  -28.1359   22.8488 C   0  0  0  0  0  0
  -24.1477  -36.7310   23.2632 C   0  0  0  0  0  0
  -25.9187  -30.8411   21.3599 C   0  0  0  0  0  0
  -25.9950  -29.4766   20.7048 C   0  0  0  0  0  0
  -27.1925  -28.7301   20.6835 C   0  0  0  0  0  0
  -26.0512  -26.9493   19.4828 C   0  0  0  0  0  0
  -24.8582  -27.6959   19.5008 C   0  0  0  0  0  0
  -23.5968  -29.8239   20.1656 C   0  0  0  0  0  0
  -25.4113  -36.3138   24.0334 C   0  0  1  0  0  0
  -20.5849  -28.3654   23.1344 C   0  0  2  0  0  0
  -20.6779  -26.9402   22.5421 C   0  0  0  0  0  0
  -19.5760  -26.6379   21.5211 C   0  0  0  0  0  0
  -18.1934  -26.7898   22.1616 C   0  0  0  0  0  0
  -19.1513  -28.8827   23.2912 C   0  0  0  0  0  0
  -18.9435  -30.1435   23.8923 C   0  0  0  0  0  0
  -17.6445  -30.6576   24.0571 C   0  0  0  0  0  0
  -25.9038  -34.9500   23.5133 C   0  0  0  0  0  0
  -16.5345  -29.9082   23.6312 C   0  0  0  0  0  0
  -16.7263  -28.6488   23.0347 C   0  0  0  0  0  0
  -26.4461  -31.6608   25.0679 C   0  0  0  0  0  0
  -25.3725  -31.3730   26.1427 C   0  0  0  0  0  0
  -27.0273  -30.3036   24.6041 C   0  0  0  0  0  0
  -27.6043  -32.4322   25.7457 C   0  0  0  0  0  0
  -27.5588  -37.1816   24.8464 C   0  0  0  0  0  0
  -21.4092  -29.3041   22.3748 N   0  0  0  0  0  0
  -26.4310  -37.3820   23.9403 N   0  0  0  0  0  0
  -24.6584  -31.0826   22.0992 N   0  0  0  0  0  0
  -23.4154  -28.8228   23.3029 O   0  0  0  0  0  0
  -28.4302  -26.7740   20.0840 O   0  0  0  0  0  0
  -26.5582  -34.8964   22.4681 O   0  0  0  0  0  0
  -23.5300  -32.1461   23.7534 O   0  0  0  0  0  0
  -29.7590  -21.3017   20.9897 C   0  0  0  0  0  0
  -29.1263  -20.4771   20.0478 C   0  0  0  0  0  0
  -27.9910  -21.0103   19.4090 C   0  0  0  0  0  0
  -28.2871  -22.9902   20.5438 C   0  0  0  0  0  0
  -25.7522  -20.6875   18.1877 C   0  0  0  0  0  0
  -29.7682  -19.1494   19.6688 C   0  0  0  0  0  0
  -27.2177  -20.2419   18.3422 C   0  0  0  0  0  0
  -27.8802  -24.4425   20.7530 C   0  0  0  0  0  0
  -29.3064  -17.9173   20.4732 C   0  0  0  0  0  0
  -30.4205  -16.8557   20.4687 C   0  0  0  0  0  0
  -28.4889  -25.3928   19.7022 C   0  0  0  0  0  0
  -29.3383  -22.5549   21.2310 N   0  0  0  0  0  0
  -27.6056  -22.2827   19.6484 N   0  0  0  0  0  0
  -29.9814  -15.5054   20.8315 N   0  0  0  0  0  0
  -31.4575  -12.3283   19.1412 H   0  0  0  0  0  0
  -30.2722  -11.2605   19.8393 H   0  0  0  0  0  0
  -29.7273  -11.7513   17.4313 H   0  0  0  0  0  0
  -29.6735  -13.4577   17.7702 H   0  0  0  0  0  0
  -27.8077  -11.3017   18.8071 H   0  0  0  0  0  0
  -27.3631  -12.6451   17.7806 H   0  0  0  0  0  0
  -27.7025  -14.2486   19.5632 H   0  0  0  0  0  0
  -28.6496  -11.9859   21.3909 H   0  0  0  0  0  0
  -28.4757  -13.6551   21.8417 H   0  0  0  0  0  0
  -25.2749   -9.5743   22.4736 H   0  0  0  0  0  0
  -24.0028   -7.4672   22.7489 H   0  0  0  0  0  0
  -21.0828   -8.8732   19.8966 H   0  0  0  0  0  0
  -22.3641  -10.9656   19.6152 H   0  0  0  0  0  0
  -21.2038   -7.6155   23.9704 H   0  0  0  0  0  0
  -21.1458   -6.0534   25.9078 H   0  0  0  0  0  0
  -22.0615   -2.7596   23.2858 H   0  0  0  0  0  0
  -22.4163  -11.9888   22.4691 H   0  0  0  0  0  0
  -21.1157  -13.1267   22.2629 H   0  0  0  0  0  0
  -24.6760  -15.8472   20.5001 H   0  0  0  0  0  0
  -26.2889  -15.6135   20.0646 H   0  0  0  0  0  0
  -26.7075  -32.5569   23.1132 H   0  0  0  0  0  0
  -25.0121  -33.9783   25.0514 H   0  0  0  0  0  0
  -22.6799  -31.3128   21.4129 H   0  0  0  0  0  0
  -23.3762  -35.9620   23.3308 H   0  0  0  0  0  0
  -24.3551  -36.8889   22.2038 H   0  0  0  0  0  0
  -23.7197  -37.6518   23.6614 H   0  0  0  0  0  0
  -26.0271  -31.6105   20.5944 H   0  0  0  0  0  0
  -26.8089  -30.8904   21.9761 H   0  0  0  0  0  0
  -28.0916  -29.1268   21.1334 H   0  0  0  0  0  0
  -26.0274  -25.9914   18.9856 H   0  0  0  0  0  0
  -23.9690  -27.2887   19.0405 H   0  0  0  0  0  0
  -23.6991  -30.5955   19.4008 H   0  0  0  0  0  0
  -22.7214  -29.2390   19.8758 H   0  0  0  0  0  0
  -25.1296  -36.2011   25.0826 H   0  0  0  0  0  0
  -20.9939  -28.3216   24.1478 H   0  0  0  0  0  0
  -20.5707  -26.2253   23.3590 H   0  0  0  0  0  0
  -21.6651  -26.7495   22.1212 H   0  0  0  0  0  0
  -19.6930  -25.6295   21.1230 H   0  0  0  0  0  0
  -19.6683  -27.3201   20.6744 H   0  0  0  0  0  0
  -17.4201  -26.6630   21.4022 H   0  0  0  0  0  0
  -18.0341  -26.0042   22.9013 H   0  0  0  0  0  0
  -19.7920  -30.7237   24.2288 H   0  0  0  0  0  0
  -17.5016  -31.6253   24.5175 H   0  0  0  0  0  0
  -15.5352  -30.3009   23.7618 H   0  0  0  0  0  0
  -15.8649  -28.0825   22.7070 H   0  0  0  0  0  0
  -24.5888  -30.7092   25.7755 H   0  0  0  0  0  0
  -24.8945  -32.2898   26.4882 H   0  0  0  0  0  0
  -25.8078  -30.8891   27.0172 H   0  0  0  0  0  0
  -26.2806  -29.6833   24.1070 H   0  0  0  0  0  0
  -27.4000  -29.7250   25.4514 H   0  0  0  0  0  0
  -27.8666  -30.4341   23.9209 H   0  0  0  0  0  0
  -27.2643  -33.3598   26.2086 H   0  0  0  0  0  0
  -28.3847  -32.6896   25.0282 H   0  0  0  0  0  0
  -28.0705  -31.8401   26.5350 H   0  0  0  0  0  0
  -28.2639  -38.0089   24.7540 H   0  0  0  0  0  0
  -28.1058  -36.2633   24.6285 H   0  0  0  0  0  0
  -27.2292  -37.1450   25.8863 H   0  0  0  0  0  0
  -20.9238  -29.8746   21.6954 H   0  0  0  0  0  0
  -26.0206  -38.2902   24.1416 H   0  0  0  0  0  0
  -30.6488  -20.9735   21.5066 H   0  0  0  0  0  0
  -25.2150  -20.6245   19.1363 H   0  0  0  0  0  0
  -25.2318  -20.0731   17.4532 H   0  0  0  0  0  0
  -25.6979  -21.7168   17.8331 H   0  0  0  0  0  0
  -30.8464  -19.2772   19.7813 H   0  0  0  0  0  0
  -29.6299  -18.9611   18.6034 H   0  0  0  0  0  0
  -27.2306  -19.1814   18.5978 H   0  0  0  0  0  0
  -27.7407  -20.3348   17.3900 H   0  0  0  0  0  0
  -28.2101  -24.7445   21.7477 H   0  0  0  0  0  0
  -26.7924  -24.5170   20.7567 H   0  0  0  0  0  0
  -28.3903  -17.5241   20.0309 H   0  0  0  0  0  0
  -29.0755  -18.1862   21.5046 H   0  0  0  0  0  0
  -31.2323  -17.1600   21.1323 H   0  0  0  0  0  0
  -30.8425  -16.8243   19.4612 H   0  0  0  0  0  0
  -28.0614  -25.2149   18.7147 H   0  0  0  0  0  0
  -29.5492  -25.1595   19.5995 H   0  0  0  0  0  0
  -29.0236  -15.3604   21.1133 H   0  0  0  0  0  0
  1 25  1  0  0  0
  1 30  2  0  0  0
  1 84  1  0  0  0
  2  3  1  0  0  0
  2 25  1  0  0  0
  2 85  1  0  0  0
  2 86  1  0  0  0
  3  4  1  0  0  0
  3 87  1  0  0  0
  3 88  1  0  0  0
  4  5  1  0  0  0
  4 89  1  0  0  0
  4 90  1  0  0  0
  5  6  1  0  0  0
  5 26  1  0  0  0
  5 91  1  0  0  0
  6 25  1  0  0  0
  6 92  1  0  0  0
  6 93  1  0  0  0
  7  8  2  0  0  0
  7 26  1  0  0  0
  7 29  1  0  0  0
  8  9  1  0  0  0
  8 22  1  0  0  0
  9 10  1  0  0  0
  9 27  2  0  0  0
 10 11  2  0  0  0
 10 15  1  0  0  0
 11 12  1  0  0  0
 11 94  1  0  0  0
 12 13  2  0  0  0
 12 95  1  0  0  0
 13 14  1  0  0  0
 13 31  1  0  0  0
 14 15  2  0  0  0
 14 96  1  0  0  0
 15 97  1  0  0  0
 16 17  2  0  0  0
 16 21  1  0  0  0
 16 31  1  0  0  0
 17 18  1  0  0  0
 17 98  1  0  0  0
 18 19  2  0  0  0
 18 99  1  0  0  0
 19 20  1  0  0  0
 19 24  1  0  0  0
 20 21  2  0  0  0
 20100  1  0  0  0
 21 23  1  0  0  0
 22 28  1  0  0  0
 22 32  2  0  0  0
 26 27  1  0  0  0
 28101  1  0  0  0
 28102  1  0  0  0
 29103  1  0  0  0
 29104  1  0  0  0
 33 34  1  0  0  0
 33 66  1  0  0  0
 33 70  2  0  0  0
 34 36  1  0  0  0
 34 59  1  0  0  0
 34105  1  0  0  0
 35 44  2  0  0  0
 35 45  1  0  0  0
 35 68  1  0  0  0
 36 56  1  0  0  0
 36106  1  0  0  0
 37 39  1  0  0  0
 37 47  1  0  0  0
 37 66  1  0  0  0
 37107  1  0  0  0
 38 43  2  0  0  0
 38 46  1  0  0  0
 38 47  1  0  0  0
 39 64  1  0  0  0
 39 67  2  0  0  0
 40 52  1  0  0  0
 40 53  2  0  0  0
 40 58  1  0  0  0
 41108  1  0  0  0
 41109  1  0  0  0
 41110  1  0  0  0
 41 48  1  0  0  0
 42 43  1  0  0  0
 42 66  1  0  0  0
 42111  1  0  0  0
 42112  1  0  0  0
 43 44  1  0  0  0
 44113  1  0  0  0
 45 46  2  0  0  0
 45114  1  0  0  0
 46115  1  0  0  0
 47116  1  0  0  0
 47117  1  0  0  0
 48 56  1  0  0  0
 48 65  1  0  0  0
 48118  1  0  0  0
 49 50  1  0  0  0
 49 53  1  0  0  0
 49 64  1  0  0  0
 49119  1  0  0  0
 50 51  1  0  0  0
 50120  1  0  0  0
 50121  1  0  0  0
 51 52  1  0  0  0
 51122  1  0  0  0
 51123  1  0  0  0
 52124  1  0  0  0
 52125  1  0  0  0
 53 54  1  0  0  0
 54 55  2  0  0  0
 54126  1  0  0  0
 55 57  1  0  0  0
 55127  1  0  0  0
 56 69  2  0  0  0
 57 58  2  0  0  0
 57128  1  0  0  0
 58129  1  0  0  0
 59 60  1  0  0  0
 59 61  1  0  0  0
 59 62  1  0  0  0
 60130  1  0  0  0
 60131  1  0  0  0
 60132  1  0  0  0
 61133  1  0  0  0
 61134  1  0  0  0
 61135  1  0  0  0
 62136  1  0  0  0
 62137  1  0  0  0
 62138  1  0  0  0
 63 65  1  0  0  0
 63139  1  0  0  0
 63140  1  0  0  0
 63141  1  0  0  0
 64142  1  0  0  0
 65143  1  0  0  0
 68 81  1  0  0  0
 71 72  2  0  0  0
 71 82  1  0  0  0
 71144  1  0  0  0
 72 73  1  0  0  0
 72 76  1  0  0  0
 73 77  1  0  0  0
 73 83  2  0  0  0
 74 78  1  0  0  0
 74 82  2  0  0  0
 74 83  1  0  0  0
 75 77  1  0  0  0
 75145  1  0  0  0
 75146  1  0  0  0
 75147  1  0  0  0
 76 79  1  0  0  0
 76148  1  0  0  0
 76149  1  0  0  0
 77150  1  0  0  0
 77151  1  0  0  0
 78 81  1  0  0  0
 78152  1  0  0  0
 78153  1  0  0  0
 79 80  1  0  0  0
 79154  1  0  0  0
 79155  1  0  0  0
 80 84  1  0  0  0
 80156  1  0  0  0
 80157  1  0  0  0
 81158  1  0  0  0
 81159  1  0  0  0
 84160  1  0  0  0
M  ISO  4   1 100  68 101  81 101  84 100
M  END
> <chiral flag>
0

> <version>
0

> <s_m_source_file>
/data/baiqing/PycharmProjects/Reinvent-master-3.2/result/LINK_invent/BTK/process_docking_weight1_custom_sum_contain_oxygen_bond_distance_aromatic_linkinvent_7_9_3/rearranged_h_0041.sdf

> <i_m_source_file_index>
50

> <r_mmod_Potential_Energy-OPLS-2005>
-460.695770263672

> <r_mmod_Stretch_Energy-OPLS-2005>
31.7244625091553

> <r_mmod_Bend_Energy-OPLS-2005>
102.378257751465

> <r_mmod_Torsional_Energy-OPLS-2005>
191.4326171875

> <r_mmod_Improper_Torsional_Energy-OPLS-2005>
7.5215539932251

> <r_mmod_Van_der_Waal_Energy-OPLS-2005>
165.648406982422

> <r_mmod_Electrostatic_Energy-OPLS-2005>
-746.5068359375

> <r_mmod_Solvation_Energy-OPLS-2005>
-226.773742675781

> <b_mmod_Minimization_Converged-OPLS-2005>
0

> <r_mmod_RMS_Derivative-OPLS-2005>
3.39541411399841

$$$$
50
                    3D
 Structure written by MMmdl.
155163  0  0  1  0            999 V2000
  -30.6250  -14.7012   20.4791 C   0  0  0  0  0  0
  -30.4313  -12.4335   19.4643 C   0  0  0  0  0  0
  -29.5080  -12.5005   18.2289 C   0  0  0  0  0  0
  -28.0327  -12.3307   18.6419 C   0  0  0  0  0  0
  -27.6435  -13.2255   19.8496 C   0  0  2  0  0  0
  -28.6869  -13.1418   20.9839 C   0  0  0  0  0  0
  -25.2526  -13.8185   20.5675 C   0  0  0  0  0  0
  -24.1808  -13.0436   20.9191 C   0  0  0  0  0  0
  -24.6389  -11.6914   20.8726 C   0  0  0  0  0  0
  -23.9056  -10.4294   21.0394 C   0  0  0  0  0  0
  -24.3610   -9.4215   21.9177 C   0  0  0  0  0  0
  -23.6289   -8.2250   22.0750 C   0  0  0  0  0  0
  -22.4273   -8.0285   21.3546 C   0  0  0  0  0  0
  -21.9908   -9.0248   20.4642 C   0  0  0  0  0  0
  -22.7228  -10.2130   20.3046 C   0  0  0  0  0  0
  -21.6855   -6.0737   22.5282 C   0  0  0  0  0  0
  -21.4013   -6.5636   23.8213 C   0  0  0  0  0  0
  -21.3663   -5.6789   24.9175 C   0  0  0  0  0  0
  -21.6047   -4.3051   24.7224 C   0  0  0  0  0  0
  -21.8818   -3.8148   23.4343 C   0  0  0  0  0  0
  -21.9191   -4.6965   22.3401 C   0  0  0  0  0  0
  -22.7835  -13.5232   21.1847 C   0  0  0  0  0  0
  -22.1666   -4.2152   21.0982 F   0  0  0  0  0  0
  -21.5622   -3.4533   25.7737 F   0  0  0  0  0  0
  -29.9898  -13.4863   20.4037 N   0  0  0  0  0  0
  -26.2941  -12.9376   20.3261 N   0  0  0  0  0  0
  -25.9316  -11.6521   20.5735 N   0  0  0  0  0  0
  -22.0477  -12.8227   22.0406 N   0  0  0  0  0  0
  -25.4223  -15.1907   20.4104 N   0  0  0  0  0  0
  -31.8139  -14.8014   20.1649 O   0  0  0  0  0  0
  -21.6646   -6.8879   21.4245 O   0  0  0  0  0  0
  -22.3529  -14.5539   20.6694 O   0  0  0  0  0  0
  -24.6284  -31.8575   23.1983 C   0  0  0  0  0  0
  -25.9116  -32.4770   23.8339 C   0  0  1  0  0  0
  -27.2256  -27.2955   20.1351 C   0  0  0  0  0  0
  -25.5920  -33.8570   24.2268 N   0  0  0  0  0  0
  -23.4234  -30.4767   21.5427 C   0  0  2  0  0  0
  -24.8715  -28.9200   20.1182 C   0  0  0  0  0  0
  -22.7480  -29.4602   22.4944 C   0  0  0  0  0  0
  -18.0285  -28.1389   22.8504 C   0  0  0  0  0  0
  -24.1485  -36.7284   23.2644 C   0  0  0  0  0  0
  -25.9647  -30.7819   21.3706 C   0  0  0  0  0  0
  -26.0407  -29.4036   20.7199 C   0  0  0  0  0  0
  -27.2246  -28.6051   20.7123 C   0  0  0  0  0  0
  -26.0363  -26.8594   19.5190 C   0  0  0  0  0  0
  -24.8712  -27.6541   19.5072 C   0  0  0  0  0  0
  -23.6404  -29.8033   20.1614 C   0  0  0  0  0  0
  -25.4115  -36.3078   24.0326 C   0  0  1  0  0  0
  -20.5880  -28.3697   23.1283 C   0  0  2  0  0  0
  -20.6774  -26.9423   22.5407 C   0  0  0  0  0  0
  -19.5740  -26.6381   21.5215 C   0  0  0  0  0  0
  -18.1928  -26.7938   22.1633 C   0  0  0  0  0  0
  -19.1537  -28.8864   23.2887 C   0  0  0  0  0  0
  -18.9453  -30.1470   23.8897 C   0  0  0  0  0  0
  -17.6452  -30.6595   24.0561 C   0  0  0  0  0  0
  -25.9056  -34.9447   23.5106 C   0  0  0  0  0  0
  -16.5346  -29.9089   23.6330 C   0  0  0  0  0  0
  -16.7272  -28.6510   23.0357 C   0  0  0  0  0  0
  -26.4497  -31.6584   25.0715 C   0  0  0  0  0  0
  -25.3720  -31.3708   26.1429 C   0  0  0  0  0  0
  -27.0355  -30.3016   24.6174 C   0  0  0  0  0  0
  -27.6066  -32.4315   25.7481 C   0  0  0  0  0  0
  -27.5575  -37.1798   24.8468 C   0  0  0  0  0  0
  -21.4191  -29.3039   22.3686 N   0  0  0  0  0  0
  -26.4292  -37.3776   23.9406 N   0  0  0  0  0  0
  -24.6911  -31.0560   22.0945 N   0  0  0  0  0  0
  -23.4194  -28.8152   23.3044 O   0  0  0  0  0  0
  -28.3412  -26.4451   20.1145 O   0  0  0  0  0  0
  -26.5631  -34.8921   22.4675 O   0  0  0  0  0  0
  -23.5441  -32.1384   23.7294 O   0  0  0  0  0  0
  -27.6495  -20.5261   19.6804 C   0  0  0  0  0  0
  -29.6636  -19.8505   20.7957 C   0  0  0  0  0  0
  -28.7794  -20.9296   20.4184 C   0  0  0  0  0  0
  -27.4477  -19.1602   19.3745 C   0  0  0  0  0  0
  -29.3974  -18.4732   20.4477 C   0  0  0  0  0  0
  -26.2208  -18.7324   18.5968 C   0  0  0  0  0  0
  -28.9393  -22.4362   20.8957 C   0  0  0  0  0  0
  -30.3524  -17.2643   20.8015 C   0  0  0  0  0  0
  -28.4951  -23.7139   20.0105 C   0  0  0  0  0  0
  -28.2589  -25.1124   20.7780 C   0  0  0  0  0  0
  -28.2891  -18.1625   19.7423 N   0  0  0  0  0  0
  -29.8707  -15.8268   20.7254 N   0  0  0  0  0  0
  -31.4708  -12.5615   19.1586 H   0  0  0  0  0  0
  -30.3761  -11.4523   19.9381 H   0  0  0  0  0  0
  -29.7878  -11.7305   17.5087 H   0  0  0  0  0  0
  -29.6397  -13.4576   17.7208 H   0  0  0  0  0  0
  -27.8805  -11.2816   18.8971 H   0  0  0  0  0  0
  -27.3771  -12.5346   17.7950 H   0  0  0  0  0  0
  -27.6438  -14.2502   19.4780 H   0  0  0  0  0  0
  -28.7147  -12.1390   21.4133 H   0  0  0  0  0  0
  -28.4252  -13.8159   21.8015 H   0  0  0  0  0  0
  -25.2755   -9.5698   22.4739 H   0  0  0  0  0  0
  -24.0001   -7.4648   22.7469 H   0  0  0  0  0  0
  -21.0840   -8.8747   19.8953 H   0  0  0  0  0  0
  -22.3670  -10.9657   19.6143 H   0  0  0  0  0  0
  -21.2006   -7.6146   23.9716 H   0  0  0  0  0  0
  -21.1487   -6.0520   25.9075 H   0  0  0  0  0  0
  -22.0599   -2.7610   23.2839 H   0  0  0  0  0  0
  -22.4098  -11.9892   22.4797 H   0  0  0  0  0  0
  -21.1080  -13.1242   22.2587 H   0  0  0  0  0  0
  -24.6544  -15.8421   20.5253 H   0  0  0  0  0  0
  -26.2735  -15.6370   20.0919 H   0  0  0  0  0  0
  -26.7181  -32.5444   23.1093 H   0  0  0  0  0  0
  -25.0057  -33.9709   25.0406 H   0  0  0  0  0  0
  -22.7198  -31.2977   21.3942 H   0  0  0  0  0  0
  -23.3748  -35.9614   23.3315 H   0  0  0  0  0  0
  -24.3578  -36.8907   22.2058 H   0  0  0  0  0  0
  -23.7225  -37.6484   23.6664 H   0  0  0  0  0  0
  -26.0950  -31.5389   20.5962 H   0  0  0  0  0  0
  -26.8451  -30.8381   21.9987 H   0  0  0  0  0  0
  -28.1282  -28.9752   21.1780 H   0  0  0  0  0  0
  -26.0098  -25.8875   19.0469 H   0  0  0  0  0  0
  -23.9743  -27.2774   19.0344 H   0  0  0  0  0  0
  -23.7622  -30.5753   19.4007 H   0  0  0  0  0  0
  -22.7606  -29.2319   19.8606 H   0  0  0  0  0  0
  -25.1293  -36.1940   25.0816 H   0  0  0  0  0  0
  -20.9974  -28.3262   24.1398 H   0  0  0  0  0  0
  -20.5693  -26.2314   23.3611 H   0  0  0  0  0  0
  -21.6647  -26.7463   22.1191 H   0  0  0  0  0  0
  -19.6663  -27.3195   20.6743 H   0  0  0  0  0  0
  -19.6910  -25.6290   21.1249 H   0  0  0  0  0  0
  -17.4221  -26.6720   21.4010 H   0  0  0  0  0  0
  -18.0294  -26.0082   22.9019 H   0  0  0  0  0  0
  -19.7924  -30.7295   24.2260 H   0  0  0  0  0  0
  -17.4984  -31.6270   24.5160 H   0  0  0  0  0  0
  -15.5345  -30.2982   23.7645 H   0  0  0  0  0  0
  -15.8672  -28.0838   22.7057 H   0  0  0  0  0  0
  -24.5907  -30.7057   25.7733 H   0  0  0  0  0  0
  -24.8894  -32.2870   26.4849 H   0  0  0  0  0  0
  -25.8031  -30.8878   27.0207 H   0  0  0  0  0  0
  -26.2942  -29.6757   24.1198 H   0  0  0  0  0  0
  -27.4067  -29.7280   25.4677 H   0  0  0  0  0  0
  -27.8796  -30.4321   23.9399 H   0  0  0  0  0  0
  -27.2701  -33.3628   26.2048 H   0  0  0  0  0  0
  -28.3879  -32.6854   25.0302 H   0  0  0  0  0  0
  -28.0735  -31.8442   26.5401 H   0  0  0  0  0  0
  -28.2599  -38.0091   24.7519 H   0  0  0  0  0  0
  -28.1068  -36.2624   24.6297 H   0  0  0  0  0  0
  -27.2296  -37.1454   25.8874 H   0  0  0  0  0  0
  -20.9377  -29.8767   21.6903 H   0  0  0  0  0  0
  -26.0175  -38.2854   24.1401 H   0  0  0  0  0  0
  -26.9131  -21.2562   19.3727 H   0  0  0  0  0  0
  -30.5487  -20.0742   21.3768 H   0  0  0  0  0  0
  -25.3741  -19.3811   18.8207 H   0  0  0  0  0  0
  -25.9313  -17.7101   18.8410 H   0  0  0  0  0  0
  -26.4136  -18.7863   17.5260 H   0  0  0  0  0  0
  -29.9819  -22.5788   21.1815 H   0  0  0  0  0  0
  -28.3879  -22.4930   21.8343 H   0  0  0  0  0  0
  -30.7204  -17.4261   21.8147 H   0  0  0  0  0  0
  -31.2268  -17.3664   20.1575 H   0  0  0  0  0  0
  -27.5708  -23.4793   19.4839 H   0  0  0  0  0  0
  -29.2433  -23.8583   19.2316 H   0  0  0  0  0  0
  -29.0197  -25.1627   21.5574 H   0  0  0  0  0  0
  -27.3180  -25.0413   21.3258 H   0  0  0  0  0  0
  -28.8825  -15.6991   20.8742 H   0  0  0  0  0  0
  1 25  1  0  0  0
  1 30  2  0  0  0
  1 82  1  0  0  0
  2  3  1  0  0  0
  2 25  1  0  0  0
  2 83  1  0  0  0
  2 84  1  0  0  0
  3  4  1  0  0  0
  3 85  1  0  0  0
  3 86  1  0  0  0
  4  5  1  0  0  0
  4 87  1  0  0  0
  4 88  1  0  0  0
  5  6  1  0  0  0
  5 26  1  0  0  0
  5 89  1  0  0  0
  6 25  1  0  0  0
  6 90  1  0  0  0
  6 91  1  0  0  0
  7  8  2  0  0  0
  7 26  1  0  0  0
  7 29  1  0  0  0
  8  9  1  0  0  0
  8 22  1  0  0  0
  9 10  1  0  0  0
  9 27  2  0  0  0
 10 11  2  0  0  0
 10 15  1  0  0  0
 11 12  1  0  0  0
 11 92  1  0  0  0
 12 13  2  0  0  0
 12 93  1  0  0  0
 13 14  1  0  0  0
 13 31  1  0  0  0
 14 15  2  0  0  0
 14 94  1  0  0  0
 15 95  1  0  0  0
 16 17  2  0  0  0
 16 21  1  0  0  0
 16 31  1  0  0  0
 17 18  1  0  0  0
 17 96  1  0  0  0
 18 19  2  0  0  0
 18 97  1  0  0  0
 19 20  1  0  0  0
 19 24  1  0  0  0
 20 21  2  0  0  0
 20 98  1  0  0  0
 21 23  1  0  0  0
 22 28  1  0  0  0
 22 32  2  0  0  0
 26 27  1  0  0  0
 28 99  1  0  0  0
 28100  1  0  0  0
 29101  1  0  0  0
 29102  1  0  0  0
 33 34  1  0  0  0
 33 66  1  0  0  0
 33 70  2  0  0  0
 34 36  1  0  0  0
 34 59  1  0  0  0
 34103  1  0  0  0
 35 44  2  0  0  0
 35 45  1  0  0  0
 35 68  1  0  0  0
 36 56  1  0  0  0
 36104  1  0  0  0
 37 39  1  0  0  0
 37 47  1  0  0  0
 37 66  1  0  0  0
 37105  1  0  0  0
 38 43  2  0  0  0
 38 46  1  0  0  0
 38 47  1  0  0  0
 39 64  1  0  0  0
 39 67  2  0  0  0
 40 52  1  0  0  0
 40 53  2  0  0  0
 40 58  1  0  0  0
 41106  1  0  0  0
 41107  1  0  0  0
 41108  1  0  0  0
 41 48  1  0  0  0
 42 43  1  0  0  0
 42 66  1  0  0  0
 42109  1  0  0  0
 42110  1  0  0  0
 43 44  1  0  0  0
 44111  1  0  0  0
 45 46  2  0  0  0
 45112  1  0  0  0
 46113  1  0  0  0
 47114  1  0  0  0
 47115  1  0  0  0
 48 56  1  0  0  0
 48 65  1  0  0  0
 48116  1  0  0  0
 49 50  1  0  0  0
 49 53  1  0  0  0
 49 64  1  0  0  0
 49117  1  0  0  0
 50 51  1  0  0  0
 50118  1  0  0  0
 50119  1  0  0  0
 51 52  1  0  0  0
 51120  1  0  0  0
 51121  1  0  0  0
 52122  1  0  0  0
 52123  1  0  0  0
 53 54  1  0  0  0
 54 55  2  0  0  0
 54124  1  0  0  0
 55 57  1  0  0  0
 55125  1  0  0  0
 56 69  2  0  0  0
 57 58  2  0  0  0
 57126  1  0  0  0
 58127  1  0  0  0
 59 60  1  0  0  0
 59 61  1  0  0  0
 59 62  1  0  0  0
 60128  1  0  0  0
 60129  1  0  0  0
 60130  1  0  0  0
 61131  1  0  0  0
 61132  1  0  0  0
 61133  1  0  0  0
 62134  1  0  0  0
 62135  1  0  0  0
 62136  1  0  0  0
 63 65  1  0  0  0
 63137  1  0  0  0
 63138  1  0  0  0
 63139  1  0  0  0
 64140  1  0  0  0
 65141  1  0  0  0
 68 80  1  0  0  0
 71 73  2  0  0  0
 71 74  1  0  0  0
 71142  1  0  0  0
 72 73  1  0  0  0
 72 75  2  0  0  0
 72143  1  0  0  0
 73 77  1  0  0  0
 74 76  1  0  0  0
 74 81  2  0  0  0
 75 78  1  0  0  0
 75 81  1  0  0  0
 76144  1  0  0  0
 76145  1  0  0  0
 76146  1  0  0  0
 77 79  1  0  0  0
 77147  1  0  0  0
 77148  1  0  0  0
 78 82  1  0  0  0
 78149  1  0  0  0
 78150  1  0  0  0
 79 80  1  0  0  0
 79151  1  0  0  0
 79152  1  0  0  0
 80153  1  0  0  0
 80154  1  0  0  0
 82155  1  0  0  0
M  ISO  4   1 100  68 101  80 101  82 100
M  END
> <chiral flag>
0

> <version>
0

> <s_m_source_file>
/data/baiqing/PycharmProjects/Reinvent-master-3.2/result/LINK_invent/BTK/process_docking_weight1_custom_sum_contain_oxygen_bond_distance_aromatic_linkinvent_7_9_3/rearranged_h_0041.sdf

> <i_m_source_file_index>
51

> <r_mmod_Potential_Energy-OPLS-2005>
-200.405410766602

> <r_mmod_Stretch_Energy-OPLS-2005>
97.7890625

> <r_mmod_Bend_Energy-OPLS-2005>
147.979263305664

> <r_mmod_Torsional_Energy-OPLS-2005>
224.029296875

> <r_mmod_Improper_Torsional_Energy-OPLS-2005>
4.35896015167236

> <r_mmod_Van_der_Waal_Energy-OPLS-2005>
133.065307617188

> <r_mmod_Electrostatic_Energy-OPLS-2005>
-661.16796875

> <r_mmod_Solvation_Energy-OPLS-2005>
-211.352844238281

> <b_mmod_Minimization_Converged-OPLS-2005>
0

> <r_mmod_RMS_Derivative-OPLS-2005>
1.60270059108734

$$$$
51
                    3D
 Structure written by MMmdl.
166174  0  0  1  0            999 V2000
  -30.6325  -14.5674   20.5496 C   0  0  0  0  0  0
  -30.4398  -12.3630   19.4280 C   0  0  0  0  0  0
  -29.5025  -12.5078   18.2091 C   0  0  0  0  0  0
  -28.0235  -12.3529   18.6214 C   0  0  0  0  0  0
  -27.6562  -13.2046   19.8655 C   0  0  2  0  0  0
  -28.6989  -13.0108   20.9879 C   0  0  0  0  0  0
  -25.2580  -13.8147   20.5655 C   0  0  0  0  0  0
  -24.1836  -13.0432   20.9172 C   0  0  0  0  0  0
  -24.6384  -11.6899   20.8725 C   0  0  0  0  0  0
  -23.9051  -10.4287   21.0402 C   0  0  0  0  0  0
  -24.3605   -9.4205   21.9183 C   0  0  0  0  0  0
  -23.6282   -8.2241   22.0756 C   0  0  0  0  0  0
  -22.4266   -8.0275   21.3541 C   0  0  0  0  0  0
  -21.9897   -9.0249   20.4645 C   0  0  0  0  0  0
  -22.7223  -10.2130   20.3053 C   0  0  0  0  0  0
  -21.6854   -6.0729   22.5279 C   0  0  0  0  0  0
  -21.4009   -6.5635   23.8210 C   0  0  0  0  0  0
  -21.3658   -5.6789   24.9175 C   0  0  0  0  0  0
  -21.6047   -4.3052   24.7229 C   0  0  0  0  0  0
  -21.8821   -3.8142   23.4350 C   0  0  0  0  0  0
  -21.9190   -4.6957   22.3404 C   0  0  0  0  0  0
  -22.7862  -13.5240   21.1842 C   0  0  0  0  0  0
  -22.1663   -4.2143   21.0981 F   0  0  0  0  0  0
  -21.5631   -3.4538   25.7743 F   0  0  0  0  0  0
  -30.0175  -13.3545   20.4312 N   0  0  0  0  0  0
  -26.2994  -12.9303   20.3303 N   0  0  0  0  0  0
  -25.9303  -11.6471   20.5734 N   0  0  0  0  0  0
  -22.0498  -12.8240   22.0398 N   0  0  0  0  0  0
  -25.4314  -15.1866   20.4059 N   0  0  0  0  0  0
  -31.7857  -14.7671   20.1571 O   0  0  0  0  0  0
  -21.6634   -6.8869   21.4238 O   0  0  0  0  0  0
  -22.3550  -14.5548   20.6689 O   0  0  0  0  0  0
  -24.6182  -31.8645   23.2071 C   0  0  0  0  0  0
  -25.9048  -32.4812   23.8394 C   0  0  1  0  0  0
  -27.2323  -27.3805   20.1188 C   0  0  0  0  0  0
  -25.5886  -33.8609   24.2321 N   0  0  0  0  0  0
  -23.4109  -30.4847   21.5495 C   0  0  2  0  0  0
  -24.8589  -28.9446   20.1166 C   0  0  0  0  0  0
  -22.7441  -29.4630   22.4989 C   0  0  0  0  0  0
  -18.0274  -28.1368   22.8488 C   0  0  0  0  0  0
  -24.1479  -36.7317   23.2643 C   0  0  0  0  0  0
  -25.9436  -30.8171   21.3659 C   0  0  0  0  0  0
  -26.0228  -29.4468   20.7127 C   0  0  0  0  0  0
  -27.2151  -28.6759   20.7024 C   0  0  0  0  0  0
  -26.0513  -26.9106   19.5049 C   0  0  0  0  0  0
  -24.8706  -27.6786   19.5054 C   0  0  0  0  0  0
  -23.6217  -29.8159   20.1652 C   0  0  0  0  0  0
  -25.4103  -36.3108   24.0335 C   0  0  1  0  0  0
  -20.5866  -28.3661   23.1309 C   0  0  2  0  0  0
  -20.6757  -26.9390   22.5420 C   0  0  0  0  0  0
  -19.5742  -26.6370   21.5208 C   0  0  0  0  0  0
  -18.1917  -26.7913   22.1611 C   0  0  0  0  0  0
  -19.1523  -28.8829   23.2888 C   0  0  0  0  0  0
  -18.9456  -30.1438   23.8893 C   0  0  0  0  0  0
  -17.6454  -30.6574   24.0554 C   0  0  0  0  0  0
  -25.9035  -34.9471   23.5131 C   0  0  0  0  0  0
  -16.5340  -29.9075   23.6327 C   0  0  0  0  0  0
  -16.7260  -28.6493   23.0346 C   0  0  0  0  0  0
  -26.4464  -31.6601   25.0737 C   0  0  0  0  0  0
  -25.3712  -31.3704   26.1474 C   0  0  0  0  0  0
  -27.0320  -30.3040   24.6148 C   0  0  0  0  0  0
  -27.6049  -32.4320   25.7487 C   0  0  0  0  0  0
  -27.5578  -37.1806   24.8462 C   0  0  0  0  0  0
  -21.4162  -29.3027   22.3719 N   0  0  0  0  0  0
  -26.4294  -37.3790   23.9406 N   0  0  0  0  0  0
  -24.6765  -31.0706   22.0988 N   0  0  0  0  0  0
  -23.4193  -28.8181   23.3051 O   0  0  0  0  0  0
  -28.3747  -26.5902   20.1312 O   0  0  0  0  0  0
  -26.5605  -34.8929   22.4702 O   0  0  0  0  0  0
  -23.5359  -32.1416   23.7423 O   0  0  0  0  0  0
  -31.0086  -20.8571   23.1742 C   0  0  0  0  0  0
  -30.8490  -22.2547   23.0180 C   0  0  0  0  0  0
  -29.7055  -20.4759   21.2881 C   0  0  0  0  0  0
  -29.5342  -21.9058   21.1320 C   0  0  0  0  0  0
  -31.7887  -20.2475   24.3237 C   0  0  0  0  0  0
  -30.4182  -23.7545   25.0186 C   0  0  0  0  0  0
  -31.4438  -23.2676   23.9855 C   0  0  0  0  0  0
  -28.9393  -19.3769   20.5160 C   0  0  0  0  0  0
  -28.6001  -22.6025   20.1154 C   0  0  0  0  0  0
  -29.6693  -18.0298   20.1142 C   0  0  0  0  0  0
  -28.8868  -24.1139   19.7383 C   0  0  0  0  0  0
  -30.1061  -17.0177   21.2362 C   0  0  0  0  0  0
  -28.2324  -25.2235   20.6276 C   0  0  0  0  0  0
  -30.4379  -19.9827   22.3172 N   0  0  0  0  0  0
  -30.1102  -22.7666   22.0081 N   0  0  0  0  0  0
  -29.8297  -15.5762   20.9768 N   0  0  0  0  0  0
  -31.4784  -12.5034   19.1225 H   0  0  0  0  0  0
  -30.3826  -11.3564   19.8440 H   0  0  0  0  0  0
  -29.7577  -11.7679   17.4493 H   0  0  0  0  0  0
  -29.6515  -13.4845   17.7454 H   0  0  0  0  0  0
  -27.8478  -11.2973   18.8317 H   0  0  0  0  0  0
  -27.3718  -12.6078   17.7849 H   0  0  0  0  0  0
  -27.6897  -14.2471   19.5495 H   0  0  0  0  0  0
  -28.7002  -11.9755   21.3320 H   0  0  0  0  0  0
  -28.4486  -13.6091   21.8649 H   0  0  0  0  0  0
  -25.2757   -9.5689   22.4750 H   0  0  0  0  0  0
  -24.0000   -7.4634   22.7478 H   0  0  0  0  0  0
  -21.0829   -8.8760   19.8954 H   0  0  0  0  0  0
  -22.3678  -10.9663   19.6158 H   0  0  0  0  0  0
  -21.1996   -7.6145   23.9712 H   0  0  0  0  0  0
  -21.1481   -6.0521   25.9077 H   0  0  0  0  0  0
  -22.0600   -2.7604   23.2853 H   0  0  0  0  0  0
  -22.4109  -11.9896   22.4785 H   0  0  0  0  0  0
  -21.1117  -13.1271   22.2602 H   0  0  0  0  0  0
  -24.6638  -15.8418   20.5075 H   0  0  0  0  0  0
  -26.2801  -15.6232   20.0691 H   0  0  0  0  0  0
  -26.7123  -32.5511   23.1167 H   0  0  0  0  0  0
  -25.0003  -33.9757   25.0439 H   0  0  0  0  0  0
  -22.7012  -31.3014   21.4090 H   0  0  0  0  0  0
  -23.3732  -35.9654   23.3313 H   0  0  0  0  0  0
  -24.3580  -36.8935   22.2059 H   0  0  0  0  0  0
  -23.7238  -37.6520   23.6662 H   0  0  0  0  0  0
  -26.0585  -31.5812   20.5963 H   0  0  0  0  0  0
  -26.8283  -30.8739   21.9885 H   0  0  0  0  0  0
  -28.1134  -29.0583   21.1668 H   0  0  0  0  0  0
  -26.0399  -25.9398   19.0299 H   0  0  0  0  0  0
  -23.9767  -27.2884   19.0377 H   0  0  0  0  0  0
  -23.7316  -30.5903   19.4055 H   0  0  0  0  0  0
  -22.7444  -29.2381   19.8699 H   0  0  0  0  0  0
  -25.1279  -36.1977   25.0824 H   0  0  0  0  0  0
  -20.9945  -28.3218   24.1435 H   0  0  0  0  0  0
  -20.5662  -26.2261   23.3610 H   0  0  0  0  0  0
  -21.6629  -26.7428   22.1218 H   0  0  0  0  0  0
  -19.6905  -25.6286   21.1235 H   0  0  0  0  0  0
  -19.6678  -27.3173   20.6737 H   0  0  0  0  0  0
  -17.4192  -26.6654   21.4009 H   0  0  0  0  0  0
  -18.0316  -26.0052   22.9008 H   0  0  0  0  0  0
  -19.7934  -30.7244   24.2264 H   0  0  0  0  0  0
  -17.5016  -31.6258   24.5150 H   0  0  0  0  0  0
  -15.5345  -30.2968   23.7663 H   0  0  0  0  0  0
  -15.8663  -28.0812   22.7057 H   0  0  0  0  0  0
  -24.5887  -30.7063   25.7794 H   0  0  0  0  0  0
  -24.8891  -32.2851   26.4930 H   0  0  0  0  0  0
  -25.8044  -30.8857   27.0237 H   0  0  0  0  0  0
  -26.2893  -29.6768   24.1207 H   0  0  0  0  0  0
  -27.4090  -29.7309   25.4634 H   0  0  0  0  0  0
  -27.8721  -30.4363   23.9327 H   0  0  0  0  0  0
  -27.2693  -33.3623   26.2081 H   0  0  0  0  0  0
  -28.3834  -32.6873   25.0285 H   0  0  0  0  0  0
  -28.0746  -31.8436   26.5378 H   0  0  0  0  0  0
  -28.2596  -38.0107   24.7518 H   0  0  0  0  0  0
  -28.1077  -36.2639   24.6275 H   0  0  0  0  0  0
  -27.2306  -37.1444   25.8870 H   0  0  0  0  0  0
  -20.9330  -29.8762   21.6943 H   0  0  0  0  0  0
  -26.0181  -38.2867   24.1404 H   0  0  0  0  0  0
  -32.8467  -20.4953   24.2386 H   0  0  0  0  0  0
  -31.6962  -19.1612   24.3425 H   0  0  0  0  0  0
  -31.4193  -20.6270   25.2764 H   0  0  0  0  0  0
  -30.8588  -24.4899   25.6910 H   0  0  0  0  0  0
  -30.0481  -22.9287   25.6264 H   0  0  0  0  0  0
  -29.5611  -24.2197   24.5302 H   0  0  0  0  0  0
  -31.8231  -24.1191   23.4195 H   0  0  0  0  0  0
  -32.3108  -22.8468   24.4943 H   0  0  0  0  0  0
  -28.5622  -19.8231   19.5969 H   0  0  0  0  0  0
  -28.0493  -19.1343   21.0974 H   0  0  0  0  0  0
  -27.5683  -22.4899   20.4494 H   0  0  0  0  0  0
  -28.6744  -22.0323   19.1904 H   0  0  0  0  0  0
  -30.5320  -18.2633   19.4895 H   0  0  0  0  0  0
  -28.9788  -17.5003   19.4567 H   0  0  0  0  0  0
  -28.4855  -24.2668   18.7365 H   0  0  0  0  0  0
  -29.9604  -24.2822   19.6434 H   0  0  0  0  0  0
  -29.5680  -17.2656   22.1522 H   0  0  0  0  0  0
  -31.1616  -17.1591   21.4724 H   0  0  0  0  0  0
  -28.6930  -25.1953   21.6150 H   0  0  0  0  0  0
  -27.1885  -24.9629   20.8036 H   0  0  0  0  0  0
  -28.8994  -15.2725   21.2244 H   0  0  0  0  0  0
  1 25  1  0  0  0
  1 30  2  0  0  0
  1 86  1  0  0  0
  2  3  1  0  0  0
  2 25  1  0  0  0
  2 87  1  0  0  0
  2 88  1  0  0  0
  3  4  1  0  0  0
  3 89  1  0  0  0
  3 90  1  0  0  0
  4  5  1  0  0  0
  4 91  1  0  0  0
  4 92  1  0  0  0
  5  6  1  0  0  0
  5 26  1  0  0  0
  5 93  1  0  0  0
  6 25  1  0  0  0
  6 94  1  0  0  0
  6 95  1  0  0  0
  7  8  2  0  0  0
  7 26  1  0  0  0
  7 29  1  0  0  0
  8  9  1  0  0  0
  8 22  1  0  0  0
  9 10  1  0  0  0
  9 27  2  0  0  0
 10 11  2  0  0  0
 10 15  1  0  0  0
 11 12  1  0  0  0
 11 96  1  0  0  0
 12 13  2  0  0  0
 12 97  1  0  0  0
 13 14  1  0  0  0
 13 31  1  0  0  0
 14 15  2  0  0  0
 14 98  1  0  0  0
 15 99  1  0  0  0
 16 17  2  0  0  0
 16 21  1  0  0  0
 16 31  1  0  0  0
 17 18  1  0  0  0
 17100  1  0  0  0
 18 19  2  0  0  0
 18101  1  0  0  0
 19 20  1  0  0  0
 19 24  1  0  0  0
 20 21  2  0  0  0
 20102  1  0  0  0
 21 23  1  0  0  0
 22 28  1  0  0  0
 22 32  2  0  0  0
 26 27  1  0  0  0
 28103  1  0  0  0
 28104  1  0  0  0
 29105  1  0  0  0
 29106  1  0  0  0
 33 34  1  0  0  0
 33 66  1  0  0  0
 33 70  2  0  0  0
 34 36  1  0  0  0
 34 59  1  0  0  0
 34107  1  0  0  0
 35 44  2  0  0  0
 35 45  1  0  0  0
 35 68  1  0  0  0
 36 56  1  0  0  0
 36108  1  0  0  0
 37 39  1  0  0  0
 37 47  1  0  0  0
 37 66  1  0  0  0
 37109  1  0  0  0
 38 43  2  0  0  0
 38 46  1  0  0  0
 38 47  1  0  0  0
 39 64  1  0  0  0
 39 67  2  0  0  0
 40 52  1  0  0  0
 40 53  2  0  0  0
 40 58  1  0  0  0
 41110  1  0  0  0
 41111  1  0  0  0
 41112  1  0  0  0
 41 48  1  0  0  0
 42 43  1  0  0  0
 42 66  1  0  0  0
 42113  1  0  0  0
 42114  1  0  0  0
 43 44  1  0  0  0
 44115  1  0  0  0
 45 46  2  0  0  0
 45116  1  0  0  0
 46117  1  0  0  0
 47118  1  0  0  0
 47119  1  0  0  0
 48 56  1  0  0  0
 48 65  1  0  0  0
 48120  1  0  0  0
 49 50  1  0  0  0
 49 53  1  0  0  0
 49 64  1  0  0  0
 49121  1  0  0  0
 50 51  1  0  0  0
 50122  1  0  0  0
 50123  1  0  0  0
 51 52  1  0  0  0
 51124  1  0  0  0
 51125  1  0  0  0
 52126  1  0  0  0
 52127  1  0  0  0
 53 54  1  0  0  0
 54 55  2  0  0  0
 54128  1  0  0  0
 55 57  1  0  0  0
 55129  1  0  0  0
 56 69  2  0  0  0
 57 58  2  0  0  0
 57130  1  0  0  0
 58131  1  0  0  0
 59 60  1  0  0  0
 59 61  1  0  0  0
 59 62  1  0  0  0
 60132  1  0  0  0
 60133  1  0  0  0
 60134  1  0  0  0
 61135  1  0  0  0
 61136  1  0  0  0
 61137  1  0  0  0
 62138  1  0  0  0
 62139  1  0  0  0
 62140  1  0  0  0
 63 65  1  0  0  0
 63141  1  0  0  0
 63142  1  0  0  0
 63143  1  0  0  0
 64144  1  0  0  0
 65145  1  0  0  0
 68 83  1  0  0  0
 71 72  2  0  0  0
 71 75  1  0  0  0
 71 84  1  0  0  0
 72 77  1  0  0  0
 72 85  1  0  0  0
 73 74  1  0  0  0
 73 78  1  0  0  0
 73 84  2  0  0  0
 74 79  1  0  0  0
 74 85  2  0  0  0
 75146  1  0  0  0
 75147  1  0  0  0
 75148  1  0  0  0
 76 77  1  0  0  0
 76149  1  0  0  0
 76150  1  0  0  0
 76151  1  0  0  0
 77152  1  0  0  0
 77153  1  0  0  0
 78 80  1  0  0  0
 78154  1  0  0  0
 78155  1  0  0  0
 79 81  1  0  0  0
 79156  1  0  0  0
 79157  1  0  0  0
 80 82  1  0  0  0
 80158  1  0  0  0
 80159  1  0  0  0
 81 83  1  0  0  0
 81160  1  0  0  0
 81161  1  0  0  0
 82 86  1  0  0  0
 82162  1  0  0  0
 82163  1  0  0  0
 83164  1  0  0  0
 83165  1  0  0  0
 86166  1  0  0  0
M  ISO  4   1 100  68 101  83 101  86 100
M  END
> <chiral flag>
0

> <version>
0

> <s_m_source_file>
/data/baiqing/PycharmProjects/Reinvent-master-3.2/result/LINK_invent/BTK/process_docking_weight1_custom_sum_contain_oxygen_bond_distance_aromatic_linkinvent_7_9_3/rearranged_h_0041.sdf

> <i_m_source_file_index>
52

> <r_mmod_Potential_Energy-OPLS-2005>
-2.11190295219421

> <r_mmod_Stretch_Energy-OPLS-2005>
60.4308013916016

> <r_mmod_Bend_Energy-OPLS-2005>
131.767288208008

> <r_mmod_Torsional_Energy-OPLS-2005>
225.524322509766

> <r_mmod_Improper_Torsional_Energy-OPLS-2005>
5.00897359848022

> <r_mmod_Van_der_Waal_Energy-OPLS-2005>
145.605728149414

> <r_mmod_Electrostatic_Energy-OPLS-2005>
-375.507080078125

> <r_mmod_Solvation_Energy-OPLS-2005>
-222.077239990234

> <b_mmod_Minimization_Converged-OPLS-2005>
0

> <r_mmod_RMS_Derivative-OPLS-2005>
1.31511616706848

$$$$
52
                    3D
 Structure written by MMmdl.
160168  0  0  1  0            999 V2000
  -30.6979  -14.4832   20.5949 C   0  0  0  0  0  0
  -30.4244  -12.3279   19.4117 C   0  0  0  0  0  0
  -29.4901  -12.5099   18.1984 C   0  0  0  0  0  0
  -28.0131  -12.3624   18.6157 C   0  0  0  0  0  0
  -27.6577  -13.2065   19.8687 C   0  0  2  0  0  0
  -28.6996  -12.9919   20.9871 C   0  0  0  0  0  0
  -25.2577  -13.8159   20.5671 C   0  0  0  0  0  0
  -24.1829  -13.0438   20.9179 C   0  0  0  0  0  0
  -24.6381  -11.6905   20.8727 C   0  0  0  0  0  0
  -23.9050  -10.4294   21.0400 C   0  0  0  0  0  0
  -24.3608   -9.4211   21.9178 C   0  0  0  0  0  0
  -23.6288   -8.2243   22.0748 C   0  0  0  0  0  0
  -22.4269   -8.0280   21.3540 C   0  0  0  0  0  0
  -21.9902   -9.0249   20.4641 C   0  0  0  0  0  0
  -22.7224  -10.2134   20.3049 C   0  0  0  0  0  0
  -21.6854   -6.0735   22.5280 C   0  0  0  0  0  0
  -21.4013   -6.5640   23.8213 C   0  0  0  0  0  0
  -21.3659   -5.6793   24.9174 C   0  0  0  0  0  0
  -21.6044   -4.3054   24.7226 C   0  0  0  0  0  0
  -21.8821   -3.8147   23.4346 C   0  0  0  0  0  0
  -21.9192   -4.6963   22.3400 C   0  0  0  0  0  0
  -22.7857  -13.5239   21.1851 C   0  0  0  0  0  0
  -22.1663   -4.2150   21.0978 F   0  0  0  0  0  0
  -21.5628   -3.4538   25.7738 F   0  0  0  0  0  0
  -30.0254  -13.3110   20.4307 N   0  0  0  0  0  0
  -26.2999  -12.9325   20.3333 N   0  0  0  0  0  0
  -25.9304  -11.6484   20.5741 N   0  0  0  0  0  0
  -22.0497  -12.8224   22.0409 N   0  0  0  0  0  0
  -25.4312  -15.1873   20.4088 N   0  0  0  0  0  0
  -31.8244  -14.6796   20.1308 O   0  0  0  0  0  0
  -21.6636   -6.8875   21.4240 O   0  0  0  0  0  0
  -22.3548  -14.5551   20.6715 O   0  0  0  0  0  0
  -24.6158  -31.8688   23.2087 C   0  0  0  0  0  0
  -25.9047  -32.4825   23.8393 C   0  0  1  0  0  0
  -27.2326  -27.4141   20.1004 C   0  0  0  0  0  0
  -25.5900  -33.8628   24.2330 N   0  0  0  0  0  0
  -23.4043  -30.4893   21.5517 C   0  0  2  0  0  0
  -24.8497  -28.9511   20.1219 C   0  0  0  0  0  0
  -22.7415  -29.4646   22.5006 C   0  0  0  0  0  0
  -18.0269  -28.1362   22.8490 C   0  0  0  0  0  0
  -24.1490  -36.7306   23.2637 C   0  0  0  0  0  0
  -25.9348  -30.8267   21.3660 C   0  0  0  0  0  0
  -26.0123  -29.4581   20.7153 C   0  0  0  0  0  0
  -27.2076  -28.6989   20.6976 C   0  0  0  0  0  0
  -26.0522  -26.9302   19.4970 C   0  0  0  0  0  0
  -24.8654  -27.6870   19.5088 C   0  0  0  0  0  0
  -23.6131  -29.8200   20.1680 C   0  0  0  0  0  0
  -25.4112  -36.3120   24.0339 C   0  0  1  0  0  0
  -20.5856  -28.3657   23.1316 C   0  0  2  0  0  0
  -20.6762  -26.9397   22.5414 C   0  0  0  0  0  0
  -19.5745  -26.6381   21.5203 C   0  0  0  0  0  0
  -18.1918  -26.7908   22.1615 C   0  0  0  0  0  0
  -19.1516  -28.8828   23.2896 C   0  0  0  0  0  0
  -18.9454  -30.1432   23.8908 C   0  0  0  0  0  0
  -17.6458  -30.6580   24.0553 C   0  0  0  0  0  0
  -25.9033  -34.9484   23.5133 C   0  0  0  0  0  0
  -16.5347  -29.9080   23.6323 C   0  0  0  0  0  0
  -16.7257  -28.6491   23.0350 C   0  0  0  0  0  0
  -26.4480  -31.6597   25.0719 C   0  0  0  0  0  0
  -25.3732  -31.3701   26.1458 C   0  0  0  0  0  0
  -27.0320  -30.3040   24.6091 C   0  0  0  0  0  0
  -27.6060  -32.4321   25.7478 C   0  0  0  0  0  0
  -27.5592  -37.1804   24.8469 C   0  0  0  0  0  0
  -21.4145  -29.3026   22.3739 N   0  0  0  0  0  0
  -26.4311  -37.3794   23.9402 N   0  0  0  0  0  0
  -24.6697  -31.0762   22.1002 N   0  0  0  0  0  0
  -23.4182  -28.8198   23.3066 O   0  0  0  0  0  0
  -28.4095  -26.6906   20.0547 O   0  0  0  0  0  0
  -26.5606  -34.8944   22.4699 O   0  0  0  0  0  0
  -23.5346  -32.1465   23.7461 O   0  0  0  0  0  0
  -29.5435  -20.7936   19.3700 C   0  0  0  0  0  0
  -27.8337  -22.0625   21.0443 C   0  0  0  0  0  0
  -28.9090  -20.0871   20.4295 C   0  0  0  0  0  0
  -28.4501  -22.7632   19.9709 C   0  0  0  0  0  0
  -30.4744  -20.1177   18.3839 C   0  0  0  0  0  0
  -26.8272  -22.7114   21.9755 C   0  0  0  0  0  0
  -29.0220  -18.5615   20.6506 C   0  0  0  0  0  0
  -28.0861  -24.2073   19.5668 C   0  0  0  0  0  0
  -30.4490  -17.9912   20.8682 C   0  0  0  0  0  0
  -30.5746  -16.7206   21.7608 C   0  0  0  0  0  0
  -28.4203  -25.3415   20.5787 C   0  0  0  0  0  0
  -28.0791  -20.7460   21.2786 N   0  0  0  0  0  0
  -29.3278  -22.1199   19.1577 N   0  0  0  0  0  0
  -30.0204  -15.4617   21.2294 N   0  0  0  0  0  0
  -31.4658  -12.4422   19.1056 H   0  0  0  0  0  0
  -30.3411  -11.3168   19.8127 H   0  0  0  0  0  0
  -29.7330  -11.7820   17.4229 H   0  0  0  0  0  0
  -29.6493  -13.4940   17.7545 H   0  0  0  0  0  0
  -27.8310  -11.3065   18.8178 H   0  0  0  0  0  0
  -27.3588  -12.6277   17.7844 H   0  0  0  0  0  0
  -27.7004  -14.2536   19.5681 H   0  0  0  0  0  0
  -28.6837  -11.9547   21.3247 H   0  0  0  0  0  0
  -28.4534  -13.5852   21.8685 H   0  0  0  0  0  0
  -25.2755   -9.5692   22.4750 H   0  0  0  0  0  0
  -24.0004   -7.4634   22.7464 H   0  0  0  0  0  0
  -21.0837   -8.8763   19.8942 H   0  0  0  0  0  0
  -22.3681  -10.9669   19.6158 H   0  0  0  0  0  0
  -21.2007   -7.6150   23.9717 H   0  0  0  0  0  0
  -21.1480   -6.0522   25.9078 H   0  0  0  0  0  0
  -22.0600   -2.7610   23.2845 H   0  0  0  0  0  0
  -22.4115  -11.9881   22.4786 H   0  0  0  0  0  0
  -21.1113  -13.1246   22.2614 H   0  0  0  0  0  0
  -24.6667  -15.8448   20.5167 H   0  0  0  0  0  0
  -26.2864  -15.6232   20.0881 H   0  0  0  0  0  0
  -26.7113  -32.5544   23.1154 H   0  0  0  0  0  0
  -25.0061  -33.9793   25.0484 H   0  0  0  0  0  0
  -22.6920  -31.3052   21.4115 H   0  0  0  0  0  0
  -23.3765  -35.9628   23.3326 H   0  0  0  0  0  0
  -24.3582  -36.8896   22.2048 H   0  0  0  0  0  0
  -23.7240  -37.6512   23.6640 H   0  0  0  0  0  0
  -26.0466  -31.5930   20.5979 H   0  0  0  0  0  0
  -26.8208  -30.8808   21.9866 H   0  0  0  0  0  0
  -28.1098  -29.0927   21.1453 H   0  0  0  0  0  0
  -26.0359  -25.9855   18.9812 H   0  0  0  0  0  0
  -23.9751  -27.2968   19.0347 H   0  0  0  0  0  0
  -23.7229  -30.5939   19.4073 H   0  0  0  0  0  0
  -22.7371  -29.2389   19.8735 H   0  0  0  0  0  0
  -25.1286  -36.1994   25.0832 H   0  0  0  0  0  0
  -20.9928  -28.3236   24.1440 H   0  0  0  0  0  0
  -20.5663  -26.2267   23.3602 H   0  0  0  0  0  0
  -21.6634  -26.7449   22.1203 H   0  0  0  0  0  0
  -19.6920  -25.6295   21.1229 H   0  0  0  0  0  0
  -19.6684  -27.3198   20.6740 H   0  0  0  0  0  0
  -17.4184  -26.6652   21.4017 H   0  0  0  0  0  0
  -18.0322  -26.0038   22.9001 H   0  0  0  0  0  0
  -19.7939  -30.7225   24.2290 H   0  0  0  0  0  0
  -17.5025  -31.6262   24.5156 H   0  0  0  0  0  0
  -15.5348  -30.2988   23.7645 H   0  0  0  0  0  0
  -15.8651  -28.0816   22.7064 H   0  0  0  0  0  0
  -24.5903  -30.7059   25.7781 H   0  0  0  0  0  0
  -24.8919  -32.2852   26.4917 H   0  0  0  0  0  0
  -25.8068  -30.8858   27.0212 H   0  0  0  0  0  0
  -26.2871  -29.6783   24.1163 H   0  0  0  0  0  0
  -27.4113  -29.7296   25.4549 H   0  0  0  0  0  0
  -27.8693  -30.4358   23.9235 H   0  0  0  0  0  0
  -27.2683  -33.3618   26.2078 H   0  0  0  0  0  0
  -28.3853  -32.6886   25.0286 H   0  0  0  0  0  0
  -28.0744  -31.8424   26.5371 H   0  0  0  0  0  0
  -28.2612  -38.0104   24.7522 H   0  0  0  0  0  0
  -28.1093  -36.2631   24.6294 H   0  0  0  0  0  0
  -27.2301  -37.1441   25.8873 H   0  0  0  0  0  0
  -20.9315  -29.8764   21.6965 H   0  0  0  0  0  0
  -26.0217  -38.2879   24.1395 H   0  0  0  0  0  0
  -30.0556  -19.1733   18.0378 H   0  0  0  0  0  0
  -31.4396  -19.9225   18.8511 H   0  0  0  0  0  0
  -30.6479  -20.7423   17.5069 H   0  0  0  0  0  0
  -27.3393  -23.3230   22.7181 H   0  0  0  0  0  0
  -26.2409  -21.9627   22.5099 H   0  0  0  0  0  0
  -26.1308  -23.3422   21.4239 H   0  0  0  0  0  0
  -28.5511  -18.0512   19.8100 H   0  0  0  0  0  0
  -28.4134  -18.3071   21.5190 H   0  0  0  0  0  0
  -27.0222  -24.1948   19.3473 H   0  0  0  0  0  0
  -28.5788  -24.4367   18.6215 H   0  0  0  0  0  0
  -31.0340  -18.7678   21.3615 H   0  0  0  0  0  0
  -30.9407  -17.8215   19.9110 H   0  0  0  0  0  0
  -30.0967  -16.9113   22.7224 H   0  0  0  0  0  0
  -31.6296  -16.5657   21.9962 H   0  0  0  0  0  0
  -29.4370  -25.1763   20.9368 H   0  0  0  0  0  0
  -27.7828  -25.2817   21.4606 H   0  0  0  0  0  0
  -29.0824  -15.2254   21.5181 H   0  0  0  0  0  0
  1 25  1  0  0  0
  1 30  2  0  0  0
  1 84  1  0  0  0
  2  3  1  0  0  0
  2 25  1  0  0  0
  2 85  1  0  0  0
  2 86  1  0  0  0
  3  4  1  0  0  0
  3 87  1  0  0  0
  3 88  1  0  0  0
  4  5  1  0  0  0
  4 89  1  0  0  0
  4 90  1  0  0  0
  5  6  1  0  0  0
  5 26  1  0  0  0
  5 91  1  0  0  0
  6 25  1  0  0  0
  6 92  1  0  0  0
  6 93  1  0  0  0
  7  8  2  0  0  0
  7 26  1  0  0  0
  7 29  1  0  0  0
  8  9  1  0  0  0
  8 22  1  0  0  0
  9 10  1  0  0  0
  9 27  2  0  0  0
 10 11  2  0  0  0
 10 15  1  0  0  0
 11 12  1  0  0  0
 11 94  1  0  0  0
 12 13  2  0  0  0
 12 95  1  0  0  0
 13 14  1  0  0  0
 13 31  1  0  0  0
 14 15  2  0  0  0
 14 96  1  0  0  0
 15 97  1  0  0  0
 16 17  2  0  0  0
 16 21  1  0  0  0
 16 31  1  0  0  0
 17 18  1  0  0  0
 17 98  1  0  0  0
 18 19  2  0  0  0
 18 99  1  0  0  0
 19 20  1  0  0  0
 19 24  1  0  0  0
 20 21  2  0  0  0
 20100  1  0  0  0
 21 23  1  0  0  0
 22 28  1  0  0  0
 22 32  2  0  0  0
 26 27  1  0  0  0
 28101  1  0  0  0
 28102  1  0  0  0
 29103  1  0  0  0
 29104  1  0  0  0
 33 34  1  0  0  0
 33 66  1  0  0  0
 33 70  2  0  0  0
 34 36  1  0  0  0
 34 59  1  0  0  0
 34105  1  0  0  0
 35 44  2  0  0  0
 35 45  1  0  0  0
 35 68  1  0  0  0
 36 56  1  0  0  0
 36106  1  0  0  0
 37 39  1  0  0  0
 37 47  1  0  0  0
 37 66  1  0  0  0
 37107  1  0  0  0
 38 43  2  0  0  0
 38 46  1  0  0  0
 38 47  1  0  0  0
 39 64  1  0  0  0
 39 67  2  0  0  0
 40 52  1  0  0  0
 40 53  2  0  0  0
 40 58  1  0  0  0
 41108  1  0  0  0
 41109  1  0  0  0
 41110  1  0  0  0
 41 48  1  0  0  0
 42 43  1  0  0  0
 42 66  1  0  0  0
 42111  1  0  0  0
 42112  1  0  0  0
 43 44  1  0  0  0
 44113  1  0  0  0
 45 46  2  0  0  0
 45114  1  0  0  0
 46115  1  0  0  0
 47116  1  0  0  0
 47117  1  0  0  0
 48 56  1  0  0  0
 48 65  1  0  0  0
 48118  1  0  0  0
 49 50  1  0  0  0
 49 53  1  0  0  0
 49 64  1  0  0  0
 49119  1  0  0  0
 50 51  1  0  0  0
 50120  1  0  0  0
 50121  1  0  0  0
 51 52  1  0  0  0
 51122  1  0  0  0
 51123  1  0  0  0
 52124  1  0  0  0
 52125  1  0  0  0
 53 54  1  0  0  0
 54 55  2  0  0  0
 54126  1  0  0  0
 55 57  1  0  0  0
 55127  1  0  0  0
 56 69  2  0  0  0
 57 58  2  0  0  0
 57128  1  0  0  0
 58129  1  0  0  0
 59 60  1  0  0  0
 59 61  1  0  0  0
 59 62  1  0  0  0
 60130  1  0  0  0
 60131  1  0  0  0
 60132  1  0  0  0
 61133  1  0  0  0
 61134  1  0  0  0
 61135  1  0  0  0
 62136  1  0  0  0
 62137  1  0  0  0
 62138  1  0  0  0
 63 65  1  0  0  0
 63139  1  0  0  0
 63140  1  0  0  0
 63141  1  0  0  0
 64142  1  0  0  0
 65143  1  0  0  0
 68 81  1  0  0  0
 71 73  2  0  0  0
 71 75  1  0  0  0
 71 83  1  0  0  0
 72 74  1  0  0  0
 72 76  1  0  0  0
 72 82  2  0  0  0
 73 77  1  0  0  0
 73 82  1  0  0  0
 74 78  1  0  0  0
 74 83  2  0  0  0
 75144  1  0  0  0
 75145  1  0  0  0
 75146  1  0  0  0
 76147  1  0  0  0
 76148  1  0  0  0
 76149  1  0  0  0
 77 79  1  0  0  0
 77150  1  0  0  0
 77151  1  0  0  0
 78 81  1  0  0  0
 78152  1  0  0  0
 78153  1  0  0  0
 79 80  1  0  0  0
 79154  1  0  0  0
 79155  1  0  0  0
 80 84  1  0  0  0
 80156  1  0  0  0
 80157  1  0  0  0
 81158  1  0  0  0
 81159  1  0  0  0
 84160  1  0  0  0
M  ISO  4   1 100  68 101  81 101  84 100
M  END
> <chiral flag>
0

> <version>
0

> <s_m_source_file>
/data/baiqing/PycharmProjects/Reinvent-master-3.2/result/LINK_invent/BTK/process_docking_weight1_custom_sum_contain_oxygen_bond_distance_aromatic_linkinvent_7_9_3/rearranged_h_0041.sdf

> <i_m_source_file_index>
53

> <r_mmod_Potential_Energy-OPLS-2005>
-51.7948112487793

> <r_mmod_Stretch_Energy-OPLS-2005>
44.2139167785645

> <r_mmod_Bend_Energy-OPLS-2005>
112.529190063477

> <r_mmod_Torsional_Energy-OPLS-2005>
217.24626159668

> <r_mmod_Improper_Torsional_Energy-OPLS-2005>
3.1684627532959

> <r_mmod_Van_der_Waal_Energy-OPLS-2005>
150.443984985352

> <r_mmod_Electrostatic_Energy-OPLS-2005>
-370.294189453125

> <r_mmod_Solvation_Energy-OPLS-2005>
-222.69416809082

> <b_mmod_Minimization_Converged-OPLS-2005>
0

> <r_mmod_RMS_Derivative-OPLS-2005>
1.25639081001282

$$$$
53
                    3D
 Structure written by MMmdl.
155163  0  0  1  0            999 V2000
  -30.5920  -14.8647   20.4319 C   0  0  0  0  0  0
  -30.4379  -12.5370   19.4981 C   0  0  0  0  0  0
  -29.5249  -12.5172   18.2530 C   0  0  0  0  0  0
  -28.0493  -12.3300   18.6573 C   0  0  0  0  0  0
  -27.6310  -13.2498   19.8360 C   0  0  2  0  0  0
  -28.6707  -13.2556   20.9759 C   0  0  0  0  0  0
  -25.2444  -13.8229   20.5683 C   0  0  0  0  0  0
  -24.1764  -13.0462   20.9230 C   0  0  0  0  0  0
  -24.6383  -11.6941   20.8761 C   0  0  0  0  0  0
  -23.9081  -10.4311   21.0424 C   0  0  0  0  0  0
  -24.3628   -9.4222   21.9203 C   0  0  0  0  0  0
  -23.6299   -8.2256   22.0761 C   0  0  0  0  0  0
  -22.4284   -8.0290   21.3549 C   0  0  0  0  0  0
  -21.9932   -9.0276   20.4661 C   0  0  0  0  0  0
  -22.7255  -10.2153   20.3074 C   0  0  0  0  0  0
  -21.6851   -6.0738   22.5284 C   0  0  0  0  0  0
  -21.4006   -6.5638   23.8220 C   0  0  0  0  0  0
  -21.3663   -5.6795   24.9184 C   0  0  0  0  0  0
  -21.6048   -4.3062   24.7242 C   0  0  0  0  0  0
  -21.8803   -3.8145   23.4367 C   0  0  0  0  0  0
  -21.9193   -4.6961   22.3417 C   0  0  0  0  0  0
  -22.7777  -13.5240   21.1877 C   0  0  0  0  0  0
  -22.1653   -4.2139   21.0995 F   0  0  0  0  0  0
  -21.5642   -3.4543   25.7757 F   0  0  0  0  0  0
  -29.9589  -13.6317   20.3839 N   0  0  0  0  0  0
  -26.2872  -12.9471   20.3195 N   0  0  0  0  0  0
  -25.9314  -11.6599   20.5719 N   0  0  0  0  0  0
  -22.0383  -12.8273   22.0425 N   0  0  0  0  0  0
  -25.4136  -15.1964   20.4094 N   0  0  0  0  0  0
  -31.7959  -14.9036   20.1658 O   0  0  0  0  0  0
  -21.6640   -6.8881   21.4248 O   0  0  0  0  0  0
  -22.3481  -14.5535   20.6682 O   0  0  0  0  0  0
  -24.6430  -31.8475   23.1856 C   0  0  0  0  0  0
  -25.9229  -32.4694   23.8234 C   0  0  1  0  0  0
  -27.2110  -27.1759   20.1431 C   0  0  0  0  0  0
  -25.5993  -33.8491   24.2172 N   0  0  0  0  0  0
  -23.4425  -30.4701   21.5290 C   0  0  2  0  0  0
  -24.8868  -28.9002   20.1035 C   0  0  0  0  0  0
  -22.7557  -29.4621   22.4834 C   0  0  0  0  0  0
  -18.0326  -28.1422   22.8523 C   0  0  0  0  0  0
  -24.1499  -36.7237   23.2642 C   0  0  0  0  0  0
  -25.9933  -30.7319   21.3773 C   0  0  0  0  0  0
  -26.0608  -29.3471   20.7221 C   0  0  0  0  0  0
  -27.2237  -28.4974   20.7287 C   0  0  0  0  0  0
  -26.0194  -26.8251   19.4725 C   0  0  0  0  0  0
  -24.8771  -27.6526   19.4630 C   0  0  0  0  0  0
  -23.6616  -29.7970   20.1486 C   0  0  0  0  0  0
  -25.4130  -36.3016   24.0323 C   0  0  1  0  0  0
  -20.5937  -28.3765   23.1233 C   0  0  2  0  0  0
  -20.6807  -26.9473   22.5395 C   0  0  0  0  0  0
  -19.5761  -26.6420   21.5227 C   0  0  0  0  0  0
  -18.1949  -26.7973   22.1645 C   0  0  0  0  0  0
  -19.1581  -28.8912   23.2879 C   0  0  0  0  0  0
  -18.9490  -30.1502   23.8915 C   0  0  0  0  0  0
  -17.6480  -30.6618   24.0588 C   0  0  0  0  0  0
  -25.9081  -34.9407   23.5051 C   0  0  0  0  0  0
  -16.5375  -29.9115   23.6343 C   0  0  0  0  0  0
  -16.7305  -28.6521   23.0391 C   0  0  0  0  0  0
  -26.4556  -31.6554   25.0671 C   0  0  0  0  0  0
  -25.3754  -31.3765   26.1383 C   0  0  0  0  0  0
  -27.0412  -30.2948   24.6240 C   0  0  0  0  0  0
  -27.6064  -32.4345   25.7467 C   0  0  0  0  0  0
  -27.5570  -37.1779   24.8484 C   0  0  0  0  0  0
  -21.4250  -29.3080   22.3578 N   0  0  0  0  0  0
  -26.4289  -37.3732   23.9415 N   0  0  0  0  0  0
  -24.7122  -31.0394   22.0844 N   0  0  0  0  0  0
  -23.4210  -28.8189   23.3004 O   0  0  0  0  0  0
  -28.2783  -26.2241   20.2406 O   0  0  0  0  0  0
  -26.5645  -34.8917   22.4611 O   0  0  0  0  0  0
  -23.5569  -32.1333   23.7106 O   0  0  0  0  0  0
  -30.0567  -21.4285   19.4840 C   0  0  0  0  0  0
  -28.7866  -19.5948   21.0380 C   0  0  0  0  0  0
  -30.4268  -20.0398   19.3946 C   0  0  0  0  0  0
  -29.8184  -19.0167   20.2197 C   0  0  0  0  0  0
  -29.0711  -21.9260   20.3736 C   0  0  0  0  0  0
  -32.9394  -19.6235   19.1227 C   0  0  0  0  0  0
  -31.5714  -19.7332   18.4249 C   0  0  0  0  0  0
  -30.4644  -17.4961   20.3092 C   0  0  0  0  0  0
  -28.9423  -23.5212   20.7395 C   0  0  0  0  0  0
  -28.0998  -24.7159   19.9567 C   0  0  0  0  0  0
  -28.4436  -20.9480   21.1142 N   0  0  0  0  0  0
  -29.8692  -16.0739   20.5410 N   0  0  0  0  0  0
  -31.4735  -12.6853   19.1873 H   0  0  0  0  0  0
  -30.4204  -11.5822   20.0238 H   0  0  0  0  0  0
  -29.8364  -11.7255   17.5696 H   0  0  0  0  0  0
  -29.6361  -13.4542   17.7060 H   0  0  0  0  0  0
  -27.9144  -11.2843   18.9342 H   0  0  0  0  0  0
  -27.4014  -12.5004   17.7966 H   0  0  0  0  0  0
  -27.6032  -14.2576   19.4208 H   0  0  0  0  0  0
  -28.7290  -12.2781   21.4581 H   0  0  0  0  0  0
  -28.3834  -13.9711   21.7495 H   0  0  0  0  0  0
  -25.2775   -9.5688   22.4783 H   0  0  0  0  0  0
  -24.0003   -7.4647   22.7480 H   0  0  0  0  0  0
  -21.0862   -8.8810   19.8980 H   0  0  0  0  0  0
  -22.3728  -10.9693   19.6182 H   0  0  0  0  0  0
  -21.1974   -7.6143   23.9715 H   0  0  0  0  0  0
  -21.1501   -6.0532   25.9087 H   0  0  0  0  0  0
  -22.0576   -2.7602   23.2877 H   0  0  0  0  0  0
  -22.3971  -12.0000   22.4941 H   0  0  0  0  0  0
  -21.0973  -13.1298   22.2506 H   0  0  0  0  0  0
  -24.6461  -15.8508   20.5224 H   0  0  0  0  0  0
  -26.2515  -15.6331   20.0474 H   0  0  0  0  0  0
  -26.7300  -32.5309   23.0961 H   0  0  0  0  0  0
  -25.0211  -33.9593   25.0376 H   0  0  0  0  0  0
  -22.7469  -31.2969   21.3746 H   0  0  0  0  0  0
  -23.3760  -35.9570   23.3317 H   0  0  0  0  0  0
  -24.3572  -36.8839   22.2047 H   0  0  0  0  0  0
  -23.7255  -37.6448   23.6652 H   0  0  0  0  0  0
  -26.1519  -31.4852   20.6042 H   0  0  0  0  0  0
  -26.8655  -30.7734   22.0186 H   0  0  0  0  0  0
  -28.1162  -28.8358   21.2347 H   0  0  0  0  0  0
  -25.9358  -25.8793   18.9599 H   0  0  0  0  0  0
  -23.9825  -27.3108   18.9603 H   0  0  0  0  0  0
  -23.7870  -30.5662   19.3862 H   0  0  0  0  0  0
  -22.7785  -29.2315   19.8457 H   0  0  0  0  0  0
  -25.1314  -36.1830   25.0813 H   0  0  0  0  0  0
  -21.0071  -28.3364   24.1337 H   0  0  0  0  0  0
  -20.5753  -26.2386   23.3620 H   0  0  0  0  0  0
  -21.6663  -26.7499   22.1156 H   0  0  0  0  0  0
  -19.6913  -25.6333   21.1253 H   0  0  0  0  0  0
  -19.6664  -27.3255   20.6771 H   0  0  0  0  0  0
  -17.4219  -26.6794   21.4032 H   0  0  0  0  0  0
  -18.0298  -26.0097   22.9014 H   0  0  0  0  0  0
  -19.7956  -30.7330   24.2283 H   0  0  0  0  0  0
  -17.5026  -31.6296   24.5199 H   0  0  0  0  0  0
  -15.5377  -30.3016   23.7654 H   0  0  0  0  0  0
  -15.8706  -28.0821   22.7115 H   0  0  0  0  0  0
  -24.5938  -30.7095   25.7732 H   0  0  0  0  0  0
  -24.8964  -32.2971   26.4723 H   0  0  0  0  0  0
  -25.8069  -30.9009   27.0202 H   0  0  0  0  0  0
  -26.3013  -29.6672   24.1261 H   0  0  0  0  0  0
  -27.4055  -29.7233   25.4789 H   0  0  0  0  0  0
  -27.8910  -30.4180   23.9518 H   0  0  0  0  0  0
  -27.2612  -33.3662   26.1963 H   0  0  0  0  0  0
  -28.3914  -32.6893   25.0330 H   0  0  0  0  0  0
  -28.0695  -31.8541   26.5459 H   0  0  0  0  0  0
  -28.2619  -38.0045   24.7483 H   0  0  0  0  0  0
  -28.1029  -36.2570   24.6366 H   0  0  0  0  0  0
  -27.2281  -37.1501   25.8889 H   0  0  0  0  0  0
  -20.9469  -29.8726   21.6695 H   0  0  0  0  0  0
  -26.0153  -38.2812   24.1372 H   0  0  0  0  0  0
  -30.6125  -22.1562   18.9065 H   0  0  0  0  0  0
  -28.2439  -18.9617   21.7254 H   0  0  0  0  0  0
  -33.7407  -19.4699   18.3987 H   0  0  0  0  0  0
  -32.9836  -18.8006   19.8355 H   0  0  0  0  0  0
  -33.1665  -20.5374   19.6712 H   0  0  0  0  0  0
  -31.6376  -20.5446   17.6965 H   0  0  0  0  0  0
  -31.3562  -18.8564   17.8122 H   0  0  0  0  0  0
  -31.2511  -17.5857   21.0615 H   0  0  0  0  0  0
  -31.0031  -17.3485   19.3757 H   0  0  0  0  0  0
  -29.9722  -23.8710   20.8053 H   0  0  0  0  0  0
  -28.5946  -23.5495   21.7731 H   0  0  0  0  0  0
  -27.0525  -24.4540   20.0992 H   0  0  0  0  0  0
  -28.2869  -24.6019   18.8884 H   0  0  0  0  0  0
  -28.8766  -15.9983   20.7048 H   0  0  0  0  0  0
  1 25  1  0  0  0
  1 30  2  0  0  0
  1 82  1  0  0  0
  2  3  1  0  0  0
  2 25  1  0  0  0
  2 83  1  0  0  0
  2 84  1  0  0  0
  3  4  1  0  0  0
  3 85  1  0  0  0
  3 86  1  0  0  0
  4  5  1  0  0  0
  4 87  1  0  0  0
  4 88  1  0  0  0
  5  6  1  0  0  0
  5 26  1  0  0  0
  5 89  1  0  0  0
  6 25  1  0  0  0
  6 90  1  0  0  0
  6 91  1  0  0  0
  7  8  2  0  0  0
  7 26  1  0  0  0
  7 29  1  0  0  0
  8  9  1  0  0  0
  8 22  1  0  0  0
  9 10  1  0  0  0
  9 27  2  0  0  0
 10 11  2  0  0  0
 10 15  1  0  0  0
 11 12  1  0  0  0
 11 92  1  0  0  0
 12 13  2  0  0  0
 12 93  1  0  0  0
 13 14  1  0  0  0
 13 31  1  0  0  0
 14 15  2  0  0  0
 14 94  1  0  0  0
 15 95  1  0  0  0
 16 17  2  0  0  0
 16 21  1  0  0  0
 16 31  1  0  0  0
 17 18  1  0  0  0
 17 96  1  0  0  0
 18 19  2  0  0  0
 18 97  1  0  0  0
 19 20  1  0  0  0
 19 24  1  0  0  0
 20 21  2  0  0  0
 20 98  1  0  0  0
 21 23  1  0  0  0
 22 28  1  0  0  0
 22 32  2  0  0  0
 26 27  1  0  0  0
 28 99  1  0  0  0
 28100  1  0  0  0
 29101  1  0  0  0
 29102  1  0  0  0
 33 34  1  0  0  0
 33 66  1  0  0  0
 33 70  2  0  0  0
 34 36  1  0  0  0
 34 59  1  0  0  0
 34103  1  0  0  0
 35 44  2  0  0  0
 35 45  1  0  0  0
 35 68  1  0  0  0
 36 56  1  0  0  0
 36104  1  0  0  0
 37 39  1  0  0  0
 37 47  1  0  0  0
 37 66  1  0  0  0
 37105  1  0  0  0
 38 43  2  0  0  0
 38 46  1  0  0  0
 38 47  1  0  0  0
 39 64  1  0  0  0
 39 67  2  0  0  0
 40 52  1  0  0  0
 40 53  2  0  0  0
 40 58  1  0  0  0
 41106  1  0  0  0
 41107  1  0  0  0
 41108  1  0  0  0
 41 48  1  0  0  0
 42 43  1  0  0  0
 42 66  1  0  0  0
 42109  1  0  0  0
 42110  1  0  0  0
 43 44  1  0  0  0
 44111  1  0  0  0
 45 46  2  0  0  0
 45112  1  0  0  0
 46113  1  0  0  0
 47114  1  0  0  0
 47115  1  0  0  0
 48 56  1  0  0  0
 48 65  1  0  0  0
 48116  1  0  0  0
 49 50  1  0  0  0
 49 53  1  0  0  0
 49 64  1  0  0  0
 49117  1  0  0  0
 50 51  1  0  0  0
 50118  1  0  0  0
 50119  1  0  0  0
 51 52  1  0  0  0
 51120  1  0  0  0
 51121  1  0  0  0
 52122  1  0  0  0
 52123  1  0  0  0
 53 54  1  0  0  0
 54 55  2  0  0  0
 54124  1  0  0  0
 55 57  1  0  0  0
 55125  1  0  0  0
 56 69  2  0  0  0
 57 58  2  0  0  0
 57126  1  0  0  0
 58127  1  0  0  0
 59 60  1  0  0  0
 59 61  1  0  0  0
 59 62  1  0  0  0
 60128  1  0  0  0
 60129  1  0  0  0
 60130  1  0  0  0
 61131  1  0  0  0
 61132  1  0  0  0
 61133  1  0  0  0
 62134  1  0  0  0
 62135  1  0  0  0
 62136  1  0  0  0
 63 65  1  0  0  0
 63137  1  0  0  0
 63138  1  0  0  0
 63139  1  0  0  0
 64140  1  0  0  0
 65141  1  0  0  0
 68 80  1  0  0  0
 71 73  2  0  0  0
 71 75  1  0  0  0
 71142  1  0  0  0
 72 74  2  0  0  0
 72 81  1  0  0  0
 72143  1  0  0  0
 73 74  1  0  0  0
 73 77  1  0  0  0
 74 78  1  0  0  0
 75 79  1  0  0  0
 75 81  2  0  0  0
 76 77  1  0  0  0
 76144  1  0  0  0
 76145  1  0  0  0
 76146  1  0  0  0
 77147  1  0  0  0
 77148  1  0  0  0
 78 82  1  0  0  0
 78149  1  0  0  0
 78150  1  0  0  0
 79 80  1  0  0  0
 79151  1  0  0  0
 79152  1  0  0  0
 80153  1  0  0  0
 80154  1  0  0  0
 82155  1  0  0  0
M  ISO  4   1 100  68 101  80 101  82 100
M  END
> <chiral flag>
0

> <version>
0

> <s_m_source_file>
/data/baiqing/PycharmProjects/Reinvent-master-3.2/result/LINK_invent/BTK/process_docking_weight1_custom_sum_contain_oxygen_bond_distance_aromatic_linkinvent_7_9_3/rearranged_h_0041.sdf

> <i_m_source_file_index>
54

> <r_mmod_Potential_Energy-OPLS-2005>
254.665939331055

> <r_mmod_Stretch_Energy-OPLS-2005>
198.619232177734

> <r_mmod_Bend_Energy-OPLS-2005>
256.855560302734

> <r_mmod_Torsional_Energy-OPLS-2005>
210.722381591797

> <r_mmod_Improper_Torsional_Energy-OPLS-2005>
8.43362236022949

> <r_mmod_Van_der_Waal_Energy-OPLS-2005>
139.66796875

> <r_mmod_Electrostatic_Energy-OPLS-2005>
-485.041107177734

> <r_mmod_Solvation_Energy-OPLS-2005>
-224.655822753906

> <b_mmod_Minimization_Converged-OPLS-2005>
0

> <r_mmod_RMS_Derivative-OPLS-2005>
3.68427896499634

$$$$
54
                    3D
 Structure written by MMmdl.
167176  0  0  1  0            999 V2000
  -30.7750  -14.4469   20.4707 C   0  0  0  0  0  0
  -30.3968  -12.2669   19.4251 C   0  0  0  0  0  0
  -29.4833  -12.4520   18.1997 C   0  0  0  0  0  0
  -28.0017  -12.3433   18.6080 C   0  0  0  0  0  0
  -27.6488  -13.2097   19.8466 C   0  0  2  0  0  0
  -28.7031  -13.0664   20.9700 C   0  0  0  0  0  0
  -25.2577  -13.8193   20.5706 C   0  0  0  0  0  0
  -24.1822  -13.0468   20.9195 C   0  0  0  0  0  0
  -24.6366  -11.6942   20.8744 C   0  0  0  0  0  0
  -23.9033  -10.4336   21.0398 C   0  0  0  0  0  0
  -24.3601   -9.4272   21.9174 C   0  0  0  0  0  0
  -23.6309   -8.2291   22.0744 C   0  0  0  0  0  0
  -22.4302   -8.0287   21.3528 C   0  0  0  0  0  0
  -21.9908   -9.0259   20.4652 C   0  0  0  0  0  0
  -22.7201  -10.2157   20.3062 C   0  0  0  0  0  0
  -21.6884   -6.0739   22.5272 C   0  0  0  0  0  0
  -21.4021   -6.5643   23.8207 C   0  0  0  0  0  0
  -21.3666   -5.6791   24.9163 C   0  0  0  0  0  0
  -21.6053   -4.3060   24.7207 C   0  0  0  0  0  0
  -21.8825   -3.8146   23.4330 C   0  0  0  0  0  0
  -21.9213   -4.6966   22.3389 C   0  0  0  0  0  0
  -22.7860  -13.5286   21.1837 C   0  0  0  0  0  0
  -22.1689   -4.2164   21.0966 F   0  0  0  0  0  0
  -21.5623   -3.4541   25.7714 F   0  0  0  0  0  0
  -30.0257  -13.3149   20.3833 N   0  0  0  0  0  0
  -26.2980  -12.9350   20.3288 N   0  0  0  0  0  0
  -25.9290  -11.6520   20.5751 N   0  0  0  0  0  0
  -22.0490  -12.8287   22.0393 N   0  0  0  0  0  0
  -25.4277  -15.1894   20.4129 N   0  0  0  0  0  0
  -31.9949  -14.4175   20.3139 O   0  0  0  0  0  0
  -21.6675   -6.8865   21.4223 O   0  0  0  0  0  0
  -22.3563  -14.5586   20.6683 O   0  0  0  0  0  0
  -24.6113  -31.8696   23.2115 C   0  0  0  0  0  0
  -25.9036  -32.4817   23.8420 C   0  0  1  0  0  0
  -27.2334  -27.4573   20.0784 C   0  0  0  0  0  0
  -25.5940  -33.8622   24.2325 N   0  0  0  0  0  0
  -23.3974  -30.4939   21.5522 C   0  0  2  0  0  0
  -24.8409  -28.9649   20.1170 C   0  0  0  0  0  0
  -22.7405  -29.4669   22.5004 C   0  0  0  0  0  0
  -18.0262  -28.1368   22.8522 C   0  0  0  0  0  0
  -24.1489  -36.7304   23.2626 C   0  0  0  0  0  0
  -25.9271  -30.8399   21.3644 C   0  0  0  0  0  0
  -26.0013  -29.4803   20.7047 C   0  0  0  0  0  0
  -27.1987  -28.7356   20.6762 C   0  0  0  0  0  0
  -26.0446  -26.9485   19.4989 C   0  0  0  0  0  0
  -24.8564  -27.6985   19.5115 C   0  0  0  0  0  0
  -23.6027  -29.8263   20.1668 C   0  0  0  0  0  0
  -25.4114  -36.3103   24.0326 C   0  0  1  0  0  0
  -20.5849  -28.3651   23.1320 C   0  0  2  0  0  0
  -20.6758  -26.9394   22.5399 C   0  0  0  0  0  0
  -19.5741  -26.6383   21.5206 C   0  0  0  0  0  0
  -18.1918  -26.7919   22.1626 C   0  0  0  0  0  0
  -19.1511  -28.8835   23.2917 C   0  0  0  0  0  0
  -18.9449  -30.1435   23.8938 C   0  0  0  0  0  0
  -17.6464  -30.6591   24.0565 C   0  0  0  0  0  0
  -25.9051  -34.9475   23.5107 C   0  0  0  0  0  0
  -16.5346  -29.9105   23.6320 C   0  0  0  0  0  0
  -16.7258  -28.6494   23.0388 C   0  0  0  0  0  0
  -26.4469  -31.6632   25.0766 C   0  0  0  0  0  0
  -25.3746  -31.3802   26.1525 C   0  0  0  0  0  0
  -27.0285  -30.3066   24.6170 C   0  0  0  0  0  0
  -27.6030  -32.4371   25.7535 C   0  0  0  0  0  0
  -27.5561  -37.1787   24.8459 C   0  0  0  0  0  0
  -21.4130  -29.3035   22.3759 N   0  0  0  0  0  0
  -26.4280  -37.3795   23.9414 N   0  0  0  0  0  0
  -24.6632  -31.0826   22.0997 N   0  0  0  0  0  0
  -23.4175  -28.8207   23.3031 O   0  0  0  0  0  0
  -28.4297  -26.7713   20.0805 O   0  0  0  0  0  0
  -26.5564  -34.8912   22.4632 O   0  0  0  0  0  0
  -23.5298  -32.1421   23.7514 O   0  0  0  0  0  0
  -28.4213  -22.4914   18.3795 C   0  0  0  0  0  0
  -27.7211  -21.3077   18.0923 C   0  0  0  0  0  0
  -27.8127  -23.6944   18.0069 C   0  0  0  0  0  0
  -26.0414  -22.5343   17.1316 C   0  0  0  0  0  0
  -30.0509  -17.5480   18.4914 C   0  0  0  0  0  0
  -29.3551  -17.8472   20.9154 C   0  0  0  0  0  0
  -30.7640  -16.2643   18.8892 C   0  0  0  0  0  0
  -29.1418  -16.3112   20.8327 C   0  0  0  0  0  0
  -30.0280  -18.5008   19.6892 C   0  0  0  0  0  0
  -24.7301  -22.5642   16.3745 C   0  0  0  0  0  0
  -28.2333  -19.9221   18.4488 C   0  0  0  0  0  0
  -28.4341  -25.0447   18.3233 C   0  0  0  0  0  0
  -29.5025  -19.9044   19.3271 C   0  0  0  0  0  0
  -28.4023  -25.3656   19.8291 C   0  0  0  0  0  0
  -26.5340  -21.3431   17.4546 N   0  0  0  0  0  0
  -26.6136  -23.7033   17.3917 N   0  0  0  0  0  0
  -30.1481  -15.5714   20.0442 N   0  0  0  0  0  0
  -31.4461  -12.3082   19.1268 H   0  0  0  0  0  0
  -30.2519  -11.2798   19.8667 H   0  0  0  0  0  0
  -29.7121  -11.7035   17.4406 H   0  0  0  0  0  0
  -29.6737  -13.4210   17.7370 H   0  0  0  0  0  0
  -27.7933  -11.2928   18.8154 H   0  0  0  0  0  0
  -27.3612  -12.6133   17.7669 H   0  0  0  0  0  0
  -27.6624  -14.2369   19.4907 H   0  0  0  0  0  0
  -28.6702  -12.0659   21.4051 H   0  0  0  0  0  0
  -28.4923  -13.7564   21.7858 H   0  0  0  0  0  0
  -25.2733   -9.5806   22.4746 H   0  0  0  0  0  0
  -24.0054   -7.4709   22.7472 H   0  0  0  0  0  0
  -21.0830   -8.8747   19.8979 H   0  0  0  0  0  0
  -22.3604  -10.9683   19.6195 H   0  0  0  0  0  0
  -21.2004   -7.6158   23.9697 H   0  0  0  0  0  0
  -21.1482   -6.0524   25.9057 H   0  0  0  0  0  0
  -22.0594   -2.7612   23.2819 H   0  0  0  0  0  0
  -22.4131  -11.9976   22.4807 H   0  0  0  0  0  0
  -21.1111  -13.1320   22.2581 H   0  0  0  0  0  0
  -24.6592  -15.8409   20.5224 H   0  0  0  0  0  0
  -26.2784  -15.6276   20.0840 H   0  0  0  0  0  0
  -26.7106  -32.5533   23.1189 H   0  0  0  0  0  0
  -25.0250  -33.9827   25.0574 H   0  0  0  0  0  0
  -22.6855  -31.3099   21.4134 H   0  0  0  0  0  0
  -23.3736  -35.9646   23.3305 H   0  0  0  0  0  0
  -24.3585  -36.8889   22.2031 H   0  0  0  0  0  0
  -23.7258  -37.6521   23.6638 H   0  0  0  0  0  0
  -26.0484  -31.6146   20.6064 H   0  0  0  0  0  0
  -26.8078  -30.8811   21.9932 H   0  0  0  0  0  0
  -28.1015  -29.1389   21.1132 H   0  0  0  0  0  0
  -26.0078  -25.9824   19.0189 H   0  0  0  0  0  0
  -23.9636  -27.2973   19.0542 H   0  0  0  0  0  0
  -23.7120  -30.5965   19.4033 H   0  0  0  0  0  0
  -22.7302  -29.2395   19.8740 H   0  0  0  0  0  0
  -25.1287  -36.1947   25.0817 H   0  0  0  0  0  0
  -20.9946  -28.3170   24.1433 H   0  0  0  0  0  0
  -20.5664  -26.2256   23.3570 H   0  0  0  0  0  0
  -21.6627  -26.7452   22.1181 H   0  0  0  0  0  0
  -19.6906  -25.6300   21.1233 H   0  0  0  0  0  0
  -19.6666  -27.3186   20.6727 H   0  0  0  0  0  0
  -17.4176  -26.6670   21.4028 H   0  0  0  0  0  0
  -18.0314  -26.0049   22.9011 H   0  0  0  0  0  0
  -19.7931  -30.7228   24.2318 H   0  0  0  0  0  0
  -17.5028  -31.6278   24.5157 H   0  0  0  0  0  0
  -15.5350  -30.3037   23.7631 H   0  0  0  0  0  0
  -15.8637  -28.0819   22.7133 H   0  0  0  0  0  0
  -24.5871  -30.7190   25.7889 H   0  0  0  0  0  0
  -24.8999  -32.2996   26.4976 H   0  0  0  0  0  0
  -25.8079  -30.8975   27.0295 H   0  0  0  0  0  0
  -26.2843  -29.6884   24.1114 H   0  0  0  0  0  0
  -27.3925  -29.7262   25.4664 H   0  0  0  0  0  0
  -27.8758  -30.4377   23.9421 H   0  0  0  0  0  0
  -27.2620  -33.3644   26.2161 H   0  0  0  0  0  0
  -28.3816  -32.6974   25.0356 H   0  0  0  0  0  0
  -28.0749  -31.8498   26.5425 H   0  0  0  0  0  0
  -28.2574  -38.0072   24.7484 H   0  0  0  0  0  0
  -28.1049  -36.2607   24.6314 H   0  0  0  0  0  0
  -27.2282  -37.1454   25.8855 H   0  0  0  0  0  0
  -20.9278  -29.8770   21.7006 H   0  0  0  0  0  0
  -26.0152  -38.2865   24.1421 H   0  0  0  0  0  0
  -29.3781  -22.4979   18.8834 H   0  0  0  0  0  0
  -29.0440  -17.3088   18.1473 H   0  0  0  0  0  0
  -30.5711  -18.0080   17.6495 H   0  0  0  0  0  0
  -29.9501  -18.0807   21.8014 H   0  0  0  0  0  0
  -28.3844  -18.3086   21.1010 H   0  0  0  0  0  0
  -31.8022  -16.5211   19.1110 H   0  0  0  0  0  0
  -30.7987  -15.5855   18.0348 H   0  0  0  0  0  0
  -28.1761  -16.1429   20.3632 H   0  0  0  0  0  0
  -29.0586  -15.9141   21.8458 H   0  0  0  0  0  0
  -31.0686  -18.6567   19.9805 H   0  0  0  0  0  0
  -24.2167  -23.5188   16.5047 H   0  0  0  0  0  0
  -24.0606  -21.7720   16.7118 H   0  0  0  0  0  0
  -24.9118  -22.4208   15.3083 H   0  0  0  0  0  0
  -28.4204  -19.4165   17.5008 H   0  0  0  0  0  0
  -27.4349  -19.3712   18.9475 H   0  0  0  0  0  0
  -27.9058  -25.8098   17.7541 H   0  0  0  0  0  0
  -29.4605  -25.0803   17.9586 H   0  0  0  0  0  0
  -29.3156  -20.4763   20.2379 H   0  0  0  0  0  0
  -30.3016  -20.4266   18.7954 H   0  0  0  0  0  0
  -29.2694  -24.9047   20.3063 H   0  0  0  0  0  0
  -27.5372  -24.9087   20.3140 H   0  0  0  0  0  0
  1 25  1  0  0  0
  1 30  2  0  0  0
  1 87  1  0  0  0
  2  3  1  0  0  0
  2 25  1  0  0  0
  2 88  1  0  0  0
  2 89  1  0  0  0
  3  4  1  0  0  0
  3 90  1  0  0  0
  3 91  1  0  0  0
  4  5  1  0  0  0
  4 92  1  0  0  0
  4 93  1  0  0  0
  5  6  1  0  0  0
  5 26  1  0  0  0
  5 94  1  0  0  0
  6 25  1  0  0  0
  6 95  1  0  0  0
  6 96  1  0  0  0
  7  8  2  0  0  0
  7 26  1  0  0  0
  7 29  1  0  0  0
  8  9  1  0  0  0
  8 22  1  0  0  0
  9 10  1  0  0  0
  9 27  2  0  0  0
 10 11  2  0  0  0
 10 15  1  0  0  0
 11 12  1  0  0  0
 11 97  1  0  0  0
 12 13  2  0  0  0
 12 98  1  0  0  0
 13 14  1  0  0  0
 13 31  1  0  0  0
 14 15  2  0  0  0
 14 99  1  0  0  0
 15100  1  0  0  0
 16 17  2  0  0  0
 16 21  1  0  0  0
 16 31  1  0  0  0
 17 18  1  0  0  0
 17101  1  0  0  0
 18 19  2  0  0  0
 18102  1  0  0  0
 19 20  1  0  0  0
 19 24  1  0  0  0
 20 21  2  0  0  0
 20103  1  0  0  0
 21 23  1  0  0  0
 22 28  1  0  0  0
 22 32  2  0  0  0
 26 27  1  0  0  0
 28104  1  0  0  0
 28105  1  0  0  0
 29106  1  0  0  0
 29107  1  0  0  0
 33 34  1  0  0  0
 33 66  1  0  0  0
 33 70  2  0  0  0
 34 36  1  0  0  0
 34 59  1  0  0  0
 34108  1  0  0  0
 35 44  2  0  0  0
 35 45  1  0  0  0
 35 68  1  0  0  0
 36 56  1  0  0  0
 36109  1  0  0  0
 37 39  1  0  0  0
 37 47  1  0  0  0
 37 66  1  0  0  0
 37110  1  0  0  0
 38 43  2  0  0  0
 38 46  1  0  0  0
 38 47  1  0  0  0
 39 64  1  0  0  0
 39 67  2  0  0  0
 40 52  1  0  0  0
 40 53  2  0  0  0
 40 58  1  0  0  0
 41111  1  0  0  0
 41112  1  0  0  0
 41113  1  0  0  0
 41 48  1  0  0  0
 42 43  1  0  0  0
 42 66  1  0  0  0
 42114  1  0  0  0
 42115  1  0  0  0
 43 44  1  0  0  0
 44116  1  0  0  0
 45 46  2  0  0  0
 45117  1  0  0  0
 46118  1  0  0  0
 47119  1  0  0  0
 47120  1  0  0  0
 48 56  1  0  0  0
 48 65  1  0  0  0
 48121  1  0  0  0
 49 50  1  0  0  0
 49 53  1  0  0  0
 49 64  1  0  0  0
 49122  1  0  0  0
 50 51  1  0  0  0
 50123  1  0  0  0
 50124  1  0  0  0
 51 52  1  0  0  0
 51125  1  0  0  0
 51126  1  0  0  0
 52127  1  0  0  0
 52128  1  0  0  0
 53 54  1  0  0  0
 54 55  2  0  0  0
 54129  1  0  0  0
 55 57  1  0  0  0
 55130  1  0  0  0
 56 69  2  0  0  0
 57 58  2  0  0  0
 57131  1  0  0  0
 58132  1  0  0  0
 59 60  1  0  0  0
 59 61  1  0  0  0
 59 62  1  0  0  0
 60133  1  0  0  0
 60134  1  0  0  0
 60135  1  0  0  0
 61136  1  0  0  0
 61137  1  0  0  0
 61138  1  0  0  0
 62139  1  0  0  0
 62140  1  0  0  0
 62141  1  0  0  0
 63 65  1  0  0  0
 63142  1  0  0  0
 63143  1  0  0  0
 63144  1  0  0  0
 64145  1  0  0  0
 65146  1  0  0  0
 68 84  1  0  0  0
 71 72  2  0  0  0
 71 73  1  0  0  0
 71147  1  0  0  0
 72 81  1  0  0  0
 72 85  1  0  0  0
 73 82  1  0  0  0
 73 86  2  0  0  0
 74 80  1  0  0  0
 74 85  2  0  0  0
 74 86  1  0  0  0
 75 77  1  0  0  0
 75 79  1  0  0  0
 75148  1  0  0  0
 75149  1  0  0  0
 76 78  1  0  0  0
 76 79  1  0  0  0
 76150  1  0  0  0
 76151  1  0  0  0
 77 87  1  0  0  0
 77152  1  0  0  0
 77153  1  0  0  0
 78 87  1  0  0  0
 78154  1  0  0  0
 78155  1  0  0  0
 79 83  1  0  0  0
 79156  1  0  0  0
 80157  1  0  0  0
 80158  1  0  0  0
 80159  1  0  0  0
 81 83  1  0  0  0
 81160  1  0  0  0
 81161  1  0  0  0
 82 84  1  0  0  0
 82162  1  0  0  0
 82163  1  0  0  0
 83164  1  0  0  0
 83165  1  0  0  0
 84166  1  0  0  0
 84167  1  0  0  0
M  ISO  4   1 100  68 101  84 101  87 100
M  END
> <chiral flag>
0

> <version>
0

> <s_m_source_file>
/data/baiqing/PycharmProjects/Reinvent-master-3.2/result/LINK_invent/BTK/process_docking_weight1_custom_sum_contain_oxygen_bond_distance_aromatic_linkinvent_7_9_3/rearranged_h_0041.sdf

> <i_m_source_file_index>
55

> <r_mmod_Potential_Energy-OPLS-2005>
-179.668960571289

> <r_mmod_Stretch_Energy-OPLS-2005>
34.6604652404785

> <r_mmod_Bend_Energy-OPLS-2005>
114.091361999512

> <r_mmod_Torsional_Energy-OPLS-2005>
338.548217773438

> <r_mmod_Improper_Torsional_Energy-OPLS-2005>
25.8012866973877

> <r_mmod_Van_der_Waal_Energy-OPLS-2005>
178.004196166992

> <r_mmod_Electrostatic_Energy-OPLS-2005>
-688.827697753906

> <r_mmod_Solvation_Energy-OPLS-2005>
-216.301193237305

> <b_mmod_Minimization_Converged-OPLS-2005>
0

> <r_mmod_RMS_Derivative-OPLS-2005>
3.83515572547913

$$$$
55
                    3D
 Structure written by MMmdl.
156164  0  0  1  0            999 V2000
  -30.5405  -14.9359   20.3454 C   0  0  0  0  0  0
  -30.4234  -12.5746   19.4719 C   0  0  0  0  0  0
  -29.4994  -12.4943   18.2341 C   0  0  0  0  0  0
  -28.0318  -12.3072   18.6550 C   0  0  0  0  0  0
  -27.6114  -13.2534   19.8081 C   0  0  2  0  0  0
  -28.6561  -13.3128   20.9350 C   0  0  0  0  0  0
  -25.2434  -13.8225   20.5727 C   0  0  0  0  0  0
  -24.1759  -13.0435   20.9223 C   0  0  0  0  0  0
  -24.6366  -11.6924   20.8739 C   0  0  0  0  0  0
  -23.9061  -10.4287   21.0385 C   0  0  0  0  0  0
  -24.3618   -9.4209   21.9158 C   0  0  0  0  0  0
  -23.6291   -8.2246   22.0740 C   0  0  0  0  0  0
  -22.4271   -8.0263   21.3539 C   0  0  0  0  0  0
  -21.9907   -9.0237   20.4640 C   0  0  0  0  0  0
  -22.7239  -10.2118   20.3048 C   0  0  0  0  0  0
  -21.6846   -6.0724   22.5273 C   0  0  0  0  0  0
  -21.4022   -6.5645   23.8207 C   0  0  0  0  0  0
  -21.3680   -5.6797   24.9171 C   0  0  0  0  0  0
  -21.6043   -4.3052   24.7223 C   0  0  0  0  0  0
  -21.8824   -3.8140   23.4341 C   0  0  0  0  0  0
  -21.9196   -4.6954   22.3393 C   0  0  0  0  0  0
  -22.7789  -13.5194   21.1899 C   0  0  0  0  0  0
  -22.1641   -4.2141   21.0961 F   0  0  0  0  0  0
  -21.5645   -3.4535   25.7732 F   0  0  0  0  0  0
  -29.9302  -13.6895   20.3192 N   0  0  0  0  0  0
  -26.2800  -12.9467   20.3133 N   0  0  0  0  0  0
  -25.9285  -11.6595   20.5701 N   0  0  0  0  0  0
  -22.0471  -12.8161   22.0458 N   0  0  0  0  0  0
  -25.4173  -15.1950   20.4243 N   0  0  0  0  0  0
  -31.7744  -14.9398   20.2960 O   0  0  0  0  0  0
  -21.6638   -6.8862   21.4233 O   0  0  0  0  0  0
  -22.3457  -14.5501   20.6759 O   0  0  0  0  0  0
  -24.6443  -31.8406   23.1821 C   0  0  0  0  0  0
  -25.9216  -32.4670   23.8199 C   0  0  1  0  0  0
  -27.2109  -27.1353   20.1481 C   0  0  0  0  0  0
  -25.6021  -33.8489   24.2134 N   0  0  0  0  0  0
  -23.4471  -30.4596   21.5312 C   0  0  2  0  0  0
  -24.8893  -28.8770   20.1141 C   0  0  0  0  0  0
  -22.7563  -29.4525   22.4856 C   0  0  0  0  0  0
  -18.0320  -28.1370   22.8481 C   0  0  0  0  0  0
  -24.1526  -36.7229   23.2646 C   0  0  0  0  0  0
  -26.0038  -30.7128   21.3820 C   0  0  0  0  0  0
  -26.0692  -29.3215   20.7283 C   0  0  0  0  0  0
  -27.2331  -28.4688   20.7203 C   0  0  0  0  0  0
  -26.0044  -26.7713   19.5202 C   0  0  0  0  0  0
  -24.8693  -27.6127   19.4982 C   0  0  0  0  0  0
  -23.6695  -29.7827   20.1530 C   0  0  0  0  0  0
  -25.4144  -36.3010   24.0326 C   0  0  1  0  0  0
  -20.5927  -28.3694   23.1236 C   0  0  2  0  0  0
  -20.6818  -26.9404   22.5393 C   0  0  0  0  0  0
  -19.5799  -26.6343   21.5214 C   0  0  0  0  0  0
  -18.1972  -26.7920   22.1602 C   0  0  0  0  0  0
  -19.1579  -28.8854   23.2851 C   0  0  0  0  0  0
  -18.9478  -30.1464   23.8839 C   0  0  0  0  0  0
  -17.6475  -30.6562   24.0572 C   0  0  0  0  0  0
  -25.9099  -34.9410   23.5014 C   0  0  0  0  0  0
  -16.5370  -29.9040   23.6360 C   0  0  0  0  0  0
  -16.7298  -28.6483   23.0345 C   0  0  0  0  0  0
  -26.4540  -31.6536   25.0641 C   0  0  0  0  0  0
  -25.3728  -31.3713   26.1345 C   0  0  0  0  0  0
  -27.0410  -30.2927   24.6229 C   0  0  0  0  0  0
  -27.6071  -32.4309   25.7395 C   0  0  0  0  0  0
  -27.5594  -37.1770   24.8470 C   0  0  0  0  0  0
  -21.4260  -29.3034   22.3613 N   0  0  0  0  0  0
  -26.4304  -37.3732   23.9435 N   0  0  0  0  0  0
  -24.7181  -31.0266   22.0852 N   0  0  0  0  0  0
  -23.4227  -28.8075   23.2988 O   0  0  0  0  0  0
  -28.3049  -26.2086   20.0834 O   0  0  0  0  0  0
  -26.5646  -34.8916   22.4567 O   0  0  0  0  0  0
  -23.5550  -32.1288   23.7058 O   0  0  0  0  0  0
  -29.7599  -16.4023   18.4372 C   0  0  0  0  0  0
  -29.8559  -16.2972   19.8360 C   0  0  0  0  0  0
  -29.5082  -17.5728   20.5216 C   0  0  0  0  0  0
  -29.1411  -18.8345   19.7950 C   0  0  0  0  0  0
  -29.1447  -18.6723   18.3853 C   0  0  0  0  0  0
  -29.4665  -17.5815   22.0400 C   0  0  0  0  0  0
  -28.7988  -19.8050   17.4331 C   0  0  0  0  0  0
  -28.5537  -20.2696   20.3837 C   0  0  0  0  0  0
  -29.0910  -21.8480   20.1108 C   0  0  0  0  0  0
  -28.1717  -23.2483   19.8491 C   0  0  0  0  0  0
  -28.3171  -24.7454   20.6123 C   0  0  0  0  0  0
  -29.4310  -17.5172   17.7506 N   0  0  0  0  0  0
  -31.4533  -12.7385   19.1507 H   0  0  0  0  0  0
  -30.4188  -11.6360   20.0288 H   0  0  0  0  0  0
  -29.8042  -11.6764   17.5828 H   0  0  0  0  0  0
  -29.5842  -13.4034   17.6414 H   0  0  0  0  0  0
  -27.9099  -11.2708   18.9671 H   0  0  0  0  0  0
  -27.3716  -12.4460   17.7973 H   0  0  0  0  0  0
  -27.5644  -14.2486   19.3649 H   0  0  0  0  0  0
  -28.7367  -12.3606   21.4593 H   0  0  0  0  0  0
  -28.3657  -14.0599   21.6758 H   0  0  0  0  0  0
  -25.2750   -9.5684   22.4759 H   0  0  0  0  0  0
  -24.0008   -7.4633   22.7449 H   0  0  0  0  0  0
  -21.0854   -8.8749   19.8923 H   0  0  0  0  0  0
  -22.3676  -10.9666   19.6186 H   0  0  0  0  0  0
  -21.2030   -7.6161   23.9713 H   0  0  0  0  0  0
  -21.1493   -6.0512   25.9073 H   0  0  0  0  0  0
  -22.0595   -2.7600   23.2832 H   0  0  0  0  0  0
  -22.4106  -11.9798   22.4770 H   0  0  0  0  0  0
  -21.1102  -13.1175   22.2723 H   0  0  0  0  0  0
  -24.6647  -15.8595   20.5623 H   0  0  0  0  0  0
  -26.2914  -15.6327   20.1599 H   0  0  0  0  0  0
  -26.7279  -32.5218   23.0915 H   0  0  0  0  0  0
  -25.0370  -33.9616   25.0419 H   0  0  0  0  0  0
  -22.7557  -31.2878   21.3730 H   0  0  0  0  0  0
  -23.3824  -35.9522   23.3237 H   0  0  0  0  0  0
  -24.3643  -36.8904   22.2080 H   0  0  0  0  0  0
  -23.7229  -37.6378   23.6712 H   0  0  0  0  0  0
  -26.1744  -31.4635   20.6101 H   0  0  0  0  0  0
  -26.8727  -30.7499   22.0264 H   0  0  0  0  0  0
  -28.1429  -28.8167   21.1890 H   0  0  0  0  0  0
  -25.9363  -25.8069   19.0351 H   0  0  0  0  0  0
  -23.9705  -27.2624   19.0096 H   0  0  0  0  0  0
  -23.8051  -30.5549   19.3969 H   0  0  0  0  0  0
  -22.7831  -29.2260   19.8406 H   0  0  0  0  0  0
  -25.1335  -36.1836   25.0818 H   0  0  0  0  0  0
  -21.0035  -28.3260   24.1351 H   0  0  0  0  0  0
  -20.5760  -26.2285   23.3607 H   0  0  0  0  0  0
  -21.6674  -26.7450   22.1147 H   0  0  0  0  0  0
  -19.6986  -25.6241   21.1256 H   0  0  0  0  0  0
  -19.6748  -27.3170   20.6766 H   0  0  0  0  0  0
  -17.4259  -26.6706   21.3984 H   0  0  0  0  0  0
  -18.0328  -26.0037   22.8960 H   0  0  0  0  0  0
  -19.7951  -30.7330   24.2119 H   0  0  0  0  0  0
  -17.5012  -31.6244   24.5170 H   0  0  0  0  0  0
  -15.5364  -30.2927   23.7699 H   0  0  0  0  0  0
  -15.8708  -28.0810   22.7031 H   0  0  0  0  0  0
  -24.5933  -30.7061   25.7626 H   0  0  0  0  0  0
  -24.8913  -32.2894   26.4704 H   0  0  0  0  0  0
  -25.7990  -30.8896   27.0156 H   0  0  0  0  0  0
  -26.2999  -29.6606   24.1324 H   0  0  0  0  0  0
  -27.4143  -29.7268   25.4769 H   0  0  0  0  0  0
  -27.8862  -30.4155   23.9454 H   0  0  0  0  0  0
  -27.2709  -33.3712   26.1768 H   0  0  0  0  0  0
  -28.3939  -32.6692   25.0229 H   0  0  0  0  0  0
  -28.0674  -31.8567   26.5442 H   0  0  0  0  0  0
  -28.2549  -38.0130   24.7565 H   0  0  0  0  0  0
  -28.1138  -36.2648   24.6217 H   0  0  0  0  0  0
  -27.2324  -37.1291   25.8873 H   0  0  0  0  0  0
  -20.9459  -29.8743   21.6810 H   0  0  0  0  0  0
  -26.0156  -38.2788   24.1432 H   0  0  0  0  0  0
  -30.0352  -15.5701   17.8089 H   0  0  0  0  0  0
  -29.5353  -16.5714   22.4440 H   0  0  0  0  0  0
  -28.5181  -17.9934   22.3917 H   0  0  0  0  0  0
  -30.2861  -18.1704   22.4533 H   0  0  0  0  0  0
  -27.9257  -20.3667   17.7626 H   0  0  0  0  0  0
  -28.5808  -19.4341   16.4303 H   0  0  0  0  0  0
  -29.6436  -20.4863   17.3465 H   0  0  0  0  0  0
  -28.4834  -20.1538   21.4642 H   0  0  0  0  0  0
  -27.5061  -20.2649   20.0738 H   0  0  0  0  0  0
  -29.7435  -21.7915   19.2411 H   0  0  0  0  0  0
  -29.7872  -22.0786   20.9160 H   0  0  0  0  0  0
  -27.1255  -22.9565   19.9447 H   0  0  0  0  0  0
  -28.2715  -23.4618   18.7858 H   0  0  0  0  0  0
  -29.3015  -24.7003   21.0745 H   0  0  0  0  0  0
  -27.6399  -24.7311   21.4661 H   0  0  0  0  0  0
  1 25  1  0  0  0
  1 30  2  0  0  0
  1 72  1  0  0  0
  2  3  1  0  0  0
  2 25  1  0  0  0
  2 83  1  0  0  0
  2 84  1  0  0  0
  3  4  1  0  0  0
  3 85  1  0  0  0
  3 86  1  0  0  0
  4  5  1  0  0  0
  4 87  1  0  0  0
  4 88  1  0  0  0
  5  6  1  0  0  0
  5 26  1  0  0  0
  5 89  1  0  0  0
  6 25  1  0  0  0
  6 90  1  0  0  0
  6 91  1  0  0  0
  7  8  2  0  0  0
  7 26  1  0  0  0
  7 29  1  0  0  0
  8  9  1  0  0  0
  8 22  1  0  0  0
  9 10  1  0  0  0
  9 27  2  0  0  0
 10 11  2  0  0  0
 10 15  1  0  0  0
 11 12  1  0  0  0
 11 92  1  0  0  0
 12 13  2  0  0  0
 12 93  1  0  0  0
 13 14  1  0  0  0
 13 31  1  0  0  0
 14 15  2  0  0  0
 14 94  1  0  0  0
 15 95  1  0  0  0
 16 17  2  0  0  0
 16 21  1  0  0  0
 16 31  1  0  0  0
 17 18  1  0  0  0
 17 96  1  0  0  0
 18 19  2  0  0  0
 18 97  1  0  0  0
 19 20  1  0  0  0
 19 24  1  0  0  0
 20 21  2  0  0  0
 20 98  1  0  0  0
 21 23  1  0  0  0
 22 28  1  0  0  0
 22 32  2  0  0  0
 26 27  1  0  0  0
 28 99  1  0  0  0
 28100  1  0  0  0
 29101  1  0  0  0
 29102  1  0  0  0
 33 34  1  0  0  0
 33 66  1  0  0  0
 33 70  2  0  0  0
 34 36  1  0  0  0
 34 59  1  0  0  0
 34103  1  0  0  0
 35 44  2  0  0  0
 35 45  1  0  0  0
 35 68  1  0  0  0
 36 56  1  0  0  0
 36104  1  0  0  0
 37 39  1  0  0  0
 37 47  1  0  0  0
 37 66  1  0  0  0
 37105  1  0  0  0
 38 43  2  0  0  0
 38 46  1  0  0  0
 38 47  1  0  0  0
 39 64  1  0  0  0
 39 67  2  0  0  0
 40 52  1  0  0  0
 40 53  2  0  0  0
 40 58  1  0  0  0
 41106  1  0  0  0
 41107  1  0  0  0
 41108  1  0  0  0
 41 48  1  0  0  0
 42 43  1  0  0  0
 42 66  1  0  0  0
 42109  1  0  0  0
 42110  1  0  0  0
 43 44  1  0  0  0
 44111  1  0  0  0
 45 46  2  0  0  0
 45112  1  0  0  0
 46113  1  0  0  0
 47114  1  0  0  0
 47115  1  0  0  0
 48 56  1  0  0  0
 48 65  1  0  0  0
 48116  1  0  0  0
 49 50  1  0  0  0
 49 53  1  0  0  0
 49 64  1  0  0  0
 49117  1  0  0  0
 50 51  1  0  0  0
 50118  1  0  0  0
 50119  1  0  0  0
 51 52  1  0  0  0
 51120  1  0  0  0
 51121  1  0  0  0
 52122  1  0  0  0
 52123  1  0  0  0
 53 54  1  0  0  0
 54 55  2  0  0  0
 54124  1  0  0  0
 55 57  1  0  0  0
 55125  1  0  0  0
 56 69  2  0  0  0
 57 58  2  0  0  0
 57126  1  0  0  0
 58127  1  0  0  0
 59 60  1  0  0  0
 59 61  1  0  0  0
 59 62  1  0  0  0
 60128  1  0  0  0
 60129  1  0  0  0
 60130  1  0  0  0
 61131  1  0  0  0
 61132  1  0  0  0
 61133  1  0  0  0
 62134  1  0  0  0
 62135  1  0  0  0
 62136  1  0  0  0
 63 65  1  0  0  0
 63137  1  0  0  0
 63138  1  0  0  0
 63139  1  0  0  0
 64140  1  0  0  0
 65141  1  0  0  0
 68 81  1  0  0  0
 71 72  2  0  0  0
 71 82  1  0  0  0
 71142  1  0  0  0
 72 73  1  0  0  0
 73 74  2  0  0  0
 73 76  1  0  0  0
 74 75  1  0  0  0
 74 78  1  0  0  0
 75 77  1  0  0  0
 75 82  2  0  0  0
 76143  1  0  0  0
 76144  1  0  0  0
 76145  1  0  0  0
 77146  1  0  0  0
 77147  1  0  0  0
 77148  1  0  0  0
 78 79  1  0  0  0
 78149  1  0  0  0
 78150  1  0  0  0
 79 80  1  0  0  0
 79151  1  0  0  0
 79152  1  0  0  0
 80 81  1  0  0  0
 80153  1  0  0  0
 80154  1  0  0  0
 81155  1  0  0  0
 81156  1  0  0  0
M  ISO  4   1 100  68 101  72 100  81 101
M  END
> <chiral flag>
0

> <version>
0

> <s_m_source_file>
/data/baiqing/PycharmProjects/Reinvent-master-3.2/result/LINK_invent/BTK/process_docking_weight1_custom_sum_contain_oxygen_bond_distance_aromatic_linkinvent_7_9_3/rearranged_h_0041.sdf

> <i_m_source_file_index>
56

> <r_mmod_Potential_Energy-OPLS-2005>
536.6845703125

> <r_mmod_Stretch_Energy-OPLS-2005>
261.292877197266

> <r_mmod_Bend_Energy-OPLS-2005>
300.333984375

> <r_mmod_Torsional_Energy-OPLS-2005>
281.037536621094

> <r_mmod_Improper_Torsional_Energy-OPLS-2005>
20.9559345245361

> <r_mmod_Van_der_Waal_Energy-OPLS-2005>
121.92749786377

> <r_mmod_Electrostatic_Energy-OPLS-2005>
-436.870300292969

> <r_mmod_Solvation_Energy-OPLS-2005>
-202.561264038086

> <b_mmod_Minimization_Converged-OPLS-2005>
0

> <r_mmod_RMS_Derivative-OPLS-2005>
4.47989368438721

$$$$
56
                    3D
 Structure written by MMmdl.
165173  0  0  1  0            999 V2000
  -30.7263  -14.4184   20.6378 C   0  0  0  0  0  0
  -30.4191  -12.3029   19.4010 C   0  0  0  0  0  0
  -29.4833  -12.5076   18.1933 C   0  0  0  0  0  0
  -28.0067  -12.3670   18.6109 C   0  0  0  0  0  0
  -27.6606  -13.2003   19.8734 C   0  0  2  0  0  0
  -28.7001  -12.9560   20.9885 C   0  0  0  0  0  0
  -25.2587  -13.8144   20.5669 C   0  0  0  0  0  0
  -24.1829  -13.0436   20.9160 C   0  0  0  0  0  0
  -24.6371  -11.6898   20.8718 C   0  0  0  0  0  0
  -23.9035  -10.4290   21.0397 C   0  0  0  0  0  0
  -24.3598   -9.4211   21.9175 C   0  0  0  0  0  0
  -23.6282   -8.2239   22.0754 C   0  0  0  0  0  0
  -22.4266   -8.0270   21.3537 C   0  0  0  0  0  0
  -21.9893   -9.0237   20.4638 C   0  0  0  0  0  0
  -22.7210  -10.2122   20.3045 C   0  0  0  0  0  0
  -21.6847   -6.0724   22.5273 C   0  0  0  0  0  0
  -21.4015   -6.5634   23.8203 C   0  0  0  0  0  0
  -21.3657   -5.6791   24.9167 C   0  0  0  0  0  0
  -21.6048   -4.3054   24.7222 C   0  0  0  0  0  0
  -21.8820   -3.8140   23.4345 C   0  0  0  0  0  0
  -21.9197   -4.6954   22.3399 C   0  0  0  0  0  0
  -22.7856  -13.5241   21.1831 C   0  0  0  0  0  0
  -22.1662   -4.2141   21.0976 F   0  0  0  0  0  0
  -21.5631   -3.4540   25.7735 F   0  0  0  0  0  0
  -30.0330  -13.2660   20.4420 N   0  0  0  0  0  0
  -26.3008  -12.9301   20.3346 N   0  0  0  0  0  0
  -25.9291  -11.6469   20.5747 N   0  0  0  0  0  0
  -22.0498  -12.8228   22.0381 N   0  0  0  0  0  0
  -25.4351  -15.1856   20.4091 N   0  0  0  0  0  0
  -31.8163  -14.6487   20.1045 O   0  0  0  0  0  0
  -21.6637   -6.8863   21.4233 O   0  0  0  0  0  0
  -22.3547  -14.5550   20.6684 O   0  0  0  0  0  0
  -24.6138  -31.8690   23.2094 C   0  0  0  0  0  0
  -25.9033  -32.4830   23.8383 C   0  0  1  0  0  0
  -27.2350  -27.4338   20.0859 C   0  0  0  0  0  0
  -25.5880  -33.8623   24.2306 N   0  0  0  0  0  0
  -23.4017  -30.4920   21.5518 C   0  0  2  0  0  0
  -24.8450  -28.9553   20.1187 C   0  0  0  0  0  0
  -22.7409  -29.4664   22.5010 C   0  0  0  0  0  0
  -18.0264  -28.1388   22.8498 C   0  0  0  0  0  0
  -24.1490  -36.7318   23.2633 C   0  0  0  0  0  0
  -25.9306  -30.8297   21.3659 C   0  0  0  0  0  0
  -26.0052  -29.4642   20.7129 C   0  0  0  0  0  0
  -27.2007  -28.7107   20.6926 C   0  0  0  0  0  0
  -26.0469  -26.9332   19.5005 C   0  0  0  0  0  0
  -24.8596  -27.6875   19.5136 C   0  0  0  0  0  0
  -23.6089  -29.8237   20.1670 C   0  0  0  0  0  0
  -25.4114  -36.3123   24.0330 C   0  0  1  0  0  0
  -20.5856  -28.3671   23.1335 C   0  0  2  0  0  0
  -20.6770  -26.9414   22.5420 C   0  0  0  0  0  0
  -19.5748  -26.6401   21.5220 C   0  0  0  0  0  0
  -18.1917  -26.7933   22.1630 C   0  0  0  0  0  0
  -19.1512  -28.8851   23.2908 C   0  0  0  0  0  0
  -18.9439  -30.1446   23.8935 C   0  0  0  0  0  0
  -17.6443  -30.6600   24.0582 C   0  0  0  0  0  0
  -25.9044  -34.9486   23.5124 C   0  0  0  0  0  0
  -16.5336  -29.9109   23.6333 C   0  0  0  0  0  0
  -16.7252  -28.6524   23.0362 C   0  0  0  0  0  0
  -26.4443  -31.6623   25.0731 C   0  0  0  0  0  0
  -25.3673  -31.3743   26.1455 C   0  0  0  0  0  0
  -27.0277  -30.3065   24.6129 C   0  0  0  0  0  0
  -27.6023  -32.4342   25.7480 C   0  0  0  0  0  0
  -27.5589  -37.1802   24.8453 C   0  0  0  0  0  0
  -21.4137  -29.3036   22.3746 N   0  0  0  0  0  0
  -26.4302  -37.3808   23.9406 N   0  0  0  0  0  0
  -24.6664  -31.0789   22.0994 N   0  0  0  0  0  0
  -23.4182  -28.8207   23.3051 O   0  0  0  0  0  0
  -28.4375  -26.7524   20.0734 O   0  0  0  0  0  0
  -26.5630  -34.8942   22.4700 O   0  0  0  0  0  0
  -23.5339  -32.1446   23.7493 O   0  0  0  0  0  0
  -27.3596  -20.9848   20.4107 C   0  0  0  0  0  0
  -28.7776  -21.0870   20.3924 C   0  0  0  0  0  0
  -26.9160  -22.2578   20.6467 C   0  0  0  0  0  0
  -23.0106  -22.3527   20.7035 C   0  0  0  0  0  0
  -29.7881  -19.9858   20.1583 C   0  0  0  0  0  0
  -25.5233  -22.7929   20.7991 C   0  0  0  0  0  0
  -24.4154  -21.7594   20.5443 C   0  0  0  0  0  0
  -29.6438  -18.7856   21.1218 C   0  0  0  0  0  0
  -30.7487  -17.7259   20.9127 C   0  0  0  0  0  0
  -28.1169  -24.4993   21.0224 C   0  0  0  0  0  0
  -30.7392  -16.5606   21.9308 C   0  0  0  0  0  0
  -28.4766  -25.3468   19.7817 C   0  0  0  0  0  0
  -29.1770  -22.3356   20.6124 N   0  0  0  0  0  0
  -28.0394  -23.0627   20.7512 N   0  0  0  0  0  0
  -30.1306  -15.3239   21.4300 N   0  0  0  0  0  0
  -31.4605  -12.4130   19.0940 H   0  0  0  0  0  0
  -30.3308  -11.2863   19.7871 H   0  0  0  0  0  0
  -29.7172  -11.7842   17.4115 H   0  0  0  0  0  0
  -29.6477  -13.4941   17.7568 H   0  0  0  0  0  0
  -27.8156  -11.3099   18.8025 H   0  0  0  0  0  0
  -27.3531  -12.6460   17.7833 H   0  0  0  0  0  0
  -27.7142  -14.2514   19.5891 H   0  0  0  0  0  0
  -28.6742  -11.9112   21.3021 H   0  0  0  0  0  0
  -28.4508  -13.5275   21.8831 H   0  0  0  0  0  0
  -25.2744   -9.5692   22.4743 H   0  0  0  0  0  0
  -23.9992   -7.4639   22.7476 H   0  0  0  0  0  0
  -21.0825   -8.8745   19.8942 H   0  0  0  0  0  0
  -22.3662  -10.9656   19.6150 H   0  0  0  0  0  0
  -21.2002   -7.6143   23.9699 H   0  0  0  0  0  0
  -21.1481   -6.0525   25.9068 H   0  0  0  0  0  0
  -22.0604   -2.7604   23.2847 H   0  0  0  0  0  0
  -22.4130  -11.9890   22.4755 H   0  0  0  0  0  0
  -21.1109  -13.1242   22.2586 H   0  0  0  0  0  0
  -24.6772  -15.8490   20.5255 H   0  0  0  0  0  0
  -26.2972  -15.6180   20.1008 H   0  0  0  0  0  0
  -26.7103  -32.5544   23.1145 H   0  0  0  0  0  0
  -24.9974  -33.9763   25.0413 H   0  0  0  0  0  0
  -22.6920  -31.3101   21.4129 H   0  0  0  0  0  0
  -23.3766  -35.9633   23.3288 H   0  0  0  0  0  0
  -24.3578  -36.8962   22.2048 H   0  0  0  0  0  0
  -23.7228  -37.6508   23.6668 H   0  0  0  0  0  0
  -26.0459  -31.5945   20.5970 H   0  0  0  0  0  0
  -26.8170  -30.8788   21.9866 H   0  0  0  0  0  0
  -28.1004  -29.1025   21.1455 H   0  0  0  0  0  0
  -26.0055  -25.9716   19.0138 H   0  0  0  0  0  0
  -23.9642  -27.2893   19.0560 H   0  0  0  0  0  0
  -23.7166  -30.5980   19.4065 H   0  0  0  0  0  0
  -22.7331  -29.2424   19.8750 H   0  0  0  0  0  0
  -25.1281  -36.1981   25.0824 H   0  0  0  0  0  0
  -20.9919  -28.3236   24.1471 H   0  0  0  0  0  0
  -20.5704  -26.2272   23.3602 H   0  0  0  0  0  0
  -21.6637  -26.7486   22.1188 H   0  0  0  0  0  0
  -19.6922  -25.6311   21.1247 H   0  0  0  0  0  0
  -19.6702  -27.3226   20.6757 H   0  0  0  0  0  0
  -17.4186  -26.6687   21.4030 H   0  0  0  0  0  0
  -18.0313  -26.0065   22.9021 H   0  0  0  0  0  0
  -19.7911  -30.7239   24.2353 H   0  0  0  0  0  0
  -17.5005  -31.6285   24.5168 H   0  0  0  0  0  0
  -15.5340  -30.3035   23.7639 H   0  0  0  0  0  0
  -15.8643  -28.0858   22.7078 H   0  0  0  0  0  0
  -24.5851  -30.7095   25.7765 H   0  0  0  0  0  0
  -24.8833  -32.2900   26.4867 H   0  0  0  0  0  0
  -25.7969  -30.8921   27.0243 H   0  0  0  0  0  0
  -26.2851  -29.6855   24.1109 H   0  0  0  0  0  0
  -27.3964  -29.7281   25.4608 H   0  0  0  0  0  0
  -27.8716  -30.4391   23.9352 H   0  0  0  0  0  0
  -27.2655  -33.3643   26.2076 H   0  0  0  0  0  0
  -28.3803  -32.6911   25.0273 H   0  0  0  0  0  0
  -28.0725  -31.8453   26.5370 H   0  0  0  0  0  0
  -28.2578  -38.0125   24.7555 H   0  0  0  0  0  0
  -28.1119  -36.2663   24.6218 H   0  0  0  0  0  0
  -27.2311  -37.1374   25.8854 H   0  0  0  0  0  0
  -20.9315  -29.8773   21.6971 H   0  0  0  0  0  0
  -26.0201  -38.2889   24.1417 H   0  0  0  0  0  0
  -26.7588  -20.0967   20.2729 H   0  0  0  0  0  0
  -22.2453  -21.5917   20.5494 H   0  0  0  0  0  0
  -22.8373  -23.1483   19.9781 H   0  0  0  0  0  0
  -22.8662  -22.7732   21.6996 H   0  0  0  0  0  0
  -30.7978  -20.3890   20.2425 H   0  0  0  0  0  0
  -29.7007  -19.6292   19.1318 H   0  0  0  0  0  0
  -25.3881  -23.6374   20.1217 H   0  0  0  0  0  0
  -25.4090  -23.1915   21.8079 H   0  0  0  0  0  0
  -24.5185  -21.3530   19.5377 H   0  0  0  0  0  0
  -24.5305  -20.9196   21.2317 H   0  0  0  0  0  0
  -28.6634  -18.3258   20.9929 H   0  0  0  0  0  0
  -29.6822  -19.1505   22.1492 H   0  0  0  0  0  0
  -31.7132  -18.2287   21.0004 H   0  0  0  0  0  0
  -30.7174  -17.3457   19.8909 H   0  0  0  0  0  0
  -27.1649  -24.8316   21.4345 H   0  0  0  0  0  0
  -28.8579  -24.6627   21.8050 H   0  0  0  0  0  0
  -30.2304  -16.8584   22.8490 H   0  0  0  0  0  0
  -31.7662  -16.3373   22.2277 H   0  0  0  0  0  0
  -27.8741  -25.0774   18.9164 H   0  0  0  0  0  0
  -29.5003  -25.1132   19.4865 H   0  0  0  0  0  0
  -29.2256  -15.0697   21.8003 H   0  0  0  0  0  0
  1 25  1  0  0  0
  1 30  2  0  0  0
  1 85  1  0  0  0
  2  3  1  0  0  0
  2 25  1  0  0  0
  2 86  1  0  0  0
  2 87  1  0  0  0
  3  4  1  0  0  0
  3 88  1  0  0  0
  3 89  1  0  0  0
  4  5  1  0  0  0
  4 90  1  0  0  0
  4 91  1  0  0  0
  5  6  1  0  0  0
  5 26  1  0  0  0
  5 92  1  0  0  0
  6 25  1  0  0  0
  6 93  1  0  0  0
  6 94  1  0  0  0
  7  8  2  0  0  0
  7 26  1  0  0  0
  7 29  1  0  0  0
  8  9  1  0  0  0
  8 22  1  0  0  0
  9 10  1  0  0  0
  9 27  2  0  0  0
 10 11  2  0  0  0
 10 15  1  0  0  0
 11 12  1  0  0  0
 11 95  1  0  0  0
 12 13  2  0  0  0
 12 96  1  0  0  0
 13 14  1  0  0  0
 13 31  1  0  0  0
 14 15  2  0  0  0
 14 97  1  0  0  0
 15 98  1  0  0  0
 16 17  2  0  0  0
 16 21  1  0  0  0
 16 31  1  0  0  0
 17 18  1  0  0  0
 17 99  1  0  0  0
 18 19  2  0  0  0
 18100  1  0  0  0
 19 20  1  0  0  0
 19 24  1  0  0  0
 20 21  2  0  0  0
 20101  1  0  0  0
 21 23  1  0  0  0
 22 28  1  0  0  0
 22 32  2  0  0  0
 26 27  1  0  0  0
 28102  1  0  0  0
 28103  1  0  0  0
 29104  1  0  0  0
 29105  1  0  0  0
 33 34  1  0  0  0
 33 66  1  0  0  0
 33 70  2  0  0  0
 34 36  1  0  0  0
 34 59  1  0  0  0
 34106  1  0  0  0
 35 44  2  0  0  0
 35 45  1  0  0  0
 35 68  1  0  0  0
 36 56  1  0  0  0
 36107  1  0  0  0
 37 39  1  0  0  0
 37 47  1  0  0  0
 37 66  1  0  0  0
 37108  1  0  0  0
 38 43  2  0  0  0
 38 46  1  0  0  0
 38 47  1  0  0  0
 39 64  1  0  0  0
 39 67  2  0  0  0
 40 52  1  0  0  0
 40 53  2  0  0  0
 40 58  1  0  0  0
 41109  1  0  0  0
 41110  1  0  0  0
 41111  1  0  0  0
 41 48  1  0  0  0
 42 43  1  0  0  0
 42 66  1  0  0  0
 42112  1  0  0  0
 42113  1  0  0  0
 43 44  1  0  0  0
 44114  1  0  0  0
 45 46  2  0  0  0
 45115  1  0  0  0
 46116  1  0  0  0
 47117  1  0  0  0
 47118  1  0  0  0
 48 56  1  0  0  0
 48 65  1  0  0  0
 48119  1  0  0  0
 49 50  1  0  0  0
 49 53  1  0  0  0
 49 64  1  0  0  0
 49120  1  0  0  0
 50 51  1  0  0  0
 50121  1  0  0  0
 50122  1  0  0  0
 51 52  1  0  0  0
 51123  1  0  0  0
 51124  1  0  0  0
 52125  1  0  0  0
 52126  1  0  0  0
 53 54  1  0  0  0
 54 55  2  0  0  0
 54127  1  0  0  0
 55 57  1  0  0  0
 55128  1  0  0  0
 56 69  2  0  0  0
 57 58  2  0  0  0
 57129  1  0  0  0
 58130  1  0  0  0
 59 60  1  0  0  0
 59 61  1  0  0  0
 59 62  1  0  0  0
 60131  1  0  0  0
 60132  1  0  0  0
 60133  1  0  0  0
 61134  1  0  0  0
 61135  1  0  0  0
 61136  1  0  0  0
 62137  1  0  0  0
 62138  1  0  0  0
 62139  1  0  0  0
 63 65  1  0  0  0
 63140  1  0  0  0
 63141  1  0  0  0
 63142  1  0  0  0
 64143  1  0  0  0
 65144  1  0  0  0
 68 82  1  0  0  0
 71 72  1  0  0  0
 71 73  2  0  0  0
 71145  1  0  0  0
 72 75  1  0  0  0
 72 83  2  0  0  0
 73 76  1  0  0  0
 73 84  1  0  0  0
 74 77  1  0  0  0
 74146  1  0  0  0
 74147  1  0  0  0
 74148  1  0  0  0
 75 78  1  0  0  0
 75149  1  0  0  0
 75150  1  0  0  0
 76 77  1  0  0  0
 76151  1  0  0  0
 76152  1  0  0  0
 77153  1  0  0  0
 77154  1  0  0  0
 78 79  1  0  0  0
 78155  1  0  0  0
 78156  1  0  0  0
 79 81  1  0  0  0
 79157  1  0  0  0
 79158  1  0  0  0
 80 82  1  0  0  0
 80 84  1  0  0  0
 80159  1  0  0  0
 80160  1  0  0  0
 81 85  1  0  0  0
 81161  1  0  0  0
 81162  1  0  0  0
 82163  1  0  0  0
 82164  1  0  0  0
 83 84  1  0  0  0
 85165  1  0  0  0
M  ISO  4   1 100  68 101  82 101  85 100
M  END
> <chiral flag>
0

> <version>
0

> <s_m_source_file>
/data/baiqing/PycharmProjects/Reinvent-master-3.2/result/LINK_invent/BTK/process_docking_weight1_custom_sum_contain_oxygen_bond_distance_aromatic_linkinvent_7_9_3/rearranged_h_0041.sdf

> <i_m_source_file_index>
57

> <r_mmod_Potential_Energy-OPLS-2005>
-127.973236083984

> <r_mmod_Stretch_Energy-OPLS-2005>
33.4887351989746

> <r_mmod_Bend_Energy-OPLS-2005>
98.25244140625

> <r_mmod_Torsional_Energy-OPLS-2005>
203.728973388672

> <r_mmod_Improper_Torsional_Energy-OPLS-2005>
1.90896892547607

> <r_mmod_Van_der_Waal_Energy-OPLS-2005>
124.545524597168

> <r_mmod_Electrostatic_Energy-OPLS-2005>
-385.039733886719

> <r_mmod_Solvation_Energy-OPLS-2005>
-214.640563964844

> <b_mmod_Minimization_Converged-OPLS-2005>
0

> <r_mmod_RMS_Derivative-OPLS-2005>
1.71218430995941

$$$$
57
                    3D
 Structure written by MMmdl.
162170  0  0  1  0            999 V2000
  -30.6049  -14.7715   20.4849 C   0  0  0  0  0  0
  -30.4339  -12.4829   19.4777 C   0  0  0  0  0  0
  -29.5103  -12.5202   18.2411 C   0  0  0  0  0  0
  -28.0375  -12.3328   18.6543 C   0  0  0  0  0  0
  -27.6371  -13.2372   19.8505 C   0  0  2  0  0  0
  -28.6805  -13.1801   20.9872 C   0  0  0  0  0  0
  -25.2464  -13.8223   20.5707 C   0  0  0  0  0  0
  -24.1768  -13.0445   20.9226 C   0  0  0  0  0  0
  -24.6366  -11.6918   20.8756 C   0  0  0  0  0  0
  -23.9055  -10.4280   21.0388 C   0  0  0  0  0  0
  -24.3615   -9.4194   21.9163 C   0  0  0  0  0  0
  -23.6300   -8.2223   22.0737 C   0  0  0  0  0  0
  -22.4280   -8.0249   21.3531 C   0  0  0  0  0  0
  -21.9911   -9.0200   20.4629 C   0  0  0  0  0  0
  -22.7222  -10.2092   20.3031 C   0  0  0  0  0  0
  -21.6849   -6.0713   22.5265 C   0  0  0  0  0  0
  -21.4014   -6.5630   23.8204 C   0  0  0  0  0  0
  -21.3668   -5.6791   24.9167 C   0  0  0  0  0  0
  -21.6048   -4.3055   24.7219 C   0  0  0  0  0  0
  -21.8826   -3.8129   23.4354 C   0  0  0  0  0  0
  -21.9195   -4.6944   22.3404 C   0  0  0  0  0  0
  -22.7775  -13.5188   21.1875 C   0  0  0  0  0  0
  -22.1653   -4.2125   21.0983 F   0  0  0  0  0  0
  -21.5632   -3.4547   25.7746 F   0  0  0  0  0  0
  -29.9787  -13.5445   20.4076 N   0  0  0  0  0  0
  -26.2895  -12.9432   20.3279 N   0  0  0  0  0  0
  -25.9305  -11.6572   20.5766 N   0  0  0  0  0  0
  -22.0437  -12.8159   22.0437 N   0  0  0  0  0  0
  -25.4179  -15.1948   20.4125 N   0  0  0  0  0  0
  -31.7928  -14.8659   20.1653 O   0  0  0  0  0  0
  -21.6648   -6.8841   21.4228 O   0  0  0  0  0  0
  -22.3435  -14.5462   20.6686 O   0  0  0  0  0  0
  -24.6311  -31.8544   23.1986 C   0  0  0  0  0  0
  -25.9124  -32.4758   23.8342 C   0  0  1  0  0  0
  -27.2275  -27.2615   20.1497 C   0  0  0  0  0  0
  -25.5921  -33.8560   24.2275 N   0  0  0  0  0  0
  -23.4293  -30.4745   21.5416 C   0  0  2  0  0  0
  -24.8812  -28.9133   20.1166 C   0  0  0  0  0  0
  -22.7492  -29.4592   22.4919 C   0  0  0  0  0  0
  -18.0284  -28.1380   22.8488 C   0  0  0  0  0  0
  -24.1485  -36.7287   23.2645 C   0  0  0  0  0  0
  -25.9738  -30.7663   21.3780 C   0  0  0  0  0  0
  -26.0513  -29.3872   20.7256 C   0  0  0  0  0  0
  -27.2304  -28.5748   20.7275 C   0  0  0  0  0  0
  -26.0387  -26.8462   19.5188 C   0  0  0  0  0  0
  -24.8791  -27.6498   19.5016 C   0  0  0  0  0  0
  -23.6515  -29.8019   20.1602 C   0  0  0  0  0  0
  -25.4108  -36.3080   24.0340 C   0  0  1  0  0  0
  -20.5890  -28.3689   23.1274 C   0  0  2  0  0  0
  -20.6764  -26.9404   22.5411 C   0  0  0  0  0  0
  -19.5742  -26.6374   21.5209 C   0  0  0  0  0  0
  -18.1924  -26.7925   22.1622 C   0  0  0  0  0  0
  -19.1540  -28.8848   23.2879 C   0  0  0  0  0  0
  -18.9465  -30.1449   23.8899 C   0  0  0  0  0  0
  -17.6463  -30.6587   24.0558 C   0  0  0  0  0  0
  -25.9047  -34.9448   23.5114 C   0  0  0  0  0  0
  -16.5353  -29.9083   23.6328 C   0  0  0  0  0  0
  -16.7268  -28.6495   23.0356 C   0  0  0  0  0  0
  -26.4491  -31.6581   25.0730 C   0  0  0  0  0  0
  -25.3724  -31.3718   26.1455 C   0  0  0  0  0  0
  -27.0345  -30.3007   24.6209 C   0  0  0  0  0  0
  -27.6057  -32.4313   25.7495 C   0  0  0  0  0  0
  -27.5580  -37.1795   24.8465 C   0  0  0  0  0  0
  -21.4200  -29.3046   22.3665 N   0  0  0  0  0  0
  -26.4287  -37.3778   23.9418 N   0  0  0  0  0  0
  -24.6975  -31.0491   22.0971 N   0  0  0  0  0  0
  -23.4179  -28.8125   23.3023 O   0  0  0  0  0  0
  -28.3181  -26.3665   20.1464 O   0  0  0  0  0  0
  -26.5624  -34.8925   22.4686 O   0  0  0  0  0  0
  -23.5453  -32.1372   23.7266 O   0  0  0  0  0  0
  -27.6916  -23.0087   19.3068 C   0  0  0  0  0  0
  -28.4108  -23.6361   20.3625 C   0  0  0  0  0  0
  -28.0490  -21.6729   19.2906 C   0  0  0  0  0  0
  -28.8573  -18.6343   15.2621 C   0  0  0  0  0  0
  -28.2118  -25.1076   20.9586 C   0  0  0  0  0  0
  -27.5283  -20.6162   18.3672 C   0  0  0  0  0  0
  -27.9287  -19.0377   16.4116 C   0  0  0  0  0  0
  -28.5166  -20.1636   17.2796 C   0  0  0  0  0  0
  -29.2588  -18.6266   20.5096 C   0  0  0  0  0  0
  -29.7773  -20.1667   20.6917 C   0  0  0  0  0  0
  -30.2894  -17.3901   20.7855 C   0  0  0  0  0  0
  -29.1797  -22.6598   20.9401 N   0  0  0  0  0  0
  -28.9643  -21.4253   20.3152 N   0  0  0  0  0  0
  -29.8473  -15.9151   20.7346 N   0  0  0  0  0  0
  -31.4703  -12.6247   19.1671 H   0  0  0  0  0  0
  -30.3941  -11.5070   19.9642 H   0  0  0  0  0  0
  -29.8008  -11.7465   17.5295 H   0  0  0  0  0  0
  -29.6266  -13.4748   17.7258 H   0  0  0  0  0  0
  -27.8990  -11.2839   18.9193 H   0  0  0  0  0  0
  -27.3809  -12.5207   17.8045 H   0  0  0  0  0  0
  -27.6265  -14.2577   19.4656 H   0  0  0  0  0  0
  -28.7228  -12.1829   21.4266 H   0  0  0  0  0  0
  -28.4080  -13.8611   21.7954 H   0  0  0  0  0  0
  -25.2749   -9.5698   22.4749 H   0  0  0  0  0  0
  -24.0015   -7.4628   22.7467 H   0  0  0  0  0  0
  -21.0832   -8.8686   19.8946 H   0  0  0  0  0  0
  -22.3632  -10.9614   19.6148 H   0  0  0  0  0  0
  -21.1998   -7.6135   23.9688 H   0  0  0  0  0  0
  -21.1498   -6.0532   25.9074 H   0  0  0  0  0  0
  -22.0607   -2.7586   23.2862 H   0  0  0  0  0  0
  -22.4089  -11.9860   22.4881 H   0  0  0  0  0  0
  -21.1017  -13.1113   22.2589 H   0  0  0  0  0  0
  -24.6594  -15.8588   20.5295 H   0  0  0  0  0  0
  -26.2683  -15.6232   20.0691 H   0  0  0  0  0  0
  -26.7189  -32.5418   23.1083 H   0  0  0  0  0  0
  -25.0056  -33.9689   25.0410 H   0  0  0  0  0  0
  -22.7268  -31.2977   21.3912 H   0  0  0  0  0  0
  -23.3763  -35.9604   23.3290 H   0  0  0  0  0  0
  -24.3578  -36.8918   22.2062 H   0  0  0  0  0  0
  -23.7212  -37.6476   23.6671 H   0  0  0  0  0  0
  -26.1060  -31.5197   20.6005 H   0  0  0  0  0  0
  -26.8532  -30.8238   22.0082 H   0  0  0  0  0  0
  -28.1283  -28.9330   21.2108 H   0  0  0  0  0  0
  -26.0004  -25.8728   19.0505 H   0  0  0  0  0  0
  -23.9834  -27.2775   19.0241 H   0  0  0  0  0  0
  -23.7806  -30.5773   19.4045 H   0  0  0  0  0  0
  -22.7689  -29.2377   19.8529 H   0  0  0  0  0  0
  -25.1282  -36.1936   25.0833 H   0  0  0  0  0  0
  -20.9978  -28.3264   24.1396 H   0  0  0  0  0  0
  -20.5634  -26.2301   23.3620 H   0  0  0  0  0  0
  -21.6632  -26.7406   22.1217 H   0  0  0  0  0  0
  -19.6898  -25.6279   21.1245 H   0  0  0  0  0  0
  -19.6685  -27.3182   20.6742 H   0  0  0  0  0  0
  -17.4187  -26.6674   21.4030 H   0  0  0  0  0  0
  -18.0328  -26.0064   22.9018 H   0  0  0  0  0  0
  -19.7939  -30.7263   24.2274 H   0  0  0  0  0  0
  -17.5016  -31.6269   24.5154 H   0  0  0  0  0  0
  -15.5352  -30.2983   23.7657 H   0  0  0  0  0  0
  -15.8666  -28.0811   22.7082 H   0  0  0  0  0  0
  -24.5900  -30.7060   25.7781 H   0  0  0  0  0  0
  -24.8910  -32.2880   26.4896 H   0  0  0  0  0  0
  -25.8047  -30.8883   27.0227 H   0  0  0  0  0  0
  -26.2933  -29.6745   24.1231 H   0  0  0  0  0  0
  -27.4033  -29.7272   25.4722 H   0  0  0  0  0  0
  -27.8803  -30.4292   23.9453 H   0  0  0  0  0  0
  -27.2691  -33.3636   26.2047 H   0  0  0  0  0  0
  -28.3885  -32.6828   25.0326 H   0  0  0  0  0  0
  -28.0709  -31.8449   26.5429 H   0  0  0  0  0  0
  -28.2588  -38.0104   24.7528 H   0  0  0  0  0  0
  -28.1090  -36.2636   24.6268 H   0  0  0  0  0  0
  -27.2307  -37.1409   25.8871 H   0  0  0  0  0  0
  -20.9380  -29.8788   21.6892 H   0  0  0  0  0  0
  -26.0176  -38.2856   24.1420 H   0  0  0  0  0  0
  -26.9606  -23.4810   18.6657 H   0  0  0  0  0  0
  -28.4370  -17.8030   14.6940 H   0  0  0  0  0  0
  -29.8321  -18.3195   15.6350 H   0  0  0  0  0  0
  -29.0155  -19.4643   14.5711 H   0  0  0  0  0  0
  -28.9262  -25.2409   21.7711 H   0  0  0  0  0  0
  -27.2447  -25.1236   21.4632 H   0  0  0  0  0  0
  -26.6331  -20.9985   17.8767 H   0  0  0  0  0  0
  -27.1779  -19.7640   18.9493 H   0  0  0  0  0  0
  -27.7313  -18.1623   17.0318 H   0  0  0  0  0  0
  -26.9591  -19.3435   16.0131 H   0  0  0  0  0  0
  -29.4504  -19.8261   17.7302 H   0  0  0  0  0  0
  -28.7770  -21.0176   16.6521 H   0  0  0  0  0  0
  -28.9020  -18.4950   19.4925 H   0  0  0  0  0  0
  -28.3836  -18.5033   21.1473 H   0  0  0  0  0  0
  -30.7248  -20.2533   20.1596 H   0  0  0  0  0  0
  -30.0419  -20.2774   21.7447 H   0  0  0  0  0  0
  -30.7264  -17.5461   21.7740 H   0  0  0  0  0  0
  -31.1233  -17.5028   20.0900 H   0  0  0  0  0  0
  -28.8779  -15.7429   20.9581 H   0  0  0  0  0  0
  1 25  1  0  0  0
  1 30  2  0  0  0
  1 84  1  0  0  0
  2  3  1  0  0  0
  2 25  1  0  0  0
  2 85  1  0  0  0
  2 86  1  0  0  0
  3  4  1  0  0  0
  3 87  1  0  0  0
  3 88  1  0  0  0
  4  5  1  0  0  0
  4 89  1  0  0  0
  4 90  1  0  0  0
  5  6  1  0  0  0
  5 26  1  0  0  0
  5 91  1  0  0  0
  6 25  1  0  0  0
  6 92  1  0  0  0
  6 93  1  0  0  0
  7  8  2  0  0  0
  7 26  1  0  0  0
  7 29  1  0  0  0
  8  9  1  0  0  0
  8 22  1  0  0  0
  9 10  1  0  0  0
  9 27  2  0  0  0
 10 11  2  0  0  0
 10 15  1  0  0  0
 11 12  1  0  0  0
 11 94  1  0  0  0
 12 13  2  0  0  0
 12 95  1  0  0  0
 13 14  1  0  0  0
 13 31  1  0  0  0
 14 15  2  0  0  0
 14 96  1  0  0  0
 15 97  1  0  0  0
 16 17  2  0  0  0
 16 21  1  0  0  0
 16 31  1  0  0  0
 17 18  1  0  0  0
 17 98  1  0  0  0
 18 19  2  0  0  0
 18 99  1  0  0  0
 19 20  1  0  0  0
 19 24  1  0  0  0
 20 21  2  0  0  0
 20100  1  0  0  0
 21 23  1  0  0  0
 22 28  1  0  0  0
 22 32  2  0  0  0
 26 27  1  0  0  0
 28101  1  0  0  0
 28102  1  0  0  0
 29103  1  0  0  0
 29104  1  0  0  0
 33 34  1  0  0  0
 33 66  1  0  0  0
 33 70  2  0  0  0
 34 36  1  0  0  0
 34 59  1  0  0  0
 34105  1  0  0  0
 35 44  2  0  0  0
 35 45  1  0  0  0
 35 68  1  0  0  0
 36 56  1  0  0  0
 36106  1  0  0  0
 37 39  1  0  0  0
 37 47  1  0  0  0
 37 66  1  0  0  0
 37107  1  0  0  0
 38 43  2  0  0  0
 38 46  1  0  0  0
 38 47  1  0  0  0
 39 64  1  0  0  0
 39 67  2  0  0  0
 40 52  1  0  0  0
 40 53  2  0  0  0
 40 58  1  0  0  0
 41108  1  0  0  0
 41109  1  0  0  0
 41110  1  0  0  0
 41 48  1  0  0  0
 42 43  1  0  0  0
 42 66  1  0  0  0
 42111  1  0  0  0
 42112  1  0  0  0
 43 44  1  0  0  0
 44113  1  0  0  0
 45 46  2  0  0  0
 45114  1  0  0  0
 46115  1  0  0  0
 47116  1  0  0  0
 47117  1  0  0  0
 48 56  1  0  0  0
 48 65  1  0  0  0
 48118  1  0  0  0
 49 50  1  0  0  0
 49 53  1  0  0  0
 49 64  1  0  0  0
 49119  1  0  0  0
 50 51  1  0  0  0
 50120  1  0  0  0
 50121  1  0  0  0
 51 52  1  0  0  0
 51122  1  0  0  0
 51123  1  0  0  0
 52124  1  0  0  0
 52125  1  0  0  0
 53 54  1  0  0  0
 54 55  2  0  0  0
 54126  1  0  0  0
 55 57  1  0  0  0
 55127  1  0  0  0
 56 69  2  0  0  0
 57 58  2  0  0  0
 57128  1  0  0  0
 58129  1  0  0  0
 59 60  1  0  0  0
 59 61  1  0  0  0
 59 62  1  0  0  0
 60130  1  0  0  0
 60131  1  0  0  0
 60132  1  0  0  0
 61133  1  0  0  0
 61134  1  0  0  0
 61135  1  0  0  0
 62136  1  0  0  0
 62137  1  0  0  0
 62138  1  0  0  0
 63 65  1  0  0  0
 63139  1  0  0  0
 63140  1  0  0  0
 63141  1  0  0  0
 64142  1  0  0  0
 65143  1  0  0  0
 68 75  1  0  0  0
 71 72  1  0  0  0
 71 73  2  0  0  0
 71144  1  0  0  0
 72 75  1  0  0  0
 72 82  2  0  0  0
 73 76  1  0  0  0
 73 83  1  0  0  0
 74 77  1  0  0  0
 74145  1  0  0  0
 74146  1  0  0  0
 74147  1  0  0  0
 75148  1  0  0  0
 75149  1  0  0  0
 76 78  1  0  0  0
 76150  1  0  0  0
 76151  1  0  0  0
 77 78  1  0  0  0
 77152  1  0  0  0
 77153  1  0  0  0
 78154  1  0  0  0
 78155  1  0  0  0
 79 80  1  0  0  0
 79 81  1  0  0  0
 79156  1  0  0  0
 79157  1  0  0  0
 80 83  1  0  0  0
 80158  1  0  0  0
 80159  1  0  0  0
 81 84  1  0  0  0
 81160  1  0  0  0
 81161  1  0  0  0
 82 83  1  0  0  0
 84162  1  0  0  0
M  ISO  4   1 100  68 101  75 101  84 100
M  END
> <chiral flag>
0

> <version>
0

> <s_m_source_file>
/data/baiqing/PycharmProjects/Reinvent-master-3.2/result/LINK_invent/BTK/process_docking_weight1_custom_sum_contain_oxygen_bond_distance_aromatic_linkinvent_7_9_3/rearranged_h_0041.sdf

> <i_m_source_file_index>
58

> <r_mmod_Potential_Energy-OPLS-2005>
194.197998046875

> <r_mmod_Stretch_Energy-OPLS-2005>
134.424270629883

> <r_mmod_Bend_Energy-OPLS-2005>
181.195159912109

> <r_mmod_Torsional_Energy-OPLS-2005>
247.92692565918

> <r_mmod_Improper_Torsional_Energy-OPLS-2005>
5.30235910415649

> <r_mmod_Van_der_Waal_Energy-OPLS-2005>
104.655563354492

> <r_mmod_Electrostatic_Energy-OPLS-2005>
-350.126434326172

> <r_mmod_Solvation_Energy-OPLS-2005>
-220.428497314453

> <b_mmod_Minimization_Converged-OPLS-2005>
0

> <r_mmod_RMS_Derivative-OPLS-2005>
2.51341485977173

$$$$
58
                    3D
 Structure written by MMmdl.
177186  0  0  1  0            999 V2000
  -30.7750  -14.4832   20.4454 C   0  0  0  0  0  0
  -30.3973  -12.2993   19.4096 C   0  0  0  0  0  0
  -29.4702  -12.4445   18.1896 C   0  0  0  0  0  0
  -28.0010  -12.2909   18.6242 C   0  0  0  0  0  0
  -27.6351  -13.1961   19.8296 C   0  0  2  0  0  0
  -28.6992  -13.1398   20.9521 C   0  0  0  0  0  0
  -25.2511  -13.8126   20.5724 C   0  0  0  0  0  0
  -24.1779  -13.0412   20.9233 C   0  0  0  0  0  0
  -24.6342  -11.6869   20.8743 C   0  0  0  0  0  0
  -23.9036  -10.4270   21.0424 C   0  0  0  0  0  0
  -24.3603   -9.4189   21.9197 C   0  0  0  0  0  0
  -23.6288   -8.2224   22.0748 C   0  0  0  0  0  0
  -22.4266   -8.0260   21.3556 C   0  0  0  0  0  0
  -21.9916   -9.0228   20.4645 C   0  0  0  0  0  0
  -22.7226  -10.2123   20.3055 C   0  0  0  0  0  0
  -21.6848   -6.0720   22.5273 C   0  0  0  0  0  0
  -21.4020   -6.5644   23.8198 C   0  0  0  0  0  0
  -21.3662   -5.6804   24.9169 C   0  0  0  0  0  0
  -21.6021   -4.3062   24.7221 C   0  0  0  0  0  0
  -21.8819   -3.8152   23.4359 C   0  0  0  0  0  0
  -21.9189   -4.6956   22.3402 C   0  0  0  0  0  0
  -22.7822  -13.5189   21.1896 C   0  0  0  0  0  0
  -22.1657   -4.2134   21.0977 F   0  0  0  0  0  0
  -21.5623   -3.4542   25.7753 F   0  0  0  0  0  0
  -30.0107  -13.3692   20.3361 N   0  0  0  0  0  0
  -26.2909  -12.9265   20.3282 N   0  0  0  0  0  0
  -25.9254  -11.6447   20.5783 N   0  0  0  0  0  0
  -22.0481  -12.8161   22.0448 N   0  0  0  0  0  0
  -25.4153  -15.1860   20.4147 N   0  0  0  0  0  0
  -31.9967  -14.4527   20.4028 O   0  0  0  0  0  0
  -21.6632   -6.8871   21.4241 O   0  0  0  0  0  0
  -22.3505  -14.5512   20.6747 O   0  0  0  0  0  0
  -24.6326  -31.8638   23.2062 C   0  0  0  0  0  0
  -25.9142  -32.4889   23.8377 C   0  0  1  0  0  0
  -27.2532  -27.4684   20.0357 C   0  0  0  0  0  0
  -25.5893  -33.8660   24.2308 N   0  0  0  0  0  0
  -23.5811  -30.2365   21.6646 C   0  0  2  0  0  0
  -24.9039  -29.0189   19.9726 C   0  0  0  0  0  0
  -22.6918  -29.4589   22.6534 C   0  0  0  0  0  0
  -18.0026  -28.1425   22.8431 C   0  0  0  0  0  0
  -24.1487  -36.7350   23.2635 C   0  0  0  0  0  0
  -25.9713  -30.8961   21.3082 C   0  0  0  0  0  0
  -26.0699  -29.5462   20.5713 C   0  0  0  0  0  0
  -27.2450  -28.7630   20.6034 C   0  0  0  0  0  0
  -26.0769  -26.9743   19.4298 C   0  0  0  0  0  0
  -24.8996  -27.7323   19.4167 C   0  0  0  0  0  0
  -23.6152  -29.7889   20.1843 C   0  0  0  0  0  0
  -25.4107  -36.3140   24.0326 C   0  0  1  0  0  0
  -20.5459  -28.3731   23.1220 C   0  0  2  0  0  0
  -20.6523  -26.9456   22.5355 C   0  0  0  0  0  0
  -19.5511  -26.6347   21.5198 C   0  0  0  0  0  0
  -18.1725  -26.7906   22.1695 C   0  0  0  0  0  0
  -19.1240  -28.8929   23.2747 C   0  0  0  0  0  0
  -18.9257  -30.1532   23.8787 C   0  0  0  0  0  0
  -17.6284  -30.6641   24.0566 C   0  0  0  0  0  0
  -25.9021  -34.9516   23.5116 C   0  0  0  0  0  0
  -16.5168  -29.9134   23.6356 C   0  0  0  0  0  0
  -16.7042  -28.6552   23.0338 C   0  0  0  0  0  0
  -26.4572  -31.6625   25.0682 C   0  0  0  0  0  0
  -25.3832  -31.3645   26.1401 C   0  0  0  0  0  0
  -27.0380  -30.3064   24.6010 C   0  0  0  0  0  0
  -27.6139  -32.4309   25.7474 C   0  0  0  0  0  0
  -27.5580  -37.1835   24.8460 C   0  0  0  0  0  0
  -21.3932  -29.3104   22.3816 N   0  0  0  0  0  0
  -26.4286  -37.3819   23.9424 N   0  0  0  0  0  0
  -24.6991  -31.1235   22.0640 N   0  0  0  0  0  0
  -23.2040  -28.8742   23.6251 O   0  0  0  0  0  0
  -28.3881  -26.6916   20.1377 O   0  0  0  0  0  0
  -26.5590  -34.8979   22.4686 O   0  0  0  0  0  0
  -23.5502  -32.1032   23.7555 O   0  0  0  0  0  0
  -27.6545  -18.6857   17.0495 C   0  0  0  0  0  0
  -28.3170  -18.3536   18.2162 C   0  0  0  0  0  0
  -27.0075  -20.4431   18.3434 C   0  0  0  0  0  0
  -26.5125  -21.2550   22.3282 C   0  0  0  0  0  0
  -25.0250  -21.3915   21.9697 C   0  0  0  0  0  0
  -27.3696  -22.5071   22.0411 C   0  0  0  0  0  0
  -25.3622  -23.6798   20.8604 C   0  0  0  0  0  0
  -24.7382  -22.2640   20.7306 C   0  0  1  0  0  0
  -26.5355  -23.7912   21.8750 C   0  0  2  0  0  0
  -28.7514  -18.7206   14.7942 C   0  0  0  0  0  0
  -27.7312  -18.0243   15.7034 C   0  0  0  0  0  0
  -29.3055  -17.2477   18.4441 C   0  0  0  0  0  0
  -26.3358  -21.7261   18.6967 C   0  0  0  0  0  0
  -24.9593  -21.5462   19.3689 C   0  0  0  0  0  0
  -27.3934  -25.0653   21.7179 C   0  0  0  0  0  0
  -29.2768  -16.5005   19.8016 C   0  0  0  0  0  0
  -28.1842  -25.2914   20.3895 C   0  0  0  0  0  0
  -26.8911  -19.8508   17.1550 N   0  0  0  0  0  0
  -30.3547  -15.5231   19.7225 N   0  0  0  0  0  0
  -28.0444  -19.5553   19.4485 S   0  0  0  0  0  0
  -31.4400  -12.3722   19.0934 H   0  0  0  0  0  0
  -30.2835  -11.3193   19.8800 H   0  0  0  0  0  0
  -29.7199  -11.7023   17.4301 H   0  0  0  0  0  0
  -29.6106  -13.4222   17.7243 H   0  0  0  0  0  0
  -27.8459  -11.2455   18.8917 H   0  0  0  0  0  0
  -27.3345  -12.4939   17.7854 H   0  0  0  0  0  0
  -27.6195  -14.1960   19.4146 H   0  0  0  0  0  0
  -28.6839  -12.1737   21.4552 H   0  0  0  0  0  0
  -28.4960  -13.8987   21.7103 H   0  0  0  0  0  0
  -25.2751   -9.5649   22.4769 H   0  0  0  0  0  0
  -23.9978   -7.4603   22.7460 H   0  0  0  0  0  0
  -21.0857   -8.8749   19.8948 H   0  0  0  0  0  0
  -22.3691  -10.9658   19.6151 H   0  0  0  0  0  0
  -21.2027   -7.6143   23.9718 H   0  0  0  0  0  0
  -21.1482   -6.0521   25.9073 H   0  0  0  0  0  0
  -22.0601   -2.7607   23.2852 H   0  0  0  0  0  0
  -22.4165  -11.9813   22.4793 H   0  0  0  0  0  0
  -21.1081  -13.1123   22.2669 H   0  0  0  0  0  0
  -24.6434  -15.8293   20.5444 H   0  0  0  0  0  0
  -26.2611  -15.6446   20.1054 H   0  0  0  0  0  0
  -26.7205  -32.5663   23.1153 H   0  0  0  0  0  0
  -25.0062  -33.9775   25.0468 H   0  0  0  0  0  0
  -24.2378  -29.4481   21.9922 H   0  0  0  0  0  0
  -23.3740  -35.9692   23.3318 H   0  0  0  0  0  0
  -24.3515  -36.8963   22.2030 H   0  0  0  0  0  0
  -23.7256  -37.6575   23.6637 H   0  0  0  0  0  0
  -26.0815  -31.7052   20.5839 H   0  0  0  0  0  0
  -26.8577  -30.9210   21.9349 H   0  0  0  0  0  0
  -28.1315  -29.1315   21.0986 H   0  0  0  0  0  0
  -26.0437  -25.9938   18.9831 H   0  0  0  0  0  0
  -23.9936  -27.3110   19.0048 H   0  0  0  0  0  0
  -23.5809  -30.6509   19.5174 H   0  0  0  0  0  0
  -22.7576  -29.1600   19.9386 H   0  0  0  0  0  0
  -25.1288  -36.1988   25.0803 H   0  0  0  0  0  0
  -20.9039  -28.3136   24.1528 H   0  0  0  0  0  0
  -20.5487  -26.2340   23.3553 H   0  0  0  0  0  0
  -21.6410  -26.7573   22.1161 H   0  0  0  0  0  0
  -19.6672  -25.6233   21.1309 H   0  0  0  0  0  0
  -19.6396  -27.3085   20.6670 H   0  0  0  0  0  0
  -17.3924  -26.6500   21.4188 H   0  0  0  0  0  0
  -18.0240  -26.0146   22.9220 H   0  0  0  0  0  0
  -19.7771  -30.7338   24.2079 H   0  0  0  0  0  0
  -17.4854  -31.6309   24.5212 H   0  0  0  0  0  0
  -15.5182  -30.3026   23.7731 H   0  0  0  0  0  0
  -15.8415  -28.0883   22.7086 H   0  0  0  0  0  0
  -24.6027  -30.7001   25.7686 H   0  0  0  0  0  0
  -24.9011  -32.2747   26.4963 H   0  0  0  0  0  0
  -25.8173  -30.8703   27.0088 H   0  0  0  0  0  0
  -26.2854  -29.6723   24.1296 H   0  0  0  0  0  0
  -27.4377  -29.7425   25.4455 H   0  0  0  0  0  0
  -27.8603  -30.4385   23.8963 H   0  0  0  0  0  0
  -27.2784  -33.3607   26.2093 H   0  0  0  0  0  0
  -28.3969  -32.6866   25.0314 H   0  0  0  0  0  0
  -28.0781  -31.8371   26.5357 H   0  0  0  0  0  0
  -28.2620  -38.0121   24.7521 H   0  0  0  0  0  0
  -28.1056  -36.2648   24.6289 H   0  0  0  0  0  0
  -27.2266  -37.1521   25.8852 H   0  0  0  0  0  0
  -20.9903  -29.7947   21.5908 H   0  0  0  0  0  0
  -26.0187  -38.2901   24.1430 H   0  0  0  0  0  0
  -26.9333  -20.4043   21.8005 H   0  0  0  0  0  0
  -26.5858  -20.9925   23.3860 H   0  0  0  0  0  0
  -24.5106  -21.8382   22.8223 H   0  0  0  0  0  0
  -24.5746  -20.4041   21.8642 H   0  0  0  0  0  0
  -28.0033  -22.3452   21.1720 H   0  0  0  0  0  0
  -28.0689  -22.6364   22.8704 H   0  0  0  0  0  0
  -24.5801  -24.3687   21.1770 H   0  0  0  0  0  0
  -25.6405  -24.0451   19.8772 H   0  0  0  0  0  0
  -23.6571  -22.4167   20.7523 H   0  0  0  0  0  0
  -26.0456  -23.9121   22.8420 H   0  0  0  0  0  0
  -29.7546  -18.6962   15.2255 H   0  0  0  0  0  0
  -28.4736  -19.7621   14.6403 H   0  0  0  0  0  0
  -28.7928  -18.2446   13.8150 H   0  0  0  0  0  0
  -27.9805  -16.9679   15.7976 H   0  0  0  0  0  0
  -26.7575  -18.0516   15.2128 H   0  0  0  0  0  0
  -30.2972  -17.6782   18.3056 H   0  0  0  0  0  0
  -29.2136  -16.5056   17.6531 H   0  0  0  0  0  0
  -26.2298  -22.3303   17.7937 H   0  0  0  0  0  0
  -27.0163  -22.2865   19.3240 H   0  0  0  0  0  0
  -24.2126  -21.9017   18.6545 H   0  0  0  0  0  0
  -24.7295  -20.4853   19.4851 H   0  0  0  0  0  0
  -28.1027  -25.1102   22.5439 H   0  0  0  0  0  0
  -26.7108  -25.8940   21.9013 H   0  0  0  0  0  0
  -28.3083  -16.0616   20.0045 H   0  0  0  0  0  0
  -29.4866  -17.1819   20.6276 H   0  0  0  0  0  0
  -27.7408  -24.8008   19.5201 H   0  0  0  0  0  0
  -29.1757  -24.8432   20.4844 H   0  0  0  0  0  0
  -31.1870  -15.9710   19.3716 H   0  0  0  0  0  0
  1 25  1  0  0  0
  1 30  2  0  0  0
  1 89  1  0  0  0
  2  3  1  0  0  0
  2 25  1  0  0  0
  2 91  1  0  0  0
  2 92  1  0  0  0
  3  4  1  0  0  0
  3 93  1  0  0  0
  3 94  1  0  0  0
  4  5  1  0  0  0
  4 95  1  0  0  0
  4 96  1  0  0  0
  5  6  1  0  0  0
  5 26  1  0  0  0
  5 97  1  0  0  0
  6 25  1  0  0  0
  6 98  1  0  0  0
  6 99  1  0  0  0
  7  8  2  0  0  0
  7 26  1  0  0  0
  7 29  1  0  0  0
  8  9  1  0  0  0
  8 22  1  0  0  0
  9 10  1  0  0  0
  9 27  2  0  0  0
 10 11  2  0  0  0
 10 15  1  0  0  0
 11 12  1  0  0  0
 11100  1  0  0  0
 12 13  2  0  0  0
 12101  1  0  0  0
 13 14  1  0  0  0
 13 31  1  0  0  0
 14 15  2  0  0  0
 14102  1  0  0  0
 15103  1  0  0  0
 16 17  2  0  0  0
 16 21  1  0  0  0
 16 31  1  0  0  0
 17 18  1  0  0  0
 17104  1  0  0  0
 18 19  2  0  0  0
 18105  1  0  0  0
 19 20  1  0  0  0
 19 24  1  0  0  0
 20 21  2  0  0  0
 20106  1  0  0  0
 21 23  1  0  0  0
 22 28  1  0  0  0
 22 32  2  0  0  0
 26 27  1  0  0  0
 28107  1  0  0  0
 28108  1  0  0  0
 29109  1  0  0  0
 29110  1  0  0  0
 33 34  1  0  0  0
 33 66  1  0  0  0
 33 70  2  0  0  0
 34 36  1  0  0  0
 34 59  1  0  0  0
 34111  1  0  0  0
 35 44  2  0  0  0
 35 45  1  0  0  0
 35 68  1  0  0  0
 36 56  1  0  0  0
 36112  1  0  0  0
 37 39  1  0  0  0
 37 47  1  0  0  0
 37 66  1  0  0  0
 37113  1  0  0  0
 38 43  2  0  0  0
 38 46  1  0  0  0
 38 47  1  0  0  0
 39 64  1  0  0  0
 39 67  2  0  0  0
 40 52  1  0  0  0
 40 53  2  0  0  0
 40 58  1  0  0  0
 41114  1  0  0  0
 41115  1  0  0  0
 41116  1  0  0  0
 41 48  1  0  0  0
 42 43  1  0  0  0
 42 66  1  0  0  0
 42117  1  0  0  0
 42118  1  0  0  0
 43 44  1  0  0  0
 44119  1  0  0  0
 45 46  2  0  0  0
 45120  1  0  0  0
 46121  1  0  0  0
 47122  1  0  0  0
 47123  1  0  0  0
 48 56  1  0  0  0
 48 65  1  0  0  0
 48124  1  0  0  0
 49 50  1  0  0  0
 49 53  1  0  0  0
 49 64  1  0  0  0
 49125  1  0  0  0
 50 51  1  0  0  0
 50126  1  0  0  0
 50127  1  0  0  0
 51 52  1  0  0  0
 51128  1  0  0  0
 51129  1  0  0  0
 52130  1  0  0  0
 52131  1  0  0  0
 53 54  1  0  0  0
 54 55  2  0  0  0
 54132  1  0  0  0
 55 57  1  0  0  0
 55133  1  0  0  0
 56 69  2  0  0  0
 57 58  2  0  0  0
 57134  1  0  0  0
 58135  1  0  0  0
 59 60  1  0  0  0
 59 61  1  0  0  0
 59 62  1  0  0  0
 60136  1  0  0  0
 60137  1  0  0  0
 60138  1  0  0  0
 61139  1  0  0  0
 61140  1  0  0  0
 61141  1  0  0  0
 62142  1  0  0  0
 62143  1  0  0  0
 62144  1  0  0  0
 63 65  1  0  0  0
 63145  1  0  0  0
 63146  1  0  0  0
 63147  1  0  0  0
 64148  1  0  0  0
 65149  1  0  0  0
 68 87  1  0  0  0
 71 72  2  0  0  0
 71 81  1  0  0  0
 71 88  1  0  0  0
 72 82  1  0  0  0
 72 90  1  0  0  0
 73 83  1  0  0  0
 73 88  2  0  0  0
 73 90  1  0  0  0
 74 75  1  0  0  0
 74 76  1  0  0  0
 74150  1  0  0  0
 74151  1  0  0  0
 75 78  1  0  0  0
 75152  1  0  0  0
 75153  1  0  0  0
 76 79  1  0  0  0
 76154  1  0  0  0
 76155  1  0  0  0
 77 78  1  0  0  0
 77 79  1  0  0  0
 77156  1  0  0  0
 77157  1  0  0  0
 78 84  1  0  0  0
 78158  1  0  0  0
 79 85  1  0  0  0
 79159  1  0  0  0
 80 81  1  0  0  0
 80160  1  0  0  0
 80161  1  0  0  0
 80162  1  0  0  0
 81163  1  0  0  0
 81164  1  0  0  0
 82 86  1  0  0  0
 82165  1  0  0  0
 82166  1  0  0  0
 83 84  1  0  0  0
 83167  1  0  0  0
 83168  1  0  0  0
 84169  1  0  0  0
 84170  1  0  0  0
 85 87  1  0  0  0
 85171  1  0  0  0
 85172  1  0  0  0
 86 89  1  0  0  0
 86173  1  0  0  0
 86174  1  0  0  0
 87175  1  0  0  0
 87176  1  0  0  0
 89177  1  0  0  0
M  ISO  4   1 100  68 101  87 101  89 100
M  END
> <chiral flag>
0

> <version>
0

> <s_m_source_file>
/data/baiqing/PycharmProjects/Reinvent-master-3.2/result/LINK_invent/BTK/process_docking_weight1_custom_sum_contain_oxygen_bond_distance_aromatic_linkinvent_7_9_3/rearranged_h_0041.sdf

> <i_m_source_file_index>
59

> <r_mmod_Potential_Energy-OPLS-2005>
326.385437011719

> <r_mmod_Stretch_Energy-OPLS-2005>
35.0444221496582

> <r_mmod_Bend_Energy-OPLS-2005>
284.176055908203

> <r_mmod_Torsional_Energy-OPLS-2005>
325.478363037109

> <r_mmod_Improper_Torsional_Energy-OPLS-2005>
43.0330772399902

> <r_mmod_Van_der_Waal_Energy-OPLS-2005>
170.976760864258

> <r_mmod_Electrostatic_Energy-OPLS-2005>
-423.639373779297

> <r_mmod_Solvation_Energy-OPLS-2005>
-195.580261230469

> <b_mmod_Minimization_Converged-OPLS-2005>
0

> <r_mmod_RMS_Derivative-OPLS-2005>
5.57242679595947

$$$$
59
                    3D
 Structure written by MMmdl.
176185  0  0  1  0            999 V2000
  -30.8733  -14.1682   20.8342 C   0  0  0  0  0  0
  -30.4015  -12.2887   19.3325 C   0  0  0  0  0  0
  -29.4491  -12.5519   18.1591 C   0  0  0  0  0  0
  -27.9877  -12.3733   18.6008 C   0  0  0  0  0  0
  -27.6588  -13.1982   19.8688 C   0  0  2  0  0  0
  -28.6956  -12.9444   20.9808 C   0  0  0  0  0  0
  -25.2598  -13.8170   20.5675 C   0  0  0  0  0  0
  -24.1827  -13.0455   20.9151 C   0  0  0  0  0  0
  -24.6360  -11.6926   20.8715 C   0  0  0  0  0  0
  -23.9032  -10.4316   21.0408 C   0  0  0  0  0  0
  -24.3595   -9.4227   21.9168 C   0  0  0  0  0  0
  -23.6284   -8.2251   22.0736 C   0  0  0  0  0  0
  -22.4264   -8.0285   21.3544 C   0  0  0  0  0  0
  -21.9895   -9.0255   20.4631 C   0  0  0  0  0  0
  -22.7209  -10.2142   20.3044 C   0  0  0  0  0  0
  -21.6861   -6.0730   22.5279 C   0  0  0  0  0  0
  -21.4010   -6.5628   23.8204 C   0  0  0  0  0  0
  -21.3663   -5.6790   24.9173 C   0  0  0  0  0  0
  -21.6038   -4.3052   24.7235 C   0  0  0  0  0  0
  -21.8820   -3.8143   23.4349 C   0  0  0  0  0  0
  -21.9190   -4.6960   22.3405 C   0  0  0  0  0  0
  -22.7852  -13.5257   21.1836 C   0  0  0  0  0  0
  -22.1667   -4.2144   21.0987 F   0  0  0  0  0  0
  -21.5629   -3.4535   25.7743 F   0  0  0  0  0  0
  -30.0493  -13.1773   20.4430 N   0  0  0  0  0  0
  -26.2994  -12.9320   20.3351 N   0  0  0  0  0  0
  -25.9284  -11.6477   20.5742 N   0  0  0  0  0  0
  -22.0502  -12.8247   22.0412 N   0  0  0  0  0  0
  -25.4345  -15.1880   20.4040 N   0  0  0  0  0  0
  -31.7368  -14.6867   20.1166 O   0  0  0  0  0  0
  -21.6639   -6.8875   21.4233 O   0  0  0  0  0  0
  -22.3543  -14.5565   20.6704 O   0  0  0  0  0  0
  -24.6024  -31.8741   23.2192 C   0  0  0  0  0  0
  -25.8972  -32.4858   23.8407 C   0  0  1  0  0  0
  -27.2621  -27.5322   20.0890 C   0  0  0  0  0  0
  -25.5877  -33.8671   24.2374 N   0  0  0  0  0  0
  -23.3793  -30.4926   21.5603 C   0  0  2  0  0  0
  -24.8312  -28.9694   20.1204 C   0  0  0  0  0  0
  -22.7282  -29.4633   22.5094 C   0  0  0  0  0  0
  -18.0209  -28.1274   22.8487 C   0  0  0  0  0  0
  -24.1494  -36.7328   23.2606 C   0  0  0  0  0  0
  -25.8927  -30.8722   21.3519 C   0  0  0  0  0  0
  -25.9776  -29.5077   20.7119 C   0  0  0  0  0  0
  -27.1864  -28.8004   20.7053 C   0  0  0  0  0  0
  -26.1002  -26.9872   19.5055 C   0  0  0  0  0  0
  -24.8812  -27.6957   19.5183 C   0  0  0  0  0  0
  -23.5835  -29.8214   20.1738 C   0  0  0  0  0  0
  -25.4103  -36.3159   24.0325 C   0  0  1  0  0  0
  -20.5771  -28.3555   23.1345 C   0  0  2  0  0  0
  -20.6686  -26.9296   22.5424 C   0  0  0  0  0  0
  -19.5714  -26.6309   21.5166 C   0  0  0  0  0  0
  -18.1874  -26.7820   22.1574 C   0  0  0  0  0  0
  -19.1452  -28.8735   23.2902 C   0  0  0  0  0  0
  -18.9389  -30.1345   23.8908 C   0  0  0  0  0  0
  -17.6399  -30.6523   24.0500 C   0  0  0  0  0  0
  -25.9025  -34.9515   23.5153 C   0  0  0  0  0  0
  -16.5289  -29.9013   23.6275 C   0  0  0  0  0  0
  -16.7182  -28.6405   23.0332 C   0  0  0  0  0  0
  -26.4495  -31.6603   25.0677 C   0  0  0  0  0  0
  -25.3810  -31.3649   26.1471 C   0  0  0  0  0  0
  -27.0324  -30.3061   24.5949 C   0  0  0  0  0  0
  -27.6122  -32.4306   25.7393 C   0  0  0  0  0  0
  -27.5631  -37.1758   24.8407 C   0  0  0  0  0  0
  -21.4027  -29.2974   22.3819 N   0  0  0  0  0  0
  -26.4296  -37.3871   23.9451 N   0  0  0  0  0  0
  -24.6418  -31.0887   22.1056 N   0  0  0  0  0  0
  -23.4092  -28.8149   23.3054 O   0  0  0  0  0  0
  -28.4298  -26.8163   19.9994 O   0  0  0  0  0  0
  -26.5567  -34.8943   22.4712 O   0  0  0  0  0  0
  -23.5240  -32.1469   23.7653 O   0  0  0  0  0  0
  -30.0919  -18.2835   23.1743 C   0  0  0  0  0  0
  -30.5182  -19.4115   23.9026 C   0  0  0  0  0  0
  -29.6120  -18.5162   21.8678 C   0  0  0  0  0  0
  -30.2315  -20.7000   22.0471 C   0  0  0  0  0  0
  -31.6554  -22.7933   21.8262 C   0  0  0  0  0  0
  -29.1300  -22.8905   21.5958 C   0  0  0  0  0  0
  -31.7888  -24.1277   21.0971 C   0  0  0  0  0  0
  -29.2573  -24.2618   20.9360 C   0  0  0  0  0  0
  -30.3835  -22.0465   21.3785 C   0  0  2  0  0  0
  -30.5508  -25.0120   21.3394 C   0  0  2  0  0  0
  -31.0465  -19.3471   25.3218 C   0  0  0  0  0  0
  -29.0539  -17.4323   20.9610 C   0  0  0  0  0  0
  -30.3306  -16.8734   23.6776 C   0  0  0  0  0  0
  -30.7350  -26.3459   20.5913 C   0  0  0  0  0  0
  -31.6965  -16.4157   23.1280 C   0  0  0  0  0  0
  -31.8802  -14.9028   23.0121 C   0  0  0  0  0  0
  -29.5554  -27.3066   20.7303 C   0  0  0  0  0  0
  -30.5512  -20.6211   23.3322 N   0  0  0  0  0  0
  -29.7088  -19.7297   21.3104 N   0  0  0  0  0  0
  -30.8611  -14.2945   22.1668 N   0  0  0  0  0  0
  -31.4351  -12.4232   19.0059 H   0  0  0  0  0  0
  -30.3245  -11.2527   19.6650 H   0  0  0  0  0  0
  -29.6741  -11.8804   17.3296 H   0  0  0  0  0  0
  -29.5982  -13.5668   17.7871 H   0  0  0  0  0  0
  -27.8155  -11.3123   18.7910 H   0  0  0  0  0  0
  -27.3113  -12.6486   17.7907 H   0  0  0  0  0  0
  -27.7203  -14.2515   19.5941 H   0  0  0  0  0  0
  -28.6299  -11.9183   21.3420 H   0  0  0  0  0  0
  -28.4585  -13.5861   21.8301 H   0  0  0  0  0  0
  -25.2751   -9.5709   22.4729 H   0  0  0  0  0  0
  -24.0013   -7.4639   22.7456 H   0  0  0  0  0  0
  -21.0822   -8.8754   19.8941 H   0  0  0  0  0  0
  -22.3658  -10.9665   19.6144 H   0  0  0  0  0  0
  -21.1995   -7.6134   23.9708 H   0  0  0  0  0  0
  -21.1483   -6.0518   25.9075 H   0  0  0  0  0  0
  -22.0589   -2.7606   23.2855 H   0  0  0  0  0  0
  -22.4106  -11.9886   22.4771 H   0  0  0  0  0  0
  -21.1123  -13.1284   22.2660 H   0  0  0  0  0  0
  -24.6722  -15.8490   20.5010 H   0  0  0  0  0  0
  -26.2932  -15.6157   20.0838 H   0  0  0  0  0  0
  -26.7018  -32.5649   23.1147 H   0  0  0  0  0  0
  -25.0162  -33.9870   25.0600 H   0  0  0  0  0  0
  -22.6638  -31.3074   21.4294 H   0  0  0  0  0  0
  -23.3820  -35.9600   23.3242 H   0  0  0  0  0  0
  -24.3578  -36.8973   22.2022 H   0  0  0  0  0  0
  -23.7167  -37.6477   23.6655 H   0  0  0  0  0  0
  -25.9689  -31.6325   20.5752 H   0  0  0  0  0  0
  -26.7909  -30.9497   21.9495 H   0  0  0  0  0  0
  -28.0529  -29.2639   21.1574 H   0  0  0  0  0  0
  -26.1510  -26.0205   19.0265 H   0  0  0  0  0  0
  -24.0014  -27.2678   19.0562 H   0  0  0  0  0  0
  -23.6634  -30.5947   19.4090 H   0  0  0  0  0  0
  -22.7168  -29.2193   19.8950 H   0  0  0  0  0  0
  -25.1249  -36.2050   25.0797 H   0  0  0  0  0  0
  -20.9844  -28.3097   24.1458 H   0  0  0  0  0  0
  -20.5526  -26.2128   23.3575 H   0  0  0  0  0  0
  -21.6586  -26.7300   22.1296 H   0  0  0  0  0  0
  -19.6877  -25.6223   21.1185 H   0  0  0  0  0  0
  -19.6676  -27.3114   20.6686 H   0  0  0  0  0  0
  -17.4153  -26.6523   21.3964 H   0  0  0  0  0  0
  -18.0299  -25.9928   22.8938 H   0  0  0  0  0  0
  -19.7869  -30.7116   24.2339 H   0  0  0  0  0  0
  -17.4961  -31.6227   24.5067 H   0  0  0  0  0  0
  -15.5301  -30.2924   23.7604 H   0  0  0  0  0  0
  -15.8557  -28.0723   22.7063 H   0  0  0  0  0  0
  -24.5975  -30.6992   25.7813 H   0  0  0  0  0  0
  -24.9015  -32.2788   26.4978 H   0  0  0  0  0  0
  -25.8184  -30.8779   27.0196 H   0  0  0  0  0  0
  -26.2785  -29.6743   24.1233 H   0  0  0  0  0  0
  -27.4390  -29.7321   25.4293 H   0  0  0  0  0  0
  -27.8475  -30.4374   23.8826 H   0  0  0  0  0  0
  -27.2771  -33.3577   26.2037 H   0  0  0  0  0  0
  -28.3868  -32.6911   25.0168 H   0  0  0  0  0  0
  -28.0897  -31.8425   26.5235 H   0  0  0  0  0  0
  -28.2526  -38.0194   24.7795 H   0  0  0  0  0  0
  -28.1281  -36.2771   24.5872 H   0  0  0  0  0  0
  -27.2386  -37.0964   25.8799 H   0  0  0  0  0  0
  -20.9151  -29.8802   21.7162 H   0  0  0  0  0  0
  -26.0197  -38.2902   24.1690 H   0  0  0  0  0  0
  -31.6170  -22.9767   22.9002 H   0  0  0  0  0  0
  -32.5358  -22.1797   21.6417 H   0  0  0  0  0  0
  -28.2743  -22.3596   21.1801 H   0  0  0  0  0  0
  -28.9399  -22.9991   22.6627 H   0  0  0  0  0  0
  -31.9060  -23.9402   20.0311 H   0  0  0  0  0  0
  -32.6957  -24.6368   21.4272 H   0  0  0  0  0  0
  -28.3789  -24.8234   21.2502 H   0  0  0  0  0  0
  -29.2044  -24.1634   19.8511 H   0  0  0  0  0  0
  -30.4888  -21.8503   20.3088 H   0  0  0  0  0  0
  -30.4908  -25.2268   22.4084 H   0  0  0  0  0  0
  -31.7427  -18.5188   25.4478 H   0  0  0  0  0  0
  -30.2231  -19.2321   26.0261 H   0  0  0  0  0  0
  -31.5827  -20.2653   25.5750 H   0  0  0  0  0  0
  -28.3994  -16.7510   21.5040 H   0  0  0  0  0  0
  -29.8644  -16.8628   20.5105 H   0  0  0  0  0  0
  -28.4628  -17.8600   20.1491 H   0  0  0  0  0  0
  -29.5200  -16.2185   23.3593 H   0  0  0  0  0  0
  -30.3162  -16.8234   24.7670 H   0  0  0  0  0  0
  -30.9395  -26.1674   19.5355 H   0  0  0  0  0  0
  -31.6209  -26.8441   20.9875 H   0  0  0  0  0  0
  -32.4935  -16.8437   23.7359 H   0  0  0  0  0  0
  -31.8457  -16.8226   22.1256 H   0  0  0  0  0  0
  -31.8366  -14.4421   23.9988 H   0  0  0  0  0  0
  -32.8715  -14.6856   22.6120 H   0  0  0  0  0  0
  -29.3113  -27.4295   21.7865 H   0  0  0  0  0  0
  -29.8571  -28.2794   20.3393 H   0  0  0  0  0  0
  -30.1564  -13.7469   22.6402 H   0  0  0  0  0  0
  1 25  1  0  0  0
  1 30  2  0  0  0
  1 90  1  0  0  0
  2  3  1  0  0  0
  2 25  1  0  0  0
  2 91  1  0  0  0
  2 92  1  0  0  0
  3  4  1  0  0  0
  3 93  1  0  0  0
  3 94  1  0  0  0
  4  5  1  0  0  0
  4 95  1  0  0  0
  4 96  1  0  0  0
  5  6  1  0  0  0
  5 26  1  0  0  0
  5 97  1  0  0  0
  6 25  1  0  0  0
  6 98  1  0  0  0
  6 99  1  0  0  0
  7  8  2  0  0  0
  7 26  1  0  0  0
  7 29  1  0  0  0
  8  9  1  0  0  0
  8 22  1  0  0  0
  9 10  1  0  0  0
  9 27  2  0  0  0
 10 11  2  0  0  0
 10 15  1  0  0  0
 11 12  1  0  0  0
 11100  1  0  0  0
 12 13  2  0  0  0
 12101  1  0  0  0
 13 14  1  0  0  0
 13 31  1  0  0  0
 14 15  2  0  0  0
 14102  1  0  0  0
 15103  1  0  0  0
 16 17  2  0  0  0
 16 21  1  0  0  0
 16 31  1  0  0  0
 17 18  1  0  0  0
 17104  1  0  0  0
 18 19  2  0  0  0
 18105  1  0  0  0
 19 20  1  0  0  0
 19 24  1  0  0  0
 20 21  2  0  0  0
 20106  1  0  0  0
 21 23  1  0  0  0
 22 28  1  0  0  0
 22 32  2  0  0  0
 26 27  1  0  0  0
 28107  1  0  0  0
 28108  1  0  0  0
 29109  1  0  0  0
 29110  1  0  0  0
 33 34  1  0  0  0
 33 66  1  0  0  0
 33 70  2  0  0  0
 34 36  1  0  0  0
 34 59  1  0  0  0
 34111  1  0  0  0
 35 44  2  0  0  0
 35 45  1  0  0  0
 35 68  1  0  0  0
 36 56  1  0  0  0
 36112  1  0  0  0
 37 39  1  0  0  0
 37 47  1  0  0  0
 37 66  1  0  0  0
 37113  1  0  0  0
 38 43  2  0  0  0
 38 46  1  0  0  0
 38 47  1  0  0  0
 39 64  1  0  0  0
 39 67  2  0  0  0
 40 52  1  0  0  0
 40 53  2  0  0  0
 40 58  1  0  0  0
 41114  1  0  0  0
 41115  1  0  0  0
 41116  1  0  0  0
 41 48  1  0  0  0
 42 43  1  0  0  0
 42 66  1  0  0  0
 42117  1  0  0  0
 42118  1  0  0  0
 43 44  1  0  0  0
 44119  1  0  0  0
 45 46  2  0  0  0
 45120  1  0  0  0
 46121  1  0  0  0
 47122  1  0  0  0
 47123  1  0  0  0
 48 56  1  0  0  0
 48 65  1  0  0  0
 48124  1  0  0  0
 49 50  1  0  0  0
 49 53  1  0  0  0
 49 64  1  0  0  0
 49125  1  0  0  0
 50 51  1  0  0  0
 50126  1  0  0  0
 50127  1  0  0  0
 51 52  1  0  0  0
 51128  1  0  0  0
 51129  1  0  0  0
 52130  1  0  0  0
 52131  1  0  0  0
 53 54  1  0  0  0
 54 55  2  0  0  0
 54132  1  0  0  0
 55 57  1  0  0  0
 55133  1  0  0  0
 56 69  2  0  0  0
 57 58  2  0  0  0
 57134  1  0  0  0
 58135  1  0  0  0
 59 60  1  0  0  0
 59 61  1  0  0  0
 59 62  1  0  0  0
 60136  1  0  0  0
 60137  1  0  0  0
 60138  1  0  0  0
 61139  1  0  0  0
 61140  1  0  0  0
 61141  1  0  0  0
 62142  1  0  0  0
 62143  1  0  0  0
 62144  1  0  0  0
 63 65  1  0  0  0
 63145  1  0  0  0
 63146  1  0  0  0
 63147  1  0  0  0
 64148  1  0  0  0
 65149  1  0  0  0
 68 87  1  0  0  0
 71 72  2  0  0  0
 71 73  1  0  0  0
 71 83  1  0  0  0
 72 81  1  0  0  0
 72 88  1  0  0  0
 73 82  1  0  0  0
 73 89  2  0  0  0
 74 88  2  0  0  0
 74 89  1  0  0  0
 74 79  1  0  0  0
 75 77  1  0  0  0
 75 79  1  0  0  0
 75150  1  0  0  0
 75151  1  0  0  0
 76 78  1  0  0  0
 76 79  1  0  0  0
 76152  1  0  0  0
 76153  1  0  0  0
 77 80  1  0  0  0
 77154  1  0  0  0
 77155  1  0  0  0
 78 80  1  0  0  0
 78156  1  0  0  0
 78157  1  0  0  0
 79158  1  0  0  0
 80 84  1  0  0  0
 80159  1  0  0  0
 81160  1  0  0  0
 81161  1  0  0  0
 81162  1  0  0  0
 82163  1  0  0  0
 82164  1  0  0  0
 82165  1  0  0  0
 83 85  1  0  0  0
 83166  1  0  0  0
 83167  1  0  0  0
 84 87  1  0  0  0
 84168  1  0  0  0
 84169  1  0  0  0
 85 86  1  0  0  0
 85170  1  0  0  0
 85171  1  0  0  0
 86 90  1  0  0  0
 86172  1  0  0  0
 86173  1  0  0  0
 87174  1  0  0  0
 87175  1  0  0  0
 90176  1  0  0  0
M  ISO  4   1 100  68 101  87 101  90 100
M  END
> <chiral flag>
0

> <version>
0

> <s_m_source_file>
/data/baiqing/PycharmProjects/Reinvent-master-3.2/result/LINK_invent/BTK/process_docking_weight1_custom_sum_contain_oxygen_bond_distance_aromatic_linkinvent_7_9_3/rearranged_h_0041.sdf

> <i_m_source_file_index>
60

> <r_mmod_Potential_Energy-OPLS-2005>
-403.876373291016

> <r_mmod_Stretch_Energy-OPLS-2005>
29.1253433227539

> <r_mmod_Bend_Energy-OPLS-2005>
101.687103271484

> <r_mmod_Torsional_Energy-OPLS-2005>
227.288314819336

> <r_mmod_Improper_Torsional_Energy-OPLS-2005>
8.81130409240723

> <r_mmod_Van_der_Waal_Energy-OPLS-2005>
175.708770751953

> <r_mmod_Electrostatic_Energy-OPLS-2005>
-738.269653320312

> <r_mmod_Solvation_Energy-OPLS-2005>
-223.618209838867

> <b_mmod_Minimization_Converged-OPLS-2005>
0

> <r_mmod_RMS_Derivative-OPLS-2005>
4.45442581176758

$$$$
60
                    3D
 Structure written by MMmdl.
161169  0  0  1  0            999 V2000
  -30.7035  -14.5040   20.5472 C   0  0  0  0  0  0
  -30.4139  -12.3204   19.4347 C   0  0  0  0  0  0
  -29.4939  -12.5164   18.2095 C   0  0  0  0  0  0
  -28.0187  -12.3540   18.6286 C   0  0  0  0  0  0
  -27.6626  -13.2045   19.8796 C   0  0  2  0  0  0
  -28.7103  -13.0174   21.0056 C   0  0  0  0  0  0
  -25.2642  -13.8145   20.5696 C   0  0  0  0  0  0
  -24.1888  -13.0433   20.9185 C   0  0  0  0  0  0
  -24.6410  -11.6890   20.8752 C   0  0  0  0  0  0
  -23.9073  -10.4268   21.0406 C   0  0  0  0  0  0
  -24.3623   -9.4201   21.9183 C   0  0  0  0  0  0
  -23.6304   -8.2238   22.0758 C   0  0  0  0  0  0
  -22.4293   -8.0270   21.3539 C   0  0  0  0  0  0
  -21.9907   -9.0246   20.4661 C   0  0  0  0  0  0
  -22.7243  -10.2126   20.3063 C   0  0  0  0  0  0
  -21.6863   -6.0744   22.5279 C   0  0  0  0  0  0
  -21.4028   -6.5648   23.8220 C   0  0  0  0  0  0
  -21.3671   -5.6804   24.9175 C   0  0  0  0  0  0
  -21.6059   -4.3065   24.7227 C   0  0  0  0  0  0
  -21.8833   -3.8154   23.4354 C   0  0  0  0  0  0
  -21.9205   -4.6959   22.3406 C   0  0  0  0  0  0
  -22.7942  -13.5251   21.1859 C   0  0  0  0  0  0
  -22.1657   -4.2154   21.0980 F   0  0  0  0  0  0
  -21.5625   -3.4550   25.7734 F   0  0  0  0  0  0
  -30.0375  -13.3210   20.4437 N   0  0  0  0  0  0
  -26.3061  -12.9299   20.3426 N   0  0  0  0  0  0
  -25.9338  -11.6460   20.5808 N   0  0  0  0  0  0
  -22.0558  -12.8222   22.0400 N   0  0  0  0  0  0
  -25.4403  -15.1847   20.4066 N   0  0  0  0  0  0
  -31.8298  -14.6778   20.0715 O   0  0  0  0  0  0
  -21.6652   -6.8871   21.4245 O   0  0  0  0  0  0
  -22.3636  -14.5558   20.6711 O   0  0  0  0  0  0
  -24.6142  -31.8695   23.2111 C   0  0  0  0  0  0
  -25.9041  -32.4827   23.8394 C   0  0  1  0  0  0
  -27.2291  -27.4396   20.0763 C   0  0  0  0  0  0
  -25.5907  -33.8622   24.2334 N   0  0  0  0  0  0
  -23.3984  -30.4960   21.5531 C   0  0  2  0  0  0
  -24.8409  -28.9628   20.1128 C   0  0  0  0  0  0
  -22.7400  -29.4690   22.4999 C   0  0  0  0  0  0
  -18.0266  -28.1381   22.8489 C   0  0  0  0  0  0
  -24.1494  -36.7320   23.2636 C   0  0  0  0  0  0
  -25.9267  -30.8361   21.3620 C   0  0  0  0  0  0
  -26.0013  -29.4712   20.7072 C   0  0  0  0  0  0
  -27.1950  -28.7149   20.6902 C   0  0  0  0  0  0
  -26.0492  -26.9537   19.4646 C   0  0  0  0  0  0
  -24.8590  -27.7021   19.4930 C   0  0  0  0  0  0
  -23.6043  -29.8300   20.1663 C   0  0  0  0  0  0
  -25.4111  -36.3109   24.0337 C   0  0  1  0  0  0
  -20.5862  -28.3672   23.1320 C   0  0  2  0  0  0
  -20.6762  -26.9410   22.5416 C   0  0  0  0  0  0
  -19.5745  -26.6390   21.5208 C   0  0  0  0  0  0
  -18.1921  -26.7931   22.1613 C   0  0  0  0  0  0
  -19.1514  -28.8836   23.2907 C   0  0  0  0  0  0
  -18.9446  -30.1444   23.8918 C   0  0  0  0  0  0
  -17.6447  -30.6590   24.0567 C   0  0  0  0  0  0
  -25.9032  -34.9479   23.5131 C   0  0  0  0  0  0
  -16.5337  -29.9093   23.6322 C   0  0  0  0  0  0
  -16.7257  -28.6507   23.0345 C   0  0  0  0  0  0
  -26.4474  -31.6589   25.0706 C   0  0  0  0  0  0
  -25.3749  -31.3689   26.1462 C   0  0  0  0  0  0
  -27.0296  -30.3035   24.6058 C   0  0  0  0  0  0
  -27.6067  -32.4300   25.7462 C   0  0  0  0  0  0
  -27.5586  -37.1812   24.8463 C   0  0  0  0  0  0
  -21.4128  -29.3040   22.3733 N   0  0  0  0  0  0
  -26.4299  -37.3792   23.9406 N   0  0  0  0  0  0
  -24.6647  -31.0815   22.0999 N   0  0  0  0  0  0
  -23.4178  -28.8220   23.3037 O   0  0  0  0  0  0
  -28.4150  -26.7314   20.1120 O   0  0  0  0  0  0
  -26.5592  -34.8929   22.4687 O   0  0  0  0  0  0
  -23.5344  -32.1442   23.7519 O   0  0  0  0  0  0
  -28.6087  -21.6054   19.6296 C   0  0  0  0  0  0
  -28.3290  -20.2464   19.8780 C   0  0  0  0  0  0
  -29.9273  -22.0741   19.7473 C   0  0  0  0  0  0
  -29.3832  -19.3771   20.2617 C   0  0  0  0  0  0
  -30.9148  -21.1483   20.1682 C   0  0  0  0  0  0
  -26.9040  -19.7576   19.6904 C   0  0  0  0  0  0
  -32.3623  -21.5619   20.3790 C   0  0  0  0  0  0
  -30.2552  -23.5076   19.3021 C   0  0  0  0  0  0
  -29.1390  -17.8641   20.4846 C   0  0  0  0  0  0
  -29.6891  -24.6649   20.1616 C   0  0  0  0  0  0
  -30.3284  -16.9759   20.9683 C   0  0  0  0  0  0
  -28.4896  -25.4169   19.5440 C   0  0  0  0  0  0
  -30.6475  -19.8391   20.4020 N   0  0  0  0  0  0
  -29.9878  -15.5333   21.0429 N   0  0  0  0  0  0
  -31.4659  -12.3845   19.1619 H   0  0  0  0  0  0
  -30.2805  -11.3191   19.8441 H   0  0  0  0  0  0
  -29.7332  -11.7857   17.4369 H   0  0  0  0  0  0
  -29.6578  -13.5023   17.7645 H   0  0  0  0  0  0
  -27.8472  -11.2944   18.8319 H   0  0  0  0  0  0
  -27.3565  -12.6076   17.7982 H   0  0  0  0  0  0
  -27.6929  -14.2464   19.5623 H   0  0  0  0  0  0
  -28.7018  -11.9886   21.3674 H   0  0  0  0  0  0
  -28.4724  -13.6280   21.8790 H   0  0  0  0  0  0
  -25.2774   -9.5678   22.4764 H   0  0  0  0  0  0
  -24.0043   -7.4622   22.7452 H   0  0  0  0  0  0
  -21.0862   -8.8792   19.8952 H   0  0  0  0  0  0
  -22.3724  -10.9688   19.6183 H   0  0  0  0  0  0
  -21.2017   -7.6158   23.9728 H   0  0  0  0  0  0
  -21.1480   -6.0515   25.9084 H   0  0  0  0  0  0
  -22.0600   -2.7617   23.2847 H   0  0  0  0  0  0
  -22.4160  -11.9862   22.4769 H   0  0  0  0  0  0
  -21.1195  -13.1308   22.2639 H   0  0  0  0  0  0
  -24.6720  -15.8398   20.5027 H   0  0  0  0  0  0
  -26.2873  -15.6207   20.0653 H   0  0  0  0  0  0
  -26.7107  -32.5546   23.1157 H   0  0  0  0  0  0
  -25.0071  -33.9793   25.0489 H   0  0  0  0  0  0
  -22.6865  -31.3124   21.4157 H   0  0  0  0  0  0
  -23.3749  -35.9662   23.3306 H   0  0  0  0  0  0
  -24.3585  -36.8923   22.2048 H   0  0  0  0  0  0
  -23.7255  -37.6533   23.6640 H   0  0  0  0  0  0
  -26.0383  -31.6033   20.5943 H   0  0  0  0  0  0
  -26.8159  -30.8876   21.9779 H   0  0  0  0  0  0
  -28.0934  -29.1059   21.1475 H   0  0  0  0  0  0
  -26.0187  -26.0047   18.9511 H   0  0  0  0  0  0
  -23.9645  -27.3098   19.0296 H   0  0  0  0  0  0
  -23.7123  -30.6057   19.4073 H   0  0  0  0  0  0
  -22.7262  -29.2528   19.8720 H   0  0  0  0  0  0
  -25.1289  -36.1979   25.0831 H   0  0  0  0  0  0
  -20.9948  -28.3232   24.1443 H   0  0  0  0  0  0
  -20.5665  -26.2280   23.3603 H   0  0  0  0  0  0
  -21.6637  -26.7461   22.1206 H   0  0  0  0  0  0
  -19.6913  -25.6303   21.1233 H   0  0  0  0  0  0
  -19.6696  -27.3203   20.6742 H   0  0  0  0  0  0
  -17.4204  -26.6692   21.4005 H   0  0  0  0  0  0
  -18.0314  -26.0062   22.8994 H   0  0  0  0  0  0
  -19.7925  -30.7247   24.2304 H   0  0  0  0  0  0
  -17.5009  -31.6270   24.5165 H   0  0  0  0  0  0
  -15.5343  -30.3003   23.7632 H   0  0  0  0  0  0
  -15.8660  -28.0832   22.7050 H   0  0  0  0  0  0
  -24.5942  -30.7004   25.7805 H   0  0  0  0  0  0
  -24.8910  -32.2838   26.4901 H   0  0  0  0  0  0
  -25.8116  -30.8878   27.0223 H   0  0  0  0  0  0
  -26.2814  -29.6797   24.1144 H   0  0  0  0  0  0
  -27.4112  -29.7272   25.4498 H   0  0  0  0  0  0
  -27.8639  -30.4366   23.9163 H   0  0  0  0  0  0
  -27.2701  -33.3597   26.2073 H   0  0  0  0  0  0
  -28.3858  -32.6862   25.0263 H   0  0  0  0  0  0
  -28.0755  -31.8390   26.5347 H   0  0  0  0  0  0
  -28.2613  -38.0100   24.7496 H   0  0  0  0  0  0
  -28.1071  -36.2630   24.6301 H   0  0  0  0  0  0
  -27.2304  -37.1481   25.8867 H   0  0  0  0  0  0
  -20.9280  -29.8774   21.6968 H   0  0  0  0  0  0
  -26.0194  -38.2877   24.1387 H   0  0  0  0  0  0
  -27.8256  -22.2796   19.3129 H   0  0  0  0  0  0
  -26.2135  -20.5904   19.5508 H   0  0  0  0  0  0
  -26.5666  -19.2001   20.5620 H   0  0  0  0  0  0
  -26.8255  -19.1184   18.8118 H   0  0  0  0  0  0
  -32.4261  -22.4987   20.9325 H   0  0  0  0  0  0
  -32.8649  -21.6995   19.4223 H   0  0  0  0  0  0
  -32.9129  -20.8141   20.9510 H   0  0  0  0  0  0
  -29.9244  -23.6136   18.2690 H   0  0  0  0  0  0
  -31.3337  -23.6362   19.2411 H   0  0  0  0  0  0
  -28.7542  -17.4687   19.5465 H   0  0  0  0  0  0
  -28.3336  -17.7651   21.2155 H   0  0  0  0  0  0
  -30.4916  -25.3965   20.2638 H   0  0  0  0  0  0
  -29.4645  -24.3377   21.1779 H   0  0  0  0  0  0
  -31.1823  -17.1180   20.3027 H   0  0  0  0  0  0
  -30.6445  -17.3114   21.9575 H   0  0  0  0  0  0
  -27.5941  -24.8218   19.7190 H   0  0  0  0  0  0
  -28.6119  -25.5249   18.4657 H   0  0  0  0  0  0
  -29.0875  -15.2897   21.4306 H   0  0  0  0  0  0
  1 25  1  0  0  0
  1 30  2  0  0  0
  1 84  1  0  0  0
  2  3  1  0  0  0
  2 25  1  0  0  0
  2 85  1  0  0  0
  2 86  1  0  0  0
  3  4  1  0  0  0
  3 87  1  0  0  0
  3 88  1  0  0  0
  4  5  1  0  0  0
  4 89  1  0  0  0
  4 90  1  0  0  0
  5  6  1  0  0  0
  5 26  1  0  0  0
  5 91  1  0  0  0
  6 25  1  0  0  0
  6 92  1  0  0  0
  6 93  1  0  0  0
  7  8  2  0  0  0
  7 26  1  0  0  0
  7 29  1  0  0  0
  8  9  1  0  0  0
  8 22  1  0  0  0
  9 10  1  0  0  0
  9 27  2  0  0  0
 10 11  2  0  0  0
 10 15  1  0  0  0
 11 12  1  0  0  0
 11 94  1  0  0  0
 12 13  2  0  0  0
 12 95  1  0  0  0
 13 14  1  0  0  0
 13 31  1  0  0  0
 14 15  2  0  0  0
 14 96  1  0  0  0
 15 97  1  0  0  0
 16 17  2  0  0  0
 16 21  1  0  0  0
 16 31  1  0  0  0
 17 18  1  0  0  0
 17 98  1  0  0  0
 18 19  2  0  0  0
 18 99  1  0  0  0
 19 20  1  0  0  0
 19 24  1  0  0  0
 20 21  2  0  0  0
 20100  1  0  0  0
 21 23  1  0  0  0
 22 28  1  0  0  0
 22 32  2  0  0  0
 26 27  1  0  0  0
 28101  1  0  0  0
 28102  1  0  0  0
 29103  1  0  0  0
 29104  1  0  0  0
 33 34  1  0  0  0
 33 66  1  0  0  0
 33 70  2  0  0  0
 34 36  1  0  0  0
 34 59  1  0  0  0
 34105  1  0  0  0
 35 44  2  0  0  0
 35 45  1  0  0  0
 35 68  1  0  0  0
 36 56  1  0  0  0
 36106  1  0  0  0
 37 39  1  0  0  0
 37 47  1  0  0  0
 37 66  1  0  0  0
 37107  1  0  0  0
 38 43  2  0  0  0
 38 46  1  0  0  0
 38 47  1  0  0  0
 39 64  1  0  0  0
 39 67  2  0  0  0
 40 52  1  0  0  0
 40 53  2  0  0  0
 40 58  1  0  0  0
 41108  1  0  0  0
 41109  1  0  0  0
 41110  1  0  0  0
 41 48  1  0  0  0
 42 43  1  0  0  0
 42 66  1  0  0  0
 42111  1  0  0  0
 42112  1  0  0  0
 43 44  1  0  0  0
 44113  1  0  0  0
 45 46  2  0  0  0
 45114  1  0  0  0
 46115  1  0  0  0
 47116  1  0  0  0
 47117  1  0  0  0
 48 56  1  0  0  0
 48 65  1  0  0  0
 48118  1  0  0  0
 49 50  1  0  0  0
 49 53  1  0  0  0
 49 64  1  0  0  0
 49119  1  0  0  0
 50 51  1  0  0  0
 50120  1  0  0  0
 50121  1  0  0  0
 51 52  1  0  0  0
 51122  1  0  0  0
 51123  1  0  0  0
 52124  1  0  0  0
 52125  1  0  0  0
 53 54  1  0  0  0
 54 55  2  0  0  0
 54126  1  0  0  0
 55 57  1  0  0  0
 55127  1  0  0  0
 56 69  2  0  0  0
 57 58  2  0  0  0
 57128  1  0  0  0
 58129  1  0  0  0
 59 60  1  0  0  0
 59 61  1  0  0  0
 59 62  1  0  0  0
 60130  1  0  0  0
 60131  1  0  0  0
 60132  1  0  0  0
 61133  1  0  0  0
 61134  1  0  0  0
 61135  1  0  0  0
 62136  1  0  0  0
 62137  1  0  0  0
 62138  1  0  0  0
 63 65  1  0  0  0
 63139  1  0  0  0
 63140  1  0  0  0
 63141  1  0  0  0
 64142  1  0  0  0
 65143  1  0  0  0
 68 82  1  0  0  0
 71 72  2  0  0  0
 71 73  1  0  0  0
 71144  1  0  0  0
 72 74  1  0  0  0
 72 76  1  0  0  0
 73 75  2  0  0  0
 73 78  1  0  0  0
 74 79  1  0  0  0
 74 83  2  0  0  0
 75 77  1  0  0  0
 75 83  1  0  0  0
 76145  1  0  0  0
 76146  1  0  0  0
 76147  1  0  0  0
 77148  1  0  0  0
 77149  1  0  0  0
 77150  1  0  0  0
 78 80  1  0  0  0
 78151  1  0  0  0
 78152  1  0  0  0
 79 81  1  0  0  0
 79153  1  0  0  0
 79154  1  0  0  0
 80 82  1  0  0  0
 80155  1  0  0  0
 80156  1  0  0  0
 81 84  1  0  0  0
 81157  1  0  0  0
 81158  1  0  0  0
 82159  1  0  0  0
 82160  1  0  0  0
 84161  1  0  0  0
M  ISO  4   1 100  68 101  82 101  84 100
M  END
> <chiral flag>
0

> <version>
0

> <s_m_source_file>
/data/baiqing/PycharmProjects/Reinvent-master-3.2/result/LINK_invent/BTK/process_docking_weight1_custom_sum_contain_oxygen_bond_distance_aromatic_linkinvent_7_9_3/rearranged_h_0041.sdf

> <i_m_source_file_index>
61

> <r_mmod_Potential_Energy-OPLS-2005>
-201.492919921875

> <r_mmod_Stretch_Energy-OPLS-2005>
40.1568794250488

> <r_mmod_Bend_Energy-OPLS-2005>
108.471305847168

> <r_mmod_Torsional_Energy-OPLS-2005>
211.197067260742

> <r_mmod_Improper_Torsional_Energy-OPLS-2005>
4.37611627578735

> <r_mmod_Van_der_Waal_Energy-OPLS-2005>
157.088516235352

> <r_mmod_Electrostatic_Energy-OPLS-2005>
-507.927825927734

> <r_mmod_Solvation_Energy-OPLS-2005>
-230.120742797852

> <b_mmod_Minimization_Converged-OPLS-2005>
0

> <r_mmod_RMS_Derivative-OPLS-2005>
5.0024299621582

$$$$
61
                    3D
 Structure written by MMmdl.
151159  0  0  1  0            999 V2000
  -30.4109  -15.3533   20.3550 C   0  0  0  0  0  0
  -30.4339  -12.8684   19.5418 C   0  0  0  0  0  0
  -29.5416  -12.5960   18.3027 C   0  0  0  0  0  0
  -28.0940  -12.3019   18.7293 C   0  0  0  0  0  0
  -27.6076  -13.2849   19.8224 C   0  0  2  0  0  0
  -28.6345  -13.5005   20.9567 C   0  0  0  0  0  0
  -25.2367  -13.8260   20.5764 C   0  0  0  0  0  0
  -24.1732  -13.0433   20.9264 C   0  0  0  0  0  0
  -24.6400  -11.6937   20.8759 C   0  0  0  0  0  0
  -23.9101  -10.4291   21.0400 C   0  0  0  0  0  0
  -24.3643   -9.4204   21.9180 C   0  0  0  0  0  0
  -23.6309   -8.2243   22.0754 C   0  0  0  0  0  0
  -22.4289   -8.0282   21.3545 C   0  0  0  0  0  0
  -21.9930   -9.0258   20.4647 C   0  0  0  0  0  0
  -22.7268  -10.2133   20.3053 C   0  0  0  0  0  0
  -21.6858   -6.0741   22.5278 C   0  0  0  0  0  0
  -21.4017   -6.5644   23.8211 C   0  0  0  0  0  0
  -21.3658   -5.6798   24.9172 C   0  0  0  0  0  0
  -21.6044   -4.3059   24.7223 C   0  0  0  0  0  0
  -21.8818   -3.8150   23.4344 C   0  0  0  0  0  0
  -21.9192   -4.6969   22.3400 C   0  0  0  0  0  0
  -22.7747  -13.5177   21.1904 C   0  0  0  0  0  0
  -22.1661   -4.2154   21.0978 F   0  0  0  0  0  0
  -21.5625   -3.4541   25.7734 F   0  0  0  0  0  0
  -29.8577  -14.0299   20.3284 N   0  0  0  0  0  0
  -26.2801  -12.9553   20.3225 N   0  0  0  0  0  0
  -25.9339  -11.6649   20.5716 N   0  0  0  0  0  0
  -22.0411  -12.8159   22.0461 N   0  0  0  0  0  0
  -25.3979  -15.1999   20.4210 N   0  0  0  0  0  0
  -31.6292  -15.3329   20.1200 O   0  0  0  0  0  0
  -21.6646   -6.8884   21.4242 O   0  0  0  0  0  0
  -22.3425  -14.5478   20.6742 O   0  0  0  0  0  0
  -24.6681  -31.8176   23.1650 C   0  0  0  0  0  0
  -25.9337  -32.4560   23.8138 C   0  0  1  0  0  0
  -27.2190  -26.8665   20.1889 C   0  0  0  0  0  0
  -25.5985  -33.8378   24.2041 N   0  0  0  0  0  0
  -23.4871  -30.4268   21.5146 C   0  0  2  0  0  0
  -24.9429  -28.8045   20.1075 C   0  0  0  0  0  0
  -22.7701  -29.4408   22.4747 C   0  0  0  0  0  0
  -18.0332  -28.1415   22.8473 C   0  0  0  0  0  0
  -24.1488  -36.7186   23.2648 C   0  0  0  0  0  0
  -26.0592  -30.6027   21.4070 C   0  0  0  0  0  0
  -26.1258  -29.1863   20.7521 C   0  0  0  0  0  0
  -27.2534  -28.2375   20.7719 C   0  0  0  0  0  0
  -26.0128  -26.6612   19.4786 C   0  0  0  0  0  0
  -24.9161  -27.5647   19.4490 C   0  0  0  0  0  0
  -23.7310  -29.7391   20.1419 C   0  0  0  0  0  0
  -25.4132  -36.2949   24.0298 C   0  0  1  0  0  0
  -20.5961  -28.3764   23.1175 C   0  0  2  0  0  0
  -20.6803  -26.9438   22.5408 C   0  0  0  0  0  0
  -19.5774  -26.6376   21.5223 C   0  0  0  0  0  0
  -18.1956  -26.7951   22.1624 C   0  0  0  0  0  0
  -19.1596  -28.8911   23.2810 C   0  0  0  0  0  0
  -18.9504  -30.1498   23.8849 C   0  0  0  0  0  0
  -17.6497  -30.6603   24.0560 C   0  0  0  0  0  0
  -25.9102  -34.9337   23.4992 C   0  0  0  0  0  0
  -16.5386  -29.9092   23.6347 C   0  0  0  0  0  0
  -16.7314  -28.6510   23.0372 C   0  0  0  0  0  0
  -26.4566  -31.6530   25.0692 C   0  0  0  0  0  0
  -25.3674  -31.3813   26.1337 C   0  0  0  0  0  0
  -27.0471  -30.2887   24.6476 C   0  0  0  0  0  0
  -27.6046  -32.4353   25.7496 C   0  0  0  0  0  0
  -27.5564  -37.1750   24.8468 C   0  0  0  0  0  0
  -21.4363  -29.3039   22.3509 N   0  0  0  0  0  0
  -26.4270  -37.3695   23.9416 N   0  0  0  0  0  0
  -24.7600  -30.9780   22.0819 N   0  0  0  0  0  0
  -23.4223  -28.7984   23.3016 O   0  0  0  0  0  0
  -28.1860  -25.7118   20.3138 O   0  0  0  0  0  0
  -26.5717  -34.8886   22.4590 O   0  0  0  0  0  0
  -23.5736  -32.1176   23.6699 O   0  0  0  0  0  0
  -28.9752  -21.1561   19.6403 C   0  0  0  0  0  0
  -28.6646  -21.8840   21.6093 C   0  0  0  0  0  0
  -28.5813  -22.4700   20.3544 C   0  0  0  0  0  0
  -29.2600  -19.9105   20.3731 C   0  0  0  0  0  0
  -30.5579  -19.9825   23.5151 C   0  0  0  0  0  0
  -27.9698  -24.1089   19.8778 C   0  0  0  0  0  0
  -29.9534  -18.2853   20.0800 C   0  0  0  0  0  0
  -29.1810  -19.7532   22.8835 C   0  0  0  0  0  0
  -29.0354  -20.4890   21.6382 N   0  0  0  0  0  0
  -29.6618  -16.6557   20.4407 N   0  0  0  0  0  0
  -31.4515  -13.0757   19.2088 H   0  0  0  0  0  0
  -30.5125  -11.9764   20.1652 H   0  0  0  0  0  0
  -29.9386  -11.7633   17.7208 H   0  0  0  0  0  0
  -29.5595  -13.4676   17.6464 H   0  0  0  0  0  0
  -28.0647  -11.2828   19.1165 H   0  0  0  0  0  0
  -27.4272  -12.3214   17.8664 H   0  0  0  0  0  0
  -27.5096  -14.2411   19.3064 H   0  0  0  0  0  0
  -28.8211  -12.5810   21.5137 H   0  0  0  0  0  0
  -28.2549  -14.2278   21.6759 H   0  0  0  0  0  0
  -25.2783   -9.5683   22.4763 H   0  0  0  0  0  0
  -24.0011   -7.4640   22.7481 H   0  0  0  0  0  0
  -21.0856   -8.8783   19.8957 H   0  0  0  0  0  0
  -22.3719  -10.9676   19.6169 H   0  0  0  0  0  0
  -21.2012   -7.6153   23.9716 H   0  0  0  0  0  0
  -21.1481   -6.0527   25.9077 H   0  0  0  0  0  0
  -22.0596   -2.7612   23.2840 H   0  0  0  0  0  0
  -22.4047  -11.9833   22.4855 H   0  0  0  0  0  0
  -21.1023  -13.1166   22.2665 H   0  0  0  0  0  0
  -24.6245  -15.8460   20.5343 H   0  0  0  0  0  0
  -26.2356  -15.6444   20.0694 H   0  0  0  0  0  0
  -26.7410  -32.5076   23.0851 H   0  0  0  0  0  0
  -25.0105  -33.9451   25.0176 H   0  0  0  0  0  0
  -22.8038  -31.2602   21.3389 H   0  0  0  0  0  0
  -23.3767  -35.9499   23.3278 H   0  0  0  0  0  0
  -24.3569  -36.8866   22.2070 H   0  0  0  0  0  0
  -23.7226  -37.6357   23.6725 H   0  0  0  0  0  0
  -26.2472  -31.3398   20.6252 H   0  0  0  0  0  0
  -26.9164  -30.6619   22.0653 H   0  0  0  0  0  0
  -28.1403  -28.5235   21.3191 H   0  0  0  0  0  0
  -25.8715  -25.7195   18.9697 H   0  0  0  0  0  0
  -24.0209  -27.2684   18.9195 H   0  0  0  0  0  0
  -23.8913  -30.5069   19.3841 H   0  0  0  0  0  0
  -22.8397  -29.1969   19.8212 H   0  0  0  0  0  0
  -25.1333  -36.1734   25.0790 H   0  0  0  0  0  0
  -21.0054  -28.3373   24.1296 H   0  0  0  0  0  0
  -20.5674  -26.2389   23.3659 H   0  0  0  0  0  0
  -21.6667  -26.7398   22.1222 H   0  0  0  0  0  0
  -19.6936  -25.6272   21.1287 H   0  0  0  0  0  0
  -19.6716  -27.3160   20.6732 H   0  0  0  0  0  0
  -17.4233  -26.6711   21.4018 H   0  0  0  0  0  0
  -18.0331  -26.0105   22.9025 H   0  0  0  0  0  0
  -19.7981  -30.7329   24.2196 H   0  0  0  0  0  0
  -17.5050  -31.6280   24.5167 H   0  0  0  0  0  0
  -15.5384  -30.2978   23.7698 H   0  0  0  0  0  0
  -15.8715  -28.0807   22.7114 H   0  0  0  0  0  0
  -24.5886  -30.7125   25.7657 H   0  0  0  0  0  0
  -24.8827  -32.3026   26.4579 H   0  0  0  0  0  0
  -25.7890  -30.9115   27.0230 H   0  0  0  0  0  0
  -26.3156  -29.6548   24.1454 H   0  0  0  0  0  0
  -27.3950  -29.7273   25.5155 H   0  0  0  0  0  0
  -27.9118  -30.4054   23.9942 H   0  0  0  0  0  0
  -27.2617  -33.3725   26.1891 H   0  0  0  0  0  0
  -28.3951  -32.6795   25.0388 H   0  0  0  0  0  0
  -28.0606  -31.8595   26.5560 H   0  0  0  0  0  0
  -28.2560  -38.0066   24.7519 H   0  0  0  0  0  0
  -28.1077  -36.2591   24.6283 H   0  0  0  0  0  0
  -27.2289  -37.1383   25.8873 H   0  0  0  0  0  0
  -20.9621  -29.8727   21.6634 H   0  0  0  0  0  0
  -26.0107  -38.2748   24.1433 H   0  0  0  0  0  0
  -29.0536  -21.1376   18.5612 H   0  0  0  0  0  0
  -28.4561  -22.3591   22.5598 H   0  0  0  0  0  0
  -30.6460  -19.4384   24.4553 H   0  0  0  0  0  0
  -30.7237  -21.0392   23.7269 H   0  0  0  0  0  0
  -31.3564  -19.6412   22.8561 H   0  0  0  0  0  0
  -26.8946  -23.9698   19.9838 H   0  0  0  0  0  0
  -28.1254  -24.1254   18.7990 H   0  0  0  0  0  0
  -30.9906  -18.3849   20.4021 H   0  0  0  0  0  0
  -30.0479  -18.2397   18.9946 H   0  0  0  0  0  0
  -28.3939  -20.0682   23.5700 H   0  0  0  0  0  0
  -29.0199  -18.6906   22.6978 H   0  0  0  0  0  0
  -28.6883  -16.4934   20.6514 H   0  0  0  0  0  0
  1 25  1  0  0  0
  1 30  2  0  0  0
  1 80  1  0  0  0
  2  3  1  0  0  0
  2 25  1  0  0  0
  2 81  1  0  0  0
  2 82  1  0  0  0
  3  4  1  0  0  0
  3 83  1  0  0  0
  3 84  1  0  0  0
  4  5  1  0  0  0
  4 85  1  0  0  0
  4 86  1  0  0  0
  5  6  1  0  0  0
  5 26  1  0  0  0
  5 87  1  0  0  0
  6 25  1  0  0  0
  6 88  1  0  0  0
  6 89  1  0  0  0
  7  8  2  0  0  0
  7 26  1  0  0  0
  7 29  1  0  0  0
  8  9  1  0  0  0
  8 22  1  0  0  0
  9 10  1  0  0  0
  9 27  2  0  0  0
 10 11  2  0  0  0
 10 15  1  0  0  0
 11 12  1  0  0  0
 11 90  1  0  0  0
 12 13  2  0  0  0
 12 91  1  0  0  0
 13 14  1  0  0  0
 13 31  1  0  0  0
 14 15  2  0  0  0
 14 92  1  0  0  0
 15 93  1  0  0  0
 16 17  2  0  0  0
 16 21  1  0  0  0
 16 31  1  0  0  0
 17 18  1  0  0  0
 17 94  1  0  0  0
 18 19  2  0  0  0
 18 95  1  0  0  0
 19 20  1  0  0  0
 19 24  1  0  0  0
 20 21  2  0  0  0
 20 96  1  0  0  0
 21 23  1  0  0  0
 22 28  1  0  0  0
 22 32  2  0  0  0
 26 27  1  0  0  0
 28 97  1  0  0  0
 28 98  1  0  0  0
 29 99  1  0  0  0
 29100  1  0  0  0
 33 34  1  0  0  0
 33 66  1  0  0  0
 33 70  2  0  0  0
 34 36  1  0  0  0
 34 59  1  0  0  0
 34101  1  0  0  0
 35 44  2  0  0  0
 35 45  1  0  0  0
 35 68  1  0  0  0
 36 56  1  0  0  0
 36102  1  0  0  0
 37 39  1  0  0  0
 37 47  1  0  0  0
 37 66  1  0  0  0
 37103  1  0  0  0
 38 43  2  0  0  0
 38 46  1  0  0  0
 38 47  1  0  0  0
 39 64  1  0  0  0
 39 67  2  0  0  0
 40 52  1  0  0  0
 40 53  2  0  0  0
 40 58  1  0  0  0
 41104  1  0  0  0
 41105  1  0  0  0
 41106  1  0  0  0
 41 48  1  0  0  0
 42 43  1  0  0  0
 42 66  1  0  0  0
 42107  1  0  0  0
 42108  1  0  0  0
 43 44  1  0  0  0
 44109  1  0  0  0
 45 46  2  0  0  0
 45110  1  0  0  0
 46111  1  0  0  0
 47112  1  0  0  0
 47113  1  0  0  0
 48 56  1  0  0  0
 48 65  1  0  0  0
 48114  1  0  0  0
 49 50  1  0  0  0
 49 53  1  0  0  0
 49 64  1  0  0  0
 49115  1  0  0  0
 50 51  1  0  0  0
 50116  1  0  0  0
 50117  1  0  0  0
 51 52  1  0  0  0
 51118  1  0  0  0
 51119  1  0  0  0
 52120  1  0  0  0
 52121  1  0  0  0
 53 54  1  0  0  0
 54 55  2  0  0  0
 54122  1  0  0  0
 55 57  1  0  0  0
 55123  1  0  0  0
 56 69  2  0  0  0
 57 58  2  0  0  0
 57124  1  0  0  0
 58125  1  0  0  0
 59 60  1  0  0  0
 59 61  1  0  0  0
 59 62  1  0  0  0
 60126  1  0  0  0
 60127  1  0  0  0
 60128  1  0  0  0
 61129  1  0  0  0
 61130  1  0  0  0
 61131  1  0  0  0
 62132  1  0  0  0
 62133  1  0  0  0
 62134  1  0  0  0
 63 65  1  0  0  0
 63135  1  0  0  0
 63136  1  0  0  0
 63137  1  0  0  0
 64138  1  0  0  0
 65139  1  0  0  0
 68 76  1  0  0  0
 71 73  1  0  0  0
 71 74  2  0  0  0
 71140  1  0  0  0
 72 73  2  0  0  0
 72 79  1  0  0  0
 72141  1  0  0  0
 73 76  1  0  0  0
 74 77  1  0  0  0
 74 79  1  0  0  0
 75 78  1  0  0  0
 75142  1  0  0  0
 75143  1  0  0  0
 75144  1  0  0  0
 76145  1  0  0  0
 76146  1  0  0  0
 77 80  1  0  0  0
 77147  1  0  0  0
 77148  1  0  0  0
 78 79  1  0  0  0
 78149  1  0  0  0
 78150  1  0  0  0
 80151  1  0  0  0
M  ISO  4   1 100  68 101  76 101  80 100
M  END
> <chiral flag>
0

> <version>
0

> <s_m_source_file>
/data/baiqing/PycharmProjects/Reinvent-master-3.2/result/LINK_invent/BTK/process_docking_weight1_custom_sum_contain_oxygen_bond_distance_aromatic_linkinvent_7_9_3/rearranged_h_0041.sdf

> <i_m_source_file_index>
62

> <r_mmod_Potential_Energy-OPLS-2005>
1441.03637695312

> <r_mmod_Stretch_Energy-OPLS-2005>
663.608276367188

> <r_mmod_Bend_Energy-OPLS-2005>
482.838531494141

> <r_mmod_Torsional_Energy-OPLS-2005>
232.591049194336

> <r_mmod_Improper_Torsional_Energy-OPLS-2005>
6.69685983657837

> <r_mmod_Van_der_Waal_Energy-OPLS-2005>
105.838638305664

> <r_mmod_Electrostatic_Energy-OPLS-2005>
-390.719512939453

> <r_mmod_Solvation_Energy-OPLS-2005>
-220.223571777344

> <b_mmod_Minimization_Converged-OPLS-2005>
0

> <r_mmod_RMS_Derivative-OPLS-2005>
0.754584848880768

$$$$
62
                    3D
 Structure written by MMmdl.
156164  0  0  1  0            999 V2000
  -30.6548  -14.5459   20.5296 C   0  0  0  0  0  0
  -30.4371  -12.3375   19.4354 C   0  0  0  0  0  0
  -29.5060  -12.4936   18.2140 C   0  0  0  0  0  0
  -28.0270  -12.3431   18.6265 C   0  0  0  0  0  0
  -27.6595  -13.2034   19.8655 C   0  0  2  0  0  0
  -28.7024  -13.0190   20.9911 C   0  0  0  0  0  0
  -25.2602  -13.8147   20.5652 C   0  0  0  0  0  0
  -24.1856  -13.0434   20.9167 C   0  0  0  0  0  0
  -24.6404  -11.6898   20.8728 C   0  0  0  0  0  0
  -23.9068  -10.4287   21.0404 C   0  0  0  0  0  0
  -24.3617   -9.4203   21.9188 C   0  0  0  0  0  0
  -23.6288   -8.2242   22.0762 C   0  0  0  0  0  0
  -22.4274   -8.0281   21.3550 C   0  0  0  0  0  0
  -21.9910   -9.0251   20.4651 C   0  0  0  0  0  0
  -22.7238  -10.2130   20.3053 C   0  0  0  0  0  0
  -21.6850   -6.0740   22.5283 C   0  0  0  0  0  0
  -21.4018   -6.5642   23.8215 C   0  0  0  0  0  0
  -21.3658   -5.6790   24.9174 C   0  0  0  0  0  0
  -21.6040   -4.3052   24.7220 C   0  0  0  0  0  0
  -21.8824   -3.8150   23.4339 C   0  0  0  0  0  0
  -21.9195   -4.6969   22.3403 C   0  0  0  0  0  0
  -22.7879  -13.5240   21.1834 C   0  0  0  0  0  0
  -22.1663   -4.2155   21.0976 F   0  0  0  0  0  0
  -21.5628   -3.4534   25.7733 F   0  0  0  0  0  0
  -30.0260  -13.3401   20.4312 N   0  0  0  0  0  0
  -26.3018  -12.9304   20.3304 N   0  0  0  0  0  0
  -25.9325  -11.6474   20.5741 N   0  0  0  0  0  0
  -22.0506  -12.8234   22.0378 N   0  0  0  0  0  0
  -25.4335  -15.1862   20.4058 N   0  0  0  0  0  0
  -31.8071  -14.7317   20.1307 O   0  0  0  0  0  0
  -21.6637   -6.8881   21.4244 O   0  0  0  0  0  0
  -22.3571  -14.5549   20.6680 O   0  0  0  0  0  0
  -24.6217  -31.8668   23.2030 C   0  0  0  0  0  0
  -25.9080  -32.4809   23.8366 C   0  0  1  0  0  0
  -27.2329  -27.3867   20.0772 C   0  0  0  0  0  0
  -25.5931  -33.8611   24.2313 N   0  0  0  0  0  0
  -23.4103  -30.4914   21.5466 C   0  0  2  0  0  0
  -24.8504  -28.9504   20.1117 C   0  0  0  0  0  0
  -22.7450  -29.4676   22.4964 C   0  0  0  0  0  0
  -18.0289  -28.1388   22.8468 C   0  0  0  0  0  0
  -24.1497  -36.7299   23.2642 C   0  0  0  0  0  0
  -25.9465  -30.8145   21.3627 C   0  0  0  0  0  0
  -26.0177  -29.4468   20.7030 C   0  0  0  0  0  0
  -27.2074  -28.6741   20.6804 C   0  0  0  0  0  0
  -26.0273  -26.9045   19.5142 C   0  0  0  0  0  0
  -24.8525  -27.6785   19.5175 C   0  0  0  0  0  0
  -23.6162  -29.8236   20.1617 C   0  0  0  0  0  0
  -25.4115  -36.3106   24.0344 C   0  0  1  0  0  0
  -20.5883  -28.3686   23.1287 C   0  0  2  0  0  0
  -20.6778  -26.9417   22.5397 C   0  0  0  0  0  0
  -19.5750  -26.6393   21.5208 C   0  0  0  0  0  0
  -18.1933  -26.7929   22.1613 C   0  0  0  0  0  0
  -19.1540  -28.8845   23.2871 C   0  0  0  0  0  0
  -18.9469  -30.1448   23.8888 C   0  0  0  0  0  0
  -17.6470  -30.6582   24.0573 C   0  0  0  0  0  0
  -25.9062  -34.9474   23.5130 C   0  0  0  0  0  0
  -16.5363  -29.9082   23.6332 C   0  0  0  0  0  0
  -16.7280  -28.6503   23.0339 C   0  0  0  0  0  0
  -26.4470  -31.6603   25.0731 C   0  0  0  0  0  0
  -25.3695  -31.3713   26.1452 C   0  0  0  0  0  0
  -27.0309  -30.3037   24.6140 C   0  0  0  0  0  0
  -27.6057  -32.4323   25.7474 C   0  0  0  0  0  0
  -27.5581  -37.1802   24.8469 C   0  0  0  0  0  0
  -21.4172  -29.3059   22.3694 N   0  0  0  0  0  0
  -26.4293  -37.3807   23.9413 N   0  0  0  0  0  0
  -24.6794  -31.0739   22.0941 N   0  0  0  0  0  0
  -23.4203  -28.8224   23.3030 O   0  0  0  0  0  0
  -28.4065  -26.6387   20.0929 O   0  0  0  0  0  0
  -26.5642  -34.8928   22.4700 O   0  0  0  0  0  0
  -23.5389  -32.1433   23.7382 O   0  0  0  0  0  0
  -29.2064  -22.8973   19.1849 C   0  0  0  0  0  0
  -28.8508  -24.1278   19.8359 C   0  0  0  0  0  0
  -29.4126  -21.9663   20.1782 C   0  0  0  0  0  0
  -29.1996  -22.1719   22.7237 C   0  0  0  0  0  0
  -28.5999  -25.5060   19.1944 C   0  0  0  0  0  0
  -29.9263  -20.5216   20.1124 C   0  0  0  0  0  0
  -28.9242  -19.3767   20.4645 C   0  0  0  0  0  0
  -29.2761  -17.9005   20.0478 C   0  0  0  0  0  0
  -30.1549  -17.0289   21.0054 C   0  0  0  0  0  0
  -28.7919  -23.9449   21.1490 N   0  0  0  0  0  0
  -29.1348  -22.6453   21.3570 N   0  0  0  0  0  0
  -29.8631  -15.5729   20.9217 N   0  0  0  0  0  0
  -31.4804  -12.4531   19.1361 H   0  0  0  0  0  0
  -30.3573  -11.3337   19.8567 H   0  0  0  0  0  0
  -29.7577  -11.7545   17.4528 H   0  0  0  0  0  0
  -29.6616  -13.4709   17.7545 H   0  0  0  0  0  0
  -27.8523  -11.2886   18.8457 H   0  0  0  0  0  0
  -27.3741  -12.5880   17.7883 H   0  0  0  0  0  0
  -27.6918  -14.2438   19.5417 H   0  0  0  0  0  0
  -28.6938  -11.9897   21.3528 H   0  0  0  0  0  0
  -28.4569  -13.6351   21.8576 H   0  0  0  0  0  0
  -25.2768   -9.5676   22.4750 H   0  0  0  0  0  0
  -24.0001   -7.4635   22.7483 H   0  0  0  0  0  0
  -21.0841   -8.8767   19.8950 H   0  0  0  0  0  0
  -22.3706  -10.9664   19.6149 H   0  0  0  0  0  0
  -21.2011   -7.6149   23.9721 H   0  0  0  0  0  0
  -21.1475   -6.0517   25.9075 H   0  0  0  0  0  0
  -22.0605   -2.7611   23.2835 H   0  0  0  0  0  0
  -22.4107  -11.9877   22.4745 H   0  0  0  0  0  0
  -21.1122  -13.1270   22.2574 H   0  0  0  0  0  0
  -24.6665  -15.8410   20.5129 H   0  0  0  0  0  0
  -26.2803  -15.6222   20.0639 H   0  0  0  0  0  0
  -26.7155  -32.5469   23.1126 H   0  0  0  0  0  0
  -25.0059  -33.9771   25.0439 H   0  0  0  0  0  0
  -22.7020  -31.3101   21.4051 H   0  0  0  0  0  0
  -23.3767  -35.9632   23.3323 H   0  0  0  0  0  0
  -24.3587  -36.8891   22.2052 H   0  0  0  0  0  0
  -23.7231  -37.6506   23.6639 H   0  0  0  0  0  0
  -26.0756  -31.5795   20.5964 H   0  0  0  0  0  0
  -26.8309  -30.8599   21.9868 H   0  0  0  0  0  0
  -28.1095  -29.0646   21.1292 H   0  0  0  0  0  0
  -25.9505  -25.9138   19.0933 H   0  0  0  0  0  0
  -23.9499  -27.2781   19.0777 H   0  0  0  0  0  0
  -23.7224  -30.5993   19.4022 H   0  0  0  0  0  0
  -22.7367  -29.2476   19.8700 H   0  0  0  0  0  0
  -25.1285  -36.1990   25.0841 H   0  0  0  0  0  0
  -20.9981  -28.3252   24.1406 H   0  0  0  0  0  0
  -20.5686  -26.2294   23.3592 H   0  0  0  0  0  0
  -21.6635  -26.7453   22.1181 H   0  0  0  0  0  0
  -19.6910  -25.6311   21.1208 H   0  0  0  0  0  0
  -19.6678  -27.3224   20.6765 H   0  0  0  0  0  0
  -17.4204  -26.6694   21.4016 H   0  0  0  0  0  0
  -18.0304  -26.0092   22.9014 H   0  0  0  0  0  0
  -19.7954  -30.7263   24.2248 H   0  0  0  0  0  0
  -17.5035  -31.6252   24.5179 H   0  0  0  0  0  0
  -15.5357  -30.2984   23.7650 H   0  0  0  0  0  0
  -15.8686  -28.0825   22.7039 H   0  0  0  0  0  0
  -24.5907  -30.7025   25.7765 H   0  0  0  0  0  0
  -24.8820  -32.2856   26.4855 H   0  0  0  0  0  0
  -25.8011  -30.8910   27.0241 H   0  0  0  0  0  0
  -26.2872  -29.6786   24.1188 H   0  0  0  0  0  0
  -27.4074  -29.7290   25.4614 H   0  0  0  0  0  0
  -27.8706  -30.4358   23.9313 H   0  0  0  0  0  0
  -27.2724  -33.3649   26.2038 H   0  0  0  0  0  0
  -28.3858  -32.6840   25.0276 H   0  0  0  0  0  0
  -28.0745  -31.8446   26.5381 H   0  0  0  0  0  0
  -28.2619  -38.0084   24.7536 H   0  0  0  0  0  0
  -28.1064  -36.2620   24.6288 H   0  0  0  0  0  0
  -27.2308  -37.1457   25.8877 H   0  0  0  0  0  0
  -20.9343  -29.8777   21.6899 H   0  0  0  0  0  0
  -26.0190  -38.2897   24.1390 H   0  0  0  0  0  0
  -29.3381  -22.7384   18.1237 H   0  0  0  0  0  0
  -29.5139  -21.1309   22.7618 H   0  0  0  0  0  0
  -28.2177  -22.2548   23.1888 H   0  0  0  0  0  0
  -29.9184  -22.7661   23.2869 H   0  0  0  0  0  0
  -27.8352  -25.4200   18.4256 H   0  0  0  0  0  0
  -29.4885  -25.7621   18.6180 H   0  0  0  0  0  0
  -30.7972  -20.4337   20.7617 H   0  0  0  0  0  0
  -30.3101  -20.3481   19.1072 H   0  0  0  0  0  0
  -27.9999  -19.6253   19.9429 H   0  0  0  0  0  0
  -28.6616  -19.4050   21.5218 H   0  0  0  0  0  0
  -29.7062  -17.8902   19.0450 H   0  0  0  0  0  0
  -28.3195  -17.3850   19.9458 H   0  0  0  0  0  0
  -29.9597  -17.3239   22.0368 H   0  0  0  0  0  0
  -31.2136  -17.2279   20.8319 H   0  0  0  0  0  0
  -28.9310  -15.2961   21.1944 H   0  0  0  0  0  0
  1 25  1  0  0  0
  1 30  2  0  0  0
  1 82  1  0  0  0
  2  3  1  0  0  0
  2 25  1  0  0  0
  2 83  1  0  0  0
  2 84  1  0  0  0
  3  4  1  0  0  0
  3 85  1  0  0  0
  3 86  1  0  0  0
  4  5  1  0  0  0
  4 87  1  0  0  0
  4 88  1  0  0  0
  5  6  1  0  0  0
  5 26  1  0  0  0
  5 89  1  0  0  0
  6 25  1  0  0  0
  6 90  1  0  0  0
  6 91  1  0  0  0
  7  8  2  0  0  0
  7 26  1  0  0  0
  7 29  1  0  0  0
  8  9  1  0  0  0
  8 22  1  0  0  0
  9 10  1  0  0  0
  9 27  2  0  0  0
 10 11  2  0  0  0
 10 15  1  0  0  0
 11 12  1  0  0  0
 11 92  1  0  0  0
 12 13  2  0  0  0
 12 93  1  0  0  0
 13 14  1  0  0  0
 13 31  1  0  0  0
 14 15  2  0  0  0
 14 94  1  0  0  0
 15 95  1  0  0  0
 16 17  2  0  0  0
 16 21  1  0  0  0
 16 31  1  0  0  0
 17 18  1  0  0  0
 17 96  1  0  0  0
 18 19  2  0  0  0
 18 97  1  0  0  0
 19 20  1  0  0  0
 19 24  1  0  0  0
 20 21  2  0  0  0
 20 98  1  0  0  0
 21 23  1  0  0  0
 22 28  1  0  0  0
 22 32  2  0  0  0
 26 27  1  0  0  0
 28 99  1  0  0  0
 28100  1  0  0  0
 29101  1  0  0  0
 29102  1  0  0  0
 33 34  1  0  0  0
 33 66  1  0  0  0
 33 70  2  0  0  0
 34 36  1  0  0  0
 34 59  1  0  0  0
 34103  1  0  0  0
 35 44  2  0  0  0
 35 45  1  0  0  0
 35 68  1  0  0  0
 36 56  1  0  0  0
 36104  1  0  0  0
 37 39  1  0  0  0
 37 47  1  0  0  0
 37 66  1  0  0  0
 37105  1  0  0  0
 38 43  2  0  0  0
 38 46  1  0  0  0
 38 47  1  0  0  0
 39 64  1  0  0  0
 39 67  2  0  0  0
 40 52  1  0  0  0
 40 53  2  0  0  0
 40 58  1  0  0  0
 41106  1  0  0  0
 41107  1  0  0  0
 41108  1  0  0  0
 41 48  1  0  0  0
 42 43  1  0  0  0
 42 66  1  0  0  0
 42109  1  0  0  0
 42110  1  0  0  0
 43 44  1  0  0  0
 44111  1  0  0  0
 45 46  2  0  0  0
 45112  1  0  0  0
 46113  1  0  0  0
 47114  1  0  0  0
 47115  1  0  0  0
 48 56  1  0  0  0
 48 65  1  0  0  0
 48116  1  0  0  0
 49 50  1  0  0  0
 49 53  1  0  0  0
 49 64  1  0  0  0
 49117  1  0  0  0
 50 51  1  0  0  0
 50118  1  0  0  0
 50119  1  0  0  0
 51 52  1  0  0  0
 51120  1  0  0  0
 51121  1  0  0  0
 52122  1  0  0  0
 52123  1  0  0  0
 53 54  1  0  0  0
 54 55  2  0  0  0
 54124  1  0  0  0
 55 57  1  0  0  0
 55125  1  0  0  0
 56 69  2  0  0  0
 57 58  2  0  0  0
 57126  1  0  0  0
 58127  1  0  0  0
 59 60  1  0  0  0
 59 61  1  0  0  0
 59 62  1  0  0  0
 60128  1  0  0  0
 60129  1  0  0  0
 60130  1  0  0  0
 61131  1  0  0  0
 61132  1  0  0  0
 61133  1  0  0  0
 62134  1  0  0  0
 62135  1  0  0  0
 62136  1  0  0  0
 63 65  1  0  0  0
 63137  1  0  0  0
 63138  1  0  0  0
 63139  1  0  0  0
 64140  1  0  0  0
 65141  1  0  0  0
 68 75  1  0  0  0
 71 72  1  0  0  0
 71 73  2  0  0  0
 71142  1  0  0  0
 72 75  1  0  0  0
 72 80  2  0  0  0
 73 76  1  0  0  0
 73 81  1  0  0  0
 74 81  1  0  0  0
 74143  1  0  0  0
 74144  1  0  0  0
 74145  1  0  0  0
 75146  1  0  0  0
 75147  1  0  0  0
 76 77  1  0  0  0
 76148  1  0  0  0
 76149  1  0  0  0
 77 78  1  0  0  0
 77150  1  0  0  0
 77151  1  0  0  0
 78 79  1  0  0  0
 78152  1  0  0  0
 78153  1  0  0  0
 79 82  1  0  0  0
 79154  1  0  0  0
 79155  1  0  0  0
 80 81  1  0  0  0
 82156  1  0  0  0
M  ISO  4   1 100  68 101  75 101  82 100
M  END
> <chiral flag>
0

> <version>
0

> <s_m_source_file>
/data/baiqing/PycharmProjects/Reinvent-master-3.2/result/LINK_invent/BTK/process_docking_weight1_custom_sum_contain_oxygen_bond_distance_aromatic_linkinvent_7_9_3/rearranged_h_0041.sdf

> <i_m_source_file_index>
63

> <r_mmod_Potential_Energy-OPLS-2005>
-53.8369979858398

> <r_mmod_Stretch_Energy-OPLS-2005>
49.6465759277344

> <r_mmod_Bend_Energy-OPLS-2005>
121.531723022461

> <r_mmod_Torsional_Energy-OPLS-2005>
210.853149414062

> <r_mmod_Improper_Torsional_Energy-OPLS-2005>
4.34109687805176

> <r_mmod_Van_der_Waal_Energy-OPLS-2005>
122.994850158691

> <r_mmod_Electrostatic_Energy-OPLS-2005>
-355.296020507812

> <r_mmod_Solvation_Energy-OPLS-2005>
-231.466888427734

> <b_mmod_Minimization_Converged-OPLS-2005>
0

> <r_mmod_RMS_Derivative-OPLS-2005>
2.39219784736633

$$$$
63
                    3D
 Structure written by MMmdl.
153161  0  0  1  0            999 V2000
  -30.6620  -14.5511   20.5845 C   0  0  0  0  0  0
  -30.4396  -12.3745   19.4159 C   0  0  0  0  0  0
  -29.5068  -12.5664   18.2030 C   0  0  0  0  0  0
  -28.0276  -12.4084   18.6061 C   0  0  0  0  0  0
  -27.6623  -13.2244   19.8763 C   0  0  2  0  0  0
  -28.7073  -12.9932   20.9956 C   0  0  0  0  0  0
  -25.2605  -13.8199   20.5683 C   0  0  0  0  0  0
  -24.1885  -13.0462   20.9185 C   0  0  0  0  0  0
  -24.6411  -11.6898   20.8738 C   0  0  0  0  0  0
  -23.9061  -10.4291   21.0409 C   0  0  0  0  0  0
  -24.3623   -9.4209   21.9174 C   0  0  0  0  0  0
  -23.6318   -8.2228   22.0763 C   0  0  0  0  0  0
  -22.4279   -8.0272   21.3564 C   0  0  0  0  0  0
  -21.9893   -9.0257   20.4654 C   0  0  0  0  0  0
  -22.7214  -10.2129   20.3059 C   0  0  0  0  0  0
  -21.6839   -6.0741   22.5270 C   0  0  0  0  0  0
  -21.4028   -6.5659   23.8212 C   0  0  0  0  0  0
  -21.3710   -5.6810   24.9172 C   0  0  0  0  0  0
  -21.6037   -4.3065   24.7208 C   0  0  0  0  0  0
  -21.8809   -3.8137   23.4357 C   0  0  0  0  0  0
  -21.9212   -4.6984   22.3401 C   0  0  0  0  0  0
  -22.7896  -13.5224   21.1814 C   0  0  0  0  0  0
  -22.1635   -4.2171   21.0987 F   0  0  0  0  0  0
  -21.5667   -3.4547   25.7781 F   0  0  0  0  0  0
  -30.0285  -13.3425   20.4496 N   0  0  0  0  0  0
  -26.3038  -12.9392   20.3298 N   0  0  0  0  0  0
  -25.9347  -11.6522   20.5661 N   0  0  0  0  0  0
  -22.0472  -12.8309   22.0390 N   0  0  0  0  0  0
  -25.4339  -15.1903   20.4037 N   0  0  0  0  0  0
  -31.7882  -14.7560   20.1337 O   0  0  0  0  0  0
  -21.6668   -6.8865   21.4220 O   0  0  0  0  0  0
  -22.3570  -14.5513   20.6630 O   0  0  0  0  0  0
  -24.6157  -31.8693   23.2182 C   0  0  0  0  0  0
  -25.9077  -32.4832   23.8440 C   0  0  1  0  0  0
  -27.2189  -27.4060   20.0801 C   0  0  0  0  0  0
  -25.5959  -33.8627   24.2377 N   0  0  0  0  0  0
  -23.4017  -30.5030   21.5555 C   0  0  2  0  0  0
  -24.8445  -28.9811   20.1061 C   0  0  0  0  0  0
  -22.7422  -29.4693   22.4956 C   0  0  0  0  0  0
  -18.0293  -28.1388   22.8509 C   0  0  0  0  0  0
  -24.1492  -36.7296   23.2633 C   0  0  0  0  0  0
  -25.9369  -30.8249   21.3833 C   0  0  0  0  0  0
  -26.0078  -29.4650   20.7137 C   0  0  0  0  0  0
  -27.1910  -28.6812   20.7067 C   0  0  0  0  0  0
  -26.0228  -26.9500   19.4758 C   0  0  0  0  0  0
  -24.8485  -27.7248   19.4878 C   0  0  0  0  0  0
  -23.6107  -29.8572   20.1621 C   0  0  0  0  0  0
  -25.4102  -36.3106   24.0348 C   0  0  1  0  0  0
  -20.5892  -28.3674   23.1332 C   0  0  2  0  0  0
  -20.6802  -26.9394   22.5444 C   0  0  0  0  0  0
  -19.5765  -26.6380   21.5255 C   0  0  0  0  0  0
  -18.1930  -26.7948   22.1623 C   0  0  0  0  0  0
  -19.1545  -28.8832   23.2930 C   0  0  0  0  0  0
  -18.9460  -30.1454   23.8925 C   0  0  0  0  0  0
  -17.6440  -30.6590   24.0578 C   0  0  0  0  0  0
  -25.9042  -34.9466   23.5145 C   0  0  0  0  0  0
  -16.5346  -29.9069   23.6338 C   0  0  0  0  0  0
  -16.7286  -28.6509   23.0338 C   0  0  0  0  0  0
  -26.4520  -31.6603   25.0755 C   0  0  0  0  0  0
  -25.3828  -31.3727   26.1557 C   0  0  0  0  0  0
  -27.0368  -30.3024   24.6194 C   0  0  0  0  0  0
  -27.6111  -32.4329   25.7471 C   0  0  0  0  0  0
  -27.5611  -37.1753   24.8425 C   0  0  0  0  0  0
  -21.4144  -29.3038   22.3705 N   0  0  0  0  0  0
  -26.4270  -37.3797   23.9461 N   0  0  0  0  0  0
  -24.6671  -31.0798   22.1097 N   0  0  0  0  0  0
  -23.4197  -28.8220   23.2981 O   0  0  0  0  0  0
  -28.4061  -26.6767   20.1040 O   0  0  0  0  0  0
  -26.5549  -34.8921   22.4672 O   0  0  0  0  0  0
  -23.5347  -32.1458   23.7585 O   0  0  0  0  0  0
  -28.7752  -20.2194   21.9081 C   0  0  0  0  0  0
  -29.4402  -20.3638   19.8138 C   0  0  0  0  0  0
  -29.1296  -19.4150   20.7684 C   0  0  0  0  0  0
  -29.0510  -17.8834   20.5832 C   0  0  0  0  0  0
  -29.0545  -24.2602   20.3664 C   0  0  0  0  0  0
  -29.4092  -22.9249   19.6229 C   0  0  0  0  0  0
  -30.1991  -17.0177   21.1915 C   0  0  0  0  0  0
  -28.5550  -25.4013   19.4277 C   0  0  0  0  0  0
  -28.8686  -21.5332   21.6551 N   0  0  0  0  0  0
  -29.2585  -21.6319   20.3507 N   0  0  0  0  0  0
  -29.9158  -15.5514   21.1278 N   0  0  0  0  0  0
  -31.4793  -12.5128   19.1066 H   0  0  0  0  0  0
  -30.3664  -11.3481   19.7852 H   0  0  0  0  0  0
  -29.7605  -11.8571   17.4170 H   0  0  0  0  0  0
  -29.6719  -13.5578   17.7837 H   0  0  0  0  0  0
  -27.8500  -11.3466   18.7844 H   0  0  0  0  0  0
  -27.3813  -12.7021   17.7758 H   0  0  0  0  0  0
  -27.7062  -14.2773   19.5955 H   0  0  0  0  0  0
  -28.6993  -11.9452   21.3056 H   0  0  0  0  0  0
  -28.4547  -13.5684   21.8896 H   0  0  0  0  0  0
  -25.2750   -9.5760   22.4751 H   0  0  0  0  0  0
  -24.0074   -7.4652   22.7507 H   0  0  0  0  0  0
  -21.0808   -8.8726   19.8970 H   0  0  0  0  0  0
  -22.3604  -10.9696   19.6216 H   0  0  0  0  0  0
  -21.1953   -7.6141   23.9703 H   0  0  0  0  0  0
  -21.1567   -6.0548   25.9108 H   0  0  0  0  0  0
  -22.0535   -2.7586   23.2830 H   0  0  0  0  0  0
  -22.4051  -12.0081   22.5005 H   0  0  0  0  0  0
  -21.1070  -13.1375   22.2460 H   0  0  0  0  0  0
  -24.6515  -15.8342   20.4804 H   0  0  0  0  0  0
  -26.2579  -15.6076   19.9882 H   0  0  0  0  0  0
  -26.7130  -32.5528   23.1182 H   0  0  0  0  0  0
  -25.0204  -33.9785   25.0594 H   0  0  0  0  0  0
  -22.6942  -31.3242   21.4308 H   0  0  0  0  0  0
  -23.3804  -35.9569   23.3162 H   0  0  0  0  0  0
  -24.3653  -36.9040   22.2079 H   0  0  0  0  0  0
  -23.7159  -37.6428   23.6718 H   0  0  0  0  0  0
  -26.0715  -31.6081   20.6355 H   0  0  0  0  0  0
  -26.8148  -30.8551   22.0151 H   0  0  0  0  0  0
  -28.0802  -29.0514   21.1933 H   0  0  0  0  0  0
  -25.9314  -25.9981   18.9851 H   0  0  0  0  0  0
  -23.9523  -27.3479   19.0140 H   0  0  0  0  0  0
  -23.7240  -30.6474   19.4182 H   0  0  0  0  0  0
  -22.7313  -29.2900   19.8533 H   0  0  0  0  0  0
  -25.1264  -36.1940   25.0828 H   0  0  0  0  0  0
  -21.0009  -28.3238   24.1442 H   0  0  0  0  0  0
  -20.5762  -26.2245   23.3625 H   0  0  0  0  0  0
  -21.6660  -26.7467   22.1192 H   0  0  0  0  0  0
  -19.6915  -25.6301   21.1252 H   0  0  0  0  0  0
  -19.6737  -27.3233   20.6822 H   0  0  0  0  0  0
  -17.4241  -26.6778   21.3971 H   0  0  0  0  0  0
  -18.0246  -26.0074   22.8973 H   0  0  0  0  0  0
  -19.7913  -30.7282   24.2284 H   0  0  0  0  0  0
  -17.4988  -31.6267   24.5166 H   0  0  0  0  0  0
  -15.5345  -30.2955   23.7670 H   0  0  0  0  0  0
  -15.8687  -28.0842   22.6989 H   0  0  0  0  0  0
  -24.5910  -30.7185   25.7905 H   0  0  0  0  0  0
  -24.9171  -32.2909   26.5132 H   0  0  0  0  0  0
  -25.8219  -30.8768   27.0227 H   0  0  0  0  0  0
  -26.2917  -29.6724   24.1328 H   0  0  0  0  0  0
  -27.4193  -29.7339   25.4686 H   0  0  0  0  0  0
  -27.8741  -30.4314   23.9336 H   0  0  0  0  0  0
  -27.2730  -33.3570   26.2170 H   0  0  0  0  0  0
  -28.3829  -32.6996   25.0236 H   0  0  0  0  0  0
  -28.0910  -31.8413   26.5283 H   0  0  0  0  0  0
  -28.2503  -38.0177   24.7676 H   0  0  0  0  0  0
  -28.1243  -36.2731   24.5963 H   0  0  0  0  0  0
  -27.2393  -37.1054   25.8835 H   0  0  0  0  0  0
  -20.9272  -29.8746   21.6934 H   0  0  0  0  0  0
  -26.0153  -38.2833   24.1630 H   0  0  0  0  0  0
  -28.4121  -19.9121   22.8900 H   0  0  0  0  0  0
  -29.7268  -20.2545   18.7695 H   0  0  0  0  0  0
  -29.0114  -17.6535   19.5170 H   0  0  0  0  0  0
  -28.0972  -17.5102   20.9498 H   0  0  0  0  0  0
  -29.9377  -24.6034   20.9072 H   0  0  0  0  0  0
  -28.2749  -24.0940   21.1104 H   0  0  0  0  0  0
  -30.4377  -22.9921   19.2478 H   0  0  0  0  0  0
  -28.7933  -22.8518   18.7253 H   0  0  0  0  0  0
  -31.1386  -17.2525   20.6868 H   0  0  0  0  0  0
  -30.3220  -17.3013   22.2403 H   0  0  0  0  0  0
  -27.6602  -25.0312   18.9401 H   0  0  0  0  0  0
  -29.2609  -25.5635   18.6118 H   0  0  0  0  0  0
  -29.0312  -15.2631   21.5172 H   0  0  0  0  0  0
  1 25  1  0  0  0
  1 30  2  0  0  0
  1 81  1  0  0  0
  2  3  1  0  0  0
  2 25  1  0  0  0
  2 82  1  0  0  0
  2 83  1  0  0  0
  3  4  1  0  0  0
  3 84  1  0  0  0
  3 85  1  0  0  0
  4  5  1  0  0  0
  4 86  1  0  0  0
  4 87  1  0  0  0
  5  6  1  0  0  0
  5 26  1  0  0  0
  5 88  1  0  0  0
  6 25  1  0  0  0
  6 89  1  0  0  0
  6 90  1  0  0  0
  7  8  2  0  0  0
  7 26  1  0  0  0
  7 29  1  0  0  0
  8  9  1  0  0  0
  8 22  1  0  0  0
  9 10  1  0  0  0
  9 27  2  0  0  0
 10 11  2  0  0  0
 10 15  1  0  0  0
 11 12  1  0  0  0
 11 91  1  0  0  0
 12 13  2  0  0  0
 12 92  1  0  0  0
 13 14  1  0  0  0
 13 31  1  0  0  0
 14 15  2  0  0  0
 14 93  1  0  0  0
 15 94  1  0  0  0
 16 17  2  0  0  0
 16 21  1  0  0  0
 16 31  1  0  0  0
 17 18  1  0  0  0
 17 95  1  0  0  0
 18 19  2  0  0  0
 18 96  1  0  0  0
 19 20  1  0  0  0
 19 24  1  0  0  0
 20 21  2  0  0  0
 20 97  1  0  0  0
 21 23  1  0  0  0
 22 28  1  0  0  0
 22 32  2  0  0  0
 26 27  1  0  0  0
 28 98  1  0  0  0
 28 99  1  0  0  0
 29100  1  0  0  0
 29101  1  0  0  0
 33 34  1  0  0  0
 33 66  1  0  0  0
 33 70  2  0  0  0
 34 36  1  0  0  0
 34 59  1  0  0  0
 34102  1  0  0  0
 35 44  2  0  0  0
 35 45  1  0  0  0
 35 68  1  0  0  0
 36 56  1  0  0  0
 36103  1  0  0  0
 37 39  1  0  0  0
 37 47  1  0  0  0
 37 66  1  0  0  0
 37104  1  0  0  0
 38 43  2  0  0  0
 38 46  1  0  0  0
 38 47  1  0  0  0
 39 64  1  0  0  0
 39 67  2  0  0  0
 40 52  1  0  0  0
 40 53  2  0  0  0
 40 58  1  0  0  0
 41105  1  0  0  0
 41106  1  0  0  0
 41107  1  0  0  0
 41 48  1  0  0  0
 42 43  1  0  0  0
 42 66  1  0  0  0
 42108  1  0  0  0
 42109  1  0  0  0
 43 44  1  0  0  0
 44110  1  0  0  0
 45 46  2  0  0  0
 45111  1  0  0  0
 46112  1  0  0  0
 47113  1  0  0  0
 47114  1  0  0  0
 48 56  1  0  0  0
 48 65  1  0  0  0
 48115  1  0  0  0
 49 50  1  0  0  0
 49 53  1  0  0  0
 49 64  1  0  0  0
 49116  1  0  0  0
 50 51  1  0  0  0
 50117  1  0  0  0
 50118  1  0  0  0
 51 52  1  0  0  0
 51119  1  0  0  0
 51120  1  0  0  0
 52121  1  0  0  0
 52122  1  0  0  0
 53 54  1  0  0  0
 54 55  2  0  0  0
 54123  1  0  0  0
 55 57  1  0  0  0
 55124  1  0  0  0
 56 69  2  0  0  0
 57 58  2  0  0  0
 57125  1  0  0  0
 58126  1  0  0  0
 59 60  1  0  0  0
 59 61  1  0  0  0
 59 62  1  0  0  0
 60127  1  0  0  0
 60128  1  0  0  0
 60129  1  0  0  0
 61130  1  0  0  0
 61131  1  0  0  0
 61132  1  0  0  0
 62133  1  0  0  0
 62134  1  0  0  0
 62135  1  0  0  0
 63 65  1  0  0  0
 63136  1  0  0  0
 63137  1  0  0  0
 63138  1  0  0  0
 64139  1  0  0  0
 65140  1  0  0  0
 68 78  1  0  0  0
 71 73  1  0  0  0
 71 79  2  0  0  0
 71141  1  0  0  0
 72 73  2  0  0  0
 72 80  1  0  0  0
 72142  1  0  0  0
 73 74  1  0  0  0
 74 77  1  0  0  0
 74143  1  0  0  0
 74144  1  0  0  0
 75 76  1  0  0  0
 75 78  1  0  0  0
 75145  1  0  0  0
 75146  1  0  0  0
 76 80  1  0  0  0
 76147  1  0  0  0
 76148  1  0  0  0
 77 81  1  0  0  0
 77149  1  0  0  0
 77150  1  0  0  0
 78151  1  0  0  0
 78152  1  0  0  0
 79 80  1  0  0  0
 81153  1  0  0  0
M  ISO  4   1 100  68 101  78 101  81 100
M  END
> <chiral flag>
0

> <version>
0

> <s_m_source_file>
/data/baiqing/PycharmProjects/Reinvent-master-3.2/result/LINK_invent/BTK/process_docking_weight1_custom_sum_contain_oxygen_bond_distance_aromatic_linkinvent_7_9_3/rearranged_h_0041.sdf

> <i_m_source_file_index>
64

> <r_mmod_Potential_Energy-OPLS-2005>
-95.9262924194336

> <r_mmod_Stretch_Energy-OPLS-2005>
52.6289520263672

> <r_mmod_Bend_Energy-OPLS-2005>
120.88533782959

> <r_mmod_Torsional_Energy-OPLS-2005>
204.749877929688

> <r_mmod_Improper_Torsional_Energy-OPLS-2005>
4.23680019378662

> <r_mmod_Van_der_Waal_Energy-OPLS-2005>
127.034080505371

> <r_mmod_Electrostatic_Energy-OPLS-2005>
-394.320709228516

> <r_mmod_Solvation_Energy-OPLS-2005>
-232.933578491211

> <b_mmod_Minimization_Converged-OPLS-2005>
0

> <r_mmod_RMS_Derivative-OPLS-2005>
10.3027267456055

$$$$
64
                    3D
 Structure written by MMmdl.
159167  0  0  1  0            999 V2000
  -30.5991  -14.7113   20.4719 C   0  0  0  0  0  0
  -30.4277  -12.4358   19.4557 C   0  0  0  0  0  0
  -29.5054  -12.5149   18.2217 C   0  0  0  0  0  0
  -28.0243  -12.3597   18.6231 C   0  0  0  0  0  0
  -27.6395  -13.2302   19.8522 C   0  0  2  0  0  0
  -28.6877  -13.1207   20.9791 C   0  0  0  0  0  0
  -25.2473  -13.8183   20.5692 C   0  0  0  0  0  0
  -24.1782  -13.0411   20.9198 C   0  0  0  0  0  0
  -24.6367  -11.6897   20.8697 C   0  0  0  0  0  0
  -23.9034  -10.4270   21.0340 C   0  0  0  0  0  0
  -24.3604   -9.4213   21.9125 C   0  0  0  0  0  0
  -23.6317   -8.2233   22.0705 C   0  0  0  0  0  0
  -22.4282   -8.0237   21.3527 C   0  0  0  0  0  0
  -21.9897   -9.0199   20.4611 C   0  0  0  0  0  0
  -22.7189  -10.2096   20.3011 C   0  0  0  0  0  0
  -21.6876   -6.0692   22.5273 C   0  0  0  0  0  0
  -21.4024   -6.5616   23.8190 C   0  0  0  0  0  0
  -21.3680   -5.6783   24.9166 C   0  0  0  0  0  0
  -21.6063   -4.3038   24.7239 C   0  0  0  0  0  0
  -21.8829   -3.8113   23.4363 C   0  0  0  0  0  0
  -21.9209   -4.6926   22.3410 C   0  0  0  0  0  0
  -22.7795  -13.5154   21.1908 C   0  0  0  0  0  0
  -22.1662   -4.2101   21.0982 F   0  0  0  0  0  0
  -21.5647   -3.4530   25.7754 F   0  0  0  0  0  0
  -29.9861  -13.4818   20.4012 N   0  0  0  0  0  0
  -26.2895  -12.9395   20.3268 N   0  0  0  0  0  0
  -25.9294  -11.6535   20.5724 N   0  0  0  0  0  0
  -22.0487  -12.8110   22.0491 N   0  0  0  0  0  0
  -25.4131  -15.1927   20.4149 N   0  0  0  0  0  0
  -31.7895  -14.8314   20.1756 O   0  0  0  0  0  0
  -21.6676   -6.8820   21.4218 O   0  0  0  0  0  0
  -22.3441  -14.5430   20.6734 O   0  0  0  0  0  0
  -24.6287  -31.8550   23.2019 C   0  0  0  0  0  0
  -25.9148  -32.4741   23.8345 C   0  0  1  0  0  0
  -27.2080  -27.2728   20.1088 C   0  0  0  0  0  0
  -25.5959  -33.8557   24.2255 N   0  0  0  0  0  0
  -23.4240  -30.4818   21.5436 C   0  0  2  0  0  0
  -24.8681  -28.9372   20.1040 C   0  0  0  0  0  0
  -22.7479  -29.4604   22.4887 C   0  0  0  0  0  0
  -18.0298  -28.1365   22.8464 C   0  0  0  0  0  0
  -24.1490  -36.7289   23.2636 C   0  0  0  0  0  0
  -25.9717  -30.7671   21.3859 C   0  0  0  0  0  0
  -26.0397  -29.3948   20.7191 C   0  0  0  0  0  0
  -27.2127  -28.5749   20.7133 C   0  0  0  0  0  0
  -26.0171  -26.8940   19.4456 C   0  0  0  0  0  0
  -24.8626  -27.6953   19.4559 C   0  0  0  0  0  0
  -23.6409  -29.8249   20.1566 C   0  0  0  0  0  0
  -25.4121  -36.3060   24.0306 C   0  0  1  0  0  0
  -20.5894  -28.3687   23.1239 C   0  0  2  0  0  0
  -20.6785  -26.9406   22.5381 C   0  0  0  0  0  0
  -19.5777  -26.6354   21.5180 C   0  0  0  0  0  0
  -18.1950  -26.7906   22.1588 C   0  0  0  0  0  0
  -19.1543  -28.8842   23.2839 C   0  0  0  0  0  0
  -18.9478  -30.1457   23.8854 C   0  0  0  0  0  0
  -17.6477  -30.6567   24.0570 C   0  0  0  0  0  0
  -25.9063  -34.9430   23.5065 C   0  0  0  0  0  0
  -16.5367  -29.9067   23.6326 C   0  0  0  0  0  0
  -16.7281  -28.6481   23.0349 C   0  0  0  0  0  0
  -26.4514  -31.6585   25.0748 C   0  0  0  0  0  0
  -25.3731  -31.3759   26.1463 C   0  0  0  0  0  0
  -27.0395  -30.2996   24.6292 C   0  0  0  0  0  0
  -27.6045  -32.4380   25.7526 C   0  0  0  0  0  0
  -27.5585  -37.1799   24.8451 C   0  0  0  0  0  0
  -21.4188  -29.3039   22.3638 N   0  0  0  0  0  0
  -26.4290  -37.3765   23.9385 N   0  0  0  0  0  0
  -24.6936  -31.0528   22.0993 N   0  0  0  0  0  0
  -23.4182  -28.8125   23.2973 O   0  0  0  0  0  0
  -28.3000  -26.3792   20.1903 O   0  0  0  0  0  0
  -26.5637  -34.8907   22.4638 O   0  0  0  0  0  0
  -23.5450  -32.1387   23.7310 O   0  0  0  0  0  0
  -29.6557  -22.6325   19.8362 C   0  0  0  0  0  0
  -29.8025  -21.1532   19.9122 C   0  0  0  0  0  0
  -30.5533  -22.9766   18.8482 C   0  0  0  0  0  0
  -30.9782  -24.3086   18.3073 C   0  0  0  0  0  0
  -32.2329  -21.6900   17.4210 C   0  0  0  0  0  0
  -28.8984  -23.7512   20.6573 C   0  0  0  0  0  0
  -29.3178  -19.9951   20.8590 C   0  0  0  0  0  0
  -29.1785  -18.4646   20.3213 C   0  0  0  0  0  0
  -30.1899  -17.2968   20.8028 C   0  0  0  0  0  0
  -28.0985  -24.9224   19.8882 C   0  0  0  0  0  0
  -30.7119  -20.7421   19.0377 N   0  0  0  0  0  0
  -31.1642  -21.8300   18.3948 N   0  0  0  0  0  0
  -29.8002  -15.8246   20.6790 N   0  0  0  0  0  0
  -31.4646  -12.5704   19.1434 H   0  0  0  0  0  0
  -30.3714  -11.4479   19.9183 H   0  0  0  0  0  0
  -29.7823  -11.7495   17.4966 H   0  0  0  0  0  0
  -29.6534  -13.4752   17.7240 H   0  0  0  0  0  0
  -27.8479  -11.3062   18.8406 H   0  0  0  0  0  0
  -27.3831  -12.6009   17.7735 H   0  0  0  0  0  0
  -27.6417  -14.2648   19.5098 H   0  0  0  0  0  0
  -28.7194  -12.1011   21.3700 H   0  0  0  0  0  0
  -28.4306  -13.7656   21.8214 H   0  0  0  0  0  0
  -25.2753   -9.5739   22.4694 H   0  0  0  0  0  0
  -24.0059   -7.4630   22.7416 H   0  0  0  0  0  0
  -21.0823   -8.8658   19.8940 H   0  0  0  0  0  0
  -22.3561  -10.9618   19.6126 H   0  0  0  0  0  0
  -21.1969   -7.6112   23.9672 H   0  0  0  0  0  0
  -21.1528   -6.0515   25.9068 H   0  0  0  0  0  0
  -22.0594   -2.7570   23.2892 H   0  0  0  0  0  0
  -22.4160  -11.9816   22.4924 H   0  0  0  0  0  0
  -21.1050  -13.1015   22.2632 H   0  0  0  0  0  0
  -24.6478  -15.8459   20.5452 H   0  0  0  0  0  0
  -26.2564  -15.6454   20.0897 H   0  0  0  0  0  0
  -26.7207  -32.5360   23.1072 H   0  0  0  0  0  0
  -25.0125  -33.9722   25.0415 H   0  0  0  0  0  0
  -22.7193  -31.3028   21.3987 H   0  0  0  0  0  0
  -23.3754  -35.9622   23.3281 H   0  0  0  0  0  0
  -24.3562  -36.8939   22.2052 H   0  0  0  0  0  0
  -23.7238  -37.6476   23.6689 H   0  0  0  0  0  0
  -26.1233  -31.5345   20.6254 H   0  0  0  0  0  0
  -26.8454  -30.8002   22.0253 H   0  0  0  0  0  0
  -28.1062  -28.9194   21.2141 H   0  0  0  0  0  0
  -25.9354  -25.9611   18.9103 H   0  0  0  0  0  0
  -23.9704  -27.3479   18.9542 H   0  0  0  0  0  0
  -23.7656  -30.6059   19.4047 H   0  0  0  0  0  0
  -22.7594  -29.2592   19.8487 H   0  0  0  0  0  0
  -25.1301  -36.1903   25.0798 H   0  0  0  0  0  0
  -20.9996  -28.3263   24.1353 H   0  0  0  0  0  0
  -20.5637  -26.2309   23.3578 H   0  0  0  0  0  0
  -21.6654  -26.7396   22.1202 H   0  0  0  0  0  0
  -19.6941  -25.6245   21.1246 H   0  0  0  0  0  0
  -19.6728  -27.3129   20.6682 H   0  0  0  0  0  0
  -17.4216  -26.6654   21.3992 H   0  0  0  0  0  0
  -18.0376  -26.0025   22.8970 H   0  0  0  0  0  0
  -19.7969  -30.7303   24.2148 H   0  0  0  0  0  0
  -17.5041  -31.6236   24.5214 H   0  0  0  0  0  0
  -15.5376  -30.2989   23.7640 H   0  0  0  0  0  0
  -15.8678  -28.0803   22.7074 H   0  0  0  0  0  0
  -24.5878  -30.7146   25.7776 H   0  0  0  0  0  0
  -24.8976  -32.2953   26.4891 H   0  0  0  0  0  0
  -25.8025  -30.8907   27.0233 H   0  0  0  0  0  0
  -26.3012  -29.6712   24.1301 H   0  0  0  0  0  0
  -27.4023  -29.7289   25.4843 H   0  0  0  0  0  0
  -27.8901  -30.4225   23.9592 H   0  0  0  0  0  0
  -27.2593  -33.3653   26.2104 H   0  0  0  0  0  0
  -28.3852  -32.7006   25.0379 H   0  0  0  0  0  0
  -28.0737  -31.8548   26.5447 H   0  0  0  0  0  0
  -28.2580  -38.0134   24.7523 H   0  0  0  0  0  0
  -28.1120  -36.2646   24.6243 H   0  0  0  0  0  0
  -27.2310  -37.1399   25.8869 H   0  0  0  0  0  0
  -20.9356  -29.8800   21.6884 H   0  0  0  0  0  0
  -26.0163  -38.2829   24.1432 H   0  0  0  0  0  0
  -30.7354  -24.3989   17.2482 H   0  0  0  0  0  0
  -32.0550  -24.4343   18.4181 H   0  0  0  0  0  0
  -30.5119  -25.1424   18.8246 H   0  0  0  0  0  0
  -31.9953  -22.2565   16.5204 H   0  0  0  0  0  0
  -32.3789  -20.6451   17.1472 H   0  0  0  0  0  0
  -33.1632  -22.0726   17.8438 H   0  0  0  0  0  0
  -29.6149  -24.2470   21.3162 H   0  0  0  0  0  0
  -28.1972  -23.2803   21.3472 H   0  0  0  0  0  0
  -28.3368  -20.2846   21.2416 H   0  0  0  0  0  0
  -29.9495  -19.9838   21.7475 H   0  0  0  0  0  0
  -29.1283  -18.4754   19.2335 H   0  0  0  0  0  0
  -28.1852  -18.1369   20.6281 H   0  0  0  0  0  0
  -30.3982  -17.4545   21.8611 H   0  0  0  0  0  0
  -31.1390  -17.4514   20.2901 H   0  0  0  0  0  0
  -27.0616  -24.6569   20.0783 H   0  0  0  0  0  0
  -28.2135  -24.7961   18.8117 H   0  0  0  0  0  0
  -28.8267  -15.6152   20.8370 H   0  0  0  0  0  0
  1 25  1  0  0  0
  1 30  2  0  0  0
  1 83  1  0  0  0
  2  3  1  0  0  0
  2 25  1  0  0  0
  2 84  1  0  0  0
  2 85  1  0  0  0
  3  4  1  0  0  0
  3 86  1  0  0  0
  3 87  1  0  0  0
  4  5  1  0  0  0
  4 88  1  0  0  0
  4 89  1  0  0  0
  5  6  1  0  0  0
  5 26  1  0  0  0
  5 90  1  0  0  0
  6 25  1  0  0  0
  6 91  1  0  0  0
  6 92  1  0  0  0
  7  8  2  0  0  0
  7 26  1  0  0  0
  7 29  1  0  0  0
  8  9  1  0  0  0
  8 22  1  0  0  0
  9 10  1  0  0  0
  9 27  2  0  0  0
 10 11  2  0  0  0
 10 15  1  0  0  0
 11 12  1  0  0  0
 11 93  1  0  0  0
 12 13  2  0  0  0
 12 94  1  0  0  0
 13 14  1  0  0  0
 13 31  1  0  0  0
 14 15  2  0  0  0
 14 95  1  0  0  0
 15 96  1  0  0  0
 16 17  2  0  0  0
 16 21  1  0  0  0
 16 31  1  0  0  0
 17 18  1  0  0  0
 17 97  1  0  0  0
 18 19  2  0  0  0
 18 98  1  0  0  0
 19 20  1  0  0  0
 19 24  1  0  0  0
 20 21  2  0  0  0
 20 99  1  0  0  0
 21 23  1  0  0  0
 22 28  1  0  0  0
 22 32  2  0  0  0
 26 27  1  0  0  0
 28100  1  0  0  0
 28101  1  0  0  0
 29102  1  0  0  0
 29103  1  0  0  0
 33 34  1  0  0  0
 33 66  1  0  0  0
 33 70  2  0  0  0
 34 36  1  0  0  0
 34 59  1  0  0  0
 34104  1  0  0  0
 35 44  2  0  0  0
 35 45  1  0  0  0
 35 68  1  0  0  0
 36 56  1  0  0  0
 36105  1  0  0  0
 37 39  1  0  0  0
 37 47  1  0  0  0
 37 66  1  0  0  0
 37106  1  0  0  0
 38 43  2  0  0  0
 38 46  1  0  0  0
 38 47  1  0  0  0
 39 64  1  0  0  0
 39 67  2  0  0  0
 40 52  1  0  0  0
 40 53  2  0  0  0
 40 58  1  0  0  0
 41107  1  0  0  0
 41108  1  0  0  0
 41109  1  0  0  0
 41 48  1  0  0  0
 42 43  1  0  0  0
 42 66  1  0  0  0
 42110  1  0  0  0
 42111  1  0  0  0
 43 44  1  0  0  0
 44112  1  0  0  0
 45 46  2  0  0  0
 45113  1  0  0  0
 46114  1  0  0  0
 47115  1  0  0  0
 47116  1  0  0  0
 48 56  1  0  0  0
 48 65  1  0  0  0
 48117  1  0  0  0
 49 50  1  0  0  0
 49 53  1  0  0  0
 49 64  1  0  0  0
 49118  1  0  0  0
 50 51  1  0  0  0
 50119  1  0  0  0
 50120  1  0  0  0
 51 52  1  0  0  0
 51121  1  0  0  0
 51122  1  0  0  0
 52123  1  0  0  0
 52124  1  0  0  0
 53 54  1  0  0  0
 54 55  2  0  0  0
 54125  1  0  0  0
 55 57  1  0  0  0
 55126  1  0  0  0
 56 69  2  0  0  0
 57 58  2  0  0  0
 57127  1  0  0  0
 58128  1  0  0  0
 59 60  1  0  0  0
 59 61  1  0  0  0
 59 62  1  0  0  0
 60129  1  0  0  0
 60130  1  0  0  0
 60131  1  0  0  0
 61132  1  0  0  0
 61133  1  0  0  0
 61134  1  0  0  0
 62135  1  0  0  0
 62136  1  0  0  0
 62137  1  0  0  0
 63 65  1  0  0  0
 63138  1  0  0  0
 63139  1  0  0  0
 63140  1  0  0  0
 64141  1  0  0  0
 65142  1  0  0  0
 68 80  1  0  0  0
 71 72  1  0  0  0
 71 73  2  0  0  0
 71 76  1  0  0  0
 72 77  1  0  0  0
 72 81  2  0  0  0
 73 74  1  0  0  0
 73 82  1  0  0  0
 74143  1  0  0  0
 74144  1  0  0  0
 74145  1  0  0  0
 75 82  1  0  0  0
 75146  1  0  0  0
 75147  1  0  0  0
 75148  1  0  0  0
 76 80  1  0  0  0
 76149  1  0  0  0
 76150  1  0  0  0
 77 78  1  0  0  0
 77151  1  0  0  0
 77152  1  0  0  0
 78 79  1  0  0  0
 78153  1  0  0  0
 78154  1  0  0  0
 79 83  1  0  0  0
 79155  1  0  0  0
 79156  1  0  0  0
 80157  1  0  0  0
 80158  1  0  0  0
 81 82  1  0  0  0
 83159  1  0  0  0
M  ISO  4   1 100  68 101  80 101  83 100
M  END
> <chiral flag>
0

> <version>
0

> <s_m_source_file>
/data/baiqing/PycharmProjects/Reinvent-master-3.2/result/LINK_invent/BTK/process_docking_weight1_custom_sum_contain_oxygen_bond_distance_aromatic_linkinvent_7_9_3/rearranged_h_0041.sdf

> <i_m_source_file_index>
65

> <r_mmod_Potential_Energy-OPLS-2005>
85.8859939575195

> <r_mmod_Stretch_Energy-OPLS-2005>
118.954284667969

> <r_mmod_Bend_Energy-OPLS-2005>
176.772247314453

> <r_mmod_Torsional_Energy-OPLS-2005>
231.448699951172

> <r_mmod_Improper_Torsional_Energy-OPLS-2005>
5.89995813369751

> <r_mmod_Van_der_Waal_Energy-OPLS-2005>
122.798698425293

> <r_mmod_Electrostatic_Energy-OPLS-2005>
-420.190704345703

> <r_mmod_Solvation_Energy-OPLS-2005>
-226.784957885742

> <b_mmod_Minimization_Converged-OPLS-2005>
0

> <r_mmod_RMS_Derivative-OPLS-2005>
4.10448026657104

$$$$
65
                    3D
 Structure written by MMmdl.
163171  0  0  1  0            999 V2000
  -31.3431  -14.7834   20.0676 C   0  0  0  0  0  0
  -30.9704  -12.3630   19.5772 C   0  0  0  0  0  0
  -29.9520  -12.1468   18.4727 C   0  0  0  0  0  0
  -29.0993  -13.3717   18.3257 C   0  0  0  0  0  0
  -28.3776  -14.2359   19.7205 C   0  0  2  0  0  0
  -29.4518  -13.6552   20.8291 C   0  0  0  0  0  0
  -24.5273  -14.4143   20.9280 C   0  0  0  0  0  0
  -23.7625  -13.3494   21.3395 C   0  0  0  0  0  0
  -24.3111  -12.0928   21.0118 C   0  0  0  0  0  0
  -23.8052  -10.6494   21.0558 C   0  0  0  0  0  0
  -24.3187   -9.6258   21.9134 C   0  0  0  0  0  0
  -23.6598   -8.3664   22.0620 C   0  0  0  0  0  0
  -22.4668   -8.0919   21.3464 C   0  0  0  0  0  0
  -22.0117   -9.0622   20.4354 C   0  0  0  0  0  0
  -22.6722  -10.3008   20.2894 C   0  0  0  0  0  0
  -21.7294   -6.1037   22.5240 C   0  0  0  0  0  0
  -21.4356   -6.5877   23.8177 C   0  0  0  0  0  0
  -21.3745   -5.6969   24.9094 C   0  0  0  0  0  0
  -21.6021   -4.3203   24.7161 C   0  0  0  0  0  0
  -21.8771   -3.8341   23.4264 C   0  0  0  0  0  0
  -21.9294   -4.7191   22.3345 C   0  0  0  0  0  0
  -22.3377  -13.5665   21.4547 C   0  0  0  0  0  0
  -22.1698   -4.2305   21.0951 F   0  0  0  0  0  0
  -21.5496   -3.4664   25.7679 F   0  0  0  0  0  0
  -30.6763  -13.6332   20.2405 N   0  0  0  0  0  0
  -25.4741  -13.9868   20.1377 N   0  0  0  0  0  0
  -24.7573  -12.6519   19.9372 N   0  0  0  0  0  0
  -21.6805  -12.7450   22.2441 N   0  0  0  0  0  0
  -24.4149  -15.7642   20.9711 N   0  0  0  0  0  0
  -32.5403  -14.7644   20.1526 O   0  0  0  0  0  0
  -21.7353   -6.9219   21.4171 O   0  0  0  0  0  0
  -21.8256  -14.4813   20.8166 O   0  0  0  0  0  0
  -24.7182  -31.7541   23.1255 C   0  0  0  0  0  0
  -25.9619  -32.4204   23.7858 C   0  0  1  0  0  0
  -26.8392  -26.1435   20.2608 C   0  0  0  0  0  0
  -25.6056  -33.8085   24.1692 N   0  0  0  0  0  0
  -23.5393  -30.3689   21.4954 C   0  0  2  0  0  0
  -24.9254  -28.6312   20.0981 C   0  0  0  0  0  0
  -22.7844  -29.4127   22.4596 C   0  0  0  0  0  0
  -18.0352  -28.1431   22.8455 C   0  0  0  0  0  0
  -24.1500  -36.7045   23.2645 C   0  0  0  0  0  0
  -26.1284  -30.2887   21.4665 C   0  0  0  0  0  0
  -26.1140  -28.8096   20.8107 C   0  0  0  0  0  0
  -27.0663  -27.5973   20.8453 C   0  0  0  0  0  0
  -25.7064  -26.3307   19.4356 C   0  0  0  0  0  0
  -24.8022  -27.4377   19.3705 C   0  0  0  0  0  0
  -23.7921  -29.6780   20.1247 C   0  0  0  0  0  0
  -25.4165  -36.2745   24.0225 C   0  0  1  0  0  0
  -20.5991  -28.3799   23.1094 C   0  0  2  0  0  0
  -20.6792  -26.9435   22.5417 C   0  0  0  0  0  0
  -19.5763  -26.6341   21.5238 C   0  0  0  0  0  0
  -18.1949  -26.7953   22.1635 C   0  0  0  0  0  0
  -19.1626  -28.8944   23.2744 C   0  0  0  0  0  0
  -18.9527  -30.1526   23.8786 C   0  0  0  0  0  0
  -17.6511  -30.6606   24.0541 C   0  0  0  0  0  0
  -25.9190  -34.9161   23.4820 C   0  0  0  0  0  0
  -16.5399  -29.9074   23.6365 C   0  0  0  0  0  0
  -16.7331  -28.6503   23.0376 C   0  0  0  0  0  0
  -26.4663  -31.6462   25.0682 C   0  0  0  0  0  0
  -25.3579  -31.3940   26.1180 C   0  0  0  0  0  0
  -27.0657  -30.2735   24.6958 C   0  0  0  0  0  0
  -27.6034  -32.4428   25.7497 C   0  0  0  0  0  0
  -27.5570  -37.1639   24.8428 C   0  0  0  0  0  0
  -21.4478  -29.3003   22.3370 N   0  0  0  0  0  0
  -26.4230  -37.3579   23.9441 N   0  0  0  0  0  0
  -24.8296  -30.8531   22.0766 N   0  0  0  0  0  0
  -23.4154  -28.7741   23.3048 O   0  0  0  0  0  0
  -27.4453  -24.5906   20.3156 O   0  0  0  0  0  0
  -26.5900  -34.8826   22.4484 O   0  0  0  0  0  0
  -23.6152  -32.0903   23.5985 O   0  0  0  0  0  0
  -27.0873  -12.4374   19.7408 C   0  0  0  0  0  0
  -26.8354  -16.2173   20.1101 C   0  0  0  0  0  0
  -27.0792  -15.0195   21.4711 C   0  0  0  0  0  0
  -26.6794  -15.3102   18.5912 C   0  0  0  0  0  0
  -26.1383  -15.1060   23.8349 C   0  0  0  0  0  0
  -26.5784  -18.3232   20.1607 C   0  0  0  0  0  0
  -27.2651  -15.5435   22.8869 C   0  0  0  0  0  0
  -27.4831  -16.0633   17.4954 C   0  0  0  0  0  0
  -27.2791  -20.4526   20.2033 C   0  0  0  0  0  0
  -28.8328  -16.8691   17.9142 C   0  0  0  0  0  0
  -30.3277  -16.3225   18.2297 C   0  0  0  0  0  0
  -26.8794  -22.6608   20.2763 C   0  0  0  0  0  0
  -27.1551  -13.2123   21.3552 N   0  0  0  0  0  0
  -26.7024  -13.5429   18.3456 N   0  0  0  0  0  0
  -30.7597  -15.9453   19.6323 N   0  0  0  0  0  0
  -31.9877  -12.3904   19.1778 H   0  0  0  0  0  0
  -30.9714  -11.5405   20.2982 H   0  0  0  0  0  0
  -29.3537  -11.2546   18.6931 H   0  0  0  0  0  0
  -30.4880  -11.9244   17.5373 H   0  0  0  0  0  0
  -28.5581  -12.9235   17.4809 H   0  0  0  0  0  0
  -29.5749  -14.0812   17.6759 H   0  0  0  0  0  0
  -28.7152  -15.2171   19.6912 H   0  0  0  0  0  0
  -29.3343  -12.6274   21.1912 H   0  0  0  0  0  0
  -29.5145  -14.2616   21.7311 H   0  0  0  0  0  0
  -25.1911   -9.8369   22.5136 H   0  0  0  0  0  0
  -24.0632   -7.6335   22.7466 H   0  0  0  0  0  0
  -21.1216   -8.8631   19.8521 H   0  0  0  0  0  0
  -22.2502  -11.0360   19.6188 H   0  0  0  0  0  0
  -21.2561   -7.6414   23.9713 H   0  0  0  0  0  0
  -21.1530   -6.0749   25.8979 H   0  0  0  0  0  0
  -22.0401   -2.7794   23.2725 H   0  0  0  0  0  0
  -22.1398  -11.9963   22.7411 H   0  0  0  0  0  0
  -20.6852  -12.8573   22.3645 H   0  0  0  0  0  0
  -23.6416  -16.2838   21.3726 H   0  0  0  0  0  0
  -25.1700  -16.3338   20.5781 H   0  0  0  0  0  0
  -26.7689  -32.4500   23.0538 H   0  0  0  0  0  0
  -25.0016  -33.9039   24.9705 H   0  0  0  0  0  0
  -22.8901  -31.2256   21.3089 H   0  0  0  0  0  0
  -23.3841  -35.9286   23.3095 H   0  0  0  0  0  0
  -24.3586  -36.8970   22.2113 H   0  0  0  0  0  0
  -23.7166  -37.6088   23.6919 H   0  0  0  0  0  0
  -26.4161  -30.9870   20.6775 H   0  0  0  0  0  0
  -26.9589  -30.3260   22.1568 H   0  0  0  0  0  0
  -27.9481  -27.7221   21.4582 H   0  0  0  0  0  0
  -25.3950  -25.4646   18.8679 H   0  0  0  0  0  0
  -23.9196  -27.3164   18.7614 H   0  0  0  0  0  0
  -24.0318  -30.4394   19.3831 H   0  0  0  0  0  0
  -22.8666  -29.2175   19.7726 H   0  0  0  0  0  0
  -25.1390  -36.1411   25.0703 H   0  0  0  0  0  0
  -21.0072  -28.3448   24.1216 H   0  0  0  0  0  0
  -20.5649  -26.2426   23.3706 H   0  0  0  0  0  0
  -21.6644  -26.7332   22.1240 H   0  0  0  0  0  0
  -19.6900  -25.6216   21.1337 H   0  0  0  0  0  0
  -19.6701  -27.3089   20.6719 H   0  0  0  0  0  0
  -17.4226  -26.6724   21.4031 H   0  0  0  0  0  0
  -18.0316  -26.0118   22.9049 H   0  0  0  0  0  0
  -19.7997  -30.7387   24.2088 H   0  0  0  0  0  0
  -17.5051  -31.6276   24.5166 H   0  0  0  0  0  0
  -15.5391  -30.2931   23.7743 H   0  0  0  0  0  0
  -15.8742  -28.0772   22.7145 H   0  0  0  0  0  0
  -24.5752  -30.7351   25.7402 H   0  0  0  0  0  0
  -24.8795  -32.3238   26.4273 H   0  0  0  0  0  0
  -25.7565  -30.9231   27.0174 H   0  0  0  0  0  0
  -26.3407  -29.6155   24.2157 H   0  0  0  0  0  0
  -27.4068  -29.7440   25.5870 H   0  0  0  0  0  0
  -27.9425  -30.3735   24.0557 H   0  0  0  0  0  0
  -27.2526  -33.3853   26.1721 H   0  0  0  0  0  0
  -28.4011  -32.6799   25.0442 H   0  0  0  0  0  0
  -28.0535  -31.8810   26.5693 H   0  0  0  0  0  0
  -28.2393  -38.0115   24.7691 H   0  0  0  0  0  0
  -28.1255  -36.2655   24.5986 H   0  0  0  0  0  0
  -27.2322  -37.0936   25.8818 H   0  0  0  0  0  0
  -20.9822  -29.8630   21.6394 H   0  0  0  0  0  0
  -25.9999  -38.2559   24.1606 H   0  0  0  0  0  0
  -27.1374  -11.3693   19.6183 H   0  0  0  0  0  0
  -25.1919  -15.5785   23.5748 H   0  0  0  0  0  0
  -26.3661  -15.3727   24.8665 H   0  0  0  0  0  0
  -25.9910  -14.0262   23.8052 H   0  0  0  0  0  0
  -25.6770  -18.3684   20.8099 H   0  0  0  0  0  0
  -26.1310  -18.3611   19.1482 H   0  0  0  0  0  0
  -27.3267  -16.6302   22.8500 H   0  0  0  0  0  0
  -28.2170  -15.1879   23.2746 H   0  0  0  0  0  0
  -26.7834  -16.7921   17.0815 H   0  0  0  0  0  0
  -27.6972  -15.3809   16.6735 H   0  0  0  0  0  0
  -27.8770  -20.4308   19.2848 H   0  0  0  0  0  0
  -28.0415  -20.3855   20.9932 H   0  0  0  0  0  0
  -28.5874  -17.6251   18.6570 H   0  0  0  0  0  0
  -29.0045  -17.4582   17.0130 H   0  0  0  0  0  0
  -30.7279  -15.6576   17.4668 H   0  0  0  0  0  0
  -30.9563  -17.1955   18.0419 H   0  0  0  0  0  0
  -26.3543  -22.6849   21.2364 H   0  0  0  0  0  0
  -26.0741  -22.7417   19.5387 H   0  0  0  0  0  0
  -31.2893  -16.7139   20.0143 H   0  0  0  0  0  0
  1 25  1  0  0  0
  1 30  2  0  0  0
  1 85  1  0  0  0
  2  3  1  0  0  0
  2 25  1  0  0  0
  2 86  1  0  0  0
  2 87  1  0  0  0
  3  4  1  0  0  0
  3 88  1  0  0  0
  3 89  1  0  0  0
  4  5  1  0  0  0
  4 90  1  0  0  0
  4 91  1  0  0  0
  5  6  1  0  0  0
  5 26  1  0  0  0
  5 92  1  0  0  0
  6 25  1  0  0  0
  6 93  1  0  0  0
  6 94  1  0  0  0
  7  8  2  0  0  0
  7 26  1  0  0  0
  7 29  1  0  0  0
  8  9  1  0  0  0
  8 22  1  0  0  0
  9 10  1  0  0  0
  9 27  2  0  0  0
 10 11  2  0  0  0
 10 15  1  0  0  0
 11 12  1  0  0  0
 11 95  1  0  0  0
 12 13  2  0  0  0
 12 96  1  0  0  0
 13 14  1  0  0  0
 13 31  1  0  0  0
 14 15  2  0  0  0
 14 97  1  0  0  0
 15 98  1  0  0  0
 16 17  2  0  0  0
 16 21  1  0  0  0
 16 31  1  0  0  0
 17 18  1  0  0  0
 17 99  1  0  0  0
 18 19  2  0  0  0
 18100  1  0  0  0
 19 20  1  0  0  0
 19 24  1  0  0  0
 20 21  2  0  0  0
 20101  1  0  0  0
 21 23  1  0  0  0
 22 28  1  0  0  0
 22 32  2  0  0  0
 26 27  1  0  0  0
 28102  1  0  0  0
 28103  1  0  0  0
 29104  1  0  0  0
 29105  1  0  0  0
 33 34  1  0  0  0
 33 66  1  0  0  0
 33 70  2  0  0  0
 34 36  1  0  0  0
 34 59  1  0  0  0
 34106  1  0  0  0
 35 44  2  0  0  0
 35 45  1  0  0  0
 35 68  1  0  0  0
 36 56  1  0  0  0
 36107  1  0  0  0
 37 39  1  0  0  0
 37 47  1  0  0  0
 37 66  1  0  0  0
 37108  1  0  0  0
 38 43  2  0  0  0
 38 46  1  0  0  0
 38 47  1  0  0  0
 39 64  1  0  0  0
 39 67  2  0  0  0
 40 52  1  0  0  0
 40 53  2  0  0  0
 40 58  1  0  0  0
 41109  1  0  0  0
 41110  1  0  0  0
 41111  1  0  0  0
 41 48  1  0  0  0
 42 43  1  0  0  0
 42 66  1  0  0  0
 42112  1  0  0  0
 42113  1  0  0  0
 43 44  1  0  0  0
 44114  1  0  0  0
 45 46  2  0  0  0
 45115  1  0  0  0
 46116  1  0  0  0
 47117  1  0  0  0
 47118  1  0  0  0
 48 56  1  0  0  0
 48 65  1  0  0  0
 48119  1  0  0  0
 49 50  1  0  0  0
 49 53  1  0  0  0
 49 64  1  0  0  0
 49120  1  0  0  0
 50 51  1  0  0  0
 50121  1  0  0  0
 50122  1  0  0  0
 51 52  1  0  0  0
 51123  1  0  0  0
 51124  1  0  0  0
 52125  1  0  0  0
 52126  1  0  0  0
 53 54  1  0  0  0
 54 55  2  0  0  0
 54127  1  0  0  0
 55 57  1  0  0  0
 55128  1  0  0  0
 56 69  2  0  0  0
 57 58  2  0  0  0
 57129  1  0  0  0
 58130  1  0  0  0
 59 60  1  0  0  0
 59 61  1  0  0  0
 59 62  1  0  0  0
 60131  1  0  0  0
 60132  1  0  0  0
 60133  1  0  0  0
 61134  1  0  0  0
 61135  1  0  0  0
 61136  1  0  0  0
 62137  1  0  0  0
 62138  1  0  0  0
 62139  1  0  0  0
 63 65  1  0  0  0
 63140  1  0  0  0
 63141  1  0  0  0
 63142  1  0  0  0
 64143  1  0  0  0
 65144  1  0  0  0
 68 82  1  0  0  0
 71 83  2  0  0  0
 71 84  1  0  0  0
 71145  1  0  0  0
 72 73  2  0  0  0
 72 74  1  0  0  0
 72 76  1  0  0  0
 73 77  1  0  0  0
 73 83  1  0  0  0
 74 78  1  0  0  0
 74 84  2  0  0  0
 75 77  1  0  0  0
 75146  1  0  0  0
 75147  1  0  0  0
 75148  1  0  0  0
 76 79  1  0  0  0
 76149  1  0  0  0
 76150  1  0  0  0
 77151  1  0  0  0
 77152  1  0  0  0
 78 80  1  0  0  0
 78153  1  0  0  0
 78154  1  0  0  0
 79 82  1  0  0  0
 79155  1  0  0  0
 79156  1  0  0  0
 80 81  1  0  0  0
 80157  1  0  0  0
 80158  1  0  0  0
 81 85  1  0  0  0
 81159  1  0  0  0
 81160  1  0  0  0
 82161  1  0  0  0
 82162  1  0  0  0
 85163  1  0  0  0
M  ISO  4   1 100  68 101  82 101  85 100
M  END
> <chiral flag>
0

> <version>
0

> <s_m_source_file>
/data/baiqing/PycharmProjects/Reinvent-master-3.2/result/LINK_invent/BTK/process_docking_weight1_custom_sum_contain_oxygen_bond_distance_aromatic_linkinvent_7_9_3/rearranged_h_0041.sdf

> <i_m_source_file_index>
66

> <r_mmod_Potential_Energy-OPLS-2005>
14616.091796875

> <r_mmod_Stretch_Energy-OPLS-2005>
8184.63525390625

> <r_mmod_Bend_Energy-OPLS-2005>
1167.98754882812

> <r_mmod_Torsional_Energy-OPLS-2005>
540.905395507812

> <r_mmod_Improper_Torsional_Energy-OPLS-2005>
50.7611236572266

> <r_mmod_Van_der_Waal_Energy-OPLS-2005>
2827.33935546875

> <r_mmod_Electrostatic_Energy-OPLS-2005>
-693.646423339844

> <r_mmod_Solvation_Energy-OPLS-2005>
-250.4990234375

> <b_mmod_Minimization_Converged-OPLS-2005>
0

> <r_mmod_RMS_Derivative-OPLS-2005>
16.0626335144043

$$$$
66
                    3D
 Structure written by MMmdl.
150158  0  0  1  0            999 V2000
  -30.6151  -14.7554   20.4647 C   0  0  0  0  0  0
  -30.4325  -12.4673   19.4676 C   0  0  0  0  0  0
  -29.5068  -12.5043   18.2326 C   0  0  0  0  0  0
  -28.0347  -12.3260   18.6519 C   0  0  0  0  0  0
  -27.6385  -13.2324   19.8476 C   0  0  2  0  0  0
  -28.6851  -13.1799   20.9805 C   0  0  0  0  0  0
  -25.2499  -13.8199   20.5704 C   0  0  0  0  0  0
  -24.1793  -13.0439   20.9219 C   0  0  0  0  0  0
  -24.6386  -11.6917   20.8760 C   0  0  0  0  0  0
  -23.9065  -10.4291   21.0416 C   0  0  0  0  0  0
  -24.3615   -9.4208   21.9192 C   0  0  0  0  0  0
  -23.6295   -8.2241   22.0753 C   0  0  0  0  0  0
  -22.4277   -8.0279   21.3542 C   0  0  0  0  0  0
  -21.9912   -9.0255   20.4647 C   0  0  0  0  0  0
  -22.7239  -10.2135   20.3063 C   0  0  0  0  0  0
  -21.6853   -6.0738   22.5280 C   0  0  0  0  0  0
  -21.4015   -6.5641   23.8213 C   0  0  0  0  0  0
  -21.3659   -5.6792   24.9174 C   0  0  0  0  0  0
  -21.6043   -4.3055   24.7224 C   0  0  0  0  0  0
  -21.8819   -3.8147   23.4345 C   0  0  0  0  0  0
  -21.9191   -4.6965   22.3401 C   0  0  0  0  0  0
  -22.7812  -13.5216   21.1877 C   0  0  0  0  0  0
  -22.1659   -4.2149   21.0980 F   0  0  0  0  0  0
  -21.5627   -3.4539   25.7738 F   0  0  0  0  0  0
  -29.9808  -13.5351   20.3898 N   0  0  0  0  0  0
  -26.2921  -12.9405   20.3281 N   0  0  0  0  0  0
  -25.9314  -11.6545   20.5761 N   0  0  0  0  0  0
  -22.0456  -12.8207   22.0431 N   0  0  0  0  0  0
  -25.4175  -15.1927   20.4116 N   0  0  0  0  0  0
  -31.8123  -14.8357   20.1780 O   0  0  0  0  0  0
  -21.6640   -6.8880   21.4239 O   0  0  0  0  0  0
  -22.3498  -14.5521   20.6720 O   0  0  0  0  0  0
  -24.6321  -31.8537   23.1967 C   0  0  0  0  0  0
  -25.9140  -32.4746   23.8322 C   0  0  1  0  0  0
  -27.2193  -27.2527   20.1390 C   0  0  0  0  0  0
  -25.5931  -33.8549   24.2247 N   0  0  0  0  0  0
  -23.4299  -30.4744   21.5398 C   0  0  2  0  0  0
  -24.8781  -28.9155   20.1134 C   0  0  0  0  0  0
  -22.7506  -29.4593   22.4908 C   0  0  0  0  0  0
  -18.0292  -28.1393   22.8481 C   0  0  0  0  0  0
  -24.1488  -36.7281   23.2641 C   0  0  0  0  0  0
  -25.9755  -30.7647   21.3765 C   0  0  0  0  0  0
  -26.0502  -29.3848   20.7217 C   0  0  0  0  0  0
  -27.2273  -28.5676   20.7175 C   0  0  0  0  0  0
  -26.0276  -26.8502   19.5027 C   0  0  0  0  0  0
  -24.8720  -27.6567   19.4915 C   0  0  0  0  0  0
  -23.6498  -29.8045   20.1576 C   0  0  0  0  0  0
  -25.4116  -36.3065   24.0324 C   0  0  1  0  0  0
  -20.5896  -28.3701   23.1268 C   0  0  2  0  0  0
  -20.6773  -26.9417   22.5406 C   0  0  0  0  0  0
  -19.5752  -26.6387   21.5206 C   0  0  0  0  0  0
  -18.1933  -26.7935   22.1618 C   0  0  0  0  0  0
  -19.1546  -28.8863   23.2870 C   0  0  0  0  0  0
  -18.9466  -30.1461   23.8892 C   0  0  0  0  0  0
  -17.6466  -30.6590   24.0565 C   0  0  0  0  0  0
  -25.9056  -34.9435   23.5091 C   0  0  0  0  0  0
  -16.5358  -29.9088   23.6333 C   0  0  0  0  0  0
  -16.7277  -28.6507   23.0352 C   0  0  0  0  0  0
  -26.4508  -31.6575   25.0715 C   0  0  0  0  0  0
  -25.3732  -31.3725   26.1436 C   0  0  0  0  0  0
  -27.0357  -30.2992   24.6204 C   0  0  0  0  0  0
  -27.6056  -32.4325   25.7488 C   0  0  0  0  0  0
  -27.5578  -37.1797   24.8466 C   0  0  0  0  0  0
  -21.4210  -29.3046   22.3655 N   0  0  0  0  0  0
  -26.4290  -37.3765   23.9408 N   0  0  0  0  0  0
  -24.6984  -31.0494   22.0944 N   0  0  0  0  0  0
  -23.4197  -28.8139   23.3016 O   0  0  0  0  0  0
  -28.3085  -26.3515   20.1483 O   0  0  0  0  0  0
  -26.5633  -34.8913   22.4662 O   0  0  0  0  0  0
  -23.5466  -32.1360   23.7257 O   0  0  0  0  0  0
  -28.8783  -18.8738   19.1799 C   0  0  0  0  0  0
  -28.5119  -20.2076   19.1845 C   0  0  0  0  0  0
  -29.5978  -18.6410   20.3894 C   0  0  0  0  0  0
  -30.3592  -17.3345   20.8908 C   0  0  0  0  0  0
  -28.7106  -23.5907   20.0237 C   0  0  0  0  0  0
  -28.6701  -22.2175   20.9003 C   0  0  0  0  0  0
  -28.1005  -24.9542   20.6802 C   0  0  0  0  0  0
  -29.6285  -19.8284   21.0679 N   0  0  0  0  0  0
  -28.9779  -20.8230   20.3359 N   0  0  0  0  0  0
  -29.8639  -15.9033   20.6758 N   0  0  0  0  0  0
  -31.4707  -12.5993   19.1586 H   0  0  0  0  0  0
  -30.3877  -11.4945   19.9592 H   0  0  0  0  0  0
  -29.7911  -11.7246   17.5243 H   0  0  0  0  0  0
  -29.6286  -13.4546   17.7101 H   0  0  0  0  0  0
  -27.8976  -11.2790   18.9236 H   0  0  0  0  0  0
  -27.3735  -12.5078   17.8038 H   0  0  0  0  0  0
  -27.6293  -14.2510   19.4591 H   0  0  0  0  0  0
  -28.7265  -12.1873   21.4316 H   0  0  0  0  0  0
  -28.4197  -13.8700   21.7828 H   0  0  0  0  0  0
  -25.2758   -9.5681   22.4774 H   0  0  0  0  0  0
  -24.0003   -7.4625   22.7467 H   0  0  0  0  0  0
  -21.0843   -8.8775   19.8951 H   0  0  0  0  0  0
  -22.3697  -10.9678   19.6178 H   0  0  0  0  0  0
  -21.2011   -7.6149   23.9719 H   0  0  0  0  0  0
  -21.1483   -6.0521   25.9078 H   0  0  0  0  0  0
  -22.0600   -2.7610   23.2845 H   0  0  0  0  0  0
  -22.4072  -11.9877   22.4837 H   0  0  0  0  0  0
  -21.1077  -13.1239   22.2642 H   0  0  0  0  0  0
  -24.6475  -15.8436   20.5223 H   0  0  0  0  0  0
  -26.2593  -15.6360   20.0673 H   0  0  0  0  0  0
  -26.7206  -32.5398   23.1063 H   0  0  0  0  0  0
  -25.0068  -33.9682   25.0386 H   0  0  0  0  0  0
  -22.7269  -31.2964   21.3909 H   0  0  0  0  0  0
  -23.3749  -35.9615   23.3298 H   0  0  0  0  0  0
  -24.3574  -36.8907   22.2056 H   0  0  0  0  0  0
  -23.7242  -37.6480   23.6670 H   0  0  0  0  0  0
  -26.1127  -31.5235   20.6048 H   0  0  0  0  0  0
  -26.8532  -30.8170   22.0090 H   0  0  0  0  0  0
  -28.1282  -28.9245   21.1972 H   0  0  0  0  0  0
  -25.9824  -25.8844   19.0202 H   0  0  0  0  0  0
  -23.9763  -27.2921   19.0075 H   0  0  0  0  0  0
  -23.7777  -30.5787   19.3999 H   0  0  0  0  0  0
  -22.7684  -29.2384   19.8513 H   0  0  0  0  0  0
  -25.1300  -36.1910   25.0816 H   0  0  0  0  0  0
  -20.9985  -28.3276   24.1389 H   0  0  0  0  0  0
  -20.5665  -26.2310   23.3609 H   0  0  0  0  0  0
  -21.6644  -26.7434   22.1211 H   0  0  0  0  0  0
  -19.6910  -25.6298   21.1236 H   0  0  0  0  0  0
  -19.6693  -27.3192   20.6734 H   0  0  0  0  0  0
  -17.4201  -26.6683   21.4022 H   0  0  0  0  0  0
  -18.0329  -26.0076   22.9015 H   0  0  0  0  0  0
  -19.7941  -30.7281   24.2261 H   0  0  0  0  0  0
  -17.5021  -31.6267   24.5174 H   0  0  0  0  0  0
  -15.5359  -30.2992   23.7660 H   0  0  0  0  0  0
  -15.8676  -28.0827   22.7073 H   0  0  0  0  0  0
  -24.5908  -30.7073   25.7767 H   0  0  0  0  0  0
  -24.8923  -32.2891   26.4863 H   0  0  0  0  0  0
  -25.8051  -30.8904   27.0215 H   0  0  0  0  0  0
  -26.2940  -29.6733   24.1226 H   0  0  0  0  0  0
  -27.4034  -29.7263   25.4727 H   0  0  0  0  0  0
  -27.8818  -30.4260   23.9446 H   0  0  0  0  0  0
  -27.2655  -33.3625   26.2058 H   0  0  0  0  0  0
  -28.3867  -32.6889   25.0319 H   0  0  0  0  0  0
  -28.0725  -31.8459   26.5410 H   0  0  0  0  0  0
  -28.2600  -38.0093   24.7511 H   0  0  0  0  0  0
  -28.1072  -36.2623   24.6296 H   0  0  0  0  0  0
  -27.2293  -37.1449   25.8869 H   0  0  0  0  0  0
  -20.9399  -29.8771   21.6861 H   0  0  0  0  0  0
  -26.0166  -38.2838   24.1410 H   0  0  0  0  0  0
  -28.6662  -18.1567   18.3989 H   0  0  0  0  0  0
  -27.9344  -20.7660   18.4601 H   0  0  0  0  0  0
  -30.5047  -17.4257   21.9677 H   0  0  0  0  0  0
  -31.3712  -17.3833   20.4865 H   0  0  0  0  0  0
  -28.1929  -23.4139   19.0807 H   0  0  0  0  0  0
  -29.7498  -23.7776   19.7534 H   0  0  0  0  0  0
  -27.6655  -22.1444   21.3183 H   0  0  0  0  0  0
  -29.3190  -22.3609   21.7648 H   0  0  0  0  0  0
  -28.4998  -25.0010   21.6937 H   0  0  0  0  0  0
  -27.0348  -24.7813   20.8321 H   0  0  0  0  0  0
  -28.8746  -15.7672   20.8109 H   0  0  0  0  0  0
  1 25  1  0  0  0
  1 30  2  0  0  0
  1 80  1  0  0  0
  2  3  1  0  0  0
  2 25  1  0  0  0
  2 81  1  0  0  0
  2 82  1  0  0  0
  3  4  1  0  0  0
  3 83  1  0  0  0
  3 84  1  0  0  0
  4  5  1  0  0  0
  4 85  1  0  0  0
  4 86  1  0  0  0
  5  6  1  0  0  0
  5 26  1  0  0  0
  5 87  1  0  0  0
  6 25  1  0  0  0
  6 88  1  0  0  0
  6 89  1  0  0  0
  7  8  2  0  0  0
  7 26  1  0  0  0
  7 29  1  0  0  0
  8  9  1  0  0  0
  8 22  1  0  0  0
  9 10  1  0  0  0
  9 27  2  0  0  0
 10 11  2  0  0  0
 10 15  1  0  0  0
 11 12  1  0  0  0
 11 90  1  0  0  0
 12 13  2  0  0  0
 12 91  1  0  0  0
 13 14  1  0  0  0
 13 31  1  0  0  0
 14 15  2  0  0  0
 14 92  1  0  0  0
 15 93  1  0  0  0
 16 17  2  0  0  0
 16 21  1  0  0  0
 16 31  1  0  0  0
 17 18  1  0  0  0
 17 94  1  0  0  0
 18 19  2  0  0  0
 18 95  1  0  0  0
 19 20  1  0  0  0
 19 24  1  0  0  0
 20 21  2  0  0  0
 20 96  1  0  0  0
 21 23  1  0  0  0
 22 28  1  0  0  0
 22 32  2  0  0  0
 26 27  1  0  0  0
 28 97  1  0  0  0
 28 98  1  0  0  0
 29 99  1  0  0  0
 29100  1  0  0  0
 33 34  1  0  0  0
 33 66  1  0  0  0
 33 70  2  0  0  0
 34 36  1  0  0  0
 34 59  1  0  0  0
 34101  1  0  0  0
 35 44  2  0  0  0
 35 45  1  0  0  0
 35 68  1  0  0  0
 36 56  1  0  0  0
 36102  1  0  0  0
 37 39  1  0  0  0
 37 47  1  0  0  0
 37 66  1  0  0  0
 37103  1  0  0  0
 38 43  2  0  0  0
 38 46  1  0  0  0
 38 47  1  0  0  0
 39 64  1  0  0  0
 39 67  2  0  0  0
 40 52  1  0  0  0
 40 53  2  0  0  0
 40 58  1  0  0  0
 41104  1  0  0  0
 41105  1  0  0  0
 41106  1  0  0  0
 41 48  1  0  0  0
 42 43  1  0  0  0
 42 66  1  0  0  0
 42107  1  0  0  0
 42108  1  0  0  0
 43 44  1  0  0  0
 44109  1  0  0  0
 45 46  2  0  0  0
 45110  1  0  0  0
 46111  1  0  0  0
 47112  1  0  0  0
 47113  1  0  0  0
 48 56  1  0  0  0
 48 65  1  0  0  0
 48114  1  0  0  0
 49 50  1  0  0  0
 49 53  1  0  0  0
 49 64  1  0  0  0
 49115  1  0  0  0
 50 51  1  0  0  0
 50116  1  0  0  0
 50117  1  0  0  0
 51 52  1  0  0  0
 51118  1  0  0  0
 51119  1  0  0  0
 52120  1  0  0  0
 52121  1  0  0  0
 53 54  1  0  0  0
 54 55  2  0  0  0
 54122  1  0  0  0
 55 57  1  0  0  0
 55123  1  0  0  0
 56 69  2  0  0  0
 57 58  2  0  0  0
 57124  1  0  0  0
 58125  1  0  0  0
 59 60  1  0  0  0
 59 61  1  0  0  0
 59 62  1  0  0  0
 60126  1  0  0  0
 60127  1  0  0  0
 60128  1  0  0  0
 61129  1  0  0  0
 61130  1  0  0  0
 61131  1  0  0  0
 62132  1  0  0  0
 62133  1  0  0  0
 62134  1  0  0  0
 63 65  1  0  0  0
 63135  1  0  0  0
 63136  1  0  0  0
 63137  1  0  0  0
 64138  1  0  0  0
 65139  1  0  0  0
 68 77  1  0  0  0
 71 72  2  0  0  0
 71 73  1  0  0  0
 71140  1  0  0  0
 72 79  1  0  0  0
 72141  1  0  0  0
 73 74  1  0  0  0
 73 78  2  0  0  0
 74 80  1  0  0  0
 74142  1  0  0  0
 74143  1  0  0  0
 75 76  1  0  0  0
 75 77  1  0  0  0
 75144  1  0  0  0
 75145  1  0  0  0
 76 79  1  0  0  0
 76146  1  0  0  0
 76147  1  0  0  0
 77148  1  0  0  0
 77149  1  0  0  0
 78 79  1  0  0  0
 80150  1  0  0  0
M  ISO  4   1 100  68 101  77 101  80 100
M  END
> <chiral flag>
0

> <version>
0

> <s_m_source_file>
/data/baiqing/PycharmProjects/Reinvent-master-3.2/result/LINK_invent/BTK/process_docking_weight1_custom_sum_contain_oxygen_bond_distance_aromatic_linkinvent_7_9_3/rearranged_h_0041.sdf

> <i_m_source_file_index>
67

> <r_mmod_Potential_Energy-OPLS-2005>
40.0686645507812

> <r_mmod_Stretch_Energy-OPLS-2005>
124.98023223877

> <r_mmod_Bend_Energy-OPLS-2005>
175.144195556641

> <r_mmod_Torsional_Energy-OPLS-2005>
230.655456542969

> <r_mmod_Improper_Torsional_Energy-OPLS-2005>
5.18635416030884

> <r_mmod_Van_der_Waal_Energy-OPLS-2005>
113.499130249023

> <r_mmod_Electrostatic_Energy-OPLS-2005>
-471.912445068359

> <r_mmod_Solvation_Energy-OPLS-2005>
-228.037567138672

> <b_mmod_Minimization_Converged-OPLS-2005>
0

> <r_mmod_RMS_Derivative-OPLS-2005>
0.688345491886139

$$$$
67
                    3D
 Structure written by MMmdl.
157165  0  0  1  0            999 V2000
  -30.7259  -14.4722   20.5145 C   0  0  0  0  0  0
  -30.4178  -12.2840   19.4486 C   0  0  0  0  0  0
  -29.5070  -12.4683   18.2185 C   0  0  0  0  0  0
  -28.0208  -12.3618   18.6156 C   0  0  0  0  0  0
  -27.6661  -13.2069   19.8705 C   0  0  2  0  0  0
  -28.7049  -13.0309   21.0010 C   0  0  0  0  0  0
  -25.2648  -13.8160   20.5636 C   0  0  0  0  0  0
  -24.1872  -13.0451   20.9121 C   0  0  0  0  0  0
  -24.6405  -11.6909   20.8708 C   0  0  0  0  0  0
  -23.9065  -10.4285   21.0396 C   0  0  0  0  0  0
  -24.3627   -9.4215   21.9179 C   0  0  0  0  0  0
  -23.6304   -8.2260   22.0776 C   0  0  0  0  0  0
  -22.4298   -8.0277   21.3571 C   0  0  0  0  0  0
  -21.9914   -9.0233   20.4679 C   0  0  0  0  0  0
  -22.7232  -10.2111   20.3058 C   0  0  0  0  0  0
  -21.6858   -6.0709   22.5267 C   0  0  0  0  0  0
  -21.4017   -6.5630   23.8184 C   0  0  0  0  0  0
  -21.3651   -5.6800   24.9154 C   0  0  0  0  0  0
  -21.6054   -4.3063   24.7222 C   0  0  0  0  0  0
  -21.8828   -3.8128   23.4354 C   0  0  0  0  0  0
  -21.9205   -4.6934   22.3399 C   0  0  0  0  0  0
  -22.7916  -13.5291   21.1761 C   0  0  0  0  0  0
  -22.1684   -4.2109   21.0980 F   0  0  0  0  0  0
  -21.5628   -3.4558   25.7736 F   0  0  0  0  0  0
  -30.0355  -13.3049   20.4350 N   0  0  0  0  0  0
  -26.3060  -12.9306   20.3334 N   0  0  0  0  0  0
  -25.9338  -11.6475   20.5756 N   0  0  0  0  0  0
  -22.0576  -12.8254   22.0311 N   0  0  0  0  0  0
  -25.4439  -15.1856   20.4062 N   0  0  0  0  0  0
  -31.8809  -14.5945   20.0992 O   0  0  0  0  0  0
  -21.6686   -6.8863   21.4237 O   0  0  0  0  0  0
  -22.3593  -14.5572   20.6580 O   0  0  0  0  0  0
  -24.6116  -31.8720   23.2137 C   0  0  0  0  0  0
  -25.9061  -32.4834   23.8365 C   0  0  1  0  0  0
  -27.2455  -27.4523   20.0631 C   0  0  0  0  0  0
  -25.5957  -33.8628   24.2343 N   0  0  0  0  0  0
  -23.3970  -30.4908   21.5574 C   0  0  2  0  0  0
  -24.8407  -28.9573   20.1150 C   0  0  0  0  0  0
  -22.7356  -29.4677   22.5060 C   0  0  0  0  0  0
  -18.0244  -28.1407   22.8457 C   0  0  0  0  0  0
  -24.1471  -36.7268   23.2606 C   0  0  0  0  0  0
  -25.9205  -30.8335   21.3673 C   0  0  0  0  0  0
  -25.9999  -29.4695   20.7101 C   0  0  0  0  0  0
  -27.1999  -28.7227   20.6851 C   0  0  0  0  0  0
  -26.0660  -26.9629   19.4529 C   0  0  0  0  0  0
  -24.8690  -27.7010   19.4846 C   0  0  0  0  0  0
  -23.6011  -29.8210   20.1717 C   0  0  0  0  0  0
  -25.4117  -36.3135   24.0322 C   0  0  1  0  0  0
  -20.5815  -28.3692   23.1345 C   0  0  2  0  0  0
  -20.6774  -26.9464   22.5419 C   0  0  0  0  0  0
  -19.5783  -26.6422   21.5195 C   0  0  0  0  0  0
  -18.1931  -26.7941   22.1589 C   0  0  0  0  0  0
  -19.1476  -28.8854   23.2886 C   0  0  0  0  0  0
  -18.9422  -30.1438   23.8914 C   0  0  0  0  0  0
  -17.6437  -30.6608   24.0557 C   0  0  0  0  0  0
  -25.9051  -34.9492   23.5132 C   0  0  0  0  0  0
  -16.5320  -29.9144   23.6302 C   0  0  0  0  0  0
  -16.7220  -28.6550   23.0333 C   0  0  0  0  0  0
  -26.4486  -31.6588   25.0670 C   0  0  0  0  0  0
  -25.3789  -31.3705   26.1453 C   0  0  0  0  0  0
  -27.0242  -30.2997   24.6027 C   0  0  0  0  0  0
  -27.6063  -32.4298   25.7453 C   0  0  0  0  0  0
  -27.5579  -37.1812   24.8472 C   0  0  0  0  0  0
  -21.4095  -29.3055   22.3768 N   0  0  0  0  0  0
  -26.4293  -37.3839   23.9425 N   0  0  0  0  0  0
  -24.6609  -31.0773   22.1057 N   0  0  0  0  0  0
  -23.4106  -28.8236   23.3144 O   0  0  0  0  0  0
  -28.4339  -26.7429   20.0693 O   0  0  0  0  0  0
  -26.5560  -34.8935   22.4668 O   0  0  0  0  0  0
  -23.5338  -32.1493   23.7567 O   0  0  0  0  0  0
  -29.1002  -21.1143   21.1633 C   0  0  0  0  0  0
  -29.1834  -20.3844   19.9627 C   0  0  0  0  0  0
  -29.4400  -21.1583   18.8072 C   0  0  0  0  0  0
  -29.5276  -23.0802   20.0666 C   0  0  0  0  0  0
  -29.5116  -20.5625   17.4152 C   0  0  0  0  0  0
  -28.9577  -18.8585   19.9321 C   0  0  0  0  0  0
  -29.6727  -24.6005   20.1346 C   0  0  0  0  0  0
  -29.5971  -18.0671   21.1136 C   0  0  0  0  0  0
  -30.5754  -16.9321   20.7207 C   0  0  0  0  0  0
  -28.3911  -25.3490   19.7175 C   0  0  0  0  0  0
  -29.2665  -22.4498   21.2068 N   0  0  0  0  0  0
  -29.6170  -22.4945   18.8754 N   0  0  0  0  0  0
  -30.0354  -15.5671   20.8747 N   0  0  0  0  0  0
  -31.4678  -12.3565   19.1586 H   0  0  0  0  0  0
  -30.3008  -11.2854   19.8747 H   0  0  0  0  0  0
  -29.7479  -11.7184   17.4624 H   0  0  0  0  0  0
  -29.7026  -13.4366   17.7552 H   0  0  0  0  0  0
  -27.8009  -11.3076   18.7942 H   0  0  0  0  0  0
  -27.3905  -12.6605   17.7764 H   0  0  0  0  0  0
  -27.7079  -14.2518   19.5618 H   0  0  0  0  0  0
  -28.6724  -12.0185   21.4091 H   0  0  0  0  0  0
  -28.4780  -13.6936   21.8368 H   0  0  0  0  0  0
  -25.2772   -9.5686   22.4751 H   0  0  0  0  0  0
  -23.9992   -7.4676   22.7517 H   0  0  0  0  0  0
  -21.0842   -8.8740   19.9012 H   0  0  0  0  0  0
  -22.3686  -10.9631   19.6160 H   0  0  0  0  0  0
  -21.2016   -7.6141   23.9650 H   0  0  0  0  0  0
  -21.1476   -6.0555   25.9046 H   0  0  0  0  0  0
  -22.0621   -2.7591   23.2872 H   0  0  0  0  0  0
  -22.4218  -11.9909   22.4643 H   0  0  0  0  0  0
  -21.1211  -13.1259   22.2563 H   0  0  0  0  0  0
  -24.6924  -15.8542   20.5330 H   0  0  0  0  0  0
  -26.2944  -15.6126   20.0586 H   0  0  0  0  0  0
  -26.7119  -32.5564   23.1108 H   0  0  0  0  0  0
  -25.0345  -33.9772   25.0649 H   0  0  0  0  0  0
  -22.6889  -31.3111   21.4252 H   0  0  0  0  0  0
  -23.3778  -35.9555   23.3310 H   0  0  0  0  0  0
  -24.3513  -36.8837   22.1998 H   0  0  0  0  0  0
  -23.7153  -37.6462   23.6578 H   0  0  0  0  0  0
  -26.0260  -31.6035   20.6017 H   0  0  0  0  0  0
  -26.8092  -30.8847   21.9827 H   0  0  0  0  0  0
  -28.0905  -29.1245   21.1478 H   0  0  0  0  0  0
  -26.0590  -26.0203   18.9271 H   0  0  0  0  0  0
  -23.9836  -27.3047   19.0041 H   0  0  0  0  0  0
  -23.7105  -30.6001   19.4171 H   0  0  0  0  0  0
  -22.7218  -29.2437   19.8750 H   0  0  0  0  0  0
  -25.1283  -36.2003   25.0799 H   0  0  0  0  0  0
  -20.9808  -28.3299   24.1512 H   0  0  0  0  0  0
  -20.5763  -26.2304   23.3599 H   0  0  0  0  0  0
  -21.6656  -26.7634   22.1203 H   0  0  0  0  0  0
  -19.6996  -25.6332   21.1238 H   0  0  0  0  0  0
  -19.6746  -27.3230   20.6725 H   0  0  0  0  0  0
  -17.4237  -26.6613   21.3979 H   0  0  0  0  0  0
  -18.0375  -26.0089   22.8993 H   0  0  0  0  0  0
  -19.7905  -30.7216   24.2335 H   0  0  0  0  0  0
  -17.5028  -31.6280   24.5180 H   0  0  0  0  0  0
  -15.5338  -30.3099   23.7604 H   0  0  0  0  0  0
  -15.8606  -28.0893   22.7091 H   0  0  0  0  0  0
  -24.6042  -30.6907   25.7878 H   0  0  0  0  0  0
  -24.8862  -32.2825   26.4821 H   0  0  0  0  0  0
  -25.8208  -30.9027   27.0253 H   0  0  0  0  0  0
  -26.2724  -29.6888   24.0981 H   0  0  0  0  0  0
  -27.3839  -29.7120   25.4482 H   0  0  0  0  0  0
  -27.8682  -30.4251   23.9231 H   0  0  0  0  0  0
  -27.2708  -33.3643   26.1957 H   0  0  0  0  0  0
  -28.3948  -32.6777   25.0343 H   0  0  0  0  0  0
  -28.0638  -31.8460   26.5455 H   0  0  0  0  0  0
  -28.2665  -38.0057   24.7567 H   0  0  0  0  0  0
  -28.1022  -36.2600   24.6305 H   0  0  0  0  0  0
  -27.2264  -37.1475   25.8863 H   0  0  0  0  0  0
  -20.9278  -29.8698   21.6900 H   0  0  0  0  0  0
  -26.0187  -38.2904   24.1497 H   0  0  0  0  0  0
  -28.8906  -20.6330   22.1081 H   0  0  0  0  0  0
  -29.6245  -21.3367   16.6535 H   0  0  0  0  0  0
  -28.5976  -20.0097   17.1965 H   0  0  0  0  0  0
  -30.3583  -19.8826   17.3326 H   0  0  0  0  0  0
  -29.2770  -18.4388   18.9759 H   0  0  0  0  0  0
  -27.8775  -18.6947   19.9551 H   0  0  0  0  0  0
  -30.5168  -24.9177   19.5226 H   0  0  0  0  0  0
  -29.9402  -24.8737   21.1557 H   0  0  0  0  0  0
  -28.8191  -17.6858   21.7764 H   0  0  0  0  0  0
  -30.1735  -18.7556   21.7308 H   0  0  0  0  0  0
  -31.4603  -17.0030   21.3596 H   0  0  0  0  0  0
  -30.9539  -17.0846   19.7062 H   0  0  0  0  0  0
  -27.5480  -24.8710   20.2165 H   0  0  0  0  0  0
  -28.2532  -25.2355   18.6413 H   0  0  0  0  0  0
  -29.0800  -15.4423   21.1764 H   0  0  0  0  0  0
  1 25  1  0  0  0
  1 30  2  0  0  0
  1 83  1  0  0  0
  2  3  1  0  0  0
  2 25  1  0  0  0
  2 84  1  0  0  0
  2 85  1  0  0  0
  3  4  1  0  0  0
  3 86  1  0  0  0
  3 87  1  0  0  0
  4  5  1  0  0  0
  4 88  1  0  0  0
  4 89  1  0  0  0
  5  6  1  0  0  0
  5 26  1  0  0  0
  5 90  1  0  0  0
  6 25  1  0  0  0
  6 91  1  0  0  0
  6 92  1  0  0  0
  7  8  2  0  0  0
  7 26  1  0  0  0
  7 29  1  0  0  0
  8  9  1  0  0  0
  8 22  1  0  0  0
  9 10  1  0  0  0
  9 27  2  0  0  0
 10 11  2  0  0  0
 10 15  1  0  0  0
 11 12  1  0  0  0
 11 93  1  0  0  0
 12 13  2  0  0  0
 12 94  1  0  0  0
 13 14  1  0  0  0
 13 31  1  0  0  0
 14 15  2  0  0  0
 14 95  1  0  0  0
 15 96  1  0  0  0
 16 17  2  0  0  0
 16 21  1  0  0  0
 16 31  1  0  0  0
 17 18  1  0  0  0
 17 97  1  0  0  0
 18 19  2  0  0  0
 18 98  1  0  0  0
 19 20  1  0  0  0
 19 24  1  0  0  0
 20 21  2  0  0  0
 20 99  1  0  0  0
 21 23  1  0  0  0
 22 28  1  0  0  0
 22 32  2  0  0  0
 26 27  1  0  0  0
 28100  1  0  0  0
 28101  1  0  0  0
 29102  1  0  0  0
 29103  1  0  0  0
 33 34  1  0  0  0
 33 66  1  0  0  0
 33 70  2  0  0  0
 34 36  1  0  0  0
 34 59  1  0  0  0
 34104  1  0  0  0
 35 44  2  0  0  0
 35 45  1  0  0  0
 35 68  1  0  0  0
 36 56  1  0  0  0
 36105  1  0  0  0
 37 39  1  0  0  0
 37 47  1  0  0  0
 37 66  1  0  0  0
 37106  1  0  0  0
 38 43  2  0  0  0
 38 46  1  0  0  0
 38 47  1  0  0  0
 39 64  1  0  0  0
 39 67  2  0  0  0
 40 52  1  0  0  0
 40 53  2  0  0  0
 40 58  1  0  0  0
 41107  1  0  0  0
 41108  1  0  0  0
 41109  1  0  0  0
 41 48  1  0  0  0
 42 43  1  0  0  0
 42 66  1  0  0  0
 42110  1  0  0  0
 42111  1  0  0  0
 43 44  1  0  0  0
 44112  1  0  0  0
 45 46  2  0  0  0
 45113  1  0  0  0
 46114  1  0  0  0
 47115  1  0  0  0
 47116  1  0  0  0
 48 56  1  0  0  0
 48 65  1  0  0  0
 48117  1  0  0  0
 49 50  1  0  0  0
 49 53  1  0  0  0
 49 64  1  0  0  0
 49118  1  0  0  0
 50 51  1  0  0  0
 50119  1  0  0  0
 50120  1  0  0  0
 51 52  1  0  0  0
 51121  1  0  0  0
 51122  1  0  0  0
 52123  1  0  0  0
 52124  1  0  0  0
 53 54  1  0  0  0
 54 55  2  0  0  0
 54125  1  0  0  0
 55 57  1  0  0  0
 55126  1  0  0  0
 56 69  2  0  0  0
 57 58  2  0  0  0
 57127  1  0  0  0
 58128  1  0  0  0
 59 60  1  0  0  0
 59 61  1  0  0  0
 59 62  1  0  0  0
 60129  1  0  0  0
 60130  1  0  0  0
 60131  1  0  0  0
 61132  1  0  0  0
 61133  1  0  0  0
 61134  1  0  0  0
 62135  1  0  0  0
 62136  1  0  0  0
 62137  1  0  0  0
 63 65  1  0  0  0
 63138  1  0  0  0
 63139  1  0  0  0
 63140  1  0  0  0
 64141  1  0  0  0
 65142  1  0  0  0
 68 80  1  0  0  0
 71 72  2  0  0  0
 71 81  1  0  0  0
 71143  1  0  0  0
 72 73  1  0  0  0
 72 76  1  0  0  0
 73 75  1  0  0  0
 73 82  2  0  0  0
 74 77  1  0  0  0
 74 81  2  0  0  0
 74 82  1  0  0  0
 75144  1  0  0  0
 75145  1  0  0  0
 75146  1  0  0  0
 76 78  1  0  0  0
 76147  1  0  0  0
 76148  1  0  0  0
 77 80  1  0  0  0
 77149  1  0  0  0
 77150  1  0  0  0
 78 79  1  0  0  0
 78151  1  0  0  0
 78152  1  0  0  0
 79 83  1  0  0  0
 79153  1  0  0  0
 79154  1  0  0  0
 80155  1  0  0  0
 80156  1  0  0  0
 83157  1  0  0  0
M  ISO  4   1 100  68 101  80 101  83 100
M  END
> <chiral flag>
0

> <version>
0

> <s_m_source_file>
/data/baiqing/PycharmProjects/Reinvent-master-3.2/result/LINK_invent/BTK/process_docking_weight1_custom_sum_contain_oxygen_bond_distance_aromatic_linkinvent_7_9_3/rearranged_h_0041.sdf

> <i_m_source_file_index>
68

> <r_mmod_Potential_Energy-OPLS-2005>
-429.726379394531

> <r_mmod_Stretch_Energy-OPLS-2005>
36.0255355834961

> <r_mmod_Bend_Energy-OPLS-2005>
101.377967834473

> <r_mmod_Torsional_Energy-OPLS-2005>
208.570892333984

> <r_mmod_Improper_Torsional_Energy-OPLS-2005>
4.59467697143555

> <r_mmod_Van_der_Waal_Energy-OPLS-2005>
167.638290405273

> <r_mmod_Electrostatic_Energy-OPLS-2005>
-730.900268554688

> <r_mmod_Solvation_Energy-OPLS-2005>
-233.006866455078

> <b_mmod_Minimization_Converged-OPLS-2005>
0

> <r_mmod_RMS_Derivative-OPLS-2005>
4.96781635284424

$$$$
68
                    3D
 Structure written by MMmdl.
180189  0  0  1  0            999 V2000
  -30.3118  -15.6244   20.0563 C   0  0  0  0  0  0
  -30.4412  -13.0729   19.4263 C   0  0  0  0  0  0
  -29.5287  -12.5718   18.2793 C   0  0  0  0  0  0
  -28.1699  -12.1688   18.8555 C   0  0  0  0  0  0
  -27.6156  -13.2565   19.7991 C   0  0  2  0  0  0
  -28.6570  -13.6841   20.8658 C   0  0  0  0  0  0
  -25.2603  -13.8154   20.5831 C   0  0  0  0  0  0
  -24.1902  -13.0418   20.9322 C   0  0  0  0  0  0
  -24.6458  -11.6871   20.8796 C   0  0  0  0  0  0
  -23.9045  -10.4279   21.0427 C   0  0  0  0  0  0
  -24.3502   -9.4219   21.9240 C   0  0  0  0  0  0
  -23.6194   -8.2248   22.0810 C   0  0  0  0  0  0
  -22.4224   -8.0238   21.3525 C   0  0  0  0  0  0
  -21.9827   -9.0249   20.4667 C   0  0  0  0  0  0
  -22.7192  -10.2129   20.3115 C   0  0  0  0  0  0
  -21.6845   -6.0677   22.5263 C   0  0  0  0  0  0
  -21.4012   -6.5621   23.8178 C   0  0  0  0  0  0
  -21.3676   -5.6798   24.9148 C   0  0  0  0  0  0
  -21.6043   -4.3062   24.7223 C   0  0  0  0  0  0
  -21.8856   -3.8129   23.4370 C   0  0  0  0  0  0
  -21.9205   -4.6911   22.3400 C   0  0  0  0  0  0
  -22.7910  -13.5246   21.1811 C   0  0  0  0  0  0
  -22.1700   -4.2100   21.0972 F   0  0  0  0  0  0
  -21.5604   -3.4561   25.7742 F   0  0  0  0  0  0
  -29.7941  -14.2714   20.1085 N   0  0  0  0  0  0
  -26.2973  -12.9352   20.3385 N   0  0  0  0  0  0
  -25.9402  -11.6491   20.5794 N   0  0  0  0  0  0
  -22.0397  -12.8280   22.0268 N   0  0  0  0  0  0
  -25.4353  -15.1867   20.4180 N   0  0  0  0  0  0
  -31.5646  -15.5599   19.9855 O   0  0  0  0  0  0
  -21.6653   -6.8791   21.4200 O   0  0  0  0  0  0
  -22.3636  -14.5544   20.6598 O   0  0  0  0  0  0
  -24.6906  -31.7669   23.0783 C   0  0  0  0  0  0
  -25.9406  -32.4200   23.7620 C   0  0  1  0  0  0
  -27.3389  -26.5389   20.9148 C   0  0  0  0  0  0
  -25.5988  -33.8012   24.1623 N   0  0  0  0  0  0
  -23.5007  -30.4223   21.3826 C   0  0  2  0  0  0
  -24.8276  -28.8832   19.5712 C   0  0  0  0  0  0
  -22.7529  -29.4542   22.3648 C   0  0  0  0  0  0
  -18.0223  -28.1539   22.8542 C   0  0  0  0  0  0
  -24.1555  -36.7144   23.2635 C   0  0  0  0  0  0
  -26.0618  -30.6521   21.1612 C   0  0  0  0  0  0
  -26.2022  -29.2807   20.3433 C   0  0  0  0  0  0
  -27.3765  -28.2284   20.8465 C   0  0  0  0  0  0
  -26.0273  -25.5976   20.2627 C   0  0  0  0  0  0
  -24.3609  -27.3114   19.2605 C   0  0  0  0  0  0
  -23.6777  -29.8750   19.8979 C   0  0  0  0  0  0
  -25.4140  -36.2667   24.0230 C   0  0  1  0  0  0
  -20.5830  -28.4114   23.0888 C   0  0  2  0  0  0
  -20.6218  -26.9575   22.5706 C   0  0  0  0  0  0
  -19.5440  -26.6453   21.5305 C   0  0  0  0  0  0
  -18.1711  -26.8045   22.1714 C   0  0  0  0  0  0
  -19.1495  -28.9146   23.2716 C   0  0  0  0  0  0
  -18.9403  -30.1723   23.8769 C   0  0  0  0  0  0
  -17.6371  -30.6717   24.0580 C   0  0  0  0  0  0
  -25.9147  -34.9116   23.4787 C   0  0  0  0  0  0
  -16.5293  -29.9155   23.6403 C   0  0  0  0  0  0
  -16.7232  -28.6533   23.0574 C   0  0  0  0  0  0
  -26.4583  -31.6223   25.0239 C   0  0  0  0  0  0
  -25.3886  -31.3570   26.1087 C   0  0  0  0  0  0
  -27.0484  -30.2671   24.5690 C   0  0  0  0  0  0
  -27.5946  -32.4188   25.7178 C   0  0  0  0  0  0
  -27.5570  -37.1614   24.8437 C   0  0  0  0  0  0
  -21.4152  -29.3138   22.2681 N   0  0  0  0  0  0
  -26.4203  -37.3495   23.9491 N   0  0  0  0  0  0
  -24.7869  -30.9578   21.9496 N   0  0  0  0  0  0
  -23.3834  -28.8621   23.2462 O   0  0  0  0  0  0
  -28.1492  -25.7622   21.5943 O   0  0  0  0  0  0
  -26.5765  -34.8808   22.4402 O   0  0  0  0  0  0
  -23.6001  -32.0550   23.6035 O   0  0  0  0  0  0
  -23.9391  -26.1054   21.2773 C   0  0  0  0  0  0
  -25.1777  -27.2900   21.2507 C   0  0  0  0  0  0
  -23.7254  -25.0267   19.9751 C   0  0  0  0  0  0
  -26.4891  -27.1190   18.8419 C   0  0  0  0  0  0
  -24.5092  -25.0355   18.4437 C   0  0  0  0  0  0
  -24.3174  -22.6886   23.9196 C   0  0  0  0  0  0
  -24.7109  -23.4846   22.8334 C   0  0  0  0  0  0
  -23.0557  -22.0313   22.3124 C   0  0  0  0  0  0
  -24.2892  -23.8983   17.4675 C   0  0  0  0  0  0
  -24.7089  -22.5954   25.3734 C   0  0  0  0  0  0
  -22.0863  -21.0722   21.6434 C   0  0  0  0  0  0
  -23.3762  -23.5926   20.4027 C   0  0  0  0  0  0
  -27.8099  -25.7640   18.4060 C   0  0  0  0  0  0
  -25.8833  -24.5841   22.9677 C   0  0  0  0  0  0
  -28.3425  -23.9679   19.0278 C   0  0  0  0  0  0
  -28.5347  -22.0640   18.6976 C   0  0  0  0  0  0
  -28.9659  -20.4118   19.6034 C   0  0  0  0  0  0
  -29.6875  -18.6470   19.2951 C   0  0  0  0  0  0
  -27.3892  -24.5938   22.2687 C   0  0  0  0  0  0
  -25.7033  -25.9828   17.9084 N   0  0  0  0  0  0
  -23.3421  -21.7838   23.5640 N   0  0  0  0  0  0
  -23.7174  -23.1214   21.7997 N   0  0  0  0  0  0
  -29.5602  -16.9653   19.8627 N   0  0  0  0  0  0
  -31.3923  -13.3617   18.9765 H   0  0  0  0  0  0
  -30.6705  -12.2839   20.1419 H   0  0  0  0  0  0
  -29.9876  -11.7201   17.7716 H   0  0  0  0  0  0
  -29.4053  -13.3534   17.5248 H   0  0  0  0  0  0
  -28.3341  -11.2503   19.4256 H   0  0  0  0  0  0
  -27.4612  -11.9142   18.0727 H   0  0  0  0  0  0
  -27.4446  -14.1102   19.1481 H   0  0  0  0  0  0
  -28.9713  -12.8643   21.5166 H   0  0  0  0  0  0
  -28.2353  -14.4542   21.5107 H   0  0  0  0  0  0
  -25.2583   -9.5776   22.4849 H   0  0  0  0  0  0
  -23.9959   -7.4661   22.7559 H   0  0  0  0  0  0
  -21.0773   -8.8779   19.8908 H   0  0  0  0  0  0
  -22.3653  -10.9673   19.6269 H   0  0  0  0  0  0
  -21.2037   -7.6133   23.9651 H   0  0  0  0  0  0
  -21.1437   -6.0529   25.9034 H   0  0  0  0  0  0
  -22.0605   -2.7577   23.2900 H   0  0  0  0  0  0
  -22.3890  -12.0031   22.4915 H   0  0  0  0  0  0
  -21.0987  -13.1393   22.2303 H   0  0  0  0  0  0
  -24.6603  -15.8339   20.5092 H   0  0  0  0  0  0
  -26.2770  -15.6110   20.0520 H   0  0  0  0  0  0
  -26.7510  -32.4646   23.0385 H   0  0  0  0  0  0
  -25.0199  -33.9017   24.9810 H   0  0  0  0  0  0
  -22.8401  -31.2880   21.2825 H   0  0  0  0  0  0
  -23.3765  -35.9522   23.2913 H   0  0  0  0  0  0
  -24.3772  -36.9192   22.2160 H   0  0  0  0  0  0
  -23.7359  -37.6212   23.7015 H   0  0  0  0  0  0
  -26.1661  -31.4700   20.4425 H   0  0  0  0  0  0
  -26.9351  -30.7179   21.8043 H   0  0  0  0  0  0
  -28.1835  -28.6787   21.4153 H   0  0  0  0  0  0
  -25.9935  -24.5153   20.2669 H   0  0  0  0  0  0
  -23.3807  -27.1333   18.8193 H   0  0  0  0  0  0
  -23.8400  -30.7442   19.2597 H   0  0  0  0  0  0
  -22.7393  -29.4434   19.5654 H   0  0  0  0  0  0
  -25.1317  -36.1253   25.0685 H   0  0  0  0  0  0
  -21.0211  -28.4219   24.0893 H   0  0  0  0  0  0
  -20.4573  -26.3068   23.4309 H   0  0  0  0  0  0
  -21.5891  -26.6899   22.1829 H   0  0  0  0  0  0
  -19.6664  -25.6366   21.1291 H   0  0  0  0  0  0
  -19.6326  -27.3294   20.6865 H   0  0  0  0  0  0
  -17.3972  -26.6773   21.4155 H   0  0  0  0  0  0
  -18.0153  -26.0231   22.9161 H   0  0  0  0  0  0
  -19.7852  -30.7692   24.1952 H   0  0  0  0  0  0
  -17.4857  -31.6435   24.5109 H   0  0  0  0  0  0
  -15.5298  -30.3072   23.7520 H   0  0  0  0  0  0
  -15.8673  -28.0690   22.7495 H   0  0  0  0  0  0
  -24.5847  -30.7090   25.7556 H   0  0  0  0  0  0
  -24.9381  -32.2896   26.4523 H   0  0  0  0  0  0
  -25.8210  -30.8712   26.9843 H   0  0  0  0  0  0
  -26.3106  -29.6362   24.0678 H   0  0  0  0  0  0
  -27.4409  -29.6834   25.3991 H   0  0  0  0  0  0
  -27.8777  -30.3987   23.8741 H   0  0  0  0  0  0
  -27.2214  -33.3437   26.1587 H   0  0  0  0  0  0
  -28.3837  -32.6836   25.0162 H   0  0  0  0  0  0
  -28.0564  -31.8525   26.5270 H   0  0  0  0  0  0
  -28.2228  -38.0192   24.7619 H   0  0  0  0  0  0
  -28.1348  -36.2705   24.5945 H   0  0  0  0  0  0
  -27.2437  -37.0921   25.8858 H   0  0  0  0  0  0
  -20.9252  -29.8803   21.5868 H   0  0  0  0  0  0
  -25.9886  -38.2452   24.1614 H   0  0  0  0  0  0
  -23.4560  -25.9128   22.2173 H   0  0  0  0  0  0
  -25.3768  -27.9055   22.1282 H   0  0  0  0  0  0
  -23.2850  -23.4563   17.5408 H   0  0  0  0  0  0
  -25.0405  -23.1228   17.6570 H   0  0  0  0  0  0
  -24.4325  -24.2522   16.4400 H   0  0  0  0  0  0
  -25.4419  -21.8009   25.5448 H   0  0  0  0  0  0
  -23.8362  -22.3112   25.9730 H   0  0  0  0  0  0
  -25.0680  -23.5389   25.7793 H   0  0  0  0  0  0
  -21.2909  -20.7576   22.3355 H   0  0  0  0  0  0
  -22.6302  -20.1595   21.3774 H   0  0  0  0  0  0
  -21.5777  -21.4534   20.7679 H   0  0  0  0  0  0
  -23.9846  -22.9348   19.7769 H   0  0  0  0  0  0
  -22.3420  -23.3627   20.1072 H   0  0  0  0  0  0
  -28.7335  -26.3244   18.5765 H   0  0  0  0  0  0
  -27.8767  -25.7047   17.3219 H   0  0  0  0  0  0
  -26.1688  -24.4802   24.0136 H   0  0  0  0  0  0
  -25.4943  -25.5856   23.0720 H   0  0  0  0  0  0
  -28.5467  -24.0537   20.0710 H   0  0  0  0  0  0
  -29.3707  -24.1252   18.7153 H   0  0  0  0  0  0
  -29.1899  -22.0088   17.8323 H   0  0  0  0  0  0
  -27.5659  -21.8197   18.2646 H   0  0  0  0  0  0
  -28.0622  -20.1967   20.1604 H   0  0  0  0  0  0
  -29.6414  -20.7640   20.3881 H   0  0  0  0  0  0
  -30.7526  -18.8395   19.4129 H   0  0  0  0  0  0
  -29.6040  -18.5390   18.2097 H   0  0  0  0  0  0
  -27.3870  -23.7045   21.6491 H   0  0  0  0  0  0
  -28.0769  -24.2822   23.0436 H   0  0  0  0  0  0
  -28.5759  -16.7429   19.9452 H   0  0  0  0  0  0
  1 25  1  0  0  0
  1 30  2  0  0  0
  1 93  1  0  0  0
  2  3  1  0  0  0
  2 25  1  0  0  0
  2 94  1  0  0  0
  2 95  1  0  0  0
  3  4  1  0  0  0
  3 96  1  0  0  0
  3 97  1  0  0  0
  4  5  1  0  0  0
  4 98  1  0  0  0
  4 99  1  0  0  0
  5  6  1  0  0  0
  5 26  1  0  0  0
  5100  1  0  0  0
  6 25  1  0  0  0
  6101  1  0  0  0
  6102  1  0  0  0
  7  8  2  0  0  0
  7 26  1  0  0  0
  7 29  1  0  0  0
  8  9  1  0  0  0
  8 22  1  0  0  0
  9 10  1  0  0  0
  9 27  2  0  0  0
 10 11  2  0  0  0
 10 15  1  0  0  0
 11 12  1  0  0  0
 11103  1  0  0  0
 12 13  2  0  0  0
 12104  1  0  0  0
 13 14  1  0  0  0
 13 31  1  0  0  0
 14 15  2  0  0  0
 14105  1  0  0  0
 15106  1  0  0  0
 16 17  2  0  0  0
 16 21  1  0  0  0
 16 31  1  0  0  0
 17 18  1  0  0  0
 17107  1  0  0  0
 18 19  2  0  0  0
 18108  1  0  0  0
 19 20  1  0  0  0
 19 24  1  0  0  0
 20 21  2  0  0  0
 20109  1  0  0  0
 21 23  1  0  0  0
 22 28  1  0  0  0
 22 32  2  0  0  0
 26 27  1  0  0  0
 28110  1  0  0  0
 28111  1  0  0  0
 29112  1  0  0  0
 29113  1  0  0  0
 33 34  1  0  0  0
 33 66  1  0  0  0
 33 70  2  0  0  0
 34 36  1  0  0  0
 34 59  1  0  0  0
 34114  1  0  0  0
 35 44  2  0  0  0
 35 45  1  0  0  0
 35 68  1  0  0  0
 36 56  1  0  0  0
 36115  1  0  0  0
 37 39  1  0  0  0
 37 47  1  0  0  0
 37 66  1  0  0  0
 37116  1  0  0  0
 38 43  2  0  0  0
 38 46  1  0  0  0
 38 47  1  0  0  0
 39 64  1  0  0  0
 39 67  2  0  0  0
 40 52  1  0  0  0
 40 53  2  0  0  0
 40 58  1  0  0  0
 41117  1  0  0  0
 41118  1  0  0  0
 41119  1  0  0  0
 41 48  1  0  0  0
 42 43  1  0  0  0
 42 66  1  0  0  0
 42120  1  0  0  0
 42121  1  0  0  0
 43 44  1  0  0  0
 44122  1  0  0  0
 45 46  2  0  0  0
 45123  1  0  0  0
 46124  1  0  0  0
 47125  1  0  0  0
 47126  1  0  0  0
 48 56  1  0  0  0
 48 65  1  0  0  0
 48127  1  0  0  0
 49 50  1  0  0  0
 49 53  1  0  0  0
 49 64  1  0  0  0
 49128  1  0  0  0
 50 51  1  0  0  0
 50129  1  0  0  0
 50130  1  0  0  0
 51 52  1  0  0  0
 51131  1  0  0  0
 51132  1  0  0  0
 52133  1  0  0  0
 52134  1  0  0  0
 53 54  1  0  0  0
 54 55  2  0  0  0
 54135  1  0  0  0
 55 57  1  0  0  0
 55136  1  0  0  0
 56 69  2  0  0  0
 57 58  2  0  0  0
 57137  1  0  0  0
 58138  1  0  0  0
 59 60  1  0  0  0
 59 61  1  0  0  0
 59 62  1  0  0  0
 60139  1  0  0  0
 60140  1  0  0  0
 60141  1  0  0  0
 61142  1  0  0  0
 61143  1  0  0  0
 61144  1  0  0  0
 62145  1  0  0  0
 62146  1  0  0  0
 62147  1  0  0  0
 63 65  1  0  0  0
 63148  1  0  0  0
 63149  1  0  0  0
 63150  1  0  0  0
 64151  1  0  0  0
 65152  1  0  0  0
 68 89  1  0  0  0
 71 72  2  0  0  0
 71 73  1  0  0  0
 71153  1  0  0  0
 72 74  1  0  0  0
 72154  1  0  0  0
 73 75  2  0  0  0
 73 82  1  0  0  0
 74 83  1  0  0  0
 74 90  2  0  0  0
 75 79  1  0  0  0
 75 90  1  0  0  0
 76 77  2  0  0  0
 76 80  1  0  0  0
 76 91  1  0  0  0
 77 84  1  0  0  0
 77 92  1  0  0  0
 78 81  1  0  0  0
 78 91  2  0  0  0
 78 92  1  0  0  0
 79155  1  0  0  0
 79156  1  0  0  0
 79157  1  0  0  0
 80158  1  0  0  0
 80159  1  0  0  0
 80160  1  0  0  0
 81161  1  0  0  0
 81162  1  0  0  0
 81163  1  0  0  0
 82 92  1  0  0  0
 82164  1  0  0  0
 82165  1  0  0  0
 83 85  1  0  0  0
 83166  1  0  0  0
 83167  1  0  0  0
 84 89  1  0  0  0
 84168  1  0  0  0
 84169  1  0  0  0
 85 86  1  0  0  0
 85170  1  0  0  0
 85171  1  0  0  0
 86 87  1  0  0  0
 86172  1  0  0  0
 86173  1  0  0  0
 87 88  1  0  0  0
 87174  1  0  0  0
 87175  1  0  0  0
 88 93  1  0  0  0
 88176  1  0  0  0
 88177  1  0  0  0
 89178  1  0  0  0
 89179  1  0  0  0
 93180  1  0  0  0
M  ISO  4   1 100  68 101  89 101  93 100
M  END
> <chiral flag>
0

> <version>
0

> <s_m_source_file>
/data/baiqing/PycharmProjects/Reinvent-master-3.2/result/LINK_invent/BTK/process_docking_weight1_custom_sum_contain_oxygen_bond_distance_aromatic_linkinvent_7_9_3/rearranged_h_0041.sdf

> <i_m_source_file_index>
69

> <r_mmod_Potential_Energy-OPLS-2005>
15892.4716796875

> <r_mmod_Stretch_Energy-OPLS-2005>
9544.34375

> <r_mmod_Bend_Energy-OPLS-2005>
1168.47180175781

> <r_mmod_Torsional_Energy-OPLS-2005>
449.49951171875

> <r_mmod_Improper_Torsional_Energy-OPLS-2005>
56.9903602600098

> <r_mmod_Van_der_Waal_Energy-OPLS-2005>
3903.80249023438

> <r_mmod_Electrostatic_Energy-OPLS-2005>
-517.952697753906

> <r_mmod_Solvation_Energy-OPLS-2005>
-234.39421081543

> <b_mmod_Minimization_Converged-OPLS-2005>
0

> <r_mmod_RMS_Derivative-OPLS-2005>
47.4048309326172

$$$$
69
                    3D
 Structure written by MMmdl.
159167  0  0  1  0            999 V2000
  -30.6598  -14.5619   20.5440 C   0  0  0  0  0  0
  -30.4323  -12.3565   19.4357 C   0  0  0  0  0  0
  -29.5012  -12.5098   18.2138 C   0  0  0  0  0  0
  -28.0220  -12.3595   18.6238 C   0  0  0  0  0  0
  -27.6566  -13.2133   19.8681 C   0  0  2  0  0  0
  -28.6998  -13.0323   20.9930 C   0  0  0  0  0  0
  -25.2574  -13.8172   20.5694 C   0  0  0  0  0  0
  -24.1834  -13.0444   20.9183 C   0  0  0  0  0  0
  -24.6398  -11.6911   20.8731 C   0  0  0  0  0  0
  -23.9067  -10.4296   21.0394 C   0  0  0  0  0  0
  -24.3619   -9.4210   21.9168 C   0  0  0  0  0  0
  -23.6296   -8.2245   22.0747 C   0  0  0  0  0  0
  -22.4276   -8.0281   21.3542 C   0  0  0  0  0  0
  -21.9904   -9.0257   20.4650 C   0  0  0  0  0  0
  -22.7233  -10.2137   20.3051 C   0  0  0  0  0  0
  -21.6854   -6.0735   22.5278 C   0  0  0  0  0  0
  -21.4016   -6.5640   23.8216 C   0  0  0  0  0  0
  -21.3659   -5.6795   24.9176 C   0  0  0  0  0  0
  -21.6042   -4.3055   24.7221 C   0  0  0  0  0  0
  -21.8819   -3.8149   23.4347 C   0  0  0  0  0  0
  -21.9194   -4.6967   22.3401 C   0  0  0  0  0  0
  -22.7861  -13.5242   21.1839 C   0  0  0  0  0  0
  -22.1662   -4.2155   21.0978 F   0  0  0  0  0  0
  -21.5623   -3.4536   25.7732 F   0  0  0  0  0  0
  -30.0212  -13.3595   20.4338 N   0  0  0  0  0  0
  -26.3004  -12.9350   20.3335 N   0  0  0  0  0  0
  -25.9326  -11.6504   20.5765 N   0  0  0  0  0  0
  -22.0494  -12.8249   22.0409 N   0  0  0  0  0  0
  -25.4292  -15.1903   20.4127 N   0  0  0  0  0  0
  -31.8099  -14.7383   20.1326 O   0  0  0  0  0  0
  -21.6639   -6.8878   21.4241 O   0  0  0  0  0  0
  -22.3541  -14.5536   20.6674 O   0  0  0  0  0  0
  -24.6228  -31.8640   23.2069 C   0  0  0  0  0  0
  -25.9094  -32.4802   23.8384 C   0  0  1  0  0  0
  -27.2256  -27.3720   20.1063 C   0  0  0  0  0  0
  -25.5924  -33.8601   24.2312 N   0  0  0  0  0  0
  -23.4142  -30.4897   21.5477 C   0  0  2  0  0  0
  -24.8607  -28.9528   20.1092 C   0  0  0  0  0  0
  -22.7458  -29.4655   22.4947 C   0  0  0  0  0  0
  -18.0289  -28.1380   22.8499 C   0  0  0  0  0  0
  -24.1486  -36.7310   23.2640 C   0  0  0  0  0  0
  -25.9516  -30.8090   21.3728 C   0  0  0  0  0  0
  -26.0267  -29.4423   20.7129 C   0  0  0  0  0  0
  -27.2159  -28.6626   20.7034 C   0  0  0  0  0  0
  -26.0445  -26.9263   19.4734 C   0  0  0  0  0  0
  -24.8690  -27.6978   19.4808 C   0  0  0  0  0  0
  -23.6258  -29.8268   20.1613 C   0  0  0  0  0  0
  -25.4106  -36.3104   24.0341 C   0  0  1  0  0  0
  -20.5888  -28.3688   23.1291 C   0  0  2  0  0  0
  -20.6769  -26.9409   22.5421 C   0  0  0  0  0  0
  -19.5742  -26.6380   21.5223 C   0  0  0  0  0  0
  -18.1925  -26.7928   22.1633 C   0  0  0  0  0  0
  -19.1539  -28.8847   23.2898 C   0  0  0  0  0  0
  -18.9462  -30.1449   23.8915 C   0  0  0  0  0  0
  -17.6463  -30.6582   24.0570 C   0  0  0  0  0  0
  -25.9042  -34.9470   23.5124 C   0  0  0  0  0  0
  -16.5356  -29.9084   23.6325 C   0  0  0  0  0  0
  -16.7277  -28.6501   23.0354 C   0  0  0  0  0  0
  -26.4494  -31.6605   25.0744 C   0  0  0  0  0  0
  -25.3746  -31.3741   26.1491 C   0  0  0  0  0  0
  -27.0332  -30.3033   24.6182 C   0  0  0  0  0  0
  -27.6064  -32.4344   25.7493 C   0  0  0  0  0  0
  -27.5591  -37.1796   24.8457 C   0  0  0  0  0  0
  -21.4176  -29.3049   22.3684 N   0  0  0  0  0  0
  -26.4289  -37.3795   23.9423 N   0  0  0  0  0  0
  -24.6812  -31.0696   22.0996 N   0  0  0  0  0  0
  -23.4205  -28.8195   23.3008 O   0  0  0  0  0  0
  -28.3368  -26.5342   20.1407 O   0  0  0  0  0  0
  -26.5601  -34.8930   22.4684 O   0  0  0  0  0  0
  -23.5404  -32.1418   23.7424 O   0  0  0  0  0  0
  -28.9692  -23.4691   18.2916 C   0  0  0  0  0  0
  -29.2175  -23.1367   19.5962 C   0  0  0  0  0  0
  -29.5127  -21.7122   19.5325 C   0  0  0  0  0  0
  -29.0297  -22.1996   16.0872 C   0  0  0  0  0  0
  -29.2011  -24.1280   20.7670 C   0  0  0  0  0  0
  -29.9522  -20.6830   20.5886 C   0  0  0  0  0  0
  -29.0135  -19.4386   20.7972 C   0  0  0  0  0  0
  -29.4013  -18.0186   20.2281 C   0  0  0  0  0  0
  -30.2389  -17.0407   21.1308 C   0  0  0  0  0  0
  -28.0756  -25.2271   20.7445 C   0  0  0  0  0  0
  -29.4702  -21.2756   18.2787 N   0  0  0  0  0  0
  -29.1391  -22.3418   17.5250 N   0  0  0  0  0  0
  -29.8963  -15.5965   20.9784 N   0  0  0  0  0  0
  -31.4732  -12.4786   19.1304 H   0  0  0  0  0  0
  -30.3592  -11.3528   19.8567 H   0  0  0  0  0  0
  -29.7565  -11.7723   17.4510 H   0  0  0  0  0  0
  -29.6563  -13.4872   17.7550 H   0  0  0  0  0  0
  -27.8415  -11.3053   18.8339 H   0  0  0  0  0  0
  -27.3732  -12.6170   17.7852 H   0  0  0  0  0  0
  -27.6869  -14.2558   19.5500 H   0  0  0  0  0  0
  -28.6968  -12.0048   21.3586 H   0  0  0  0  0  0
  -28.4528  -13.6519   21.8568 H   0  0  0  0  0  0
  -25.2761   -9.5692   22.4739 H   0  0  0  0  0  0
  -24.0010   -7.4636   22.7467 H   0  0  0  0  0  0
  -21.0828   -8.8780   19.8961 H   0  0  0  0  0  0
  -22.3685  -10.9674   19.6170 H   0  0  0  0  0  0
  -21.2010   -7.6146   23.9724 H   0  0  0  0  0  0
  -21.1479   -6.0515   25.9080 H   0  0  0  0  0  0
  -22.0598   -2.7610   23.2841 H   0  0  0  0  0  0
  -22.4111  -11.9936   22.4833 H   0  0  0  0  0  0
  -21.1113  -13.1292   22.2583 H   0  0  0  0  0  0
  -24.6623  -15.8443   20.5249 H   0  0  0  0  0  0
  -26.2810  -15.6316   20.0900 H   0  0  0  0  0  0
  -26.7165  -32.5490   23.1139 H   0  0  0  0  0  0
  -25.0089  -33.9742   25.0469 H   0  0  0  0  0  0
  -22.7081  -31.3109   21.4079 H   0  0  0  0  0  0
  -23.3758  -35.9631   23.3279 H   0  0  0  0  0  0
  -24.3590  -36.8949   22.2061 H   0  0  0  0  0  0
  -23.7217  -37.6500   23.6666 H   0  0  0  0  0  0
  -26.0829  -31.5766   20.6088 H   0  0  0  0  0  0
  -26.8323  -30.8526   22.0019 H   0  0  0  0  0  0
  -28.1111  -29.0324   21.1832 H   0  0  0  0  0  0
  -26.0215  -25.9701   18.9708 H   0  0  0  0  0  0
  -23.9778  -27.3217   18.9969 H   0  0  0  0  0  0
  -23.7393  -30.6048   19.4053 H   0  0  0  0  0  0
  -22.7475  -29.2525   19.8611 H   0  0  0  0  0  0
  -25.1278  -36.1964   25.0834 H   0  0  0  0  0  0
  -20.9998  -28.3262   24.1404 H   0  0  0  0  0  0
  -20.5660  -26.2304   23.3627 H   0  0  0  0  0  0
  -21.6639  -26.7422   22.1220 H   0  0  0  0  0  0
  -19.6897  -25.6291   21.1251 H   0  0  0  0  0  0
  -19.6676  -27.3194   20.6756 H   0  0  0  0  0  0
  -17.4200  -26.6702   21.4029 H   0  0  0  0  0  0
  -18.0307  -26.0059   22.9013 H   0  0  0  0  0  0
  -19.7939  -30.7259   24.2298 H   0  0  0  0  0  0
  -17.5016  -31.6261   24.5174 H   0  0  0  0  0  0
  -15.5356  -30.2990   23.7624 H   0  0  0  0  0  0
  -15.8684  -28.0815   22.7058 H   0  0  0  0  0  0
  -24.5893  -30.7117   25.7829 H   0  0  0  0  0  0
  -24.8973  -32.2911   26.4958 H   0  0  0  0  0  0
  -25.8088  -30.8888   27.0242 H   0  0  0  0  0  0
  -26.2895  -29.6782   24.1228 H   0  0  0  0  0  0
  -27.4059  -29.7294   25.4676 H   0  0  0  0  0  0
  -27.8756  -30.4327   23.9382 H   0  0  0  0  0  0
  -27.2678  -33.3634   26.2092 H   0  0  0  0  0  0
  -28.3848  -32.6928   25.0301 H   0  0  0  0  0  0
  -28.0770  -31.8471   26.5387 H   0  0  0  0  0  0
  -28.2590  -38.0114   24.7546 H   0  0  0  0  0  0
  -28.1105  -36.2651   24.6217 H   0  0  0  0  0  0
  -27.2327  -37.1373   25.8863 H   0  0  0  0  0  0
  -20.9345  -29.8787   21.6911 H   0  0  0  0  0  0
  -26.0182  -38.2872   24.1439 H   0  0  0  0  0  0
  -28.7100  -24.4200   17.8450 H   0  0  0  0  0  0
  -28.8027  -23.1643   15.6305 H   0  0  0  0  0  0
  -28.2328  -21.4982   15.8393 H   0  0  0  0  0  0
  -29.9715  -21.8324   15.6772 H   0  0  0  0  0  0
  -30.1689  -24.6180   20.8748 H   0  0  0  0  0  0
  -29.0759  -23.5645   21.6920 H   0  0  0  0  0  0
  -30.0356  -21.1987   21.5457 H   0  0  0  0  0  0
  -30.9639  -20.3367   20.3736 H   0  0  0  0  0  0
  -28.0333  -19.7077   20.4015 H   0  0  0  0  0  0
  -28.8367  -19.3240   21.8670 H   0  0  0  0  0  0
  -29.8752  -18.1283   19.2523 H   0  0  0  0  0  0
  -28.4542  -17.5174   20.0201 H   0  0  0  0  0  0
  -30.0615  -17.2821   22.1796 H   0  0  0  0  0  0
  -31.3059  -17.2052   20.9688 H   0  0  0  0  0  0
  -27.8408  -25.4513   21.7868 H   0  0  0  0  0  0
  -27.1716  -24.7594   20.3564 H   0  0  0  0  0  0
  -28.9691  -15.3340   21.2785 H   0  0  0  0  0  0
  1 25  1  0  0  0
  1 30  2  0  0  0
  1 83  1  0  0  0
  2  3  1  0  0  0
  2 25  1  0  0  0
  2 84  1  0  0  0
  2 85  1  0  0  0
  3  4  1  0  0  0
  3 86  1  0  0  0
  3 87  1  0  0  0
  4  5  1  0  0  0
  4 88  1  0  0  0
  4 89  1  0  0  0
  5  6  1  0  0  0
  5 26  1  0  0  0
  5 90  1  0  0  0
  6 25  1  0  0  0
  6 91  1  0  0  0
  6 92  1  0  0  0
  7  8  2  0  0  0
  7 26  1  0  0  0
  7 29  1  0  0  0
  8  9  1  0  0  0
  8 22  1  0  0  0
  9 10  1  0  0  0
  9 27  2  0  0  0
 10 11  2  0  0  0
 10 15  1  0  0  0
 11 12  1  0  0  0
 11 93  1  0  0  0
 12 13  2  0  0  0
 12 94  1  0  0  0
 13 14  1  0  0  0
 13 31  1  0  0  0
 14 15  2  0  0  0
 14 95  1  0  0  0
 15 96  1  0  0  0
 16 17  2  0  0  0
 16 21  1  0  0  0
 16 31  1  0  0  0
 17 18  1  0  0  0
 17 97  1  0  0  0
 18 19  2  0  0  0
 18 98  1  0  0  0
 19 20  1  0  0  0
 19 24  1  0  0  0
 20 21  2  0  0  0
 20 99  1  0  0  0
 21 23  1  0  0  0
 22 28  1  0  0  0
 22 32  2  0  0  0
 26 27  1  0  0  0
 28100  1  0  0  0
 28101  1  0  0  0
 29102  1  0  0  0
 29103  1  0  0  0
 33 34  1  0  0  0
 33 66  1  0  0  0
 33 70  2  0  0  0
 34 36  1  0  0  0
 34 59  1  0  0  0
 34104  1  0  0  0
 35 44  2  0  0  0
 35 45  1  0  0  0
 35 68  1  0  0  0
 36 56  1  0  0  0
 36105  1  0  0  0
 37 39  1  0  0  0
 37 47  1  0  0  0
 37 66  1  0  0  0
 37106  1  0  0  0
 38 43  2  0  0  0
 38 46  1  0  0  0
 38 47  1  0  0  0
 39 64  1  0  0  0
 39 67  2  0  0  0
 40 52  1  0  0  0
 40 53  2  0  0  0
 40 58  1  0  0  0
 41107  1  0  0  0
 41108  1  0  0  0
 41109  1  0  0  0
 41 48  1  0  0  0
 42 43  1  0  0  0
 42 66  1  0  0  0
 42110  1  0  0  0
 42111  1  0  0  0
 43 44  1  0  0  0
 44112  1  0  0  0
 45 46  2  0  0  0
 45113  1  0  0  0
 46114  1  0  0  0
 47115  1  0  0  0
 47116  1  0  0  0
 48 56  1  0  0  0
 48 65  1  0  0  0
 48117  1  0  0  0
 49 50  1  0  0  0
 49 53  1  0  0  0
 49 64  1  0  0  0
 49118  1  0  0  0
 50 51  1  0  0  0
 50119  1  0  0  0
 50120  1  0  0  0
 51 52  1  0  0  0
 51121  1  0  0  0
 51122  1  0  0  0
 52123  1  0  0  0
 52124  1  0  0  0
 53 54  1  0  0  0
 54 55  2  0  0  0
 54125  1  0  0  0
 55 57  1  0  0  0
 55126  1  0  0  0
 56 69  2  0  0  0
 57 58  2  0  0  0
 57127  1  0  0  0
 58128  1  0  0  0
 59 60  1  0  0  0
 59 61  1  0  0  0
 59 62  1  0  0  0
 60129  1  0  0  0
 60130  1  0  0  0
 60131  1  0  0  0
 61132  1  0  0  0
 61133  1  0  0  0
 61134  1  0  0  0
 62135  1  0  0  0
 62136  1  0  0  0
 62137  1  0  0  0
 63 65  1  0  0  0
 63138  1  0  0  0
 63139  1  0  0  0
 63140  1  0  0  0
 64141  1  0  0  0
 65142  1  0  0  0
 68 80  1  0  0  0
 71 72  2  0  0  0
 71 82  1  0  0  0
 71143  1  0  0  0
 72 73  1  0  0  0
 72 75  1  0  0  0
 73 76  1  0  0  0
 73 81  2  0  0  0
 74 82  1  0  0  0
 74144  1  0  0  0
 74145  1  0  0  0
 74146  1  0  0  0
 75 80  1  0  0  0
 75147  1  0  0  0
 75148  1  0  0  0
 76 77  1  0  0  0
 76149  1  0  0  0
 76150  1  0  0  0
 77 78  1  0  0  0
 77151  1  0  0  0
 77152  1  0  0  0
 78 79  1  0  0  0
 78153  1  0  0  0
 78154  1  0  0  0
 79 83  1  0  0  0
 79155  1  0  0  0
 79156  1  0  0  0
 80157  1  0  0  0
 80158  1  0  0  0
 81 82  1  0  0  0
 83159  1  0  0  0
M  ISO  4   1 100  68 101  80 101  83 100
M  END
> <chiral flag>
0

> <version>
0

> <s_m_source_file>
/data/baiqing/PycharmProjects/Reinvent-master-3.2/result/LINK_invent/BTK/process_docking_weight1_custom_sum_contain_oxygen_bond_distance_aromatic_linkinvent_7_9_3/rearranged_h_0041.sdf

> <i_m_source_file_index>
70

> <r_mmod_Potential_Energy-OPLS-2005>
-52.7254219055176

> <r_mmod_Stretch_Energy-OPLS-2005>
55.7667427062988

> <r_mmod_Bend_Energy-OPLS-2005>
124.183242797852

> <r_mmod_Torsional_Energy-OPLS-2005>
234.790481567383

> <r_mmod_Improper_Torsional_Energy-OPLS-2005>
3.82663726806641

> <r_mmod_Van_der_Waal_Energy-OPLS-2005>
119.202713012695

> <r_mmod_Electrostatic_Energy-OPLS-2005>
-395.9833984375

> <r_mmod_Solvation_Energy-OPLS-2005>
-224.041610717773

> <b_mmod_Minimization_Converged-OPLS-2005>
0

> <r_mmod_RMS_Derivative-OPLS-2005>
1.4744793176651

$$$$
70
                    3D
 Structure written by MMmdl.
161169  0  0  1  0            999 V2000
  -30.7058  -14.5288   20.5503 C   0  0  0  0  0  0
  -30.4253  -12.3362   19.4312 C   0  0  0  0  0  0
  -29.4988  -12.4992   18.2092 C   0  0  0  0  0  0
  -28.0265  -12.3348   18.6330 C   0  0  0  0  0  0
  -27.6591  -13.2081   19.8624 C   0  0  2  0  0  0
  -28.7054  -13.0457   20.9892 C   0  0  0  0  0  0
  -25.2607  -13.8157   20.5670 C   0  0  0  0  0  0
  -24.1846  -13.0446   20.9201 C   0  0  0  0  0  0
  -24.6392  -11.6905   20.8758 C   0  0  0  0  0  0
  -23.9047  -10.4303   21.0415 C   0  0  0  0  0  0
  -24.3610   -9.4225   21.9188 C   0  0  0  0  0  0
  -23.6290   -8.2252   22.0757 C   0  0  0  0  0  0
  -22.4270   -8.0287   21.3557 C   0  0  0  0  0  0
  -21.9904   -9.0261   20.4657 C   0  0  0  0  0  0
  -22.7227  -10.2144   20.3054 C   0  0  0  0  0  0
  -21.6857   -6.0731   22.5269 C   0  0  0  0  0  0
  -21.4039   -6.5633   23.8211 C   0  0  0  0  0  0
  -21.3673   -5.6773   24.9166 C   0  0  0  0  0  0
  -21.6035   -4.3039   24.7204 C   0  0  0  0  0  0
  -21.8821   -3.8139   23.4328 C   0  0  0  0  0  0
  -21.9206   -4.6957   22.3392 C   0  0  0  0  0  0
  -22.7876  -13.5263   21.1845 C   0  0  0  0  0  0
  -22.1657   -4.2142   21.0965 F   0  0  0  0  0  0
  -21.5629   -3.4527   25.7723 F   0  0  0  0  0  0
  -30.0275  -13.3522   20.4208 N   0  0  0  0  0  0
  -26.3023  -12.9313   20.3311 N   0  0  0  0  0  0
  -25.9327  -11.6481   20.5768 N   0  0  0  0  0  0
  -22.0472  -12.8288   22.0396 N   0  0  0  0  0  0
  -25.4365  -15.1865   20.4072 N   0  0  0  0  0  0
  -31.8551  -14.6807   20.1342 O   0  0  0  0  0  0
  -21.6648   -6.8882   21.4233 O   0  0  0  0  0  0
  -22.3579  -14.5573   20.6694 O   0  0  0  0  0  0
  -24.6200  -31.8659   23.2056 C   0  0  0  0  0  0
  -25.9066  -32.4813   23.8372 C   0  0  1  0  0  0
  -27.2416  -27.3883   20.0916 C   0  0  0  0  0  0
  -25.5907  -33.8608   24.2304 N   0  0  0  0  0  0
  -23.4095  -30.4890   21.5495 C   0  0  2  0  0  0
  -24.8573  -28.9497   20.1096 C   0  0  0  0  0  0
  -22.7442  -29.4646   22.4987 C   0  0  0  0  0  0
  -18.0281  -28.1373   22.8513 C   0  0  0  0  0  0
  -24.1476  -36.7293   23.2639 C   0  0  0  0  0  0
  -25.9432  -30.8125   21.3689 C   0  0  0  0  0  0
  -26.0194  -29.4445   20.7132 C   0  0  0  0  0  0
  -27.2083  -28.6719   20.7012 C   0  0  0  0  0  0
  -26.0562  -26.9281   19.4668 C   0  0  0  0  0  0
  -24.8737  -27.6927   19.4831 C   0  0  0  0  0  0
  -23.6194  -29.8222   20.1628 C   0  0  0  0  0  0
  -25.4104  -36.3112   24.0341 C   0  0  1  0  0  0
  -20.5874  -28.3673   23.1317 C   0  0  2  0  0  0
  -20.6770  -26.9405   22.5427 C   0  0  0  0  0  0
  -19.5743  -26.6387   21.5223 C   0  0  0  0  0  0
  -18.1924  -26.7931   22.1635 C   0  0  0  0  0  0
  -19.1527  -28.8839   23.2922 C   0  0  0  0  0  0
  -18.9461  -30.1441   23.8942 C   0  0  0  0  0  0
  -17.6457  -30.6589   24.0565 C   0  0  0  0  0  0
  -25.9047  -34.9474   23.5130 C   0  0  0  0  0  0
  -16.5352  -29.9097   23.6303 C   0  0  0  0  0  0
  -16.7272  -28.6497   23.0367 C   0  0  0  0  0  0
  -26.4467  -31.6599   25.0720 C   0  0  0  0  0  0
  -25.3704  -31.3721   26.1451 C   0  0  0  0  0  0
  -27.0294  -30.3041   24.6112 C   0  0  0  0  0  0
  -27.6076  -32.4304   25.7471 C   0  0  0  0  0  0
  -27.5576  -37.1807   24.8470 C   0  0  0  0  0  0
  -21.4157  -29.3045   22.3727 N   0  0  0  0  0  0
  -26.4289  -37.3803   23.9414 N   0  0  0  0  0  0
  -24.6767  -31.0705   22.0992 N   0  0  0  0  0  0
  -23.4199  -28.8211   23.3054 O   0  0  0  0  0  0
  -28.4155  -26.6376   20.1334 O   0  0  0  0  0  0
  -26.5619  -34.8942   22.4706 O   0  0  0  0  0  0
  -23.5373  -32.1442   23.7409 O   0  0  0  0  0  0
  -29.5527  -21.7453   20.4175 C   0  0  0  0  0  0
  -30.4339  -22.9361   18.5144 C   0  0  0  0  0  0
  -29.8113  -22.9890   19.7703 C   0  0  0  0  0  0
  -29.8612  -20.5106   19.7653 C   0  0  0  0  0  0
  -30.3940  -20.6056   18.4525 C   0  0  0  0  0  0
  -30.4449  -19.6259   16.0747 C   0  0  0  0  0  0
  -29.5268  -24.3795   20.3918 C   0  0  0  0  0  0
  -29.5512  -19.1385   20.4462 C   0  0  0  0  0  0
  -30.6540  -19.3837   17.5772 C   0  0  0  0  0  0
  -30.6938  -18.0551   20.5085 C   0  0  0  0  0  0
  -30.5483  -16.8714   21.5332 C   0  0  0  0  0  0
  -28.4336  -25.2515   19.6859 C   0  0  0  0  0  0
  -30.7246  -21.7860   17.8820 N   0  0  0  0  0  0
  -30.0058  -15.5724   21.0524 N   0  0  0  0  0  0
  -31.4711  -12.4248   19.1334 H   0  0  0  0  0  0
  -30.3205  -11.3375   19.8575 H   0  0  0  0  0  0
  -29.7552  -11.7697   17.4395 H   0  0  0  0  0  0
  -29.6465  -13.4826   17.7634 H   0  0  0  0  0  0
  -27.8768  -11.2824   18.8736 H   0  0  0  0  0  0
  -27.3626  -12.5555   17.7953 H   0  0  0  0  0  0
  -27.6867  -14.2460   19.5300 H   0  0  0  0  0  0
  -28.6958  -12.0252   21.3718 H   0  0  0  0  0  0
  -28.4647  -13.6842   21.8408 H   0  0  0  0  0  0
  -25.2738   -9.5713   22.4783 H   0  0  0  0  0  0
  -24.0000   -7.4644   22.7483 H   0  0  0  0  0  0
  -21.0838   -8.8793   19.8960 H   0  0  0  0  0  0
  -22.3687  -10.9696   19.6182 H   0  0  0  0  0  0
  -21.2034   -7.6140   23.9726 H   0  0  0  0  0  0
  -21.1497   -6.0495   25.9075 H   0  0  0  0  0  0
  -22.0593   -2.7601   23.2824 H   0  0  0  0  0  0
  -22.4022  -11.9931   22.4788 H   0  0  0  0  0  0
  -21.1099  -13.1381   22.2562 H   0  0  0  0  0  0
  -24.6809  -15.8510   20.5329 H   0  0  0  0  0  0
  -26.2750  -15.6131   20.0319 H   0  0  0  0  0  0
  -26.7144  -32.5495   23.1131 H   0  0  0  0  0  0
  -25.0044  -33.9766   25.0439 H   0  0  0  0  0  0
  -22.6996  -31.3070   21.4086 H   0  0  0  0  0  0
  -23.3755  -35.9609   23.3324 H   0  0  0  0  0  0
  -24.3568  -36.8888   22.2050 H   0  0  0  0  0  0
  -23.7197  -37.6493   23.6638 H   0  0  0  0  0  0
  -26.0635  -31.5764   20.5993 H   0  0  0  0  0  0
  -26.8288  -30.8623   21.9911 H   0  0  0  0  0  0
  -28.1032  -29.0549   21.1748 H   0  0  0  0  0  0
  -26.0153  -25.9808   18.9506 H   0  0  0  0  0  0
  -23.9856  -27.3073   18.9993 H   0  0  0  0  0  0
  -23.7268  -30.5991   19.4046 H   0  0  0  0  0  0
  -22.7417  -29.2469   19.8653 H   0  0  0  0  0  0
  -25.1273  -36.1988   25.0831 H   0  0  0  0  0  0
  -20.9966  -28.3243   24.1439 H   0  0  0  0  0  0
  -20.5665  -26.2290   23.3631 H   0  0  0  0  0  0
  -21.6648  -26.7448   22.1227 H   0  0  0  0  0  0
  -19.6914  -25.6298   21.1260 H   0  0  0  0  0  0
  -19.6687  -27.3201   20.6759 H   0  0  0  0  0  0
  -17.4209  -26.6706   21.4032 H   0  0  0  0  0  0
  -18.0314  -26.0055   22.9007 H   0  0  0  0  0  0
  -19.7934  -30.7240   24.2363 H   0  0  0  0  0  0
  -17.5013  -31.6279   24.5155 H   0  0  0  0  0  0
  -15.5356  -30.3030   23.7569 H   0  0  0  0  0  0
  -15.8674  -28.0809   22.7090 H   0  0  0  0  0  0
  -24.5896  -30.7060   25.7757 H   0  0  0  0  0  0
  -24.8868  -32.2883   26.4862 H   0  0  0  0  0  0
  -25.8023  -30.8901   27.0232 H   0  0  0  0  0  0
  -26.2846  -29.6831   24.1130 H   0  0  0  0  0  0
  -27.4027  -29.7256   25.4567 H   0  0  0  0  0  0
  -27.8701  -30.4363   23.9295 H   0  0  0  0  0  0
  -27.2743  -33.3624   26.2042 H   0  0  0  0  0  0
  -28.3875  -32.6824   25.0273 H   0  0  0  0  0  0
  -28.0746  -31.8417   26.5373 H   0  0  0  0  0  0
  -28.2623  -38.0078   24.7515 H   0  0  0  0  0  0
  -28.1050  -36.2625   24.6301 H   0  0  0  0  0  0
  -27.2313  -37.1457   25.8879 H   0  0  0  0  0  0
  -20.9326  -29.8751   21.6924 H   0  0  0  0  0  0
  -26.0189  -38.2890   24.1418 H   0  0  0  0  0  0
  -29.1171  -21.7401   21.4069 H   0  0  0  0  0  0
  -30.7120  -23.8437   17.9977 H   0  0  0  0  0  0
  -30.5059  -18.6874   15.5232 H   0  0  0  0  0  0
  -31.2047  -20.2940   15.6694 H   0  0  0  0  0  0
  -29.4674  -20.0736   15.8875 H   0  0  0  0  0  0
  -30.4700  -24.9273   20.3696 H   0  0  0  0  0  0
  -29.2750  -24.2678   21.4454 H   0  0  0  0  0  0
  -28.6789  -18.7053   19.9545 H   0  0  0  0  0  0
  -29.2341  -19.3453   21.4679 H   0  0  0  0  0  0
  -29.9519  -18.5955   17.8479 H   0  0  0  0  0  0
  -31.6601  -19.0052   17.7639 H   0  0  0  0  0  0
  -31.5996  -18.5885   20.8029 H   0  0  0  0  0  0
  -30.9215  -17.6392   19.5307 H   0  0  0  0  0  0
  -29.9550  -17.1956   22.3889 H   0  0  0  0  0  0
  -31.5375  -16.6611   21.9502 H   0  0  0  0  0  0
  -27.4790  -24.7525   19.8508 H   0  0  0  0  0  0
  -28.6085  -25.2620   18.6082 H   0  0  0  0  0  0
  -29.0426  -15.3704   21.2801 H   0  0  0  0  0  0
  1 25  1  0  0  0
  1 30  2  0  0  0
  1 84  1  0  0  0
  2  3  1  0  0  0
  2 25  1  0  0  0
  2 85  1  0  0  0
  2 86  1  0  0  0
  3  4  1  0  0  0
  3 87  1  0  0  0
  3 88  1  0  0  0
  4  5  1  0  0  0
  4 89  1  0  0  0
  4 90  1  0  0  0
  5  6  1  0  0  0
  5 26  1  0  0  0
  5 91  1  0  0  0
  6 25  1  0  0  0
  6 92  1  0  0  0
  6 93  1  0  0  0
  7  8  2  0  0  0
  7 26  1  0  0  0
  7 29  1  0  0  0
  8  9  1  0  0  0
  8 22  1  0  0  0
  9 10  1  0  0  0
  9 27  2  0  0  0
 10 11  2  0  0  0
 10 15  1  0  0  0
 11 12  1  0  0  0
 11 94  1  0  0  0
 12 13  2  0  0  0
 12 95  1  0  0  0
 13 14  1  0  0  0
 13 31  1  0  0  0
 14 15  2  0  0  0
 14 96  1  0  0  0
 15 97  1  0  0  0
 16 17  2  0  0  0
 16 21  1  0  0  0
 16 31  1  0  0  0
 17 18  1  0  0  0
 17 98  1  0  0  0
 18 19  2  0  0  0
 18 99  1  0  0  0
 19 20  1  0  0  0
 19 24  1  0  0  0
 20 21  2  0  0  0
 20100  1  0  0  0
 21 23  1  0  0  0
 22 28  1  0  0  0
 22 32  2  0  0  0
 26 27  1  0  0  0
 28101  1  0  0  0
 28102  1  0  0  0
 29103  1  0  0  0
 29104  1  0  0  0
 33 34  1  0  0  0
 33 66  1  0  0  0
 33 70  2  0  0  0
 34 36  1  0  0  0
 34 59  1  0  0  0
 34105  1  0  0  0
 35 44  2  0  0  0
 35 45  1  0  0  0
 35 68  1  0  0  0
 36 56  1  0  0  0
 36106  1  0  0  0
 37 39  1  0  0  0
 37 47  1  0  0  0
 37 66  1  0  0  0
 37107  1  0  0  0
 38 43  2  0  0  0
 38 46  1  0  0  0
 38 47  1  0  0  0
 39 64  1  0  0  0
 39 67  2  0  0  0
 40 52  1  0  0  0
 40 53  2  0  0  0
 40 58  1  0  0  0
 41108  1  0  0  0
 41109  1  0  0  0
 41110  1  0  0  0
 41 48  1  0  0  0
 42 43  1  0  0  0
 42 66  1  0  0  0
 42111  1  0  0  0
 42112  1  0  0  0
 43 44  1  0  0  0
 44113  1  0  0  0
 45 46  2  0  0  0
 45114  1  0  0  0
 46115  1  0  0  0
 47116  1  0  0  0
 47117  1  0  0  0
 48 56  1  0  0  0
 48 65  1  0  0  0
 48118  1  0  0  0
 49 50  1  0  0  0
 49 53  1  0  0  0
 49 64  1  0  0  0
 49119  1  0  0  0
 50 51  1  0  0  0
 50120  1  0  0  0
 50121  1  0  0  0
 51 52  1  0  0  0
 51122  1  0  0  0
 51123  1  0  0  0
 52124  1  0  0  0
 52125  1  0  0  0
 53 54  1  0  0  0
 54 55  2  0  0  0
 54126  1  0  0  0
 55 57  1  0  0  0
 55127  1  0  0  0
 56 69  2  0  0  0
 57 58  2  0  0  0
 57128  1  0  0  0
 58129  1  0  0  0
 59 60  1  0  0  0
 59 61  1  0  0  0
 59 62  1  0  0  0
 60130  1  0  0  0
 60131  1  0  0  0
 60132  1  0  0  0
 61133  1  0  0  0
 61134  1  0  0  0
 61135  1  0  0  0
 62136  1  0  0  0
 62137  1  0  0  0
 62138  1  0  0  0
 63 65  1  0  0  0
 63139  1  0  0  0
 63140  1  0  0  0
 63141  1  0  0  0
 64142  1  0  0  0
 65143  1  0  0  0
 68 82  1  0  0  0
 71 73  2  0  0  0
 71 74  1  0  0  0
 71144  1  0  0  0
 72 73  1  0  0  0
 72 83  2  0  0  0
 72145  1  0  0  0
 73 77  1  0  0  0
 74 75  2  0  0  0
 74 78  1  0  0  0
 75 79  1  0  0  0
 75 83  1  0  0  0
 76 79  1  0  0  0
 76146  1  0  0  0
 76147  1  0  0  0
 76148  1  0  0  0
 77 82  1  0  0  0
 77149  1  0  0  0
 77150  1  0  0  0
 78 80  1  0  0  0
 78151  1  0  0  0
 78152  1  0  0  0
 79153  1  0  0  0
 79154  1  0  0  0
 80 81  1  0  0  0
 80155  1  0  0  0
 80156  1  0  0  0
 81 84  1  0  0  0
 81157  1  0  0  0
 81158  1  0  0  0
 82159  1  0  0  0
 82160  1  0  0  0
 84161  1  0  0  0
M  ISO  4   1 100  68 101  82 101  84 100
M  END
> <chiral flag>
0

> <version>
0

> <s_m_source_file>
/data/baiqing/PycharmProjects/Reinvent-master-3.2/result/LINK_invent/BTK/process_docking_weight1_custom_sum_contain_oxygen_bond_distance_aromatic_linkinvent_7_9_3/rearranged_h_0041.sdf

> <i_m_source_file_index>
71

> <r_mmod_Potential_Energy-OPLS-2005>
-187.18782043457

> <r_mmod_Stretch_Energy-OPLS-2005>
55.0124206542969

> <r_mmod_Bend_Energy-OPLS-2005>
121.956489562988

> <r_mmod_Torsional_Energy-OPLS-2005>
207.729415893555

> <r_mmod_Improper_Torsional_Energy-OPLS-2005>
3.33454132080078

> <r_mmod_Van_der_Waal_Energy-OPLS-2005>
155.090744018555

> <r_mmod_Electrostatic_Energy-OPLS-2005>
-530.409851074219

> <r_mmod_Solvation_Energy-OPLS-2005>
-222.669952392578

> <b_mmod_Minimization_Converged-OPLS-2005>
0

> <r_mmod_RMS_Derivative-OPLS-2005>
3.34641003608704

$$$$
71
                    3D
 Structure written by MMmdl.
156164  0  0  1  0            999 V2000
  -30.7009  -14.4049   20.6108 C   0  0  0  0  0  0
  -30.4248  -12.2690   19.4248 C   0  0  0  0  0  0
  -29.4983  -12.5103   18.2148 C   0  0  0  0  0  0
  -28.0156  -12.3835   18.6173 C   0  0  0  0  0  0
  -27.6724  -13.1955   19.8927 C   0  0  2  0  0  0
  -28.7069  -12.9258   21.0146 C   0  0  0  0  0  0
  -25.2608  -13.8154   20.5679 C   0  0  0  0  0  0
  -24.1851  -13.0440   20.9177 C   0  0  0  0  0  0
  -24.6370  -11.6910   20.8726 C   0  0  0  0  0  0
  -23.9028  -10.4305   21.0370 C   0  0  0  0  0  0
  -24.3583   -9.4231   21.9150 C   0  0  0  0  0  0
  -23.6284   -8.2266   22.0720 C   0  0  0  0  0  0
  -22.4273   -8.0283   21.3533 C   0  0  0  0  0  0
  -21.9879   -9.0244   20.4623 C   0  0  0  0  0  0
  -22.7183  -10.2135   20.3016 C   0  0  0  0  0  0
  -21.6871   -6.0724   22.5274 C   0  0  0  0  0  0
  -21.4026   -6.5623   23.8216 C   0  0  0  0  0  0
  -21.3657   -5.6783   24.9169 C   0  0  0  0  0  0
  -21.6048   -4.3041   24.7226 C   0  0  0  0  0  0
  -21.8829   -3.8129   23.4351 C   0  0  0  0  0  0
  -21.9206   -4.6958   22.3393 C   0  0  0  0  0  0
  -22.7898  -13.5260   21.1842 C   0  0  0  0  0  0
  -22.1678   -4.2142   21.0976 F   0  0  0  0  0  0
  -21.5624   -3.4519   25.7731 F   0  0  0  0  0  0
  -30.0556  -13.2200   20.4803 N   0  0  0  0  0  0
  -26.3043  -12.9309   20.3425 N   0  0  0  0  0  0
  -25.9299  -11.6467   20.5771 N   0  0  0  0  0  0
  -22.0536  -12.8246   22.0383 N   0  0  0  0  0  0
  -25.4352  -15.1864   20.4110 N   0  0  0  0  0  0
  -31.7786  -14.6756   20.0729 O   0  0  0  0  0  0
  -21.6652   -6.8855   21.4234 O   0  0  0  0  0  0
  -22.3585  -14.5557   20.6677 O   0  0  0  0  0  0
  -24.6125  -31.8650   23.2104 C   0  0  0  0  0  0
  -25.9044  -32.4821   23.8382 C   0  0  1  0  0  0
  -27.2553  -27.4553   20.0845 C   0  0  0  0  0  0
  -25.5912  -33.8598   24.2325 N   0  0  0  0  0  0
  -23.4022  -30.4881   21.5477 C   0  0  2  0  0  0
  -24.8517  -28.9429   20.1238 C   0  0  0  0  0  0
  -22.7391  -29.4675   22.5004 C   0  0  0  0  0  0
  -18.0283  -28.1364   22.8513 C   0  0  0  0  0  0
  -24.1480  -36.7308   23.2633 C   0  0  0  0  0  0
  -25.9286  -30.8316   21.3633 C   0  0  0  0  0  0
  -26.0102  -29.4633   20.7176 C   0  0  0  0  0  0
  -27.2152  -28.7274   20.6949 C   0  0  0  0  0  0
  -26.0840  -26.9335   19.5017 C   0  0  0  0  0  0
  -24.8808  -27.6711   19.5211 C   0  0  0  0  0  0
  -23.6132  -29.8112   20.1668 C   0  0  0  0  0  0
  -25.4113  -36.3094   24.0333 C   0  0  1  0  0  0
  -20.5855  -28.3657   23.1309 C   0  0  2  0  0  0
  -20.6756  -26.9412   22.5342 C   0  0  0  0  0  0
  -19.5712  -26.6434   21.5145 C   0  0  0  0  0  0
  -18.1910  -26.7928   22.1604 C   0  0  0  0  0  0
  -19.1519  -28.8824   23.2915 C   0  0  0  0  0  0
  -18.9451  -30.1445   23.8938 C   0  0  0  0  0  0
  -17.6471  -30.6572   24.0592 C   0  0  0  0  0  0
  -25.9035  -34.9470   23.5130 C   0  0  0  0  0  0
  -16.5354  -29.9084   23.6327 C   0  0  0  0  0  0
  -16.7270  -28.6508   23.0348 C   0  0  0  0  0  0
  -26.4484  -31.6595   25.0692 C   0  0  0  0  0  0
  -25.3796  -31.3670   26.1469 C   0  0  0  0  0  0
  -27.0290  -30.3026   24.6047 C   0  0  0  0  0  0
  -27.6064  -32.4294   25.7448 C   0  0  0  0  0  0
  -27.5583  -37.1809   24.8478 C   0  0  0  0  0  0
  -21.4129  -29.3046   22.3729 N   0  0  0  0  0  0
  -26.4305  -37.3795   23.9413 N   0  0  0  0  0  0
  -24.6650  -31.0773   22.0991 N   0  0  0  0  0  0
  -23.4166  -28.8243   23.3067 O   0  0  0  0  0  0
  -28.4329  -26.7528   19.9872 O   0  0  0  0  0  0
  -26.5604  -34.8931   22.4680 O   0  0  0  0  0  0
  -23.5309  -32.1438   23.7498 O   0  0  0  0  0  0
  -29.8622  -20.0975   19.8148 C   0  0  0  0  0  0
  -28.3399  -20.9369   21.1411 C   0  0  0  0  0  0
  -28.6773  -19.7598   20.5307 C   0  0  0  0  0  0
  -27.9295  -18.4478   20.5803 C   0  0  0  0  0  0
  -28.5880  -17.3351   21.4181 C   0  0  0  0  0  0
  -28.9912  -24.3476   20.2312 C   0  0  0  0  0  0
  -29.3663  -23.2649   21.2710 C   0  0  0  0  0  0
  -29.8459  -16.7120   20.7875 C   0  0  0  0  0  0
  -28.6006  -25.6807   20.9151 C   0  0  0  0  0  0
  -30.2170  -21.3703   19.9736 N   0  0  0  0  0  0
  -29.2754  -21.8886   20.7959 N   0  0  0  0  0  0
  -29.9718  -15.3294   21.2403 N   0  0  0  0  0  0
  -31.4705  -12.3661   19.1343 H   0  0  0  0  0  0
  -30.3189  -11.2530   19.7994 H   0  0  0  0  0  0
  -29.7356  -11.8091   17.4130 H   0  0  0  0  0  0
  -29.6832  -13.5039   17.8076 H   0  0  0  0  0  0
  -27.8060  -11.3239   18.7814 H   0  0  0  0  0  0
  -27.3745  -12.6945   17.7933 H   0  0  0  0  0  0
  -27.7294  -14.2520   19.6244 H   0  0  0  0  0  0
  -28.6627  -11.8834   21.3276 H   0  0  0  0  0  0
  -28.4603  -13.5025   21.9096 H   0  0  0  0  0  0
  -25.2718   -9.5768   22.4726 H   0  0  0  0  0  0
  -24.0037   -7.4653   22.7415 H   0  0  0  0  0  0
  -21.0828   -8.8717   19.8920 H   0  0  0  0  0  0
  -22.3603  -10.9661   19.6133 H   0  0  0  0  0  0
  -21.2024   -7.6136   23.9719 H   0  0  0  0  0  0
  -21.1465   -6.0501   25.9085 H   0  0  0  0  0  0
  -22.0610   -2.7593   23.2841 H   0  0  0  0  0  0
  -22.4187  -11.9929   22.4773 H   0  0  0  0  0  0
  -21.1137  -13.1228   22.2578 H   0  0  0  0  0  0
  -24.6641  -15.8361   20.5059 H   0  0  0  0  0  0
  -26.2855  -15.6223   20.0794 H   0  0  0  0  0  0
  -26.7120  -32.5526   23.1131 H   0  0  0  0  0  0
  -25.0114  -33.9776   25.0511 H   0  0  0  0  0  0
  -22.6911  -31.3025   21.4028 H   0  0  0  0  0  0
  -23.3731  -35.9646   23.3319 H   0  0  0  0  0  0
  -24.3588  -36.8897   22.2046 H   0  0  0  0  0  0
  -23.7244  -37.6528   23.6634 H   0  0  0  0  0  0
  -26.0339  -31.5928   20.5892 H   0  0  0  0  0  0
  -26.8181  -30.8899   21.9779 H   0  0  0  0  0  0
  -28.1153  -29.1395   21.1328 H   0  0  0  0  0  0
  -26.1092  -25.9673   19.0182 H   0  0  0  0  0  0
  -23.9970  -27.2574   19.0564 H   0  0  0  0  0  0
  -23.7285  -30.5806   19.4036 H   0  0  0  0  0  0
  -22.7365  -29.2330   19.8720 H   0  0  0  0  0  0
  -25.1273  -36.1967   25.0835 H   0  0  0  0  0  0
  -20.9976  -28.3187   24.1414 H   0  0  0  0  0  0
  -20.5632  -26.2260   23.3502 H   0  0  0  0  0  0
  -21.6626  -26.7485   22.1123 H   0  0  0  0  0  0
  -19.6870  -25.6360   21.1095 H   0  0  0  0  0  0
  -19.6579  -27.3288   20.6698 H   0  0  0  0  0  0
  -17.4176  -26.6749   21.4005 H   0  0  0  0  0  0
  -18.0345  -26.0003   22.8923 H   0  0  0  0  0  0
  -19.7924  -30.7244   24.2313 H   0  0  0  0  0  0
  -17.5026  -31.6233   24.5204 H   0  0  0  0  0  0
  -15.5354  -30.3003   23.7637 H   0  0  0  0  0  0
  -15.8671  -28.0826   22.7034 H   0  0  0  0  0  0
  -24.5976  -30.6985   25.7853 H   0  0  0  0  0  0
  -24.8978  -32.2808   26.4939 H   0  0  0  0  0  0
  -25.8207  -30.8855   27.0211 H   0  0  0  0  0  0
  -26.2798  -29.6773   24.1157 H   0  0  0  0  0  0
  -27.4140  -29.7242   25.4469 H   0  0  0  0  0  0
  -27.8613  -30.4318   23.9113 H   0  0  0  0  0  0
  -27.2688  -33.3578   26.2048 H   0  0  0  0  0  0
  -28.3864  -32.6877   25.0280 H   0  0  0  0  0  0
  -28.0750  -31.8410   26.5346 H   0  0  0  0  0  0
  -28.2613  -38.0083   24.7503 H   0  0  0  0  0  0
  -28.1054  -36.2625   24.6318 H   0  0  0  0  0  0
  -27.2310  -37.1492   25.8880 H   0  0  0  0  0  0
  -20.9270  -29.8776   21.6968 H   0  0  0  0  0  0
  -26.0175  -38.2865   24.1407 H   0  0  0  0  0  0
  -30.4701  -19.4603   19.1852 H   0  0  0  0  0  0
  -27.5102  -21.1708   21.7935 H   0  0  0  0  0  0
  -27.7413  -18.0729   19.5753 H   0  0  0  0  0  0
  -26.9392  -18.6188   21.0068 H   0  0  0  0  0  0
  -27.8311  -16.5538   21.5198 H   0  0  0  0  0  0
  -28.8076  -17.6768   22.4301 H   0  0  0  0  0  0
  -28.1677  -24.0083   19.6026 H   0  0  0  0  0  0
  -29.8421  -24.5025   19.5673 H   0  0  0  0  0  0
  -28.7169  -23.3507   22.1431 H   0  0  0  0  0  0
  -30.3772  -23.4346   21.6418 H   0  0  0  0  0  0
  -30.7489  -17.2857   21.0041 H   0  0  0  0  0  0
  -29.7472  -16.7051   19.6994 H   0  0  0  0  0  0
  -27.7098  -25.5317   21.5279 H   0  0  0  0  0  0
  -29.3923  -25.9785   21.6026 H   0  0  0  0  0  0
  -29.1812  -14.9529   21.7412 H   0  0  0  0  0  0
  1 25  1  0  0  0
  1 30  2  0  0  0
  1 82  1  0  0  0
  2  3  1  0  0  0
  2 25  1  0  0  0
  2 83  1  0  0  0
  2 84  1  0  0  0
  3  4  1  0  0  0
  3 85  1  0  0  0
  3 86  1  0  0  0
  4  5  1  0  0  0
  4 87  1  0  0  0
  4 88  1  0  0  0
  5  6  1  0  0  0
  5 26  1  0  0  0
  5 89  1  0  0  0
  6 25  1  0  0  0
  6 90  1  0  0  0
  6 91  1  0  0  0
  7  8  2  0  0  0
  7 26  1  0  0  0
  7 29  1  0  0  0
  8  9  1  0  0  0
  8 22  1  0  0  0
  9 10  1  0  0  0
  9 27  2  0  0  0
 10 11  2  0  0  0
 10 15  1  0  0  0
 11 12  1  0  0  0
 11 92  1  0  0  0
 12 13  2  0  0  0
 12 93  1  0  0  0
 13 14  1  0  0  0
 13 31  1  0  0  0
 14 15  2  0  0  0
 14 94  1  0  0  0
 15 95  1  0  0  0
 16 17  2  0  0  0
 16 21  1  0  0  0
 16 31  1  0  0  0
 17 18  1  0  0  0
 17 96  1  0  0  0
 18 19  2  0  0  0
 18 97  1  0  0  0
 19 20  1  0  0  0
 19 24  1  0  0  0
 20 21  2  0  0  0
 20 98  1  0  0  0
 21 23  1  0  0  0
 22 28  1  0  0  0
 22 32  2  0  0  0
 26 27  1  0  0  0
 28 99  1  0  0  0
 28100  1  0  0  0
 29101  1  0  0  0
 29102  1  0  0  0
 33 34  1  0  0  0
 33 66  1  0  0  0
 33 70  2  0  0  0
 34 36  1  0  0  0
 34 59  1  0  0  0
 34103  1  0  0  0
 35 44  2  0  0  0
 35 45  1  0  0  0
 35 68  1  0  0  0
 36 56  1  0  0  0
 36104  1  0  0  0
 37 39  1  0  0  0
 37 47  1  0  0  0
 37 66  1  0  0  0
 37105  1  0  0  0
 38 43  2  0  0  0
 38 46  1  0  0  0
 38 47  1  0  0  0
 39 64  1  0  0  0
 39 67  2  0  0  0
 40 52  1  0  0  0
 40 53  2  0  0  0
 40 58  1  0  0  0
 41106  1  0  0  0
 41107  1  0  0  0
 41108  1  0  0  0
 41 48  1  0  0  0
 42 43  1  0  0  0
 42 66  1  0  0  0
 42109  1  0  0  0
 42110  1  0  0  0
 43 44  1  0  0  0
 44111  1  0  0  0
 45 46  2  0  0  0
 45112  1  0  0  0
 46113  1  0  0  0
 47114  1  0  0  0
 47115  1  0  0  0
 48 56  1  0  0  0
 48 65  1  0  0  0
 48116  1  0  0  0
 49 50  1  0  0  0
 49 53  1  0  0  0
 49 64  1  0  0  0
 49117  1  0  0  0
 50 51  1  0  0  0
 50118  1  0  0  0
 50119  1  0  0  0
 51 52  1  0  0  0
 51120  1  0  0  0
 51121  1  0  0  0
 52122  1  0  0  0
 52123  1  0  0  0
 53 54  1  0  0  0
 54 55  2  0  0  0
 54124  1  0  0  0
 55 57  1  0  0  0
 55125  1  0  0  0
 56 69  2  0  0  0
 57 58  2  0  0  0
 57126  1  0  0  0
 58127  1  0  0  0
 59 60  1  0  0  0
 59 61  1  0  0  0
 59 62  1  0  0  0
 60128  1  0  0  0
 60129  1  0  0  0
 60130  1  0  0  0
 61131  1  0  0  0
 61132  1  0  0  0
 61133  1  0  0  0
 62134  1  0  0  0
 62135  1  0  0  0
 62136  1  0  0  0
 63 65  1  0  0  0
 63137  1  0  0  0
 63138  1  0  0  0
 63139  1  0  0  0
 64140  1  0  0  0
 65141  1  0  0  0
 68 79  1  0  0  0
 71 73  1  0  0  0
 71 80  2  0  0  0
 71142  1  0  0  0
 72 73  2  0  0  0
 72 81  1  0  0  0
 72143  1  0  0  0
 73 74  1  0  0  0
 74 75  1  0  0  0
 74144  1  0  0  0
 74145  1  0  0  0
 75 78  1  0  0  0
 75146  1  0  0  0
 75147  1  0  0  0
 76 77  1  0  0  0
 76 79  1  0  0  0
 76148  1  0  0  0
 76149  1  0  0  0
 77 81  1  0  0  0
 77150  1  0  0  0
 77151  1  0  0  0
 78 82  1  0  0  0
 78152  1  0  0  0
 78153  1  0  0  0
 79154  1  0  0  0
 79155  1  0  0  0
 80 81  1  0  0  0
 82156  1  0  0  0
M  ISO  4   1 100  68 101  79 101  82 100
M  END
> <chiral flag>
0

> <version>
0

> <s_m_source_file>
/data/baiqing/PycharmProjects/Reinvent-master-3.2/result/LINK_invent/BTK/process_docking_weight1_custom_sum_contain_oxygen_bond_distance_aromatic_linkinvent_7_9_3/rearranged_h_0041.sdf

> <i_m_source_file_index>
72

> <r_mmod_Potential_Energy-OPLS-2005>
-85.5117492675781

> <r_mmod_Stretch_Energy-OPLS-2005>
31.7906112670898

> <r_mmod_Bend_Energy-OPLS-2005>
89.7678146362305

> <r_mmod_Torsional_Energy-OPLS-2005>
258.974090576172

> <r_mmod_Improper_Torsional_Energy-OPLS-2005>
6.39914989471436

> <r_mmod_Van_der_Waal_Energy-OPLS-2005>
120.592559814453

> <r_mmod_Electrostatic_Energy-OPLS-2005>
-370.856140136719

> <r_mmod_Solvation_Energy-OPLS-2005>
-230.207000732422

> <b_mmod_Minimization_Converged-OPLS-2005>
0

> <r_mmod_RMS_Derivative-OPLS-2005>
6.56969404220581

$$$$
72
                    3D
 Structure written by MMmdl.
154162  0  0  1  0            999 V2000
  -30.6542  -14.6339   20.5068 C   0  0  0  0  0  0
  -30.4243  -12.3922   19.4566 C   0  0  0  0  0  0
  -29.4989  -12.4942   18.2256 C   0  0  0  0  0  0
  -28.0245  -12.3327   18.6425 C   0  0  0  0  0  0
  -27.6456  -13.2211   19.8570 C   0  0  2  0  0  0
  -28.6893  -13.1094   20.9904 C   0  0  0  0  0  0
  -25.2523  -13.8183   20.5693 C   0  0  0  0  0  0
  -24.1798  -13.0432   20.9189 C   0  0  0  0  0  0
  -24.6374  -11.6905   20.8738 C   0  0  0  0  0  0
  -23.9047  -10.4286   21.0404 C   0  0  0  0  0  0
  -24.3602   -9.4203   21.9182 C   0  0  0  0  0  0
  -23.6281   -8.2235   22.0756 C   0  0  0  0  0  0
  -22.4270   -8.0271   21.3543 C   0  0  0  0  0  0
  -21.9898   -9.0239   20.4643 C   0  0  0  0  0  0
  -22.7219  -10.2121   20.3049 C   0  0  0  0  0  0
  -21.6858   -6.0722   22.5271 C   0  0  0  0  0  0
  -21.4013   -6.5630   23.8201 C   0  0  0  0  0  0
  -21.3659   -5.6789   24.9168 C   0  0  0  0  0  0
  -21.6051   -4.3053   24.7227 C   0  0  0  0  0  0
  -21.8813   -3.8136   23.4349 C   0  0  0  0  0  0
  -21.9191   -4.6949   22.3401 C   0  0  0  0  0  0
  -22.7822  -13.5213   21.1864 C   0  0  0  0  0  0
  -22.1659   -4.2127   21.0982 F   0  0  0  0  0  0
  -21.5633   -3.4541   25.7746 F   0  0  0  0  0  0
  -30.0003  -13.4344   20.4150 N   0  0  0  0  0  0
  -26.2947  -12.9367   20.3304 N   0  0  0  0  0  0
  -25.9303  -11.6519   20.5762 N   0  0  0  0  0  0
  -22.0488  -12.8192   22.0431 N   0  0  0  0  0  0
  -25.4227  -15.1910   20.4130 N   0  0  0  0  0  0
  -31.8293  -14.7431   20.1492 O   0  0  0  0  0  0
  -21.6638   -6.8865   21.4235 O   0  0  0  0  0  0
  -22.3496  -14.5529   20.6737 O   0  0  0  0  0  0
  -24.6256  -31.8602   23.2017 C   0  0  0  0  0  0
  -25.9111  -32.4785   23.8335 C   0  0  1  0  0  0
  -27.2276  -27.3206   20.1109 C   0  0  0  0  0  0
  -25.5938  -33.8585   24.2264 N   0  0  0  0  0  0
  -23.4186  -30.4815   21.5459 C   0  0  2  0  0  0
  -24.8639  -28.9382   20.1082 C   0  0  0  0  0  0
  -22.7485  -29.4613   22.4961 C   0  0  0  0  0  0
  -18.0284  -28.1393   22.8498 C   0  0  0  0  0  0
  -24.1486  -36.7273   23.2642 C   0  0  0  0  0  0
  -25.9582  -30.7903   21.3719 C   0  0  0  0  0  0
  -26.0305  -29.4167   20.7158 C   0  0  0  0  0  0
  -27.2097  -28.6171   20.7127 C   0  0  0  0  0  0
  -26.0278  -26.8823   19.5038 C   0  0  0  0  0  0
  -24.8653  -27.6759   19.4952 C   0  0  0  0  0  0
  -23.6297  -29.8148   20.1602 C   0  0  0  0  0  0
  -25.4111  -36.3079   24.0327 C   0  0  1  0  0  0
  -20.5885  -28.3681   23.1308 C   0  0  2  0  0  0
  -20.6780  -26.9408   22.5418 C   0  0  0  0  0  0
  -19.5744  -26.6381   21.5237 C   0  0  0  0  0  0
  -18.1921  -26.7940   22.1634 C   0  0  0  0  0  0
  -19.1538  -28.8858   23.2897 C   0  0  0  0  0  0
  -18.9465  -30.1472   23.8895 C   0  0  0  0  0  0
  -17.6466  -30.6602   24.0566 C   0  0  0  0  0  0
  -25.9057  -34.9460   23.5093 C   0  0  0  0  0  0
  -16.5352  -29.9094   23.6348 C   0  0  0  0  0  0
  -16.7268  -28.6515   23.0363 C   0  0  0  0  0  0
  -26.4492  -31.6611   25.0712 C   0  0  0  0  0  0
  -25.3719  -31.3750   26.1439 C   0  0  0  0  0  0
  -27.0360  -30.3057   24.6146 C   0  0  0  0  0  0
  -27.6043  -32.4364   25.7482 C   0  0  0  0  0  0
  -27.5572  -37.1789   24.8469 C   0  0  0  0  0  0
  -21.4206  -29.3040   22.3726 N   0  0  0  0  0  0
  -26.4287  -37.3776   23.9417 N   0  0  0  0  0  0
  -24.6863  -31.0609   22.0967 N   0  0  0  0  0  0
  -23.4227  -28.8156   23.3027 O   0  0  0  0  0  0
  -28.3648  -26.5024   20.1838 O   0  0  0  0  0  0
  -26.5618  -34.8933   22.4655 O   0  0  0  0  0  0
  -23.5424  -32.1401   23.7348 O   0  0  0  0  0  0
  -29.8937  -22.3571   21.2351 C   0  0  0  0  0  0
  -29.4967  -21.2273   20.4733 C   0  0  0  0  0  0
  -28.6044  -21.5616   19.4298 C   0  0  0  0  0  0
  -28.7129  -23.8568   19.9161 C   0  0  0  0  0  0
  -28.0609  -20.5217   18.4729 C   0  0  0  0  0  0
  -30.1971  -19.8248   20.6911 C   0  0  0  0  0  0
  -28.5332  -25.3121   19.3255 C   0  0  0  0  0  0
  -29.4628  -18.4073   20.6970 C   0  0  0  0  0  0
  -30.4481  -17.1643   20.8962 C   0  0  0  0  0  0
  -29.5224  -23.6393   20.9558 N   0  0  0  0  0  0
  -28.2296  -22.8462   19.1786 N   0  0  0  0  0  0
  -29.9227  -15.7519   20.8228 N   0  0  0  0  0  0
  -31.4667  -12.5026   19.1528 H   0  0  0  0  0  0
  -30.3496  -11.4046   19.9150 H   0  0  0  0  0  0
  -29.7632  -11.7342   17.4897 H   0  0  0  0  0  0
  -29.6388  -13.4586   17.7349 H   0  0  0  0  0  0
  -27.8708  -11.2823   18.8951 H   0  0  0  0  0  0
  -27.3648  -12.5409   17.7999 H   0  0  0  0  0  0
  -27.6558  -14.2497   19.4961 H   0  0  0  0  0  0
  -28.7009  -12.1017   21.4074 H   0  0  0  0  0  0
  -28.4387  -13.7768   21.8170 H   0  0  0  0  0  0
  -25.2748   -9.5682   22.4754 H   0  0  0  0  0  0
  -23.9988   -7.4635   22.7482 H   0  0  0  0  0  0
  -21.0823   -8.8745   19.8956 H   0  0  0  0  0  0
  -22.3669  -10.9652   19.6151 H   0  0  0  0  0  0
  -21.2002   -7.6138   23.9693 H   0  0  0  0  0  0
  -21.1493   -6.0530   25.9071 H   0  0  0  0  0  0
  -22.0594   -2.7596   23.2861 H   0  0  0  0  0  0
  -22.4120  -11.9830   22.4759 H   0  0  0  0  0  0
  -21.1117  -13.1206   22.2694 H   0  0  0  0  0  0
  -24.6570  -15.8463   20.5307 H   0  0  0  0  0  0
  -26.2719  -15.6322   20.0828 H   0  0  0  0  0  0
  -26.7164  -32.5444   23.1074 H   0  0  0  0  0  0
  -25.0162  -33.9730   25.0466 H   0  0  0  0  0  0
  -22.7120  -31.3019   21.4041 H   0  0  0  0  0  0
  -23.3771  -35.9588   23.3306 H   0  0  0  0  0  0
  -24.3580  -36.8895   22.2062 H   0  0  0  0  0  0
  -23.7217  -37.6466   23.6663 H   0  0  0  0  0  0
  -26.0874  -31.5518   20.6017 H   0  0  0  0  0  0
  -26.8404  -30.8384   21.9984 H   0  0  0  0  0  0
  -28.1038  -28.9831   21.1980 H   0  0  0  0  0  0
  -25.9365  -25.9019   19.0622 H   0  0  0  0  0  0
  -23.9661  -27.2966   19.0302 H   0  0  0  0  0  0
  -23.7388  -30.5905   19.4016 H   0  0  0  0  0  0
  -22.7510  -29.2398   19.8634 H   0  0  0  0  0  0
  -25.1290  -36.1927   25.0821 H   0  0  0  0  0  0
  -20.9964  -28.3228   24.1435 H   0  0  0  0  0  0
  -20.5737  -26.2273   23.3608 H   0  0  0  0  0  0
  -21.6637  -26.7466   22.1175 H   0  0  0  0  0  0
  -19.6912  -25.6294   21.1266 H   0  0  0  0  0  0
  -19.6693  -27.3203   20.6779 H   0  0  0  0  0  0
  -17.4205  -26.6733   21.4018 H   0  0  0  0  0  0
  -18.0276  -26.0070   22.9007 H   0  0  0  0  0  0
  -19.7946  -30.7303   24.2250 H   0  0  0  0  0  0
  -17.5017  -31.6286   24.5159 H   0  0  0  0  0  0
  -15.5360  -30.2993   23.7685 H   0  0  0  0  0  0
  -15.8664  -28.0839   22.7072 H   0  0  0  0  0  0
  -24.5896  -30.7093   25.7761 H   0  0  0  0  0  0
  -24.8907  -32.2922   26.4839 H   0  0  0  0  0  0
  -25.8035  -30.8943   27.0226 H   0  0  0  0  0  0
  -26.2936  -29.6802   24.1177 H   0  0  0  0  0  0
  -27.4120  -29.7301   25.4612 H   0  0  0  0  0  0
  -27.8756  -30.4392   23.9323 H   0  0  0  0  0  0
  -27.2649  -33.3685   26.2007 H   0  0  0  0  0  0
  -28.3871  -32.6904   25.0324 H   0  0  0  0  0  0
  -28.0685  -31.8535   26.5448 H   0  0  0  0  0  0
  -28.2582  -38.0100   24.7544 H   0  0  0  0  0  0
  -28.1085  -36.2632   24.6259 H   0  0  0  0  0  0
  -27.2298  -37.1383   25.8878 H   0  0  0  0  0  0
  -20.9396  -29.8758   21.6925 H   0  0  0  0  0  0
  -26.0169  -38.2850   24.1445 H   0  0  0  0  0  0
  -30.6002  -22.2440   22.0447 H   0  0  0  0  0  0
  -27.3087  -19.9143   18.9743 H   0  0  0  0  0  0
  -28.8573  -19.8702   18.1155 H   0  0  0  0  0  0
  -27.5997  -20.9813   17.5991 H   0  0  0  0  0  0
  -30.7393  -19.8962   21.6350 H   0  0  0  0  0  0
  -30.9790  -19.7747   19.9316 H   0  0  0  0  0  0
  -27.8138  -25.2750   18.5112 H   0  0  0  0  0  0
  -29.4682  -25.5012   18.7982 H   0  0  0  0  0  0
  -28.9219  -18.2598   19.7637 H   0  0  0  0  0  0
  -28.7125  -18.3993   21.4885 H   0  0  0  0  0  0
  -30.9314  -17.2664   21.8699 H   0  0  0  0  0  0
  -31.2529  -17.2626   20.1663 H   0  0  0  0  0  0
  -28.9478  -15.6054   21.0397 H   0  0  0  0  0  0
  1 25  1  0  0  0
  1 30  2  0  0  0
  1 82  1  0  0  0
  2  3  1  0  0  0
  2 25  1  0  0  0
  2 83  1  0  0  0
  2 84  1  0  0  0
  3  4  1  0  0  0
  3 85  1  0  0  0
  3 86  1  0  0  0
  4  5  1  0  0  0
  4 87  1  0  0  0
  4 88  1  0  0  0
  5  6  1  0  0  0
  5 26  1  0  0  0
  5 89  1  0  0  0
  6 25  1  0  0  0
  6 90  1  0  0  0
  6 91  1  0  0  0
  7  8  2  0  0  0
  7 26  1  0  0  0
  7 29  1  0  0  0
  8  9  1  0  0  0
  8 22  1  0  0  0
  9 10  1  0  0  0
  9 27  2  0  0  0
 10 11  2  0  0  0
 10 15  1  0  0  0
 11 12  1  0  0  0
 11 92  1  0  0  0
 12 13  2  0  0  0
 12 93  1  0  0  0
 13 14  1  0  0  0
 13 31  1  0  0  0
 14 15  2  0  0  0
 14 94  1  0  0  0
 15 95  1  0  0  0
 16 17  2  0  0  0
 16 21  1  0  0  0
 16 31  1  0  0  0
 17 18  1  0  0  0
 17 96  1  0  0  0
 18 19  2  0  0  0
 18 97  1  0  0  0
 19 20  1  0  0  0
 19 24  1  0  0  0
 20 21  2  0  0  0
 20 98  1  0  0  0
 21 23  1  0  0  0
 22 28  1  0  0  0
 22 32  2  0  0  0
 26 27  1  0  0  0
 28 99  1  0  0  0
 28100  1  0  0  0
 29101  1  0  0  0
 29102  1  0  0  0
 33 34  1  0  0  0
 33 66  1  0  0  0
 33 70  2  0  0  0
 34 36  1  0  0  0
 34 59  1  0  0  0
 34103  1  0  0  0
 35 44  2  0  0  0
 35 45  1  0  0  0
 35 68  1  0  0  0
 36 56  1  0  0  0
 36104  1  0  0  0
 37 39  1  0  0  0
 37 47  1  0  0  0
 37 66  1  0  0  0
 37105  1  0  0  0
 38 43  2  0  0  0
 38 46  1  0  0  0
 38 47  1  0  0  0
 39 64  1  0  0  0
 39 67  2  0  0  0
 40 52  1  0  0  0
 40 53  2  0  0  0
 40 58  1  0  0  0
 41106  1  0  0  0
 41107  1  0  0  0
 41108  1  0  0  0
 41 48  1  0  0  0
 42 43  1  0  0  0
 42 66  1  0  0  0
 42109  1  0  0  0
 42110  1  0  0  0
 43 44  1  0  0  0
 44111  1  0  0  0
 45 46  2  0  0  0
 45112  1  0  0  0
 46113  1  0  0  0
 47114  1  0  0  0
 47115  1  0  0  0
 48 56  1  0  0  0
 48 65  1  0  0  0
 48116  1  0  0  0
 49 50  1  0  0  0
 49 53  1  0  0  0
 49 64  1  0  0  0
 49117  1  0  0  0
 50 51  1  0  0  0
 50118  1  0  0  0
 50119  1  0  0  0
 51 52  1  0  0  0
 51120  1  0  0  0
 51121  1  0  0  0
 52122  1  0  0  0
 52123  1  0  0  0
 53 54  1  0  0  0
 54 55  2  0  0  0
 54124  1  0  0  0
 55 57  1  0  0  0
 55125  1  0  0  0
 56 69  2  0  0  0
 57 58  2  0  0  0
 57126  1  0  0  0
 58127  1  0  0  0
 59 60  1  0  0  0
 59 61  1  0  0  0
 59 62  1  0  0  0
 60128  1  0  0  0
 60129  1  0  0  0
 60130  1  0  0  0
 61131  1  0  0  0
 61132  1  0  0  0
 61133  1  0  0  0
 62134  1  0  0  0
 62135  1  0  0  0
 62136  1  0  0  0
 63 65  1  0  0  0
 63137  1  0  0  0
 63138  1  0  0  0
 63139  1  0  0  0
 64140  1  0  0  0
 65141  1  0  0  0
 68 77  1  0  0  0
 71 72  2  0  0  0
 71 80  1  0  0  0
 71142  1  0  0  0
 72 73  1  0  0  0
 72 76  1  0  0  0
 73 75  1  0  0  0
 73 81  2  0  0  0
 74 77  1  0  0  0
 74 80  2  0  0  0
 74 81  1  0  0  0
 75143  1  0  0  0
 75144  1  0  0  0
 75145  1  0  0  0
 76 78  1  0  0  0
 76146  1  0  0  0
 76147  1  0  0  0
 77148  1  0  0  0
 77149  1  0  0  0
 78 79  1  0  0  0
 78150  1  0  0  0
 78151  1  0  0  0
 79 82  1  0  0  0
 79152  1  0  0  0
 79153  1  0  0  0
 82154  1  0  0  0
M  ISO  4   1 100  68 101  77 101  82 100
M  END
> <chiral flag>
0

> <version>
0

> <s_m_source_file>
/data/baiqing/PycharmProjects/Reinvent-master-3.2/result/LINK_invent/BTK/process_docking_weight1_custom_sum_contain_oxygen_bond_distance_aromatic_linkinvent_7_9_3/rearranged_h_0041.sdf

> <i_m_source_file_index>
73

> <r_mmod_Potential_Energy-OPLS-2005>
-286.044464111328

> <r_mmod_Stretch_Energy-OPLS-2005>
78.9375991821289

> <r_mmod_Bend_Energy-OPLS-2005>
161.008926391602

> <r_mmod_Torsional_Energy-OPLS-2005>
205.703338623047

> <r_mmod_Improper_Torsional_Energy-OPLS-2005>
6.7417140007019

> <r_mmod_Van_der_Waal_Energy-OPLS-2005>
151.665405273438

> <r_mmod_Electrostatic_Energy-OPLS-2005>
-700.481689453125

> <r_mmod_Solvation_Energy-OPLS-2005>
-237.714019775391

> <b_mmod_Minimization_Converged-OPLS-2005>
0

> <r_mmod_RMS_Derivative-OPLS-2005>
1.9105007648468

$$$$
73
                    3D
 Structure written by MMmdl.
177185  0  0  1  0            999 V2000
  -30.4016  -14.5427   20.6796 C   0  0  0  0  0  0
  -30.4472  -12.3893   19.3856 C   0  0  0  0  0  0
  -29.4714  -12.5130   18.1887 C   0  0  0  0  0  0
  -27.9853  -12.3325   18.5985 C   0  0  0  0  0  0
  -27.6389  -13.1288   19.8852 C   0  0  2  0  0  0
  -28.6870  -12.7471   20.9470 C   0  0  0  0  0  0
  -25.2521  -13.7872   20.5637 C   0  0  0  0  0  0
  -24.1760  -13.0384   20.9161 C   0  0  0  0  0  0
  -24.6182  -11.6719   20.8787 C   0  0  0  0  0  0
  -23.8880  -10.4219   21.0489 C   0  0  0  0  0  0
  -24.3480   -9.4102   21.9210 C   0  0  0  0  0  0
  -23.6189   -8.2097   22.0745 C   0  0  0  0  0  0
  -22.4173   -8.0168   21.3544 C   0  0  0  0  0  0
  -21.9798   -9.0117   20.4638 C   0  0  0  0  0  0
  -22.7080  -10.2015   20.3080 C   0  0  0  0  0  0
  -21.6790   -6.0666   22.5239 C   0  0  0  0  0  0
  -21.4004   -6.5602   23.8188 C   0  0  0  0  0  0
  -21.3652   -5.6757   24.9141 C   0  0  0  0  0  0
  -21.6039   -4.3034   24.7205 C   0  0  0  0  0  0
  -21.8825   -3.8107   23.4349 C   0  0  0  0  0  0
  -21.9186   -4.6908   22.3385 C   0  0  0  0  0  0
  -22.7774  -13.5180   21.1828 C   0  0  0  0  0  0
  -22.1644   -4.2086   21.0969 F   0  0  0  0  0  0
  -21.5624   -3.4531   25.7746 F   0  0  0  0  0  0
  -29.9664  -13.2641   20.4645 N   0  0  0  0  0  0
  -26.2869  -12.8876   20.3333 N   0  0  0  0  0  0
  -25.9083  -11.6201   20.5815 N   0  0  0  0  0  0
  -22.0442  -12.8239   22.0450 N   0  0  0  0  0  0
  -25.4338  -15.1541   20.3679 N   0  0  0  0  0  0
  -31.4789  -14.9290   20.1647 O   0  0  0  0  0  0
  -21.6570   -6.8748   21.4199 O   0  0  0  0  0  0
  -22.3503  -14.5528   20.6616 O   0  0  0  0  0  0
  -24.6236  -31.8793   23.2134 C   0  0  0  0  0  0
  -25.9164  -32.4828   23.8388 C   0  0  1  0  0  0
  -27.1060  -27.3733   20.0683 C   0  0  0  0  0  0
  -25.5939  -33.8605   24.2225 N   0  0  0  0  0  0
  -23.4169  -30.5145   21.5594 C   0  0  2  0  0  0
  -24.8351  -29.0179   20.0501 C   0  0  0  0  0  0
  -22.7486  -29.4908   22.5170 C   0  0  0  0  0  0
  -18.0604  -28.1031   22.8620 C   0  0  0  0  0  0
  -24.1464  -36.7302   23.2597 C   0  0  0  0  0  0
  -25.9430  -30.8024   21.3979 C   0  0  0  0  0  0
  -25.9972  -29.4584   20.7018 C   0  0  0  0  0  0
  -27.1530  -28.6408   20.7224 C   0  0  0  0  0  0
  -26.0448  -27.0924   19.1958 C   0  0  0  0  0  0
  -24.8683  -27.8578   19.2663 C   0  0  0  0  0  0
  -23.6039  -29.8806   20.1548 C   0  0  0  0  0  0
  -25.4105  -36.3050   24.0244 C   0  0  1  0  0  0
  -20.6095  -28.3642   23.1270 C   0  0  2  0  0  0
  -20.7143  -26.9612   22.4974 C   0  0  0  0  0  0
  -19.5954  -26.6923   21.4909 C   0  0  0  0  0  0
  -18.2427  -26.7540   22.1843 C   0  0  0  0  0  0
  -19.1756  -28.8590   23.3068 C   0  0  0  0  0  0
  -18.9534  -30.1137   23.9124 C   0  0  0  0  0  0
  -17.6600  -30.6362   24.0588 C   0  0  0  0  0  0
  -25.9086  -34.9447   23.5078 C   0  0  0  0  0  0
  -16.5627  -29.8968   23.6163 C   0  0  0  0  0  0
  -16.7558  -28.6339   23.0234 C   0  0  0  0  0  0
  -26.4536  -31.6619   25.0787 C   0  0  0  0  0  0
  -25.3788  -31.3860   26.1529 C   0  0  0  0  0  0
  -27.0362  -30.2993   24.6351 C   0  0  0  0  0  0
  -27.6076  -32.4467   25.7484 C   0  0  0  0  0  0
  -27.5599  -37.1776   24.8462 C   0  0  0  0  0  0
  -21.4259  -29.2925   22.3505 N   0  0  0  0  0  0
  -26.4330  -37.3770   23.9351 N   0  0  0  0  0  0
  -24.6818  -31.0861   22.1087 N   0  0  0  0  0  0
  -23.4096  -28.8650   23.3520 O   0  0  0  0  0  0
  -28.0102  -26.3510   20.2810 O   0  0  0  0  0  0
  -26.5674  -34.8916   22.4656 O   0  0  0  0  0  0
  -23.5469  -32.1546   23.7518 O   0  0  0  0  0  0
  -24.9475  -21.2897   22.8096 C   0  0  0  0  0  0
  -25.1654  -21.2721   20.2010 C   0  0  0  0  0  0
  -24.9177  -22.8412   22.7769 C   0  0  0  0  0  0
  -24.5870  -22.7107   20.2421 C   0  0  0  0  0  0
  -25.0775  -20.4401   21.5046 C   0  0  1  0  0  0
  -25.0129  -23.5873   21.4321 C   0  0  1  0  0  0
  -27.1135  -16.0566   24.0689 C   0  0  0  0  0  0
  -27.7685  -23.9463   19.6500 C   0  0  0  0  0  0
  -26.2070  -19.3666   21.7511 C   0  0  0  0  0  0
  -25.9030  -24.8983   21.1978 C   0  0  0  0  0  0
  -28.0603  -14.9890   23.4686 C   0  0  0  0  0  0
  -26.9716  -18.5922   20.6350 C   0  0  0  0  0  0
  -27.8069  -17.4395   21.2999 C   0  0  0  0  0  0
  -29.3832  -15.4625   22.7642 C   0  0  0  0  0  0
  -28.8932  -16.6008   20.5255 C   0  0  0  0  0  0
  -27.4185  -25.0279   20.6951 C   0  0  1  0  0  0
  -29.4660  -15.3921   21.2587 N   0  0  0  0  0  0
  -31.4624  -12.6377   19.0885 H   0  0  0  0  0  0
  -30.4840  -11.3633   19.7444 H   0  0  0  0  0  0
  -29.7310  -11.7803   17.4209 H   0  0  0  0  0  0
  -29.5829  -13.4935   17.7185 H   0  0  0  0  0  0
  -27.8072  -11.2629   18.7537 H   0  0  0  0  0  0
  -27.3249  -12.6228   17.7730 H   0  0  0  0  0  0
  -27.7118  -14.1756   19.6265 H   0  0  0  0  0  0
  -28.7308  -11.6604   21.0169 H   0  0  0  0  0  0
  -28.4841  -13.0147   21.9649 H   0  0  0  0  0  0
  -25.2632   -9.5538   22.4803 H   0  0  0  0  0  0
  -23.9900   -7.4472   22.7475 H   0  0  0  0  0  0
  -21.0714   -8.8611   19.8953 H   0  0  0  0  0  0
  -22.3536  -10.9549   19.6189 H   0  0  0  0  0  0
  -21.2009   -7.6120   23.9644 H   0  0  0  0  0  0
  -21.1476   -6.0527   25.9045 H   0  0  0  0  0  0
  -22.0645   -2.7576   23.2860 H   0  0  0  0  0  0
  -22.4137  -11.9871   22.4750 H   0  0  0  0  0  0
  -21.1112  -13.1262   22.2766 H   0  0  0  0  0  0
  -24.6847  -15.8385   20.4140 H   0  0  0  0  0  0
  -26.3145  -15.5637   20.0878 H   0  0  0  0  0  0
  -26.7303  -32.5434   23.1170 H   0  0  0  0  0  0
  -24.9840  -33.9780   25.0190 H   0  0  0  0  0  0
  -22.7144  -31.3490   21.4456 H   0  0  0  0  0  0
  -23.3739  -35.9690   23.3309 H   0  0  0  0  0  0
  -24.3596  -36.8923   22.2058 H   0  0  0  0  0  0
  -23.7324  -37.6510   23.6668 H   0  0  0  0  0  0
  -26.1154  -31.5939   20.6726 H   0  0  0  0  0  0
  -26.8040  -30.7920   22.0525 H   0  0  0  0  0  0
  -28.0173  -28.9079   21.3110 H   0  0  0  0  0  0
  -26.0586  -26.2050   18.5770 H   0  0  0  0  0  0
  -24.0118  -27.5898   18.6678 H   0  0  0  0  0  0
  -23.6823  -30.6654   19.3958 H   0  0  0  0  0  0
  -22.7178  -29.3024   19.8947 H   0  0  0  0  0  0
  -25.1305  -36.1918   25.0789 H   0  0  0  0  0  0
  -21.0211  -28.2731   24.1356 H   0  0  0  0  0  0
  -20.6469  -26.2244   23.2847 H   0  0  0  0  0  0
  -21.6803  -26.8395   22.0333 H   0  0  0  0  0  0
  -19.6916  -25.7430   20.9877 H   0  0  0  0  0  0
  -19.6456  -27.4576   20.7019 H   0  0  0  0  0  0
  -17.4528  -26.5348   21.4642 H   0  0  0  0  0  0
  -18.2007  -25.9650   22.9338 H   0  0  0  0  0  0
  -19.8041  -30.6932   24.2624 H   0  0  0  0  0  0
  -17.5116  -31.5993   24.5299 H   0  0  0  0  0  0
  -15.5635  -30.2859   23.7175 H   0  0  0  0  0  0
  -15.9020  -28.0741   22.6787 H   0  0  0  0  0  0
  -24.5970  -30.7170   25.7911 H   0  0  0  0  0  0
  -24.8928  -32.3054   26.4764 H   0  0  0  0  0  0
  -25.8052  -30.9193   27.0390 H   0  0  0  0  0  0
  -26.2902  -29.6695   24.1479 H   0  0  0  0  0  0
  -27.4073  -29.7328   25.4874 H   0  0  0  0  0  0
  -27.8765  -30.4113   23.9527 H   0  0  0  0  0  0
  -27.2605  -33.3786   26.1910 H   0  0  0  0  0  0
  -28.3798  -32.7065   25.0259 H   0  0  0  0  0  0
  -28.0824  -31.8805   26.5460 H   0  0  0  0  0  0
  -28.2566  -38.0076   24.7448 H   0  0  0  0  0  0
  -28.1075  -36.2605   24.6311 H   0  0  0  0  0  0
  -27.2261  -37.1451   25.8836 H   0  0  0  0  0  0
  -20.9717  -29.7336   21.5564 H   0  0  0  0  0  0
  -26.0146  -38.2828   24.1439 H   0  0  0  0  0  0
  -24.0980  -20.8974   23.3775 H   0  0  0  0  0  0
  -25.7748  -21.0702   23.4765 H   0  0  0  0  0  0
  -26.1722  -21.3000   19.8414 H   0  0  0  0  0  0
  -24.5825  -20.7432   19.4528 H   0  0  0  0  0  0
  -25.6189  -23.2270   23.5276 H   0  0  0  0  0  0
  -23.8909  -23.0425   23.1289 H   0  0  0  0  0  0
  -23.5015  -22.6691   20.2062 H   0  0  0  0  0  0
  -24.8216  -23.2029   19.2975 H   0  0  0  0  0  0
  -24.1212  -19.9128   21.4176 H   0  0  0  0  0  0
  -24.0683  -24.1471   21.5674 H   0  0  0  0  0  0
  -26.9522  -15.8925   25.1339 H   0  0  0  0  0  0
  -26.1166  -15.9835   23.6138 H   0  0  0  0  0  0
  -27.4674  -17.0847   23.9587 H   0  0  0  0  0  0
  -28.1729  -23.0607   20.1371 H   0  0  0  0  0  0
  -28.5230  -24.3019   18.9511 H   0  0  0  0  0  0
  -26.9022  -23.6373   19.0522 H   0  0  0  0  0  0
  -25.7930  -18.6123   22.4174 H   0  0  0  0  0  0
  -26.9786  -19.8775   22.3184 H   0  0  0  0  0  0
  -25.8337  -25.5582   22.0797 H   0  0  0  0  0  0
  -25.2457  -25.3200   20.4468 H   0  0  0  0  0  0
  -27.4263  -14.4052   22.8301 H   0  0  0  0  0  0
  -28.3224  -14.2962   24.2757 H   0  0  0  0  0  0
  -27.6569  -19.2554   20.0983 H   0  0  0  0  0  0
  -26.2714  -18.1855   19.8995 H   0  0  0  0  0  0
  -27.0484  -16.7281   21.6192 H   0  0  0  0  0  0
  -28.2947  -17.8866   22.1773 H   0  0  0  0  0  0
  -30.1807  -14.8316   23.1677 H   0  0  0  0  0  0
  -29.6724  -16.4539   23.1065 H   0  0  0  0  0  0
  -29.7067  -17.2553   20.2156 H   0  0  0  0  0  0
  -28.4141  -16.2413   19.6232 H   0  0  0  0  0  0
  -28.0327  -24.8670   21.6005 H   0  0  0  0  0  0
  1 25  1  0  0  0
  1 30  2  0  0  0
  1 87  1  0  0  0
  2  3  1  0  0  0
  2 25  1  0  0  0
  2 88  1  0  0  0
  2 89  1  0  0  0
  3  4  1  0  0  0
  3 90  1  0  0  0
  3 91  1  0  0  0
  4  5  1  0  0  0
  4 92  1  0  0  0
  4 93  1  0  0  0
  5  6  1  0  0  0
  5 26  1  0  0  0
  5 94  1  0  0  0
  6 25  1  0  0  0
  6 95  1  0  0  0
  6 96  1  0  0  0
  7  8  2  0  0  0
  7 26  1  0  0  0
  7 29  1  0  0  0
  8  9  1  0  0  0
  8 22  1  0  0  0
  9 10  1  0  0  0
  9 27  2  0  0  0
 10 11  2  0  0  0
 10 15  1  0  0  0
 11 12  1  0  0  0
 11 97  1  0  0  0
 12 13  2  0  0  0
 12 98  1  0  0  0
 13 14  1  0  0  0
 13 31  1  0  0  0
 14 15  2  0  0  0
 14 99  1  0  0  0
 15100  1  0  0  0
 16 17  2  0  0  0
 16 21  1  0  0  0
 16 31  1  0  0  0
 17 18  1  0  0  0
 17101  1  0  0  0
 18 19  2  0  0  0
 18102  1  0  0  0
 19 20  1  0  0  0
 19 24  1  0  0  0
 20 21  2  0  0  0
 20103  1  0  0  0
 21 23  1  0  0  0
 22 28  1  0  0  0
 22 32  2  0  0  0
 26 27  1  0  0  0
 28104  1  0  0  0
 28105  1  0  0  0
 29106  1  0  0  0
 29107  1  0  0  0
 33 34  1  0  0  0
 33 66  1  0  0  0
 33 70  2  0  0  0
 34 36  1  0  0  0
 34 59  1  0  0  0
 34108  1  0  0  0
 35 44  2  0  0  0
 35 45  1  0  0  0
 35 68  1  0  0  0
 36 56  1  0  0  0
 36109  1  0  0  0
 37 39  1  0  0  0
 37 47  1  0  0  0
 37 66  1  0  0  0
 37110  1  0  0  0
 38 43  2  0  0  0
 38 46  1  0  0  0
 38 47  1  0  0  0
 39 64  1  0  0  0
 39 67  2  0  0  0
 40 52  1  0  0  0
 40 53  2  0  0  0
 40 58  1  0  0  0
 41111  1  0  0  0
 41112  1  0  0  0
 41113  1  0  0  0
 41 48  1  0  0  0
 42 43  1  0  0  0
 42 66  1  0  0  0
 42114  1  0  0  0
 42115  1  0  0  0
 43 44  1  0  0  0
 44116  1  0  0  0
 45 46  2  0  0  0
 45117  1  0  0  0
 46118  1  0  0  0
 47119  1  0  0  0
 47120  1  0  0  0
 48 56  1  0  0  0
 48 65  1  0  0  0
 48121  1  0  0  0
 49 50  1  0  0  0
 49 53  1  0  0  0
 49 64  1  0  0  0
 49122  1  0  0  0
 50 51  1  0  0  0
 50123  1  0  0  0
 50124  1  0  0  0
 51 52  1  0  0  0
 51125  1  0  0  0
 51126  1  0  0  0
 52127  1  0  0  0
 52128  1  0  0  0
 53 54  1  0  0  0
 54 55  2  0  0  0
 54129  1  0  0  0
 55 57  1  0  0  0
 55130  1  0  0  0
 56 69  2  0  0  0
 57 58  2  0  0  0
 57131  1  0  0  0
 58132  1  0  0  0
 59 60  1  0  0  0
 59 61  1  0  0  0
 59 62  1  0  0  0
 60133  1  0  0  0
 60134  1  0  0  0
 60135  1  0  0  0
 61136  1  0  0  0
 61137  1  0  0  0
 61138  1  0  0  0
 62139  1  0  0  0
 62140  1  0  0  0
 62141  1  0  0  0
 63 65  1  0  0  0
 63142  1  0  0  0
 63143  1  0  0  0
 63144  1  0  0  0
 64145  1  0  0  0
 65146  1  0  0  0
 68 86  1  0  0  0
 71 73  1  0  0  0
 71 75  1  0  0  0
 71147  1  0  0  0
 71148  1  0  0  0
 72 74  1  0  0  0
 72 75  1  0  0  0
 72149  1  0  0  0
 72150  1  0  0  0
 73 76  1  0  0  0
 73151  1  0  0  0
 73152  1  0  0  0
 74 76  1  0  0  0
 74153  1  0  0  0
 74154  1  0  0  0
 75 79  1  0  0  0
 75155  1  0  0  0
 76 80  1  0  0  0
 76156  1  0  0  0
 77 81  1  0  0  0
 77157  1  0  0  0
 77158  1  0  0  0
 77159  1  0  0  0
 78160  1  0  0  0
 78161  1  0  0  0
 78162  1  0  0  0
 78 86  1  0  0  0
 79 82  1  0  0  0
 79163  1  0  0  0
 79164  1  0  0  0
 80 86  1  0  0  0
 80165  1  0  0  0
 80166  1  0  0  0
 81 84  1  0  0  0
 81167  1  0  0  0
 81168  1  0  0  0
 82 83  1  0  0  0
 82169  1  0  0  0
 82170  1  0  0  0
 83 85  1  0  0  0
 83171  1  0  0  0
 83172  1  0  0  0
 84 87  1  0  0  0
 84173  1  0  0  0
 84174  1  0  0  0
 85 87  1  0  0  0
 85175  1  0  0  0
 85176  1  0  0  0
 86177  1  0  0  0
M  ISO  4   1 100  68 101  86 101  87 100
M  END
> <chiral flag>
0

> <version>
0

> <s_m_source_file>
/data/baiqing/PycharmProjects/Reinvent-master-3.2/result/LINK_invent/BTK/process_docking_weight1_custom_sum_contain_oxygen_bond_distance_aromatic_linkinvent_7_9_3/rearranged_h_0041.sdf

> <i_m_source_file_index>
74

> <r_mmod_Potential_Energy-OPLS-2005>
694.418334960938

> <r_mmod_Stretch_Energy-OPLS-2005>
94.4040985107422

> <r_mmod_Bend_Energy-OPLS-2005>
279.360168457031

> <r_mmod_Torsional_Energy-OPLS-2005>
467.084930419922

> <r_mmod_Improper_Torsional_Energy-OPLS-2005>
8.75017070770264

> <r_mmod_Van_der_Waal_Energy-OPLS-2005>
175.79052734375

> <r_mmod_Electrostatic_Energy-OPLS-2005>
-280.384704589844

> <r_mmod_Solvation_Energy-OPLS-2005>
-170.43620300293

> <b_mmod_Minimization_Converged-OPLS-2005>
0

> <r_mmod_RMS_Derivative-OPLS-2005>
29.4618606567383

$$$$
74
                    3D
 Structure written by MMmdl.
159167  0  0  1  0            999 V2000
  -30.6749  -14.5487   20.5831 C   0  0  0  0  0  0
  -30.4373  -12.3646   19.4287 C   0  0  0  0  0  0
  -29.4976  -12.4999   18.2110 C   0  0  0  0  0  0
  -28.0209  -12.3544   18.6276 C   0  0  0  0  0  0
  -27.6582  -13.2085   19.8704 C   0  0  2  0  0  0
  -28.7042  -13.0174   20.9917 C   0  0  0  0  0  0
  -25.2588  -13.8151   20.5683 C   0  0  0  0  0  0
  -24.1838  -13.0429   20.9177 C   0  0  0  0  0  0
  -24.6392  -11.6900   20.8745 C   0  0  0  0  0  0
  -23.9069  -10.4279   21.0403 C   0  0  0  0  0  0
  -24.3609   -9.4200   21.9194 C   0  0  0  0  0  0
  -23.6281   -8.2243   22.0760 C   0  0  0  0  0  0
  -22.4264   -8.0271   21.3538 C   0  0  0  0  0  0
  -21.9901   -9.0250   20.4658 C   0  0  0  0  0  0
  -22.7239  -10.2139   20.3063 C   0  0  0  0  0  0
  -21.6857   -6.0736   22.5281 C   0  0  0  0  0  0
  -21.4028   -6.5648   23.8216 C   0  0  0  0  0  0
  -21.3658   -5.6785   24.9171 C   0  0  0  0  0  0
  -21.6036   -4.3040   24.7214 C   0  0  0  0  0  0
  -21.8826   -3.8157   23.4334 C   0  0  0  0  0  0
  -21.9199   -4.6976   22.3402 C   0  0  0  0  0  0
  -22.7861  -13.5239   21.1826 C   0  0  0  0  0  0
  -22.1661   -4.2162   21.0979 F   0  0  0  0  0  0
  -21.5631   -3.4537   25.7733 F   0  0  0  0  0  0
  -30.0211  -13.3584   20.4319 N   0  0  0  0  0  0
  -26.3019  -12.9315   20.3369 N   0  0  0  0  0  0
  -25.9323  -11.6491   20.5778 N   0  0  0  0  0  0
  -22.0497  -12.8243   22.0384 N   0  0  0  0  0  0
  -25.4277  -15.1879   20.4103 N   0  0  0  0  0  0
  -31.8170  -14.7336   20.1566 O   0  0  0  0  0  0
  -21.6628   -6.8880   21.4233 O   0  0  0  0  0  0
  -22.3570  -14.5539   20.6661 O   0  0  0  0  0  0
  -24.6180  -31.8633   23.2068 C   0  0  0  0  0  0
  -25.9065  -32.4788   23.8378 C   0  0  1  0  0  0
  -27.2368  -27.3890   20.1254 C   0  0  0  0  0  0
  -25.5897  -33.8589   24.2299 N   0  0  0  0  0  0
  -23.4081  -30.4852   21.5461 C   0  0  2  0  0  0
  -24.8567  -28.9399   20.1210 C   0  0  0  0  0  0
  -22.7417  -29.4641   22.4964 C   0  0  0  0  0  0
  -18.0265  -28.1378   22.8489 C   0  0  0  0  0  0
  -24.1486  -36.7307   23.2641 C   0  0  0  0  0  0
  -25.9395  -30.8193   21.3641 C   0  0  0  0  0  0
  -26.0187  -29.4479   20.7148 C   0  0  0  0  0  0
  -27.2103  -28.6818   20.7073 C   0  0  0  0  0  0
  -26.0564  -26.9027   19.5229 C   0  0  0  0  0  0
  -24.8741  -27.6698   19.5140 C   0  0  0  0  0  0
  -23.6214  -29.8128   20.1630 C   0  0  0  0  0  0
  -25.4109  -36.3100   24.0339 C   0  0  1  0  0  0
  -20.5857  -28.3671   23.1312 C   0  0  2  0  0  0
  -20.6756  -26.9400   22.5418 C   0  0  0  0  0  0
  -19.5741  -26.6387   21.5206 C   0  0  0  0  0  0
  -18.1920  -26.7924   22.1619 C   0  0  0  0  0  0
  -19.1518  -28.8847   23.2895 C   0  0  0  0  0  0
  -18.9445  -30.1446   23.8909 C   0  0  0  0  0  0
  -17.6455  -30.6583   24.0570 C   0  0  0  0  0  0
  -25.9036  -34.9462   23.5124 C   0  0  0  0  0  0
  -16.5342  -29.9093   23.6324 C   0  0  0  0  0  0
  -16.7259  -28.6505   23.0349 C   0  0  0  0  0  0
  -26.4475  -31.6582   25.0724 C   0  0  0  0  0  0
  -25.3729  -31.3686   26.1465 C   0  0  0  0  0  0
  -27.0305  -30.3026   24.6106 C   0  0  0  0  0  0
  -27.6057  -32.4302   25.7477 C   0  0  0  0  0  0
  -27.5571  -37.1810   24.8467 C   0  0  0  0  0  0
  -21.4143  -29.3032   22.3716 N   0  0  0  0  0  0
  -26.4295  -37.3789   23.9401 N   0  0  0  0  0  0
  -24.6735  -31.0719   22.0972 N   0  0  0  0  0  0
  -23.4170  -28.8184   23.3027 O   0  0  0  0  0  0
  -28.4063  -26.6459   20.1096 O   0  0  0  0  0  0
  -26.5594  -34.8926   22.4681 O   0  0  0  0  0  0
  -23.5371  -32.1409   23.7446 O   0  0  0  0  0  0
  -28.8038  -22.7505   19.8803 C   0  0  0  0  0  0
  -29.3029  -21.9209   18.8310 C   0  0  0  0  0  0
  -28.9834  -21.9497   20.9937 C   0  0  0  0  0  0
  -29.3656  -22.2411   17.3649 C   0  0  0  0  0  0
  -28.6939  -22.2256   22.4338 C   0  0  0  0  0  0
  -28.1895  -24.1519   19.6331 C   0  0  0  0  0  0
  -29.8842  -18.1216   20.6451 C   0  0  0  0  0  0
  -29.9197  -19.5241   21.3646 C   0  0  0  0  0  0
  -30.3844  -16.9240   21.5334 C   0  0  0  0  0  0
  -28.4027  -25.3008   20.6668 C   0  0  0  0  0  0
  -29.7315  -20.7380   19.2465 N   0  0  0  0  0  0
  -29.5097  -20.7152   20.5767 N   0  0  0  0  0  0
  -29.9494  -15.5579   21.1295 N   0  0  0  0  0  0
  -31.4752  -12.4996   19.1195 H   0  0  0  0  0  0
  -30.3790  -11.3614   19.8543 H   0  0  0  0  0  0
  -29.7495  -11.7445   17.4651 H   0  0  0  0  0  0
  -29.6474  -13.4667   17.7277 H   0  0  0  0  0  0
  -27.8428  -11.2992   18.8414 H   0  0  0  0  0  0
  -27.3668  -12.6010   17.7923 H   0  0  0  0  0  0
  -27.6938  -14.2506   19.5537 H   0  0  0  0  0  0
  -28.7135  -11.9803   21.3330 H   0  0  0  0  0  0
  -28.4551  -13.6116   21.8729 H   0  0  0  0  0  0
  -25.2759   -9.5693   22.4755 H   0  0  0  0  0  0
  -24.0013   -7.4641   22.7460 H   0  0  0  0  0  0
  -21.0853   -8.8751   19.8955 H   0  0  0  0  0  0
  -22.3677  -10.9661   19.6165 H   0  0  0  0  0  0
  -21.2012   -7.6154   23.9725 H   0  0  0  0  0  0
  -21.1477   -6.0518   25.9071 H   0  0  0  0  0  0
  -22.0606   -2.7625   23.2831 H   0  0  0  0  0  0
  -22.4116  -11.9921   22.4809 H   0  0  0  0  0  0
  -21.1105  -13.1272   22.2557 H   0  0  0  0  0  0
  -24.6621  -15.8411   20.5358 H   0  0  0  0  0  0
  -26.2734  -15.6289   20.0744 H   0  0  0  0  0  0
  -26.7129  -32.5499   23.1133 H   0  0  0  0  0  0
  -25.0049  -33.9749   25.0447 H   0  0  0  0  0  0
  -22.6997  -31.3030   21.4029 H   0  0  0  0  0  0
  -23.3739  -35.9652   23.3325 H   0  0  0  0  0  0
  -24.3572  -36.8900   22.2050 H   0  0  0  0  0  0
  -23.7262  -37.6529   23.6641 H   0  0  0  0  0  0
  -26.0536  -31.5823   20.5929 H   0  0  0  0  0  0
  -26.8277  -30.8759   21.9832 H   0  0  0  0  0  0
  -28.1087  -29.0733   21.1632 H   0  0  0  0  0  0
  -26.0479  -25.9370   19.0425 H   0  0  0  0  0  0
  -23.9821  -27.2756   19.0460 H   0  0  0  0  0  0
  -23.7328  -30.5866   19.4014 H   0  0  0  0  0  0
  -22.7452  -29.2344   19.8658 H   0  0  0  0  0  0
  -25.1292  -36.1953   25.0836 H   0  0  0  0  0  0
  -20.9946  -28.3233   24.1436 H   0  0  0  0  0  0
  -20.5639  -26.2275   23.3606 H   0  0  0  0  0  0
  -21.6634  -26.7433   22.1224 H   0  0  0  0  0  0
  -19.6906  -25.6301   21.1233 H   0  0  0  0  0  0
  -19.6692  -27.3203   20.6741 H   0  0  0  0  0  0
  -17.4188  -26.6662   21.4024 H   0  0  0  0  0  0
  -18.0330  -26.0066   22.9017 H   0  0  0  0  0  0
  -19.7927  -30.7249   24.2289 H   0  0  0  0  0  0
  -17.5016  -31.6263   24.5161 H   0  0  0  0  0  0
  -15.5347  -30.3000   23.7650 H   0  0  0  0  0  0
  -15.8654  -28.0831   22.7066 H   0  0  0  0  0  0
  -24.5914  -30.7019   25.7790 H   0  0  0  0  0  0
  -24.8914  -32.2843   26.4914 H   0  0  0  0  0  0
  -25.8099  -30.8851   27.0214 H   0  0  0  0  0  0
  -26.2853  -29.6782   24.1170 H   0  0  0  0  0  0
  -27.4071  -29.7270   25.4565 H   0  0  0  0  0  0
  -27.8689  -30.4332   23.9263 H   0  0  0  0  0  0
  -27.2677  -33.3591   26.2084 H   0  0  0  0  0  0
  -28.3855  -32.6873   25.0291 H   0  0  0  0  0  0
  -28.0735  -31.8399   26.5365 H   0  0  0  0  0  0
  -28.2610  -38.0083   24.7487 H   0  0  0  0  0  0
  -28.1042  -36.2617   24.6327 H   0  0  0  0  0  0
  -27.2280  -37.1510   25.8867 H   0  0  0  0  0  0
  -20.9302  -29.8753   21.6942 H   0  0  0  0  0  0
  -26.0171  -38.2864   24.1399 H   0  0  0  0  0  0
  -30.0199  -23.0924   17.1789 H   0  0  0  0  0  0
  -28.3775  -22.4971   16.9833 H   0  0  0  0  0  0
  -29.7375  -21.4037   16.7750 H   0  0  0  0  0  0
  -28.1375  -23.1524   22.5593 H   0  0  0  0  0  0
  -29.6187  -22.3109   23.0044 H   0  0  0  0  0  0
  -28.0991  -21.4279   22.8774 H   0  0  0  0  0  0
  -27.1182  -24.0415   19.4705 H   0  0  0  0  0  0
  -28.5681  -24.5350   18.6856 H   0  0  0  0  0  0
  -30.5006  -18.1601   19.7456 H   0  0  0  0  0  0
  -28.8679  -17.9279   20.3032 H   0  0  0  0  0  0
  -30.9218  -19.7122   21.7508 H   0  0  0  0  0  0
  -29.2696  -19.4648   22.2388 H   0  0  0  0  0  0
  -31.4706  -16.9615   21.6352 H   0  0  0  0  0  0
  -30.0001  -17.0657   22.5450 H   0  0  0  0  0  0
  -29.3850  -25.1754   21.1229 H   0  0  0  0  0  0
  -27.6849  -25.2251   21.4852 H   0  0  0  0  0  0
  -29.0105  -15.3065   21.4013 H   0  0  0  0  0  0
  1 25  1  0  0  0
  1 30  2  0  0  0
  1 83  1  0  0  0
  2  3  1  0  0  0
  2 25  1  0  0  0
  2 84  1  0  0  0
  2 85  1  0  0  0
  3  4  1  0  0  0
  3 86  1  0  0  0
  3 87  1  0  0  0
  4  5  1  0  0  0
  4 88  1  0  0  0
  4 89  1  0  0  0
  5  6  1  0  0  0
  5 26  1  0  0  0
  5 90  1  0  0  0
  6 25  1  0  0  0
  6 91  1  0  0  0
  6 92  1  0  0  0
  7  8  2  0  0  0
  7 26  1  0  0  0
  7 29  1  0  0  0
  8  9  1  0  0  0
  8 22  1  0  0  0
  9 10  1  0  0  0
  9 27  2  0  0  0
 10 11  2  0  0  0
 10 15  1  0  0  0
 11 12  1  0  0  0
 11 93  1  0  0  0
 12 13  2  0  0  0
 12 94  1  0  0  0
 13 14  1  0  0  0
 13 31  1  0  0  0
 14 15  2  0  0  0
 14 95  1  0  0  0
 15 96  1  0  0  0
 16 17  2  0  0  0
 16 21  1  0  0  0
 16 31  1  0  0  0
 17 18  1  0  0  0
 17 97  1  0  0  0
 18 19  2  0  0  0
 18 98  1  0  0  0
 19 20  1  0  0  0
 19 24  1  0  0  0
 20 21  2  0  0  0
 20 99  1  0  0  0
 21 23  1  0  0  0
 22 28  1  0  0  0
 22 32  2  0  0  0
 26 27  1  0  0  0
 28100  1  0  0  0
 28101  1  0  0  0
 29102  1  0  0  0
 29103  1  0  0  0
 33 34  1  0  0  0
 33 66  1  0  0  0
 33 70  2  0  0  0
 34 36  1  0  0  0
 34 59  1  0  0  0
 34104  1  0  0  0
 35 44  2  0  0  0
 35 45  1  0  0  0
 35 68  1  0  0  0
 36 56  1  0  0  0
 36105  1  0  0  0
 37 39  1  0  0  0
 37 47  1  0  0  0
 37 66  1  0  0  0
 37106  1  0  0  0
 38 43  2  0  0  0
 38 46  1  0  0  0
 38 47  1  0  0  0
 39 64  1  0  0  0
 39 67  2  0  0  0
 40 52  1  0  0  0
 40 53  2  0  0  0
 40 58  1  0  0  0
 41107  1  0  0  0
 41108  1  0  0  0
 41109  1  0  0  0
 41 48  1  0  0  0
 42 43  1  0  0  0
 42 66  1  0  0  0
 42110  1  0  0  0
 42111  1  0  0  0
 43 44  1  0  0  0
 44112  1  0  0  0
 45 46  2  0  0  0
 45113  1  0  0  0
 46114  1  0  0  0
 47115  1  0  0  0
 47116  1  0  0  0
 48 56  1  0  0  0
 48 65  1  0  0  0
 48117  1  0  0  0
 49 50  1  0  0  0
 49 53  1  0  0  0
 49 64  1  0  0  0
 49118  1  0  0  0
 50 51  1  0  0  0
 50119  1  0  0  0
 50120  1  0  0  0
 51 52  1  0  0  0
 51121  1  0  0  0
 51122  1  0  0  0
 52123  1  0  0  0
 52124  1  0  0  0
 53 54  1  0  0  0
 54 55  2  0  0  0
 54125  1  0  0  0
 55 57  1  0  0  0
 55126  1  0  0  0
 56 69  2  0  0  0
 57 58  2  0  0  0
 57127  1  0  0  0
 58128  1  0  0  0
 59 60  1  0  0  0
 59 61  1  0  0  0
 59 62  1  0  0  0
 60129  1  0  0  0
 60130  1  0  0  0
 60131  1  0  0  0
 61132  1  0  0  0
 61133  1  0  0  0
 61134  1  0  0  0
 62135  1  0  0  0
 62136  1  0  0  0
 62137  1  0  0  0
 63 65  1  0  0  0
 63138  1  0  0  0
 63139  1  0  0  0
 63140  1  0  0  0
 64141  1  0  0  0
 65142  1  0  0  0
 68 80  1  0  0  0
 71 72  1  0  0  0
 71 73  2  0  0  0
 71 76  1  0  0  0
 72 74  1  0  0  0
 72 81  2  0  0  0
 73 75  1  0  0  0
 73 82  1  0  0  0
 74143  1  0  0  0
 74144  1  0  0  0
 74145  1  0  0  0
 75146  1  0  0  0
 75147  1  0  0  0
 75148  1  0  0  0
 76 80  1  0  0  0
 76149  1  0  0  0
 76150  1  0  0  0
 77 78  1  0  0  0
 77 79  1  0  0  0
 77151  1  0  0  0
 77152  1  0  0  0
 78 82  1  0  0  0
 78153  1  0  0  0
 78154  1  0  0  0
 79 83  1  0  0  0
 79155  1  0  0  0
 79156  1  0  0  0
 80157  1  0  0  0
 80158  1  0  0  0
 81 82  1  0  0  0
 83159  1  0  0  0
M  ISO  4   1 100  68 101  80 101  83 100
M  END
> <chiral flag>
0

> <version>
0

> <s_m_source_file>
/data/baiqing/PycharmProjects/Reinvent-master-3.2/result/LINK_invent/BTK/process_docking_weight1_custom_sum_contain_oxygen_bond_distance_aromatic_linkinvent_7_9_3/rearranged_h_0041.sdf

> <i_m_source_file_index>
75

> <r_mmod_Potential_Energy-OPLS-2005>
-105.02042388916

> <r_mmod_Stretch_Energy-OPLS-2005>
50.8656806945801

> <r_mmod_Bend_Energy-OPLS-2005>
119.427169799805

> <r_mmod_Torsional_Energy-OPLS-2005>
224.716979980469

> <r_mmod_Improper_Torsional_Energy-OPLS-2005>
3.01295566558838

> <r_mmod_Van_der_Waal_Energy-OPLS-2005>
116.96989440918

> <r_mmod_Electrostatic_Energy-OPLS-2005>
-419.596588134766

> <r_mmod_Solvation_Energy-OPLS-2005>
-222.563827514648

> <b_mmod_Minimization_Converged-OPLS-2005>
0

> <r_mmod_RMS_Derivative-OPLS-2005>
3.98513293266296

$$$$
75
                    3D
 Structure written by MMmdl.
155163  0  0  1  0            999 V2000
  -30.6253  -14.6884   20.4750 C   0  0  0  0  0  0
  -30.4282  -12.4242   19.4445 C   0  0  0  0  0  0
  -29.4975  -12.5070   18.2157 C   0  0  0  0  0  0
  -28.0226  -12.3396   18.6308 C   0  0  0  0  0  0
  -27.6416  -13.2242   19.8467 C   0  0  2  0  0  0
  -28.6924  -13.1261   20.9751 C   0  0  0  0  0  0
  -25.2515  -13.8173   20.5646 C   0  0  0  0  0  0
  -24.1810  -13.0423   20.9183 C   0  0  0  0  0  0
  -24.6394  -11.6898   20.8732 C   0  0  0  0  0  0
  -23.9071  -10.4275   21.0387 C   0  0  0  0  0  0
  -24.3627   -9.4187   21.9162 C   0  0  0  0  0  0
  -23.6302   -8.2228   22.0745 C   0  0  0  0  0  0
  -22.4286   -8.0263   21.3540 C   0  0  0  0  0  0
  -21.9914   -9.0232   20.4644 C   0  0  0  0  0  0
  -22.7239  -10.2110   20.3049 C   0  0  0  0  0  0
  -21.6856   -6.0724   22.5274 C   0  0  0  0  0  0
  -21.4010   -6.5633   23.8203 C   0  0  0  0  0  0
  -21.3675   -5.6791   24.9168 C   0  0  0  0  0  0
  -21.6060   -4.3052   24.7214 C   0  0  0  0  0  0
  -21.8830   -3.8144   23.4334 C   0  0  0  0  0  0
  -21.9191   -4.6957   22.3395 C   0  0  0  0  0  0
  -22.7838  -13.5185   21.1855 C   0  0  0  0  0  0
  -22.1647   -4.2142   21.0971 F   0  0  0  0  0  0
  -21.5647   -3.4536   25.7725 F   0  0  0  0  0  0
  -29.9947  -13.4714   20.3910 N   0  0  0  0  0  0
  -26.2940  -12.9368   20.3262 N   0  0  0  0  0  0
  -25.9318  -11.6517   20.5744 N   0  0  0  0  0  0
  -22.0520  -12.8164   22.0433 N   0  0  0  0  0  0
  -25.4205  -15.1897   20.4023 N   0  0  0  0  0  0
  -31.8195  -14.8036   20.1906 O   0  0  0  0  0  0
  -21.6658   -6.8856   21.4229 O   0  0  0  0  0  0
  -22.3504  -14.5474   20.6695 O   0  0  0  0  0  0
  -24.6292  -31.8575   23.1995 C   0  0  0  0  0  0
  -25.9123  -32.4768   23.8343 C   0  0  1  0  0  0
  -27.2213  -27.2911   20.1283 C   0  0  0  0  0  0
  -25.5920  -33.8568   24.2258 N   0  0  0  0  0  0
  -23.4248  -30.4818   21.5421 C   0  0  2  0  0  0
  -24.8738  -28.9314   20.1115 C   0  0  0  0  0  0
  -22.7498  -29.4622   22.4908 C   0  0  0  0  0  0
  -18.0301  -28.1393   22.8494 C   0  0  0  0  0  0
  -24.1489  -36.7289   23.2641 C   0  0  0  0  0  0
  -25.9705  -30.7791   21.3783 C   0  0  0  0  0  0
  -26.0452  -29.4053   20.7180 C   0  0  0  0  0  0
  -27.2249  -28.5989   20.7130 C   0  0  0  0  0  0
  -26.0318  -26.8804   19.4885 C   0  0  0  0  0  0
  -24.8707  -27.6750   19.4868 C   0  0  0  0  0  0
  -23.6435  -29.8156   20.1587 C   0  0  0  0  0  0
  -25.4115  -36.3075   24.0329 C   0  0  1  0  0  0
  -20.5903  -28.3702   23.1272 C   0  0  2  0  0  0
  -20.6784  -26.9411   22.5422 C   0  0  0  0  0  0
  -19.5758  -26.6378   21.5232 C   0  0  0  0  0  0
  -18.1937  -26.7937   22.1634 C   0  0  0  0  0  0
  -19.1551  -28.8864   23.2883 C   0  0  0  0  0  0
  -18.9469  -30.1466   23.8899 C   0  0  0  0  0  0
  -17.6464  -30.6586   24.0570 C   0  0  0  0  0  0
  -25.9052  -34.9446   23.5092 C   0  0  0  0  0  0
  -16.5359  -29.9084   23.6332 C   0  0  0  0  0  0
  -16.7288  -28.6509   23.0347 C   0  0  0  0  0  0
  -26.4485  -31.6598   25.0732 C   0  0  0  0  0  0
  -25.3707  -31.3755   26.1453 C   0  0  0  0  0  0
  -27.0338  -30.3014   24.6231 C   0  0  0  0  0  0
  -27.6033  -32.4358   25.7502 C   0  0  0  0  0  0
  -27.5586  -37.1794   24.8455 C   0  0  0  0  0  0
  -21.4205  -29.3042   22.3649 N   0  0  0  0  0  0
  -26.4289  -37.3775   23.9405 N   0  0  0  0  0  0
  -24.6936  -31.0571   22.0961 N   0  0  0  0  0  0
  -23.4213  -28.8166   23.3002 O   0  0  0  0  0  0
  -28.3124  -26.4039   20.1448 O   0  0  0  0  0  0
  -26.5626  -34.8917   22.4666 O   0  0  0  0  0  0
  -23.5450  -32.1379   23.7309 O   0  0  0  0  0  0
  -30.3003  -21.5831   19.1457 C   0  0  0  0  0  0
  -28.7323  -22.4447   20.7451 C   0  0  0  0  0  0
  -29.4747  -21.3094   20.2533 C   0  0  0  0  0  0
  -30.3662  -22.8920   18.6146 C   0  0  0  0  0  0
  -28.8460  -23.7613   20.1579 C   0  0  0  0  0  0
  -31.3005  -23.1979   17.4629 C   0  0  0  0  0  0
  -29.5330  -19.8974   20.9723 C   0  0  0  0  0  0
  -28.0578  -25.0316   20.6873 C   0  0  0  0  0  0
  -29.6174  -18.4871   20.1954 C   0  0  0  0  0  0
  -30.2229  -17.2340   21.0135 C   0  0  0  0  0  0
  -29.6638  -23.9448   19.0972 N   0  0  0  0  0  0
  -29.8377  -15.7989   20.6941 N   0  0  0  0  0  0
  -31.4671  -12.5513   19.1368 H   0  0  0  0  0  0
  -30.3655  -11.4392   19.9089 H   0  0  0  0  0  0
  -29.7686  -11.7501   17.4775 H   0  0  0  0  0  0
  -29.6305  -13.4722   17.7249 H   0  0  0  0  0  0
  -27.8637  -11.2879   18.8731 H   0  0  0  0  0  0
  -27.3651  -12.5564   17.7877 H   0  0  0  0  0  0
  -27.6408  -14.2516   19.4829 H   0  0  0  0  0  0
  -28.7211  -12.1179   21.3914 H   0  0  0  0  0  0
  -28.4394  -13.7888   21.8040 H   0  0  0  0  0  0
  -25.2775   -9.5670   22.4721 H   0  0  0  0  0  0
  -24.0024   -7.4634   22.7474 H   0  0  0  0  0  0
  -21.0840   -8.8741   19.8957 H   0  0  0  0  0  0
  -22.3681  -10.9646   19.6164 H   0  0  0  0  0  0
  -21.1991   -7.6144   23.9689 H   0  0  0  0  0  0
  -21.1497   -6.0526   25.9065 H   0  0  0  0  0  0
  -22.0599   -2.7610   23.2840 H   0  0  0  0  0  0
  -22.4154  -11.9816   22.4798 H   0  0  0  0  0  0
  -21.1151  -13.1180   22.2678 H   0  0  0  0  0  0
  -24.6503  -15.8416   20.5019 H   0  0  0  0  0  0
  -26.2625  -15.6316   20.0580 H   0  0  0  0  0  0
  -26.7191  -32.5424   23.1093 H   0  0  0  0  0  0
  -25.0046  -33.9709   25.0391 H   0  0  0  0  0  0
  -22.7204  -31.3034   21.3957 H   0  0  0  0  0  0
  -23.3758  -35.9616   23.3294 H   0  0  0  0  0  0
  -24.3582  -36.8925   22.2057 H   0  0  0  0  0  0
  -23.7239  -37.6486   23.6676 H   0  0  0  0  0  0
  -26.1118  -31.5466   20.6160 H   0  0  0  0  0  0
  -26.8467  -30.8215   22.0134 H   0  0  0  0  0  0
  -28.1234  -28.9583   21.1942 H   0  0  0  0  0  0
  -25.9893  -25.9212   18.9925 H   0  0  0  0  0  0
  -23.9746  -27.3085   19.0040 H   0  0  0  0  0  0
  -23.7660  -30.5918   19.4028 H   0  0  0  0  0  0
  -22.7634  -29.2474   19.8529 H   0  0  0  0  0  0
  -25.1301  -36.1915   25.0826 H   0  0  0  0  0  0
  -21.0013  -28.3287   24.1387 H   0  0  0  0  0  0
  -20.5690  -26.2309   23.3633 H   0  0  0  0  0  0
  -21.6645  -26.7426   22.1201 H   0  0  0  0  0  0
  -19.6902  -25.6285   21.1267 H   0  0  0  0  0  0
  -19.6699  -27.3188   20.6764 H   0  0  0  0  0  0
  -17.4206  -26.6714   21.4030 H   0  0  0  0  0  0
  -18.0309  -26.0083   22.9028 H   0  0  0  0  0  0
  -19.7941  -30.7296   24.2261 H   0  0  0  0  0  0
  -17.5010  -31.6268   24.5169 H   0  0  0  0  0  0
  -15.5355  -30.2979   23.7653 H   0  0  0  0  0  0
  -15.8694  -28.0830   22.7039 H   0  0  0  0  0  0
  -24.5846  -30.7156   25.7761 H   0  0  0  0  0  0
  -24.8945  -32.2937   26.4905 H   0  0  0  0  0  0
  -25.8009  -30.8883   27.0212 H   0  0  0  0  0  0
  -26.2927  -29.6766   24.1229 H   0  0  0  0  0  0
  -27.3980  -29.7277   25.4765 H   0  0  0  0  0  0
  -27.8824  -30.4288   23.9505 H   0  0  0  0  0  0
  -27.2613  -33.3640   26.2095 H   0  0  0  0  0  0
  -28.3821  -32.6964   25.0321 H   0  0  0  0  0  0
  -28.0732  -31.8490   26.5406 H   0  0  0  0  0  0
  -28.2575  -38.0115   24.7516 H   0  0  0  0  0  0
  -28.1108  -36.2644   24.6253 H   0  0  0  0  0  0
  -27.2305  -37.1398   25.8857 H   0  0  0  0  0  0
  -20.9386  -29.8766   21.6855 H   0  0  0  0  0  0
  -26.0170  -38.2847   24.1422 H   0  0  0  0  0  0
  -30.9185  -20.8014   18.7242 H   0  0  0  0  0  0
  -28.0863  -22.3172   21.6039 H   0  0  0  0  0  0
  -31.3502  -22.3585   16.7708 H   0  0  0  0  0  0
  -32.3073  -23.3919   17.8344 H   0  0  0  0  0  0
  -30.9729  -24.0736   16.9031 H   0  0  0  0  0  0
  -28.6875  -19.8463   21.6592 H   0  0  0  0  0  0
  -30.4116  -19.9541   21.6140 H   0  0  0  0  0  0
  -28.2724  -25.0930   21.7542 H   0  0  0  0  0  0
  -26.9994  -24.7750   20.6411 H   0  0  0  0  0  0
  -30.2344  -18.6168   19.3053 H   0  0  0  0  0  0
  -28.6240  -18.2430   19.8208 H   0  0  0  0  0  0
  -29.9377  -17.3695   22.0578 H   0  0  0  0  0  0
  -31.3107  -17.3140   21.0100 H   0  0  0  0  0  0
  -28.8588  -15.5838   20.8106 H   0  0  0  0  0  0
  1 25  1  0  0  0
  1 30  2  0  0  0
  1 82  1  0  0  0
  2  3  1  0  0  0
  2 25  1  0  0  0
  2 83  1  0  0  0
  2 84  1  0  0  0
  3  4  1  0  0  0
  3 85  1  0  0  0
  3 86  1  0  0  0
  4  5  1  0  0  0
  4 87  1  0  0  0
  4 88  1  0  0  0
  5  6  1  0  0  0
  5 26  1  0  0  0
  5 89  1  0  0  0
  6 25  1  0  0  0
  6 90  1  0  0  0
  6 91  1  0  0  0
  7  8  2  0  0  0
  7 26  1  0  0  0
  7 29  1  0  0  0
  8  9  1  0  0  0
  8 22  1  0  0  0
  9 10  1  0  0  0
  9 27  2  0  0  0
 10 11  2  0  0  0
 10 15  1  0  0  0
 11 12  1  0  0  0
 11 92  1  0  0  0
 12 13  2  0  0  0
 12 93  1  0  0  0
 13 14  1  0  0  0
 13 31  1  0  0  0
 14 15  2  0  0  0
 14 94  1  0  0  0
 15 95  1  0  0  0
 16 17  2  0  0  0
 16 21  1  0  0  0
 16 31  1  0  0  0
 17 18  1  0  0  0
 17 96  1  0  0  0
 18 19  2  0  0  0
 18 97  1  0  0  0
 19 20  1  0  0  0
 19 24  1  0  0  0
 20 21  2  0  0  0
 20 98  1  0  0  0
 21 23  1  0  0  0
 22 28  1  0  0  0
 22 32  2  0  0  0
 26 27  1  0  0  0
 28 99  1  0  0  0
 28100  1  0  0  0
 29101  1  0  0  0
 29102  1  0  0  0
 33 34  1  0  0  0
 33 66  1  0  0  0
 33 70  2  0  0  0
 34 36  1  0  0  0
 34 59  1  0  0  0
 34103  1  0  0  0
 35 44  2  0  0  0
 35 45  1  0  0  0
 35 68  1  0  0  0
 36 56  1  0  0  0
 36104  1  0  0  0
 37 39  1  0  0  0
 37 47  1  0  0  0
 37 66  1  0  0  0
 37105  1  0  0  0
 38 43  2  0  0  0
 38 46  1  0  0  0
 38 47  1  0  0  0
 39 64  1  0  0  0
 39 67  2  0  0  0
 40 52  1  0  0  0
 40 53  2  0  0  0
 40 58  1  0  0  0
 41106  1  0  0  0
 41107  1  0  0  0
 41108  1  0  0  0
 41 48  1  0  0  0
 42 43  1  0  0  0
 42 66  1  0  0  0
 42109  1  0  0  0
 42110  1  0  0  0
 43 44  1  0  0  0
 44111  1  0  0  0
 45 46  2  0  0  0
 45112  1  0  0  0
 46113  1  0  0  0
 47114  1  0  0  0
 47115  1  0  0  0
 48 56  1  0  0  0
 48 65  1  0  0  0
 48116  1  0  0  0
 49 50  1  0  0  0
 49 53  1  0  0  0
 49 64  1  0  0  0
 49117  1  0  0  0
 50 51  1  0  0  0
 50118  1  0  0  0
 50119  1  0  0  0
 51 52  1  0  0  0
 51120  1  0  0  0
 51121  1  0  0  0
 52122  1  0  0  0
 52123  1  0  0  0
 53 54  1  0  0  0
 54 55  2  0  0  0
 54124  1  0  0  0
 55 57  1  0  0  0
 55125  1  0  0  0
 56 69  2  0  0  0
 57 58  2  0  0  0
 57126  1  0  0  0
 58127  1  0  0  0
 59 60  1  0  0  0
 59 61  1  0  0  0
 59 62  1  0  0  0
 60128  1  0  0  0
 60129  1  0  0  0
 60130  1  0  0  0
 61131  1  0  0  0
 61132  1  0  0  0
 61133  1  0  0  0
 62134  1  0  0  0
 62135  1  0  0  0
 62136  1  0  0  0
 63 65  1  0  0  0
 63137  1  0  0  0
 63138  1  0  0  0
 63139  1  0  0  0
 64140  1  0  0  0
 65141  1  0  0  0
 68 78  1  0  0  0
 71 73  2  0  0  0
 71 74  1  0  0  0
 71142  1  0  0  0
 72 73  1  0  0  0
 72 75  2  0  0  0
 72143  1  0  0  0
 73 77  1  0  0  0
 74 76  1  0  0  0
 74 81  2  0  0  0
 75 78  1  0  0  0
 75 81  1  0  0  0
 76144  1  0  0  0
 76145  1  0  0  0
 76146  1  0  0  0
 77 79  1  0  0  0
 77147  1  0  0  0
 77148  1  0  0  0
 78149  1  0  0  0
 78150  1  0  0  0
 79 80  1  0  0  0
 79151  1  0  0  0
 79152  1  0  0  0
 80 82  1  0  0  0
 80153  1  0  0  0
 80154  1  0  0  0
 82155  1  0  0  0
M  ISO  4   1 100  68 101  78 101  82 100
M  END
> <chiral flag>
0

> <version>
0

> <s_m_source_file>
/data/baiqing/PycharmProjects/Reinvent-master-3.2/result/LINK_invent/BTK/process_docking_weight1_custom_sum_contain_oxygen_bond_distance_aromatic_linkinvent_7_9_3/rearranged_h_0041.sdf

> <i_m_source_file_index>
76

> <r_mmod_Potential_Energy-OPLS-2005>
-34.0354881286621

> <r_mmod_Stretch_Energy-OPLS-2005>
100.121620178223

> <r_mmod_Bend_Energy-OPLS-2005>
148.229858398438

> <r_mmod_Torsional_Energy-OPLS-2005>
229.690368652344

> <r_mmod_Improper_Torsional_Energy-OPLS-2005>
5.10190773010254

> <r_mmod_Van_der_Waal_Energy-OPLS-2005>
139.326919555664

> <r_mmod_Electrostatic_Energy-OPLS-2005>
-492.619079589844

> <r_mmod_Solvation_Energy-OPLS-2005>
-230.772933959961

> <b_mmod_Minimization_Converged-OPLS-2005>
0

> <r_mmod_RMS_Derivative-OPLS-2005>
2.03116416931152

$$$$
76
                    3D
 Structure written by MMmdl.
163171  0  0  1  0            999 V2000
  -30.6727  -14.4644   20.6141 C   0  0  0  0  0  0
  -30.4359  -12.3181   19.4062 C   0  0  0  0  0  0
  -29.4934  -12.5195   18.1998 C   0  0  0  0  0  0
  -28.0107  -12.3711   18.6063 C   0  0  0  0  0  0
  -27.6641  -13.1861   19.8816 C   0  0  2  0  0  0
  -28.7103  -12.9024   20.9874 C   0  0  0  0  0  0
  -25.2629  -13.8112   20.5665 C   0  0  0  0  0  0
  -24.1837  -13.0430   20.9130 C   0  0  0  0  0  0
  -24.6341  -11.6881   20.8698 C   0  0  0  0  0  0
  -23.8992  -10.4283   21.0386 C   0  0  0  0  0  0
  -24.3569   -9.4222   21.9174 C   0  0  0  0  0  0
  -23.6279   -8.2241   22.0742 C   0  0  0  0  0  0
  -22.4275   -8.0263   21.3517 C   0  0  0  0  0  0
  -21.9872   -9.0222   20.4618 C   0  0  0  0  0  0
  -22.7157  -10.2124   20.3038 C   0  0  0  0  0  0
  -21.6851   -6.0716   22.5261 C   0  0  0  0  0  0
  -21.4002   -6.5623   23.8198 C   0  0  0  0  0  0
  -21.3666   -5.6777   24.9174 C   0  0  0  0  0  0
  -21.6067   -4.3036   24.7219 C   0  0  0  0  0  0
  -21.8846   -3.8125   23.4339 C   0  0  0  0  0  0
  -21.9201   -4.6944   22.3389 C   0  0  0  0  0  0
  -22.7876  -13.5273   21.1783 C   0  0  0  0  0  0
  -22.1664   -4.2130   21.0966 F   0  0  0  0  0  0
  -21.5638   -3.4524   25.7733 F   0  0  0  0  0  0
  -30.0305  -13.2710   20.4529 N   0  0  0  0  0  0
  -26.3033  -12.9226   20.3406 N   0  0  0  0  0  0
  -25.9270  -11.6411   20.5779 N   0  0  0  0  0  0
  -22.0493  -12.8321   22.0357 N   0  0  0  0  0  0
  -25.4460  -15.1808   20.4071 N   0  0  0  0  0  0
  -31.7861  -14.6487   20.1046 O   0  0  0  0  0  0
  -21.6636   -6.8860   21.4223 O   0  0  0  0  0  0
  -22.3580  -14.5564   20.6587 O   0  0  0  0  0  0
  -24.6117  -31.8700   23.2136 C   0  0  0  0  0  0
  -25.9038  -32.4827   23.8409 C   0  0  1  0  0  0
  -27.2311  -27.4730   20.0837 C   0  0  0  0  0  0
  -25.5902  -33.8622   24.2343 N   0  0  0  0  0  0
  -23.3970  -30.4957   21.5527 C   0  0  2  0  0  0
  -24.8432  -28.9672   20.1120 C   0  0  0  0  0  0
  -22.7398  -29.4673   22.5002 C   0  0  0  0  0  0
  -18.0269  -28.1383   22.8500 C   0  0  0  0  0  0
  -24.1481  -36.7313   23.2639 C   0  0  0  0  0  0
  -25.9228  -30.8508   21.3585 C   0  0  0  0  0  0
  -26.0036  -29.4889   20.7011 C   0  0  0  0  0  0
  -27.2050  -28.7497   20.6817 C   0  0  0  0  0  0
  -26.0628  -26.9567   19.4898 C   0  0  0  0  0  0
  -24.8654  -27.6989   19.5041 C   0  0  0  0  0  0
  -23.6044  -29.8315   20.1653 C   0  0  0  0  0  0
  -25.4104  -36.3109   24.0339 C   0  0  1  0  0  0
  -20.5859  -28.3649   23.1341 C   0  0  2  0  0  0
  -20.6768  -26.9400   22.5428 C   0  0  0  0  0  0
  -19.5747  -26.6384   21.5227 C   0  0  0  0  0  0
  -18.1914  -26.7936   22.1620 C   0  0  0  0  0  0
  -19.1520  -28.8839   23.2925 C   0  0  0  0  0  0
  -18.9457  -30.1443   23.8928 C   0  0  0  0  0  0
  -17.6453  -30.6592   24.0576 C   0  0  0  0  0  0
  -25.9027  -34.9473   23.5136 C   0  0  0  0  0  0
  -16.5349  -29.9102   23.6328 C   0  0  0  0  0  0
  -16.7260  -28.6521   23.0340 C   0  0  0  0  0  0
  -26.4476  -31.6598   25.0719 C   0  0  0  0  0  0
  -25.3765  -31.3712   26.1489 C   0  0  0  0  0  0
  -27.0283  -30.3042   24.6048 C   0  0  0  0  0  0
  -27.6055  -32.4310   25.7475 C   0  0  0  0  0  0
  -27.5577  -37.1813   24.8466 C   0  0  0  0  0  0
  -21.4129  -29.3032   22.3750 N   0  0  0  0  0  0
  -26.4294  -37.3795   23.9406 N   0  0  0  0  0  0
  -24.6624  -31.0840   22.1008 N   0  0  0  0  0  0
  -23.4192  -28.8199   23.3022 O   0  0  0  0  0  0
  -28.3692  -26.7110   20.1179 O   0  0  0  0  0  0
  -26.5580  -34.8926   22.4686 O   0  0  0  0  0  0
  -23.5326  -32.1430   23.7568 O   0  0  0  0  0  0
  -30.0203  -22.5241   21.3188 C   0  0  0  0  0  0
  -29.9791  -23.8164   20.7249 C   0  0  0  0  0  0
  -30.3933  -21.6090   20.3776 C   0  0  0  0  0  0
  -30.3021  -23.6500   19.4018 C   0  0  0  0  0  0
  -30.4005  -24.6623   18.3008 C   0  0  0  0  0  0
  -30.9392  -21.6844   17.9155 C   0  0  0  0  0  0
  -29.6574  -25.0987   21.4654 C   0  0  0  0  0  0
  -30.6104  -20.1318   20.5289 C   0  0  0  0  0  0
  -29.5120  -18.1929   21.5016 C   0  0  0  0  0  0
  -28.2879  -25.7100   21.1333 C   0  0  0  0  0  0
  -30.0194  -15.6605   21.3782 C   0  0  0  0  0  0
  -30.2455  -17.0621   20.7344 C   0  0  0  0  0  0
  -30.5556  -22.2955   19.1825 N   0  0  0  0  0  0
  -29.3498  -19.4389   20.7478 N   0  0  0  0  0  0
  -30.4802  -15.6678   22.6293 F   0  0  0  0  0  0
  -28.6941  -15.5477   21.4366 F   0  0  0  0  0  0
  -31.5477  -17.3472   20.6781 F   0  0  0  0  0  0
  -29.7832  -17.0301   19.4801 F   0  0  0  0  0  0
  -31.4742  -12.4472   19.0921 H   0  0  0  0  0  0
  -30.3701  -11.2965   19.7837 H   0  0  0  0  0  0
  -29.7409  -11.8099   17.4088 H   0  0  0  0  0  0
  -29.6522  -13.5146   17.7821 H   0  0  0  0  0  0
  -27.8125  -11.3122   18.7777 H   0  0  0  0  0  0
  -27.3666  -12.6705   17.7773 H   0  0  0  0  0  0
  -27.7157  -14.2386   19.6072 H   0  0  0  0  0  0
  -28.7026  -11.8395   21.2299 H   0  0  0  0  0  0
  -28.4754  -13.3789   21.9381 H   0  0  0  0  0  0
  -25.2706   -9.5743   22.4758 H   0  0  0  0  0  0
  -23.9996   -7.4665   22.7492 H   0  0  0  0  0  0
  -21.0780   -8.8731   19.8944 H   0  0  0  0  0  0
  -22.3580  -10.9674   19.6169 H   0  0  0  0  0  0
  -21.1966   -7.6130   23.9690 H   0  0  0  0  0  0
  -21.1463   -6.0503   25.9080 H   0  0  0  0  0  0
  -22.0612   -2.7583   23.2842 H   0  0  0  0  0  0
  -22.4018  -11.9975   22.4820 H   0  0  0  0  0  0
  -21.1116  -13.1422   22.2444 H   0  0  0  0  0  0
  -24.6945  -15.8543   20.5100 H   0  0  0  0  0  0
  -26.3261  -15.6055   20.1421 H   0  0  0  0  0  0
  -26.7104  -32.5553   23.1178 H   0  0  0  0  0  0
  -25.0077  -33.9786   25.0500 H   0  0  0  0  0  0
  -22.6851  -31.3116   21.4183 H   0  0  0  0  0  0
  -23.3735  -35.9654   23.3299 H   0  0  0  0  0  0
  -24.3591  -36.8926   22.2061 H   0  0  0  0  0  0
  -23.7243  -37.6521   23.6651 H   0  0  0  0  0  0
  -26.0286  -31.6225   20.5952 H   0  0  0  0  0  0
  -26.8144  -30.9036   21.9720 H   0  0  0  0  0  0
  -28.1032  -29.1468   21.1360 H   0  0  0  0  0  0
  -26.0775  -25.9797   19.0276 H   0  0  0  0  0  0
  -23.9724  -27.2896   19.0525 H   0  0  0  0  0  0
  -23.7137  -30.6112   19.4113 H   0  0  0  0  0  0
  -22.7274  -29.2557   19.8636 H   0  0  0  0  0  0
  -25.1282  -36.1975   25.0834 H   0  0  0  0  0  0
  -20.9950  -28.3218   24.1464 H   0  0  0  0  0  0
  -20.5684  -26.2260   23.3609 H   0  0  0  0  0  0
  -21.6629  -26.7457   22.1206 H   0  0  0  0  0  0
  -19.6902  -25.6300   21.1241 H   0  0  0  0  0  0
  -19.6693  -27.3211   20.6773 H   0  0  0  0  0  0
  -17.4195  -26.6703   21.4010 H   0  0  0  0  0  0
  -18.0294  -26.0077   22.9009 H   0  0  0  0  0  0
  -19.7933  -30.7254   24.2302 H   0  0  0  0  0  0
  -17.5018  -31.6274   24.5176 H   0  0  0  0  0  0
  -15.5352  -30.3018   23.7643 H   0  0  0  0  0  0
  -15.8653  -28.0867   22.7024 H   0  0  0  0  0  0
  -24.5909  -30.7083   25.7846 H   0  0  0  0  0  0
  -24.8992  -32.2878   26.4966 H   0  0  0  0  0  0
  -25.8138  -30.8863   27.0226 H   0  0  0  0  0  0
  -26.2795  -29.6816   24.1136 H   0  0  0  0  0  0
  -27.4113  -29.7267   25.4468 H   0  0  0  0  0  0
  -27.8602  -30.4365   23.9129 H   0  0  0  0  0  0
  -27.2677  -33.3608   26.2070 H   0  0  0  0  0  0
  -28.3862  -32.6882   25.0302 H   0  0  0  0  0  0
  -28.0720  -31.8425   26.5390 H   0  0  0  0  0  0
  -28.2603  -38.0100   24.7490 H   0  0  0  0  0  0
  -28.1065  -36.2634   24.6303 H   0  0  0  0  0  0
  -27.2302  -37.1470   25.8873 H   0  0  0  0  0  0
  -20.9279  -29.8770   21.6988 H   0  0  0  0  0  0
  -26.0176  -38.2868   24.1414 H   0  0  0  0  0  0
  -29.8152  -22.2817   22.3526 H   0  0  0  0  0  0
  -30.1642  -25.6640   18.6546 H   0  0  0  0  0  0
  -29.7028  -24.4310   17.4943 H   0  0  0  0  0  0
  -31.4071  -24.6949   17.8843 H   0  0  0  0  0  0
  -31.8795  -21.1449   18.0405 H   0  0  0  0  0  0
  -31.0728  -22.4292   17.1306 H   0  0  0  0  0  0
  -30.1650  -20.9825   17.5983 H   0  0  0  0  0  0
  -30.4484  -25.8309   21.3030 H   0  0  0  0  0  0
  -29.6779  -24.8676   22.5315 H   0  0  0  0  0  0
  -31.2700  -19.9740   21.3824 H   0  0  0  0  0  0
  -31.1261  -19.7032   19.6680 H   0  0  0  0  0  0
  -29.9991  -18.3835   22.4574 H   0  0  0  0  0  0
  -28.5021  -17.8608   21.7435 H   0  0  0  0  0  0
  -27.9008  -26.1730   22.0443 H   0  0  0  0  0  0
  -27.5757  -24.9314   20.8577 H   0  0  0  0  0  0
  -28.9975  -19.1653   19.8365 H   0  0  0  0  0  0
  1 25  1  0  0  0
  1 30  2  0  0  0
  1 81  1  0  0  0
  2  3  1  0  0  0
  2 25  1  0  0  0
  2 89  1  0  0  0
  2 90  1  0  0  0
  3  4  1  0  0  0
  3 91  1  0  0  0
  3 92  1  0  0  0
  4  5  1  0  0  0
  4 93  1  0  0  0
  4 94  1  0  0  0
  5  6  1  0  0  0
  5 26  1  0  0  0
  5 95  1  0  0  0
  6 25  1  0  0  0
  6 96  1  0  0  0
  6 97  1  0  0  0
  7  8  2  0  0  0
  7 26  1  0  0  0
  7 29  1  0  0  0
  8  9  1  0  0  0
  8 22  1  0  0  0
  9 10  1  0  0  0
  9 27  2  0  0  0
 10 11  2  0  0  0
 10 15  1  0  0  0
 11 12  1  0  0  0
 11 98  1  0  0  0
 12 13  2  0  0  0
 12 99  1  0  0  0
 13 14  1  0  0  0
 13 31  1  0  0  0
 14 15  2  0  0  0
 14100  1  0  0  0
 15101  1  0  0  0
 16 17  2  0  0  0
 16 21  1  0  0  0
 16 31  1  0  0  0
 17 18  1  0  0  0
 17102  1  0  0  0
 18 19  2  0  0  0
 18103  1  0  0  0
 19 20  1  0  0  0
 19 24  1  0  0  0
 20 21  2  0  0  0
 20104  1  0  0  0
 21 23  1  0  0  0
 22 28  1  0  0  0
 22 32  2  0  0  0
 26 27  1  0  0  0
 28105  1  0  0  0
 28106  1  0  0  0
 29107  1  0  0  0
 29108  1  0  0  0
 33 34  1  0  0  0
 33 66  1  0  0  0
 33 70  2  0  0  0
 34 36  1  0  0  0
 34 59  1  0  0  0
 34109  1  0  0  0
 35 44  2  0  0  0
 35 45  1  0  0  0
 35 68  1  0  0  0
 36 56  1  0  0  0
 36110  1  0  0  0
 37 39  1  0  0  0
 37 47  1  0  0  0
 37 66  1  0  0  0
 37111  1  0  0  0
 38 43  2  0  0  0
 38 46  1  0  0  0
 38 47  1  0  0  0
 39 64  1  0  0  0
 39 67  2  0  0  0
 40 52  1  0  0  0
 40 53  2  0  0  0
 40 58  1  0  0  0
 41112  1  0  0  0
 41113  1  0  0  0
 41114  1  0  0  0
 41 48  1  0  0  0
 42 43  1  0  0  0
 42 66  1  0  0  0
 42115  1  0  0  0
 42116  1  0  0  0
 43 44  1  0  0  0
 44117  1  0  0  0
 45 46  2  0  0  0
 45118  1  0  0  0
 46119  1  0  0  0
 47120  1  0  0  0
 47121  1  0  0  0
 48 56  1  0  0  0
 48 65  1  0  0  0
 48122  1  0  0  0
 49 50  1  0  0  0
 49 53  1  0  0  0
 49 64  1  0  0  0
 49123  1  0  0  0
 50 51  1  0  0  0
 50124  1  0  0  0
 50125  1  0  0  0
 51 52  1  0  0  0
 51126  1  0  0  0
 51127  1  0  0  0
 52128  1  0  0  0
 52129  1  0  0  0
 53 54  1  0  0  0
 54 55  2  0  0  0
 54130  1  0  0  0
 55 57  1  0  0  0
 55131  1  0  0  0
 56 69  2  0  0  0
 57 58  2  0  0  0
 57132  1  0  0  0
 58133  1  0  0  0
 59 60  1  0  0  0
 59 61  1  0  0  0
 59 62  1  0  0  0
 60134  1  0  0  0
 60135  1  0  0  0
 60136  1  0  0  0
 61137  1  0  0  0
 61138  1  0  0  0
 61139  1  0  0  0
 62140  1  0  0  0
 62141  1  0  0  0
 62142  1  0  0  0
 63 65  1  0  0  0
 63143  1  0  0  0
 63144  1  0  0  0
 63145  1  0  0  0
 64146  1  0  0  0
 65147  1  0  0  0
 68 80  1  0  0  0
 71 72  1  0  0  0
 71 73  2  0  0  0
 71148  1  0  0  0
 72 74  2  0  0  0
 72 77  1  0  0  0
 73 78  1  0  0  0
 73 83  1  0  0  0
 74 75  1  0  0  0
 74 83  1  0  0  0
 75149  1  0  0  0
 75150  1  0  0  0
 75151  1  0  0  0
 76 83  1  0  0  0
 76152  1  0  0  0
 76153  1  0  0  0
 76154  1  0  0  0
 77 80  1  0  0  0
 77155  1  0  0  0
 77156  1  0  0  0
 78 84  1  0  0  0
 78157  1  0  0  0
 78158  1  0  0  0
 79 82  1  0  0  0
 79 84  1  0  0  0
 79159  1  0  0  0
 79160  1  0  0  0
 80161  1  0  0  0
 80162  1  0  0  0
 81 82  1  0  0  0
 81 85  1  0  0  0
 81 86  1  0  0  0
 82 87  1  0  0  0
 82 88  1  0  0  0
 84163  1  0  0  0
M  ISO  4   1 100  68 101  80 101  81 100
M  END
> <chiral flag>
0

> <version>
0

> <s_m_source_file>
/data/baiqing/PycharmProjects/Reinvent-master-3.2/result/LINK_invent/BTK/process_docking_weight1_custom_sum_contain_oxygen_bond_distance_aromatic_linkinvent_7_9_3/rearranged_h_0041.sdf

> <i_m_source_file_index>
77

> <r_mmod_Potential_Energy-OPLS-2005>
9.71640396118164

> <r_mmod_Stretch_Energy-OPLS-2005>
35.6645584106445

> <r_mmod_Bend_Energy-OPLS-2005>
103.314918518066

> <r_mmod_Torsional_Energy-OPLS-2005>
186.707290649414

> <r_mmod_Improper_Torsional_Energy-OPLS-2005>
2.04829335212708

> <r_mmod_Van_der_Waal_Energy-OPLS-2005>
139.87548828125

> <r_mmod_Electrostatic_Energy-OPLS-2005>
-275.500335693359

> <r_mmod_Solvation_Energy-OPLS-2005>
-193.994277954102

> <b_mmod_Minimization_Converged-OPLS-2005>
0

> <r_mmod_RMS_Derivative-OPLS-2005>
3.24995851516724

$$$$
77
                    3D
 Structure written by MMmdl.
164172  0  0  1  0            999 V2000
  -30.7294  -14.2893   20.7361 C   0  0  0  0  0  0
  -30.4202  -12.2660   19.3498 C   0  0  0  0  0  0
  -29.4675  -12.5524   18.1709 C   0  0  0  0  0  0
  -27.9917  -12.3943   18.5839 C   0  0  0  0  0  0
  -27.6683  -13.1727   19.8864 C   0  0  2  0  0  0
  -28.7004  -12.8265   20.9799 C   0  0  0  0  0  0
  -25.2685  -13.8114   20.5604 C   0  0  0  0  0  0
  -24.1877  -13.0424   20.9103 C   0  0  0  0  0  0
  -24.6354  -11.6888   20.8674 C   0  0  0  0  0  0
  -23.8995  -10.4304   21.0380 C   0  0  0  0  0  0
  -24.3576   -9.4259   21.9168 C   0  0  0  0  0  0
  -23.6282   -8.2278   22.0768 C   0  0  0  0  0  0
  -22.4277   -8.0279   21.3546 C   0  0  0  0  0  0
  -21.9881   -9.0230   20.4642 C   0  0  0  0  0  0
  -22.7171  -10.2130   20.3039 C   0  0  0  0  0  0
  -21.6889   -6.0751   22.5278 C   0  0  0  0  0  0
  -21.4037   -6.5661   23.8208 C   0  0  0  0  0  0
  -21.3646   -5.6804   24.9166 C   0  0  0  0  0  0
  -21.6043   -4.3068   24.7215 C   0  0  0  0  0  0
  -21.8828   -3.8160   23.4341 C   0  0  0  0  0  0
  -21.9211   -4.6977   22.3402 C   0  0  0  0  0  0
  -22.7953  -13.5304   21.1781 C   0  0  0  0  0  0
  -22.1690   -4.2158   21.0982 F   0  0  0  0  0  0
  -21.5589   -3.4559   25.7734 F   0  0  0  0  0  0
  -30.0516  -13.1470   20.4667 N   0  0  0  0  0  0
  -26.3041  -12.9164   20.3346 N   0  0  0  0  0  0
  -25.9257  -11.6359   20.5728 N   0  0  0  0  0  0
  -22.0601  -12.8261   22.0334 N   0  0  0  0  0  0
  -25.4545  -15.1781   20.4016 N   0  0  0  0  0  0
  -31.7132  -14.6856   20.1006 O   0  0  0  0  0  0
  -21.6671   -6.8863   21.4235 O   0  0  0  0  0  0
  -22.3648  -14.5637   20.6724 O   0  0  0  0  0  0
  -24.6121  -31.8780   23.2092 C   0  0  0  0  0  0
  -25.8971  -32.4913   23.8443 C   0  0  1  0  0  0
  -27.2554  -27.4665   20.0149 C   0  0  0  0  0  0
  -25.5857  -33.8714   24.2346 N   0  0  0  0  0  0
  -23.4056  -30.4933   21.5542 C   0  0  2  0  0  0
  -24.8519  -28.9614   20.1176 C   0  0  0  0  0  0
  -22.7372  -29.4710   22.5013 C   0  0  0  0  0  0
  -18.0281  -28.1402   22.8547 C   0  0  0  0  0  0
  -24.1489  -36.7343   23.2653 C   0  0  0  0  0  0
  -25.9391  -30.8308   21.3766 C   0  0  0  0  0  0
  -26.0138  -29.4712   20.7070 C   0  0  0  0  0  0
  -27.2149  -28.7268   20.6605 C   0  0  0  0  0  0
  -26.0641  -26.9671   19.4372 C   0  0  0  0  0  0
  -24.8668  -27.7048   19.4893 C   0  0  0  0  0  0
  -23.6115  -29.8212   20.1757 C   0  0  0  0  0  0
  -25.4119  -36.3153   24.0343 C   0  0  1  0  0  0
  -20.5858  -28.3708   23.1353 C   0  0  2  0  0  0
  -20.6757  -26.9450   22.5451 C   0  0  0  0  0  0
  -19.5758  -26.6383   21.5260 C   0  0  0  0  0  0
  -18.1912  -26.7952   22.1644 C   0  0  0  0  0  0
  -19.1526  -28.8859   23.2962 C   0  0  0  0  0  0
  -18.9427  -30.1429   23.9028 C   0  0  0  0  0  0
  -17.6445  -30.6630   24.0581 C   0  0  0  0  0  0
  -25.9022  -34.9525   23.5118 C   0  0  0  0  0  0
  -16.5326  -29.9131   23.6362 C   0  0  0  0  0  0
  -16.7261  -28.6519   23.0438 C   0  0  0  0  0  0
  -26.4401  -31.6765   25.0838 C   0  0  0  0  0  0
  -25.3599  -31.3950   26.1537 C   0  0  0  0  0  0
  -27.0317  -30.3182   24.6352 C   0  0  0  0  0  0
  -27.5975  -32.4585   25.7545 C   0  0  0  0  0  0
  -27.5607  -37.1778   24.8438 C   0  0  0  0  0  0
  -21.4085  -29.3108   22.3759 N   0  0  0  0  0  0
  -26.4323  -37.3833   23.9401 N   0  0  0  0  0  0
  -24.6695  -31.0815   22.1049 N   0  0  0  0  0  0
  -23.4110  -28.8171   23.3024 O   0  0  0  0  0  0
  -28.4604  -26.7904   19.9300 O   0  0  0  0  0  0
  -26.5615  -34.8964   22.4691 O   0  0  0  0  0  0
  -23.5273  -32.1566   23.7403 O   0  0  0  0  0  0
  -29.4841  -21.2842   16.9628 C   0  0  0  0  0  0
  -28.4120  -22.5015   19.1628 C   0  0  0  0  0  0
  -29.3220  -22.6860   16.9297 C   0  0  0  0  0  0
  -28.8021  -23.3345   18.0899 C   0  0  0  0  0  0
  -29.0949  -20.5649   18.1068 C   0  0  0  0  0  0
  -29.6793  -23.3974   15.6296 C   0  0  0  0  0  0
  -28.6260  -24.8675   18.2151 C   0  0  0  0  0  0
  -29.0974  -19.0464   18.1442 C   0  0  0  0  0  0
  -29.7174  -18.4149   19.4167 C   0  0  0  0  0  0
  -28.9334  -17.1623   19.8717 C   0  0  0  0  0  0
  -28.8956  -16.9749   21.3974 C   0  0  0  0  0  0
  -30.2040  -16.4020   21.9625 C   0  0  0  0  0  0
  -28.4673  -25.3732   19.6881 C   0  0  0  0  0  0
  -28.5372  -21.1657   19.1712 N   0  0  0  0  0  0
  -30.1948  -14.9653   21.7555 N   0  0  0  0  0  0
  -31.4546  -12.4122   19.0337 H   0  0  0  0  0  0
  -30.3445  -11.2196   19.6523 H   0  0  0  0  0  0
  -29.6921  -11.9090   17.3199 H   0  0  0  0  0  0
  -29.6259  -13.5760   17.8247 H   0  0  0  0  0  0
  -27.7757  -11.3305   18.7073 H   0  0  0  0  0  0
  -27.3423  -12.7369   17.7797 H   0  0  0  0  0  0
  -27.7538  -14.2364   19.6641 H   0  0  0  0  0  0
  -28.6563  -11.7583   21.2089 H   0  0  0  0  0  0
  -28.4278  -13.3162   21.9136 H   0  0  0  0  0  0
  -25.2721   -9.5806   22.4722 H   0  0  0  0  0  0
  -24.0037   -7.4713   22.7514 H   0  0  0  0  0  0
  -21.0812   -8.8679   19.8956 H   0  0  0  0  0  0
  -22.3565  -10.9644   19.6145 H   0  0  0  0  0  0
  -21.2074   -7.6171   23.9706 H   0  0  0  0  0  0
  -21.1444   -6.0547   25.9053 H   0  0  0  0  0  0
  -22.0627   -2.7622   23.2847 H   0  0  0  0  0  0
  -22.4199  -11.9824   22.4539 H   0  0  0  0  0  0
  -21.1268  -13.1351   22.2643 H   0  0  0  0  0  0
  -24.7125  -15.8566   20.5344 H   0  0  0  0  0  0
  -26.3228  -15.5936   20.0907 H   0  0  0  0  0  0
  -26.7040  -32.5616   23.1198 H   0  0  0  0  0  0
  -24.9890  -33.9972   25.0378 H   0  0  0  0  0  0
  -22.6944  -31.3058   21.3930 H   0  0  0  0  0  0
  -23.3814  -35.9616   23.3322 H   0  0  0  0  0  0
  -24.3576  -36.8997   22.2080 H   0  0  0  0  0  0
  -23.7155  -37.6490   23.6700 H   0  0  0  0  0  0
  -26.0635  -31.6028   20.6129 H   0  0  0  0  0  0
  -26.8220  -30.8729   22.0066 H   0  0  0  0  0  0
  -28.1175  -29.1177   21.1100 H   0  0  0  0  0  0
  -26.0465  -26.0264   18.9096 H   0  0  0  0  0  0
  -23.9727  -27.3224   19.0175 H   0  0  0  0  0  0
  -23.7112  -30.5930   19.4120 H   0  0  0  0  0  0
  -22.7358  -29.2389   19.8877 H   0  0  0  0  0  0
  -25.1266  -36.2039   25.0842 H   0  0  0  0  0  0
  -21.0005  -28.3280   24.1458 H   0  0  0  0  0  0
  -20.5710  -26.2298   23.3606 H   0  0  0  0  0  0
  -21.6586  -26.7530   22.1186 H   0  0  0  0  0  0
  -19.6942  -25.6281   21.1319 H   0  0  0  0  0  0
  -19.6720  -27.3179   20.6769 H   0  0  0  0  0  0
  -17.4173  -26.6830   21.4041 H   0  0  0  0  0  0
  -18.0273  -26.0055   22.8996 H   0  0  0  0  0  0
  -19.7890  -30.7183   24.2528 H   0  0  0  0  0  0
  -17.5010  -31.6381   24.5061 H   0  0  0  0  0  0
  -15.5332  -30.3075   23.7604 H   0  0  0  0  0  0
  -15.8659  -28.0809   22.7209 H   0  0  0  0  0  0
  -24.5640  -30.7482   25.7814 H   0  0  0  0  0  0
  -24.8920  -32.3178   26.5025 H   0  0  0  0  0  0
  -25.7837  -30.9010   27.0278 H   0  0  0  0  0  0
  -26.3004  -29.6899   24.1282 H   0  0  0  0  0  0
  -27.3883  -29.7464   25.4914 H   0  0  0  0  0  0
  -27.8861  -30.4535   23.9728 H   0  0  0  0  0  0
  -27.2605  -33.3901   26.2136 H   0  0  0  0  0  0
  -28.3712  -32.7238   25.0317 H   0  0  0  0  0  0
  -28.0772  -31.8786   26.5426 H   0  0  0  0  0  0
  -28.2531  -38.0151   24.7548 H   0  0  0  0  0  0
  -28.1181  -36.2666   24.6190 H   0  0  0  0  0  0
  -27.2326  -37.1310   25.8830 H   0  0  0  0  0  0
  -20.9162  -29.8824   21.7040 H   0  0  0  0  0  0
  -26.0229  -38.2914   24.1399 H   0  0  0  0  0  0
  -29.8545  -20.7553   16.0920 H   0  0  0  0  0  0
  -27.9714  -22.8893   20.0650 H   0  0  0  0  0  0
  -29.1065  -22.9808   14.7993 H   0  0  0  0  0  0
  -30.7305  -23.2377   15.3841 H   0  0  0  0  0  0
  -29.4673  -24.4642   15.6476 H   0  0  0  0  0  0
  -27.7632  -25.1612   17.6178 H   0  0  0  0  0  0
  -29.4902  -25.3478   17.7622 H   0  0  0  0  0  0
  -29.5879  -18.6522   17.2515 H   0  0  0  0  0  0
  -28.0483  -18.7608   18.0636 H   0  0  0  0  0  0
  -29.7116  -19.1384   20.2338 H   0  0  0  0  0  0
  -30.7727  -18.1801   19.2525 H   0  0  0  0  0  0
  -29.3381  -16.2828   19.3693 H   0  0  0  0  0  0
  -27.8947  -17.2228   19.5520 H   0  0  0  0  0  0
  -28.0699  -16.3039   21.6454 H   0  0  0  0  0  0
  -28.6348  -17.9136   21.8895 H   0  0  0  0  0  0
  -30.2662  -16.5901   23.0345 H   0  0  0  0  0  0
  -31.0697  -16.8765   21.5013 H   0  0  0  0  0  0
  -29.3125  -24.9890   20.2610 H   0  0  0  0  0  0
  -27.5747  -24.9431   20.1424 H   0  0  0  0  0  0
  -29.4631  -14.4612   22.2366 H   0  0  0  0  0  0
  1 25  1  0  0  0
  1 30  2  0  0  0
  1 85  1  0  0  0
  2  3  1  0  0  0
  2 25  1  0  0  0
  2 86  1  0  0  0
  2 87  1  0  0  0
  3  4  1  0  0  0
  3 88  1  0  0  0
  3 89  1  0  0  0
  4  5  1  0  0  0
  4 90  1  0  0  0
  4 91  1  0  0  0
  5  6  1  0  0  0
  5 26  1  0  0  0
  5 92  1  0  0  0
  6 25  1  0  0  0
  6 93  1  0  0  0
  6 94  1  0  0  0
  7  8  2  0  0  0
  7 26  1  0  0  0
  7 29  1  0  0  0
  8  9  1  0  0  0
  8 22  1  0  0  0
  9 10  1  0  0  0
  9 27  2  0  0  0
 10 11  2  0  0  0
 10 15  1  0  0  0
 11 12  1  0  0  0
 11 95  1  0  0  0
 12 13  2  0  0  0
 12 96  1  0  0  0
 13 14  1  0  0  0
 13 31  1  0  0  0
 14 15  2  0  0  0
 14 97  1  0  0  0
 15 98  1  0  0  0
 16 17  2  0  0  0
 16 21  1  0  0  0
 16 31  1  0  0  0
 17 18  1  0  0  0
 17 99  1  0  0  0
 18 19  2  0  0  0
 18100  1  0  0  0
 19 20  1  0  0  0
 19 24  1  0  0  0
 20 21  2  0  0  0
 20101  1  0  0  0
 21 23  1  0  0  0
 22 28  1  0  0  0
 22 32  2  0  0  0
 26 27  1  0  0  0
 28102  1  0  0  0
 28103  1  0  0  0
 29104  1  0  0  0
 29105  1  0  0  0
 33 34  1  0  0  0
 33 66  1  0  0  0
 33 70  2  0  0  0
 34 36  1  0  0  0
 34 59  1  0  0  0
 34106  1  0  0  0
 35 44  2  0  0  0
 35 45  1  0  0  0
 35 68  1  0  0  0
 36 56  1  0  0  0
 36107  1  0  0  0
 37 39  1  0  0  0
 37 47  1  0  0  0
 37 66  1  0  0  0
 37108  1  0  0  0
 38 43  2  0  0  0
 38 46  1  0  0  0
 38 47  1  0  0  0
 39 64  1  0  0  0
 39 67  2  0  0  0
 40 52  1  0  0  0
 40 53  2  0  0  0
 40 58  1  0  0  0
 41109  1  0  0  0
 41110  1  0  0  0
 41111  1  0  0  0
 41 48  1  0  0  0
 42 43  1  0  0  0
 42 66  1  0  0  0
 42112  1  0  0  0
 42113  1  0  0  0
 43 44  1  0  0  0
 44114  1  0  0  0
 45 46  2  0  0  0
 45115  1  0  0  0
 46116  1  0  0  0
 47117  1  0  0  0
 47118  1  0  0  0
 48 56  1  0  0  0
 48 65  1  0  0  0
 48119  1  0  0  0
 49 50  1  0  0  0
 49 53  1  0  0  0
 49 64  1  0  0  0
 49120  1  0  0  0
 50 51  1  0  0  0
 50121  1  0  0  0
 50122  1  0  0  0
 51 52  1  0  0  0
 51123  1  0  0  0
 51124  1  0  0  0
 52125  1  0  0  0
 52126  1  0  0  0
 53 54  1  0  0  0
 54 55  2  0  0  0
 54127  1  0  0  0
 55 57  1  0  0  0
 55128  1  0  0  0
 56 69  2  0  0  0
 57 58  2  0  0  0
 57129  1  0  0  0
 58130  1  0  0  0
 59 60  1  0  0  0
 59 61  1  0  0  0
 59 62  1  0  0  0
 60131  1  0  0  0
 60132  1  0  0  0
 60133  1  0  0  0
 61134  1  0  0  0
 61135  1  0  0  0
 61136  1  0  0  0
 62137  1  0  0  0
 62138  1  0  0  0
 62139  1  0  0  0
 63 65  1  0  0  0
 63140  1  0  0  0
 63141  1  0  0  0
 63142  1  0  0  0
 64143  1  0  0  0
 65144  1  0  0  0
 68 83  1  0  0  0
 71 73  2  0  0  0
 71 75  1  0  0  0
 71145  1  0  0  0
 72 74  2  0  0  0
 72 84  1  0  0  0
 72146  1  0  0  0
 73 74  1  0  0  0
 73 76  1  0  0  0
 74 77  1  0  0  0
 75 78  1  0  0  0
 75 84  2  0  0  0
 76147  1  0  0  0
 76148  1  0  0  0
 76149  1  0  0  0
 77 83  1  0  0  0
 77150  1  0  0  0
 77151  1  0  0  0
 78 79  1  0  0  0
 78152  1  0  0  0
 78153  1  0  0  0
 79 80  1  0  0  0
 79154  1  0  0  0
 79155  1  0  0  0
 80 81  1  0  0  0
 80156  1  0  0  0
 80157  1  0  0  0
 81 82  1  0  0  0
 81158  1  0  0  0
 81159  1  0  0  0
 82 85  1  0  0  0
 82160  1  0  0  0
 82161  1  0  0  0
 83162  1  0  0  0
 83163  1  0  0  0
 85164  1  0  0  0
M  ISO  4   1 100  68 101  83 101  85 100
M  END
> <chiral flag>
0

> <version>
0

> <s_m_source_file>
/data/baiqing/PycharmProjects/Reinvent-master-3.2/result/LINK_invent/BTK/process_docking_weight1_custom_sum_contain_oxygen_bond_distance_aromatic_linkinvent_7_9_3/rearranged_h_0041.sdf

> <i_m_source_file_index>
78

> <r_mmod_Potential_Energy-OPLS-2005>
-189.012771606445

> <r_mmod_Stretch_Energy-OPLS-2005>
37.6709175109863

> <r_mmod_Bend_Energy-OPLS-2005>
107.99341583252

> <r_mmod_Torsional_Energy-OPLS-2005>
218.404861450195

> <r_mmod_Improper_Torsional_Energy-OPLS-2005>
3.97082901000977

> <r_mmod_Van_der_Waal_Energy-OPLS-2005>
164.973037719727

> <r_mmod_Electrostatic_Energy-OPLS-2005>
-519.258239746094

> <r_mmod_Solvation_Energy-OPLS-2005>
-218.119857788086

> <b_mmod_Minimization_Converged-OPLS-2005>
0

> <r_mmod_RMS_Derivative-OPLS-2005>
6.8326473236084

$$$$
78
                    3D
 Structure written by MMmdl.
167175  0  0  1  0            999 V2000
  -30.6933  -14.5954   20.4839 C   0  0  0  0  0  0
  -30.4347  -12.3653   19.4433 C   0  0  0  0  0  0
  -29.5038  -12.4682   18.2192 C   0  0  0  0  0  0
  -28.0294  -12.3343   18.6406 C   0  0  0  0  0  0
  -27.6572  -13.2261   19.8550 C   0  0  2  0  0  0
  -28.7079  -13.1081   20.9813 C   0  0  0  0  0  0
  -25.2611  -13.8206   20.5742 C   0  0  0  0  0  0
  -24.1885  -13.0448   20.9221 C   0  0  0  0  0  0
  -24.6468  -11.6932   20.8800 C   0  0  0  0  0  0
  -23.9141  -10.4295   21.0430 C   0  0  0  0  0  0
  -24.3665   -9.4202   21.9218 C   0  0  0  0  0  0
  -23.6315   -8.2246   22.0786 C   0  0  0  0  0  0
  -22.4311   -8.0307   21.3544 C   0  0  0  0  0  0
  -21.9959   -9.0295   20.4658 C   0  0  0  0  0  0
  -22.7315  -10.2152   20.3069 C   0  0  0  0  0  0
  -21.6836   -6.0764   22.5296 C   0  0  0  0  0  0
  -21.4000   -6.5662   23.8238 C   0  0  0  0  0  0
  -21.3652   -5.6807   24.9196 C   0  0  0  0  0  0
  -21.6035   -4.3082   24.7230 C   0  0  0  0  0  0
  -21.8827   -3.8169   23.4360 C   0  0  0  0  0  0
  -21.9201   -4.6985   22.3410 C   0  0  0  0  0  0
  -22.7886  -13.5239   21.1850 C   0  0  0  0  0  0
  -22.1673   -4.2178   21.0982 F   0  0  0  0  0  0
  -21.5623   -3.4558   25.7733 F   0  0  0  0  0  0
  -30.0239  -13.4068   20.4040 N   0  0  0  0  0  0
  -26.3051  -12.9413   20.3331 N   0  0  0  0  0  0
  -25.9395  -11.6573   20.5787 N   0  0  0  0  0  0
  -22.0506  -12.8197   22.0372 N   0  0  0  0  0  0
  -25.4303  -15.1930   20.4215 N   0  0  0  0  0  0
  -31.8674  -14.6982   20.1255 O   0  0  0  0  0  0
  -21.6652   -6.8925   21.4263 O   0  0  0  0  0  0
  -22.3591  -14.5542   20.6715 O   0  0  0  0  0  0
  -24.6206  -31.8621   23.1992 C   0  0  0  0  0  0
  -25.9056  -32.4784   23.8368 C   0  0  1  0  0  0
  -27.2149  -27.3696   20.1315 C   0  0  0  0  0  0
  -25.5872  -33.8592   24.2303 N   0  0  0  0  0  0
  -23.4128  -30.4780   21.5477 C   0  0  2  0  0  0
  -24.8605  -28.9371   20.1163 C   0  0  0  0  0  0
  -22.7506  -29.4579   22.4987 C   0  0  0  0  0  0
  -18.0280  -28.1376   22.8472 C   0  0  0  0  0  0
  -24.1498  -36.7318   23.2649 C   0  0  0  0  0  0
  -25.9423  -30.8127   21.3612 C   0  0  0  0  0  0
  -26.0233  -29.4415   20.7157 C   0  0  0  0  0  0
  -27.2080  -28.6583   20.7256 C   0  0  0  0  0  0
  -26.0395  -26.8959   19.5148 C   0  0  0  0  0  0
  -24.8598  -27.6627   19.5253 C   0  0  0  0  0  0
  -23.6258  -29.8080   20.1642 C   0  0  0  0  0  0
  -25.4106  -36.3091   24.0341 C   0  0  1  0  0  0
  -20.5890  -28.3689   23.1300 C   0  0  2  0  0  0
  -20.6792  -26.9424   22.5436 C   0  0  0  0  0  0
  -19.5781  -26.6373   21.5229 C   0  0  0  0  0  0
  -18.1925  -26.7937   22.1573 C   0  0  0  0  0  0
  -19.1539  -28.8849   23.2853 C   0  0  0  0  0  0
  -18.9456  -30.1416   23.8919 C   0  0  0  0  0  0
  -17.6451  -30.6598   24.0538 C   0  0  0  0  0  0
  -25.9013  -34.9451   23.5142 C   0  0  0  0  0  0
  -16.5335  -29.9112   23.6295 C   0  0  0  0  0  0
  -16.7252  -28.6494   23.0371 C   0  0  0  0  0  0
  -26.4436  -31.6579   25.0714 C   0  0  0  0  0  0
  -25.3632  -31.3634   26.1395 C   0  0  0  0  0  0
  -27.0319  -30.3046   24.6098 C   0  0  0  0  0  0
  -27.6087  -32.4240   25.7415 C   0  0  0  0  0  0
  -27.5581  -37.1781   24.8462 C   0  0  0  0  0  0
  -21.4225  -29.3005   22.3722 N   0  0  0  0  0  0
  -26.4301  -37.3769   23.9393 N   0  0  0  0  0  0
  -24.6769  -31.0706   22.0924 N   0  0  0  0  0  0
  -23.4225  -28.8139   23.3093 O   0  0  0  0  0  0
  -28.3269  -26.5496   20.1308 O   0  0  0  0  0  0
  -26.5639  -34.8919   22.4711 O   0  0  0  0  0  0
  -23.5363  -32.1362   23.7312 O   0  0  0  0  0  0
  -28.6890  -23.2408   20.3779 C   0  0  0  0  0  0
  -27.9350  -24.1842   21.1383 C   0  0  0  0  0  0
  -26.8101  -23.6616   21.8708 C   0  0  0  0  0  0
  -28.3153  -21.8707   20.3335 C   0  0  0  0  0  0
  -26.4915  -22.2810   21.7041 C   0  0  0  0  0  0
  -25.3251  -21.5813   22.3907 C   0  0  0  0  0  0
  -25.3965  -25.7946   22.5360 C   0  0  0  0  0  0
  -26.7849  -24.5272   24.2597 C   0  0  0  0  0  0
  -28.4696  -25.6470   21.2610 C   0  0  0  0  0  0
  -29.0596  -20.7902   19.5209 C   0  0  0  0  0  0
  -29.8761  -19.7054   20.3119 C   0  0  0  0  0  0
  -29.4201  -18.2016   20.1947 C   0  0  0  0  0  0
  -30.4394  -17.1304   20.7392 C   0  0  0  0  0  0
  -26.0172  -24.4517   22.9345 C   0  0  0  0  0  0
  -27.2165  -21.4306   20.9574 N   0  0  0  0  0  0
  -29.9657  -15.7101   20.7712 N   0  0  0  0  0  0
  -31.4736  -12.4728   19.1274 H   0  0  0  0  0  0
  -30.3673  -11.3785   19.9044 H   0  0  0  0  0  0
  -29.7482  -11.6867   17.5006 H   0  0  0  0  0  0
  -29.6642  -13.4161   17.7041 H   0  0  0  0  0  0
  -27.8656  -11.2879   18.9027 H   0  0  0  0  0  0
  -27.3696  -12.5443   17.7977 H   0  0  0  0  0  0
  -27.6713  -14.2538   19.4945 H   0  0  0  0  0  0
  -28.7069  -12.1032   21.4049 H   0  0  0  0  0  0
  -28.4738  -13.7829   21.8039 H   0  0  0  0  0  0
  -25.2800   -9.5655   22.4819 H   0  0  0  0  0  0
  -24.0011   -7.4635   22.7498 H   0  0  0  0  0  0
  -21.0903   -8.8848   19.8944 H   0  0  0  0  0  0
  -22.3826  -10.9718   19.6189 H   0  0  0  0  0  0
  -21.1984   -7.6169   23.9743 H   0  0  0  0  0  0
  -21.1455   -6.0539   25.9098 H   0  0  0  0  0  0
  -22.0608   -2.7629   23.2860 H   0  0  0  0  0  0
  -22.4095  -11.9840   22.4729 H   0  0  0  0  0  0
  -21.1114  -13.1236   22.2523 H   0  0  0  0  0  0
  -24.6671  -15.8491   20.5482 H   0  0  0  0  0  0
  -26.2841  -15.6364   20.1041 H   0  0  0  0  0  0
  -26.7109  -32.5510   23.1133 H   0  0  0  0  0  0
  -24.9996  -33.9749   25.0430 H   0  0  0  0  0  0
  -22.6971  -31.2907   21.4009 H   0  0  0  0  0  0
  -23.3768  -35.9647   23.3326 H   0  0  0  0  0  0
  -24.3563  -36.8920   22.2055 H   0  0  0  0  0  0
  -23.7255  -37.6519   23.6669 H   0  0  0  0  0  0
  -26.0566  -31.5761   20.5891 H   0  0  0  0  0  0
  -26.8253  -30.8742   21.9835 H   0  0  0  0  0  0
  -28.1057  -29.0184   21.2082 H   0  0  0  0  0  0
  -26.0306  -25.9042   19.0767 H   0  0  0  0  0  0
  -23.9575  -27.2576   19.0911 H   0  0  0  0  0  0
  -23.7234  -30.5738   19.3948 H   0  0  0  0  0  0
  -22.7513  -29.2219   19.8727 H   0  0  0  0  0  0
  -25.1281  -36.1969   25.0840 H   0  0  0  0  0  0
  -20.9881  -28.3294   24.1456 H   0  0  0  0  0  0
  -20.5719  -26.2321   23.3631 H   0  0  0  0  0  0
  -21.6678  -26.7487   22.1225 H   0  0  0  0  0  0
  -19.6983  -25.6299   21.1250 H   0  0  0  0  0  0
  -19.6754  -27.3184   20.6753 H   0  0  0  0  0  0
  -17.4232  -26.6682   21.3916 H   0  0  0  0  0  0
  -18.0249  -26.0087   22.8934 H   0  0  0  0  0  0
  -19.7930  -30.7145   24.2416 H   0  0  0  0  0  0
  -17.5040  -31.6302   24.5113 H   0  0  0  0  0  0
  -15.5347  -30.3012   23.7663 H   0  0  0  0  0  0
  -15.8615  -28.0773   22.7182 H   0  0  0  0  0  0
  -24.6161  -30.6553   25.7784 H   0  0  0  0  0  0
  -24.8335  -32.2668   26.4455 H   0  0  0  0  0  0
  -25.7959  -30.9249   27.0405 H   0  0  0  0  0  0
  -26.2927  -29.6744   24.1134 H   0  0  0  0  0  0
  -27.4150  -29.7305   25.4552 H   0  0  0  0  0  0
  -27.8710  -30.4443   23.9259 H   0  0  0  0  0  0
  -27.2942  -33.3715   26.1793 H   0  0  0  0  0  0
  -28.3965  -32.6436   25.0200 H   0  0  0  0  0  0
  -28.0664  -31.8412   26.5421 H   0  0  0  0  0  0
  -28.2599  -38.0088   24.7533 H   0  0  0  0  0  0
  -28.1076  -36.2603   24.6275 H   0  0  0  0  0  0
  -27.2294  -37.1442   25.8871 H   0  0  0  0  0  0
  -20.9508  -29.8697   21.6834 H   0  0  0  0  0  0
  -26.0215  -38.2859   24.1384 H   0  0  0  0  0  0
  -29.5766  -23.5656   19.8533 H   0  0  0  0  0  0
  -25.3453  -21.7398   23.4672 H   0  0  0  0  0  0
  -25.3773  -20.5020   22.2396 H   0  0  0  0  0  0
  -24.3619  -21.9169   22.0007 H   0  0  0  0  0  0
  -24.8429  -25.7118   21.6049 H   0  0  0  0  0  0
  -26.1096  -26.6094   22.4772 H   0  0  0  0  0  0
  -24.6731  -26.0936   23.2961 H   0  0  0  0  0  0
  -26.8948  -23.5367   24.7003 H   0  0  0  0  0  0
  -26.2478  -25.1526   24.9749 H   0  0  0  0  0  0
  -27.7855  -24.9425   24.1457 H   0  0  0  0  0  0
  -29.5467  -25.5637   21.3989 H   0  0  0  0  0  0
  -28.1441  -26.1257   22.1820 H   0  0  0  0  0  0
  -29.7238  -21.3111   18.8320 H   0  0  0  0  0  0
  -28.3374  -20.2982   18.8703 H   0  0  0  0  0  0
  -29.9184  -19.9964   21.3604 H   0  0  0  0  0  0
  -30.9050  -19.7659   19.9531 H   0  0  0  0  0  0
  -29.1954  -17.9836   19.1476 H   0  0  0  0  0  0
  -28.4758  -18.1051   20.7311 H   0  0  0  0  0  0
  -30.7242  -17.4068   21.7553 H   0  0  0  0  0  0
  -31.3551  -17.2012   20.1483 H   0  0  0  0  0  0
  -25.1126  -23.8951   23.1705 H   0  0  0  0  0  0
  -29.0035  -15.5628   21.0330 H   0  0  0  0  0  0
  1 25  1  0  0  0
  1 30  2  0  0  0
  1 86  1  0  0  0
  2  3  1  0  0  0
  2 25  1  0  0  0
  2 87  1  0  0  0
  2 88  1  0  0  0
  3  4  1  0  0  0
  3 89  1  0  0  0
  3 90  1  0  0  0
  4  5  1  0  0  0
  4 91  1  0  0  0
  4 92  1  0  0  0
  5  6  1  0  0  0
  5 26  1  0  0  0
  5 93  1  0  0  0
  6 25  1  0  0  0
  6 94  1  0  0  0
  6 95  1  0  0  0
  7  8  2  0  0  0
  7 26  1  0  0  0
  7 29  1  0  0  0
  8  9  1  0  0  0
  8 22  1  0  0  0
  9 10  1  0  0  0
  9 27  2  0  0  0
 10 11  2  0  0  0
 10 15  1  0  0  0
 11 12  1  0  0  0
 11 96  1  0  0  0
 12 13  2  0  0  0
 12 97  1  0  0  0
 13 14  1  0  0  0
 13 31  1  0  0  0
 14 15  2  0  0  0
 14 98  1  0  0  0
 15 99  1  0  0  0
 16 17  2  0  0  0
 16 21  1  0  0  0
 16 31  1  0  0  0
 17 18  1  0  0  0
 17100  1  0  0  0
 18 19  2  0  0  0
 18101  1  0  0  0
 19 20  1  0  0  0
 19 24  1  0  0  0
 20 21  2  0  0  0
 20102  1  0  0  0
 21 23  1  0  0  0
 22 28  1  0  0  0
 22 32  2  0  0  0
 26 27  1  0  0  0
 28103  1  0  0  0
 28104  1  0  0  0
 29105  1  0  0  0
 29106  1  0  0  0
 33 34  1  0  0  0
 33 66  1  0  0  0
 33 70  2  0  0  0
 34 36  1  0  0  0
 34 59  1  0  0  0
 34107  1  0  0  0
 35 44  2  0  0  0
 35 45  1  0  0  0
 35 68  1  0  0  0
 36 56  1  0  0  0
 36108  1  0  0  0
 37 39  1  0  0  0
 37 47  1  0  0  0
 37 66  1  0  0  0
 37109  1  0  0  0
 38 43  2  0  0  0
 38 46  1  0  0  0
 38 47  1  0  0  0
 39 64  1  0  0  0
 39 67  2  0  0  0
 40 52  1  0  0  0
 40 53  2  0  0  0
 40 58  1  0  0  0
 41110  1  0  0  0
 41111  1  0  0  0
 41112  1  0  0  0
 41 48  1  0  0  0
 42 43  1  0  0  0
 42 66  1  0  0  0
 42113  1  0  0  0
 42114  1  0  0  0
 43 44  1  0  0  0
 44115  1  0  0  0
 45 46  2  0  0  0
 45116  1  0  0  0
 46117  1  0  0  0
 47118  1  0  0  0
 47119  1  0  0  0
 48 56  1  0  0  0
 48 65  1  0  0  0
 48120  1  0  0  0
 49 50  1  0  0  0
 49 53  1  0  0  0
 49 64  1  0  0  0
 49121  1  0  0  0
 50 51  1  0  0  0
 50122  1  0  0  0
 50123  1  0  0  0
 51 52  1  0  0  0
 51124  1  0  0  0
 51125  1  0  0  0
 52126  1  0  0  0
 52127  1  0  0  0
 53 54  1  0  0  0
 54 55  2  0  0  0
 54128  1  0  0  0
 55 57  1  0  0  0
 55129  1  0  0  0
 56 69  2  0  0  0
 57 58  2  0  0  0
 57130  1  0  0  0
 58131  1  0  0  0
 59 60  1  0  0  0
 59 61  1  0  0  0
 59 62  1  0  0  0
 60132  1  0  0  0
 60133  1  0  0  0
 60134  1  0  0  0
 61135  1  0  0  0
 61136  1  0  0  0
 61137  1  0  0  0
 62138  1  0  0  0
 62139  1  0  0  0
 62140  1  0  0  0
 63 65  1  0  0  0
 63141  1  0  0  0
 63142  1  0  0  0
 63143  1  0  0  0
 64144  1  0  0  0
 65145  1  0  0  0
 68 79  1  0  0  0
 71 72  2  0  0  0
 71 74  1  0  0  0
 71146  1  0  0  0
 72 73  1  0  0  0
 72 79  1  0  0  0
 73 75  2  0  0  0
 73 84  1  0  0  0
 74 80  1  0  0  0
 74 85  2  0  0  0
 75 76  1  0  0  0
 75 85  1  0  0  0
 76147  1  0  0  0
 76148  1  0  0  0
 76149  1  0  0  0
 77150  1  0  0  0
 77151  1  0  0  0
 77152  1  0  0  0
 77 84  1  0  0  0
 78 84  1  0  0  0
 78153  1  0  0  0
 78154  1  0  0  0
 78155  1  0  0  0
 79156  1  0  0  0
 79157  1  0  0  0
 80 81  1  0  0  0
 80158  1  0  0  0
 80159  1  0  0  0
 81 82  1  0  0  0
 81160  1  0  0  0
 81161  1  0  0  0
 82 83  1  0  0  0
 82162  1  0  0  0
 82163  1  0  0  0
 83 86  1  0  0  0
 83164  1  0  0  0
 83165  1  0  0  0
 84166  1  0  0  0
 86167  1  0  0  0
M  ISO  4   1 100  68 101  79 101  86 100
M  END
> <chiral flag>
0

> <version>
0

> <s_m_source_file>
/data/baiqing/PycharmProjects/Reinvent-master-3.2/result/LINK_invent/BTK/process_docking_weight1_custom_sum_contain_oxygen_bond_distance_aromatic_linkinvent_7_9_3/rearranged_h_0041.sdf

> <i_m_source_file_index>
79

> <r_mmod_Potential_Energy-OPLS-2005>
-117.826377868652

> <r_mmod_Stretch_Energy-OPLS-2005>
59.3894348144531

> <r_mmod_Bend_Energy-OPLS-2005>
134.800170898438

> <r_mmod_Torsional_Energy-OPLS-2005>
247.725967407227

> <r_mmod_Improper_Torsional_Energy-OPLS-2005>
5.63631153106689

> <r_mmod_Van_der_Waal_Energy-OPLS-2005>
137.257431030273

> <r_mmod_Electrostatic_Energy-OPLS-2005>
-527.685119628906

> <r_mmod_Solvation_Energy-OPLS-2005>
-211.510696411133

> <b_mmod_Minimization_Converged-OPLS-2005>
0

> <r_mmod_RMS_Derivative-OPLS-2005>
6.32292413711548

$$$$
79
                    3D
 Structure written by MMmdl.
165173  0  0  1  0            999 V2000
  -30.6930  -14.4818   20.4999 C   0  0  0  0  0  0
  -30.4233  -12.2877   19.4424 C   0  0  0  0  0  0
  -29.5034  -12.4865   18.2193 C   0  0  0  0  0  0
  -28.0221  -12.3559   18.6260 C   0  0  0  0  0  0
  -27.6645  -13.2051   19.8761 C   0  0  2  0  0  0
  -28.7085  -13.0113   21.0035 C   0  0  0  0  0  0
  -25.2611  -13.8153   20.5697 C   0  0  0  0  0  0
  -24.1854  -13.0429   20.9196 C   0  0  0  0  0  0
  -24.6403  -11.6899   20.8729 C   0  0  0  0  0  0
  -23.9069  -10.4284   21.0379 C   0  0  0  0  0  0
  -24.3623   -9.4214   21.9166 C   0  0  0  0  0  0
  -23.6301   -8.2246   22.0739 C   0  0  0  0  0  0
  -22.4284   -8.0283   21.3532 C   0  0  0  0  0  0
  -21.9911   -9.0250   20.4633 C   0  0  0  0  0  0
  -22.7235  -10.2132   20.3038 C   0  0  0  0  0  0
  -21.6853   -6.0740   22.5271 C   0  0  0  0  0  0
  -21.4010   -6.5632   23.8212 C   0  0  0  0  0  0
  -21.3674   -5.6776   24.9164 C   0  0  0  0  0  0
  -21.6053   -4.3039   24.7214 C   0  0  0  0  0  0
  -21.8826   -3.8150   23.4325 C   0  0  0  0  0  0
  -21.9198   -4.6969   22.3388 C   0  0  0  0  0  0
  -22.7877  -13.5233   21.1858 C   0  0  0  0  0  0
  -22.1662   -4.2162   21.0961 F   0  0  0  0  0  0
  -21.5645   -3.4526   25.7728 F   0  0  0  0  0  0
  -30.0423  -13.2892   20.4481 N   0  0  0  0  0  0
  -26.3048  -12.9324   20.3377 N   0  0  0  0  0  0
  -25.9342  -11.6487   20.5789 N   0  0  0  0  0  0
  -22.0509  -12.8217   22.0398 N   0  0  0  0  0  0
  -25.4335  -15.1873   20.4127 N   0  0  0  0  0  0
  -31.8488  -14.6396   20.1015 O   0  0  0  0  0  0
  -21.6640   -6.8883   21.4237 O   0  0  0  0  0  0
  -22.3564  -14.5538   20.6717 O   0  0  0  0  0  0
  -24.6123  -31.8718   23.2137 C   0  0  0  0  0  0
  -25.9022  -32.4850   23.8424 C   0  0  1  0  0  0
  -27.2292  -27.4590   20.0964 C   0  0  0  0  0  0
  -25.5894  -33.8651   24.2375 N   0  0  0  0  0  0
  -23.3999  -30.4950   21.5549 C   0  0  2  0  0  0
  -24.8482  -28.9706   20.1106 C   0  0  0  0  0  0
  -22.7401  -29.4668   22.5016 C   0  0  0  0  0  0
  -18.0270  -28.1375   22.8503 C   0  0  0  0  0  0
  -24.1496  -36.7315   23.2637 C   0  0  0  0  0  0
  -25.9281  -30.8436   21.3673 C   0  0  0  0  0  0
  -26.0068  -29.4821   20.7102 C   0  0  0  0  0  0
  -27.2038  -28.7326   20.7019 C   0  0  0  0  0  0
  -26.0612  -26.9629   19.4795 C   0  0  0  0  0  0
  -24.8692  -27.7094   19.4896 C   0  0  0  0  0  0
  -23.6079  -29.8319   20.1679 C   0  0  0  0  0  0
  -25.4108  -36.3126   24.0355 C   0  0  1  0  0  0
  -20.5858  -28.3659   23.1344 C   0  0  2  0  0  0
  -20.6771  -26.9403   22.5426 C   0  0  0  0  0  0
  -19.5750  -26.6386   21.5224 C   0  0  0  0  0  0
  -18.1925  -26.7927   22.1626 C   0  0  0  0  0  0
  -19.1515  -28.8825   23.2928 C   0  0  0  0  0  0
  -18.9439  -30.1431   23.8945 C   0  0  0  0  0  0
  -17.6448  -30.6591   24.0559 C   0  0  0  0  0  0
  -25.9029  -34.9491   23.5161 C   0  0  0  0  0  0
  -16.5337  -29.9092   23.6315 C   0  0  0  0  0  0
  -16.7257  -28.6500   23.0358 C   0  0  0  0  0  0
  -26.4456  -31.6600   25.0729 C   0  0  0  0  0  0
  -25.3724  -31.3697   26.1479 C   0  0  0  0  0  0
  -27.0274  -30.3047   24.6069 C   0  0  0  0  0  0
  -27.6078  -32.4260   25.7467 C   0  0  0  0  0  0
  -27.5596  -37.1811   24.8466 C   0  0  0  0  0  0
  -21.4131  -29.3031   22.3749 N   0  0  0  0  0  0
  -26.4302  -37.3801   23.9413 N   0  0  0  0  0  0
  -24.6645  -31.0826   22.1040 N   0  0  0  0  0  0
  -23.4175  -28.8202   23.3046 O   0  0  0  0  0  0
  -28.3625  -26.6839   20.1357 O   0  0  0  0  0  0
  -26.5587  -34.8918   22.4720 O   0  0  0  0  0  0
  -23.5317  -32.1465   23.7537 O   0  0  0  0  0  0
  -31.9123  -21.1269   19.5915 C   0  0  0  0  0  0
  -30.6332  -20.5218   19.4476 C   0  0  0  0  0  0
  -31.6650  -22.4732   19.6482 C   0  0  0  0  0  0
  -32.9743  -24.1238   18.2780 C   0  0  0  0  0  0
  -33.9000  -23.3109   20.4843 C   0  0  0  0  0  0
  -30.3038  -19.0822   19.1221 C   0  0  0  0  0  0
  -30.3321  -18.0607   20.2866 C   0  0  0  0  0  0
  -29.3510  -24.5377   20.8875 C   0  0  0  0  0  0
  -29.4892  -23.8483   19.5184 C   0  0  0  0  0  0
  -29.8814  -16.6806   19.7461 C   0  0  0  0  0  0
  -28.1810  -25.5265   20.9604 C   0  0  0  0  0  0
  -32.6247  -23.6299   19.6901 C   0  0  0  0  0  0
  -29.6634  -21.4266   19.4982 N   0  0  0  0  0  0
  -30.2892  -22.6266   19.5746 N   0  0  0  0  0  0
  -29.8897  -15.5445   20.6843 N   0  0  0  0  0  0
  -31.4715  -12.3717   19.1481 H   0  0  0  0  0  0
  -30.3061  -11.2836   19.8512 H   0  0  0  0  0  0
  -29.7427  -11.7530   17.4477 H   0  0  0  0  0  0
  -29.6832  -13.4682   17.7774 H   0  0  0  0  0  0
  -27.8280  -11.3015   18.8251 H   0  0  0  0  0  0
  -27.3774  -12.6285   17.7902 H   0  0  0  0  0  0
  -27.6979  -14.2472   19.5604 H   0  0  0  0  0  0
  -28.6791  -11.9870   21.3782 H   0  0  0  0  0  0
  -28.4857  -13.6506   21.8594 H   0  0  0  0  0  0
  -25.2766   -9.5705   22.4738 H   0  0  0  0  0  0
  -24.0027   -7.4636   22.7444 H   0  0  0  0  0  0
  -21.0853   -8.8758   19.8925 H   0  0  0  0  0  0
  -22.3682  -10.9673   19.6154 H   0  0  0  0  0  0
  -21.1973   -7.6132   23.9720 H   0  0  0  0  0  0
  -21.1502   -6.0492   25.9071 H   0  0  0  0  0  0
  -22.0595   -2.7615   23.2810 H   0  0  0  0  0  0
  -22.4130  -11.9883   22.4780 H   0  0  0  0  0  0
  -21.1129  -13.1252   22.2600 H   0  0  0  0  0  0
  -24.6689  -15.8437   20.5259 H   0  0  0  0  0  0
  -26.2844  -15.6308   20.0915 H   0  0  0  0  0  0
  -26.7096  -32.5565   23.1194 H   0  0  0  0  0  0
  -25.0046  -33.9818   25.0518 H   0  0  0  0  0  0
  -22.6876  -31.3113   21.4194 H   0  0  0  0  0  0
  -23.3767  -35.9640   23.3304 H   0  0  0  0  0  0
  -24.3606  -36.8914   22.2052 H   0  0  0  0  0  0
  -23.7229  -37.6517   23.6634 H   0  0  0  0  0  0
  -26.0385  -31.6120   20.6012 H   0  0  0  0  0  0
  -26.8158  -30.8966   21.9851 H   0  0  0  0  0  0
  -28.0951  -29.1158   21.1790 H   0  0  0  0  0  0
  -26.0699  -25.9946   18.9995 H   0  0  0  0  0  0
  -23.9796  -27.3111   19.0211 H   0  0  0  0  0  0
  -23.7139  -30.6107   19.4119 H   0  0  0  0  0  0
  -22.7336  -29.2499   19.8712 H   0  0  0  0  0  0
  -25.1281  -36.2018   25.0849 H   0  0  0  0  0  0
  -20.9947  -28.3217   24.1461 H   0  0  0  0  0  0
  -20.5698  -26.2261   23.3601 H   0  0  0  0  0  0
  -21.6646  -26.7476   22.1197 H   0  0  0  0  0  0
  -19.6917  -25.6297   21.1245 H   0  0  0  0  0  0
  -19.6694  -27.3212   20.6767 H   0  0  0  0  0  0
  -17.4201  -26.6692   21.4015 H   0  0  0  0  0  0
  -18.0308  -26.0053   22.8999 H   0  0  0  0  0  0
  -19.7913  -30.7233   24.2352 H   0  0  0  0  0  0
  -17.4999  -31.6280   24.5147 H   0  0  0  0  0  0
  -15.5342  -30.3014   23.7612 H   0  0  0  0  0  0
  -15.8651  -28.0822   22.7084 H   0  0  0  0  0  0
  -24.5895  -30.7054   25.7798 H   0  0  0  0  0  0
  -24.8905  -32.2851   26.4927 H   0  0  0  0  0  0
  -25.8057  -30.8843   27.0235 H   0  0  0  0  0  0
  -26.2818  -29.6824   24.1108 H   0  0  0  0  0  0
  -27.4060  -29.7253   25.4501 H   0  0  0  0  0  0
  -27.8643  -30.4384   23.9211 H   0  0  0  0  0  0
  -27.2776  -33.3553   26.2113 H   0  0  0  0  0  0
  -28.3857  -32.6817   25.0261 H   0  0  0  0  0  0
  -28.0785  -31.8321   26.5310 H   0  0  0  0  0  0
  -28.2618  -38.0103   24.7523 H   0  0  0  0  0  0
  -28.1093  -36.2642   24.6287 H   0  0  0  0  0  0
  -27.2325  -37.1465   25.8870 H   0  0  0  0  0  0
  -20.9282  -29.8739   21.6965 H   0  0  0  0  0  0
  -26.0214  -38.2891   24.1382 H   0  0  0  0  0  0
  -32.8805  -20.6468   19.5717 H   0  0  0  0  0  0
  -32.0819  -24.4416   17.7400 H   0  0  0  0  0  0
  -33.4536  -23.3408   17.6895 H   0  0  0  0  0  0
  -33.6524  -24.9768   18.3129 H   0  0  0  0  0  0
  -33.6565  -23.0034   21.5013 H   0  0  0  0  0  0
  -34.5421  -24.1889   20.5602 H   0  0  0  0  0  0
  -34.4804  -22.5137   20.0192 H   0  0  0  0  0  0
  -30.9885  -18.7409   18.3449 H   0  0  0  0  0  0
  -29.3176  -19.0463   18.6574 H   0  0  0  0  0  0
  -29.6724  -18.3897   21.0893 H   0  0  0  0  0  0
  -31.3387  -18.0011   20.7022 H   0  0  0  0  0  0
  -30.2707  -25.0459   21.1696 H   0  0  0  0  0  0
  -29.1856  -23.7715   21.6458 H   0  0  0  0  0  0
  -29.9270  -24.5326   18.7911 H   0  0  0  0  0  0
  -28.5010  -23.5936   19.1312 H   0  0  0  0  0  0
  -30.4729  -16.4370   18.8602 H   0  0  0  0  0  0
  -28.8573  -16.7738   19.3810 H   0  0  0  0  0  0
  -28.0662  -25.8588   21.9940 H   0  0  0  0  0  0
  -27.2643  -24.9881   20.7138 H   0  0  0  0  0  0
  -32.1490  -24.4610   20.2069 H   0  0  0  0  0  0
  -28.9985  -15.3231   21.1023 H   0  0  0  0  0  0
  1 25  1  0  0  0
  1 30  2  0  0  0
  1 85  1  0  0  0
  2  3  1  0  0  0
  2 25  1  0  0  0
  2 86  1  0  0  0
  2 87  1  0  0  0
  3  4  1  0  0  0
  3 88  1  0  0  0
  3 89  1  0  0  0
  4  5  1  0  0  0
  4 90  1  0  0  0
  4 91  1  0  0  0
  5  6  1  0  0  0
  5 26  1  0  0  0
  5 92  1  0  0  0
  6 25  1  0  0  0
  6 93  1  0  0  0
  6 94  1  0  0  0
  7  8  2  0  0  0
  7 26  1  0  0  0
  7 29  1  0  0  0
  8  9  1  0  0  0
  8 22  1  0  0  0
  9 10  1  0  0  0
  9 27  2  0  0  0
 10 11  2  0  0  0
 10 15  1  0  0  0
 11 12  1  0  0  0
 11 95  1  0  0  0
 12 13  2  0  0  0
 12 96  1  0  0  0
 13 14  1  0  0  0
 13 31  1  0  0  0
 14 15  2  0  0  0
 14 97  1  0  0  0
 15 98  1  0  0  0
 16 17  2  0  0  0
 16 21  1  0  0  0
 16 31  1  0  0  0
 17 18  1  0  0  0
 17 99  1  0  0  0
 18 19  2  0  0  0
 18100  1  0  0  0
 19 20  1  0  0  0
 19 24  1  0  0  0
 20 21  2  0  0  0
 20101  1  0  0  0
 21 23  1  0  0  0
 22 28  1  0  0  0
 22 32  2  0  0  0
 26 27  1  0  0  0
 28102  1  0  0  0
 28103  1  0  0  0
 29104  1  0  0  0
 29105  1  0  0  0
 33 34  1  0  0  0
 33 66  1  0  0  0
 33 70  2  0  0  0
 34 36  1  0  0  0
 34 59  1  0  0  0
 34106  1  0  0  0
 35 44  2  0  0  0
 35 45  1  0  0  0
 35 68  1  0  0  0
 36 56  1  0  0  0
 36107  1  0  0  0
 37 39  1  0  0  0
 37 47  1  0  0  0
 37 66  1  0  0  0
 37108  1  0  0  0
 38 43  2  0  0  0
 38 46  1  0  0  0
 38 47  1  0  0  0
 39 64  1  0  0  0
 39 67  2  0  0  0
 40 52  1  0  0  0
 40 53  2  0  0  0
 40 58  1  0  0  0
 41109  1  0  0  0
 41110  1  0  0  0
 41111  1  0  0  0
 41 48  1  0  0  0
 42 43  1  0  0  0
 42 66  1  0  0  0
 42112  1  0  0  0
 42113  1  0  0  0
 43 44  1  0  0  0
 44114  1  0  0  0
 45 46  2  0  0  0
 45115  1  0  0  0
 46116  1  0  0  0
 47117  1  0  0  0
 47118  1  0  0  0
 48 56  1  0  0  0
 48 65  1  0  0  0
 48119  1  0  0  0
 49 50  1  0  0  0
 49 53  1  0  0  0
 49 64  1  0  0  0
 49120  1  0  0  0
 50 51  1  0  0  0
 50121  1  0  0  0
 50122  1  0  0  0
 51 52  1  0  0  0
 51123  1  0  0  0
 51124  1  0  0  0
 52125  1  0  0  0
 52126  1  0  0  0
 53 54  1  0  0  0
 54 55  2  0  0  0
 54127  1  0  0  0
 55 57  1  0  0  0
 55128  1  0  0  0
 56 69  2  0  0  0
 57 58  2  0  0  0
 57129  1  0  0  0
 58130  1  0  0  0
 59 60  1  0  0  0
 59 61  1  0  0  0
 59 62  1  0  0  0
 60131  1  0  0  0
 60132  1  0  0  0
 60133  1  0  0  0
 61134  1  0  0  0
 61135  1  0  0  0
 61136  1  0  0  0
 62137  1  0  0  0
 62138  1  0  0  0
 62139  1  0  0  0
 63 65  1  0  0  0
 63140  1  0  0  0
 63141  1  0  0  0
 63142  1  0  0  0
 64143  1  0  0  0
 65144  1  0  0  0
 68 81  1  0  0  0
 71 72  1  0  0  0
 71 73  2  0  0  0
 71145  1  0  0  0
 72 76  1  0  0  0
 72 83  2  0  0  0
 73 82  1  0  0  0
 73 84  1  0  0  0
 74146  1  0  0  0
 74147  1  0  0  0
 74148  1  0  0  0
 74 82  1  0  0  0
 75 82  1  0  0  0
 75149  1  0  0  0
 75150  1  0  0  0
 75151  1  0  0  0
 76 77  1  0  0  0
 76152  1  0  0  0
 76153  1  0  0  0
 77 80  1  0  0  0
 77154  1  0  0  0
 77155  1  0  0  0
 78 79  1  0  0  0
 78 81  1  0  0  0
 78156  1  0  0  0
 78157  1  0  0  0
 79 84  1  0  0  0
 79158  1  0  0  0
 79159  1  0  0  0
 80 85  1  0  0  0
 80160  1  0  0  0
 80161  1  0  0  0
 81162  1  0  0  0
 81163  1  0  0  0
 82164  1  0  0  0
 83 84  1  0  0  0
 85165  1  0  0  0
M  ISO  4   1 100  68 101  81 101  85 100
M  END
> <chiral flag>
0

> <version>
0

> <s_m_source_file>
/data/baiqing/PycharmProjects/Reinvent-master-3.2/result/LINK_invent/BTK/process_docking_weight1_custom_sum_contain_oxygen_bond_distance_aromatic_linkinvent_7_9_3/rearranged_h_0041.sdf

> <i_m_source_file_index>
80

> <r_mmod_Potential_Energy-OPLS-2005>
-99.8976440429688

> <r_mmod_Stretch_Energy-OPLS-2005>
32.5707130432129

> <r_mmod_Bend_Energy-OPLS-2005>
95.7975616455078

> <r_mmod_Torsional_Energy-OPLS-2005>
262.577026367188

> <r_mmod_Improper_Torsional_Energy-OPLS-2005>
12.2634286880493

> <r_mmod_Van_der_Waal_Energy-OPLS-2005>
125.067710876465

> <r_mmod_Electrostatic_Energy-OPLS-2005>
-428.176055908203

> <r_mmod_Solvation_Energy-OPLS-2005>
-215.804931640625

> <b_mmod_Minimization_Converged-OPLS-2005>
0

> <r_mmod_RMS_Derivative-OPLS-2005>
1.98341035842896

$$$$
80
                    3D
 Structure written by MMmdl.
173181  0  0  1  0            999 V2000
  -30.5197  -14.9871   20.4054 C   0  0  0  0  0  0
  -30.4502  -12.6198   19.4761 C   0  0  0  0  0  0
  -29.5227  -12.5251   18.2426 C   0  0  0  0  0  0
  -28.0579  -12.3036   18.6687 C   0  0  0  0  0  0
  -27.6275  -13.2443   19.8248 C   0  0  2  0  0  0
  -28.6755  -13.2916   20.9543 C   0  0  0  0  0  0
  -25.2483  -13.8215   20.5706 C   0  0  0  0  0  0
  -24.1784  -13.0427   20.9231 C   0  0  0  0  0  0
  -24.6401  -11.6919   20.8755 C   0  0  0  0  0  0
  -23.9084  -10.4283   21.0400 C   0  0  0  0  0  0
  -24.3631   -9.4215   21.9186 C   0  0  0  0  0  0
  -23.6304   -8.2250   22.0753 C   0  0  0  0  0  0
  -22.4292   -8.0277   21.3543 C   0  0  0  0  0  0
  -21.9926   -9.0258   20.4650 C   0  0  0  0  0  0
  -22.7248  -10.2139   20.3054 C   0  0  0  0  0  0
  -21.6860   -6.0742   22.5275 C   0  0  0  0  0  0
  -21.4012   -6.5641   23.8210 C   0  0  0  0  0  0
  -21.3654   -5.6792   24.9168 C   0  0  0  0  0  0
  -21.6045   -4.3049   24.7221 C   0  0  0  0  0  0
  -21.8824   -3.8150   23.4339 C   0  0  0  0  0  0
  -21.9200   -4.6972   22.3400 C   0  0  0  0  0  0
  -22.7814  -13.5215   21.1888 C   0  0  0  0  0  0
  -22.1668   -4.2153   21.0978 F   0  0  0  0  0  0
  -21.5632   -3.4538   25.7736 F   0  0  0  0  0  0
  -29.9398  -13.7196   20.3414 N   0  0  0  0  0  0
  -26.2889  -12.9420   20.3197 N   0  0  0  0  0  0
  -25.9320  -11.6552   20.5700 N   0  0  0  0  0  0
  -22.0455  -12.8195   22.0434 N   0  0  0  0  0  0
  -25.4148  -15.1933   20.4141 N   0  0  0  0  0  0
  -31.7408  -15.0565   20.2350 O   0  0  0  0  0  0
  -21.6645   -6.8885   21.4236 O   0  0  0  0  0  0
  -22.3500  -14.5515   20.6720 O   0  0  0  0  0  0
  -24.6471  -31.8394   23.1853 C   0  0  0  0  0  0
  -25.9211  -32.4681   23.8265 C   0  0  1  0  0  0
  -27.2151  -27.0985   20.1462 C   0  0  0  0  0  0
  -25.5921  -33.8489   24.2161 N   0  0  0  0  0  0
  -23.4527  -30.4568   21.5344 C   0  0  2  0  0  0
  -24.8979  -28.8681   20.1191 C   0  0  0  0  0  0
  -22.7595  -29.4528   22.4891 C   0  0  0  0  0  0
  -18.0307  -28.1373   22.8491 C   0  0  0  0  0  0
  -24.1492  -36.7237   23.2646 C   0  0  0  0  0  0
  -26.0132  -30.7021   21.3873 C   0  0  0  0  0  0
  -26.0809  -29.3097   20.7246 C   0  0  0  0  0  0
  -27.2431  -28.4431   20.7097 C   0  0  0  0  0  0
  -26.0022  -26.7603   19.5135 C   0  0  0  0  0  0
  -24.8702  -27.6076   19.5025 C   0  0  0  0  0  0
  -23.6774  -29.7755   20.1590 C   0  0  0  0  0  0
  -25.4124  -36.3007   24.0306 C   0  0  1  0  0  0
  -20.5918  -28.3694   23.1236 C   0  0  2  0  0  0
  -20.6759  -26.9387   22.5400 C   0  0  0  0  0  0
  -19.5728  -26.6358   21.5202 C   0  0  0  0  0  0
  -18.1926  -26.7924   22.1627 C   0  0  0  0  0  0
  -19.1560  -28.8854   23.2858 C   0  0  0  0  0  0
  -18.9480  -30.1447   23.8898 C   0  0  0  0  0  0
  -17.6471  -30.6585   24.0541 C   0  0  0  0  0  0
  -25.9066  -34.9385   23.5040 C   0  0  0  0  0  0
  -16.5364  -29.9069   23.6321 C   0  0  0  0  0  0
  -16.7288  -28.6464   23.0399 C   0  0  0  0  0  0
  -26.4502  -31.6598   25.0742 C   0  0  0  0  0  0
  -25.3660  -31.3839   26.1419 C   0  0  0  0  0  0
  -27.0363  -30.2981   24.6381 C   0  0  0  0  0  0
  -27.6006  -32.4402   25.7545 C   0  0  0  0  0  0
  -27.5576  -37.1763   24.8460 C   0  0  0  0  0  0
  -21.4276  -29.3031   22.3629 N   0  0  0  0  0  0
  -26.4284  -37.3719   23.9404 N   0  0  0  0  0  0
  -24.7243  -31.0244   22.0878 N   0  0  0  0  0  0
  -23.4229  -28.8074   23.3051 O   0  0  0  0  0  0
  -28.2881  -26.1269   20.1578 O   0  0  0  0  0  0
  -26.5675  -34.8880   22.4637 O   0  0  0  0  0  0
  -23.5573  -32.1280   23.7053 O   0  0  0  0  0  0
  -29.3479  -24.3543   18.1952 C   0  0  0  0  0  0
  -28.8937  -23.5206   19.2444 C   0  0  0  0  0  0
  -29.1416  -22.0008   19.0801 C   0  0  0  0  0  0
  -29.9016  -23.8623   17.0295 C   0  0  0  0  0  0
  -29.5527  -21.6731   17.7271 C   0  0  0  0  0  0
  -28.1814  -18.4059   16.0101 C   0  0  0  0  0  0
  -32.8572  -23.9666   16.0539 C   0  0  0  0  0  0
  -32.3121  -26.1423   14.8937 C   0  0  0  0  0  0
  -29.0641  -20.6847   20.1311 C   0  0  0  0  0  0
  -28.1361  -24.5541   20.2797 C   0  0  0  0  0  0
  -30.4064  -24.7903   15.9280 C   0  0  0  0  0  0
  -29.5233  -20.3016   17.0396 C   0  0  0  0  0  0
  -28.1116  -19.7472   16.7582 C   0  0  0  0  0  0
  -29.5449  -19.0484   19.8114 C   0  0  0  0  0  0
  -29.8369  -17.7087   20.8138 C   0  0  0  0  0  0
  -31.9058  -25.1756   16.0241 C   0  0  0  0  0  0
  -29.9406  -22.5605   16.7932 N   0  0  0  0  0  0
  -29.6974  -16.1559   20.4556 N   0  0  0  0  0  0
  -31.4732  -12.8099   19.1505 H   0  0  0  0  0  0
  -30.4777  -11.6754   20.0217 H   0  0  0  0  0  0
  -29.8475  -11.7171   17.5850 H   0  0  0  0  0  0
  -29.5973  -13.4420   17.6578 H   0  0  0  0  0  0
  -27.9614  -11.2645   18.9850 H   0  0  0  0  0  0
  -27.3921  -12.4215   17.8119 H   0  0  0  0  0  0
  -27.5828  -14.2389   19.3818 H   0  0  0  0  0  0
  -28.7796  -12.3216   21.4413 H   0  0  0  0  0  0
  -28.3712  -13.9976   21.7270 H   0  0  0  0  0  0
  -25.2779   -9.5693   22.4752 H   0  0  0  0  0  0
  -24.0019   -7.4646   22.7462 H   0  0  0  0  0  0
  -21.0866   -8.8773   19.8956 H   0  0  0  0  0  0
  -22.3705  -10.9677   19.6159 H   0  0  0  0  0  0
  -21.1991   -7.6146   23.9710 H   0  0  0  0  0  0
  -21.1471   -6.0520   25.9071 H   0  0  0  0  0  0
  -22.0611   -2.7613   23.2838 H   0  0  0  0  0  0
  -22.4079  -11.9874   22.4837 H   0  0  0  0  0  0
  -21.1066  -13.1201   22.2594 H   0  0  0  0  0  0
  -24.6481  -15.8448   20.5406 H   0  0  0  0  0  0
  -26.2491  -15.6378   20.0536 H   0  0  0  0  0  0
  -26.7308  -32.5264   23.1019 H   0  0  0  0  0  0
  -24.9988  -33.9607   25.0251 H   0  0  0  0  0  0
  -22.7563  -31.2803   21.3748 H   0  0  0  0  0  0
  -23.3754  -35.9566   23.3286 H   0  0  0  0  0  0
  -24.3578  -36.8895   22.2065 H   0  0  0  0  0  0
  -23.7248  -37.6420   23.6712 H   0  0  0  0  0  0
  -26.1796  -31.4595   20.6204 H   0  0  0  0  0  0
  -26.8797  -30.7478   22.0363 H   0  0  0  0  0  0
  -28.1575  -28.7808   21.1768 H   0  0  0  0  0  0
  -25.9052  -25.7991   19.0322 H   0  0  0  0  0  0
  -23.9596  -27.2624   19.0323 H   0  0  0  0  0  0
  -23.8163  -30.5413   19.3965 H   0  0  0  0  0  0
  -22.7910  -29.2156   19.8564 H   0  0  0  0  0  0
  -25.1327  -36.1809   25.0800 H   0  0  0  0  0  0
  -21.0029  -28.3246   24.1345 H   0  0  0  0  0  0
  -20.5590  -26.2308   23.3617 H   0  0  0  0  0  0
  -21.6629  -26.7333   22.1223 H   0  0  0  0  0  0
  -19.6868  -25.6254   21.1255 H   0  0  0  0  0  0
  -19.6671  -27.3140   20.6707 H   0  0  0  0  0  0
  -17.4182  -26.6676   21.4049 H   0  0  0  0  0  0
  -18.0325  -26.0073   22.9027 H   0  0  0  0  0  0
  -19.7947  -30.7248   24.2316 H   0  0  0  0  0  0
  -17.5016  -31.6276   24.5102 H   0  0  0  0  0  0
  -15.5360  -30.2965   23.7641 H   0  0  0  0  0  0
  -15.8689  -28.0743   22.7191 H   0  0  0  0  0  0
  -24.5798  -30.7244   25.7736 H   0  0  0  0  0  0
  -24.8888  -32.3048   26.4789 H   0  0  0  0  0  0
  -25.7872  -30.9027   27.0254 H   0  0  0  0  0  0
  -26.2999  -29.6731   24.1321 H   0  0  0  0  0  0
  -27.3867  -29.7267   25.4992 H   0  0  0  0  0  0
  -27.8955  -30.4208   23.9782 H   0  0  0  0  0  0
  -27.2557  -33.3710   26.2075 H   0  0  0  0  0  0
  -28.3833  -32.6985   25.0399 H   0  0  0  0  0  0
  -28.0667  -31.8588   26.5512 H   0  0  0  0  0  0
  -28.2561  -38.0085   24.7502 H   0  0  0  0  0  0
  -28.1098  -36.2606   24.6290 H   0  0  0  0  0  0
  -27.2289  -37.1408   25.8860 H   0  0  0  0  0  0
  -20.9496  -29.8773   21.6824 H   0  0  0  0  0  0
  -26.0136  -38.2778   24.1410 H   0  0  0  0  0  0
  -29.2555  -25.4289   18.2406 H   0  0  0  0  0  0
  -27.1882  -17.9937   15.8315 H   0  0  0  0  0  0
  -28.7485  -17.6683   16.5782 H   0  0  0  0  0  0
  -28.6780  -18.5257   15.0463 H   0  0  0  0  0  0
  -33.8989  -24.2829   16.1114 H   0  0  0  0  0  0
  -32.7484  -23.3497   15.1621 H   0  0  0  0  0  0
  -32.6659  -23.3337   16.9205 H   0  0  0  0  0  0
  -33.3453  -26.4727   15.0128 H   0  0  0  0  0  0
  -31.6841  -27.0345   14.8893 H   0  0  0  0  0  0
  -32.2297  -25.6742   13.9129 H   0  0  0  0  0  0
  -28.0344  -20.6495   20.4881 H   0  0  0  0  0  0
  -29.6402  -21.0002   21.0024 H   0  0  0  0  0  0
  -28.4563  -24.2803   21.2850 H   0  0  0  0  0  0
  -27.0747  -24.3036   20.2473 H   0  0  0  0  0  0
  -29.7996  -25.6977   15.9498 H   0  0  0  0  0  0
  -30.2078  -24.3286   14.9595 H   0  0  0  0  0  0
  -30.1993  -19.5818   17.4710 H   0  0  0  0  0  0
  -29.9772  -20.3991   16.0488 H   0  0  0  0  0  0
  -27.5469  -19.6314   17.6827 H   0  0  0  0  0  0
  -27.5470  -20.4658   16.1626 H   0  0  0  0  0  0
  -30.5374  -19.1479   19.3783 H   0  0  0  0  0  0
  -28.8816  -18.6492   19.0506 H   0  0  0  0  0  0
  -29.1576  -17.8310   21.6594 H   0  0  0  0  0  0
  -30.8291  -17.8367   21.2491 H   0  0  0  0  0  0
  -32.0352  -25.7100   16.9658 H   0  0  0  0  0  0
  -28.7269  -15.8819   20.4254 H   0  0  0  0  0  0
  1 25  1  0  0  0
  1 30  2  0  0  0
  1 88  1  0  0  0
  2  3  1  0  0  0
  2 25  1  0  0  0
  2 89  1  0  0  0
  2 90  1  0  0  0
  3  4  1  0  0  0
  3 91  1  0  0  0
  3 92  1  0  0  0
  4  5  1  0  0  0
  4 93  1  0  0  0
  4 94  1  0  0  0
  5  6  1  0  0  0
  5 26  1  0  0  0
  5 95  1  0  0  0
  6 25  1  0  0  0
  6 96  1  0  0  0
  6 97  1  0  0  0
  7  8  2  0  0  0
  7 26  1  0  0  0
  7 29  1  0  0  0
  8  9  1  0  0  0
  8 22  1  0  0  0
  9 10  1  0  0  0
  9 27  2  0  0  0
 10 11  2  0  0  0
 10 15  1  0  0  0
 11 12  1  0  0  0
 11 98  1  0  0  0
 12 13  2  0  0  0
 12 99  1  0  0  0
 13 14  1  0  0  0
 13 31  1  0  0  0
 14 15  2  0  0  0
 14100  1  0  0  0
 15101  1  0  0  0
 16 17  2  0  0  0
 16 21  1  0  0  0
 16 31  1  0  0  0
 17 18  1  0  0  0
 17102  1  0  0  0
 18 19  2  0  0  0
 18103  1  0  0  0
 19 20  1  0  0  0
 19 24  1  0  0  0
 20 21  2  0  0  0
 20104  1  0  0  0
 21 23  1  0  0  0
 22 28  1  0  0  0
 22 32  2  0  0  0
 26 27  1  0  0  0
 28105  1  0  0  0
 28106  1  0  0  0
 29107  1  0  0  0
 29108  1  0  0  0
 33 34  1  0  0  0
 33 66  1  0  0  0
 33 70  2  0  0  0
 34 36  1  0  0  0
 34 59  1  0  0  0
 34109  1  0  0  0
 35 44  2  0  0  0
 35 45  1  0  0  0
 35 68  1  0  0  0
 36 56  1  0  0  0
 36110  1  0  0  0
 37 39  1  0  0  0
 37 47  1  0  0  0
 37 66  1  0  0  0
 37111  1  0  0  0
 38 43  2  0  0  0
 38 46  1  0  0  0
 38 47  1  0  0  0
 39 64  1  0  0  0
 39 67  2  0  0  0
 40 52  1  0  0  0
 40 53  2  0  0  0
 40 58  1  0  0  0
 41112  1  0  0  0
 41113  1  0  0  0
 41114  1  0  0  0
 41 48  1  0  0  0
 42 43  1  0  0  0
 42 66  1  0  0  0
 42115  1  0  0  0
 42116  1  0  0  0
 43 44  1  0  0  0
 44117  1  0  0  0
 45 46  2  0  0  0
 45118  1  0  0  0
 46119  1  0  0  0
 47120  1  0  0  0
 47121  1  0  0  0
 48 56  1  0  0  0
 48 65  1  0  0  0
 48122  1  0  0  0
 49 50  1  0  0  0
 49 53  1  0  0  0
 49 64  1  0  0  0
 49123  1  0  0  0
 50 51  1  0  0  0
 50124  1  0  0  0
 50125  1  0  0  0
 51 52  1  0  0  0
 51126  1  0  0  0
 51127  1  0  0  0
 52128  1  0  0  0
 52129  1  0  0  0
 53 54  1  0  0  0
 54 55  2  0  0  0
 54130  1  0  0  0
 55 57  1  0  0  0
 55131  1  0  0  0
 56 69  2  0  0  0
 57 58  2  0  0  0
 57132  1  0  0  0
 58133  1  0  0  0
 59 60  1  0  0  0
 59 61  1  0  0  0
 59 62  1  0  0  0
 60134  1  0  0  0
 60135  1  0  0  0
 60136  1  0  0  0
 61137  1  0  0  0
 61138  1  0  0  0
 61139  1  0  0  0
 62140  1  0  0  0
 62141  1  0  0  0
 62142  1  0  0  0
 63 65  1  0  0  0
 63143  1  0  0  0
 63144  1  0  0  0
 63145  1  0  0  0
 64146  1  0  0  0
 65147  1  0  0  0
 68 80  1  0  0  0
 71 72  2  0  0  0
 71 74  1  0  0  0
 71148  1  0  0  0
 72 73  1  0  0  0
 72 80  1  0  0  0
 73 75  2  0  0  0
 73 79  1  0  0  0
 74 81  1  0  0  0
 74 87  2  0  0  0
 75 82  1  0  0  0
 75 87  1  0  0  0
 76 83  1  0  0  0
 76149  1  0  0  0
 76150  1  0  0  0
 76151  1  0  0  0
 77152  1  0  0  0
 77153  1  0  0  0
 77154  1  0  0  0
 77 86  1  0  0  0
 78 86  1  0  0  0
 78155  1  0  0  0
 78156  1  0  0  0
 78157  1  0  0  0
 79 84  1  0  0  0
 79158  1  0  0  0
 79159  1  0  0  0
 80160  1  0  0  0
 80161  1  0  0  0
 81 86  1  0  0  0
 81162  1  0  0  0
 81163  1  0  0  0
 82 83  1  0  0  0
 82164  1  0  0  0
 82165  1  0  0  0
 83166  1  0  0  0
 83167  1  0  0  0
 84 85  1  0  0  0
 84168  1  0  0  0
 84169  1  0  0  0
 85 88  1  0  0  0
 85170  1  0  0  0
 85171  1  0  0  0
 86172  1  0  0  0
 88173  1  0  0  0
M  ISO  4   1 100  68 101  80 101  88 100
M  END
> <chiral flag>
0

> <version>
0

> <s_m_source_file>
/data/baiqing/PycharmProjects/Reinvent-master-3.2/result/LINK_invent/BTK/process_docking_weight1_custom_sum_contain_oxygen_bond_distance_aromatic_linkinvent_7_9_3/rearranged_h_0041.sdf

> <i_m_source_file_index>
81

> <r_mmod_Potential_Energy-OPLS-2005>
676.130981445312

> <r_mmod_Stretch_Energy-OPLS-2005>
355.985809326172

> <r_mmod_Bend_Energy-OPLS-2005>
376.049072265625

> <r_mmod_Torsional_Energy-OPLS-2005>
246.542785644531

> <r_mmod_Improper_Torsional_Energy-OPLS-2005>
5.32091856002808

> <r_mmod_Van_der_Waal_Energy-OPLS-2005>
146.859161376953

> <r_mmod_Electrostatic_Energy-OPLS-2005>
-458.370880126953

> <r_mmod_Solvation_Energy-OPLS-2005>
-217.602966308594

> <b_mmod_Minimization_Converged-OPLS-2005>
0

> <r_mmod_RMS_Derivative-OPLS-2005>
3.36886072158813

$$$$
81
                    3D
 Structure written by MMmdl.
160168  0  0  1  0            999 V2000
  -30.7325  -14.3865   20.6705 C   0  0  0  0  0  0
  -30.4272  -12.2992   19.3783 C   0  0  0  0  0  0
  -29.4827  -12.5194   18.1799 C   0  0  0  0  0  0
  -28.0067  -12.3769   18.6024 C   0  0  0  0  0  0
  -27.6687  -13.1944   19.8767 C   0  0  2  0  0  0
  -28.7088  -12.9170   20.9824 C   0  0  0  0  0  0
  -25.2632  -13.8160   20.5667 C   0  0  0  0  0  0
  -24.1855  -13.0457   20.9157 C   0  0  0  0  0  0
  -24.6387  -11.6924   20.8721 C   0  0  0  0  0  0
  -23.9071  -10.4318   21.0411 C   0  0  0  0  0  0
  -24.3638   -9.4228   21.9170 C   0  0  0  0  0  0
  -23.6333   -8.2258   22.0754 C   0  0  0  0  0  0
  -22.4304   -8.0295   21.3559 C   0  0  0  0  0  0
  -21.9936   -9.0263   20.4653 C   0  0  0  0  0  0
  -22.7259  -10.2147   20.3056 C   0  0  0  0  0  0
  -21.6869   -6.0758   22.5292 C   0  0  0  0  0  0
  -21.4009   -6.5654   23.8225 C   0  0  0  0  0  0
  -21.3644   -5.6790   24.9174 C   0  0  0  0  0  0
  -21.6052   -4.3056   24.7214 C   0  0  0  0  0  0
  -21.8829   -3.8160   23.4331 C   0  0  0  0  0  0
  -21.9196   -4.6986   22.3396 C   0  0  0  0  0  0
  -22.7876  -13.5265   21.1825 C   0  0  0  0  0  0
  -22.1678   -4.2184   21.0966 F   0  0  0  0  0  0
  -21.5630   -3.4527   25.7720 F   0  0  0  0  0  0
  -30.0425  -13.2387   20.4395 N   0  0  0  0  0  0
  -26.3050  -12.9301   20.3361 N   0  0  0  0  0  0
  -25.9299  -11.6475   20.5741 N   0  0  0  0  0  0
  -22.0509  -12.8265   22.0388 N   0  0  0  0  0  0
  -25.4407  -15.1867   20.4074 N   0  0  0  0  0  0
  -31.8011  -14.6665   20.1184 O   0  0  0  0  0  0
  -21.6658   -6.8901   21.4257 O   0  0  0  0  0  0
  -22.3583  -14.5577   20.6677 O   0  0  0  0  0  0
  -24.6124  -31.8720   23.2137 C   0  0  0  0  0  0
  -25.9032  -32.4845   23.8430 C   0  0  1  0  0  0
  -27.2246  -27.4429   20.0836 C   0  0  0  0  0  0
  -25.5896  -33.8639   24.2370 N   0  0  0  0  0  0
  -23.3982  -30.4955   21.5590 C   0  0  2  0  0  0
  -24.8392  -28.9621   20.1193 C   0  0  0  0  0  0
  -22.7376  -29.4697   22.5061 C   0  0  0  0  0  0
  -18.0260  -28.1398   22.8492 C   0  0  0  0  0  0
  -24.1489  -36.7307   23.2647 C   0  0  0  0  0  0
  -25.9281  -30.8352   21.3674 C   0  0  0  0  0  0
  -26.0014  -29.4723   20.7111 C   0  0  0  0  0  0
  -27.1981  -28.7200   20.6879 C   0  0  0  0  0  0
  -26.0434  -26.9464   19.4882 C   0  0  0  0  0  0
  -24.8545  -27.6975   19.5067 C   0  0  0  0  0  0
  -23.6000  -29.8269   20.1737 C   0  0  0  0  0  0
  -25.4111  -36.3128   24.0352 C   0  0  1  0  0  0
  -20.5842  -28.3680   23.1340 C   0  0  2  0  0  0
  -20.6764  -26.9424   22.5421 C   0  0  0  0  0  0
  -19.5744  -26.6400   21.5219 C   0  0  0  0  0  0
  -18.1918  -26.7947   22.1624 C   0  0  0  0  0  0
  -19.1507  -28.8852   23.2909 C   0  0  0  0  0  0
  -18.9447  -30.1465   23.8910 C   0  0  0  0  0  0
  -17.6446  -30.6605   24.0571 C   0  0  0  0  0  0
  -25.9039  -34.9483   23.5158 C   0  0  0  0  0  0
  -16.5335  -29.9103   23.6333 C   0  0  0  0  0  0
  -16.7255  -28.6525   23.0349 C   0  0  0  0  0  0
  -26.4430  -31.6618   25.0764 C   0  0  0  0  0  0
  -25.3691  -31.3712   26.1518 C   0  0  0  0  0  0
  -27.0268  -30.3072   24.6136 C   0  0  0  0  0  0
  -27.6041  -32.4321   25.7482 C   0  0  0  0  0  0
  -27.5583  -37.1805   24.8463 C   0  0  0  0  0  0
  -21.4117  -29.3040   22.3751 N   0  0  0  0  0  0
  -26.4297  -37.3808   23.9413 N   0  0  0  0  0  0
  -24.6657  -31.0807   22.1055 N   0  0  0  0  0  0
  -23.4135  -28.8251   23.3124 O   0  0  0  0  0  0
  -28.3967  -26.7192   20.0565 O   0  0  0  0  0  0
  -26.5593  -34.8911   22.4709 O   0  0  0  0  0  0
  -23.5324  -32.1491   23.7530 O   0  0  0  0  0  0
  -30.8395  -21.4090   19.5053 C   0  0  0  0  0  0
  -29.6821  -22.2244   19.4858 C   0  0  0  0  0  0
  -28.4120  -20.4172   20.1666 C   0  0  0  0  0  0
  -29.5804  -19.6056   20.2372 C   0  0  0  0  0  0
  -27.0234  -19.8936   20.4733 C   0  0  0  0  0  0
  -29.7478  -23.7023   19.1238 C   0  0  0  0  0  0
  -29.5447  -18.1355   20.6807 C   0  0  0  0  0  0
  -29.6460  -24.6287   20.3607 C   0  0  0  0  0  0
  -30.8493  -17.6466   21.3528 C   0  0  0  0  0  0
  -30.7451  -16.3697   22.2161 C   0  0  0  0  0  0
  -28.2940  -25.3570   20.4902 C   0  0  0  0  0  0
  -30.7886  -20.1033   19.8647 N   0  0  0  0  0  0
  -28.4647  -21.7228   19.8030 N   0  0  0  0  0  0
  -30.1565  -15.2024   21.5605 N   0  0  0  0  0  0
  -31.4666  -12.4293   19.0662 H   0  0  0  0  0  0
  -30.3555  -11.2724   19.7407 H   0  0  0  0  0  0
  -29.7139  -11.8060   17.3886 H   0  0  0  0  0  0
  -29.6464  -13.5096   17.7528 H   0  0  0  0  0  0
  -27.8150  -11.3180   18.7812 H   0  0  0  0  0  0
  -27.3507  -12.6694   17.7819 H   0  0  0  0  0  0
  -27.7339  -14.2496   19.6114 H   0  0  0  0  0  0
  -28.6819  -11.8642   21.2707 H   0  0  0  0  0  0
  -28.4549  -13.4598   21.8918 H   0  0  0  0  0  0
  -25.2804   -9.5720   22.4696 H   0  0  0  0  0  0
  -24.0078   -7.4663   22.7464 H   0  0  0  0  0  0
  -21.0885   -8.8783   19.8955 H   0  0  0  0  0  0
  -22.3748  -10.9671   19.6147 H   0  0  0  0  0  0
  -21.2004   -7.6160   23.9758 H   0  0  0  0  0  0
  -21.1441   -6.0494   25.9087 H   0  0  0  0  0  0
  -22.0613   -2.7627   23.2806 H   0  0  0  0  0  0
  -22.4160  -11.9949   22.4795 H   0  0  0  0  0  0
  -21.1107  -13.1276   22.2542 H   0  0  0  0  0  0
  -24.6812  -15.8489   20.5233 H   0  0  0  0  0  0
  -26.3005  -15.6174   20.0920 H   0  0  0  0  0  0
  -26.7097  -32.5535   23.1191 H   0  0  0  0  0  0
  -25.0014  -33.9825   25.0486 H   0  0  0  0  0  0
  -22.6895  -31.3140   21.4237 H   0  0  0  0  0  0
  -23.3758  -35.9633   23.3316 H   0  0  0  0  0  0
  -24.3575  -36.8905   22.2056 H   0  0  0  0  0  0
  -23.7214  -37.6508   23.6635 H   0  0  0  0  0  0
  -26.0464  -31.6043   20.6034 H   0  0  0  0  0  0
  -26.8151  -30.8832   21.9860 H   0  0  0  0  0  0
  -28.0988  -29.1102   21.1393 H   0  0  0  0  0  0
  -26.0299  -25.9892   18.9868 H   0  0  0  0  0  0
  -23.9597  -27.3040   19.0433 H   0  0  0  0  0  0
  -23.6927  -30.5999   19.4103 H   0  0  0  0  0  0
  -22.7240  -29.2402   19.8920 H   0  0  0  0  0  0
  -25.1276  -36.2012   25.0847 H   0  0  0  0  0  0
  -20.9935  -28.3248   24.1471 H   0  0  0  0  0  0
  -20.5699  -26.2291   23.3601 H   0  0  0  0  0  0
  -21.6638  -26.7511   22.1203 H   0  0  0  0  0  0
  -19.6910  -25.6314   21.1256 H   0  0  0  0  0  0
  -19.6686  -27.3202   20.6738 H   0  0  0  0  0  0
  -17.4194  -26.6693   21.4025 H   0  0  0  0  0  0
  -18.0315  -26.0093   22.9030 H   0  0  0  0  0  0
  -19.7913  -30.7271   24.2292 H   0  0  0  0  0  0
  -17.5005  -31.6287   24.5173 H   0  0  0  0  0  0
  -15.5341  -30.3009   23.7675 H   0  0  0  0  0  0
  -15.8645  -28.0848   22.7069 H   0  0  0  0  0  0
  -24.5850  -30.7090   25.7822 H   0  0  0  0  0  0
  -24.8889  -32.2866   26.4996 H   0  0  0  0  0  0
  -25.8036  -30.8829   27.0259 H   0  0  0  0  0  0
  -26.2837  -29.6845   24.1159 H   0  0  0  0  0  0
  -27.4014  -29.7293   25.4593 H   0  0  0  0  0  0
  -27.8666  -30.4408   23.9318 H   0  0  0  0  0  0
  -27.2716  -33.3619   26.2095 H   0  0  0  0  0  0
  -28.3791  -32.6889   25.0256 H   0  0  0  0  0  0
  -28.0775  -31.8431   26.5342 H   0  0  0  0  0  0
  -28.2619  -38.0094   24.7523 H   0  0  0  0  0  0
  -28.1070  -36.2622   24.6280 H   0  0  0  0  0  0
  -27.2304  -37.1454   25.8873 H   0  0  0  0  0  0
  -20.9295  -29.8700   21.6900 H   0  0  0  0  0  0
  -26.0193  -38.2896   24.1403 H   0  0  0  0  0  0
  -31.8082  -21.8067   19.2397 H   0  0  0  0  0  0
  -26.9277  -18.8397   20.2165 H   0  0  0  0  0  0
  -26.2706  -20.4376   19.9014 H   0  0  0  0  0  0
  -26.8000  -20.0192   21.5312 H   0  0  0  0  0  0
  -28.9643  -23.9313   18.3981 H   0  0  0  0  0  0
  -30.6857  -23.8910   18.5985 H   0  0  0  0  0  0
  -29.2993  -17.5075   19.8242 H   0  0  0  0  0  0
  -28.7326  -18.0089   21.3980 H   0  0  0  0  0  0
  -30.4486  -25.3672   20.3405 H   0  0  0  0  0  0
  -29.8267  -24.0460   21.2646 H   0  0  0  0  0  0
  -31.2067  -18.4335   22.0166 H   0  0  0  0  0  0
  -31.6240  -17.5273   20.5956 H   0  0  0  0  0  0
  -30.1368  -16.5797   23.0955 H   0  0  0  0  0  0
  -31.7339  -16.1021   22.5928 H   0  0  0  0  0  0
  -27.9877  -25.3564   21.5375 H   0  0  0  0  0  0
  -27.5281  -24.7955   19.9554 H   0  0  0  0  0  0
  -29.2810  -14.8681   21.9378 H   0  0  0  0  0  0
  1 25  1  0  0  0
  1 30  2  0  0  0
  1 84  1  0  0  0
  2  3  1  0  0  0
  2 25  1  0  0  0
  2 85  1  0  0  0
  2 86  1  0  0  0
  3  4  1  0  0  0
  3 87  1  0  0  0
  3 88  1  0  0  0
  4  5  1  0  0  0
  4 89  1  0  0  0
  4 90  1  0  0  0
  5  6  1  0  0  0
  5 26  1  0  0  0
  5 91  1  0  0  0
  6 25  1  0  0  0
  6 92  1  0  0  0
  6 93  1  0  0  0
  7  8  2  0  0  0
  7 26  1  0  0  0
  7 29  1  0  0  0
  8  9  1  0  0  0
  8 22  1  0  0  0
  9 10  1  0  0  0
  9 27  2  0  0  0
 10 11  2  0  0  0
 10 15  1  0  0  0
 11 12  1  0  0  0
 11 94  1  0  0  0
 12 13  2  0  0  0
 12 95  1  0  0  0
 13 14  1  0  0  0
 13 31  1  0  0  0
 14 15  2  0  0  0
 14 96  1  0  0  0
 15 97  1  0  0  0
 16 17  2  0  0  0
 16 21  1  0  0  0
 16 31  1  0  0  0
 17 18  1  0  0  0
 17 98  1  0  0  0
 18 19  2  0  0  0
 18 99  1  0  0  0
 19 20  1  0  0  0
 19 24  1  0  0  0
 20 21  2  0  0  0
 20100  1  0  0  0
 21 23  1  0  0  0
 22 28  1  0  0  0
 22 32  2  0  0  0
 26 27  1  0  0  0
 28101  1  0  0  0
 28102  1  0  0  0
 29103  1  0  0  0
 29104  1  0  0  0
 33 34  1  0  0  0
 33 66  1  0  0  0
 33 70  2  0  0  0
 34 36  1  0  0  0
 34 59  1  0  0  0
 34105  1  0  0  0
 35 44  2  0  0  0
 35 45  1  0  0  0
 35 68  1  0  0  0
 36 56  1  0  0  0
 36106  1  0  0  0
 37 39  1  0  0  0
 37 47  1  0  0  0
 37 66  1  0  0  0
 37107  1  0  0  0
 38 43  2  0  0  0
 38 46  1  0  0  0
 38 47  1  0  0  0
 39 64  1  0  0  0
 39 67  2  0  0  0
 40 52  1  0  0  0
 40 53  2  0  0  0
 40 58  1  0  0  0
 41108  1  0  0  0
 41109  1  0  0  0
 41110  1  0  0  0
 41 48  1  0  0  0
 42 43  1  0  0  0
 42 66  1  0  0  0
 42111  1  0  0  0
 42112  1  0  0  0
 43 44  1  0  0  0
 44113  1  0  0  0
 45 46  2  0  0  0
 45114  1  0  0  0
 46115  1  0  0  0
 47116  1  0  0  0
 47117  1  0  0  0
 48 56  1  0  0  0
 48 65  1  0  0  0
 48118  1  0  0  0
 49 50  1  0  0  0
 49 53  1  0  0  0
 49 64  1  0  0  0
 49119  1  0  0  0
 50 51  1  0  0  0
 50120  1  0  0  0
 50121  1  0  0  0
 51 52  1  0  0  0
 51122  1  0  0  0
 51123  1  0  0  0
 52124  1  0  0  0
 52125  1  0  0  0
 53 54  1  0  0  0
 54 55  2  0  0  0
 54126  1  0  0  0
 55 57  1  0  0  0
 55127  1  0  0  0
 56 69  2  0  0  0
 57 58  2  0  0  0
 57128  1  0  0  0
 58129  1  0  0  0
 59 60  1  0  0  0
 59 61  1  0  0  0
 59 62  1  0  0  0
 60130  1  0  0  0
 60131  1  0  0  0
 60132  1  0  0  0
 61133  1  0  0  0
 61134  1  0  0  0
 61135  1  0  0  0
 62136  1  0  0  0
 62137  1  0  0  0
 62138  1  0  0  0
 63 65  1  0  0  0
 63139  1  0  0  0
 63140  1  0  0  0
 63141  1  0  0  0
 64142  1  0  0  0
 65143  1  0  0  0
 68 81  1  0  0  0
 71 72  2  0  0  0
 71 82  1  0  0  0
 71144  1  0  0  0
 72 76  1  0  0  0
 72 83  1  0  0  0
 73 74  1  0  0  0
 73 75  1  0  0  0
 73 83  2  0  0  0
 74 77  1  0  0  0
 74 82  2  0  0  0
 75145  1  0  0  0
 75146  1  0  0  0
 75147  1  0  0  0
 76 78  1  0  0  0
 76148  1  0  0  0
 76149  1  0  0  0
 77 79  1  0  0  0
 77150  1  0  0  0
 77151  1  0  0  0
 78 81  1  0  0  0
 78152  1  0  0  0
 78153  1  0  0  0
 79 80  1  0  0  0
 79154  1  0  0  0
 79155  1  0  0  0
 80 84  1  0  0  0
 80156  1  0  0  0
 80157  1  0  0  0
 81158  1  0  0  0
 81159  1  0  0  0
 84160  1  0  0  0
M  ISO  4   1 100  68 101  81 101  84 100
M  END
> <chiral flag>
0

> <version>
0

> <s_m_source_file>
/data/baiqing/PycharmProjects/Reinvent-master-3.2/result/LINK_invent/BTK/process_docking_weight1_custom_sum_contain_oxygen_bond_distance_aromatic_linkinvent_7_9_3/rearranged_h_0041.sdf

> <i_m_source_file_index>
82

> <r_mmod_Potential_Energy-OPLS-2005>
-50.5473403930664

> <r_mmod_Stretch_Energy-OPLS-2005>
36.3225784301758

> <r_mmod_Bend_Energy-OPLS-2005>
94.8390350341797

> <r_mmod_Torsional_Energy-OPLS-2005>
224.955612182617

> <r_mmod_Improper_Torsional_Energy-OPLS-2005>
2.08092069625854

> <r_mmod_Van_der_Waal_Energy-OPLS-2005>
160.004653930664

> <r_mmod_Electrostatic_Energy-OPLS-2005>
-352.462524414062

> <r_mmod_Solvation_Energy-OPLS-2005>
-225.021835327148

> <b_mmod_Minimization_Converged-OPLS-2005>
0

> <r_mmod_RMS_Derivative-OPLS-2005>
3.34505581855774

$$$$
82
                    3D
 Structure written by MMmdl.
152160  0  0  1  0            999 V2000
  -30.4667  -15.2041   20.3725 C   0  0  0  0  0  0
  -30.4349  -12.7632   19.5217 C   0  0  0  0  0  0
  -29.5281  -12.5509   18.2845 C   0  0  0  0  0  0
  -28.0770  -12.2857   18.7200 C   0  0  0  0  0  0
  -27.6120  -13.2664   19.8247 C   0  0  2  0  0  0
  -28.6469  -13.4275   20.9580 C   0  0  0  0  0  0
  -25.2390  -13.8229   20.5744 C   0  0  0  0  0  0
  -24.1737  -13.0433   20.9266 C   0  0  0  0  0  0
  -24.6381  -11.6929   20.8776 C   0  0  0  0  0  0
  -23.9077  -10.4292   21.0421 C   0  0  0  0  0  0
  -24.3628   -9.4201   21.9193 C   0  0  0  0  0  0
  -23.6302   -8.2234   22.0754 C   0  0  0  0  0  0
  -22.4282   -8.0276   21.3548 C   0  0  0  0  0  0
  -21.9920   -9.0253   20.4652 C   0  0  0  0  0  0
  -22.7247  -10.2131   20.3067 C   0  0  0  0  0  0
  -21.6851   -6.0735   22.5278 C   0  0  0  0  0  0
  -21.4017   -6.5644   23.8213 C   0  0  0  0  0  0
  -21.3657   -5.6800   24.9176 C   0  0  0  0  0  0
  -21.6039   -4.3059   24.7231 C   0  0  0  0  0  0
  -21.8817   -3.8150   23.4355 C   0  0  0  0  0  0
  -21.9196   -4.6966   22.3409 C   0  0  0  0  0  0
  -22.7760  -13.5192   21.1922 C   0  0  0  0  0  0
  -22.1662   -4.2148   21.0988 F   0  0  0  0  0  0
  -21.5627   -3.4544   25.7746 F   0  0  0  0  0  0
  -29.8861  -13.9102   20.3297 N   0  0  0  0  0  0
  -26.2811  -12.9491   20.3238 N   0  0  0  0  0  0
  -25.9314  -11.6604   20.5745 N   0  0  0  0  0  0
  -22.0432  -12.8161   22.0476 N   0  0  0  0  0  0
  -25.4027  -15.1960   20.4156 N   0  0  0  0  0  0
  -31.6881  -15.1996   20.1652 O   0  0  0  0  0  0
  -21.6641   -6.8873   21.4239 O   0  0  0  0  0  0
  -22.3433  -14.5493   20.6761 O   0  0  0  0  0  0
  -24.6588  -31.8273   23.1754 C   0  0  0  0  0  0
  -25.9289  -32.4606   23.8180 C   0  0  1  0  0  0
  -27.2153  -26.9730   20.1647 C   0  0  0  0  0  0
  -25.5983  -33.8423   24.2090 N   0  0  0  0  0  0
  -23.4711  -30.4439   21.5219 C   0  0  2  0  0  0
  -24.9256  -28.8475   20.1050 C   0  0  0  0  0  0
  -22.7647  -29.4467   22.4768 C   0  0  0  0  0  0
  -18.0318  -28.1412   22.8482 C   0  0  0  0  0  0
  -24.1496  -36.7207   23.2648 C   0  0  0  0  0  0
  -26.0394  -30.6486   21.4005 C   0  0  0  0  0  0
  -26.1078  -29.2447   20.7415 C   0  0  0  0  0  0
  -27.2477  -28.3274   20.7527 C   0  0  0  0  0  0
  -26.0091  -26.7318   19.4651 C   0  0  0  0  0  0
  -24.9010  -27.6104   19.4464 C   0  0  0  0  0  0
  -23.7092  -29.7675   20.1448 C   0  0  0  0  0  0
  -25.4131  -36.2971   24.0303 C   0  0  1  0  0  0
  -20.5949  -28.3752   23.1196 C   0  0  2  0  0  0
  -20.6804  -26.9435   22.5415 C   0  0  0  0  0  0
  -19.5778  -26.6385   21.5225 C   0  0  0  0  0  0
  -18.1951  -26.7948   22.1623 C   0  0  0  0  0  0
  -19.1586  -28.8899   23.2830 C   0  0  0  0  0  0
  -18.9497  -30.1488   23.8866 C   0  0  0  0  0  0
  -17.6496  -30.6608   24.0564 C   0  0  0  0  0  0
  -25.9097  -34.9363   23.5007 C   0  0  0  0  0  0
  -16.5379  -29.9103   23.6352 C   0  0  0  0  0  0
  -16.7302  -28.6523   23.0371 C   0  0  0  0  0  0
  -26.4559  -31.6543   25.0686 C   0  0  0  0  0  0
  -25.3716  -31.3808   26.1369 C   0  0  0  0  0  0
  -27.0412  -30.2894   24.6403 C   0  0  0  0  0  0
  -27.6055  -32.4341   25.7476 C   0  0  0  0  0  0
  -27.5560  -37.1753   24.8459 C   0  0  0  0  0  0
  -21.4319  -29.3047   22.3528 N   0  0  0  0  0  0
  -26.4263  -37.3713   23.9412 N   0  0  0  0  0  0
  -24.7441  -30.9988   22.0860 N   0  0  0  0  0  0
  -23.4224  -28.8020   23.2983 O   0  0  0  0  0  0
  -28.1965  -25.8617   20.2619 O   0  0  0  0  0  0
  -26.5685  -34.8899   22.4586 O   0  0  0  0  0  0
  -23.5672  -32.1203   23.6893 O   0  0  0  0  0  0
  -28.0693  -20.1198   20.5249 C   0  0  0  0  0  0
  -30.1715  -20.8946   20.0828 C   0  0  0  0  0  0
  -29.4216  -19.6568   20.3162 C   0  0  0  0  0  0
  -27.6108  -21.5322   20.4873 C   0  0  0  0  0  0
  -28.4517  -22.7100   20.2426 C   0  0  0  0  0  0
  -25.3294  -21.9280   19.4040 C   0  0  0  0  0  0
  -26.1152  -21.7359   20.7108 C   0  0  0  0  0  0
  -30.1541  -18.0710   20.3550 C   0  0  0  0  0  0
  -27.8245  -24.3142   19.9276 C   0  0  0  0  0  0
  -29.7501  -22.2568   20.0296 N   0  0  0  0  0  0
  -29.7230  -16.4777   20.4425 N   0  0  0  0  0  0
  -31.4558  -12.9559   19.1899 H   0  0  0  0  0  0
  -30.4882  -11.8547   20.1244 H   0  0  0  0  0  0
  -29.8961  -11.7185   17.6835 H   0  0  0  0  0  0
  -29.5649  -13.4336   17.6445 H   0  0  0  0  0  0
  -28.0340  -11.2645   19.1018 H   0  0  0  0  0  0
  -27.4035  -12.3201   17.8635 H   0  0  0  0  0  0
  -27.5335  -14.2347   19.3300 H   0  0  0  0  0  0
  -28.8004  -12.4914   21.4971 H   0  0  0  0  0  0
  -28.2963  -14.1554   21.6913 H   0  0  0  0  0  0
  -25.2762   -9.5678   22.4778 H   0  0  0  0  0  0
  -24.0011   -7.4617   22.7462 H   0  0  0  0  0  0
  -21.0853   -8.8777   19.8953 H   0  0  0  0  0  0
  -22.3701  -10.9683   19.6191 H   0  0  0  0  0  0
  -21.2008   -7.6154   23.9716 H   0  0  0  0  0  0
  -21.1476   -6.0532   25.9077 H   0  0  0  0  0  0
  -22.0596   -2.7614   23.2857 H   0  0  0  0  0  0
  -22.4072  -11.9818   22.4840 H   0  0  0  0  0  0
  -21.1053  -13.1165   22.2720 H   0  0  0  0  0  0
  -24.6299  -15.8438   20.5219 H   0  0  0  0  0  0
  -26.2383  -15.6346   20.0516 H   0  0  0  0  0  0
  -26.7343  -32.5157   23.0883 H   0  0  0  0  0  0
  -25.0125  -33.9501   25.0241 H   0  0  0  0  0  0
  -22.7824  -31.2747   21.3556 H   0  0  0  0  0  0
  -23.3761  -35.9533   23.3284 H   0  0  0  0  0  0
  -24.3589  -36.8878   22.2070 H   0  0  0  0  0  0
  -23.7263  -37.6393   23.6716 H   0  0  0  0  0  0
  -26.2155  -31.3933   20.6230 H   0  0  0  0  0  0
  -26.9026  -30.7018   22.0528 H   0  0  0  0  0  0
  -28.1401  -28.6281   21.2831 H   0  0  0  0  0  0
  -25.8747  -25.7967   18.9432 H   0  0  0  0  0  0
  -24.0068  -27.3059   18.9194 H   0  0  0  0  0  0
  -23.8595  -30.5380   19.3884 H   0  0  0  0  0  0
  -22.8198  -29.2199   19.8283 H   0  0  0  0  0  0
  -25.1343  -36.1742   25.0794 H   0  0  0  0  0  0
  -21.0050  -28.3361   24.1317 H   0  0  0  0  0  0
  -20.5687  -26.2371   23.3654 H   0  0  0  0  0  0
  -21.6664  -26.7427   22.1209 H   0  0  0  0  0  0
  -19.6938  -25.6290   21.1268 H   0  0  0  0  0  0
  -19.6713  -27.3186   20.6747 H   0  0  0  0  0  0
  -17.4229  -26.6715   21.4011 H   0  0  0  0  0  0
  -18.0320  -26.0097   22.9024 H   0  0  0  0  0  0
  -19.7977  -30.7312   24.2214 H   0  0  0  0  0  0
  -17.5055  -31.6283   24.5171 H   0  0  0  0  0  0
  -15.5381  -30.3001   23.7697 H   0  0  0  0  0  0
  -15.8702  -28.0834   22.7106 H   0  0  0  0  0  0
  -24.5934  -30.7089   25.7736 H   0  0  0  0  0  0
  -24.8856  -32.3010   26.4619 H   0  0  0  0  0  0
  -25.7995  -30.9141   27.0251 H   0  0  0  0  0  0
  -26.3051  -29.6593   24.1391 H   0  0  0  0  0  0
  -27.3907  -29.7245   25.5051 H   0  0  0  0  0  0
  -27.9032  -30.4047   23.9828 H   0  0  0  0  0  0
  -27.2624  -33.3698   26.1906 H   0  0  0  0  0  0
  -28.3947  -32.6801   25.0360 H   0  0  0  0  0  0
  -28.0624  -31.8551   26.5514 H   0  0  0  0  0  0
  -28.2564  -38.0058   24.7494 H   0  0  0  0  0  0
  -28.1057  -36.2581   24.6283 H   0  0  0  0  0  0
  -27.2271  -37.1417   25.8860 H   0  0  0  0  0  0
  -20.9539  -29.8752   21.6689 H   0  0  0  0  0  0
  -26.0092  -38.2757   24.1451 H   0  0  0  0  0  0
  -27.3278  -19.3570   20.7150 H   0  0  0  0  0  0
  -31.2319  -20.7869   19.9101 H   0  0  0  0  0  0
  -24.2580  -21.9807   19.6020 H   0  0  0  0  0  0
  -25.4928  -21.0989   18.7150 H   0  0  0  0  0  0
  -25.6056  -22.8459   18.8859 H   0  0  0  0  0  0
  -25.9489  -22.5765   21.3851 H   0  0  0  0  0  0
  -25.7084  -20.8753   21.2438 H   0  0  0  0  0  0
  -30.8450  -18.1650   21.1935 H   0  0  0  0  0  0
  -30.8132  -18.0883   19.4857 H   0  0  0  0  0  0
  -26.8094  -24.2594   20.3086 H   0  0  0  0  0  0
  -27.7055  -24.3116   18.8437 H   0  0  0  0  0  0
  -28.7300  -16.3353   20.5539 H   0  0  0  0  0  0
  1 25  1  0  0  0
  1 30  2  0  0  0
  1 81  1  0  0  0
  2  3  1  0  0  0
  2 25  1  0  0  0
  2 82  1  0  0  0
  2 83  1  0  0  0
  3  4  1  0  0  0
  3 84  1  0  0  0
  3 85  1  0  0  0
  4  5  1  0  0  0
  4 86  1  0  0  0
  4 87  1  0  0  0
  5  6  1  0  0  0
  5 26  1  0  0  0
  5 88  1  0  0  0
  6 25  1  0  0  0
  6 89  1  0  0  0
  6 90  1  0  0  0
  7  8  2  0  0  0
  7 26  1  0  0  0
  7 29  1  0  0  0
  8  9  1  0  0  0
  8 22  1  0  0  0
  9 10  1  0  0  0
  9 27  2  0  0  0
 10 11  2  0  0  0
 10 15  1  0  0  0
 11 12  1  0  0  0
 11 91  1  0  0  0
 12 13  2  0  0  0
 12 92  1  0  0  0
 13 14  1  0  0  0
 13 31  1  0  0  0
 14 15  2  0  0  0
 14 93  1  0  0  0
 15 94  1  0  0  0
 16 17  2  0  0  0
 16 21  1  0  0  0
 16 31  1  0  0  0
 17 18  1  0  0  0
 17 95  1  0  0  0
 18 19  2  0  0  0
 18 96  1  0  0  0
 19 20  1  0  0  0
 19 24  1  0  0  0
 20 21  2  0  0  0
 20 97  1  0  0  0
 21 23  1  0  0  0
 22 28  1  0  0  0
 22 32  2  0  0  0
 26 27  1  0  0  0
 28 98  1  0  0  0
 28 99  1  0  0  0
 29100  1  0  0  0
 29101  1  0  0  0
 33 34  1  0  0  0
 33 66  1  0  0  0
 33 70  2  0  0  0
 34 36  1  0  0  0
 34 59  1  0  0  0
 34102  1  0  0  0
 35 44  2  0  0  0
 35 45  1  0  0  0
 35 68  1  0  0  0
 36 56  1  0  0  0
 36103  1  0  0  0
 37 39  1  0  0  0
 37 47  1  0  0  0
 37 66  1  0  0  0
 37104  1  0  0  0
 38 43  2  0  0  0
 38 46  1  0  0  0
 38 47  1  0  0  0
 39 64  1  0  0  0
 39 67  2  0  0  0
 40 52  1  0  0  0
 40 53  2  0  0  0
 40 58  1  0  0  0
 41105  1  0  0  0
 41106  1  0  0  0
 41107  1  0  0  0
 41 48  1  0  0  0
 42 43  1  0  0  0
 42 66  1  0  0  0
 42108  1  0  0  0
 42109  1  0  0  0
 43 44  1  0  0  0
 44110  1  0  0  0
 45 46  2  0  0  0
 45111  1  0  0  0
 46112  1  0  0  0
 47113  1  0  0  0
 47114  1  0  0  0
 48 56  1  0  0  0
 48 65  1  0  0  0
 48115  1  0  0  0
 49 50  1  0  0  0
 49 53  1  0  0  0
 49 64  1  0  0  0
 49116  1  0  0  0
 50 51  1  0  0  0
 50117  1  0  0  0
 50118  1  0  0  0
 51 52  1  0  0  0
 51119  1  0  0  0
 51120  1  0  0  0
 52121  1  0  0  0
 52122  1  0  0  0
 53 54  1  0  0  0
 54 55  2  0  0  0
 54123  1  0  0  0
 55 57  1  0  0  0
 55124  1  0  0  0
 56 69  2  0  0  0
 57 58  2  0  0  0
 57125  1  0  0  0
 58126  1  0  0  0
 59 60  1  0  0  0
 59 61  1  0  0  0
 59 62  1  0  0  0
 60127  1  0  0  0
 60128  1  0  0  0
 60129  1  0  0  0
 61130  1  0  0  0
 61131  1  0  0  0
 61132  1  0  0  0
 62133  1  0  0  0
 62134  1  0  0  0
 62135  1  0  0  0
 63 65  1  0  0  0
 63136  1  0  0  0
 63137  1  0  0  0
 63138  1  0  0  0
 64139  1  0  0  0
 65140  1  0  0  0
 68 79  1  0  0  0
 71 73  2  0  0  0
 71 74  1  0  0  0
 71141  1  0  0  0
 72 73  1  0  0  0
 72 80  2  0  0  0
 72142  1  0  0  0
 73 78  1  0  0  0
 74 75  2  0  0  0
 74 77  1  0  0  0
 75 79  1  0  0  0
 75 80  1  0  0  0
 76 77  1  0  0  0
 76143  1  0  0  0
 76144  1  0  0  0
 76145  1  0  0  0
 77146  1  0  0  0
 77147  1  0  0  0
 78 81  1  0  0  0
 78148  1  0  0  0
 78149  1  0  0  0
 79150  1  0  0  0
 79151  1  0  0  0
 81152  1  0  0  0
M  ISO  4   1 100  68 101  79 101  81 100
M  END
> <chiral flag>
0

> <version>
0

> <s_m_source_file>
/data/baiqing/PycharmProjects/Reinvent-master-3.2/result/LINK_invent/BTK/process_docking_weight1_custom_sum_contain_oxygen_bond_distance_aromatic_linkinvent_7_9_3/rearranged_h_0041.sdf

> <i_m_source_file_index>
83

> <r_mmod_Potential_Energy-OPLS-2005>
980.467407226562

> <r_mmod_Stretch_Energy-OPLS-2005>
472.110961914062

> <r_mmod_Bend_Energy-OPLS-2005>
440.967834472656

> <r_mmod_Torsional_Energy-OPLS-2005>
206.937194824219

> <r_mmod_Improper_Torsional_Energy-OPLS-2005>
5.83655118942261

> <r_mmod_Van_der_Waal_Energy-OPLS-2005>
136.395599365234

> <r_mmod_Electrostatic_Energy-OPLS-2005>
-447.288604736328

> <r_mmod_Solvation_Energy-OPLS-2005>
-235.85823059082

> <b_mmod_Minimization_Converged-OPLS-2005>
0

> <r_mmod_RMS_Derivative-OPLS-2005>
1.72381806373596

$$$$
83
                    3D
 Structure written by MMmdl.
172181  0  0  1  0            999 V2000
  -30.7668  -14.4588   20.4212 C   0  0  0  0  0  0
  -30.4024  -12.2434   19.4332 C   0  0  0  0  0  0
  -29.4909  -12.3983   18.2021 C   0  0  0  0  0  0
  -28.0100  -12.3104   18.6171 C   0  0  0  0  0  0
  -27.6514  -13.1852   19.8508 C   0  0  2  0  0  0
  -28.7159  -13.0611   20.9661 C   0  0  0  0  0  0
  -25.2642  -13.8034   20.5772 C   0  0  0  0  0  0
  -24.1853  -13.0372   20.9246 C   0  0  0  0  0  0
  -24.6361  -11.6809   20.8778 C   0  0  0  0  0  0
  -23.8940  -10.4259   21.0411 C   0  0  0  0  0  0
  -24.3523   -9.4186   21.9178 C   0  0  0  0  0  0
  -23.6212   -8.2223   22.0710 C   0  0  0  0  0  0
  -22.4198   -8.0252   21.3506 C   0  0  0  0  0  0
  -21.9820   -9.0226   20.4619 C   0  0  0  0  0  0
  -22.7115  -10.2111   20.3047 C   0  0  0  0  0  0
  -21.6859   -6.0689   22.5236 C   0  0  0  0  0  0
  -21.4008   -6.5604   23.8186 C   0  0  0  0  0  0
  -21.3669   -5.6770   24.9149 C   0  0  0  0  0  0
  -21.6064   -4.3041   24.7228 C   0  0  0  0  0  0
  -21.8811   -3.8084   23.4337 C   0  0  0  0  0  0
  -21.9187   -4.6901   22.3394 C   0  0  0  0  0  0
  -22.7915  -13.5212   21.1888 C   0  0  0  0  0  0
  -22.1635   -4.2058   21.0982 F   0  0  0  0  0  0
  -21.5670   -3.4570   25.7778 F   0  0  0  0  0  0
  -30.0363  -13.3089   20.3703 N   0  0  0  0  0  0
  -26.3015  -12.9149   20.3373 N   0  0  0  0  0  0
  -25.9292  -11.6334   20.5800 N   0  0  0  0  0  0
  -22.0527  -12.8264   22.0445 N   0  0  0  0  0  0
  -25.4362  -15.1752   20.4143 N   0  0  0  0  0  0
  -31.9693  -14.4863   20.1526 O   0  0  0  0  0  0
  -21.6583   -6.8844   21.4216 O   0  0  0  0  0  0
  -22.3610  -14.5514   20.6705 O   0  0  0  0  0  0
  -24.6154  -31.8651   23.2083 C   0  0  0  0  0  0
  -25.9043  -32.4810   23.8367 C   0  0  1  0  0  0
  -27.2687  -27.4741   20.0660 C   0  0  0  0  0  0
  -25.5910  -33.8609   24.2298 N   0  0  0  0  0  0
  -23.3982  -30.4810   21.5565 C   0  0  2  0  0  0
  -24.8458  -28.9431   20.1249 C   0  0  0  0  0  0
  -22.7385  -29.4618   22.5106 C   0  0  0  0  0  0
  -18.0243  -28.1345   22.8494 C   0  0  0  0  0  0
  -24.1490  -36.7294   23.2641 C   0  0  0  0  0  0
  -25.9215  -30.8397   21.3558 C   0  0  0  0  0  0
  -26.0042  -29.4780   20.7035 C   0  0  0  0  0  0
  -27.2147  -28.7510   20.6727 C   0  0  0  0  0  0
  -26.0847  -26.9346   19.5227 C   0  0  0  0  0  0
  -24.8776  -27.6664   19.5355 C   0  0  0  0  0  0
  -23.5964  -29.7956   20.1779 C   0  0  0  0  0  0
  -25.4122  -36.3102   24.0335 C   0  0  1  0  0  0
  -20.5832  -28.3623   23.1356 C   0  0  2  0  0  0
  -20.6750  -26.9360   22.5453 C   0  0  0  0  0  0
  -19.5739  -26.6358   21.5229 C   0  0  0  0  0  0
  -18.1899  -26.7901   22.1605 C   0  0  0  0  0  0
  -19.1490  -28.8802   23.2907 C   0  0  0  0  0  0
  -18.9413  -30.1430   23.8892 C   0  0  0  0  0  0
  -17.6417  -30.6568   24.0544 C   0  0  0  0  0  0
  -25.9055  -34.9474   23.5103 C   0  0  0  0  0  0
  -16.5306  -29.9061   23.6343 C   0  0  0  0  0  0
  -16.7233  -28.6468   23.0375 C   0  0  0  0  0  0
  -26.4506  -31.6603   25.0684 C   0  0  0  0  0  0
  -25.3774  -31.3692   26.1418 C   0  0  0  0  0  0
  -27.0364  -30.3039   24.6094 C   0  0  0  0  0  0
  -27.6092  -32.4340   25.7425 C   0  0  0  0  0  0
  -27.5582  -37.1785   24.8463 C   0  0  0  0  0  0
  -21.4124  -29.2985   22.3783 N   0  0  0  0  0  0
  -26.4307  -37.3792   23.9407 N   0  0  0  0  0  0
  -24.6625  -31.0773   22.0988 N   0  0  0  0  0  0
  -23.4148  -28.8200   23.3182 O   0  0  0  0  0  0
  -28.4283  -26.7306   19.9709 O   0  0  0  0  0  0
  -26.5615  -34.8923   22.4666 O   0  0  0  0  0  0
  -23.5351  -32.1409   23.7509 O   0  0  0  0  0  0
  -29.0187  -21.6444   20.2648 C   0  0  0  0  0  0
  -31.1753  -23.2504   19.7125 C   0  0  0  0  0  0
  -28.8650  -22.6758   19.3223 C   0  0  0  0  0  0
  -29.9521  -23.5378   19.0541 C   0  0  0  0  0  0
  -30.2508  -21.4923   20.9152 C   0  0  0  0  0  0
  -30.2325  -17.1842   18.5570 C   0  0  0  0  0  0
  -30.5092  -18.4176   19.4233 C   0  0  0  0  0  0
  -29.4113  -16.1177   19.3035 C   0  0  0  0  0  0
  -30.7169  -16.7080   21.3379 C   0  0  0  0  0  0
  -30.3236  -18.1586   20.9389 C   0  0  1  0  0  0
  -27.5153  -22.8875   18.6685 C   0  0  0  0  0  0
  -30.3845  -20.5249   22.0834 C   0  0  0  0  0  0
  -31.1048  -19.1933   21.7893 C   0  0  0  0  0  0
  -30.8296  -26.5670   19.3027 C   0  0  0  0  0  0
  -29.6000  -27.4597   19.5874 C   0  0  0  0  0  0
  -30.7382  -25.6228   18.0764 C   0  0  0  0  0  0
  -31.3234  -22.2577   20.6197 N   0  0  0  0  0  0
  -30.0954  -15.6312   20.5212 N   0  0  0  0  0  0
  -29.7440  -24.6046   18.1990 O   0  0  0  0  0  0
  -31.4570  -12.2425   19.1460 H   0  0  0  0  0  0
  -30.2320  -11.2685   19.8986 H   0  0  0  0  0  0
  -29.7077  -11.5912   17.4990 H   0  0  0  0  0  0
  -29.6981  -13.3300   17.6722 H   0  0  0  0  0  0
  -27.8084  -11.2621   18.8496 H   0  0  0  0  0  0
  -27.3686  -12.5588   17.7704 H   0  0  0  0  0  0
  -27.6401  -14.2106   19.5016 H   0  0  0  0  0  0
  -28.6948  -12.0614   21.4018 H   0  0  0  0  0  0
  -28.5219  -13.7475   21.7878 H   0  0  0  0  0  0
  -25.2719   -9.5704   22.4677 H   0  0  0  0  0  0
  -23.9953   -7.4627   22.7394 H   0  0  0  0  0  0
  -21.0757   -8.8690   19.8928 H   0  0  0  0  0  0
  -22.3535  -10.9614   19.6101 H   0  0  0  0  0  0
  -21.1939   -7.6105   23.9666 H   0  0  0  0  0  0
  -21.1530   -6.0496   25.9065 H   0  0  0  0  0  0
  -22.0577   -2.7532   23.2858 H   0  0  0  0  0  0
  -22.4127  -11.9997   22.5007 H   0  0  0  0  0  0
  -21.1088  -13.1231   22.2492 H   0  0  0  0  0  0
  -24.6749  -15.8345   20.5358 H   0  0  0  0  0  0
  -26.3055  -15.6117   20.1425 H   0  0  0  0  0  0
  -26.7122  -32.5517   23.1149 H   0  0  0  0  0  0
  -25.0134  -33.9791   25.0486 H   0  0  0  0  0  0
  -22.6839  -31.2948   21.4171 H   0  0  0  0  0  0
  -23.3751  -35.9620   23.3316 H   0  0  0  0  0  0
  -24.3582  -36.8891   22.2047 H   0  0  0  0  0  0
  -23.7229  -37.6503   23.6642 H   0  0  0  0  0  0
  -26.0298  -31.6044   20.5854 H   0  0  0  0  0  0
  -26.8115  -30.8938   21.9718 H   0  0  0  0  0  0
  -28.0982  -29.1838   21.1179 H   0  0  0  0  0  0
  -26.0961  -25.9534   19.0721 H   0  0  0  0  0  0
  -23.9840  -27.2412   19.0998 H   0  0  0  0  0  0
  -23.6659  -30.5563   19.3988 H   0  0  0  0  0  0
  -22.7280  -29.1875   19.9167 H   0  0  0  0  0  0
  -25.1290  -36.1980   25.0831 H   0  0  0  0  0  0
  -20.9891  -28.3187   24.1486 H   0  0  0  0  0  0
  -20.5666  -26.2206   23.3629 H   0  0  0  0  0  0
  -21.6621  -26.7439   22.1221 H   0  0  0  0  0  0
  -19.6913  -25.6280   21.1231 H   0  0  0  0  0  0
  -19.6714  -27.3194   20.6778 H   0  0  0  0  0  0
  -17.4204  -26.6682   21.3977 H   0  0  0  0  0  0
  -18.0255  -26.0028   22.8965 H   0  0  0  0  0  0
  -19.7891  -30.7241   24.2259 H   0  0  0  0  0  0
  -17.4969  -31.6261   24.5113 H   0  0  0  0  0  0
  -15.5306  -30.2947   23.7678 H   0  0  0  0  0  0
  -15.8624  -28.0772   22.7136 H   0  0  0  0  0  0
  -24.5926  -30.7105   25.7679 H   0  0  0  0  0  0
  -24.9031  -32.2876   26.4905 H   0  0  0  0  0  0
  -25.8117  -30.8768   27.0138 H   0  0  0  0  0  0
  -26.2913  -29.6705   24.1281 H   0  0  0  0  0  0
  -27.4255  -29.7361   25.4564 H   0  0  0  0  0  0
  -27.8684  -30.4301   23.9158 H   0  0  0  0  0  0
  -27.2703  -33.3600   26.2080 H   0  0  0  0  0  0
  -28.3850  -32.6986   25.0220 H   0  0  0  0  0  0
  -28.0852  -31.8447   26.5274 H   0  0  0  0  0  0
  -28.2617  -38.0068   24.7522 H   0  0  0  0  0  0
  -28.1062  -36.2603   24.6287 H   0  0  0  0  0  0
  -27.2293  -37.1427   25.8865 H   0  0  0  0  0  0
  -20.9307  -29.8588   21.6894 H   0  0  0  0  0  0
  -26.0182  -38.2858   24.1447 H   0  0  0  0  0  0
  -28.1832  -21.0111   20.5322 H   0  0  0  0  0  0
  -32.0636  -23.8488   19.5626 H   0  0  0  0  0  0
  -31.1756  -16.7416   18.2274 H   0  0  0  0  0  0
  -29.7161  -17.4863   17.6437 H   0  0  0  0  0  0
  -29.8296  -19.2147   19.1143 H   0  0  0  0  0  0
  -31.5101  -18.7933   19.1936 H   0  0  0  0  0  0
  -29.2314  -15.3092   18.5946 H   0  0  0  0  0  0
  -28.4306  -16.5099   19.5694 H   0  0  0  0  0  0
  -30.4605  -16.5145   22.3828 H   0  0  0  0  0  0
  -31.8062  -16.6477   21.2935 H   0  0  0  0  0  0
  -29.2616  -18.2646   21.1650 H   0  0  0  0  0  0
  -27.0148  -23.7313   19.1448 H   0  0  0  0  0  0
  -26.8863  -22.0046   18.7840 H   0  0  0  0  0  0
  -27.6318  -23.0946   17.6048 H   0  0  0  0  0  0
  -29.4025  -20.3248   22.5104 H   0  0  0  0  0  0
  -30.9170  -21.0494   22.8812 H   0  0  0  0  0  0
  -32.0917  -19.3930   21.3696 H   0  0  0  0  0  0
  -31.2988  -18.7470   22.7639 H   0  0  0  0  0  0
  -31.1237  -26.0255   20.2010 H   0  0  0  0  0  0
  -31.6591  -27.2505   19.1087 H   0  0  0  0  0  0
  -29.3810  -28.0759   18.7125 H   0  0  0  0  0  0
  -29.8749  -28.1374   20.3971 H   0  0  0  0  0  0
  -31.7085  -25.1681   17.8698 H   0  0  0  0  0  0
  -30.5107  -26.2052   17.1813 H   0  0  0  0  0  0
  1 25  1  0  0  0
  1 30  2  0  0  0
  1 88  1  0  0  0
  2  3  1  0  0  0
  2 25  1  0  0  0
  2 90  1  0  0  0
  2 91  1  0  0  0
  3  4  1  0  0  0
  3 92  1  0  0  0
  3 93  1  0  0  0
  4  5  1  0  0  0
  4 94  1  0  0  0
  4 95  1  0  0  0
  5  6  1  0  0  0
  5 26  1  0  0  0
  5 96  1  0  0  0
  6 25  1  0  0  0
  6 97  1  0  0  0
  6 98  1  0  0  0
  7  8  2  0  0  0
  7 26  1  0  0  0
  7 29  1  0  0  0
  8  9  1  0  0  0
  8 22  1  0  0  0
  9 10  1  0  0  0
  9 27  2  0  0  0
 10 11  2  0  0  0
 10 15  1  0  0  0
 11 12  1  0  0  0
 11 99  1  0  0  0
 12 13  2  0  0  0
 12100  1  0  0  0
 13 14  1  0  0  0
 13 31  1  0  0  0
 14 15  2  0  0  0
 14101  1  0  0  0
 15102  1  0  0  0
 16 17  2  0  0  0
 16 21  1  0  0  0
 16 31  1  0  0  0
 17 18  1  0  0  0
 17103  1  0  0  0
 18 19  2  0  0  0
 18104  1  0  0  0
 19 20  1  0  0  0
 19 24  1  0  0  0
 20 21  2  0  0  0
 20105  1  0  0  0
 21 23  1  0  0  0
 22 28  1  0  0  0
 22 32  2  0  0  0
 26 27  1  0  0  0
 28106  1  0  0  0
 28107  1  0  0  0
 29108  1  0  0  0
 29109  1  0  0  0
 33 34  1  0  0  0
 33 66  1  0  0  0
 33 70  2  0  0  0
 34 36  1  0  0  0
 34 59  1  0  0  0
 34110  1  0  0  0
 35 44  2  0  0  0
 35 45  1  0  0  0
 35 68  1  0  0  0
 36 56  1  0  0  0
 36111  1  0  0  0
 37 39  1  0  0  0
 37 47  1  0  0  0
 37 66  1  0  0  0
 37112  1  0  0  0
 38 43  2  0  0  0
 38 46  1  0  0  0
 38 47  1  0  0  0
 39 64  1  0  0  0
 39 67  2  0  0  0
 40 52  1  0  0  0
 40 53  2  0  0  0
 40 58  1  0  0  0
 41113  1  0  0  0
 41114  1  0  0  0
 41115  1  0  0  0
 41 48  1  0  0  0
 42 43  1  0  0  0
 42 66  1  0  0  0
 42116  1  0  0  0
 42117  1  0  0  0
 43 44  1  0  0  0
 44118  1  0  0  0
 45 46  2  0  0  0
 45119  1  0  0  0
 46120  1  0  0  0
 47121  1  0  0  0
 47122  1  0  0  0
 48 56  1  0  0  0
 48 65  1  0  0  0
 48123  1  0  0  0
 49 50  1  0  0  0
 49 53  1  0  0  0
 49 64  1  0  0  0
 49124  1  0  0  0
 50 51  1  0  0  0
 50125  1  0  0  0
 50126  1  0  0  0
 51 52  1  0  0  0
 51127  1  0  0  0
 51128  1  0  0  0
 52129  1  0  0  0
 52130  1  0  0  0
 53 54  1  0  0  0
 54 55  2  0  0  0
 54131  1  0  0  0
 55 57  1  0  0  0
 55132  1  0  0  0
 56 69  2  0  0  0
 57 58  2  0  0  0
 57133  1  0  0  0
 58134  1  0  0  0
 59 60  1  0  0  0
 59 61  1  0  0  0
 59 62  1  0  0  0
 60135  1  0  0  0
 60136  1  0  0  0
 60137  1  0  0  0
 61138  1  0  0  0
 61139  1  0  0  0
 61140  1  0  0  0
 62141  1  0  0  0
 62142  1  0  0  0
 62143  1  0  0  0
 63 65  1  0  0  0
 63144  1  0  0  0
 63145  1  0  0  0
 63146  1  0  0  0
 64147  1  0  0  0
 65148  1  0  0  0
 68 85  1  0  0  0
 71 73  2  0  0  0
 71 75  1  0  0  0
 71149  1  0  0  0
 72 74  2  0  0  0
 72 87  1  0  0  0
 72150  1  0  0  0
 73 74  1  0  0  0
 73 81  1  0  0  0
 74 89  1  0  0  0
 75 82  1  0  0  0
 75 87  2  0  0  0
 76 77  1  0  0  0
 76 78  1  0  0  0
 76151  1  0  0  0
 76152  1  0  0  0
 77 80  1  0  0  0
 77153  1  0  0  0
 77154  1  0  0  0
 78 88  1  0  0  0
 78155  1  0  0  0
 78156  1  0  0  0
 79 80  1  0  0  0
 79 88  1  0  0  0
 79157  1  0  0  0
 79158  1  0  0  0
 80 83  1  0  0  0
 80159  1  0  0  0
 81160  1  0  0  0
 81161  1  0  0  0
 81162  1  0  0  0
 82 83  1  0  0  0
 82163  1  0  0  0
 82164  1  0  0  0
 83165  1  0  0  0
 83166  1  0  0  0
 84 85  1  0  0  0
 84 86  1  0  0  0
 84167  1  0  0  0
 84168  1  0  0  0
 85169  1  0  0  0
 85170  1  0  0  0
 86 89  1  0  0  0
 86171  1  0  0  0
 86172  1  0  0  0
M  ISO  4   1 100  68 101  85 101  88 100
M  END
> <chiral flag>
0

> <version>
0

> <s_m_source_file>
/data/baiqing/PycharmProjects/Reinvent-master-3.2/result/LINK_invent/BTK/process_docking_weight1_custom_sum_contain_oxygen_bond_distance_aromatic_linkinvent_7_9_3/rearranged_h_0041.sdf

> <i_m_source_file_index>
84

> <r_mmod_Potential_Energy-OPLS-2005>
106.323745727539

> <r_mmod_Stretch_Energy-OPLS-2005>
39.9681282043457

> <r_mmod_Bend_Energy-OPLS-2005>
124.22575378418

> <r_mmod_Torsional_Energy-OPLS-2005>
353.314025878906

> <r_mmod_Improper_Torsional_Energy-OPLS-2005>
9.35353851318359

> <r_mmod_Van_der_Waal_Energy-OPLS-2005>
161.126327514648

> <r_mmod_Electrostatic_Energy-OPLS-2005>
-394.59228515625

> <r_mmod_Solvation_Energy-OPLS-2005>
-215.013290405273

> <b_mmod_Minimization_Converged-OPLS-2005>
0

> <r_mmod_RMS_Derivative-OPLS-2005>
6.55224084854126

$$$$
84
                    3D
 Structure written by MMmdl.
151159  0  0  1  0            999 V2000
  -30.5785  -14.8821   20.3846 C   0  0  0  0  0  0
  -30.4196  -12.5428   19.4806 C   0  0  0  0  0  0
  -29.5025  -12.5126   18.2374 C   0  0  0  0  0  0
  -28.0364  -12.3090   18.6587 C   0  0  0  0  0  0
  -27.6196  -13.2429   19.8287 C   0  0  2  0  0  0
  -28.6640  -13.2724   20.9639 C   0  0  0  0  0  0
  -25.2402  -13.8192   20.5727 C   0  0  0  0  0  0
  -24.1715  -13.0415   20.9244 C   0  0  0  0  0  0
  -24.6359  -11.6895   20.8753 C   0  0  0  0  0  0
  -23.9037  -10.4282   21.0408 C   0  0  0  0  0  0
  -24.3590   -9.4187   21.9177 C   0  0  0  0  0  0
  -23.6284   -8.2219   22.0739 C   0  0  0  0  0  0
  -22.4250   -8.0270   21.3549 C   0  0  0  0  0  0
  -21.9885   -9.0229   20.4629 C   0  0  0  0  0  0
  -22.7209  -10.2128   20.3055 C   0  0  0  0  0  0
  -21.6874   -6.0715   22.5273 C   0  0  0  0  0  0
  -21.4010   -6.5614   23.8203 C   0  0  0  0  0  0
  -21.3664   -5.6777   24.9174 C   0  0  0  0  0  0
  -21.6058   -4.3046   24.7230 C   0  0  0  0  0  0
  -21.8815   -3.8126   23.4356 C   0  0  0  0  0  0
  -21.9185   -4.6930   22.3407 C   0  0  0  0  0  0
  -22.7761  -13.5199   21.1880 C   0  0  0  0  0  0
  -22.1661   -4.2120   21.0981 F   0  0  0  0  0  0
  -21.5639   -3.4515   25.7745 F   0  0  0  0  0  0
  -29.9449  -13.6503   20.3516 N   0  0  0  0  0  0
  -26.2811  -12.9428   20.3215 N   0  0  0  0  0  0
  -25.9294  -11.6553   20.5743 N   0  0  0  0  0  0
  -22.0417  -12.8214   22.0473 N   0  0  0  0  0  0
  -25.4047  -15.1918   20.4097 N   0  0  0  0  0  0
  -31.7921  -14.9062   20.1577 O   0  0  0  0  0  0
  -21.6643   -6.8856   21.4247 O   0  0  0  0  0  0
  -22.3443  -14.5507   20.6733 O   0  0  0  0  0  0
  -24.6434  -31.8470   23.1875 C   0  0  0  0  0  0
  -25.9246  -32.4666   23.8241 C   0  0  1  0  0  0
  -27.2207  -27.1617   20.1279 C   0  0  0  0  0  0
  -25.6000  -33.8462   24.2164 N   0  0  0  0  0  0
  -23.4412  -30.4621   21.5370 C   0  0  2  0  0  0
  -24.8843  -28.8766   20.1176 C   0  0  0  0  0  0
  -22.7538  -29.4565   22.4920 C   0  0  0  0  0  0
  -18.0302  -28.1416   22.8489 C   0  0  0  0  0  0
  -24.1495  -36.7223   23.2628 C   0  0  0  0  0  0
  -25.9939  -30.7188   21.3783 C   0  0  0  0  0  0
  -26.0635  -29.3284   20.7244 C   0  0  0  0  0  0
  -27.2340  -28.4872   20.7100 C   0  0  0  0  0  0
  -26.0109  -26.7827   19.5133 C   0  0  0  0  0  0
  -24.8668  -27.6130   19.5042 C   0  0  0  0  0  0
  -23.6630  -29.7826   20.1595 C   0  0  0  0  0  0
  -25.4131  -36.2993   24.0301 C   0  0  1  0  0  0
  -20.5907  -28.3732   23.1264 C   0  0  2  0  0  0
  -20.6796  -26.9451   22.5417 C   0  0  0  0  0  0
  -19.5773  -26.6408   21.5228 C   0  0  0  0  0  0
  -18.1950  -26.7955   22.1635 C   0  0  0  0  0  0
  -19.1558  -28.8901   23.2857 C   0  0  0  0  0  0
  -18.9469  -30.1501   23.8883 C   0  0  0  0  0  0
  -17.6463  -30.6608   24.0574 C   0  0  0  0  0  0
  -25.9102  -34.9371   23.5041 C   0  0  0  0  0  0
  -16.5355  -29.9110   23.6338 C   0  0  0  0  0  0
  -16.7284  -28.6527   23.0356 C   0  0  0  0  0  0
  -26.4577  -31.6517   25.0673 C   0  0  0  0  0  0
  -25.3762  -31.3708   26.1357 C   0  0  0  0  0  0
  -27.0411  -30.2902   24.6220 C   0  0  0  0  0  0
  -27.6098  -32.4277   25.7482 C   0  0  0  0  0  0
  -27.5567  -37.1771   24.8473 C   0  0  0  0  0  0
  -21.4236  -29.3045   22.3642 N   0  0  0  0  0  0
  -26.4279  -37.3728   23.9410 N   0  0  0  0  0  0
  -24.7138  -31.0304   22.0898 N   0  0  0  0  0  0
  -23.4189  -28.8133   23.3074 O   0  0  0  0  0  0
  -28.3255  -26.2541   20.0801 O   0  0  0  0  0  0
  -26.5665  -34.8908   22.4609 O   0  0  0  0  0  0
  -23.5570  -32.1325   23.7117 O   0  0  0  0  0  0
  -30.5891  -20.1566   19.7591 C   0  0  0  0  0  0
  -29.7656  -19.0607   20.1705 C   0  0  0  0  0  0
  -28.4669  -19.5831   20.4797 C   0  0  0  0  0  0
  -28.9597  -21.8860   19.9298 C   0  0  0  0  0  0
  -27.3895  -18.6686   21.0187 C   0  0  0  0  0  0
  -30.4352  -17.5473   20.2883 C   0  0  0  0  0  0
  -28.5035  -23.4182   19.5037 C   0  0  0  0  0  0
  -28.2651  -24.7562   20.4714 C   0  0  0  0  0  0
  -30.2084  -21.4786   19.6422 N   0  0  0  0  0  0
  -28.0939  -20.9224   20.3393 N   0  0  0  0  0  0
  -29.8542  -16.0977   20.4368 N   0  0  0  0  0  0
  -31.4550  -12.6769   19.1666 H   0  0  0  0  0  0
  -30.3885  -11.5895   20.0125 H   0  0  0  0  0  0
  -29.8095  -11.7158   17.5600 H   0  0  0  0  0  0
  -29.5982  -13.4484   17.6805 H   0  0  0  0  0  0
  -27.9285  -11.2663   18.9639 H   0  0  0  0  0  0
  -27.3677  -12.4445   17.8049 H   0  0  0  0  0  0
  -27.5854  -14.2448   19.4025 H   0  0  0  0  0  0
  -28.7344  -12.3015   21.4601 H   0  0  0  0  0  0
  -28.3683  -13.9887   21.7344 H   0  0  0  0  0  0
  -25.2726   -9.5671   22.4769 H   0  0  0  0  0  0
  -23.9991   -7.4617   22.7453 H   0  0  0  0  0  0
  -21.0829   -8.8719   19.8972 H   0  0  0  0  0  0
  -22.3619  -10.9649   19.6177 H   0  0  0  0  0  0
  -21.2013   -7.6117   23.9696 H   0  0  0  0  0  0
  -21.1503   -6.0503   25.9074 H   0  0  0  0  0  0
  -22.0598   -2.7578   23.2845 H   0  0  0  0  0  0
  -22.4024  -11.9906   22.4922 H   0  0  0  0  0  0
  -21.1057  -13.1242   22.2660 H   0  0  0  0  0  0
  -24.6305  -15.8377   20.5121 H   0  0  0  0  0  0
  -26.2434  -15.6278   20.0485 H   0  0  0  0  0  0
  -26.7283  -32.5266   23.0946 H   0  0  0  0  0  0
  -25.0168  -33.9577   25.0323 H   0  0  0  0  0  0
  -22.7430  -31.2866   21.3835 H   0  0  0  0  0  0
  -23.3767  -35.9550   23.3289 H   0  0  0  0  0  0
  -24.3566  -36.8858   22.2042 H   0  0  0  0  0  0
  -23.7269  -37.6430   23.6665 H   0  0  0  0  0  0
  -26.1429  -31.4681   20.5979 H   0  0  0  0  0  0
  -26.8669  -30.7704   22.0187 H   0  0  0  0  0  0
  -28.1381  -28.8366   21.1868 H   0  0  0  0  0  0
  -25.9426  -25.8178   19.0310 H   0  0  0  0  0  0
  -23.9617  -27.2588   19.0298 H   0  0  0  0  0  0
  -23.8021  -30.5543   19.4012 H   0  0  0  0  0  0
  -22.7740  -29.2287   19.8529 H   0  0  0  0  0  0
  -25.1327  -36.1798   25.0792 H   0  0  0  0  0  0
  -20.9971  -28.3326   24.1396 H   0  0  0  0  0  0
  -20.5747  -26.2344   23.3630 H   0  0  0  0  0  0
  -21.6658  -26.7513   22.1190 H   0  0  0  0  0  0
  -19.6944  -25.6324   21.1263 H   0  0  0  0  0  0
  -19.6705  -27.3219   20.6761 H   0  0  0  0  0  0
  -17.4224  -26.6707   21.4024 H   0  0  0  0  0  0
  -18.0337  -26.0105   22.9037 H   0  0  0  0  0  0
  -19.7951  -30.7325   24.2222 H   0  0  0  0  0  0
  -17.5029  -31.6280   24.5198 H   0  0  0  0  0  0
  -15.5373  -30.3009   23.7674 H   0  0  0  0  0  0
  -15.8681  -28.0851   22.7067 H   0  0  0  0  0  0
  -24.5993  -30.6995   25.7693 H   0  0  0  0  0  0
  -24.8903  -32.2879   26.4667 H   0  0  0  0  0  0
  -25.8053  -30.8985   27.0190 H   0  0  0  0  0  0
  -26.2989  -29.6640   24.1239 H   0  0  0  0  0  0
  -27.4050  -29.7189   25.4770 H   0  0  0  0  0  0
  -27.8900  -30.4127   23.9488 H   0  0  0  0  0  0
  -27.2680  -33.3602   26.1981 H   0  0  0  0  0  0
  -28.3970  -32.6778   25.0357 H   0  0  0  0  0  0
  -28.0688  -31.8441   26.5466 H   0  0  0  0  0  0
  -28.2592  -38.0060   24.7499 H   0  0  0  0  0  0
  -28.1053  -36.2587   24.6323 H   0  0  0  0  0  0
  -27.2265  -37.1447   25.8872 H   0  0  0  0  0  0
  -20.9463  -29.8696   21.6756 H   0  0  0  0  0  0
  -26.0132  -38.2789   24.1422 H   0  0  0  0  0  0
  -31.6178  -19.9630   19.5045 H   0  0  0  0  0  0
  -26.8106  -18.2337   20.2023 H   0  0  0  0  0  0
  -27.8302  -17.8657   21.6119 H   0  0  0  0  0  0
  -26.7065  -19.2171   21.6674 H   0  0  0  0  0  0
  -31.1488  -17.6290   21.1104 H   0  0  0  0  0  0
  -31.0761  -17.4797   19.4037 H   0  0  0  0  0  0
  -27.5865  -23.2946   18.9259 H   0  0  0  0  0  0
  -29.2418  -23.7255   18.7600 H   0  0  0  0  0  0
  -27.3550  -24.5873   21.0484 H   0  0  0  0  0  0
  -29.0643  -24.6871   21.2088 H   0  0  0  0  0  0
  -28.8550  -16.0003   20.5229 H   0  0  0  0  0  0
  1 25  1  0  0  0
  1 30  2  0  0  0
  1 81  1  0  0  0
  2  3  1  0  0  0
  2 25  1  0  0  0
  2 82  1  0  0  0
  2 83  1  0  0  0
  3  4  1  0  0  0
  3 84  1  0  0  0
  3 85  1  0  0  0
  4  5  1  0  0  0
  4 86  1  0  0  0
  4 87  1  0  0  0
  5  6  1  0  0  0
  5 26  1  0  0  0
  5 88  1  0  0  0
  6 25  1  0  0  0
  6 89  1  0  0  0
  6 90  1  0  0  0
  7  8  2  0  0  0
  7 26  1  0  0  0
  7 29  1  0  0  0
  8  9  1  0  0  0
  8 22  1  0  0  0
  9 10  1  0  0  0
  9 27  2  0  0  0
 10 11  2  0  0  0
 10 15  1  0  0  0
 11 12  1  0  0  0
 11 91  1  0  0  0
 12 13  2  0  0  0
 12 92  1  0  0  0
 13 14  1  0  0  0
 13 31  1  0  0  0
 14 15  2  0  0  0
 14 93  1  0  0  0
 15 94  1  0  0  0
 16 17  2  0  0  0
 16 21  1  0  0  0
 16 31  1  0  0  0
 17 18  1  0  0  0
 17 95  1  0  0  0
 18 19  2  0  0  0
 18 96  1  0  0  0
 19 20  1  0  0  0
 19 24  1  0  0  0
 20 21  2  0  0  0
 20 97  1  0  0  0
 21 23  1  0  0  0
 22 28  1  0  0  0
 22 32  2  0  0  0
 26 27  1  0  0  0
 28 98  1  0  0  0
 28 99  1  0  0  0
 29100  1  0  0  0
 29101  1  0  0  0
 33 34  1  0  0  0
 33 66  1  0  0  0
 33 70  2  0  0  0
 34 36  1  0  0  0
 34 59  1  0  0  0
 34102  1  0  0  0
 35 44  2  0  0  0
 35 45  1  0  0  0
 35 68  1  0  0  0
 36 56  1  0  0  0
 36103  1  0  0  0
 37 39  1  0  0  0
 37 47  1  0  0  0
 37 66  1  0  0  0
 37104  1  0  0  0
 38 43  2  0  0  0
 38 46  1  0  0  0
 38 47  1  0  0  0
 39 64  1  0  0  0
 39 67  2  0  0  0
 40 52  1  0  0  0
 40 53  2  0  0  0
 40 58  1  0  0  0
 41105  1  0  0  0
 41106  1  0  0  0
 41107  1  0  0  0
 41 48  1  0  0  0
 42 43  1  0  0  0
 42 66  1  0  0  0
 42108  1  0  0  0
 42109  1  0  0  0
 43 44  1  0  0  0
 44110  1  0  0  0
 45 46  2  0  0  0
 45111  1  0  0  0
 46112  1  0  0  0
 47113  1  0  0  0
 47114  1  0  0  0
 48 56  1  0  0  0
 48 65  1  0  0  0
 48115  1  0  0  0
 49 50  1  0  0  0
 49 53  1  0  0  0
 49 64  1  0  0  0
 49116  1  0  0  0
 50 51  1  0  0  0
 50117  1  0  0  0
 50118  1  0  0  0
 51 52  1  0  0  0
 51119  1  0  0  0
 51120  1  0  0  0
 52121  1  0  0  0
 52122  1  0  0  0
 53 54  1  0  0  0
 54 55  2  0  0  0
 54123  1  0  0  0
 55 57  1  0  0  0
 55124  1  0  0  0
 56 69  2  0  0  0
 57 58  2  0  0  0
 57125  1  0  0  0
 58126  1  0  0  0
 59 60  1  0  0  0
 59 61  1  0  0  0
 59 62  1  0  0  0
 60127  1  0  0  0
 60128  1  0  0  0
 60129  1  0  0  0
 61130  1  0  0  0
 61131  1  0  0  0
 61132  1  0  0  0
 62133  1  0  0  0
 62134  1  0  0  0
 62135  1  0  0  0
 63 65  1  0  0  0
 63136  1  0  0  0
 63137  1  0  0  0
 63138  1  0  0  0
 64139  1  0  0  0
 65140  1  0  0  0
 68 78  1  0  0  0
 71 72  2  0  0  0
 71 79  1  0  0  0
 71141  1  0  0  0
 72 73  1  0  0  0
 72 76  1  0  0  0
 73 75  1  0  0  0
 73 80  2  0  0  0
 74 77  1  0  0  0
 74 79  2  0  0  0
 74 80  1  0  0  0
 75142  1  0  0  0
 75143  1  0  0  0
 75144  1  0  0  0
 76 81  1  0  0  0
 76145  1  0  0  0
 76146  1  0  0  0
 77 78  1  0  0  0
 77147  1  0  0  0
 77148  1  0  0  0
 78149  1  0  0  0
 78150  1  0  0  0
 81151  1  0  0  0
M  ISO  4   1 100  68 101  78 101  81 100
M  END
> <chiral flag>
0

> <version>
0

> <s_m_source_file>
/data/baiqing/PycharmProjects/Reinvent-master-3.2/result/LINK_invent/BTK/process_docking_weight1_custom_sum_contain_oxygen_bond_distance_aromatic_linkinvent_7_9_3/rearranged_h_0041.sdf

> <i_m_source_file_index>
85

> <r_mmod_Potential_Energy-OPLS-2005>
89.1601867675781

> <r_mmod_Stretch_Energy-OPLS-2005>
210.335067749023

> <r_mmod_Bend_Energy-OPLS-2005>
291.961486816406

> <r_mmod_Torsional_Energy-OPLS-2005>
208.485092163086

> <r_mmod_Improper_Torsional_Energy-OPLS-2005>
6.76856470108032

> <r_mmod_Van_der_Waal_Energy-OPLS-2005>
132.62370300293

> <r_mmod_Electrostatic_Energy-OPLS-2005>
-673.799682617188

> <r_mmod_Solvation_Energy-OPLS-2005>
-241.433609008789

> <b_mmod_Minimization_Converged-OPLS-2005>
0

> <r_mmod_RMS_Derivative-OPLS-2005>
5.37333869934082

$$$$
85
                    3D
 Structure written by MMmdl.
163171  0  0  1  0            999 V2000
  -30.8079  -14.2538   20.7858 C   0  0  0  0  0  0
  -30.4143  -12.2905   19.3426 C   0  0  0  0  0  0
  -29.4686  -12.5633   18.1610 C   0  0  0  0  0  0
  -27.9963  -12.4038   18.5850 C   0  0  0  0  0  0
  -27.6671  -13.1972   19.8744 C   0  0  2  0  0  0
  -28.7039  -12.8911   20.9745 C   0  0  0  0  0  0
  -25.2613  -13.8137   20.5639 C   0  0  0  0  0  0
  -24.1868  -13.0427   20.9146 C   0  0  0  0  0  0
  -24.6396  -11.6889   20.8710 C   0  0  0  0  0  0
  -23.9058  -10.4281   21.0396 C   0  0  0  0  0  0
  -24.3611   -9.4197   21.9176 C   0  0  0  0  0  0
  -23.6287   -8.2235   22.0748 C   0  0  0  0  0  0
  -22.4269   -8.0273   21.3535 C   0  0  0  0  0  0
  -21.9902   -9.0244   20.4636 C   0  0  0  0  0  0
  -22.7228  -10.2122   20.3042 C   0  0  0  0  0  0
  -21.6853   -6.0734   22.5275 C   0  0  0  0  0  0
  -21.4009   -6.5639   23.8207 C   0  0  0  0  0  0
  -21.3660   -5.6790   24.9169 C   0  0  0  0  0  0
  -21.6046   -4.3057   24.7216 C   0  0  0  0  0  0
  -21.8823   -3.8146   23.4342 C   0  0  0  0  0  0
  -21.9188   -4.6963   22.3397 C   0  0  0  0  0  0
  -22.7883  -13.5228   21.1825 C   0  0  0  0  0  0
  -22.1664   -4.2154   21.0977 F   0  0  0  0  0  0
  -21.5626   -3.4541   25.7731 F   0  0  0  0  0  0
  -30.0539  -13.1805   20.4511 N   0  0  0  0  0  0
  -26.3056  -12.9295   20.3335 N   0  0  0  0  0  0
  -25.9316  -11.6459   20.5707 N   0  0  0  0  0  0
  -22.0530  -12.8211   22.0387 N   0  0  0  0  0  0
  -25.4354  -15.1857   20.4054 N   0  0  0  0  0  0
  -31.7381  -14.6922   20.1000 O   0  0  0  0  0  0
  -21.6632   -6.8872   21.4237 O   0  0  0  0  0  0
  -22.3562  -14.5540   20.6689 O   0  0  0  0  0  0
  -24.6058  -31.8719   23.2075 C   0  0  0  0  0  0
  -25.8994  -32.4822   23.8355 C   0  0  1  0  0  0
  -27.2481  -27.4784   20.1023 C   0  0  0  0  0  0
  -25.5899  -33.8626   24.2312 N   0  0  0  0  0  0
  -23.3939  -30.4918   21.5463 C   0  0  2  0  0  0
  -24.8450  -28.9556   20.1202 C   0  0  0  0  0  0
  -22.7350  -29.4663   22.4965 C   0  0  0  0  0  0
  -18.0238  -28.1344   22.8455 C   0  0  0  0  0  0
  -24.1497  -36.7306   23.2648 C   0  0  0  0  0  0
  -25.9149  -30.8533   21.3526 C   0  0  0  0  0  0
  -25.9983  -29.4855   20.7102 C   0  0  0  0  0  0
  -27.2038  -28.7553   20.6948 C   0  0  0  0  0  0
  -26.0790  -26.9452   19.5193 C   0  0  0  0  0  0
  -24.8766  -27.6800   19.5240 C   0  0  0  0  0  0
  -23.6042  -29.8180   20.1626 C   0  0  0  0  0  0
  -25.4102  -36.3100   24.0354 C   0  0  1  0  0  0
  -20.5817  -28.3624   23.1312 C   0  0  2  0  0  0
  -20.6719  -26.9367   22.5406 C   0  0  0  0  0  0
  -19.5731  -26.6365   21.5175 C   0  0  0  0  0  0
  -18.1894  -26.7884   22.1589 C   0  0  0  0  0  0
  -19.1483  -28.8790   23.2879 C   0  0  0  0  0  0
  -18.9452  -30.1380   23.8913 C   0  0  0  0  0  0
  -17.6474  -30.6569   24.0544 C   0  0  0  0  0  0
  -25.9050  -34.9481   23.5126 C   0  0  0  0  0  0
  -16.5347  -29.9084   23.6318 C   0  0  0  0  0  0
  -16.7227  -28.6477   23.0355 C   0  0  0  0  0  0
  -26.4467  -31.6585   25.0663 C   0  0  0  0  0  0
  -25.3756  -31.3706   26.1422 C   0  0  0  0  0  0
  -27.0283  -30.3025   24.6004 C   0  0  0  0  0  0
  -27.6031  -32.4305   25.7463 C   0  0  0  0  0  0
  -27.5572  -37.1791   24.8460 C   0  0  0  0  0  0
  -21.4089  -29.3006   22.3726 N   0  0  0  0  0  0
  -26.4281  -37.3780   23.9415 N   0  0  0  0  0  0
  -24.6563  -31.0844   22.0951 N   0  0  0  0  0  0
  -23.4137  -28.8211   23.3001 O   0  0  0  0  0  0
  -28.4422  -26.8065   20.0405 O   0  0  0  0  0  0
  -26.5592  -34.8955   22.4678 O   0  0  0  0  0  0
  -23.5268  -32.1471   23.7487 O   0  0  0  0  0  0
  -28.8870  -23.5448   23.0993 C   0  0  0  0  0  0
  -29.8882  -24.3669   22.5309 C   0  0  0  0  0  0
  -31.4925  -22.7952   23.0820 C   0  0  0  0  0  0
  -30.4808  -21.9639   23.6316 C   0  0  0  0  0  0
  -32.9592  -22.3847   23.0756 C   0  0  0  0  0  0
  -29.5390  -25.6946   21.8725 C   0  0  0  0  0  0
  -30.7781  -20.5649   24.1466 C   0  0  0  0  0  0
  -30.8056  -19.5487   22.9940 C   0  0  0  0  0  0
  -31.1998  -18.1403   23.4448 C   0  0  0  0  0  0
  -30.8429  -17.0958   22.3852 C   0  0  0  0  0  0
  -31.2793  -15.6863   22.7922 C   0  0  0  0  0  0
  -28.5083  -25.5632   20.7318 C   0  0  0  0  0  0
  -29.1782  -22.3384   23.6410 N   0  0  0  0  0  0
  -31.1946  -23.9940   22.5248 N   0  0  0  0  0  0
  -30.5618  -14.6801   22.0278 N   0  0  0  0  0  0
  -31.4535  -12.4141   19.0315 H   0  0  0  0  0  0
  -30.3226  -11.2518   19.6644 H   0  0  0  0  0  0
  -29.6925  -11.8915   17.3312 H   0  0  0  0  0  0
  -29.6334  -13.5750   17.7864 H   0  0  0  0  0  0
  -27.7965  -11.3424   18.7360 H   0  0  0  0  0  0
  -27.3393  -12.7227   17.7743 H   0  0  0  0  0  0
  -27.7384  -14.2577   19.6315 H   0  0  0  0  0  0
  -28.6568  -11.8356   21.2485 H   0  0  0  0  0  0
  -28.4425  -13.4369   21.8804 H   0  0  0  0  0  0
  -25.2759   -9.5676   22.4745 H   0  0  0  0  0  0
  -23.9997   -7.4624   22.7471 H   0  0  0  0  0  0
  -21.0831   -8.8763   19.8947 H   0  0  0  0  0  0
  -22.3696  -10.9655   19.6146 H   0  0  0  0  0  0
  -21.2011   -7.6145   23.9712 H   0  0  0  0  0  0
  -21.1480   -6.0521   25.9068 H   0  0  0  0  0  0
  -22.0605   -2.7614   23.2839 H   0  0  0  0  0  0
  -22.4144  -11.9869   22.4766 H   0  0  0  0  0  0
  -21.1148  -13.1235   22.2594 H   0  0  0  0  0  0
  -24.6752  -15.8478   20.5131 H   0  0  0  0  0  0
  -26.2995  -15.6200   20.1043 H   0  0  0  0  0  0
  -26.7071  -32.5600   23.1145 H   0  0  0  0  0  0
  -25.0045  -33.9778   25.0450 H   0  0  0  0  0  0
  -22.6802  -31.3042   21.3991 H   0  0  0  0  0  0
  -23.3760  -35.9642   23.3321 H   0  0  0  0  0  0
  -24.3575  -36.8894   22.2054 H   0  0  0  0  0  0
  -23.7271  -37.6531   23.6663 H   0  0  0  0  0  0
  -26.0109  -31.6217   20.5837 H   0  0  0  0  0  0
  -26.8078  -30.9147   21.9619 H   0  0  0  0  0  0
  -28.0998  -29.1736   21.1290 H   0  0  0  0  0  0
  -26.1098  -25.9771   19.0400 H   0  0  0  0  0  0
  -23.9910  -27.2682   19.0594 H   0  0  0  0  0  0
  -23.7066  -30.5912   19.3994 H   0  0  0  0  0  0
  -22.7331  -29.2280   19.8735 H   0  0  0  0  0  0
  -25.1271  -36.1980   25.0849 H   0  0  0  0  0  0
  -20.9875  -28.3198   24.1449 H   0  0  0  0  0  0
  -20.5577  -26.2246   23.3584 H   0  0  0  0  0  0
  -21.6598  -26.7378   22.1247 H   0  0  0  0  0  0
  -19.6931  -25.6288   21.1192 H   0  0  0  0  0  0
  -19.6713  -27.3173   20.6702 H   0  0  0  0  0  0
  -17.4161  -26.6595   21.3995 H   0  0  0  0  0  0
  -18.0309  -26.0011   22.8976 H   0  0  0  0  0  0
  -19.7955  -30.7096   24.2362 H   0  0  0  0  0  0
  -17.5081  -31.6287   24.5079 H   0  0  0  0  0  0
  -15.5361  -30.3009   23.7652 H   0  0  0  0  0  0
  -15.8609  -28.0811   22.7099 H   0  0  0  0  0  0
  -24.5914  -30.7065   25.7768 H   0  0  0  0  0  0
  -24.8970  -32.2890   26.4859 H   0  0  0  0  0  0
  -25.8113  -30.8891   27.0184 H   0  0  0  0  0  0
  -26.2800  -29.6784   24.1106 H   0  0  0  0  0  0
  -27.4122  -29.7248   25.4420 H   0  0  0  0  0  0
  -27.8619  -30.4309   23.9078 H   0  0  0  0  0  0
  -27.2622  -33.3596   26.2051 H   0  0  0  0  0  0
  -28.3886  -32.6878   25.0340 H   0  0  0  0  0  0
  -28.0689  -31.8431   26.5395 H   0  0  0  0  0  0
  -28.2567  -38.0097   24.7467 H   0  0  0  0  0  0
  -28.1080  -36.2624   24.6330 H   0  0  0  0  0  0
  -27.2278  -37.1459   25.8855 H   0  0  0  0  0  0
  -20.9220  -29.8789   21.7029 H   0  0  0  0  0  0
  -26.0191  -38.2868   24.1423 H   0  0  0  0  0  0
  -27.8487  -23.8419   23.1006 H   0  0  0  0  0  0
  -33.3697  -22.4278   24.0851 H   0  0  0  0  0  0
  -33.5628  -23.0269   22.4315 H   0  0  0  0  0  0
  -33.0817  -21.3632   22.7185 H   0  0  0  0  0  0
  -30.4517  -26.1494   21.4845 H   0  0  0  0  0  0
  -29.1663  -26.3791   22.6349 H   0  0  0  0  0  0
  -30.0048  -20.2680   24.8577 H   0  0  0  0  0  0
  -31.7170  -20.5590   24.7013 H   0  0  0  0  0  0
  -31.4973  -19.8737   22.2146 H   0  0  0  0  0  0
  -29.8221  -19.5272   22.5213 H   0  0  0  0  0  0
  -30.6885  -17.8897   24.3762 H   0  0  0  0  0  0
  -32.2690  -18.1085   23.6612 H   0  0  0  0  0  0
  -31.3037  -17.3551   21.4302 H   0  0  0  0  0  0
  -29.7629  -17.1164   22.2252 H   0  0  0  0  0  0
  -31.0492  -15.5153   23.8452 H   0  0  0  0  0  0
  -32.3587  -15.5654   22.6859 H   0  0  0  0  0  0
  -27.5405  -25.2472   21.1245 H   0  0  0  0  0  0
  -28.8229  -24.8000   20.0197 H   0  0  0  0  0  0
  -29.8279  -14.1865   22.5143 H   0  0  0  0  0  0
  1 25  1  0  0  0
  1 30  2  0  0  0
  1 85  1  0  0  0
  2  3  1  0  0  0
  2 25  1  0  0  0
  2 86  1  0  0  0
  2 87  1  0  0  0
  3  4  1  0  0  0
  3 88  1  0  0  0
  3 89  1  0  0  0
  4  5  1  0  0  0
  4 90  1  0  0  0
  4 91  1  0  0  0
  5  6  1  0  0  0
  5 26  1  0  0  0
  5 92  1  0  0  0
  6 25  1  0  0  0
  6 93  1  0  0  0
  6 94  1  0  0  0
  7  8  2  0  0  0
  7 26  1  0  0  0
  7 29  1  0  0  0
  8  9  1  0  0  0
  8 22  1  0  0  0
  9 10  1  0  0  0
  9 27  2  0  0  0
 10 11  2  0  0  0
 10 15  1  0  0  0
 11 12  1  0  0  0
 11 95  1  0  0  0
 12 13  2  0  0  0
 12 96  1  0  0  0
 13 14  1  0  0  0
 13 31  1  0  0  0
 14 15  2  0  0  0
 14 97  1  0  0  0
 15 98  1  0  0  0
 16 17  2  0  0  0
 16 21  1  0  0  0
 16 31  1  0  0  0
 17 18  1  0  0  0
 17 99  1  0  0  0
 18 19  2  0  0  0
 18100  1  0  0  0
 19 20  1  0  0  0
 19 24  1  0  0  0
 20 21  2  0  0  0
 20101  1  0  0  0
 21 23  1  0  0  0
 22 28  1  0  0  0
 22 32  2  0  0  0
 26 27  1  0  0  0
 28102  1  0  0  0
 28103  1  0  0  0
 29104  1  0  0  0
 29105  1  0  0  0
 33 34  1  0  0  0
 33 66  1  0  0  0
 33 70  2  0  0  0
 34 36  1  0  0  0
 34 59  1  0  0  0
 34106  1  0  0  0
 35 44  2  0  0  0
 35 45  1  0  0  0
 35 68  1  0  0  0
 36 56  1  0  0  0
 36107  1  0  0  0
 37 39  1  0  0  0
 37 47  1  0  0  0
 37 66  1  0  0  0
 37108  1  0  0  0
 38 43  2  0  0  0
 38 46  1  0  0  0
 38 47  1  0  0  0
 39 64  1  0  0  0
 39 67  2  0  0  0
 40 52  1  0  0  0
 40 53  2  0  0  0
 40 58  1  0  0  0
 41109  1  0  0  0
 41110  1  0  0  0
 41111  1  0  0  0
 41 48  1  0  0  0
 42 43  1  0  0  0
 42 66  1  0  0  0
 42112  1  0  0  0
 42113  1  0  0  0
 43 44  1  0  0  0
 44114  1  0  0  0
 45 46  2  0  0  0
 45115  1  0  0  0
 46116  1  0  0  0
 47117  1  0  0  0
 47118  1  0  0  0
 48 56  1  0  0  0
 48 65  1  0  0  0
 48119  1  0  0  0
 49 50  1  0  0  0
 49 53  1  0  0  0
 49 64  1  0  0  0
 49120  1  0  0  0
 50 51  1  0  0  0
 50121  1  0  0  0
 50122  1  0  0  0
 51 52  1  0  0  0
 51123  1  0  0  0
 51124  1  0  0  0
 52125  1  0  0  0
 52126  1  0  0  0
 53 54  1  0  0  0
 54 55  2  0  0  0
 54127  1  0  0  0
 55 57  1  0  0  0
 55128  1  0  0  0
 56 69  2  0  0  0
 57 58  2  0  0  0
 57129  1  0  0  0
 58130  1  0  0  0
 59 60  1  0  0  0
 59 61  1  0  0  0
 59 62  1  0  0  0
 60131  1  0  0  0
 60132  1  0  0  0
 60133  1  0  0  0
 61134  1  0  0  0
 61135  1  0  0  0
 61136  1  0  0  0
 62137  1  0  0  0
 62138  1  0  0  0
 62139  1  0  0  0
 63 65  1  0  0  0
 63140  1  0  0  0
 63141  1  0  0  0
 63142  1  0  0  0
 64143  1  0  0  0
 65144  1  0  0  0
 68 82  1  0  0  0
 71 72  2  0  0  0
 71 83  1  0  0  0
 71145  1  0  0  0
 72 76  1  0  0  0
 72 84  1  0  0  0
 73 74  1  0  0  0
 73 75  1  0  0  0
 73 84  2  0  0  0
 74 77  1  0  0  0
 74 83  2  0  0  0
 75146  1  0  0  0
 75147  1  0  0  0
 75148  1  0  0  0
 76 82  1  0  0  0
 76149  1  0  0  0
 76150  1  0  0  0
 77 78  1  0  0  0
 77151  1  0  0  0
 77152  1  0  0  0
 78 79  1  0  0  0
 78153  1  0  0  0
 78154  1  0  0  0
 79 80  1  0  0  0
 79155  1  0  0  0
 79156  1  0  0  0
 80 81  1  0  0  0
 80157  1  0  0  0
 80158  1  0  0  0
 81 85  1  0  0  0
 81159  1  0  0  0
 81160  1  0  0  0
 82161  1  0  0  0
 82162  1  0  0  0
 85163  1  0  0  0
M  ISO  4   1 100  68 101  82 101  85 100
M  END
> <chiral flag>
0

> <version>
0

> <s_m_source_file>
/data/baiqing/PycharmProjects/Reinvent-master-3.2/result/LINK_invent/BTK/process_docking_weight1_custom_sum_contain_oxygen_bond_distance_aromatic_linkinvent_7_9_3/rearranged_h_0041.sdf

> <i_m_source_file_index>
86

> <r_mmod_Potential_Energy-OPLS-2005>
-55.1246910095215

> <r_mmod_Stretch_Energy-OPLS-2005>
32.4031181335449

> <r_mmod_Bend_Energy-OPLS-2005>
87.661735534668

> <r_mmod_Torsional_Energy-OPLS-2005>
209.81591796875

> <r_mmod_Improper_Torsional_Energy-OPLS-2005>
3.81420803070068

> <r_mmod_Van_der_Waal_Energy-OPLS-2005>
155.987808227539

> <r_mmod_Electrostatic_Energy-OPLS-2005>
-334.974853515625

> <r_mmod_Solvation_Energy-OPLS-2005>
-220.503326416016

> <b_mmod_Minimization_Converged-OPLS-2005>
0

> <r_mmod_RMS_Derivative-OPLS-2005>
3.43983221054077

$$$$
86
                    3D
 Structure written by MMmdl.
156164  0  0  1  0            999 V2000
  -30.6102  -14.7649   20.3523 C   0  0  0  0  0  0
  -30.4110  -12.4562   19.4468 C   0  0  0  0  0  0
  -29.4812  -12.4665   18.2150 C   0  0  0  0  0  0
  -28.0102  -12.2993   18.6376 C   0  0  0  0  0  0
  -27.6186  -13.2250   19.8145 C   0  0  2  0  0  0
  -28.6659  -13.2314   20.9463 C   0  0  0  0  0  0
  -25.2475  -13.8190   20.5742 C   0  0  0  0  0  0
  -24.1771  -13.0507   20.9244 C   0  0  0  0  0  0
  -24.6298  -11.6920   20.8734 C   0  0  0  0  0  0
  -23.9003  -10.4323   21.0454 C   0  0  0  0  0  0
  -24.3600   -9.4209   21.9196 C   0  0  0  0  0  0
  -23.6295   -8.2236   22.0743 C   0  0  0  0  0  0
  -22.4278   -8.0271   21.3531 C   0  0  0  0  0  0
  -21.9899   -9.0239   20.4649 C   0  0  0  0  0  0
  -22.7198  -10.2120   20.3079 C   0  0  0  0  0  0
  -21.6851   -6.0732   22.5274 C   0  0  0  0  0  0
  -21.4000   -6.5667   23.8186 C   0  0  0  0  0  0
  -21.3632   -5.6826   24.9164 C   0  0  0  0  0  0
  -21.6101   -4.3101   24.7241 C   0  0  0  0  0  0
  -21.8786   -3.8164   23.4370 C   0  0  0  0  0  0
  -21.9185   -4.6972   22.3418 C   0  0  0  0  0  0
  -22.7809  -13.5267   21.1948 C   0  0  0  0  0  0
  -22.1656   -4.2158   21.0994 F   0  0  0  0  0  0
  -21.5623   -3.4580   25.7751 F   0  0  0  0  0  0
  -29.9676  -13.5493   20.3373 N   0  0  0  0  0  0
  -26.2814  -12.9346   20.3167 N   0  0  0  0  0  0
  -25.9195  -11.6523   20.5715 N   0  0  0  0  0  0
  -22.0527  -12.8188   22.0486 N   0  0  0  0  0  0
  -25.4421  -15.1896   20.4177 N   0  0  0  0  0  0
  -31.8281  -14.8192   20.1522 O   0  0  0  0  0  0
  -21.6639   -6.8869   21.4219 O   0  0  0  0  0  0
  -22.3469  -14.5589   20.6793 O   0  0  0  0  0  0
  -24.6379  -31.8477   23.1999 C   0  0  0  0  0  0
  -25.9193  -32.4730   23.8360 C   0  0  1  0  0  0
  -27.2400  -27.2672   20.1224 C   0  0  0  0  0  0
  -25.5930  -33.8530   24.2290 N   0  0  0  0  0  0
  -23.4401  -30.4708   21.5448 C   0  0  2  0  0  0
  -24.8876  -28.9159   20.1164 C   0  0  0  0  0  0
  -22.7694  -29.4542   22.4987 C   0  0  0  0  0  0
  -18.0478  -28.1334   22.8515 C   0  0  0  0  0  0
  -24.1462  -36.7313   23.2638 C   0  0  0  0  0  0
  -25.9840  -30.7707   21.3718 C   0  0  0  0  0  0
  -26.0609  -29.3906   20.7165 C   0  0  0  0  0  0
  -27.2456  -28.5817   20.6978 C   0  0  0  0  0  0
  -26.0424  -26.8523   19.5068 C   0  0  0  0  0  0
  -24.8854  -27.6586   19.4900 C   0  0  0  0  0  0
  -23.6536  -29.7984   20.1605 C   0  0  0  0  0  0
  -25.4083  -36.3066   24.0317 C   0  0  1  0  0  0
  -20.6103  -28.3612   23.1363 C   0  0  2  0  0  0
  -20.6962  -26.9315   22.5524 C   0  0  0  0  0  0
  -19.5989  -26.6337   21.5291 C   0  0  0  0  0  0
  -18.2135  -26.7851   22.1729 C   0  0  0  0  0  0
  -19.1734  -28.8796   23.2893 C   0  0  0  0  0  0
  -18.9697  -30.1453   23.8821 C   0  0  0  0  0  0
  -17.6720  -30.6598   24.0532 C   0  0  0  0  0  0
  -25.9020  -34.9418   23.5110 C   0  0  0  0  0  0
  -16.5569  -29.9068   23.6378 C   0  0  0  0  0  0
  -16.7462  -28.6491   23.0385 C   0  0  0  0  0  0
  -26.4526  -31.6584   25.0794 C   0  0  0  0  0  0
  -25.3738  -31.3747   26.1544 C   0  0  0  0  0  0
  -27.0377  -30.2995   24.6287 C   0  0  0  0  0  0
  -27.6072  -32.4301   25.7563 C   0  0  0  0  0  0
  -27.5558  -37.1818   24.8456 C   0  0  0  0  0  0
  -21.4408  -29.2948   22.3718 N   0  0  0  0  0  0
  -26.4275  -37.3764   23.9394 N   0  0  0  0  0  0
  -24.7072  -31.0487   22.0949 N   0  0  0  0  0  0
  -23.4445  -28.8064   23.3054 O   0  0  0  0  0  0
  -28.3292  -26.3698   20.0877 O   0  0  0  0  0  0
  -26.5613  -34.8897   22.4675 O   0  0  0  0  0  0
  -23.5511  -32.1225   23.7326 O   0  0  0  0  0  0
  -28.0529  -21.7698   19.0964 C   0  0  0  0  0  0
  -29.1418  -21.4685   19.8917 C   0  0  0  0  0  0
  -28.4876  -23.6854   20.1419 C   0  0  0  0  0  0
  -27.3329  -20.8636   18.1412 C   0  0  0  0  0  0
  -30.5615  -23.0084   21.3752 C   0  0  0  0  0  0
  -29.9677  -20.1161   20.0356 C   0  0  0  0  0  0
  -28.2114  -25.0864   20.8541 C   0  0  0  0  0  0
  -29.3105  -18.6295   20.0701 C   0  0  0  0  0  0
  -30.3418  -17.3785   20.1627 C   0  0  0  0  0  0
  -27.6528  -23.1123   19.2679 N   0  0  0  0  0  0
  -29.4377  -22.7424   20.4944 N   0  0  0  0  0  0
  -29.8498  -15.9307   20.3167 N   0  0  0  0  0  0
  -31.4510  -12.5678   19.1286 H   0  0  0  0  0  0
  -30.3526  -11.4977   19.9629 H   0  0  0  0  0  0
  -29.7535  -11.6688   17.5220 H   0  0  0  0  0  0
  -29.6033  -13.4024   17.6703 H   0  0  0  0  0  0
  -27.8428  -11.2537   18.9066 H   0  0  0  0  0  0
  -27.3540  -12.4828   17.7850 H   0  0  0  0  0  0
  -27.5911  -14.2255   19.3869 H   0  0  0  0  0  0
  -28.6827  -12.2717   21.4630 H   0  0  0  0  0  0
  -28.3968  -13.9859   21.6893 H   0  0  0  0  0  0
  -25.2750   -9.5676   22.4770 H   0  0  0  0  0  0
  -24.0034   -7.4601   22.7424 H   0  0  0  0  0  0
  -21.0856   -8.8737   19.8939 H   0  0  0  0  0  0
  -22.3665  -10.9666   19.6216 H   0  0  0  0  0  0
  -21.1938   -7.6174   23.9688 H   0  0  0  0  0  0
  -21.1533   -6.0584   25.9074 H   0  0  0  0  0  0
  -22.0591   -2.7644   23.2878 H   0  0  0  0  0  0
  -22.4112  -11.9697   22.4584 H   0  0  0  0  0  0
  -21.1269  -13.1260   22.3035 H   0  0  0  0  0  0
  -24.7139  -15.8901   20.5139 H   0  0  0  0  0  0
  -26.3079  -15.5778   20.0670 H   0  0  0  0  0  0
  -26.7262  -32.5357   23.1109 H   0  0  0  0  0  0
  -25.0019  -33.9647   25.0397 H   0  0  0  0  0  0
  -22.7350  -31.2861   21.3987 H   0  0  0  0  0  0
  -23.3703  -35.9675   23.3291 H   0  0  0  0  0  0
  -24.3560  -36.8964   22.2062 H   0  0  0  0  0  0
  -23.7264  -37.6522   23.6666 H   0  0  0  0  0  0
  -26.1130  -31.5321   20.6012 H   0  0  0  0  0  0
  -26.8607  -30.8269   22.0008 H   0  0  0  0  0  0
  -28.1531  -28.9554   21.1526 H   0  0  0  0  0  0
  -25.9995  -25.8797   19.0347 H   0  0  0  0  0  0
  -23.9935  -27.3090   18.9890 H   0  0  0  0  0  0
  -23.7642  -30.5624   19.3898 H   0  0  0  0  0  0
  -22.7779  -29.2126   19.8732 H   0  0  0  0  0  0
  -25.1272  -36.1900   25.0813 H   0  0  0  0  0  0
  -21.0199  -28.3146   24.1477 H   0  0  0  0  0  0
  -20.5876  -26.2189   23.3752 H   0  0  0  0  0  0
  -21.6841  -26.7332   22.1363 H   0  0  0  0  0  0
  -19.7182  -25.6246   21.1306 H   0  0  0  0  0  0
  -19.7004  -27.3234   20.6868 H   0  0  0  0  0  0
  -17.4388  -26.6496   21.4180 H   0  0  0  0  0  0
  -18.0619  -26.0034   22.9204 H   0  0  0  0  0  0
  -19.8232  -30.7266   24.2108 H   0  0  0  0  0  0
  -17.5353  -31.6292   24.5128 H   0  0  0  0  0  0
  -15.5592  -30.2980   23.7813 H   0  0  0  0  0  0
  -15.8869  -28.0797   22.7064 H   0  0  0  0  0  0
  -24.5906  -30.7098   25.7905 H   0  0  0  0  0  0
  -24.8957  -32.2931   26.4959 H   0  0  0  0  0  0
  -25.8077  -30.8953   27.0345 H   0  0  0  0  0  0
  -26.3002  -29.6773   24.1232 H   0  0  0  0  0  0
  -27.3975  -29.7239   25.4836 H   0  0  0  0  0  0
  -27.8890  -30.4299   23.9605 H   0  0  0  0  0  0
  -27.2706  -33.3594   26.2176 H   0  0  0  0  0  0
  -28.3894  -32.6898   25.0410 H   0  0  0  0  0  0
  -28.0750  -31.8418   26.5486 H   0  0  0  0  0  0
  -28.2587  -38.0098   24.7478 H   0  0  0  0  0  0
  -28.1047  -36.2651   24.6283 H   0  0  0  0  0  0
  -27.2304  -37.1465   25.8867 H   0  0  0  0  0  0
  -20.9574  -29.8728   21.6971 H   0  0  0  0  0  0
  -26.0151  -38.2839   24.1360 H   0  0  0  0  0  0
  -26.6891  -21.4227   17.4607 H   0  0  0  0  0  0
  -26.7057  -20.1488   18.6722 H   0  0  0  0  0  0
  -28.0417  -20.2870   17.5393 H   0  0  0  0  0  0
  -31.1250  -23.8593   20.9912 H   0  0  0  0  0  0
  -30.2023  -23.2212   22.3824 H   0  0  0  0  0  0
  -31.2354  -22.1590   21.4282 H   0  0  0  0  0  0
  -30.5769  -20.1761   20.9371 H   0  0  0  0  0  0
  -30.7042  -20.1028   19.2272 H   0  0  0  0  0  0
  -28.8501  -25.1711   21.7344 H   0  0  0  0  0  0
  -27.2062  -25.0191   21.2750 H   0  0  0  0  0  0
  -28.6280  -18.5609   20.9213 H   0  0  0  0  0  0
  -28.6710  -18.5037   19.1912 H   0  0  0  0  0  0
  -30.9828  -17.4378   19.2737 H   0  0  0  0  0  0
  -31.0080  -17.5588   21.0082 H   0  0  0  0  0  0
  -28.8474  -15.8208   20.3320 H   0  0  0  0  0  0
  1 25  1  0  0  0
  1 30  2  0  0  0
  1 82  1  0  0  0
  2  3  1  0  0  0
  2 25  1  0  0  0
  2 83  1  0  0  0
  2 84  1  0  0  0
  3  4  1  0  0  0
  3 85  1  0  0  0
  3 86  1  0  0  0
  4  5  1  0  0  0
  4 87  1  0  0  0
  4 88  1  0  0  0
  5  6  1  0  0  0
  5 26  1  0  0  0
  5 89  1  0  0  0
  6 25  1  0  0  0
  6 90  1  0  0  0
  6 91  1  0  0  0
  7  8  2  0  0  0
  7 26  1  0  0  0
  7 29  1  0  0  0
  8  9  1  0  0  0
  8 22  1  0  0  0
  9 10  1  0  0  0
  9 27  2  0  0  0
 10 11  2  0  0  0
 10 15  1  0  0  0
 11 12  1  0  0  0
 11 92  1  0  0  0
 12 13  2  0  0  0
 12 93  1  0  0  0
 13 14  1  0  0  0
 13 31  1  0  0  0
 14 15  2  0  0  0
 14 94  1  0  0  0
 15 95  1  0  0  0
 16 17  2  0  0  0
 16 21  1  0  0  0
 16 31  1  0  0  0
 17 18  1  0  0  0
 17 96  1  0  0  0
 18 19  2  0  0  0
 18 97  1  0  0  0
 19 20  1  0  0  0
 19 24  1  0  0  0
 20 21  2  0  0  0
 20 98  1  0  0  0
 21 23  1  0  0  0
 22 28  1  0  0  0
 22 32  2  0  0  0
 26 27  1  0  0  0
 28 99  1  0  0  0
 28100  1  0  0  0
 29101  1  0  0  0
 29102  1  0  0  0
 33 34  1  0  0  0
 33 66  1  0  0  0
 33 70  2  0  0  0
 34 36  1  0  0  0
 34 59  1  0  0  0
 34103  1  0  0  0
 35 44  2  0  0  0
 35 45  1  0  0  0
 35 68  1  0  0  0
 36 56  1  0  0  0
 36104  1  0  0  0
 37 39  1  0  0  0
 37 47  1  0  0  0
 37 66  1  0  0  0
 37105  1  0  0  0
 38 43  2  0  0  0
 38 46  1  0  0  0
 38 47  1  0  0  0
 39 64  1  0  0  0
 39 67  2  0  0  0
 40 52  1  0  0  0
 40 53  2  0  0  0
 40 58  1  0  0  0
 41106  1  0  0  0
 41107  1  0  0  0
 41108  1  0  0  0
 41 48  1  0  0  0
 42 43  1  0  0  0
 42 66  1  0  0  0
 42109  1  0  0  0
 42110  1  0  0  0
 43 44  1  0  0  0
 44111  1  0  0  0
 45 46  2  0  0  0
 45112  1  0  0  0
 46113  1  0  0  0
 47114  1  0  0  0
 47115  1  0  0  0
 48 56  1  0  0  0
 48 65  1  0  0  0
 48116  1  0  0  0
 49 50  1  0  0  0
 49 53  1  0  0  0
 49 64  1  0  0  0
 49117  1  0  0  0
 50 51  1  0  0  0
 50118  1  0  0  0
 50119  1  0  0  0
 51 52  1  0  0  0
 51120  1  0  0  0
 51121  1  0  0  0
 52122  1  0  0  0
 52123  1  0  0  0
 53 54  1  0  0  0
 54 55  2  0  0  0
 54124  1  0  0  0
 55 57  1  0  0  0
 55125  1  0  0  0
 56 69  2  0  0  0
 57 58  2  0  0  0
 57126  1  0  0  0
 58127  1  0  0  0
 59 60  1  0  0  0
 59 61  1  0  0  0
 59 62  1  0  0  0
 60128  1  0  0  0
 60129  1  0  0  0
 60130  1  0  0  0
 61131  1  0  0  0
 61132  1  0  0  0
 61133  1  0  0  0
 62134  1  0  0  0
 62135  1  0  0  0
 62136  1  0  0  0
 63 65  1  0  0  0
 63137  1  0  0  0
 63138  1  0  0  0
 63139  1  0  0  0
 64140  1  0  0  0
 65141  1  0  0  0
 68 77  1  0  0  0
 71 72  2  0  0  0
 71 74  1  0  0  0
 71 80  1  0  0  0
 72 76  1  0  0  0
 72 81  1  0  0  0
 73 77  1  0  0  0
 73 80  2  0  0  0
 73 81  1  0  0  0
 74142  1  0  0  0
 74143  1  0  0  0
 74144  1  0  0  0
 75 81  1  0  0  0
 75145  1  0  0  0
 75146  1  0  0  0
 75147  1  0  0  0
 76 78  1  0  0  0
 76148  1  0  0  0
 76149  1  0  0  0
 77150  1  0  0  0
 77151  1  0  0  0
 78 79  1  0  0  0
 78152  1  0  0  0
 78153  1  0  0  0
 79 82  1  0  0  0
 79154  1  0  0  0
 79155  1  0  0  0
 82156  1  0  0  0
M  ISO  4   1 100  68 101  77 101  82 100
M  END
> <chiral flag>
0

> <version>
0

> <s_m_source_file>
/data/baiqing/PycharmProjects/Reinvent-master-3.2/result/LINK_invent/BTK/process_docking_weight1_custom_sum_contain_oxygen_bond_distance_aromatic_linkinvent_7_9_3/rearranged_h_0041.sdf

> <i_m_source_file_index>
87

> <r_mmod_Potential_Energy-OPLS-2005>
174.409149169922

> <r_mmod_Stretch_Energy-OPLS-2005>
129.400283813477

> <r_mmod_Bend_Energy-OPLS-2005>
175.673309326172

> <r_mmod_Torsional_Energy-OPLS-2005>
241.922988891602

> <r_mmod_Improper_Torsional_Energy-OPLS-2005>
8.14267635345459

> <r_mmod_Van_der_Waal_Energy-OPLS-2005>
109.352821350098

> <r_mmod_Electrostatic_Energy-OPLS-2005>
-359.825286865234

> <r_mmod_Solvation_Energy-OPLS-2005>
-229.12255859375

> <b_mmod_Minimization_Converged-OPLS-2005>
0

> <r_mmod_RMS_Derivative-OPLS-2005>
9.86852550506592

$$$$
87
                    3D
 Structure written by MMmdl.
159167  0  0  1  0            999 V2000
  -30.6638  -14.5556   20.5000 C   0  0  0  0  0  0
  -30.4240  -12.3364   19.4493 C   0  0  0  0  0  0
  -29.5022  -12.4915   18.2206 C   0  0  0  0  0  0
  -28.0240  -12.3436   18.6311 C   0  0  0  0  0  0
  -27.6545  -13.2123   19.8648 C   0  0  2  0  0  0
  -28.6953  -13.0534   20.9969 C   0  0  0  0  0  0
  -25.2566  -13.8172   20.5680 C   0  0  0  0  0  0
  -24.1825  -13.0439   20.9180 C   0  0  0  0  0  0
  -24.6388  -11.6910   20.8730 C   0  0  0  0  0  0
  -23.9057  -10.4294   21.0399 C   0  0  0  0  0  0
  -24.3607   -9.4214   21.9180 C   0  0  0  0  0  0
  -23.6284   -8.2253   22.0749 C   0  0  0  0  0  0
  -22.4273   -8.0282   21.3536 C   0  0  0  0  0  0
  -21.9899   -9.0257   20.4640 C   0  0  0  0  0  0
  -22.7228  -10.2136   20.3050 C   0  0  0  0  0  0
  -21.6861   -6.0729   22.5275 C   0  0  0  0  0  0
  -21.4025   -6.5633   23.8209 C   0  0  0  0  0  0
  -21.3653   -5.6782   24.9171 C   0  0  0  0  0  0
  -21.6044   -4.3047   24.7222 C   0  0  0  0  0  0
  -21.8824   -3.8139   23.4347 C   0  0  0  0  0  0
  -21.9198   -4.6958   22.3400 C   0  0  0  0  0  0
  -22.7849  -13.5236   21.1842 C   0  0  0  0  0  0
  -22.1660   -4.2142   21.0979 F   0  0  0  0  0  0
  -21.5624   -3.4532   25.7735 F   0  0  0  0  0  0
  -30.0198  -13.3554   20.4351 N   0  0  0  0  0  0
  -26.2991  -12.9346   20.3324 N   0  0  0  0  0  0
  -25.9316  -11.6505   20.5757 N   0  0  0  0  0  0
  -22.0492  -12.8237   22.0407 N   0  0  0  0  0  0
  -25.4276  -15.1893   20.4092 N   0  0  0  0  0  0
  -31.8242  -14.6988   20.1057 O   0  0  0  0  0  0
  -21.6647   -6.8875   21.4237 O   0  0  0  0  0  0
  -22.3535  -14.5539   20.6692 O   0  0  0  0  0  0
  -24.6174  -31.8645   23.2063 C   0  0  0  0  0  0
  -25.9053  -32.4802   23.8369 C   0  0  1  0  0  0
  -27.2359  -27.3904   20.0963 C   0  0  0  0  0  0
  -25.5897  -33.8602   24.2300 N   0  0  0  0  0  0
  -23.4081  -30.4861   21.5471 C   0  0  2  0  0  0
  -24.8552  -28.9459   20.1109 C   0  0  0  0  0  0
  -22.7426  -29.4635   22.4969 C   0  0  0  0  0  0
  -18.0273  -28.1381   22.8495 C   0  0  0  0  0  0
  -24.1488  -36.7302   23.2637 C   0  0  0  0  0  0
  -25.9406  -30.8133   21.3684 C   0  0  0  0  0  0
  -26.0155  -29.4432   20.7166 C   0  0  0  0  0  0
  -27.2033  -28.6686   20.7142 C   0  0  0  0  0  0
  -26.0531  -26.9176   19.4870 C   0  0  0  0  0  0
  -24.8703  -27.6828   19.4944 C   0  0  0  0  0  0
  -23.6187  -29.8171   20.1621 C   0  0  0  0  0  0
  -25.4110  -36.3100   24.0334 C   0  0  1  0  0  0
  -20.5867  -28.3666   23.1310 C   0  0  2  0  0  0
  -20.6762  -26.9399   22.5417 C   0  0  0  0  0  0
  -19.5739  -26.6388   21.5213 C   0  0  0  0  0  0
  -18.1918  -26.7929   22.1627 C   0  0  0  0  0  0
  -19.1524  -28.8839   23.2901 C   0  0  0  0  0  0
  -18.9452  -30.1445   23.8911 C   0  0  0  0  0  0
  -17.6455  -30.6586   24.0566 C   0  0  0  0  0  0
  -25.9039  -34.9465   23.5117 C   0  0  0  0  0  0
  -16.5344  -29.9088   23.6330 C   0  0  0  0  0  0
  -16.7263  -28.6505   23.0351 C   0  0  0  0  0  0
  -26.4474  -31.6596   25.0710 C   0  0  0  0  0  0
  -25.3730  -31.3711   26.1451 C   0  0  0  0  0  0
  -27.0311  -30.3033   24.6109 C   0  0  0  0  0  0
  -27.6049  -32.4317   25.7467 C   0  0  0  0  0  0
  -27.5580  -37.1805   24.8466 C   0  0  0  0  0  0
  -21.4148  -29.3028   22.3710 N   0  0  0  0  0  0
  -26.4295  -37.3784   23.9406 N   0  0  0  0  0  0
  -24.6736  -31.0703   22.0987 N   0  0  0  0  0  0
  -23.4178  -28.8181   23.3030 O   0  0  0  0  0  0
  -28.3964  -26.6272   20.1395 O   0  0  0  0  0  0
  -26.5608  -34.8926   22.4683 O   0  0  0  0  0  0
  -23.5356  -32.1419   23.7433 O   0  0  0  0  0  0
  -28.8888  -23.3392   20.4503 C   0  0  0  0  0  0
  -28.4181  -24.1461   19.4330 C   0  0  0  0  0  0
  -27.7373  -23.2045   18.5956 C   0  0  0  0  0  0
  -25.4997  -23.3436   17.4174 C   0  0  0  0  0  0
  -28.6634  -25.6384   19.1171 C   0  0  0  0  0  0
  -27.0257  -23.4377   17.2852 C   0  0  0  0  0  0
  -29.4330  -19.5727   20.2521 C   0  0  0  0  0  0
  -29.2900  -18.1641   20.9403 C   0  0  0  0  0  0
  -28.7351  -20.7771   20.9815 C   0  0  0  0  0  0
  -30.2081  -17.0335   20.3570 C   0  0  0  0  0  0
  -27.8020  -21.9580   19.0552 N   0  0  0  0  0  0
  -28.5345  -22.0140   20.1867 N   0  0  0  0  0  0
  -29.8920  -15.6394   20.7752 N   0  0  0  0  0  0
  -31.4706  -12.4303   19.1531 H   0  0  0  0  0  0
  -30.3253  -11.3389   19.8793 H   0  0  0  0  0  0
  -29.7539  -11.7466   17.4646 H   0  0  0  0  0  0
  -29.6620  -13.4658   17.7560 H   0  0  0  0  0  0
  -27.8510  -11.2902   18.8546 H   0  0  0  0  0  0
  -27.3714  -12.5820   17.7900 H   0  0  0  0  0  0
  -27.6804  -14.2496   19.5307 H   0  0  0  0  0  0
  -28.6830  -12.0360   21.3904 H   0  0  0  0  0  0
  -28.4556  -13.7030   21.8407 H   0  0  0  0  0  0
  -25.2748   -9.5703   22.4755 H   0  0  0  0  0  0
  -23.9998   -7.4646   22.7466 H   0  0  0  0  0  0
  -21.0831   -8.8771   19.8946 H   0  0  0  0  0  0
  -22.3676  -10.9673   19.6162 H   0  0  0  0  0  0
  -21.2026   -7.6141   23.9717 H   0  0  0  0  0  0
  -21.1463   -6.0506   25.9073 H   0  0  0  0  0  0
  -22.0612   -2.7601   23.2843 H   0  0  0  0  0  0
  -22.4104  -11.9898   22.4797 H   0  0  0  0  0  0
  -21.1119  -13.1275   22.2621 H   0  0  0  0  0  0
  -24.6570  -15.8409   20.5119 H   0  0  0  0  0  0
  -26.2749  -15.6301   20.0742 H   0  0  0  0  0  0
  -26.7116  -32.5501   23.1120 H   0  0  0  0  0  0
  -25.0054  -33.9760   25.0452 H   0  0  0  0  0  0
  -22.6991  -31.3046   21.4057 H   0  0  0  0  0  0
  -23.3752  -35.9635   23.3310 H   0  0  0  0  0  0
  -24.3582  -36.8905   22.2050 H   0  0  0  0  0  0
  -23.7241  -37.6507   23.6650 H   0  0  0  0  0  0
  -26.0602  -31.5778   20.5993 H   0  0  0  0  0  0
  -26.8261  -30.8662   21.9900 H   0  0  0  0  0  0
  -28.0970  -29.0463   21.1913 H   0  0  0  0  0  0
  -26.0280  -25.9435   19.0247 H   0  0  0  0  0  0
  -23.9770  -27.2911   19.0272 H   0  0  0  0  0  0
  -23.7274  -30.5915   19.4020 H   0  0  0  0  0  0
  -22.7424  -29.2373   19.8659 H   0  0  0  0  0  0
  -25.1291  -36.1960   25.0828 H   0  0  0  0  0  0
  -20.9965  -28.3235   24.1429 H   0  0  0  0  0  0
  -20.5666  -26.2272   23.3605 H   0  0  0  0  0  0
  -21.6632  -26.7444   22.1205 H   0  0  0  0  0  0
  -19.6901  -25.6303   21.1232 H   0  0  0  0  0  0
  -19.6679  -27.3210   20.6752 H   0  0  0  0  0  0
  -17.4190  -26.6679   21.4027 H   0  0  0  0  0  0
  -18.0319  -26.0063   22.9014 H   0  0  0  0  0  0
  -19.7926  -30.7256   24.2289 H   0  0  0  0  0  0
  -17.5009  -31.6271   24.5158 H   0  0  0  0  0  0
  -15.5345  -30.2995   23.7645 H   0  0  0  0  0  0
  -15.8663  -28.0829   22.7061 H   0  0  0  0  0  0
  -24.5904  -30.7058   25.7781 H   0  0  0  0  0  0
  -24.8922  -32.2872   26.4892 H   0  0  0  0  0  0
  -25.8071  -30.8879   27.0213 H   0  0  0  0  0  0
  -26.2869  -29.6792   24.1144 H   0  0  0  0  0  0
  -27.4054  -29.7266   25.4578 H   0  0  0  0  0  0
  -27.8718  -30.4342   23.9289 H   0  0  0  0  0  0
  -27.2673  -33.3609   26.2066 H   0  0  0  0  0  0
  -28.3843  -32.6885   25.0281 H   0  0  0  0  0  0
  -28.0737  -31.8428   26.5359 H   0  0  0  0  0  0
  -28.2608  -38.0094   24.7510 H   0  0  0  0  0  0
  -28.1067  -36.2626   24.6303 H   0  0  0  0  0  0
  -27.2299  -37.1465   25.8870 H   0  0  0  0  0  0
  -20.9310  -29.8738   21.6921 H   0  0  0  0  0  0
  -26.0184  -38.2863   24.1401 H   0  0  0  0  0  0
  -29.4740  -23.5943   21.3224 H   0  0  0  0  0  0
  -25.0159  -23.5305   16.4583 H   0  0  0  0  0  0
  -25.1138  -24.0705   18.1306 H   0  0  0  0  0  0
  -25.1963  -22.3528   17.7561 H   0  0  0  0  0  0
  -28.1745  -25.9382   18.1912 H   0  0  0  0  0  0
  -29.7212  -25.7645   18.8851 H   0  0  0  0  0  0
  -27.3630  -22.7079   16.5480 H   0  0  0  0  0  0
  -27.2895  -24.4069   16.8660 H   0  0  0  0  0  0
  -29.0383  -19.4920   19.2389 H   0  0  0  0  0  0
  -30.4900  -19.8123   20.1347 H   0  0  0  0  0  0
  -28.2463  -17.8561   20.8665 H   0  0  0  0  0  0
  -29.4971  -18.2640   22.0067 H   0  0  0  0  0  0
  -29.2976  -21.0337   21.8801 H   0  0  0  0  0  0
  -27.7505  -20.4606   21.3271 H   0  0  0  0  0  0
  -31.2466  -17.2580   20.6065 H   0  0  0  0  0  0
  -30.1504  -17.0639   19.2673 H   0  0  0  0  0  0
  -28.9485  -15.4489   21.0768 H   0  0  0  0  0  0
  1 25  1  0  0  0
  1 30  2  0  0  0
  1 83  1  0  0  0
  2  3  1  0  0  0
  2 25  1  0  0  0
  2 84  1  0  0  0
  2 85  1  0  0  0
  3  4  1  0  0  0
  3 86  1  0  0  0
  3 87  1  0  0  0
  4  5  1  0  0  0
  4 88  1  0  0  0
  4 89  1  0  0  0
  5  6  1  0  0  0
  5 26  1  0  0  0
  5 90  1  0  0  0
  6 25  1  0  0  0
  6 91  1  0  0  0
  6 92  1  0  0  0
  7  8  2  0  0  0
  7 26  1  0  0  0
  7 29  1  0  0  0
  8  9  1  0  0  0
  8 22  1  0  0  0
  9 10  1  0  0  0
  9 27  2  0  0  0
 10 11  2  0  0  0
 10 15  1  0  0  0
 11 12  1  0  0  0
 11 93  1  0  0  0
 12 13  2  0  0  0
 12 94  1  0  0  0
 13 14  1  0  0  0
 13 31  1  0  0  0
 14 15  2  0  0  0
 14 95  1  0  0  0
 15 96  1  0  0  0
 16 17  2  0  0  0
 16 21  1  0  0  0
 16 31  1  0  0  0
 17 18  1  0  0  0
 17 97  1  0  0  0
 18 19  2  0  0  0
 18 98  1  0  0  0
 19 20  1  0  0  0
 19 24  1  0  0  0
 20 21  2  0  0  0
 20 99  1  0  0  0
 21 23  1  0  0  0
 22 28  1  0  0  0
 22 32  2  0  0  0
 26 27  1  0  0  0
 28100  1  0  0  0
 28101  1  0  0  0
 29102  1  0  0  0
 29103  1  0  0  0
 33 34  1  0  0  0
 33 66  1  0  0  0
 33 70  2  0  0  0
 34 36  1  0  0  0
 34 59  1  0  0  0
 34104  1  0  0  0
 35 44  2  0  0  0
 35 45  1  0  0  0
 35 68  1  0  0  0
 36 56  1  0  0  0
 36105  1  0  0  0
 37 39  1  0  0  0
 37 47  1  0  0  0
 37 66  1  0  0  0
 37106  1  0  0  0
 38 43  2  0  0  0
 38 46  1  0  0  0
 38 47  1  0  0  0
 39 64  1  0  0  0
 39 67  2  0  0  0
 40 52  1  0  0  0
 40 53  2  0  0  0
 40 58  1  0  0  0
 41107  1  0  0  0
 41108  1  0  0  0
 41109  1  0  0  0
 41 48  1  0  0  0
 42 43  1  0  0  0
 42 66  1  0  0  0
 42110  1  0  0  0
 42111  1  0  0  0
 43 44  1  0  0  0
 44112  1  0  0  0
 45 46  2  0  0  0
 45113  1  0  0  0
 46114  1  0  0  0
 47115  1  0  0  0
 47116  1  0  0  0
 48 56  1  0  0  0
 48 65  1  0  0  0
 48117  1  0  0  0
 49 50  1  0  0  0
 49 53  1  0  0  0
 49 64  1  0  0  0
 49118  1  0  0  0
 50 51  1  0  0  0
 50119  1  0  0  0
 50120  1  0  0  0
 51 52  1  0  0  0
 51121  1  0  0  0
 51122  1  0  0  0
 52123  1  0  0  0
 52124  1  0  0  0
 53 54  1  0  0  0
 54 55  2  0  0  0
 54125  1  0  0  0
 55 57  1  0  0  0
 55126  1  0  0  0
 56 69  2  0  0  0
 57 58  2  0  0  0
 57127  1  0  0  0
 58128  1  0  0  0
 59 60  1  0  0  0
 59 61  1  0  0  0
 59 62  1  0  0  0
 60129  1  0  0  0
 60130  1  0  0  0
 60131  1  0  0  0
 61132  1  0  0  0
 61133  1  0  0  0
 61134  1  0  0  0
 62135  1  0  0  0
 62136  1  0  0  0
 62137  1  0  0  0
 63 65  1  0  0  0
 63138  1  0  0  0
 63139  1  0  0  0
 63140  1  0  0  0
 64141  1  0  0  0
 65142  1  0  0  0
 68 75  1  0  0  0
 71 72  2  0  0  0
 71 82  1  0  0  0
 71143  1  0  0  0
 72 73  1  0  0  0
 72 75  1  0  0  0
 73 76  1  0  0  0
 73 81  2  0  0  0
 74 76  1  0  0  0
 74144  1  0  0  0
 74145  1  0  0  0
 74146  1  0  0  0
 75147  1  0  0  0
 75148  1  0  0  0
 76149  1  0  0  0
 76150  1  0  0  0
 77 78  1  0  0  0
 77 79  1  0  0  0
 77151  1  0  0  0
 77152  1  0  0  0
 78 80  1  0  0  0
 78153  1  0  0  0
 78154  1  0  0  0
 79 82  1  0  0  0
 79155  1  0  0  0
 79156  1  0  0  0
 80 83  1  0  0  0
 80157  1  0  0  0
 80158  1  0  0  0
 81 82  1  0  0  0
 83159  1  0  0  0
M  ISO  4   1 100  68 101  75 101  83 100
M  END
> <chiral flag>
0

> <version>
0

> <s_m_source_file>
/data/baiqing/PycharmProjects/Reinvent-master-3.2/result/LINK_invent/BTK/process_docking_weight1_custom_sum_contain_oxygen_bond_distance_aromatic_linkinvent_7_9_3/rearranged_h_0041.sdf

> <i_m_source_file_index>
88

> <r_mmod_Potential_Energy-OPLS-2005>
-86.6229782104492

> <r_mmod_Stretch_Energy-OPLS-2005>
49.4420471191406

> <r_mmod_Bend_Energy-OPLS-2005>
111.723754882812

> <r_mmod_Torsional_Energy-OPLS-2005>
219.815719604492

> <r_mmod_Improper_Torsional_Energy-OPLS-2005>
7.59777355194092

> <r_mmod_Van_der_Waal_Energy-OPLS-2005>
117.694450378418

> <r_mmod_Electrostatic_Energy-OPLS-2005>
-399.097412109375

> <r_mmod_Solvation_Energy-OPLS-2005>
-219.264862060547

> <b_mmod_Minimization_Converged-OPLS-2005>
0

> <r_mmod_RMS_Derivative-OPLS-2005>
1.04422640800476

$$$$
88
                    3D
 Structure written by MMmdl.
161169  0  0  1  0            999 V2000
  -30.7191  -14.3990   20.6660 C   0  0  0  0  0  0
  -30.4238  -12.3037   19.3911 C   0  0  0  0  0  0
  -29.4842  -12.5201   18.1892 C   0  0  0  0  0  0
  -28.0077  -12.3766   18.6065 C   0  0  0  0  0  0
  -27.6634  -13.1970   19.8773 C   0  0  2  0  0  0
  -28.7001  -12.9252   20.9873 C   0  0  0  0  0  0
  -25.2601  -13.8147   20.5659 C   0  0  0  0  0  0
  -24.1841  -13.0443   20.9170 C   0  0  0  0  0  0
  -24.6380  -11.6905   20.8744 C   0  0  0  0  0  0
  -23.9050  -10.4292   21.0416 C   0  0  0  0  0  0
  -24.3601   -9.4208   21.9190 C   0  0  0  0  0  0
  -23.6281   -8.2244   22.0762 C   0  0  0  0  0  0
  -22.4269   -8.0285   21.3543 C   0  0  0  0  0  0
  -21.9904   -9.0257   20.4646 C   0  0  0  0  0  0
  -22.7230  -10.2136   20.3055 C   0  0  0  0  0  0
  -21.6857   -6.0740   22.5279 C   0  0  0  0  0  0
  -21.4003   -6.5640   23.8210 C   0  0  0  0  0  0
  -21.3653   -5.6792   24.9170 C   0  0  0  0  0  0
  -21.6053   -4.3058   24.7224 C   0  0  0  0  0  0
  -21.8819   -3.8146   23.4348 C   0  0  0  0  0  0
  -21.9185   -4.6964   22.3399 C   0  0  0  0  0  0
  -22.7869  -13.5256   21.1823 C   0  0  0  0  0  0
  -22.1662   -4.2153   21.0976 F   0  0  0  0  0  0
  -21.5630   -3.4535   25.7736 F   0  0  0  0  0  0
  -30.0342  -13.2457   20.4491 N   0  0  0  0  0  0
  -26.3027  -12.9296   20.3351 N   0  0  0  0  0  0
  -25.9292  -11.6470   20.5750 N   0  0  0  0  0  0
  -22.0480  -12.8253   22.0368 N   0  0  0  0  0  0
  -25.4370  -15.1854   20.4046 N   0  0  0  0  0  0
  -31.7845  -14.6708   20.1037 O   0  0  0  0  0  0
  -21.6631   -6.8880   21.4242 O   0  0  0  0  0  0
  -22.3570  -14.5571   20.6685 O   0  0  0  0  0  0
  -24.6076  -31.8714   23.2122 C   0  0  0  0  0  0
  -25.8990  -32.4832   23.8428 C   0  0  1  0  0  0
  -27.2493  -27.4628   20.0966 C   0  0  0  0  0  0
  -25.5889  -33.8644   24.2344 N   0  0  0  0  0  0
  -23.3960  -30.4918   21.5484 C   0  0  2  0  0  0
  -24.8463  -28.9570   20.1148 C   0  0  0  0  0  0
  -22.7371  -29.4664   22.4975 C   0  0  0  0  0  0
  -18.0277  -28.1335   22.8482 C   0  0  0  0  0  0
  -24.1485  -36.7308   23.2633 C   0  0  0  0  0  0
  -25.9201  -30.8408   21.3672 C   0  0  0  0  0  0
  -25.9982  -29.4747   20.7187 C   0  0  0  0  0  0
  -27.1947  -28.7276   20.7204 C   0  0  0  0  0  0
  -26.0817  -26.9487   19.4881 C   0  0  0  0  0  0
  -24.8814  -27.6897   19.5013 C   0  0  0  0  0  0
  -23.6059  -29.8206   20.1626 C   0  0  0  0  0  0
  -25.4102  -36.3109   24.0333 C   0  0  1  0  0  0
  -20.5862  -28.3627   23.1299 C   0  0  2  0  0  0
  -20.6744  -26.9364   22.5404 C   0  0  0  0  0  0
  -19.5749  -26.6355   21.5174 C   0  0  0  0  0  0
  -18.1921  -26.7898   22.1575 C   0  0  0  0  0  0
  -19.1523  -28.8795   23.2893 C   0  0  0  0  0  0
  -18.9456  -30.1396   23.8908 C   0  0  0  0  0  0
  -17.6455  -30.6547   24.0546 C   0  0  0  0  0  0
  -25.9023  -34.9479   23.5123 C   0  0  0  0  0  0
  -16.5345  -29.9053   23.6304 C   0  0  0  0  0  0
  -16.7265  -28.6469   23.0338 C   0  0  0  0  0  0
  -26.4445  -31.6621   25.0743 C   0  0  0  0  0  0
  -25.3733  -31.3725   26.1516 C   0  0  0  0  0  0
  -27.0283  -30.3056   24.6130 C   0  0  0  0  0  0
  -27.6057  -32.4352   25.7451 C   0  0  0  0  0  0
  -27.5579  -37.1803   24.8454 C   0  0  0  0  0  0
  -21.4109  -29.3021   22.3711 N   0  0  0  0  0  0
  -26.4286  -37.3794   23.9411 N   0  0  0  0  0  0
  -24.6571  -31.0836   22.1017 N   0  0  0  0  0  0
  -23.4146  -28.8215   23.3022 O   0  0  0  0  0  0
  -28.4513  -26.7922   20.1396 O   0  0  0  0  0  0
  -26.5577  -34.8903   22.4682 O   0  0  0  0  0  0
  -23.5272  -32.1514   23.7486 O   0  0  0  0  0  0
  -29.6072  -20.6516   22.4658 C   0  0  0  0  0  0
  -27.7655  -20.4049   20.9316 C   0  0  0  0  0  0
  -28.7408  -19.8080   21.7505 C   0  0  0  0  0  0
  -29.5108  -22.0455   22.2951 C   0  0  0  0  0  0
  -28.5371  -22.5553   21.4035 C   0  0  0  0  0  0
  -30.4506  -22.9497   23.0770 C   0  0  0  0  0  0
  -28.8639  -18.2929   21.8894 C   0  0  0  0  0  0
  -28.3907  -24.0483   21.0995 C   0  0  0  0  0  0
  -30.2261  -17.7591   21.3836 C   0  0  0  0  0  0
  -28.3798  -24.3544   19.5852 C   0  0  0  0  0  0
  -30.7271  -16.4710   22.0718 C   0  0  0  0  0  0
  -28.7669  -25.7898   19.1788 C   0  0  0  0  0  0
  -27.6594  -21.7428   20.7708 N   0  0  0  0  0  0
  -30.1420  -15.2404   21.5386 N   0  0  0  0  0  0
  -31.4634  -12.4287   19.0840 H   0  0  0  0  0  0
  -30.3467  -11.2800   19.7595 H   0  0  0  0  0  0
  -29.7180  -11.8073   17.3970 H   0  0  0  0  0  0
  -29.6507  -13.5122   17.7663 H   0  0  0  0  0  0
  -27.8150  -11.3183   18.7872 H   0  0  0  0  0  0
  -27.3550  -12.6669   17.7823 H   0  0  0  0  0  0
  -27.7254  -14.2521   19.6102 H   0  0  0  0  0  0
  -28.6740  -11.8722   21.2715 H   0  0  0  0  0  0
  -28.4453  -13.4686   21.8975 H   0  0  0  0  0  0
  -25.2745   -9.5690   22.4772 H   0  0  0  0  0  0
  -23.9991   -7.4639   22.7481 H   0  0  0  0  0  0
  -21.0840   -8.8780   19.8948 H   0  0  0  0  0  0
  -22.3700  -10.9676   19.6169 H   0  0  0  0  0  0
  -21.1996   -7.6143   23.9718 H   0  0  0  0  0  0
  -21.1477   -6.0517   25.9076 H   0  0  0  0  0  0
  -22.0602   -2.7612   23.2842 H   0  0  0  0  0  0
  -22.4059  -11.9893   22.4750 H   0  0  0  0  0  0
  -21.1088  -13.1296   22.2536 H   0  0  0  0  0  0
  -24.6765  -15.8488   20.5082 H   0  0  0  0  0  0
  -26.2926  -15.6131   20.0723 H   0  0  0  0  0  0
  -26.7051  -32.5544   23.1188 H   0  0  0  0  0  0
  -25.0063  -33.9859   25.0501 H   0  0  0  0  0  0
  -22.6816  -31.3047   21.4063 H   0  0  0  0  0  0
  -23.3738  -35.9642   23.3296 H   0  0  0  0  0  0
  -24.3576  -36.8946   22.2051 H   0  0  0  0  0  0
  -23.7271  -37.6516   23.6667 H   0  0  0  0  0  0
  -26.0319  -31.6036   20.5968 H   0  0  0  0  0  0
  -26.8090  -30.8973   21.9845 H   0  0  0  0  0  0
  -28.0829  -29.1256   21.1921 H   0  0  0  0  0  0
  -26.0850  -25.9789   19.0138 H   0  0  0  0  0  0
  -23.9947  -27.2824   19.0368 H   0  0  0  0  0  0
  -23.7086  -30.5983   19.4031 H   0  0  0  0  0  0
  -22.7350  -29.2340   19.8647 H   0  0  0  0  0  0
  -25.1281  -36.1967   25.0828 H   0  0  0  0  0  0
  -20.9944  -28.3210   24.1428 H   0  0  0  0  0  0
  -20.5598  -26.2247   23.3594 H   0  0  0  0  0  0
  -21.6622  -26.7380   22.1239 H   0  0  0  0  0  0
  -19.6903  -25.6265   21.1221 H   0  0  0  0  0  0
  -19.6695  -27.3143   20.6687 H   0  0  0  0  0  0
  -17.4192  -26.6646   21.3969 H   0  0  0  0  0  0
  -18.0320  -26.0016   22.8950 H   0  0  0  0  0  0
  -19.7937  -30.7196   24.2286 H   0  0  0  0  0  0
  -17.5030  -31.6253   24.5121 H   0  0  0  0  0  0
  -15.5350  -30.2959   23.7630 H   0  0  0  0  0  0
  -15.8662  -28.0789   22.7029 H   0  0  0  0  0  0
  -24.5883  -30.7086   25.7875 H   0  0  0  0  0  0
  -24.8899  -32.2870   26.4986 H   0  0  0  0  0  0
  -25.8092  -30.8902   27.0270 H   0  0  0  0  0  0
  -26.2828  -29.6817   24.1172 H   0  0  0  0  0  0
  -27.4049  -29.7308   25.4594 H   0  0  0  0  0  0
  -27.8663  -30.4362   23.9276 H   0  0  0  0  0  0
  -27.2725  -33.3676   26.2018 H   0  0  0  0  0  0
  -28.3834  -32.6904   25.0248 H   0  0  0  0  0  0
  -28.0759  -31.8502   26.5369 H   0  0  0  0  0  0
  -28.2586  -38.0102   24.7499 H   0  0  0  0  0  0
  -28.1090  -36.2644   24.6270 H   0  0  0  0  0  0
  -27.2308  -37.1461   25.8857 H   0  0  0  0  0  0
  -20.9244  -29.8773   21.6975 H   0  0  0  0  0  0
  -26.0162  -38.2856   24.1428 H   0  0  0  0  0  0
  -30.3497  -20.2292   23.1293 H   0  0  0  0  0  0
  -27.0584  -19.7976   20.3842 H   0  0  0  0  0  0
  -31.0827  -22.3752   23.7564 H   0  0  0  0  0  0
  -29.8840  -23.6580   23.6831 H   0  0  0  0  0  0
  -31.1047  -23.5119   22.4102 H   0  0  0  0  0  0
  -28.0485  -17.7949   21.3639 H   0  0  0  0  0  0
  -28.7285  -18.0595   22.9462 H   0  0  0  0  0  0
  -29.1987  -24.6135   21.5629 H   0  0  0  0  0  0
  -27.4722  -24.4171   21.5592 H   0  0  0  0  0  0
  -30.9911  -18.5076   21.5917 H   0  0  0  0  0  0
  -30.2233  -17.6558   20.2987 H   0  0  0  0  0  0
  -27.4048  -24.0914   19.1795 H   0  0  0  0  0  0
  -29.0892  -23.6894   19.0910 H   0  0  0  0  0  0
  -30.5287  -16.5169   23.1443 H   0  0  0  0  0  0
  -31.8147  -16.4249   21.9854 H   0  0  0  0  0  0
  -28.3723  -26.0352   18.1912 H   0  0  0  0  0  0
  -29.8509  -25.8341   19.0724 H   0  0  0  0  0  0
  -29.2664  -14.9349   21.9377 H   0  0  0  0  0  0
  1 25  1  0  0  0
  1 30  2  0  0  0
  1 84  1  0  0  0
  2  3  1  0  0  0
  2 25  1  0  0  0
  2 85  1  0  0  0
  2 86  1  0  0  0
  3  4  1  0  0  0
  3 87  1  0  0  0
  3 88  1  0  0  0
  4  5  1  0  0  0
  4 89  1  0  0  0
  4 90  1  0  0  0
  5  6  1  0  0  0
  5 26  1  0  0  0
  5 91  1  0  0  0
  6 25  1  0  0  0
  6 92  1  0  0  0
  6 93  1  0  0  0
  7  8  2  0  0  0
  7 26  1  0  0  0
  7 29  1  0  0  0
  8  9  1  0  0  0
  8 22  1  0  0  0
  9 10  1  0  0  0
  9 27  2  0  0  0
 10 11  2  0  0  0
 10 15  1  0  0  0
 11 12  1  0  0  0
 11 94  1  0  0  0
 12 13  2  0  0  0
 12 95  1  0  0  0
 13 14  1  0  0  0
 13 31  1  0  0  0
 14 15  2  0  0  0
 14 96  1  0  0  0
 15 97  1  0  0  0
 16 17  2  0  0  0
 16 21  1  0  0  0
 16 31  1  0  0  0
 17 18  1  0  0  0
 17 98  1  0  0  0
 18 19  2  0  0  0
 18 99  1  0  0  0
 19 20  1  0  0  0
 19 24  1  0  0  0
 20 21  2  0  0  0
 20100  1  0  0  0
 21 23  1  0  0  0
 22 28  1  0  0  0
 22 32  2  0  0  0
 26 27  1  0  0  0
 28101  1  0  0  0
 28102  1  0  0  0
 29103  1  0  0  0
 29104  1  0  0  0
 33 34  1  0  0  0
 33 66  1  0  0  0
 33 70  2  0  0  0
 34 36  1  0  0  0
 34 59  1  0  0  0
 34105  1  0  0  0
 35 44  2  0  0  0
 35 45  1  0  0  0
 35 68  1  0  0  0
 36 56  1  0  0  0
 36106  1  0  0  0
 37 39  1  0  0  0
 37 47  1  0  0  0
 37 66  1  0  0  0
 37107  1  0  0  0
 38 43  2  0  0  0
 38 46  1  0  0  0
 38 47  1  0  0  0
 39 64  1  0  0  0
 39 67  2  0  0  0
 40 52  1  0  0  0
 40 53  2  0  0  0
 40 58  1  0  0  0
 41108  1  0  0  0
 41109  1  0  0  0
 41110  1  0  0  0
 41 48  1  0  0  0
 42 43  1  0  0  0
 42 66  1  0  0  0
 42111  1  0  0  0
 42112  1  0  0  0
 43 44  1  0  0  0
 44113  1  0  0  0
 45 46  2  0  0  0
 45114  1  0  0  0
 46115  1  0  0  0
 47116  1  0  0  0
 47117  1  0  0  0
 48 56  1  0  0  0
 48 65  1  0  0  0
 48118  1  0  0  0
 49 50  1  0  0  0
 49 53  1  0  0  0
 49 64  1  0  0  0
 49119  1  0  0  0
 50 51  1  0  0  0
 50120  1  0  0  0
 50121  1  0  0  0
 51 52  1  0  0  0
 51122  1  0  0  0
 51123  1  0  0  0
 52124  1  0  0  0
 52125  1  0  0  0
 53 54  1  0  0  0
 54 55  2  0  0  0
 54126  1  0  0  0
 55 57  1  0  0  0
 55127  1  0  0  0
 56 69  2  0  0  0
 57 58  2  0  0  0
 57128  1  0  0  0
 58129  1  0  0  0
 59 60  1  0  0  0
 59 61  1  0  0  0
 59 62  1  0  0  0
 60130  1  0  0  0
 60131  1  0  0  0
 60132  1  0  0  0
 61133  1  0  0  0
 61134  1  0  0  0
 61135  1  0  0  0
 62136  1  0  0  0
 62137  1  0  0  0
 62138  1  0  0  0
 63 65  1  0  0  0
 63139  1  0  0  0
 63140  1  0  0  0
 63141  1  0  0  0
 64142  1  0  0  0
 65143  1  0  0  0
 68 82  1  0  0  0
 71 73  2  0  0  0
 71 74  1  0  0  0
 71144  1  0  0  0
 72 73  1  0  0  0
 72 83  2  0  0  0
 72145  1  0  0  0
 73 77  1  0  0  0
 74 75  2  0  0  0
 74 76  1  0  0  0
 75 78  1  0  0  0
 75 83  1  0  0  0
 76146  1  0  0  0
 76147  1  0  0  0
 76148  1  0  0  0
 77 79  1  0  0  0
 77149  1  0  0  0
 77150  1  0  0  0
 78 80  1  0  0  0
 78151  1  0  0  0
 78152  1  0  0  0
 79 81  1  0  0  0
 79153  1  0  0  0
 79154  1  0  0  0
 80 82  1  0  0  0
 80155  1  0  0  0
 80156  1  0  0  0
 81 84  1  0  0  0
 81157  1  0  0  0
 81158  1  0  0  0
 82159  1  0  0  0
 82160  1  0  0  0
 84161  1  0  0  0
M  ISO  4   1 100  68 101  82 101  84 100
M  END
> <chiral flag>
0

> <version>
0

> <s_m_source_file>
/data/baiqing/PycharmProjects/Reinvent-master-3.2/result/LINK_invent/BTK/process_docking_weight1_custom_sum_contain_oxygen_bond_distance_aromatic_linkinvent_7_9_3/rearranged_h_0041.sdf

> <i_m_source_file_index>
89

> <r_mmod_Potential_Energy-OPLS-2005>
-247.454681396484

> <r_mmod_Stretch_Energy-OPLS-2005>
32.830394744873

> <r_mmod_Bend_Energy-OPLS-2005>
104.166160583496

> <r_mmod_Torsional_Energy-OPLS-2005>
207.063674926758

> <r_mmod_Improper_Torsional_Energy-OPLS-2005>
1.94268929958344

> <r_mmod_Van_der_Waal_Energy-OPLS-2005>
156.503173828125

> <r_mmod_Electrostatic_Energy-OPLS-2005>
-539.1064453125

> <r_mmod_Solvation_Energy-OPLS-2005>
-220.359451293945

> <b_mmod_Minimization_Converged-OPLS-2005>
0

> <r_mmod_RMS_Derivative-OPLS-2005>
3.22547078132629

$$$$
89
                    3D
 Structure written by MMmdl.
169178  0  0  1  0            999 V2000
  -30.6516  -14.6113   20.5974 C   0  0  0  0  0  0
  -30.4430  -12.4178   19.4233 C   0  0  0  0  0  0
  -29.5020  -12.5427   18.2027 C   0  0  0  0  0  0
  -28.0194  -12.3805   18.6019 C   0  0  0  0  0  0
  -27.6553  -13.2013   19.8664 C   0  0  2  0  0  0
  -28.7026  -12.9371   20.9664 C   0  0  0  0  0  0
  -25.2581  -13.8138   20.5641 C   0  0  0  0  0  0
  -24.1828  -13.0434   20.9161 C   0  0  0  0  0  0
  -24.6368  -11.6893   20.8708 C   0  0  0  0  0  0
  -23.9038  -10.4287   21.0385 C   0  0  0  0  0  0
  -24.3594   -9.4219   21.9170 C   0  0  0  0  0  0
  -23.6268   -8.2254   22.0759 C   0  0  0  0  0  0
  -22.4240   -8.0289   21.3551 C   0  0  0  0  0  0
  -21.9868   -9.0254   20.4653 C   0  0  0  0  0  0
  -22.7198  -10.2135   20.3042 C   0  0  0  0  0  0
  -21.6855   -6.0729   22.5279 C   0  0  0  0  0  0
  -21.4029   -6.5631   23.8218 C   0  0  0  0  0  0
  -21.3652   -5.6782   24.9177 C   0  0  0  0  0  0
  -21.6034   -4.3048   24.7217 C   0  0  0  0  0  0
  -21.8824   -3.8133   23.4344 C   0  0  0  0  0  0
  -21.9206   -4.6960   22.3404 C   0  0  0  0  0  0
  -22.7860  -13.5267   21.1821 C   0  0  0  0  0  0
  -22.1674   -4.2142   21.0981 F   0  0  0  0  0  0
  -21.5611   -3.4539   25.7735 F   0  0  0  0  0  0
  -29.9973  -13.4026   20.4414 N   0  0  0  0  0  0
  -26.2989  -12.9284   20.3282 N   0  0  0  0  0  0
  -25.9284  -11.6452   20.5670 N   0  0  0  0  0  0
  -22.0472  -12.8299   22.0374 N   0  0  0  0  0  0
  -25.4291  -15.1850   20.4033 N   0  0  0  0  0  0
  -31.8023  -14.7109   20.1549 O   0  0  0  0  0  0
  -21.6626   -6.8870   21.4240 O   0  0  0  0  0  0
  -22.3560  -14.5592   20.6679 O   0  0  0  0  0  0
  -24.6195  -31.8641   23.2065 C   0  0  0  0  0  0
  -25.9070  -32.4807   23.8383 C   0  0  1  0  0  0
  -27.2290  -27.3710   20.1200 C   0  0  0  0  0  0
  -25.5904  -33.8603   24.2317 N   0  0  0  0  0  0
  -23.4124  -30.4885   21.5451 C   0  0  2  0  0  0
  -24.8602  -28.9383   20.1245 C   0  0  0  0  0  0
  -22.7431  -29.4658   22.4934 C   0  0  0  0  0  0
  -18.0284  -28.1390   22.8480 C   0  0  0  0  0  0
  -24.1487  -36.7314   23.2639 C   0  0  0  0  0  0
  -25.9466  -30.8103   21.3692 C   0  0  0  0  0  0
  -26.0245  -29.4346   20.7271 C   0  0  0  0  0  0
  -27.2153  -28.6599   20.7217 C   0  0  0  0  0  0
  -26.0497  -26.9033   19.5107 C   0  0  0  0  0  0
  -24.8688  -27.6710   19.5152 C   0  0  0  0  0  0
  -23.6292  -29.8184   20.1622 C   0  0  0  0  0  0
  -25.4105  -36.3102   24.0337 C   0  0  1  0  0  0
  -20.5877  -28.3693   23.1279 C   0  0  2  0  0  0
  -20.6769  -26.9419   22.5402 C   0  0  0  0  0  0
  -19.5751  -26.6389   21.5193 C   0  0  0  0  0  0
  -18.1932  -26.7932   22.1607 C   0  0  0  0  0  0
  -19.1533  -28.8849   23.2883 C   0  0  0  0  0  0
  -18.9465  -30.1443   23.8916 C   0  0  0  0  0  0
  -17.6473  -30.6590   24.0565 C   0  0  0  0  0  0
  -25.9035  -34.9471   23.5126 C   0  0  0  0  0  0
  -16.5363  -29.9101   23.6320 C   0  0  0  0  0  0
  -16.7273  -28.6514   23.0347 C   0  0  0  0  0  0
  -26.4482  -31.6593   25.0721 C   0  0  0  0  0  0
  -25.3741  -31.3713   26.1466 C   0  0  0  0  0  0
  -27.0302  -30.3026   24.6113 C   0  0  0  0  0  0
  -27.6066  -32.4304   25.7476 C   0  0  0  0  0  0
  -27.5578  -37.1813   24.8468 C   0  0  0  0  0  0
  -21.4152  -29.3070   22.3680 N   0  0  0  0  0  0
  -26.4292  -37.3789   23.9410 N   0  0  0  0  0  0
  -24.6783  -31.0698   22.0986 N   0  0  0  0  0  0
  -23.4169  -28.8178   23.2990 O   0  0  0  0  0  0
  -28.3710  -26.5941   20.0046 O   0  0  0  0  0  0
  -26.5607  -34.8924   22.4696 O   0  0  0  0  0  0
  -23.5376  -32.1421   23.7419 O   0  0  0  0  0  0
  -27.9624  -21.6591   18.2711 C   0  0  0  0  0  0
  -27.8209  -22.8893   18.9472 C   0  0  0  0  0  0
  -29.6074  -19.5766   20.8504 C   0  0  0  0  0  0
  -29.7320  -18.3258   20.1585 C   0  0  0  0  0  0
  -28.5347  -20.5405   18.9164 C   0  0  0  0  0  0
  -28.9946  -20.7240   20.2530 C   0  0  0  0  0  0
  -28.2493  -22.9954   20.2803 C   0  0  0  0  0  0
  -29.1945  -18.2847   18.8496 C   0  0  0  0  0  0
  -30.5630  -17.0096   17.1142 C   0  0  0  0  0  0
  -27.5288  -16.7267   23.9039 C   0  0  0  0  0  0
  -30.5673  -17.1381   20.7498 C   0  0  0  0  0  0
  -27.8550  -24.2474   21.1133 C   0  0  0  0  0  0
  -29.2840  -17.0497   17.9629 C   0  0  0  0  0  0
  -28.5259  -17.0242   22.7784 C   0  0  0  0  0  0
  -28.9214  -15.7334   22.0370 C   0  0  0  0  0  0
  -28.6607  -25.5982   21.0224 C   0  0  0  0  0  0
  -28.6272  -19.3603   18.2563 N   0  0  0  0  0  0
  -28.8494  -21.9302   20.9048 N   0  0  0  0  0  0
  -29.9691  -15.7682   20.9916 N   0  0  0  0  0  0
  -31.4756  -12.5693   19.1031 H   0  0  0  0  0  0
  -30.4210  -11.4044   19.8274 H   0  0  0  0  0  0
  -29.7718  -11.8102   17.4402 H   0  0  0  0  0  0
  -29.6406  -13.5214   17.7401 H   0  0  0  0  0  0
  -27.8388  -11.3211   18.7878 H   0  0  0  0  0  0
  -27.3709  -12.6572   17.7698 H   0  0  0  0  0  0
  -27.7025  -14.2537   19.5824 H   0  0  0  0  0  0
  -28.7470  -11.8634   21.1573 H   0  0  0  0  0  0
  -28.4157  -13.3170   21.9391 H   0  0  0  0  0  0
  -25.2744   -9.5723   22.4733 H   0  0  0  0  0  0
  -23.9998   -7.4648   22.7474 H   0  0  0  0  0  0
  -21.0794   -8.8774   19.8949 H   0  0  0  0  0  0
  -22.3656  -10.9669   19.6152 H   0  0  0  0  0  0
  -21.2037   -7.6141   23.9733 H   0  0  0  0  0  0
  -21.1456   -6.0498   25.9085 H   0  0  0  0  0  0
  -22.0601   -2.7594   23.2842 H   0  0  0  0  0  0
  -22.4073  -11.9983   22.4808 H   0  0  0  0  0  0
  -21.1100  -13.1365   22.2556 H   0  0  0  0  0  0
  -24.6626  -15.8381   20.5223 H   0  0  0  0  0  0
  -26.2852  -15.6260   20.0942 H   0  0  0  0  0  0
  -26.7132  -32.5506   23.1136 H   0  0  0  0  0  0
  -25.0035  -33.9757   25.0447 H   0  0  0  0  0  0
  -22.7049  -31.3071   21.3988 H   0  0  0  0  0  0
  -23.3740  -35.9659   23.3323 H   0  0  0  0  0  0
  -24.3581  -36.8908   22.2050 H   0  0  0  0  0  0
  -23.7253  -37.6528   23.6643 H   0  0  0  0  0  0
  -26.0635  -31.5683   20.5937 H   0  0  0  0  0  0
  -26.8336  -30.8713   21.9889 H   0  0  0  0  0  0
  -28.1204  -29.0467   21.1695 H   0  0  0  0  0  0
  -26.0492  -25.9400   19.0211 H   0  0  0  0  0  0
  -23.9761  -27.2821   19.0449 H   0  0  0  0  0  0
  -23.7560  -30.5928   19.4043 H   0  0  0  0  0  0
  -22.7499  -29.2494   19.8554 H   0  0  0  0  0  0
  -25.1280  -36.1972   25.0829 H   0  0  0  0  0  0
  -20.9977  -28.3276   24.1392 H   0  0  0  0  0  0
  -20.5636  -26.2314   23.3602 H   0  0  0  0  0  0
  -21.6648  -26.7429   22.1226 H   0  0  0  0  0  0
  -19.6917  -25.6290   21.1246 H   0  0  0  0  0  0
  -19.6694  -27.3181   20.6707 H   0  0  0  0  0  0
  -17.4190  -26.6661   21.4023 H   0  0  0  0  0  0
  -18.0352  -26.0074   22.9008 H   0  0  0  0  0  0
  -19.7945  -30.7244   24.2305 H   0  0  0  0  0  0
  -17.5037  -31.6275   24.5163 H   0  0  0  0  0  0
  -15.5367  -30.3025   23.7622 H   0  0  0  0  0  0
  -15.8666  -28.0838   22.7065 H   0  0  0  0  0  0
  -24.5921  -30.7043   25.7815 H   0  0  0  0  0  0
  -24.8916  -32.2867   26.4904 H   0  0  0  0  0  0
  -25.8094  -30.8901   27.0232 H   0  0  0  0  0  0
  -26.2839  -29.6787   24.1176 H   0  0  0  0  0  0
  -27.4069  -29.7269   25.4579 H   0  0  0  0  0  0
  -27.8687  -30.4329   23.9266 H   0  0  0  0  0  0
  -27.2705  -33.3610   26.2061 H   0  0  0  0  0  0
  -28.3873  -32.6846   25.0294 H   0  0  0  0  0  0
  -28.0733  -31.8413   26.5381 H   0  0  0  0  0  0
  -28.2616  -38.0090   24.7490 H   0  0  0  0  0  0
  -28.1056  -36.2626   24.6324 H   0  0  0  0  0  0
  -27.2303  -37.1503   25.8873 H   0  0  0  0  0  0
  -20.9303  -29.8828   21.6936 H   0  0  0  0  0  0
  -26.0186  -38.2871   24.1400 H   0  0  0  0  0  0
  -27.6080  -21.5617   17.2569 H   0  0  0  0  0  0
  -27.3359  -23.7255   18.4590 H   0  0  0  0  0  0
  -30.0014  -19.6747   21.8515 H   0  0  0  0  0  0
  -30.6021  -16.0979   16.5180 H   0  0  0  0  0  0
  -31.4583  -17.0375   17.7351 H   0  0  0  0  0  0
  -30.6092  -17.8551   16.4284 H   0  0  0  0  0  0
  -27.2766  -17.6318   24.4562 H   0  0  0  0  0  0
  -27.9333  -16.0039   24.6149 H   0  0  0  0  0  0
  -26.6029  -16.3134   23.5038 H   0  0  0  0  0  0
  -31.0433  -17.4660   21.6729 H   0  0  0  0  0  0
  -31.4111  -17.0584   20.0652 H   0  0  0  0  0  0
  -27.9119  -23.9327   22.1558 H   0  0  0  0  0  0
  -26.7968  -24.4524   20.9502 H   0  0  0  0  0  0
  -28.4176  -17.0276   17.3011 H   0  0  0  0  0  0
  -29.2009  -16.1443   18.5569 H   0  0  0  0  0  0
  -29.3963  -17.5201   23.2063 H   0  0  0  0  0  0
  -28.0480  -17.7222   22.0927 H   0  0  0  0  0  0
  -28.0003  -15.3715   21.5862 H   0  0  0  0  0  0
  -29.2512  -15.0304   22.8039 H   0  0  0  0  0  0
  -29.7219  -25.3601   20.9583 H   0  0  0  0  0  0
  -28.5484  -26.1089   21.9803 H   0  0  0  0  0  0
  1 25  1  0  0  0
  1 30  2  0  0  0
  1 89  1  0  0  0
  2  3  1  0  0  0
  2 25  1  0  0  0
  2 90  1  0  0  0
  2 91  1  0  0  0
  3  4  1  0  0  0
  3 92  1  0  0  0
  3 93  1  0  0  0
  4  5  1  0  0  0
  4 94  1  0  0  0
  4 95  1  0  0  0
  5  6  1  0  0  0
  5 26  1  0  0  0
  5 96  1  0  0  0
  6 25  1  0  0  0
  6 97  1  0  0  0
  6 98  1  0  0  0
  7  8  2  0  0  0
  7 26  1  0  0  0
  7 29  1  0  0  0
  8  9  1  0  0  0
  8 22  1  0  0  0
  9 10  1  0  0  0
  9 27  2  0  0  0
 10 11  2  0  0  0
 10 15  1  0  0  0
 11 12  1  0  0  0
 11 99  1  0  0  0
 12 13  2  0  0  0
 12100  1  0  0  0
 13 14  1  0  0  0
 13 31  1  0  0  0
 14 15  2  0  0  0
 14101  1  0  0  0
 15102  1  0  0  0
 16 17  2  0  0  0
 16 21  1  0  0  0
 16 31  1  0  0  0
 17 18  1  0  0  0
 17103  1  0  0  0
 18 19  2  0  0  0
 18104  1  0  0  0
 19 20  1  0  0  0
 19 24  1  0  0  0
 20 21  2  0  0  0
 20105  1  0  0  0
 21 23  1  0  0  0
 22 28  1  0  0  0
 22 32  2  0  0  0
 26 27  1  0  0  0
 28106  1  0  0  0
 28107  1  0  0  0
 29108  1  0  0  0
 29109  1  0  0  0
 33 34  1  0  0  0
 33 66  1  0  0  0
 33 70  2  0  0  0
 34 36  1  0  0  0
 34 59  1  0  0  0
 34110  1  0  0  0
 35 44  2  0  0  0
 35 45  1  0  0  0
 35 68  1  0  0  0
 36 56  1  0  0  0
 36111  1  0  0  0
 37 39  1  0  0  0
 37 47  1  0  0  0
 37 66  1  0  0  0
 37112  1  0  0  0
 38 43  2  0  0  0
 38 46  1  0  0  0
 38 47  1  0  0  0
 39 64  1  0  0  0
 39 67  2  0  0  0
 40 52  1  0  0  0
 40 53  2  0  0  0
 40 58  1  0  0  0
 41113  1  0  0  0
 41114  1  0  0  0
 41115  1  0  0  0
 41 48  1  0  0  0
 42 43  1  0  0  0
 42 66  1  0  0  0
 42116  1  0  0  0
 42117  1  0  0  0
 43 44  1  0  0  0
 44118  1  0  0  0
 45 46  2  0  0  0
 45119  1  0  0  0
 46120  1  0  0  0
 47121  1  0  0  0
 47122  1  0  0  0
 48 56  1  0  0  0
 48 65  1  0  0  0
 48123  1  0  0  0
 49 50  1  0  0  0
 49 53  1  0  0  0
 49 64  1  0  0  0
 49124  1  0  0  0
 50 51  1  0  0  0
 50125  1  0  0  0
 50126  1  0  0  0
 51 52  1  0  0  0
 51127  1  0  0  0
 51128  1  0  0  0
 52129  1  0  0  0
 52130  1  0  0  0
 53 54  1  0  0  0
 54 55  2  0  0  0
 54131  1  0  0  0
 55 57  1  0  0  0
 55132  1  0  0  0
 56 69  2  0  0  0
 57 58  2  0  0  0
 57133  1  0  0  0
 58134  1  0  0  0
 59 60  1  0  0  0
 59 61  1  0  0  0
 59 62  1  0  0  0
 60135  1  0  0  0
 60136  1  0  0  0
 60137  1  0  0  0
 61138  1  0  0  0
 61139  1  0  0  0
 61140  1  0  0  0
 62141  1  0  0  0
 62142  1  0  0  0
 62143  1  0  0  0
 63 65  1  0  0  0
 63144  1  0  0  0
 63145  1  0  0  0
 63146  1  0  0  0
 64147  1  0  0  0
 65148  1  0  0  0
 68 86  1  0  0  0
 71 72  2  0  0  0
 71 75  1  0  0  0
 71149  1  0  0  0
 72 77  1  0  0  0
 72150  1  0  0  0
 73 74  2  0  0  0
 73 76  1  0  0  0
 73151  1  0  0  0
 74 78  1  0  0  0
 74 81  1  0  0  0
 75 76  2  0  0  0
 75 87  1  0  0  0
 76 88  1  0  0  0
 77 82  1  0  0  0
 77 88  2  0  0  0
 78 83  1  0  0  0
 78 87  2  0  0  0
 79 83  1  0  0  0
 79152  1  0  0  0
 79153  1  0  0  0
 79154  1  0  0  0
 80 84  1  0  0  0
 80155  1  0  0  0
 80156  1  0  0  0
 80157  1  0  0  0
 81 89  1  0  0  0
 81158  1  0  0  0
 81159  1  0  0  0
 82 86  1  0  0  0
 82160  1  0  0  0
 82161  1  0  0  0
 83162  1  0  0  0
 83163  1  0  0  0
 84 85  1  0  0  0
 84164  1  0  0  0
 84165  1  0  0  0
 85 89  1  0  0  0
 85166  1  0  0  0
 85167  1  0  0  0
 86168  1  0  0  0
 86169  1  0  0  0
M  ISO  4   1 100  68 101  86 101  89 100
M  END
> <chiral flag>
0

> <version>
0

> <s_m_source_file>
/data/baiqing/PycharmProjects/Reinvent-master-3.2/result/LINK_invent/BTK/process_docking_weight1_custom_sum_contain_oxygen_bond_distance_aromatic_linkinvent_7_9_3/rearranged_h_0041.sdf

> <i_m_source_file_index>
90

> <r_mmod_Potential_Energy-OPLS-2005>
201.738662719727

> <r_mmod_Stretch_Energy-OPLS-2005>
77.7578353881836

> <r_mmod_Bend_Energy-OPLS-2005>
172.783157348633

> <r_mmod_Torsional_Energy-OPLS-2005>
276.578247070312

> <r_mmod_Improper_Torsional_Energy-OPLS-2005>
8.93931102752686

> <r_mmod_Van_der_Waal_Energy-OPLS-2005>
167.268218994141

> <r_mmod_Electrostatic_Energy-OPLS-2005>
-325.638641357422

> <r_mmod_Solvation_Energy-OPLS-2005>
-205.525100708008

> <b_mmod_Minimization_Converged-OPLS-2005>
0

> <r_mmod_RMS_Derivative-OPLS-2005>
2.56843519210815

$$$$
90
                    3D
 Structure written by MMmdl.
157165  0  0  1  0            999 V2000
  -30.6614  -14.5480   20.5317 C   0  0  0  0  0  0
  -30.4274  -12.3433   19.4337 C   0  0  0  0  0  0
  -29.4990  -12.5012   18.2115 C   0  0  0  0  0  0
  -28.0209  -12.3528   18.6237 C   0  0  0  0  0  0
  -27.6557  -13.2105   19.8657 C   0  0  2  0  0  0
  -28.6978  -13.0316   20.9925 C   0  0  0  0  0  0
  -25.2578  -13.8162   20.5683 C   0  0  0  0  0  0
  -24.1835  -13.0439   20.9186 C   0  0  0  0  0  0
  -24.6389  -11.6904   20.8726 C   0  0  0  0  0  0
  -23.9048  -10.4293   21.0391 C   0  0  0  0  0  0
  -24.3606   -9.4213   21.9169 C   0  0  0  0  0  0
  -23.6290   -8.2245   22.0744 C   0  0  0  0  0  0
  -22.4270   -8.0278   21.3538 C   0  0  0  0  0  0
  -21.9898   -9.0245   20.4636 C   0  0  0  0  0  0
  -22.7217  -10.2131   20.3044 C   0  0  0  0  0  0
  -21.6856   -6.0732   22.5275 C   0  0  0  0  0  0
  -21.4016   -6.5638   23.8207 C   0  0  0  0  0  0
  -21.3658   -5.6793   24.9172 C   0  0  0  0  0  0
  -21.6045   -4.3055   24.7228 C   0  0  0  0  0  0
  -21.8820   -3.8144   23.4350 C   0  0  0  0  0  0
  -21.9201   -4.6959   22.3405 C   0  0  0  0  0  0
  -22.7857  -13.5230   21.1861 C   0  0  0  0  0  0
  -22.1672   -4.2147   21.0981 F   0  0  0  0  0  0
  -21.5626   -3.4538   25.7738 F   0  0  0  0  0  0
  -30.0198  -13.3491   20.4304 N   0  0  0  0  0  0
  -26.2996  -12.9334   20.3318 N   0  0  0  0  0  0
  -25.9310  -11.6490   20.5730 N   0  0  0  0  0  0
  -22.0518  -12.8204   22.0418 N   0  0  0  0  0  0
  -25.4307  -15.1877   20.4090 N   0  0  0  0  0  0
  -31.8148  -14.7144   20.1265 O   0  0  0  0  0  0
  -21.6644   -6.8871   21.4232 O   0  0  0  0  0  0
  -22.3535  -14.5545   20.6730 O   0  0  0  0  0  0
  -24.6184  -31.8637   23.2056 C   0  0  0  0  0  0
  -25.9056  -32.4802   23.8365 C   0  0  1  0  0  0
  -27.2349  -27.3893   20.1146 C   0  0  0  0  0  0
  -25.5899  -33.8602   24.2300 N   0  0  0  0  0  0
  -23.4093  -30.4853   21.5461 C   0  0  2  0  0  0
  -24.8576  -28.9423   20.1158 C   0  0  0  0  0  0
  -22.7429  -29.4640   22.4964 C   0  0  0  0  0  0
  -18.0277  -28.1376   22.8490 C   0  0  0  0  0  0
  -24.1489  -36.7309   23.2637 C   0  0  0  0  0  0
  -25.9412  -30.8188   21.3626 C   0  0  0  0  0  0
  -26.0201  -29.4491   20.7101 C   0  0  0  0  0  0
  -27.2141  -28.6838   20.6963 C   0  0  0  0  0  0
  -26.0536  -26.9052   19.5137 C   0  0  0  0  0  0
  -24.8716  -27.6724   19.5118 C   0  0  0  0  0  0
  -23.6207  -29.8132   20.1627 C   0  0  0  0  0  0
  -25.4110  -36.3101   24.0330 C   0  0  1  0  0  0
  -20.5872  -28.3668   23.1308 C   0  0  2  0  0  0
  -20.6768  -26.9399   22.5415 C   0  0  0  0  0  0
  -19.5749  -26.6382   21.5211 C   0  0  0  0  0  0
  -18.1928  -26.7923   22.1621 C   0  0  0  0  0  0
  -19.1526  -28.8837   23.2896 C   0  0  0  0  0  0
  -18.9452  -30.1444   23.8905 C   0  0  0  0  0  0
  -17.6455  -30.6581   24.0563 C   0  0  0  0  0  0
  -25.9040  -34.9465   23.5116 C   0  0  0  0  0  0
  -16.5346  -29.9084   23.6325 C   0  0  0  0  0  0
  -16.7267  -28.6500   23.0347 C   0  0  0  0  0  0
  -26.4474  -31.6593   25.0705 C   0  0  0  0  0  0
  -25.3733  -31.3702   26.1448 C   0  0  0  0  0  0
  -27.0311  -30.3032   24.6103 C   0  0  0  0  0  0
  -27.6049  -32.4310   25.7468 C   0  0  0  0  0  0
  -27.5583  -37.1806   24.8463 C   0  0  0  0  0  0
  -21.4151  -29.3032   22.3705 N   0  0  0  0  0  0
  -26.4299  -37.3785   23.9405 N   0  0  0  0  0  0
  -24.6747  -31.0708   22.0968 N   0  0  0  0  0  0
  -23.4182  -28.8184   23.3020 O   0  0  0  0  0  0
  -28.3927  -26.6260   20.1138 O   0  0  0  0  0  0
  -26.5607  -34.8923   22.4684 O   0  0  0  0  0  0
  -23.5364  -32.1400   23.7431 O   0  0  0  0  0  0
  -28.9310  -22.1442   17.3732 C   0  0  0  0  0  0
  -29.2745  -21.3030   16.3049 C   0  0  0  0  0  0
  -29.0695  -21.6780   18.7066 C   0  0  0  0  0  0
  -29.5232  -20.3121   18.8377 C   0  0  0  0  0  0
  -28.7607  -22.6657   19.8666 C   0  0  0  0  0  0
  -29.7944  -19.5316   20.1473 C   0  0  0  0  0  0
  -28.5942  -24.1833   19.4438 C   0  0  0  0  0  0
  -29.3976  -17.9953   20.1387 C   0  0  0  0  0  0
  -30.2748  -17.0353   21.0145 C   0  0  0  0  0  0
  -28.3052  -25.2398   20.5540 C   0  0  0  0  0  0
  -29.7524  -20.0581   16.4993 N   0  0  0  0  0  0
  -29.8833  -19.5913   17.7411 N   0  0  0  0  0  0
  -29.8995  -15.5953   20.9372 N   0  0  0  0  0  0
  -31.4705  -12.4540   19.1328 H   0  0  0  0  0  0
  -30.3436  -11.3400   19.8537 H   0  0  0  0  0  0
  -29.7490  -11.7628   17.4481 H   0  0  0  0  0  0
  -29.6580  -13.4791   17.7542 H   0  0  0  0  0  0
  -27.8424  -11.2974   18.8347 H   0  0  0  0  0  0
  -27.3693  -12.6069   17.7868 H   0  0  0  0  0  0
  -27.6855  -14.2513   19.5430 H   0  0  0  0  0  0
  -28.6903  -12.0053   21.3622 H   0  0  0  0  0  0
  -28.4541  -13.6563   21.8535 H   0  0  0  0  0  0
  -25.2752   -9.5701   22.4735 H   0  0  0  0  0  0
  -24.0011   -7.4636   22.7452 H   0  0  0  0  0  0
  -21.0840   -8.8748   19.8934 H   0  0  0  0  0  0
  -22.3664  -10.9666   19.6152 H   0  0  0  0  0  0
  -21.2004   -7.6145   23.9711 H   0  0  0  0  0  0
  -21.1479   -6.0524   25.9076 H   0  0  0  0  0  0
  -22.0602   -2.7606   23.2850 H   0  0  0  0  0  0
  -22.4154  -11.9863   22.4789 H   0  0  0  0  0  0
  -21.1128  -13.1193   22.2632 H   0  0  0  0  0  0
  -24.6642  -15.8441   20.5116 H   0  0  0  0  0  0
  -26.2813  -15.6229   20.0753 H   0  0  0  0  0  0
  -26.7127  -32.5499   23.1126 H   0  0  0  0  0  0
  -25.0049  -33.9752   25.0443 H   0  0  0  0  0  0
  -22.6998  -31.3025   21.4025 H   0  0  0  0  0  0
  -23.3749  -35.9645   23.3307 H   0  0  0  0  0  0
  -24.3580  -36.8918   22.2051 H   0  0  0  0  0  0
  -23.7247  -37.6515   23.6653 H   0  0  0  0  0  0
  -26.0573  -31.5836   20.5934 H   0  0  0  0  0  0
  -26.8274  -30.8737   21.9834 H   0  0  0  0  0  0
  -28.1136  -29.0726   21.1534 H   0  0  0  0  0  0
  -26.0429  -25.9319   19.0441 H   0  0  0  0  0  0
  -23.9773  -27.2768   19.0498 H   0  0  0  0  0  0
  -23.7308  -30.5851   19.4004 H   0  0  0  0  0  0
  -22.7446  -29.2333   19.8674 H   0  0  0  0  0  0
  -25.1293  -36.1960   25.0823 H   0  0  0  0  0  0
  -20.9965  -28.3235   24.1428 H   0  0  0  0  0  0
  -20.5671  -26.2271   23.3600 H   0  0  0  0  0  0
  -21.6638  -26.7439   22.1206 H   0  0  0  0  0  0
  -19.6912  -25.6297   21.1230 H   0  0  0  0  0  0
  -19.6694  -27.3199   20.6746 H   0  0  0  0  0  0
  -17.4198  -26.6666   21.4024 H   0  0  0  0  0  0
  -18.0333  -26.0062   22.9013 H   0  0  0  0  0  0
  -19.7926  -30.7257   24.2279 H   0  0  0  0  0  0
  -17.5009  -31.6265   24.5160 H   0  0  0  0  0  0
  -15.5347  -30.2990   23.7645 H   0  0  0  0  0  0
  -15.8664  -28.0825   22.7059 H   0  0  0  0  0  0
  -24.5909  -30.7049   25.7778 H   0  0  0  0  0  0
  -24.8921  -32.2858   26.4895 H   0  0  0  0  0  0
  -25.8074  -30.8867   27.0207 H   0  0  0  0  0  0
  -26.2863  -29.6782   24.1163 H   0  0  0  0  0  0
  -27.4082  -29.7276   25.4567 H   0  0  0  0  0  0
  -27.8696  -30.4343   23.9260 H   0  0  0  0  0  0
  -27.2678  -33.3602   26.2071 H   0  0  0  0  0  0
  -28.3848  -32.6877   25.0289 H   0  0  0  0  0  0
  -28.0736  -31.8420   26.5361 H   0  0  0  0  0  0
  -28.2604  -38.0101   24.7512 H   0  0  0  0  0  0
  -28.1076  -36.2631   24.6293 H   0  0  0  0  0  0
  -27.2297  -37.1462   25.8865 H   0  0  0  0  0  0
  -20.9312  -29.8747   21.6920 H   0  0  0  0  0  0
  -26.0185  -38.2862   24.1406 H   0  0  0  0  0  0
  -28.5853  -23.1332   17.1224 H   0  0  0  0  0  0
  -29.1842  -21.6389   15.2824 H   0  0  0  0  0  0
  -29.5652  -22.5873   20.5992 H   0  0  0  0  0  0
  -27.8554  -22.3254   20.3702 H   0  0  0  0  0  0
  -29.2973  -20.0314   20.9779 H   0  0  0  0  0  0
  -30.8625  -19.6244   20.3435 H   0  0  0  0  0  0
  -27.7795  -24.2709   18.7266 H   0  0  0  0  0  0
  -29.5020  -24.4933   18.9249 H   0  0  0  0  0  0
  -29.4666  -17.5942   19.1291 H   0  0  0  0  0  0
  -28.3444  -17.9001   20.4055 H   0  0  0  0  0  0
  -30.2066  -17.3421   22.0590 H   0  0  0  0  0  0
  -31.3230  -17.1609   20.7389 H   0  0  0  0  0  0
  -29.0484  -25.1195   21.3426 H   0  0  0  0  0  0
  -27.3448  -25.0305   21.0281 H   0  0  0  0  0  0
  -28.9617  -15.3596   21.2250 H   0  0  0  0  0  0
  1 25  1  0  0  0
  1 30  2  0  0  0
  1 83  1  0  0  0
  2  3  1  0  0  0
  2 25  1  0  0  0
  2 84  1  0  0  0
  2 85  1  0  0  0
  3  4  1  0  0  0
  3 86  1  0  0  0
  3 87  1  0  0  0
  4  5  1  0  0  0
  4 88  1  0  0  0
  4 89  1  0  0  0
  5  6  1  0  0  0
  5 26  1  0  0  0
  5 90  1  0  0  0
  6 25  1  0  0  0
  6 91  1  0  0  0
  6 92  1  0  0  0
  7  8  2  0  0  0
  7 26  1  0  0  0
  7 29  1  0  0  0
  8  9  1  0  0  0
  8 22  1  0  0  0
  9 10  1  0  0  0
  9 27  2  0  0  0
 10 11  2  0  0  0
 10 15  1  0  0  0
 11 12  1  0  0  0
 11 93  1  0  0  0
 12 13  2  0  0  0
 12 94  1  0  0  0
 13 14  1  0  0  0
 13 31  1  0  0  0
 14 15  2  0  0  0
 14 95  1  0  0  0
 15 96  1  0  0  0
 16 17  2  0  0  0
 16 21  1  0  0  0
 16 31  1  0  0  0
 17 18  1  0  0  0
 17 97  1  0  0  0
 18 19  2  0  0  0
 18 98  1  0  0  0
 19 20  1  0  0  0
 19 24  1  0  0  0
 20 21  2  0  0  0
 20 99  1  0  0  0
 21 23  1  0  0  0
 22 28  1  0  0  0
 22 32  2  0  0  0
 26 27  1  0  0  0
 28100  1  0  0  0
 28101  1  0  0  0
 29102  1  0  0  0
 29103  1  0  0  0
 33 34  1  0  0  0
 33 66  1  0  0  0
 33 70  2  0  0  0
 34 36  1  0  0  0
 34 59  1  0  0  0
 34104  1  0  0  0
 35 44  2  0  0  0
 35 45  1  0  0  0
 35 68  1  0  0  0
 36 56  1  0  0  0
 36105  1  0  0  0
 37 39  1  0  0  0
 37 47  1  0  0  0
 37 66  1  0  0  0
 37106  1  0  0  0
 38 43  2  0  0  0
 38 46  1  0  0  0
 38 47  1  0  0  0
 39 64  1  0  0  0
 39 67  2  0  0  0
 40 52  1  0  0  0
 40 53  2  0  0  0
 40 58  1  0  0  0
 41107  1  0  0  0
 41108  1  0  0  0
 41109  1  0  0  0
 41 48  1  0  0  0
 42 43  1  0  0  0
 42 66  1  0  0  0
 42110  1  0  0  0
 42111  1  0  0  0
 43 44  1  0  0  0
 44112  1  0  0  0
 45 46  2  0  0  0
 45113  1  0  0  0
 46114  1  0  0  0
 47115  1  0  0  0
 47116  1  0  0  0
 48 56  1  0  0  0
 48 65  1  0  0  0
 48117  1  0  0  0
 49 50  1  0  0  0
 49 53  1  0  0  0
 49 64  1  0  0  0
 49118  1  0  0  0
 50 51  1  0  0  0
 50119  1  0  0  0
 50120  1  0  0  0
 51 52  1  0  0  0
 51121  1  0  0  0
 51122  1  0  0  0
 52123  1  0  0  0
 52124  1  0  0  0
 53 54  1  0  0  0
 54 55  2  0  0  0
 54125  1  0  0  0
 55 57  1  0  0  0
 55126  1  0  0  0
 56 69  2  0  0  0
 57 58  2  0  0  0
 57127  1  0  0  0
 58128  1  0  0  0
 59 60  1  0  0  0
 59 61  1  0  0  0
 59 62  1  0  0  0
 60129  1  0  0  0
 60130  1  0  0  0
 60131  1  0  0  0
 61132  1  0  0  0
 61133  1  0  0  0
 61134  1  0  0  0
 62135  1  0  0  0
 62136  1  0  0  0
 62137  1  0  0  0
 63 65  1  0  0  0
 63138  1  0  0  0
 63139  1  0  0  0
 63140  1  0  0  0
 64141  1  0  0  0
 65142  1  0  0  0
 68 80  1  0  0  0
 71 72  2  0  0  0
 71 73  1  0  0  0
 71143  1  0  0  0
 72 81  1  0  0  0
 72144  1  0  0  0
 73 74  2  0  0  0
 73 75  1  0  0  0
 74 76  1  0  0  0
 74 82  1  0  0  0
 75 77  1  0  0  0
 75145  1  0  0  0
 75146  1  0  0  0
 76 78  1  0  0  0
 76147  1  0  0  0
 76148  1  0  0  0
 77 80  1  0  0  0
 77149  1  0  0  0
 77150  1  0  0  0
 78 79  1  0  0  0
 78151  1  0  0  0
 78152  1  0  0  0
 79 83  1  0  0  0
 79153  1  0  0  0
 79154  1  0  0  0
 80155  1  0  0  0
 80156  1  0  0  0
 81 82  2  0  0  0
 83157  1  0  0  0
M  ISO  4   1 100  68 101  80 101  83 100
M  END
> <chiral flag>
0

> <version>
0

> <s_m_source_file>
/data/baiqing/PycharmProjects/Reinvent-master-3.2/result/LINK_invent/BTK/process_docking_weight1_custom_sum_contain_oxygen_bond_distance_aromatic_linkinvent_7_9_3/rearranged_h_0041.sdf

> <i_m_source_file_index>
91

> <r_mmod_Potential_Energy-OPLS-2005>
-5.53351879119873

> <r_mmod_Stretch_Energy-OPLS-2005>
58.713020324707

> <r_mmod_Bend_Energy-OPLS-2005>
120.26978302002

> <r_mmod_Torsional_Energy-OPLS-2005>
211.472061157227

> <r_mmod_Improper_Torsional_Energy-OPLS-2005>
4.20737648010254

> <r_mmod_Van_der_Waal_Energy-OPLS-2005>
154.759979248047

> <r_mmod_Electrostatic_Energy-OPLS-2005>
-338.037628173828

> <r_mmod_Solvation_Energy-OPLS-2005>
-239.838912963867

> <b_mmod_Minimization_Converged-OPLS-2005>
0

> <r_mmod_RMS_Derivative-OPLS-2005>
1.06914460659027

$$$$
91
                    3D
 Structure written by MMmdl.
161169  0  0  1  0            999 V2000
  -30.6946  -14.4668   20.5872 C   0  0  0  0  0  0
  -30.4271  -12.3117   19.4169 C   0  0  0  0  0  0
  -29.4922  -12.4957   18.2033 C   0  0  0  0  0  0
  -28.0124  -12.3657   18.6155 C   0  0  0  0  0  0
  -27.6623  -13.2014   19.8750 C   0  0  2  0  0  0
  -28.7036  -12.9749   20.9931 C   0  0  0  0  0  0
  -25.2625  -13.8150   20.5680 C   0  0  0  0  0  0
  -24.1860  -13.0436   20.9156 C   0  0  0  0  0  0
  -24.6393  -11.6895   20.8721 C   0  0  0  0  0  0
  -23.9046  -10.4295   21.0385 C   0  0  0  0  0  0
  -24.3611   -9.4216   21.9166 C   0  0  0  0  0  0
  -23.6303   -8.2249   22.0738 C   0  0  0  0  0  0
  -22.4286   -8.0280   21.3533 C   0  0  0  0  0  0
  -21.9901   -9.0249   20.4626 C   0  0  0  0  0  0
  -22.7216  -10.2134   20.3041 C   0  0  0  0  0  0
  -21.6857   -6.0730   22.5268 C   0  0  0  0  0  0
  -21.4008   -6.5638   23.8195 C   0  0  0  0  0  0
  -21.3672   -5.6793   24.9166 C   0  0  0  0  0  0
  -21.6055   -4.3055   24.7219 C   0  0  0  0  0  0
  -21.8831   -3.8145   23.4343 C   0  0  0  0  0  0
  -21.9199   -4.6957   22.3396 C   0  0  0  0  0  0
  -22.7900  -13.5242   21.1833 C   0  0  0  0  0  0
  -22.1670   -4.2140   21.0972 F   0  0  0  0  0  0
  -21.5635   -3.4542   25.7737 F   0  0  0  0  0  0
  -30.0341  -13.2880   20.4435 N   0  0  0  0  0  0
  -26.3037  -12.9296   20.3362 N   0  0  0  0  0  0
  -25.9317  -11.6461   20.5763 N   0  0  0  0  0  0
  -22.0555  -12.8232   22.0392 N   0  0  0  0  0  0
  -25.4392  -15.1865   20.4113 N   0  0  0  0  0  0
  -31.8142  -14.6753   20.1114 O   0  0  0  0  0  0
  -21.6653   -6.8877   21.4230 O   0  0  0  0  0  0
  -22.3572  -14.5542   20.6669 O   0  0  0  0  0  0
  -24.6115  -31.8688   23.2105 C   0  0  0  0  0  0
  -25.9016  -32.4829   23.8400 C   0  0  1  0  0  0
  -27.2402  -27.4472   20.0998 C   0  0  0  0  0  0
  -25.5881  -33.8627   24.2336 N   0  0  0  0  0  0
  -23.3998  -30.4893   21.5502 C   0  0  2  0  0  0
  -24.8517  -28.9536   20.1191 C   0  0  0  0  0  0
  -22.7393  -29.4647   22.4994 C   0  0  0  0  0  0
  -18.0265  -28.1359   22.8495 C   0  0  0  0  0  0
  -24.1485  -36.7315   23.2641 C   0  0  0  0  0  0
  -25.9271  -30.8373   21.3634 C   0  0  0  0  0  0
  -26.0081  -29.4684   20.7198 C   0  0  0  0  0  0
  -27.2073  -28.7204   20.7134 C   0  0  0  0  0  0
  -26.0740  -26.9431   19.4934 C   0  0  0  0  0  0
  -24.8780  -27.6881   19.5044 C   0  0  0  0  0  0
  -23.6099  -29.8163   20.1666 C   0  0  0  0  0  0
  -25.4107  -36.3117   24.0345 C   0  0  1  0  0  0
  -20.5855  -28.3639   23.1323 C   0  0  2  0  0  0
  -20.6748  -26.9375   22.5416 C   0  0  0  0  0  0
  -19.5739  -26.6369   21.5201 C   0  0  0  0  0  0
  -18.1914  -26.7909   22.1610 C   0  0  0  0  0  0
  -19.1516  -28.8815   23.2908 C   0  0  0  0  0  0
  -18.9449  -30.1424   23.8920 C   0  0  0  0  0  0
  -17.6451  -30.6567   24.0557 C   0  0  0  0  0  0
  -25.9030  -34.9482   23.5139 C   0  0  0  0  0  0
  -16.5337  -29.9071   23.6321 C   0  0  0  0  0  0
  -16.7255  -28.6480   23.0353 C   0  0  0  0  0  0
  -26.4467  -31.6603   25.0714 C   0  0  0  0  0  0
  -25.3745  -31.3705   26.1472 C   0  0  0  0  0  0
  -27.0302  -30.3055   24.6064 C   0  0  0  0  0  0
  -27.6054  -32.4322   25.7457 C   0  0  0  0  0  0
  -27.5592  -37.1796   24.8458 C   0  0  0  0  0  0
  -21.4124  -29.3014   22.3735 N   0  0  0  0  0  0
  -26.4296  -37.3799   23.9418 N   0  0  0  0  0  0
  -24.6639  -31.0793   22.1001 N   0  0  0  0  0  0
  -23.4174  -28.8197   23.3038 O   0  0  0  0  0  0
  -28.3948  -26.7048   20.0229 O   0  0  0  0  0  0
  -26.5591  -34.8932   22.4700 O   0  0  0  0  0  0
  -23.5309  -32.1430   23.7509 O   0  0  0  0  0  0
  -28.5368  -23.7731   22.3612 C   0  0  0  0  0  0
  -28.7170  -23.7908   19.9629 C   0  0  0  0  0  0
  -28.6506  -24.5125   21.1693 C   0  0  0  0  0  0
  -28.4732  -22.3627   22.3110 C   0  0  0  0  0  0
  -28.4835  -21.7291   21.0426 C   0  0  0  0  0  0
  -29.7775  -21.5674   24.3297 C   0  0  0  0  0  0
  -28.4138  -21.5909   23.6246 C   0  0  0  0  0  0
  -28.7883  -26.0363   21.2231 C   0  0  0  0  0  0
  -28.2677  -20.2199   20.8571 C   0  0  0  0  0  0
  -29.4928  -19.3160   21.1343 C   0  0  0  0  0  0
  -29.1832  -17.8083   20.9467 C   0  0  0  0  0  0
  -30.3574  -16.8640   21.3009 C   0  0  0  0  0  0
  -28.6272  -22.4402   19.8998 N   0  0  0  0  0  0
  -29.9822  -15.4487   21.1693 N   0  0  0  0  0  0
  -31.4678  -12.4285   19.1081 H   0  0  0  0  0  0
  -30.3466  -11.3005   19.8172 H   0  0  0  0  0  0
  -29.7292  -11.7566   17.4374 H   0  0  0  0  0  0
  -29.6626  -13.4722   17.7496 H   0  0  0  0  0  0
  -27.8125  -11.3105   18.8059 H   0  0  0  0  0  0
  -27.3653  -12.6494   17.7850 H   0  0  0  0  0  0
  -27.7079  -14.2505   19.5836 H   0  0  0  0  0  0
  -28.6846  -11.9356   21.3218 H   0  0  0  0  0  0
  -28.4612  -13.5639   21.8792 H   0  0  0  0  0  0
  -25.2747   -9.5718   22.4738 H   0  0  0  0  0  0
  -24.0029   -7.4647   22.7458 H   0  0  0  0  0  0
  -21.0827   -8.8741   19.8945 H   0  0  0  0  0  0
  -22.3633  -10.9677   19.6165 H   0  0  0  0  0  0
  -21.1977   -7.6142   23.9690 H   0  0  0  0  0  0
  -21.1489   -6.0523   25.9067 H   0  0  0  0  0  0
  -22.0594   -2.7609   23.2836 H   0  0  0  0  0  0
  -22.4193  -11.9894   22.4774 H   0  0  0  0  0  0
  -21.1176  -13.1237   22.2596 H   0  0  0  0  0  0
  -24.6782  -15.8479   20.5195 H   0  0  0  0  0  0
  -26.2962  -15.6199   20.0901 H   0  0  0  0  0  0
  -26.7084  -32.5564   23.1170 H   0  0  0  0  0  0
  -25.0036  -33.9797   25.0482 H   0  0  0  0  0  0
  -22.6873  -31.3045   21.4086 H   0  0  0  0  0  0
  -23.3752  -35.9639   23.3295 H   0  0  0  0  0  0
  -24.3592  -36.8931   22.2056 H   0  0  0  0  0  0
  -23.7221  -37.6515   23.6655 H   0  0  0  0  0  0
  -26.0344  -31.6007   20.5914 H   0  0  0  0  0  0
  -26.8161  -30.8985   21.9779 H   0  0  0  0  0  0
  -28.1048  -29.1227   21.1627 H   0  0  0  0  0  0
  -26.0962  -25.9751   19.0115 H   0  0  0  0  0  0
  -23.9920  -27.2877   19.0309 H   0  0  0  0  0  0
  -23.7109  -30.5870   19.4018 H   0  0  0  0  0  0
  -22.7364  -29.2283   19.8772 H   0  0  0  0  0  0
  -25.1280  -36.1985   25.0835 H   0  0  0  0  0  0
  -20.9956  -28.3194   24.1440 H   0  0  0  0  0  0
  -20.5611  -26.2248   23.3597 H   0  0  0  0  0  0
  -21.6626  -26.7391   22.1231 H   0  0  0  0  0  0
  -19.6896  -25.6284   21.1216 H   0  0  0  0  0  0
  -19.6690  -27.3186   20.6735 H   0  0  0  0  0  0
  -17.4185  -26.6659   21.4008 H   0  0  0  0  0  0
  -18.0319  -26.0036   22.8990 H   0  0  0  0  0  0
  -19.7929  -30.7226   24.2298 H   0  0  0  0  0  0
  -17.5008  -31.6257   24.5144 H   0  0  0  0  0  0
  -15.5339  -30.2978   23.7635 H   0  0  0  0  0  0
  -15.8650  -28.0794   22.7079 H   0  0  0  0  0  0
  -24.5873  -30.7113   25.7798 H   0  0  0  0  0  0
  -24.8991  -32.2866   26.4988 H   0  0  0  0  0  0
  -25.8095  -30.8802   27.0187 H   0  0  0  0  0  0
  -26.2834  -29.6798   24.1160 H   0  0  0  0  0  0
  -27.4143  -29.7308   25.4502 H   0  0  0  0  0  0
  -27.8637  -30.4396   23.9163 H   0  0  0  0  0  0
  -27.2675  -33.3588   26.2112 H   0  0  0  0  0  0
  -28.3811  -32.6941   25.0249 H   0  0  0  0  0  0
  -28.0787  -31.8404   26.5303 H   0  0  0  0  0  0
  -28.2588  -38.0116   24.7553 H   0  0  0  0  0  0
  -28.1109  -36.2653   24.6220 H   0  0  0  0  0  0
  -27.2323  -37.1365   25.8863 H   0  0  0  0  0  0
  -20.9269  -29.8749   21.6981 H   0  0  0  0  0  0
  -26.0189  -38.2875   24.1442 H   0  0  0  0  0  0
  -28.5154  -24.2846   23.3133 H   0  0  0  0  0  0
  -28.8471  -24.3020   19.0201 H   0  0  0  0  0  0
  -29.7290  -20.9997   25.2591 H   0  0  0  0  0  0
  -30.1156  -22.5746   24.5753 H   0  0  0  0  0  0
  -30.5436  -21.1082   23.7039 H   0  0  0  0  0  0
  -28.0640  -20.5695   23.4801 H   0  0  0  0  0  0
  -27.6762  -22.0595   24.2783 H   0  0  0  0  0  0
  -29.8402  -26.2638   21.3983 H   0  0  0  0  0  0
  -28.2450  -26.4175   22.0899 H   0  0  0  0  0  0
  -27.9333  -20.0444   19.8332 H   0  0  0  0  0  0
  -27.4255  -19.9069   21.4747 H   0  0  0  0  0  0
  -29.8306  -19.4801   22.1564 H   0  0  0  0  0  0
  -30.3190  -19.6122   20.4850 H   0  0  0  0  0  0
  -28.8804  -17.6330   19.9126 H   0  0  0  0  0  0
  -28.3201  -17.5477   21.5605 H   0  0  0  0  0  0
  -30.6754  -17.0360   22.3305 H   0  0  0  0  0  0
  -31.2158  -17.1064   20.6718 H   0  0  0  0  0  0
  -29.0720  -15.1807   21.5130 H   0  0  0  0  0  0
  1 25  1  0  0  0
  1 30  2  0  0  0
  1 84  1  0  0  0
  2  3  1  0  0  0
  2 25  1  0  0  0
  2 85  1  0  0  0
  2 86  1  0  0  0
  3  4  1  0  0  0
  3 87  1  0  0  0
  3 88  1  0  0  0
  4  5  1  0  0  0
  4 89  1  0  0  0
  4 90  1  0  0  0
  5  6  1  0  0  0
  5 26  1  0  0  0
  5 91  1  0  0  0
  6 25  1  0  0  0
  6 92  1  0  0  0
  6 93  1  0  0  0
  7  8  2  0  0  0
  7 26  1  0  0  0
  7 29  1  0  0  0
  8  9  1  0  0  0
  8 22  1  0  0  0
  9 10  1  0  0  0
  9 27  2  0  0  0
 10 11  2  0  0  0
 10 15  1  0  0  0
 11 12  1  0  0  0
 11 94  1  0  0  0
 12 13  2  0  0  0
 12 95  1  0  0  0
 13 14  1  0  0  0
 13 31  1  0  0  0
 14 15  2  0  0  0
 14 96  1  0  0  0
 15 97  1  0  0  0
 16 17  2  0  0  0
 16 21  1  0  0  0
 16 31  1  0  0  0
 17 18  1  0  0  0
 17 98  1  0  0  0
 18 19  2  0  0  0
 18 99  1  0  0  0
 19 20  1  0  0  0
 19 24  1  0  0  0
 20 21  2  0  0  0
 20100  1  0  0  0
 21 23  1  0  0  0
 22 28  1  0  0  0
 22 32  2  0  0  0
 26 27  1  0  0  0
 28101  1  0  0  0
 28102  1  0  0  0
 29103  1  0  0  0
 29104  1  0  0  0
 33 34  1  0  0  0
 33 66  1  0  0  0
 33 70  2  0  0  0
 34 36  1  0  0  0
 34 59  1  0  0  0
 34105  1  0  0  0
 35 44  2  0  0  0
 35 45  1  0  0  0
 35 68  1  0  0  0
 36 56  1  0  0  0
 36106  1  0  0  0
 37 39  1  0  0  0
 37 47  1  0  0  0
 37 66  1  0  0  0
 37107  1  0  0  0
 38 43  2  0  0  0
 38 46  1  0  0  0
 38 47  1  0  0  0
 39 64  1  0  0  0
 39 67  2  0  0  0
 40 52  1  0  0  0
 40 53  2  0  0  0
 40 58  1  0  0  0
 41108  1  0  0  0
 41109  1  0  0  0
 41110  1  0  0  0
 41 48  1  0  0  0
 42 43  1  0  0  0
 42 66  1  0  0  0
 42111  1  0  0  0
 42112  1  0  0  0
 43 44  1  0  0  0
 44113  1  0  0  0
 45 46  2  0  0  0
 45114  1  0  0  0
 46115  1  0  0  0
 47116  1  0  0  0
 47117  1  0  0  0
 48 56  1  0  0  0
 48 65  1  0  0  0
 48118  1  0  0  0
 49 50  1  0  0  0
 49 53  1  0  0  0
 49 64  1  0  0  0
 49119  1  0  0  0
 50 51  1  0  0  0
 50120  1  0  0  0
 50121  1  0  0  0
 51 52  1  0  0  0
 51122  1  0  0  0
 51123  1  0  0  0
 52124  1  0  0  0
 52125  1  0  0  0
 53 54  1  0  0  0
 54 55  2  0  0  0
 54126  1  0  0  0
 55 57  1  0  0  0
 55127  1  0  0  0
 56 69  2  0  0  0
 57 58  2  0  0  0
 57128  1  0  0  0
 58129  1  0  0  0
 59 60  1  0  0  0
 59 61  1  0  0  0
 59 62  1  0  0  0
 60130  1  0  0  0
 60131  1  0  0  0
 60132  1  0  0  0
 61133  1  0  0  0
 61134  1  0  0  0
 61135  1  0  0  0
 62136  1  0  0  0
 62137  1  0  0  0
 62138  1  0  0  0
 63 65  1  0  0  0
 63139  1  0  0  0
 63140  1  0  0  0
 63141  1  0  0  0
 64142  1  0  0  0
 65143  1  0  0  0
 68 78  1  0  0  0
 71 73  2  0  0  0
 71 74  1  0  0  0
 71144  1  0  0  0
 72 73  1  0  0  0
 72 83  2  0  0  0
 72145  1  0  0  0
 73 78  1  0  0  0
 74 75  2  0  0  0
 74 77  1  0  0  0
 75 79  1  0  0  0
 75 83  1  0  0  0
 76 77  1  0  0  0
 76146  1  0  0  0
 76147  1  0  0  0
 76148  1  0  0  0
 77149  1  0  0  0
 77150  1  0  0  0
 78151  1  0  0  0
 78152  1  0  0  0
 79 80  1  0  0  0
 79153  1  0  0  0
 79154  1  0  0  0
 80 81  1  0  0  0
 80155  1  0  0  0
 80156  1  0  0  0
 81 82  1  0  0  0
 81157  1  0  0  0
 81158  1  0  0  0
 82 84  1  0  0  0
 82159  1  0  0  0
 82160  1  0  0  0
 84161  1  0  0  0
M  ISO  4   1 100  68 101  78 101  84 100
M  END
> <chiral flag>
0

> <version>
0

> <s_m_source_file>
/data/baiqing/PycharmProjects/Reinvent-master-3.2/result/LINK_invent/BTK/process_docking_weight1_custom_sum_contain_oxygen_bond_distance_aromatic_linkinvent_7_9_3/rearranged_h_0041.sdf

> <i_m_source_file_index>
92

> <r_mmod_Potential_Energy-OPLS-2005>
-202.384323120117

> <r_mmod_Stretch_Energy-OPLS-2005>
35.4694137573242

> <r_mmod_Bend_Energy-OPLS-2005>
91.1599578857422

> <r_mmod_Torsional_Energy-OPLS-2005>
224.964553833008

> <r_mmod_Improper_Torsional_Energy-OPLS-2005>
3.33542585372925

> <r_mmod_Van_der_Waal_Energy-OPLS-2005>
145.818695068359

> <r_mmod_Electrostatic_Energy-OPLS-2005>
-493.453643798828

> <r_mmod_Solvation_Energy-OPLS-2005>
-220.147888183594

> <b_mmod_Minimization_Converged-OPLS-2005>
0

> <r_mmod_RMS_Derivative-OPLS-2005>
2.08978080749512

$$$$
92
                    3D
 Structure written by MMmdl.
160168  0  0  1  0            999 V2000
  -30.5072  -14.6569   20.4400 C   0  0  0  0  0  0
  -30.4394  -12.4074   19.4464 C   0  0  0  0  0  0
  -29.5161  -12.5183   18.2137 C   0  0  0  0  0  0
  -28.0310  -12.3410   18.6157 C   0  0  0  0  0  0
  -27.6354  -13.2051   19.8473 C   0  0  2  0  0  0
  -28.6712  -13.0585   20.9822 C   0  0  0  0  0  0
  -25.2417  -13.8198   20.5428 C   0  0  0  0  0  0
  -24.1820  -13.0527   20.9143 C   0  0  0  0  0  0
  -24.6373  -11.6907   20.8756 C   0  0  0  0  0  0
  -23.9046  -10.4325   21.0385 C   0  0  0  0  0  0
  -24.3597   -9.4252   21.9194 C   0  0  0  0  0  0
  -23.6321   -8.2277   22.0757 C   0  0  0  0  0  0
  -22.4303   -8.0289   21.3534 C   0  0  0  0  0  0
  -21.9891   -9.0259   20.4640 C   0  0  0  0  0  0
  -22.7172  -10.2158   20.3073 C   0  0  0  0  0  0
  -21.6851   -6.0720   22.5270 C   0  0  0  0  0  0
  -21.3994   -6.5628   23.8192 C   0  0  0  0  0  0
  -21.3655   -5.6790   24.9164 C   0  0  0  0  0  0
  -21.6039   -4.3052   24.7221 C   0  0  0  0  0  0
  -21.8837   -3.8139   23.4350 C   0  0  0  0  0  0
  -21.9209   -4.6952   22.3399 C   0  0  0  0  0  0
  -22.7818  -13.5298   21.1889 C   0  0  0  0  0  0
  -22.1685   -4.2130   21.0983 F   0  0  0  0  0  0
  -21.5650   -3.4545   25.7746 F   0  0  0  0  0  0
  -29.9808  -13.4009   20.4256 N   0  0  0  0  0  0
  -26.2848  -12.9357   20.3104 N   0  0  0  0  0  0
  -25.9254  -11.6508   20.5622 N   0  0  0  0  0  0
  -22.0467  -12.8292   22.0380 N   0  0  0  0  0  0
  -25.4083  -15.1960   20.3545 N   0  0  0  0  0  0
  -31.6819  -14.8904   20.1583 O   0  0  0  0  0  0
  -21.6660   -6.8884   21.4235 O   0  0  0  0  0  0
  -22.3428  -14.5569   20.6618 O   0  0  0  0  0  0
  -24.6337  -31.8583   23.2021 C   0  0  0  0  0  0
  -25.9247  -32.4790   23.8346 C   0  0  1  0  0  0
  -27.1407  -27.2830   20.1015 C   0  0  0  0  0  0
  -25.5950  -33.8600   24.2288 N   0  0  0  0  0  0
  -23.4197  -30.5193   21.5342 C   0  0  2  0  0  0
  -24.8396  -28.9505   20.1118 C   0  0  0  0  0  0
  -22.7353  -29.4947   22.4714 C   0  0  0  0  0  0
  -18.0220  -28.1674   22.8417 C   0  0  0  0  0  0
  -24.1502  -36.7274   23.2636 C   0  0  0  0  0  0
  -25.9695  -30.7846   21.3736 C   0  0  0  0  0  0
  -26.0268  -29.4136   20.6963 C   0  0  0  0  0  0
  -27.1939  -28.5908   20.6721 C   0  0  0  0  0  0
  -25.9383  -26.8759   19.4967 C   0  0  0  0  0  0
  -24.7960  -27.6846   19.5256 C   0  0  0  0  0  0
  -23.6186  -29.8486   20.1603 C   0  0  0  0  0  0
  -25.4127  -36.3089   24.0333 C   0  0  1  0  0  0
  -20.5856  -28.4244   23.1276 C   0  0  2  0  0  0
  -20.6843  -26.9957   22.5529 C   0  0  0  0  0  0
  -19.5652  -26.6657   21.5506 C   0  0  0  0  0  0
  -18.1849  -26.8001   22.2085 C   0  0  0  0  0  0
  -19.1469  -28.9220   23.2885 C   0  0  0  0  0  0
  -18.9259  -30.1758   23.9143 C   0  0  0  0  0  0
  -17.6209  -30.6690   24.0882 C   0  0  0  0  0  0
  -25.9051  -34.9434   23.5125 C   0  0  0  0  0  0
  -16.5187  -29.9351   23.6129 C   0  0  0  0  0  0
  -16.7220  -28.6936   22.9894 C   0  0  0  0  0  0
  -26.4543  -31.6612   25.0759 C   0  0  0  0  0  0
  -25.3770  -31.3699   26.1484 C   0  0  0  0  0  0
  -27.0390  -30.3004   24.6311 C   0  0  0  0  0  0
  -27.6087  -32.4305   25.7518 C   0  0  0  0  0  0
  -27.5586  -37.1829   24.8472 C   0  0  0  0  0  0
  -21.4045  -29.3421   22.3311 N   0  0  0  0  0  0
  -26.4293  -37.3785   23.9426 N   0  0  0  0  0  0
  -24.6935  -31.0620   22.0911 N   0  0  0  0  0  0
  -23.3955  -28.8439   23.2861 O   0  0  0  0  0  0
  -28.1633  -26.3302   20.1537 O   0  0  0  0  0  0
  -26.5653  -34.8847   22.4666 O   0  0  0  0  0  0
  -23.5520  -32.1410   23.7364 O   0  0  0  0  0  0
  -27.8269  -21.2475   19.9162 C   0  0  0  0  0  0
  -27.0032  -20.1367   20.0378 C   0  0  0  0  0  0
  -25.6931  -20.6151   19.6916 C   0  0  0  0  0  0
  -25.7735  -21.9785   19.4821 C   0  0  0  0  0  0
  -24.4178  -19.7870   19.5757 C   0  0  0  0  0  0
  -24.6241  -22.8760   19.1793 C   0  0  0  0  0  0
  -27.3356  -18.6579   20.4686 C   0  0  0  0  0  0
  -28.2980  -17.7393   19.6198 C   0  0  0  0  0  0
  -27.6886  -23.8049   19.3616 C   0  0  0  0  0  0
  -29.5766  -17.1116   20.3176 C   0  0  0  0  0  0
  -27.7290  -24.9287   20.4967 C   0  0  0  0  0  0
  -27.1059  -22.4135   19.6146 N   0  0  0  0  0  0
  -29.5478  -15.6330   20.5741 N   0  0  0  0  0  0
  -31.4750  -12.5660   19.1492 H   0  0  0  0  0  0
  -30.3969  -11.4098   19.8784 H   0  0  0  0  0  0
  -29.7926  -11.7847   17.4547 H   0  0  0  0  0  0
  -29.6412  -13.4963   17.7405 H   0  0  0  0  0  0
  -27.8676  -11.2830   18.8305 H   0  0  0  0  0  0
  -27.3864  -12.5723   17.7564 H   0  0  0  0  0  0
  -27.6471  -14.2353   19.4901 H   0  0  0  0  0  0
  -28.6904  -12.0395   21.3693 H   0  0  0  0  0  0
  -28.4132  -13.6948   21.8274 H   0  0  0  0  0  0
  -25.2733   -9.5741   22.4763 H   0  0  0  0  0  0
  -23.9997   -7.4677   22.7482 H   0  0  0  0  0  0
  -21.0811   -8.8745   19.8995 H   0  0  0  0  0  0
  -22.3578  -10.9686   19.6205 H   0  0  0  0  0  0
  -21.1942   -7.6130   23.9670 H   0  0  0  0  0  0
  -21.1456   -6.0527   25.9048 H   0  0  0  0  0  0
  -22.0612   -2.7608   23.2843 H   0  0  0  0  0  0
  -22.4048  -11.9917   22.4794 H   0  0  0  0  0  0
  -21.1074  -13.1284   22.2630 H   0  0  0  0  0  0
  -24.5915  -15.7910   20.3681 H   0  0  0  0  0  0
  -26.1559  -15.5701   19.7907 H   0  0  0  0  0  0
  -26.7301  -32.5481   23.1071 H   0  0  0  0  0  0
  -25.0150  -33.9646   25.0492 H   0  0  0  0  0  0
  -22.7334  -31.3523   21.3784 H   0  0  0  0  0  0
  -23.3788  -35.9600   23.3340 H   0  0  0  0  0  0
  -24.3583  -36.8867   22.2046 H   0  0  0  0  0  0
  -23.7236  -37.6465   23.6625 H   0  0  0  0  0  0
  -26.1199  -31.5499   20.6152 H   0  0  0  0  0  0
  -26.8471  -30.7999   22.0198 H   0  0  0  0  0  0
  -28.1090  -28.9194   21.1374 H   0  0  0  0  0  0
  -25.8541  -25.8928   19.0553 H   0  0  0  0  0  0
  -23.8562  -27.2847   19.1500 H   0  0  0  0  0  0
  -23.7304  -30.6046   19.3739 H   0  0  0  0  0  0
  -22.7345  -29.2636   19.9090 H   0  0  0  0  0  0
  -25.1319  -36.1921   25.0831 H   0  0  0  0  0  0
  -20.9882  -28.4075   24.1517 H   0  0  0  0  0  0
  -20.5996  -26.2874   23.3736 H   0  0  0  0  0  0
  -21.6553  -26.8129   22.1040 H   0  0  0  0  0  0
  -19.6776  -25.6449   21.1855 H   0  0  0  0  0  0
  -19.6276  -27.3423   20.6888 H   0  0  0  0  0  0
  -17.4079  -26.6023   21.4708 H   0  0  0  0  0  0
  -18.0600  -26.0600   23.0067 H   0  0  0  0  0  0
  -19.7571  -30.7622   24.3116 H   0  0  0  0  0  0
  -17.4527  -31.5900   24.6365 H   0  0  0  0  0  0
  -15.5167  -30.3298   23.7499 H   0  0  0  0  0  0
  -15.8524  -28.1466   22.6294 H   0  0  0  0  0  0
  -24.5978  -30.6980   25.7820 H   0  0  0  0  0  0
  -24.8904  -32.2832   26.4913 H   0  0  0  0  0  0
  -25.8128  -30.8890   27.0290 H   0  0  0  0  0  0
  -26.2976  -29.6757   24.1292 H   0  0  0  0  0  0
  -27.3990  -29.7243   25.4879 H   0  0  0  0  0  0
  -27.8914  -30.4264   23.9631 H   0  0  0  0  0  0
  -27.2763  -33.3643   26.2077 H   0  0  0  0  0  0
  -28.3938  -32.6857   25.0370 H   0  0  0  0  0  0
  -28.0772  -31.8465   26.5478 H   0  0  0  0  0  0
  -28.2647  -38.0086   24.7530 H   0  0  0  0  0  0
  -28.1038  -36.2634   24.6308 H   0  0  0  0  0  0
  -27.2291  -37.1474   25.8860 H   0  0  0  0  0  0
  -20.9133  -29.9286   21.6629 H   0  0  0  0  0  0
  -26.0201  -38.2873   24.1363 H   0  0  0  0  0  0
  -28.8987  -21.2868   20.0178 H   0  0  0  0  0  0
  -24.4434  -18.8783   20.1926 H   0  0  0  0  0  0
  -24.3012  -19.5201   18.5339 H   0  0  0  0  0  0
  -23.5039  -20.3286   19.8637 H   0  0  0  0  0  0
  -23.9473  -22.4212   18.4626 H   0  0  0  0  0  0
  -24.9038  -23.8087   18.6928 H   0  0  0  0  0  0
  -24.0380  -23.0861   20.0787 H   0  0  0  0  0  0
  -26.3772  -18.1227   20.4766 H   0  0  0  0  0  0
  -27.6166  -18.6355   21.5169 H   0  0  0  0  0  0
  -28.5886  -18.3008   18.7294 H   0  0  0  0  0  0
  -27.7263  -16.8947   19.2192 H   0  0  0  0  0  0
  -28.6937  -23.6792   18.9571 H   0  0  0  0  0  0
  -27.1136  -24.2124   18.5288 H   0  0  0  0  0  0
  -29.7497  -17.6470   21.2500 H   0  0  0  0  0  0
  -30.4235  -17.3305   19.6639 H   0  0  0  0  0  0
  -26.7389  -24.9538   20.9894 H   0  0  0  0  0  0
  -28.4205  -24.5948   21.2631 H   0  0  0  0  0  0
  -28.6344  -15.2664   20.7814 H   0  0  0  0  0  0
  1 25  1  0  0  0
  1 30  2  0  0  0
  1 83  1  0  0  0
  2  3  1  0  0  0
  2 25  1  0  0  0
  2 84  1  0  0  0
  2 85  1  0  0  0
  3  4  1  0  0  0
  3 86  1  0  0  0
  3 87  1  0  0  0
  4  5  1  0  0  0
  4 88  1  0  0  0
  4 89  1  0  0  0
  5  6  1  0  0  0
  5 26  1  0  0  0
  5 90  1  0  0  0
  6 25  1  0  0  0
  6 91  1  0  0  0
  6 92  1  0  0  0
  7  8  2  0  0  0
  7 26  1  0  0  0
  7 29  1  0  0  0
  8  9  1  0  0  0
  8 22  1  0  0  0
  9 10  1  0  0  0
  9 27  2  0  0  0
 10 11  2  0  0  0
 10 15  1  0  0  0
 11 12  1  0  0  0
 11 93  1  0  0  0
 12 13  2  0  0  0
 12 94  1  0  0  0
 13 14  1  0  0  0
 13 31  1  0  0  0
 14 15  2  0  0  0
 14 95  1  0  0  0
 15 96  1  0  0  0
 16 17  2  0  0  0
 16 21  1  0  0  0
 16 31  1  0  0  0
 17 18  1  0  0  0
 17 97  1  0  0  0
 18 19  2  0  0  0
 18 98  1  0  0  0
 19 20  1  0  0  0
 19 24  1  0  0  0
 20 21  2  0  0  0
 20 99  1  0  0  0
 21 23  1  0  0  0
 22 28  1  0  0  0
 22 32  2  0  0  0
 26 27  1  0  0  0
 28100  1  0  0  0
 28101  1  0  0  0
 29102  1  0  0  0
 29103  1  0  0  0
 33 34  1  0  0  0
 33 66  1  0  0  0
 33 70  2  0  0  0
 34 36  1  0  0  0
 34 59  1  0  0  0
 34104  1  0  0  0
 35 44  2  0  0  0
 35 45  1  0  0  0
 35 68  1  0  0  0
 36 56  1  0  0  0
 36105  1  0  0  0
 37 39  1  0  0  0
 37 47  1  0  0  0
 37 66  1  0  0  0
 37106  1  0  0  0
 38 43  2  0  0  0
 38 46  1  0  0  0
 38 47  1  0  0  0
 39 64  1  0  0  0
 39 67  2  0  0  0
 40 52  1  0  0  0
 40 53  2  0  0  0
 40 58  1  0  0  0
 41107  1  0  0  0
 41108  1  0  0  0
 41109  1  0  0  0
 41 48  1  0  0  0
 42 43  1  0  0  0
 42 66  1  0  0  0
 42110  1  0  0  0
 42111  1  0  0  0
 43 44  1  0  0  0
 44112  1  0  0  0
 45 46  2  0  0  0
 45113  1  0  0  0
 46114  1  0  0  0
 47115  1  0  0  0
 47116  1  0  0  0
 48 56  1  0  0  0
 48 65  1  0  0  0
 48117  1  0  0  0
 49 50  1  0  0  0
 49 53  1  0  0  0
 49 64  1  0  0  0
 49118  1  0  0  0
 50 51  1  0  0  0
 50119  1  0  0  0
 50120  1  0  0  0
 51 52  1  0  0  0
 51121  1  0  0  0
 51122  1  0  0  0
 52123  1  0  0  0
 52124  1  0  0  0
 53 54  1  0  0  0
 54 55  2  0  0  0
 54125  1  0  0  0
 55 57  1  0  0  0
 55126  1  0  0  0
 56 69  2  0  0  0
 57 58  2  0  0  0
 57127  1  0  0  0
 58128  1  0  0  0
 59 60  1  0  0  0
 59 61  1  0  0  0
 59 62  1  0  0  0
 60129  1  0  0  0
 60130  1  0  0  0
 60131  1  0  0  0
 61132  1  0  0  0
 61133  1  0  0  0
 61134  1  0  0  0
 62135  1  0  0  0
 62136  1  0  0  0
 62137  1  0  0  0
 63 65  1  0  0  0
 63138  1  0  0  0
 63139  1  0  0  0
 63140  1  0  0  0
 64141  1  0  0  0
 65142  1  0  0  0
 68 81  1  0  0  0
 71 72  2  0  0  0
 71 82  1  0  0  0
 71143  1  0  0  0
 72 73  1  0  0  0
 72 77  1  0  0  0
 73 74  2  0  0  0
 73 75  1  0  0  0
 74 76  1  0  0  0
 74 82  1  0  0  0
 75144  1  0  0  0
 75145  1  0  0  0
 75146  1  0  0  0
 76147  1  0  0  0
 76148  1  0  0  0
 76149  1  0  0  0
 77 78  1  0  0  0
 77150  1  0  0  0
 77151  1  0  0  0
 78 80  1  0  0  0
 78152  1  0  0  0
 78153  1  0  0  0
 79 81  1  0  0  0
 79 82  1  0  0  0
 79154  1  0  0  0
 79155  1  0  0  0
 80 83  1  0  0  0
 80156  1  0  0  0
 80157  1  0  0  0
 81158  1  0  0  0
 81159  1  0  0  0
 83160  1  0  0  0
M  ISO  4   1 100  68 101  81 101  83 100
M  END
> <chiral flag>
0

> <version>
0

> <s_m_source_file>
/data/baiqing/PycharmProjects/Reinvent-master-3.2/result/LINK_invent/BTK/process_docking_weight1_custom_sum_contain_oxygen_bond_distance_aromatic_linkinvent_7_9_3/rearranged_h_0041.sdf

> <i_m_source_file_index>
93

> <r_mmod_Potential_Energy-OPLS-2005>
118.205101013184

> <r_mmod_Stretch_Energy-OPLS-2005>
91.2336654663086

> <r_mmod_Bend_Energy-OPLS-2005>
153.047439575195

> <r_mmod_Torsional_Energy-OPLS-2005>
263.025024414062

> <r_mmod_Improper_Torsional_Energy-OPLS-2005>
8.33870029449463

> <r_mmod_Van_der_Waal_Energy-OPLS-2005>
127.677932739258

> <r_mmod_Electrostatic_Energy-OPLS-2005>
-399.048889160156

> <r_mmod_Solvation_Energy-OPLS-2005>
-213.091796875

> <b_mmod_Minimization_Converged-OPLS-2005>
0

> <r_mmod_RMS_Derivative-OPLS-2005>
20.8333206176758

$$$$
93
                    3D
 Structure written by MMmdl.
145153  0  0  1  0            999 V2000
  -30.2885  -15.5991   20.3100 C   0  0  0  0  0  0
  -30.4326  -13.0394   19.5538 C   0  0  0  0  0  0
  -29.5590  -12.6464   18.3264 C   0  0  0  0  0  0
  -28.1226  -12.3039   18.7516 C   0  0  0  0  0  0
  -27.5956  -13.3063   19.8024 C   0  0  2  0  0  0
  -28.6046  -13.6208   20.9265 C   0  0  0  0  0  0
  -25.2346  -13.8292   20.5744 C   0  0  0  0  0  0
  -24.1741  -13.0453   20.9266 C   0  0  0  0  0  0
  -24.6433  -11.6956   20.8750 C   0  0  0  0  0  0
  -23.9133  -10.4312   21.0410 C   0  0  0  0  0  0
  -24.3670   -9.4208   21.9171 C   0  0  0  0  0  0
  -23.6335   -8.2247   22.0749 C   0  0  0  0  0  0
  -22.4309   -8.0305   21.3552 C   0  0  0  0  0  0
  -21.9960   -9.0280   20.4647 C   0  0  0  0  0  0
  -22.7302  -10.2153   20.3062 C   0  0  0  0  0  0
  -21.6868   -6.0753   22.5276 C   0  0  0  0  0  0
  -21.4025   -6.5643   23.8212 C   0  0  0  0  0  0
  -21.3664   -5.6797   24.9170 C   0  0  0  0  0  0
  -21.6052   -4.3063   24.7217 C   0  0  0  0  0  0
  -21.8819   -3.8160   23.4335 C   0  0  0  0  0  0
  -21.9201   -4.6979   22.3399 C   0  0  0  0  0  0
  -22.7746  -13.5171   21.1920 C   0  0  0  0  0  0
  -22.1665   -4.2164   21.0979 F   0  0  0  0  0  0
  -21.5632   -3.4542   25.7730 F   0  0  0  0  0  0
  -29.8026  -14.2203   20.2965 N   0  0  0  0  0  0
  -26.2770  -12.9601   20.3137 N   0  0  0  0  0  0
  -25.9365  -11.6675   20.5634 N   0  0  0  0  0  0
  -22.0425  -12.8152   22.0482 N   0  0  0  0  0  0
  -25.4001  -15.2035   20.4191 N   0  0  0  0  0  0
  -31.5299  -15.5342   20.1999 O   0  0  0  0  0  0
  -21.6665   -6.8906   21.4250 O   0  0  0  0  0  0
  -22.3399  -14.5460   20.6754 O   0  0  0  0  0  0
  -24.6826  -31.8024   23.1527 C   0  0  0  0  0  0
  -25.9408  -32.4481   23.8086 C   0  0  1  0  0  0
  -27.2252  -26.7098   20.2285 C   0  0  0  0  0  0
  -25.6002  -33.8309   24.1973 N   0  0  0  0  0  0
  -23.5090  -30.4019   21.5074 C   0  0  2  0  0  0
  -24.9651  -28.7412   20.1271 C   0  0  0  0  0  0
  -22.7780  -29.4303   22.4731 C   0  0  0  0  0  0
  -18.0335  -28.1406   22.8483 C   0  0  0  0  0  0
  -24.1488  -36.7150   23.2631 C   0  0  0  0  0  0
  -26.0888  -30.5374   21.4161 C   0  0  0  0  0  0
  -26.1547  -29.1013   20.7719 C   0  0  0  0  0  0
  -27.2731  -28.1147   20.7846 C   0  0  0  0  0  0
  -25.9968  -26.5514   19.5390 C   0  0  0  0  0  0
  -24.9231  -27.4910   19.4873 C   0  0  0  0  0  0
  -23.7637  -29.6977   20.1439 C   0  0  0  0  0  0
  -25.4131  -36.2908   24.0283 C   0  0  1  0  0  0
  -20.5976  -28.3771   23.1150 C   0  0  2  0  0  0
  -20.6812  -26.9439   22.5391 C   0  0  0  0  0  0
  -19.5765  -26.6363   21.5232 C   0  0  0  0  0  0
  -18.1960  -26.7925   22.1657 C   0  0  0  0  0  0
  -19.1604  -28.8919   23.2789 C   0  0  0  0  0  0
  -18.9506  -30.1506   23.8826 C   0  0  0  0  0  0
  -17.6494  -30.6606   24.0539 C   0  0  0  0  0  0
  -25.9129  -34.9299   23.4969 C   0  0  0  0  0  0
  -16.5385  -29.9085   23.6339 C   0  0  0  0  0  0
  -16.7312  -28.6493   23.0389 C   0  0  0  0  0  0
  -26.4587  -31.6508   25.0701 C   0  0  0  0  0  0
  -25.3663  -31.3847   26.1341 C   0  0  0  0  0  0
  -27.0492  -30.2840   24.6574 C   0  0  0  0  0  0
  -27.6070  -32.4342   25.7491 C   0  0  0  0  0  0
  -27.5606  -37.1674   24.8422 C   0  0  0  0  0  0
  -21.4427  -29.3026   22.3493 N   0  0  0  0  0  0
  -26.4236  -37.3701   23.9481 N   0  0  0  0  0  0
  -24.7834  -30.9469   22.0783 N   0  0  0  0  0  0
  -23.4224  -28.7895   23.3067 O   0  0  0  0  0  0
  -28.2223  -25.5233   20.2115 O   0  0  0  0  0  0
  -26.5776  -34.8875   22.4590 O   0  0  0  0  0  0
  -23.5841  -32.1092   23.6475 O   0  0  0  0  0  0
  -30.2973  -19.9230   22.6963 C   0  0  0  0  0  0
  -29.7700  -20.9520   21.9802 C   0  0  0  0  0  0
  -29.5657  -18.9615   20.8182 C   0  0  0  0  0  0
  -29.4430  -17.2636   20.1197 C   0  0  0  0  0  0
  -28.7111  -22.0305   19.9721 C   0  0  0  0  0  0
  -28.1464  -23.7981   20.5486 C   0  0  0  0  0  0
  -30.1704  -18.7499   21.9895 N   0  0  0  0  0  0
  -29.2551  -20.5321   20.7526 N   0  0  0  0  0  0
  -31.4324  -13.2932   19.2008 H   0  0  0  0  0  0
  -30.5713  -12.1845   20.2176 H   0  0  0  0  0  0
  -30.0021  -11.8061   17.7906 H   0  0  0  0  0  0
  -29.5383  -13.4823   17.6257 H   0  0  0  0  0  0
  -28.1296  -11.2987   19.1737 H   0  0  0  0  0  0
  -27.4636  -12.2702   17.8833 H   0  0  0  0  0  0
  -27.4650  -14.2327   19.2407 H   0  0  0  0  0  0
  -28.8415  -12.7335   21.5164 H   0  0  0  0  0  0
  -28.1724  -14.3446   21.6181 H   0  0  0  0  0  0
  -25.2818   -9.5671   22.4727 H   0  0  0  0  0  0
  -24.0049   -7.4634   22.7465 H   0  0  0  0  0  0
  -21.0889   -8.8814   19.8940 H   0  0  0  0  0  0
  -22.3772  -10.9696   19.6172 H   0  0  0  0  0  0
  -21.2011   -7.6144   23.9720 H   0  0  0  0  0  0
  -21.1487   -6.0521   25.9077 H   0  0  0  0  0  0
  -22.0596   -2.7624   23.2832 H   0  0  0  0  0  0
  -22.4089  -11.9837   22.4870 H   0  0  0  0  0  0
  -21.1037  -13.1139   22.2705 H   0  0  0  0  0  0
  -24.6343  -15.8601   20.5293 H   0  0  0  0  0  0
  -26.2461  -15.6381   20.0751 H   0  0  0  0  0  0
  -26.7497  -32.4956   23.0815 H   0  0  0  0  0  0
  -25.0083  -33.9361   25.0083 H   0  0  0  0  0  0
  -22.8318  -31.2371   21.3173 H   0  0  0  0  0  0
  -23.3849  -35.9370   23.3069 H   0  0  0  0  0  0
  -24.3605  -36.9047   22.2095 H   0  0  0  0  0  0
  -23.7096  -37.6195   23.6852 H   0  0  0  0  0  0
  -26.2886  -31.2597   20.6237 H   0  0  0  0  0  0
  -26.9413  -30.6093   22.0792 H   0  0  0  0  0  0
  -28.1766  -28.4008   21.3046 H   0  0  0  0  0  0
  -25.8366  -25.6058   19.0417 H   0  0  0  0  0  0
  -24.0243  -27.2054   18.9567 H   0  0  0  0  0  0
  -23.9434  -30.4559   19.3810 H   0  0  0  0  0  0
  -22.8695  -29.1648   19.8174 H   0  0  0  0  0  0
  -25.1305  -36.1653   25.0761 H   0  0  0  0  0  0
  -21.0044  -28.3378   24.1287 H   0  0  0  0  0  0
  -20.5720  -26.2392   23.3646 H   0  0  0  0  0  0
  -21.6659  -26.7410   22.1174 H   0  0  0  0  0  0
  -19.6920  -25.6259   21.1300 H   0  0  0  0  0  0
  -19.6671  -27.3146   20.6733 H   0  0  0  0  0  0
  -17.4210  -26.6650   21.4079 H   0  0  0  0  0  0
  -18.0368  -26.0093   22.9084 H   0  0  0  0  0  0
  -19.7977  -30.7346   24.2159 H   0  0  0  0  0  0
  -17.5038  -31.6279   24.5159 H   0  0  0  0  0  0
  -15.5382  -30.2965   23.7687 H   0  0  0  0  0  0
  -15.8712  -28.0767   22.7171 H   0  0  0  0  0  0
  -24.5714  -30.7396   25.7586 H   0  0  0  0  0  0
  -24.9030  -32.3103   26.4758 H   0  0  0  0  0  0
  -25.7791  -30.8904   27.0141 H   0  0  0  0  0  0
  -26.3193  -29.6477   24.1561 H   0  0  0  0  0  0
  -27.3929  -29.7264   25.5295 H   0  0  0  0  0  0
  -27.9183  -30.3974   24.0094 H   0  0  0  0  0  0
  -27.2648  -33.3693   26.1941 H   0  0  0  0  0  0
  -28.3937  -32.6828   25.0354 H   0  0  0  0  0  0
  -28.0700  -31.8563   26.5505 H   0  0  0  0  0  0
  -28.2394  -38.0186   24.7800 H   0  0  0  0  0  0
  -28.1325  -36.2754   24.5829 H   0  0  0  0  0  0
  -27.2390  -37.0799   25.8811 H   0  0  0  0  0  0
  -20.9742  -29.8696   21.6570 H   0  0  0  0  0  0
  -26.0051  -38.2694   24.1706 H   0  0  0  0  0  0
  -30.7683  -19.9450   23.6700 H   0  0  0  0  0  0
  -29.7401  -21.9933   22.2664 H   0  0  0  0  0  0
  -29.4712  -17.4210   19.0418 H   0  0  0  0  0  0
  -28.4026  -16.9975   20.3013 H   0  0  0  0  0  0
  -29.5636  -22.2682   19.3364 H   0  0  0  0  0  0
  -27.9596  -21.7139   19.2493 H   0  0  0  0  0  0
  -28.5722  -23.8283   21.5504 H   0  0  0  0  0  0
  -27.0848  -23.6589   20.7475 H   0  0  0  0  0  0
  1 25  1  0  0  0
  1 30  2  0  0  0
  1 74  1  0  0  0
  2  3  1  0  0  0
  2 25  1  0  0  0
  2 79  1  0  0  0
  2 80  1  0  0  0
  3  4  1  0  0  0
  3 81  1  0  0  0
  3 82  1  0  0  0
  4  5  1  0  0  0
  4 83  1  0  0  0
  4 84  1  0  0  0
  5  6  1  0  0  0
  5 26  1  0  0  0
  5 85  1  0  0  0
  6 25  1  0  0  0
  6 86  1  0  0  0
  6 87  1  0  0  0
  7  8  2  0  0  0
  7 26  1  0  0  0
  7 29  1  0  0  0
  8  9  1  0  0  0
  8 22  1  0  0  0
  9 10  1  0  0  0
  9 27  2  0  0  0
 10 11  2  0  0  0
 10 15  1  0  0  0
 11 12  1  0  0  0
 11 88  1  0  0  0
 12 13  2  0  0  0
 12 89  1  0  0  0
 13 14  1  0  0  0
 13 31  1  0  0  0
 14 15  2  0  0  0
 14 90  1  0  0  0
 15 91  1  0  0  0
 16 17  2  0  0  0
 16 21  1  0  0  0
 16 31  1  0  0  0
 17 18  1  0  0  0
 17 92  1  0  0  0
 18 19  2  0  0  0
 18 93  1  0  0  0
 19 20  1  0  0  0
 19 24  1  0  0  0
 20 21  2  0  0  0
 20 94  1  0  0  0
 21 23  1  0  0  0
 22 28  1  0  0  0
 22 32  2  0  0  0
 26 27  1  0  0  0
 28 95  1  0  0  0
 28 96  1  0  0  0
 29 97  1  0  0  0
 29 98  1  0  0  0
 33 34  1  0  0  0
 33 66  1  0  0  0
 33 70  2  0  0  0
 34 36  1  0  0  0
 34 59  1  0  0  0
 34 99  1  0  0  0
 35 44  2  0  0  0
 35 45  1  0  0  0
 35 68  1  0  0  0
 36 56  1  0  0  0
 36100  1  0  0  0
 37 39  1  0  0  0
 37 47  1  0  0  0
 37 66  1  0  0  0
 37101  1  0  0  0
 38 43  2  0  0  0
 38 46  1  0  0  0
 38 47  1  0  0  0
 39 64  1  0  0  0
 39 67  2  0  0  0
 40 52  1  0  0  0
 40 53  2  0  0  0
 40 58  1  0  0  0
 41102  1  0  0  0
 41103  1  0  0  0
 41104  1  0  0  0
 41 48  1  0  0  0
 42 43  1  0  0  0
 42 66  1  0  0  0
 42105  1  0  0  0
 42106  1  0  0  0
 43 44  1  0  0  0
 44107  1  0  0  0
 45 46  2  0  0  0
 45108  1  0  0  0
 46109  1  0  0  0
 47110  1  0  0  0
 47111  1  0  0  0
 48 56  1  0  0  0
 48 65  1  0  0  0
 48112  1  0  0  0
 49 50  1  0  0  0
 49 53  1  0  0  0
 49 64  1  0  0  0
 49113  1  0  0  0
 50 51  1  0  0  0
 50114  1  0  0  0
 50115  1  0  0  0
 51 52  1  0  0  0
 51116  1  0  0  0
 51117  1  0  0  0
 52118  1  0  0  0
 52119  1  0  0  0
 53 54  1  0  0  0
 54 55  2  0  0  0
 54120  1  0  0  0
 55 57  1  0  0  0
 55121  1  0  0  0
 56 69  2  0  0  0
 57 58  2  0  0  0
 57122  1  0  0  0
 58123  1  0  0  0
 59 60  1  0  0  0
 59 61  1  0  0  0
 59 62  1  0  0  0
 60124  1  0  0  0
 60125  1  0  0  0
 60126  1  0  0  0
 61127  1  0  0  0
 61128  1  0  0  0
 61129  1  0  0  0
 62130  1  0  0  0
 62131  1  0  0  0
 62132  1  0  0  0
 63 65  1  0  0  0
 63133  1  0  0  0
 63134  1  0  0  0
 63135  1  0  0  0
 64136  1  0  0  0
 65137  1  0  0  0
 68 76  1  0  0  0
 71 72  2  0  0  0
 71 77  1  0  0  0
 71138  1  0  0  0
 72 78  1  0  0  0
 72139  1  0  0  0
 73 74  1  0  0  0
 73 77  2  0  0  0
 73 78  1  0  0  0
 74140  1  0  0  0
 74141  1  0  0  0
 75 76  1  0  0  0
 75 78  1  0  0  0
 75142  1  0  0  0
 75143  1  0  0  0
 76144  1  0  0  0
 76145  1  0  0  0
M  ISO  4   1 100  68 101  74 100  76 101
M  END
> <chiral flag>
0

> <version>
0

> <s_m_source_file>
/data/baiqing/PycharmProjects/Reinvent-master-3.2/result/LINK_invent/BTK/process_docking_weight1_custom_sum_contain_oxygen_bond_distance_aromatic_linkinvent_7_9_3/rearranged_h_0041.sdf

> <i_m_source_file_index>
94

> <r_mmod_Potential_Energy-OPLS-2005>
2603.89184570312

> <r_mmod_Stretch_Energy-OPLS-2005>
1152.8486328125

> <r_mmod_Bend_Energy-OPLS-2005>
774.99609375

> <r_mmod_Torsional_Energy-OPLS-2005>
224.577911376953

> <r_mmod_Improper_Torsional_Energy-OPLS-2005>
8.37963962554932

> <r_mmod_Van_der_Waal_Energy-OPLS-2005>
106.234275817871

> <r_mmod_Electrostatic_Energy-OPLS-2005>
-285.895690917969

> <r_mmod_Solvation_Energy-OPLS-2005>
-229.308517456055

> <b_mmod_Minimization_Converged-OPLS-2005>
0

> <r_mmod_RMS_Derivative-OPLS-2005>
1.97906243801117

$$$$
94
                    3D
 Structure written by MMmdl.
154162  0  0  1  0            999 V2000
  -30.6252  -14.7736   20.3340 C   0  0  0  0  0  0
  -30.4339  -12.4602   19.4585 C   0  0  0  0  0  0
  -29.4970  -12.4141   18.2325 C   0  0  0  0  0  0
  -28.0309  -12.2622   18.6800 C   0  0  0  0  0  0
  -27.6264  -13.2255   19.8255 C   0  0  2  0  0  0
  -28.6805  -13.2526   20.9456 C   0  0  0  0  0  0
  -25.2485  -13.8189   20.5725 C   0  0  0  0  0  0
  -24.1773  -13.0471   20.9240 C   0  0  0  0  0  0
  -24.6343  -11.6927   20.8800 C   0  0  0  0  0  0
  -23.9026  -10.4306   21.0451 C   0  0  0  0  0  0
  -24.3580   -9.4207   21.9228 C   0  0  0  0  0  0
  -23.6262   -8.2237   22.0778 C   0  0  0  0  0  0
  -22.4262   -8.0270   21.3548 C   0  0  0  0  0  0
  -21.9899   -9.0241   20.4660 C   0  0  0  0  0  0
  -22.7206  -10.2131   20.3086 C   0  0  0  0  0  0
  -21.6841   -6.0721   22.5272 C   0  0  0  0  0  0
  -21.4005   -6.5631   23.8197 C   0  0  0  0  0  0
  -21.3645   -5.6793   24.9167 C   0  0  0  0  0  0
  -21.6036   -4.3054   24.7234 C   0  0  0  0  0  0
  -21.8822   -3.8137   23.4353 C   0  0  0  0  0  0
  -21.9192   -4.6948   22.3403 C   0  0  0  0  0  0
  -22.7777  -13.5244   21.1883 C   0  0  0  0  0  0
  -22.1656   -4.2130   21.0981 F   0  0  0  0  0  0
  -21.5635   -3.4542   25.7747 F   0  0  0  0  0  0
  -29.9795  -13.5595   20.3375 N   0  0  0  0  0  0
  -26.2871  -12.9382   20.3259 N   0  0  0  0  0  0
  -25.9258  -11.6547   20.5794 N   0  0  0  0  0  0
  -22.0398  -12.8253   22.0417 N   0  0  0  0  0  0
  -25.4241  -15.1919   20.4120 N   0  0  0  0  0  0
  -31.8498  -14.7891   20.1810 O   0  0  0  0  0  0
  -21.6631   -6.8870   21.4233 O   0  0  0  0  0  0
  -22.3478  -14.5561   20.6708 O   0  0  0  0  0  0
  -24.6198  -31.8606   23.2035 C   0  0  0  0  0  0
  -25.9040  -32.4813   23.8330 C   0  0  1  0  0  0
  -27.2071  -27.3194   20.1376 C   0  0  0  0  0  0
  -25.5860  -33.8615   24.2243 N   0  0  0  0  0  0
  -23.4114  -30.4830   21.5492 C   0  0  2  0  0  0
  -24.8516  -28.9356   20.1115 C   0  0  0  0  0  0
  -22.7424  -29.4595   22.4971 C   0  0  0  0  0  0
  -18.0250  -28.1341   22.8469 C   0  0  0  0  0  0
  -24.1458  -36.7343   23.2642 C   0  0  0  0  0  0
  -25.9426  -30.8057   21.3553 C   0  0  0  0  0  0
  -26.0188  -29.4253   20.7116 C   0  0  0  0  0  0
  -27.1933  -28.6236   20.7219 C   0  0  0  0  0  0
  -26.0186  -26.8690   19.5217 C   0  0  0  0  0  0
  -24.8521  -27.6604   19.5159 C   0  0  0  0  0  0
  -23.6205  -29.8195   20.1621 C   0  0  0  0  0  0
  -25.4091  -36.3107   24.0311 C   0  0  1  0  0  0
  -20.5850  -28.3617   23.1315 C   0  0  2  0  0  0
  -20.6762  -26.9356   22.5400 C   0  0  0  0  0  0
  -19.5742  -26.6373   21.5202 C   0  0  0  0  0  0
  -18.1900  -26.7898   22.1587 C   0  0  0  0  0  0
  -19.1506  -28.8793   23.2876 C   0  0  0  0  0  0
  -18.9456  -30.1413   23.8854 C   0  0  0  0  0  0
  -17.6452  -30.6555   24.0531 C   0  0  0  0  0  0
  -25.9037  -34.9480   23.5081 C   0  0  0  0  0  0
  -16.5331  -29.9049   23.6348 C   0  0  0  0  0  0
  -16.7241  -28.6476   23.0333 C   0  0  0  0  0  0
  -26.4423  -31.6649   25.0720 C   0  0  0  0  0  0
  -25.3675  -31.3822   26.1484 C   0  0  0  0  0  0
  -27.0261  -30.3089   24.6115 C   0  0  0  0  0  0
  -27.5956  -32.4417   25.7503 C   0  0  0  0  0  0
  -27.5555  -37.1802   24.8455 C   0  0  0  0  0  0
  -21.4138  -29.3008   22.3743 N   0  0  0  0  0  0
  -26.4259  -37.3806   23.9426 N   0  0  0  0  0  0
  -24.6784  -31.0634   22.0966 N   0  0  0  0  0  0
  -23.4168  -28.8128   23.3019 O   0  0  0  0  0  0
  -28.3428  -26.5095   20.2377 O   0  0  0  0  0  0
  -26.5633  -34.8950   22.4675 O   0  0  0  0  0  0
  -23.5382  -32.1367   23.7414 O   0  0  0  0  0  0
  -30.1097  -17.2834   20.9973 C   0  0  0  0  0  0
  -29.9076  -16.1544   20.2046 C   0  0  0  0  0  0
  -29.5870  -18.4313   20.2652 C   0  0  0  0  0  0
  -29.0808  -16.0429   17.7478 C   0  0  0  0  0  0
  -29.8013  -19.9821   20.4302 C   0  0  0  0  0  0
  -28.6051  -21.0448   20.3979 C   0  0  0  0  0  0
  -29.0456  -22.5825   20.2362 C   0  0  0  0  0  0
  -28.0084  -23.8055   20.2795 C   0  0  0  0  0  0
  -28.4803  -25.1818   19.6086 C   0  0  0  0  0  0
  -29.0770  -18.0012   19.1186 N   0  0  0  0  0  0
  -29.3204  -16.6614   19.0413 N   0  0  0  0  0  0
  -31.4641  -12.5893   19.1203 H   0  0  0  0  0  0
  -30.4149  -11.5172   20.0062 H   0  0  0  0  0  0
  -29.7700  -11.5675   17.5998 H   0  0  0  0  0  0
  -29.6140  -13.2957   17.6083 H   0  0  0  0  0  0
  -27.9274  -11.2368   19.0365 H   0  0  0  0  0  0
  -27.3491  -12.3488   17.8328 H   0  0  0  0  0  0
  -27.5837  -14.2198   19.3971 H   0  0  0  0  0  0
  -28.7191  -12.2941   21.4627 H   0  0  0  0  0  0
  -28.4206  -14.0080   21.6900 H   0  0  0  0  0  0
  -25.2695   -9.5687   22.4848 H   0  0  0  0  0  0
  -23.9948   -7.4632   22.7498 H   0  0  0  0  0  0
  -21.0842   -8.8755   19.8956 H   0  0  0  0  0  0
  -22.3647  -10.9689   19.6221 H   0  0  0  0  0  0
  -21.1991   -7.6140   23.9697 H   0  0  0  0  0  0
  -21.1462   -6.0526   25.9069 H   0  0  0  0  0  0
  -22.0619   -2.7604   23.2859 H   0  0  0  0  0  0
  -22.3932  -11.9869   22.4793 H   0  0  0  0  0  0
  -21.1019  -13.1327   22.2631 H   0  0  0  0  0  0
  -24.6694  -15.8592   20.5319 H   0  0  0  0  0  0
  -26.2885  -15.6264   20.1113 H   0  0  0  0  0  0
  -26.7126  -32.5492   23.1098 H   0  0  0  0  0  0
  -24.9987  -33.9773   25.0357 H   0  0  0  0  0  0
  -22.7045  -31.3034   21.4123 H   0  0  0  0  0  0
  -23.3710  -35.9688   23.3290 H   0  0  0  0  0  0
  -24.3558  -36.9002   22.2069 H   0  0  0  0  0  0
  -23.7210  -37.6526   23.6700 H   0  0  0  0  0  0
  -26.0348  -31.5620   20.5730 H   0  0  0  0  0  0
  -26.8390  -30.8865   21.9588 H   0  0  0  0  0  0
  -28.0840  -28.9914   21.2108 H   0  0  0  0  0  0
  -25.9618  -25.8789   19.0911 H   0  0  0  0  0  0
  -23.9438  -27.2706   19.0761 H   0  0  0  0  0  0
  -23.7436  -30.6024   19.4123 H   0  0  0  0  0  0
  -22.7350  -29.2582   19.8568 H   0  0  0  0  0  0
  -25.1249  -36.1963   25.0804 H   0  0  0  0  0  0
  -20.9907  -28.3179   24.1454 H   0  0  0  0  0  0
  -20.5718  -26.2191   23.3559 H   0  0  0  0  0  0
  -21.6633  -26.7444   22.1152 H   0  0  0  0  0  0
  -19.6935  -25.6305   21.1192 H   0  0  0  0  0  0
  -19.6713  -27.3211   20.6751 H   0  0  0  0  0  0
  -17.4189  -26.6635   21.3965 H   0  0  0  0  0  0
  -18.0264  -26.0018   22.8976 H   0  0  0  0  0  0
  -19.7951  -30.7210   24.2195 H   0  0  0  0  0  0
  -17.5037  -31.6261   24.5102 H   0  0  0  0  0  0
  -15.5331  -30.2907   23.7757 H   0  0  0  0  0  0
  -15.8639  -28.0809   22.7029 H   0  0  0  0  0  0
  -24.5901  -30.7056   25.7913 H   0  0  0  0  0  0
  -24.8788  -32.2994   26.4795 H   0  0  0  0  0  0
  -25.8041  -30.9182   27.0338 H   0  0  0  0  0  0
  -26.2802  -29.6866   24.1141 H   0  0  0  0  0  0
  -27.3970  -29.7327   25.4596 H   0  0  0  0  0  0
  -27.8646  -30.4408   23.9273 H   0  0  0  0  0  0
  -27.2540  -33.3798   26.1911 H   0  0  0  0  0  0
  -28.3846  -32.6847   25.0382 H   0  0  0  0  0  0
  -28.0485  -31.8652   26.5584 H   0  0  0  0  0  0
  -28.2524  -38.0132   24.7535 H   0  0  0  0  0  0
  -28.1065  -36.2656   24.6200 H   0  0  0  0  0  0
  -27.2291  -37.1374   25.8856 H   0  0  0  0  0  0
  -20.9283  -29.8788   21.7034 H   0  0  0  0  0  0
  -26.0129  -38.2855   24.1535 H   0  0  0  0  0  0
  -30.6697  -17.3026   21.9210 H   0  0  0  0  0  0
  -28.2496  -15.3486   17.7996 H   0  0  0  0  0  0
  -29.9803  -15.5290   17.4111 H   0  0  0  0  0  0
  -28.8219  -16.7905   16.9954 H   0  0  0  0  0  0
  -30.4469  -20.2821   19.6046 H   0  0  0  0  0  0
  -30.4100  -20.1725   21.3152 H   0  0  0  0  0  0
  -27.9991  -20.9201   21.2955 H   0  0  0  0  0  0
  -27.9499  -20.7896   19.5665 H   0  0  0  0  0  0
  -29.5866  -22.6554   19.2915 H   0  0  0  0  0  0
  -29.7958  -22.7938   20.9978 H   0  0  0  0  0  0
  -27.7132  -23.9912   21.3124 H   0  0  0  0  0  0
  -27.0870  -23.4972   19.7797 H   0  0  0  0  0  0
  -28.1165  -25.2328   18.5832 H   0  0  0  0  0  0
  -29.5585  -25.0913   19.4873 H   0  0  0  0  0  0
  1 25  1  0  0  0
  1 30  2  0  0  0
  1 72  1  0  0  0
  2  3  1  0  0  0
  2 25  1  0  0  0
  2 82  1  0  0  0
  2 83  1  0  0  0
  3  4  1  0  0  0
  3 84  1  0  0  0
  3 85  1  0  0  0
  4  5  1  0  0  0
  4 86  1  0  0  0
  4 87  1  0  0  0
  5  6  1  0  0  0
  5 26  1  0  0  0
  5 88  1  0  0  0
  6 25  1  0  0  0
  6 89  1  0  0  0
  6 90  1  0  0  0
  7  8  2  0  0  0
  7 26  1  0  0  0
  7 29  1  0  0  0
  8  9  1  0  0  0
  8 22  1  0  0  0
  9 10  1  0  0  0
  9 27  2  0  0  0
 10 11  2  0  0  0
 10 15  1  0  0  0
 11 12  1  0  0  0
 11 91  1  0  0  0
 12 13  2  0  0  0
 12 92  1  0  0  0
 13 14  1  0  0  0
 13 31  1  0  0  0
 14 15  2  0  0  0
 14 93  1  0  0  0
 15 94  1  0  0  0
 16 17  2  0  0  0
 16 21  1  0  0  0
 16 31  1  0  0  0
 17 18  1  0  0  0
 17 95  1  0  0  0
 18 19  2  0  0  0
 18 96  1  0  0  0
 19 20  1  0  0  0
 19 24  1  0  0  0
 20 21  2  0  0  0
 20 97  1  0  0  0
 21 23  1  0  0  0
 22 28  1  0  0  0
 22 32  2  0  0  0
 26 27  1  0  0  0
 28 98  1  0  0  0
 28 99  1  0  0  0
 29100  1  0  0  0
 29101  1  0  0  0
 33 34  1  0  0  0
 33 66  1  0  0  0
 33 70  2  0  0  0
 34 36  1  0  0  0
 34 59  1  0  0  0
 34102  1  0  0  0
 35 44  2  0  0  0
 35 45  1  0  0  0
 35 68  1  0  0  0
 36 56  1  0  0  0
 36103  1  0  0  0
 37 39  1  0  0  0
 37 47  1  0  0  0
 37 66  1  0  0  0
 37104  1  0  0  0
 38 43  2  0  0  0
 38 46  1  0  0  0
 38 47  1  0  0  0
 39 64  1  0  0  0
 39 67  2  0  0  0
 40 52  1  0  0  0
 40 53  2  0  0  0
 40 58  1  0  0  0
 41105  1  0  0  0
 41106  1  0  0  0
 41107  1  0  0  0
 41 48  1  0  0  0
 42 43  1  0  0  0
 42 66  1  0  0  0
 42108  1  0  0  0
 42109  1  0  0  0
 43 44  1  0  0  0
 44110  1  0  0  0
 45 46  2  0  0  0
 45111  1  0  0  0
 46112  1  0  0  0
 47113  1  0  0  0
 47114  1  0  0  0
 48 56  1  0  0  0
 48 65  1  0  0  0
 48115  1  0  0  0
 49 50  1  0  0  0
 49 53  1  0  0  0
 49 64  1  0  0  0
 49116  1  0  0  0
 50 51  1  0  0  0
 50117  1  0  0  0
 50118  1  0  0  0
 51 52  1  0  0  0
 51119  1  0  0  0
 51120  1  0  0  0
 52121  1  0  0  0
 52122  1  0  0  0
 53 54  1  0  0  0
 54 55  2  0  0  0
 54123  1  0  0  0
 55 57  1  0  0  0
 55124  1  0  0  0
 56 69  2  0  0  0
 57 58  2  0  0  0
 57125  1  0  0  0
 58126  1  0  0  0
 59 60  1  0  0  0
 59 61  1  0  0  0
 59 62  1  0  0  0
 60127  1  0  0  0
 60128  1  0  0  0
 60129  1  0  0  0
 61130  1  0  0  0
 61131  1  0  0  0
 61132  1  0  0  0
 62133  1  0  0  0
 62134  1  0  0  0
 62135  1  0  0  0
 63 65  1  0  0  0
 63136  1  0  0  0
 63137  1  0  0  0
 63138  1  0  0  0
 64139  1  0  0  0
 65140  1  0  0  0
 68 79  1  0  0  0
 71 72  2  0  0  0
 71 73  1  0  0  0
 71141  1  0  0  0
 72 81  1  0  0  0
 73 75  1  0  0  0
 73 80  2  0  0  0
 74 81  1  0  0  0
 74142  1  0  0  0
 74143  1  0  0  0
 74144  1  0  0  0
 75 76  1  0  0  0
 75145  1  0  0  0
 75146  1  0  0  0
 76 77  1  0  0  0
 76147  1  0  0  0
 76148  1  0  0  0
 77 78  1  0  0  0
 77149  1  0  0  0
 77150  1  0  0  0
 78 79  1  0  0  0
 78151  1  0  0  0
 78152  1  0  0  0
 79153  1  0  0  0
 79154  1  0  0  0
 80 81  1  0  0  0
M  ISO  4   1 100  68 101  72 100  79 101
M  END
> <chiral flag>
0

> <version>
0

> <s_m_source_file>
/data/baiqing/PycharmProjects/Reinvent-master-3.2/result/LINK_invent/BTK/process_docking_weight1_custom_sum_contain_oxygen_bond_distance_aromatic_linkinvent_7_9_3/rearranged_h_0041.sdf

> <i_m_source_file_index>
95

> <r_mmod_Potential_Energy-OPLS-2005>
245.29899597168

> <r_mmod_Stretch_Energy-OPLS-2005>
92.1897048950195

> <r_mmod_Bend_Energy-OPLS-2005>
177.685729980469

> <r_mmod_Torsional_Energy-OPLS-2005>
239.597015380859

> <r_mmod_Improper_Torsional_Energy-OPLS-2005>
12.597804069519

> <r_mmod_Van_der_Waal_Energy-OPLS-2005>
108.153709411621

> <r_mmod_Electrostatic_Energy-OPLS-2005>
-278.825408935547

> <r_mmod_Solvation_Energy-OPLS-2005>
-198.274505615234

> <b_mmod_Minimization_Converged-OPLS-2005>
0

> <r_mmod_RMS_Derivative-OPLS-2005>
5.11518669128418

$$$$
