0
                    3D
 Structure written by MMmdl.
150158  0  0  1  0            999 V2000
  -30.5263  -14.9709   20.4128 C   0  0  0  0  0  0
  -30.4399  -12.5970   19.5135 C   0  0  0  0  0  0
  -29.5274  -12.5389   18.2655 C   0  0  0  0  0  0
  -28.0563  -12.3269   18.6702 C   0  0  0  0  0  0
  -27.6305  -13.2525   19.8406 C   0  0  2  0  0  0
  -28.6708  -13.2817   20.9830 C   0  0  0  0  0  0
  -25.2448  -13.8231   20.5691 C   0  0  0  0  0  0
  -24.1771  -13.0449   20.9221 C   0  0  0  0  0  0
  -24.6391  -11.6936   20.8740 C   0  0  0  0  0  0
  -23.9069  -10.4294   21.0377 C   0  0  0  0  0  0
  -24.3618   -9.4210   21.9157 C   0  0  0  0  0  0
  -23.6296   -8.2244   22.0740 C   0  0  0  0  0  0
  -22.4278   -8.0263   21.3533 C   0  0  0  0  0  0
  -21.9905   -9.0235   20.4631 C   0  0  0  0  0  0
  -22.7232  -10.2124   20.3030 C   0  0  0  0  0  0
  -21.6859   -6.0717   22.5270 C   0  0  0  0  0  0
  -21.4023   -6.5632   23.8201 C   0  0  0  0  0  0
  -21.3670   -5.6792   24.9172 C   0  0  0  0  0  0
  -21.6044   -4.3054   24.7228 C   0  0  0  0  0  0
  -21.8820   -3.8134   23.4355 C   0  0  0  0  0  0
  -21.9197   -4.6941   22.3402 C   0  0  0  0  0  0
  -22.7784  -13.5202   21.1870 C   0  0  0  0  0  0
  -22.1661   -4.2123   21.0978 F   0  0  0  0  0  0
  -21.5629   -3.4540   25.7743 F   0  0  0  0  0  0
  -29.9511  -13.6979   20.3962 N   0  0  0  0  0  0
  -26.2881  -12.9470   20.3235 N   0  0  0  0  0  0
  -25.9327  -11.6599   20.5728 N   0  0  0  0  0  0
  -22.0446  -12.8195   22.0446 N   0  0  0  0  0  0
  -25.4109  -15.1954   20.4075 N   0  0  0  0  0  0
  -31.7137  -15.0490   20.0790 O   0  0  0  0  0  0
  -21.6651   -6.8851   21.4226 O   0  0  0  0  0  0
  -22.3448  -14.5489   20.6688 O   0  0  0  0  0  0
  -24.6428  -31.8414   23.1852 C   0  0  0  0  0  0
  -25.9188  -32.4689   23.8247 C   0  0  1  0  0  0
  -27.2160  -27.1140   20.1562 C   0  0  0  0  0  0
  -25.5935  -33.8497   24.2171 N   0  0  0  0  0  0
  -23.4491  -30.4572   21.5307 C   0  0  2  0  0  0
  -24.9002  -28.8821   20.1070 C   0  0  0  0  0  0
  -22.7576  -29.4503   22.4844 C   0  0  0  0  0  0
  -18.0303  -28.1395   22.8505 C   0  0  0  0  0  0
  -24.1490  -36.7253   23.2646 C   0  0  0  0  0  0
  -26.0050  -30.7087   21.3861 C   0  0  0  0  0  0
  -26.0766  -29.3160   20.7319 C   0  0  0  0  0  0
  -27.2323  -28.4459   20.7432 C   0  0  0  0  0  0
  -26.0180  -26.7910   19.4801 C   0  0  0  0  0  0
  -24.8859  -27.6347   19.4655 C   0  0  0  0  0  0
  -23.6772  -29.7851   20.1502 C   0  0  0  0  0  0
  -25.4121  -36.3029   24.0321 C   0  0  1  0  0  0
  -20.5915  -28.3700   23.1262 C   0  0  2  0  0  0
  -20.6784  -26.9404   22.5420 C   0  0  0  0  0  0
  -19.5755  -26.6378   21.5230 C   0  0  0  0  0  0
  -18.1933  -26.7940   22.1639 C   0  0  0  0  0  0
  -19.1562  -28.8868   23.2875 C   0  0  0  0  0  0
  -18.9478  -30.1471   23.8887 C   0  0  0  0  0  0
  -17.6471  -30.6597   24.0561 C   0  0  0  0  0  0
  -25.9071  -34.9408   23.5054 C   0  0  0  0  0  0
  -16.5362  -29.9090   23.6334 C   0  0  0  0  0  0
  -16.7284  -28.6503   23.0371 C   0  0  0  0  0  0
  -26.4509  -31.6564   25.0697 C   0  0  0  0  0  0
  -25.3694  -31.3778   26.1400 C   0  0  0  0  0  0
  -27.0352  -30.2959   24.6262 C   0  0  0  0  0  0
  -27.6038  -32.4332   25.7479 C   0  0  0  0  0  0
  -27.5572  -37.1779   24.8470 C   0  0  0  0  0  0
  -21.4256  -29.3028   22.3630 N   0  0  0  0  0  0
  -26.4282  -37.3743   23.9416 N   0  0  0  0  0  0
  -24.7192  -31.0245   22.0896 N   0  0  0  0  0  0
  -23.4227  -28.8041   23.2984 O   0  0  0  0  0  0
  -28.2614  -26.1177   20.2523 O   0  0  0  0  0  0
  -26.5661  -34.8907   22.4636 O   0  0  0  0  0  0
  -23.5538  -32.1280   23.7060 O   0  0  0  0  0  0
  -30.1635  -18.7161   22.4073 C   0  0  0  0  0  0
  -29.6220  -20.7780   22.3921 C   0  0  0  0  0  0
  -29.7223  -18.9507   21.1226 C   0  0  0  0  0  0
  -29.8019  -17.6646   20.1246 C   0  0  0  0  0  0
  -28.9034  -23.2645   20.6052 C   0  0  0  0  0  0
  -28.7822  -21.5981   20.2040 C   0  0  0  0  0  0
  -28.0469  -24.5883   19.9733 C   0  0  0  0  0  0
  -30.0956  -19.8447   23.1992 N   0  0  0  0  0  0
  -29.3669  -20.4340   21.1148 N   0  0  0  0  0  0
  -29.7292  -16.1399   20.5959 N   0  0  0  0  0  0
  -31.4753  -12.7499   19.2069 H   0  0  0  0  0  0
  -30.4295  -11.6460   20.0496 H   0  0  0  0  0  0
  -29.8525  -11.7429   17.5940 H   0  0  0  0  0  0
  -29.6202  -13.4700   17.7050 H   0  0  0  0  0  0
  -27.9421  -11.2833   18.9643 H   0  0  0  0  0  0
  -27.4022  -12.4735   17.8088 H   0  0  0  0  0  0
  -27.5928  -14.2555   19.4146 H   0  0  0  0  0  0
  -28.7591  -12.3068   21.4643 H   0  0  0  0  0  0
  -28.3637  -13.9820   21.7610 H   0  0  0  0  0  0
  -25.2758   -9.5704   22.4737 H   0  0  0  0  0  0
  -24.0007   -7.4646   22.7473 H   0  0  0  0  0  0
  -21.0832   -8.8740   19.8949 H   0  0  0  0  0  0
  -22.3660  -10.9647   19.6142 H   0  0  0  0  0  0
  -21.2018   -7.6142   23.9696 H   0  0  0  0  0  0
  -21.1494   -6.0528   25.9075 H   0  0  0  0  0  0
  -22.0590   -2.7587   23.2868 H   0  0  0  0  0  0
  -22.4107  -11.9897   22.4877 H   0  0  0  0  0  0
  -21.1035  -13.1153   22.2598 H   0  0  0  0  0  0
  -24.6375  -15.8448   20.4964 H   0  0  0  0  0  0
  -26.2471  -15.6287   20.0391 H   0  0  0  0  0  0
  -26.7242  -32.5296   23.0960 H   0  0  0  0  0  0
  -25.0061  -33.9616   25.0302 H   0  0  0  0  0  0
  -22.7519  -31.2818   21.3732 H   0  0  0  0  0  0
  -23.3758  -35.9579   23.3300 H   0  0  0  0  0  0
  -24.3562  -36.8891   22.2059 H   0  0  0  0  0  0
  -23.7240  -37.6447   23.6686 H   0  0  0  0  0  0
  -26.1528  -31.4600   20.6092 H   0  0  0  0  0  0
  -26.8793  -30.7677   22.0224 H   0  0  0  0  0  0
  -28.1218  -28.7679   21.2657 H   0  0  0  0  0  0
  -25.9235  -25.8405   18.9767 H   0  0  0  0  0  0
  -23.9883  -27.3038   18.9616 H   0  0  0  0  0  0
  -23.8126  -30.5589   19.3935 H   0  0  0  0  0  0
  -22.7953  -29.2225   19.8388 H   0  0  0  0  0  0
  -25.1302  -36.1844   25.0813 H   0  0  0  0  0  0
  -21.0000  -28.3270   24.1385 H   0  0  0  0  0  0
  -20.5680  -26.2292   23.3623 H   0  0  0  0  0  0
  -21.6642  -26.7403   22.1202 H   0  0  0  0  0  0
  -19.6906  -25.6283   21.1262 H   0  0  0  0  0  0
  -19.6707  -27.3192   20.6768 H   0  0  0  0  0  0
  -17.4201  -26.6706   21.4040 H   0  0  0  0  0  0
  -18.0317  -26.0081   22.9032 H   0  0  0  0  0  0
  -19.7948  -30.7306   24.2242 H   0  0  0  0  0  0
  -17.5018  -31.6276   24.5165 H   0  0  0  0  0  0
  -15.5360  -30.2989   23.7666 H   0  0  0  0  0  0
  -15.8682  -28.0813   22.7100 H   0  0  0  0  0  0
  -24.5889  -30.7096   25.7741 H   0  0  0  0  0  0
  -24.8865  -32.2978   26.4719 H   0  0  0  0  0  0
  -25.7981  -30.9037   27.0240 H   0  0  0  0  0  0
  -26.2943  -29.6712   24.1260 H   0  0  0  0  0  0
  -27.3965  -29.7230   25.4808 H   0  0  0  0  0  0
  -27.8859  -30.4203   23.9554 H   0  0  0  0  0  0
  -27.2635  -33.3682   26.1944 H   0  0  0  0  0  0
  -28.3907  -32.6810   25.0343 H   0  0  0  0  0  0
  -28.0633  -31.8524   26.5488 H   0  0  0  0  0  0
  -28.2575  -38.0084   24.7493 H   0  0  0  0  0  0
  -28.1071  -36.2606   24.6310 H   0  0  0  0  0  0
  -27.2286  -37.1442   25.8872 H   0  0  0  0  0  0
  -20.9454  -29.8755   21.6828 H   0  0  0  0  0  0
  -26.0145  -38.2807   24.1433 H   0  0  0  0  0  0
  -30.5402  -17.7895   22.8202 H   0  0  0  0  0  0
  -29.4605  -21.7698   22.7817 H   0  0  0  0  0  0
  -30.7320  -17.7537   19.5631 H   0  0  0  0  0  0
  -29.0235  -17.7861   19.3721 H   0  0  0  0  0  0
  -29.9597  -23.5140   20.5011 H   0  0  0  0  0  0
  -28.7068  -23.3529   21.6705 H   0  0  0  0  0  0
  -29.1903  -21.4586   19.2035 H   0  0  0  0  0  0
  -27.7173  -21.3819   20.1072 H   0  0  0  0  0  0
  -27.0090  -24.3795   20.2317 H   0  0  0  0  0  0
  -28.0880  -24.4903   18.8881 H   0  0  0  0  0  0
  -28.8040  -15.8952   20.9162 H   0  0  0  0  0  0
  1 25  1  0  0  0
  1 30  2  0  0  0
  1 80  1  0  0  0
  2  3  1  0  0  0
  2 25  1  0  0  0
  2 81  1  0  0  0
  2 82  1  0  0  0
  3  4  1  0  0  0
  3 83  1  0  0  0
  3 84  1  0  0  0
  4  5  1  0  0  0
  4 85  1  0  0  0
  4 86  1  0  0  0
  5  6  1  0  0  0
  5 26  1  0  0  0
  5 87  1  0  0  0
  6 25  1  0  0  0
  6 88  1  0  0  0
  6 89  1  0  0  0
  7  8  2  0  0  0
  7 26  1  0  0  0
  7 29  1  0  0  0
  8  9  1  0  0  0
  8 22  1  0  0  0
  9 10  1  0  0  0
  9 27  2  0  0  0
 10 11  2  0  0  0
 10 15  1  0  0  0
 11 12  1  0  0  0
 11 90  1  0  0  0
 12 13  2  0  0  0
 12 91  1  0  0  0
 13 14  1  0  0  0
 13 31  1  0  0  0
 14 15  2  0  0  0
 14 92  1  0  0  0
 15 93  1  0  0  0
 16 17  2  0  0  0
 16 21  1  0  0  0
 16 31  1  0  0  0
 17 18  1  0  0  0
 17 94  1  0  0  0
 18 19  2  0  0  0
 18 95  1  0  0  0
 19 20  1  0  0  0
 19 24  1  0  0  0
 20 21  2  0  0  0
 20 96  1  0  0  0
 21 23  1  0  0  0
 22 28  1  0  0  0
 22 32  2  0  0  0
 26 27  1  0  0  0
 28 97  1  0  0  0
 28 98  1  0  0  0
 29 99  1  0  0  0
 29100  1  0  0  0
 33 34  1  0  0  0
 33 66  1  0  0  0
 33 70  2  0  0  0
 34 36  1  0  0  0
 34 59  1  0  0  0
 34101  1  0  0  0
 35 44  2  0  0  0
 35 45  1  0  0  0
 35 68  1  0  0  0
 36 56  1  0  0  0
 36102  1  0  0  0
 37 39  1  0  0  0
 37 47  1  0  0  0
 37 66  1  0  0  0
 37103  1  0  0  0
 38 43  2  0  0  0
 38 46  1  0  0  0
 38 47  1  0  0  0
 39 64  1  0  0  0
 39 67  2  0  0  0
 40 52  1  0  0  0
 40 53  2  0  0  0
 40 58  1  0  0  0
 41104  1  0  0  0
 41105  1  0  0  0
 41106  1  0  0  0
 41 48  1  0  0  0
 42 43  1  0  0  0
 42 66  1  0  0  0
 42107  1  0  0  0
 42108  1  0  0  0
 43 44  1  0  0  0
 44109  1  0  0  0
 45 46  2  0  0  0
 45110  1  0  0  0
 46111  1  0  0  0
 47112  1  0  0  0
 47113  1  0  0  0
 48 56  1  0  0  0
 48 65  1  0  0  0
 48114  1  0  0  0
 49 50  1  0  0  0
 49 53  1  0  0  0
 49 64  1  0  0  0
 49115  1  0  0  0
 50 51  1  0  0  0
 50116  1  0  0  0
 50117  1  0  0  0
 51 52  1  0  0  0
 51118  1  0  0  0
 51119  1  0  0  0
 52120  1  0  0  0
 52121  1  0  0  0
 53 54  1  0  0  0
 54 55  2  0  0  0
 54122  1  0  0  0
 55 57  1  0  0  0
 55123  1  0  0  0
 56 69  2  0  0  0
 57 58  2  0  0  0
 57124  1  0  0  0
 58125  1  0  0  0
 59 60  1  0  0  0
 59 61  1  0  0  0
 59 62  1  0  0  0
 60126  1  0  0  0
 60127  1  0  0  0
 60128  1  0  0  0
 61129  1  0  0  0
 61130  1  0  0  0
 61131  1  0  0  0
 62132  1  0  0  0
 62133  1  0  0  0
 62134  1  0  0  0
 63 65  1  0  0  0
 63135  1  0  0  0
 63136  1  0  0  0
 63137  1  0  0  0
 64138  1  0  0  0
 65139  1  0  0  0
 68 77  1  0  0  0
 71 73  2  0  0  0
 71 78  1  0  0  0
 71140  1  0  0  0
 72 78  2  0  0  0
 72 79  1  0  0  0
 72141  1  0  0  0
 73 74  1  0  0  0
 73 79  1  0  0  0
 74 80  1  0  0  0
 74142  1  0  0  0
 74143  1  0  0  0
 75 76  1  0  0  0
 75 77  1  0  0  0
 75144  1  0  0  0
 75145  1  0  0  0
 76 79  1  0  0  0
 76146  1  0  0  0
 76147  1  0  0  0
 77148  1  0  0  0
 77149  1  0  0  0
 80150  1  0  0  0
M  ISO  4   1 100  68 101  77 101  80 100
M  END
> <chiral flag>
0

> <version>
0

> <s_m_source_file>
/data/baiqing/PycharmProjects/Reinvent-master-3.2/result/LINK_invent/BTK/process_docking_weight1_custom_sum_contain_oxygen_bond_distance_aromatic_linkinvent_7_9_3/rearranged_h_0146.sdf

> <i_m_source_file_index>
1

> <r_mmod_Potential_Energy-OPLS-2005>
575.623291015625

> <r_mmod_Stretch_Energy-OPLS-2005>
311.459136962891

> <r_mmod_Bend_Energy-OPLS-2005>
318.19189453125

> <r_mmod_Torsional_Energy-OPLS-2005>
215.807434082031

> <r_mmod_Improper_Torsional_Energy-OPLS-2005>
5.79646110534668

> <r_mmod_Van_der_Waal_Energy-OPLS-2005>
113.712379455566

> <r_mmod_Electrostatic_Energy-OPLS-2005>
-362.791381835938

> <r_mmod_Solvation_Energy-OPLS-2005>
-237.714324951172

> <b_mmod_Minimization_Converged-OPLS-2005>
0

> <r_mmod_RMS_Derivative-OPLS-2005>
2.18068194389343

$$$$
1
                    3D
 Structure written by MMmdl.
171180  0  0  1  0            999 V2000
  -30.7436  -14.4148   20.6529 C   0  0  0  0  0  0
  -30.4168  -12.3073   19.4064 C   0  0  0  0  0  0
  -29.4872  -12.5243   18.1975 C   0  0  0  0  0  0
  -28.0103  -12.3807   18.6106 C   0  0  0  0  0  0
  -27.6622  -13.2071   19.8769 C   0  0  2  0  0  0
  -28.7010  -12.9679   20.9944 C   0  0  0  0  0  0
  -25.2577  -13.8136   20.5647 C   0  0  0  0  0  0
  -24.1831  -13.0421   20.9165 C   0  0  0  0  0  0
  -24.6390  -11.6896   20.8729 C   0  0  0  0  0  0
  -23.9055  -10.4285   21.0406 C   0  0  0  0  0  0
  -24.3608   -9.4202   21.9183 C   0  0  0  0  0  0
  -23.6286   -8.2236   22.0751 C   0  0  0  0  0  0
  -22.4269   -8.0278   21.3543 C   0  0  0  0  0  0
  -21.9902   -9.0250   20.4643 C   0  0  0  0  0  0
  -22.7230  -10.2131   20.3055 C   0  0  0  0  0  0
  -21.6849   -6.0732   22.5277 C   0  0  0  0  0  0
  -21.4010   -6.5640   23.8208 C   0  0  0  0  0  0
  -21.3657   -5.6796   24.9172 C   0  0  0  0  0  0
  -21.6045   -4.3057   24.7223 C   0  0  0  0  0  0
  -21.8823   -3.8146   23.4346 C   0  0  0  0  0  0
  -21.9192   -4.6959   22.3402 C   0  0  0  0  0  0
  -22.7860  -13.5228   21.1841 C   0  0  0  0  0  0
  -22.1661   -4.2149   21.0980 F   0  0  0  0  0  0
  -21.5633   -3.4538   25.7733 F   0  0  0  0  0  0
  -30.0372  -13.2710   20.4510 N   0  0  0  0  0  0
  -26.3025  -12.9317   20.3367 N   0  0  0  0  0  0
  -25.9320  -11.6475   20.5759 N   0  0  0  0  0  0
  -22.0507  -12.8216   22.0400 N   0  0  0  0  0  0
  -25.4288  -15.1828   20.4001 N   0  0  0  0  0  0
  -31.8075  -14.6621   20.0797 O   0  0  0  0  0  0
  -21.6635   -6.8874   21.4237 O   0  0  0  0  0  0
  -22.3545  -14.5540   20.6702 O   0  0  0  0  0  0
  -24.6154  -31.8672   23.2119 C   0  0  0  0  0  0
  -25.9058  -32.4812   23.8400 C   0  0  1  0  0  0
  -27.2326  -27.4375   20.0684 C   0  0  0  0  0  0
  -25.5914  -33.8612   24.2319 N   0  0  0  0  0  0
  -23.4015  -30.4936   21.5531 C   0  0  2  0  0  0
  -24.8433  -28.9586   20.1179 C   0  0  0  0  0  0
  -22.7406  -29.4662   22.4993 C   0  0  0  0  0  0
  -18.0272  -28.1388   22.8485 C   0  0  0  0  0  0
  -24.1479  -36.7305   23.2640 C   0  0  0  0  0  0
  -25.9327  -30.8279   21.3679 C   0  0  0  0  0  0
  -26.0056  -29.4636   20.7130 C   0  0  0  0  0  0
  -27.1992  -28.7058   20.6938 C   0  0  0  0  0  0
  -26.0366  -26.9300   19.5083 C   0  0  0  0  0  0
  -24.8512  -27.6870   19.5219 C   0  0  0  0  0  0
  -23.6093  -29.8297   20.1669 C   0  0  0  0  0  0
  -25.4106  -36.3097   24.0329 C   0  0  1  0  0  0
  -20.5861  -28.3668   23.1327 C   0  0  2  0  0  0
  -20.6755  -26.9396   22.5450 C   0  0  0  0  0  0
  -19.5758  -26.6386   21.5217 C   0  0  0  0  0  0
  -18.1913  -26.7954   22.1578 C   0  0  0  0  0  0
  -19.1522  -28.8840   23.2905 C   0  0  0  0  0  0
  -18.9451  -30.1444   23.8923 C   0  0  0  0  0  0
  -17.6454  -30.6590   24.0580 C   0  0  0  0  0  0
  -25.9036  -34.9466   23.5118 C   0  0  0  0  0  0
  -16.5344  -29.9100   23.6328 C   0  0  0  0  0  0
  -16.7264  -28.6518   23.0343 C   0  0  0  0  0  0
  -26.4474  -31.6606   25.0740 C   0  0  0  0  0  0
  -25.3729  -31.3744   26.1487 C   0  0  0  0  0  0
  -27.0299  -30.3031   24.6160 C   0  0  0  0  0  0
  -27.6058  -32.4326   25.7492 C   0  0  0  0  0  0
  -27.5584  -37.1798   24.8452 C   0  0  0  0  0  0
  -21.4133  -29.3027   22.3723 N   0  0  0  0  0  0
  -26.4282  -37.3790   23.9417 N   0  0  0  0  0  0
  -24.6685  -31.0773   22.1025 N   0  0  0  0  0  0
  -23.4179  -28.8198   23.3031 O   0  0  0  0  0  0
  -28.4166  -26.7258   20.0590 O   0  0  0  0  0  0
  -26.5595  -34.8922   22.4678 O   0  0  0  0  0  0
  -23.5351  -32.1426   23.7517 O   0  0  0  0  0  0
  -29.8017  -21.7068   19.8682 C   0  0  0  0  0  0
  -30.0651  -20.3674   20.2032 C   0  0  0  0  0  0
  -27.6590  -21.5786   21.0163 C   0  0  0  0  0  0
  -27.9363  -20.2267   21.3926 C   0  0  0  0  0  0
  -28.5965  -22.3317   20.2628 C   0  0  0  0  0  0
  -29.1497  -19.6103   20.9716 C   0  0  0  0  0  0
  -27.7887  -19.8418   24.6962 C   0  0  0  0  0  0
  -26.6842  -18.8177   24.7982 C   0  0  0  0  0  0
  -27.5214  -18.9046   23.5415 C   0  0  0  0  0  0
  -26.3442  -22.2470   21.4152 C   0  0  0  0  0  0
  -26.2553  -18.3094   21.4266 C   0  0  0  0  0  0
  -30.8774  -16.4877   22.0392 C   0  0  0  0  0  0
  -30.6963  -17.7430   21.1574 C   0  0  0  0  0  0
  -28.6955  -25.8536   18.9520 C   0  0  0  0  0  0
  -29.2807  -24.4945   19.3891 C   0  0  0  0  0  0
  -26.9254  -19.4258   22.2378 C   0  0  2  0  0  0
  -30.2158  -15.2809   21.5291 N   0  0  0  0  0  0
  -28.2740  -23.6395   19.9331 O   0  0  0  0  0  0
  -29.3847  -18.2871   21.3124 O   0  0  0  0  0  0
  -31.4609  -12.4083   19.1029 H   0  0  0  0  0  0
  -30.3177  -11.2896   19.7873 H   0  0  0  0  0  0
  -29.7254  -11.8137   17.4050 H   0  0  0  0  0  0
  -29.6557  -13.5177   17.7788 H   0  0  0  0  0  0
  -27.8153  -11.3230   18.7916 H   0  0  0  0  0  0
  -27.3593  -12.6704   17.7845 H   0  0  0  0  0  0
  -27.7135  -14.2596   19.5963 H   0  0  0  0  0  0
  -28.6718  -11.9273   21.3205 H   0  0  0  0  0  0
  -28.4491  -13.5520   21.8793 H   0  0  0  0  0  0
  -25.2753   -9.5682   22.4760 H   0  0  0  0  0  0
  -23.9996   -7.4630   22.7470 H   0  0  0  0  0  0
  -21.0835   -8.8771   19.8948 H   0  0  0  0  0  0
  -22.3687  -10.9673   19.6167 H   0  0  0  0  0  0
  -21.2000   -7.6151   23.9710 H   0  0  0  0  0  0
  -21.1477   -6.0526   25.9077 H   0  0  0  0  0  0
  -22.0606   -2.7610   23.2845 H   0  0  0  0  0  0
  -22.4121  -11.9863   22.4760 H   0  0  0  0  0  0
  -21.1132  -13.1245   22.2620 H   0  0  0  0  0  0
  -24.6670  -15.8422   20.5126 H   0  0  0  0  0  0
  -26.2916  -15.6200   20.1038 H   0  0  0  0  0  0
  -26.7131  -32.5512   23.1160 H   0  0  0  0  0  0
  -25.0092  -33.9774   25.0482 H   0  0  0  0  0  0
  -22.6909  -31.3118   21.4173 H   0  0  0  0  0  0
  -23.3756  -35.9621   23.3267 H   0  0  0  0  0  0
  -24.3575  -36.8973   22.2067 H   0  0  0  0  0  0
  -23.7209  -37.6479   23.6702 H   0  0  0  0  0  0
  -26.0523  -31.5951   20.6016 H   0  0  0  0  0  0
  -26.8181  -30.8743   21.9907 H   0  0  0  0  0  0
  -28.0988  -29.0933   21.1512 H   0  0  0  0  0  0
  -25.9868  -25.9411   19.0774 H   0  0  0  0  0  0
  -23.9502  -27.2803   19.0826 H   0  0  0  0  0  0
  -23.7279  -30.6072   19.4115 H   0  0  0  0  0  0
  -22.7300  -29.2577   19.8647 H   0  0  0  0  0  0
  -25.1281  -36.1945   25.0822 H   0  0  0  0  0  0
  -20.9957  -28.3252   24.1450 H   0  0  0  0  0  0
  -20.5623  -26.2280   23.3644 H   0  0  0  0  0  0
  -21.6639  -26.7425   22.1280 H   0  0  0  0  0  0
  -19.6920  -25.6301   21.1243 H   0  0  0  0  0  0
  -19.6733  -27.3198   20.6752 H   0  0  0  0  0  0
  -17.4225  -26.6778   21.3927 H   0  0  0  0  0  0
  -18.0236  -26.0061   22.8920 H   0  0  0  0  0  0
  -19.7930  -30.7253   24.2303 H   0  0  0  0  0  0
  -17.5016  -31.6265   24.5196 H   0  0  0  0  0  0
  -15.5348  -30.3015   23.7636 H   0  0  0  0  0  0
  -15.8662  -28.0850   22.7038 H   0  0  0  0  0  0
  -24.6065  -30.6856   25.7916 H   0  0  0  0  0  0
  -24.8712  -32.2882   26.4685 H   0  0  0  0  0  0
  -25.8116  -30.9216   27.0390 H   0  0  0  0  0  0
  -26.2857  -29.6793   24.1202 H   0  0  0  0  0  0
  -27.4020  -29.7273   25.4646 H   0  0  0  0  0  0
  -27.8715  -30.4314   23.9346 H   0  0  0  0  0  0
  -27.2694  -33.3634   26.2071 H   0  0  0  0  0  0
  -28.3864  -32.6870   25.0305 H   0  0  0  0  0  0
  -28.0740  -31.8452   26.5400 H   0  0  0  0  0  0
  -28.2611  -38.0086   24.7488 H   0  0  0  0  0  0
  -28.1064  -36.2622   24.6269 H   0  0  0  0  0  0
  -27.2320  -37.1448   25.8859 H   0  0  0  0  0  0
  -20.9291  -29.8759   21.6954 H   0  0  0  0  0  0
  -26.0163  -38.2858   24.1457 H   0  0  0  0  0  0
  -30.5467  -22.2239   19.2831 H   0  0  0  0  0  0
  -30.9887  -19.9382   19.8436 H   0  0  0  0  0  0
  -28.6934  -19.6714   25.2772 H   0  0  0  0  0  0
  -27.5002  -20.8844   24.5780 H   0  0  0  0  0  0
  -25.6572  -19.1749   24.7529 H   0  0  0  0  0  0
  -26.8505  -17.9635   25.4522 H   0  0  0  0  0  0
  -28.2382  -18.0960   23.4212 H   0  0  0  0  0  0
  -26.2845  -22.3567   22.4985 H   0  0  0  0  0  0
  -25.4965  -21.6512   21.0771 H   0  0  0  0  0  0
  -26.2091  -23.2386   20.9859 H   0  0  0  0  0  0
  -25.7707  -18.7093   20.5357 H   0  0  0  0  0  0
  -25.4917  -17.8043   22.0185 H   0  0  0  0  0  0
  -26.9734  -17.5568   21.1045 H   0  0  0  0  0  0
  -30.5190  -16.6907   23.0490 H   0  0  0  0  0  0
  -31.9451  -16.2843   22.1463 H   0  0  0  0  0  0
  -30.9040  -17.5247   20.1095 H   0  0  0  0  0  0
  -31.4358  -18.4731   21.4917 H   0  0  0  0  0  0
  -27.8776  -25.6931   18.2529 H   0  0  0  0  0  0
  -29.4540  -26.3668   18.3603 H   0  0  0  0  0  0
  -30.0932  -24.6364   20.1019 H   0  0  0  0  0  0
  -29.6987  -24.0331   18.4944 H   0  0  0  0  0  0
  -26.1102  -20.0728   22.5478 H   0  0  0  0  0  0
  -29.3289  -15.0325   21.9414 H   0  0  0  0  0  0
  1 25  1  0  0  0
  1 30  2  0  0  0
  1 87  1  0  0  0
  2  3  1  0  0  0
  2 25  1  0  0  0
  2 90  1  0  0  0
  2 91  1  0  0  0
  3  4  1  0  0  0
  3 92  1  0  0  0
  3 93  1  0  0  0
  4  5  1  0  0  0
  4 94  1  0  0  0
  4 95  1  0  0  0
  5  6  1  0  0  0
  5 26  1  0  0  0
  5 96  1  0  0  0
  6 25  1  0  0  0
  6 97  1  0  0  0
  6 98  1  0  0  0
  7  8  2  0  0  0
  7 26  1  0  0  0
  7 29  1  0  0  0
  8  9  1  0  0  0
  8 22  1  0  0  0
  9 10  1  0  0  0
  9 27  2  0  0  0
 10 11  2  0  0  0
 10 15  1  0  0  0
 11 12  1  0  0  0
 11 99  1  0  0  0
 12 13  2  0  0  0
 12100  1  0  0  0
 13 14  1  0  0  0
 13 31  1  0  0  0
 14 15  2  0  0  0
 14101  1  0  0  0
 15102  1  0  0  0
 16 17  2  0  0  0
 16 21  1  0  0  0
 16 31  1  0  0  0
 17 18  1  0  0  0
 17103  1  0  0  0
 18 19  2  0  0  0
 18104  1  0  0  0
 19 20  1  0  0  0
 19 24  1  0  0  0
 20 21  2  0  0  0
 20105  1  0  0  0
 21 23  1  0  0  0
 22 28  1  0  0  0
 22 32  2  0  0  0
 26 27  1  0  0  0
 28106  1  0  0  0
 28107  1  0  0  0
 29108  1  0  0  0
 29109  1  0  0  0
 33 34  1  0  0  0
 33 66  1  0  0  0
 33 70  2  0  0  0
 34 36  1  0  0  0
 34 59  1  0  0  0
 34110  1  0  0  0
 35 44  2  0  0  0
 35 45  1  0  0  0
 35 68  1  0  0  0
 36 56  1  0  0  0
 36111  1  0  0  0
 37 39  1  0  0  0
 37 47  1  0  0  0
 37 66  1  0  0  0
 37112  1  0  0  0
 38 43  2  0  0  0
 38 46  1  0  0  0
 38 47  1  0  0  0
 39 64  1  0  0  0
 39 67  2  0  0  0
 40 52  1  0  0  0
 40 53  2  0  0  0
 40 58  1  0  0  0
 41113  1  0  0  0
 41114  1  0  0  0
 41115  1  0  0  0
 41 48  1  0  0  0
 42 43  1  0  0  0
 42 66  1  0  0  0
 42116  1  0  0  0
 42117  1  0  0  0
 43 44  1  0  0  0
 44118  1  0  0  0
 45 46  2  0  0  0
 45119  1  0  0  0
 46120  1  0  0  0
 47121  1  0  0  0
 47122  1  0  0  0
 48 56  1  0  0  0
 48 65  1  0  0  0
 48123  1  0  0  0
 49 50  1  0  0  0
 49 53  1  0  0  0
 49 64  1  0  0  0
 49124  1  0  0  0
 50 51  1  0  0  0
 50125  1  0  0  0
 50126  1  0  0  0
 51 52  1  0  0  0
 51127  1  0  0  0
 51128  1  0  0  0
 52129  1  0  0  0
 52130  1  0  0  0
 53 54  1  0  0  0
 54 55  2  0  0  0
 54131  1  0  0  0
 55 57  1  0  0  0
 55132  1  0  0  0
 56 69  2  0  0  0
 57 58  2  0  0  0
 57133  1  0  0  0
 58134  1  0  0  0
 59 60  1  0  0  0
 59 61  1  0  0  0
 59 62  1  0  0  0
 60135  1  0  0  0
 60136  1  0  0  0
 60137  1  0  0  0
 61138  1  0  0  0
 61139  1  0  0  0
 61140  1  0  0  0
 62141  1  0  0  0
 62142  1  0  0  0
 62143  1  0  0  0
 63 65  1  0  0  0
 63144  1  0  0  0
 63145  1  0  0  0
 63146  1  0  0  0
 64147  1  0  0  0
 65148  1  0  0  0
 68 84  1  0  0  0
 71 72  2  0  0  0
 71 75  1  0  0  0
 71149  1  0  0  0
 72 76  1  0  0  0
 72150  1  0  0  0
 73 74  1  0  0  0
 73 75  2  0  0  0
 73 80  1  0  0  0
 74 76  2  0  0  0
 74 86  1  0  0  0
 75 88  1  0  0  0
 76 89  1  0  0  0
 77 78  1  0  0  0
 77151  1  0  0  0
 77152  1  0  0  0
 77 79  1  0  0  0
 78 79  1  0  0  0
 78153  1  0  0  0
 78154  1  0  0  0
 79 86  1  0  0  0
 79155  1  0  0  0
 80156  1  0  0  0
 80157  1  0  0  0
 80158  1  0  0  0
 81159  1  0  0  0
 81160  1  0  0  0
 81161  1  0  0  0
 81 86  1  0  0  0
 82 83  1  0  0  0
 82 87  1  0  0  0
 82162  1  0  0  0
 82163  1  0  0  0
 83 89  1  0  0  0
 83164  1  0  0  0
 83165  1  0  0  0
 84 85  1  0  0  0
 84166  1  0  0  0
 84167  1  0  0  0
 85 88  1  0  0  0
 85168  1  0  0  0
 85169  1  0  0  0
 86170  1  0  0  0
 87171  1  0  0  0
M  ISO  4   1 100  68 101  84 101  87 100
M  END
> <chiral flag>
0

> <version>
0

> <s_m_source_file>
/data/baiqing/PycharmProjects/Reinvent-master-3.2/result/LINK_invent/BTK/process_docking_weight1_custom_sum_contain_oxygen_bond_distance_aromatic_linkinvent_7_9_3/rearranged_h_0146.sdf

> <i_m_source_file_index>
2

> <r_mmod_Potential_Energy-OPLS-2005>
-80.6339797973633

> <r_mmod_Stretch_Energy-OPLS-2005>
40.9002952575684

> <r_mmod_Bend_Energy-OPLS-2005>
115.343185424805

> <r_mmod_Torsional_Energy-OPLS-2005>
238.868865966797

> <r_mmod_Improper_Torsional_Energy-OPLS-2005>
1.76470732688904

> <r_mmod_Van_der_Waal_Energy-OPLS-2005>
165.636596679688

> <r_mmod_Electrostatic_Energy-OPLS-2005>
-446.499389648438

> <r_mmod_Solvation_Energy-OPLS-2005>
-206.069580078125

> <b_mmod_Minimization_Converged-OPLS-2005>
0

> <r_mmod_RMS_Derivative-OPLS-2005>
1.20400321483612

$$$$
2
                    3D
 Structure written by MMmdl.
162171  0  0  1  0            999 V2000
  -30.7888  -14.3556   20.6738 C   0  0  0  0  0  0
  -30.4165  -12.2793   19.3957 C   0  0  0  0  0  0
  -29.4868  -12.5104   18.1917 C   0  0  0  0  0  0
  -28.0099  -12.3796   18.6096 C   0  0  0  0  0  0
  -27.6698  -13.2051   19.8782 C   0  0  2  0  0  0
  -28.7096  -12.9577   20.9937 C   0  0  0  0  0  0
  -25.2638  -13.8160   20.5694 C   0  0  0  0  0  0
  -24.1873  -13.0440   20.9160 C   0  0  0  0  0  0
  -24.6424  -11.6904   20.8724 C   0  0  0  0  0  0
  -23.9090  -10.4288   21.0386 C   0  0  0  0  0  0
  -24.3636   -9.4198   21.9176 C   0  0  0  0  0  0
  -23.6295   -8.2246   22.0761 C   0  0  0  0  0  0
  -22.4279   -8.0283   21.3551 C   0  0  0  0  0  0
  -21.9922   -9.0258   20.4645 C   0  0  0  0  0  0
  -22.7263  -10.2122   20.3039 C   0  0  0  0  0  0
  -21.6864   -6.0734   22.5281 C   0  0  0  0  0  0
  -21.4016   -6.5635   23.8216 C   0  0  0  0  0  0
  -21.3649   -5.6781   24.9175 C   0  0  0  0  0  0
  -21.6045   -4.3047   24.7220 C   0  0  0  0  0  0
  -21.8830   -3.8145   23.4342 C   0  0  0  0  0  0
  -21.9201   -4.6961   22.3401 C   0  0  0  0  0  0
  -22.7895  -13.5239   21.1812 C   0  0  0  0  0  0
  -22.1672   -4.2151   21.0975 F   0  0  0  0  0  0
  -21.5621   -3.4527   25.7731 F   0  0  0  0  0  0
  -30.0523  -13.2367   20.4507 N   0  0  0  0  0  0
  -26.3083  -12.9330   20.3389 N   0  0  0  0  0  0
  -25.9350  -11.6482   20.5759 N   0  0  0  0  0  0
  -22.0532  -12.8224   22.0357 N   0  0  0  0  0  0
  -25.4344  -15.1871   20.4103 N   0  0  0  0  0  0
  -31.8055  -14.6385   20.0345 O   0  0  0  0  0  0
  -21.6644   -6.8883   21.4244 O   0  0  0  0  0  0
  -22.3579  -14.5542   20.6662 O   0  0  0  0  0  0
  -24.6143  -31.8667   23.2103 C   0  0  0  0  0  0
  -25.9032  -32.4822   23.8403 C   0  0  1  0  0  0
  -27.2407  -27.4334   20.0905 C   0  0  0  0  0  0
  -25.5887  -33.8616   24.2328 N   0  0  0  0  0  0
  -23.4031  -30.4943   21.5484 C   0  0  2  0  0  0
  -24.8494  -28.9655   20.1111 C   0  0  0  0  0  0
  -22.7414  -29.4658   22.4954 C   0  0  0  0  0  0
  -18.0273  -28.1384   22.8515 C   0  0  0  0  0  0
  -24.1453  -36.7254   23.2646 C   0  0  0  0  0  0
  -25.9342  -30.8371   21.3631 C   0  0  0  0  0  0
  -26.0102  -29.4726   20.7061 C   0  0  0  0  0  0
  -27.2045  -28.7145   20.6940 C   0  0  0  0  0  0
  -26.0552  -26.9537   19.4785 C   0  0  0  0  0  0
  -24.8664  -27.7053   19.4958 C   0  0  0  0  0  0
  -23.6112  -29.8309   20.1621 C   0  0  0  0  0  0
  -25.4088  -36.3092   24.0355 C   0  0  1  0  0  0
  -20.5878  -28.3653   23.1311 C   0  0  2  0  0  0
  -20.6766  -26.9383   22.5411 C   0  0  0  0  0  0
  -19.5734  -26.6385   21.5218 C   0  0  0  0  0  0
  -18.1910  -26.7945   22.1623 C   0  0  0  0  0  0
  -19.1533  -28.8844   23.2910 C   0  0  0  0  0  0
  -18.9465  -30.1474   23.8878 C   0  0  0  0  0  0
  -17.6473  -30.6595   24.0593 C   0  0  0  0  0  0
  -25.9046  -34.9480   23.5145 C   0  0  0  0  0  0
  -16.5357  -29.9111   23.6360 C   0  0  0  0  0  0
  -16.7264  -28.6532   23.0361 C   0  0  0  0  0  0
  -26.4458  -31.6602   25.0728 C   0  0  0  0  0  0
  -25.3742  -31.3709   26.1494 C   0  0  0  0  0  0
  -27.0317  -30.3062   24.6106 C   0  0  0  0  0  0
  -27.6022  -32.4324   25.7492 C   0  0  0  0  0  0
  -27.5558  -37.1787   24.8485 C   0  0  0  0  0  0
  -21.4140  -29.3013   22.3686 N   0  0  0  0  0  0
  -26.4247  -37.3800   23.9455 N   0  0  0  0  0  0
  -24.6685  -31.0814   22.0982 N   0  0  0  0  0  0
  -23.4196  -28.8216   23.2993 O   0  0  0  0  0  0
  -28.4198  -26.7044   20.1339 O   0  0  0  0  0  0
  -26.5584  -34.8936   22.4694 O   0  0  0  0  0  0
  -23.5341  -32.1364   23.7530 O   0  0  0  0  0  0
  -30.4593  -21.7064   20.7365 C   0  0  0  0  0  0
  -30.6528  -20.3098   20.8085 C   0  0  0  0  0  0
  -28.2339  -21.4300   21.6595 C   0  0  0  0  0  0
  -28.4179  -20.0310   21.7411 C   0  0  0  0  0  0
  -29.2420  -22.2811   21.1653 C   0  0  0  0  0  0
  -29.6451  -19.4576   21.3286 C   0  0  0  0  0  0
  -26.4777  -19.5522   23.4625 C   0  0  0  0  0  0
  -27.4409  -18.3926   23.5487 C   0  0  0  0  0  0
  -27.3029  -19.1627   22.2566 C   0  0  0  0  0  0
  -31.1611  -16.2365   22.2368 C   0  0  0  0  0  0
  -31.0923  -17.5173   21.3829 C   0  0  0  0  0  0
  -28.4356  -25.3724   19.5904 C   0  0  0  0  0  0
  -29.5575  -24.4675   20.1513 C   0  0  0  0  0  0
  -30.3918  -15.1171   21.6931 N   0  0  0  0  0  0
  -28.9888  -23.6382   21.1730 O   0  0  0  0  0  0
  -29.7857  -18.0875   21.4619 O   0  0  0  0  0  0
  -31.4616  -12.3687   19.0899 H   0  0  0  0  0  0
  -30.3095  -11.2597   19.7711 H   0  0  0  0  0  0
  -29.7133  -11.7943   17.4006 H   0  0  0  0  0  0
  -29.6672  -13.5003   17.7715 H   0  0  0  0  0  0
  -27.8084  -11.3231   18.7896 H   0  0  0  0  0  0
  -27.3591  -12.6754   17.7861 H   0  0  0  0  0  0
  -27.7273  -14.2588   19.6018 H   0  0  0  0  0  0
  -28.6727  -11.9191   21.3250 H   0  0  0  0  0  0
  -28.4645  -13.5520   21.8733 H   0  0  0  0  0  0
  -25.2784   -9.5669   22.4741 H   0  0  0  0  0  0
  -24.0014   -7.4636   22.7475 H   0  0  0  0  0  0
  -21.0872   -8.8763   19.8940 H   0  0  0  0  0  0
  -22.3742  -10.9647   19.6130 H   0  0  0  0  0  0
  -21.2013   -7.6142   23.9718 H   0  0  0  0  0  0
  -21.1449   -6.0506   25.9075 H   0  0  0  0  0  0
  -22.0615   -2.7606   23.2834 H   0  0  0  0  0  0
  -22.4161  -11.9887   22.4732 H   0  0  0  0  0  0
  -21.1125  -13.1213   22.2519 H   0  0  0  0  0  0
  -24.6715  -15.8419   20.5401 H   0  0  0  0  0  0
  -26.2934  -15.6295   20.1086 H   0  0  0  0  0  0
  -26.7116  -32.5524   23.1179 H   0  0  0  0  0  0
  -25.0093  -33.9776   25.0525 H   0  0  0  0  0  0
  -22.6929  -31.3129   21.4134 H   0  0  0  0  0  0
  -23.3745  -35.9556   23.3330 H   0  0  0  0  0  0
  -24.3556  -36.8825   22.2054 H   0  0  0  0  0  0
  -23.7165  -37.6453   23.6637 H   0  0  0  0  0  0
  -26.0601  -31.6146   20.6073 H   0  0  0  0  0  0
  -26.8173  -30.8772   21.9882 H   0  0  0  0  0  0
  -28.1000  -29.1122   21.1528 H   0  0  0  0  0  0
  -26.0108  -26.0041   18.9711 H   0  0  0  0  0  0
  -23.9745  -27.3081   19.0298 H   0  0  0  0  0  0
  -23.7201  -30.6068   19.4027 H   0  0  0  0  0  0
  -22.7368  -29.2499   19.8636 H   0  0  0  0  0  0
  -25.1269  -36.1924   25.0844 H   0  0  0  0  0  0
  -21.0007  -28.3205   24.1421 H   0  0  0  0  0  0
  -20.5678  -26.2251   23.3597 H   0  0  0  0  0  0
  -21.6641  -26.7425   22.1199 H   0  0  0  0  0  0
  -19.6884  -25.6305   21.1222 H   0  0  0  0  0  0
  -19.6688  -27.3239   20.6786 H   0  0  0  0  0  0
  -17.4202  -26.6733   21.3995 H   0  0  0  0  0  0
  -18.0266  -26.0080   22.8999 H   0  0  0  0  0  0
  -19.7946  -30.7320   24.2176 H   0  0  0  0  0  0
  -17.5034  -31.6264   24.5219 H   0  0  0  0  0  0
  -15.5366  -30.3020   23.7712 H   0  0  0  0  0  0
  -15.8655  -28.0888   22.7048 H   0  0  0  0  0  0
  -24.5932  -30.7010   25.7886 H   0  0  0  0  0  0
  -24.8904  -32.2857   26.4917 H   0  0  0  0  0  0
  -25.8117  -30.8933   27.0269 H   0  0  0  0  0  0
  -26.2880  -29.6809   24.1145 H   0  0  0  0  0  0
  -27.4105  -29.7295   25.4555 H   0  0  0  0  0  0
  -27.8707  -30.4428   23.9279 H   0  0  0  0  0  0
  -27.2639  -33.3638   26.2045 H   0  0  0  0  0  0
  -28.3842  -32.6840   25.0322 H   0  0  0  0  0  0
  -28.0676  -31.8458   26.5418 H   0  0  0  0  0  0
  -28.2596  -38.0068   24.7552 H   0  0  0  0  0  0
  -28.1006  -36.2603   24.6262 H   0  0  0  0  0  0
  -27.2289  -37.1406   25.8889 H   0  0  0  0  0  0
  -20.9267  -29.8702   21.6905 H   0  0  0  0  0  0
  -26.0107  -38.2852   24.1514 H   0  0  0  0  0  0
  -31.2673  -22.3255   20.3710 H   0  0  0  0  0  0
  -31.5931  -19.9118   20.4594 H   0  0  0  0  0  0
  -27.2940  -21.8596   21.9802 H   0  0  0  0  0  0
  -26.7423  -20.4599   24.0018 H   0  0  0  0  0  0
  -25.4154  -19.3096   23.4527 H   0  0  0  0  0  0
  -27.0156  -17.3907   23.5807 H   0  0  0  0  0  0
  -28.3447  -18.5370   24.1371 H   0  0  0  0  0  0
  -26.7878  -18.6680   21.4350 H   0  0  0  0  0  0
  -30.8172  -16.4436   23.2505 H   0  0  0  0  0  0
  -32.2044  -15.9285   22.3306 H   0  0  0  0  0  0
  -31.3574  -17.3224   20.3416 H   0  0  0  0  0  0
  -31.8442  -18.1966   21.7840 H   0  0  0  0  0  0
  -27.5069  -24.8343   19.7723 H   0  0  0  0  0  0
  -28.5495  -25.4651   18.5097 H   0  0  0  0  0  0
  -30.3927  -25.0485   20.5454 H   0  0  0  0  0  0
  -29.9464  -23.8687   19.3254 H   0  0  0  0  0  0
  -29.5559  -14.8348   22.1848 H   0  0  0  0  0  0
  1 25  1  0  0  0
  1 30  2  0  0  0
  1 84  1  0  0  0
  2  3  1  0  0  0
  2 25  1  0  0  0
  2 87  1  0  0  0
  2 88  1  0  0  0
  3  4  1  0  0  0
  3 89  1  0  0  0
  3 90  1  0  0  0
  4  5  1  0  0  0
  4 91  1  0  0  0
  4 92  1  0  0  0
  5  6  1  0  0  0
  5 26  1  0  0  0
  5 93  1  0  0  0
  6 25  1  0  0  0
  6 94  1  0  0  0
  6 95  1  0  0  0
  7  8  2  0  0  0
  7 26  1  0  0  0
  7 29  1  0  0  0
  8  9  1  0  0  0
  8 22  1  0  0  0
  9 10  1  0  0  0
  9 27  2  0  0  0
 10 11  2  0  0  0
 10 15  1  0  0  0
 11 12  1  0  0  0
 11 96  1  0  0  0
 12 13  2  0  0  0
 12 97  1  0  0  0
 13 14  1  0  0  0
 13 31  1  0  0  0
 14 15  2  0  0  0
 14 98  1  0  0  0
 15 99  1  0  0  0
 16 17  2  0  0  0
 16 21  1  0  0  0
 16 31  1  0  0  0
 17 18  1  0  0  0
 17100  1  0  0  0
 18 19  2  0  0  0
 18101  1  0  0  0
 19 20  1  0  0  0
 19 24  1  0  0  0
 20 21  2  0  0  0
 20102  1  0  0  0
 21 23  1  0  0  0
 22 28  1  0  0  0
 22 32  2  0  0  0
 26 27  1  0  0  0
 28103  1  0  0  0
 28104  1  0  0  0
 29105  1  0  0  0
 29106  1  0  0  0
 33 34  1  0  0  0
 33 66  1  0  0  0
 33 70  2  0  0  0
 34 36  1  0  0  0
 34 59  1  0  0  0
 34107  1  0  0  0
 35 44  2  0  0  0
 35 45  1  0  0  0
 35 68  1  0  0  0
 36 56  1  0  0  0
 36108  1  0  0  0
 37 39  1  0  0  0
 37 47  1  0  0  0
 37 66  1  0  0  0
 37109  1  0  0  0
 38 43  2  0  0  0
 38 46  1  0  0  0
 38 47  1  0  0  0
 39 64  1  0  0  0
 39 67  2  0  0  0
 40 52  1  0  0  0
 40 53  2  0  0  0
 40 58  1  0  0  0
 41110  1  0  0  0
 41111  1  0  0  0
 41112  1  0  0  0
 41 48  1  0  0  0
 42 43  1  0  0  0
 42 66  1  0  0  0
 42113  1  0  0  0
 42114  1  0  0  0
 43 44  1  0  0  0
 44115  1  0  0  0
 45 46  2  0  0  0
 45116  1  0  0  0
 46117  1  0  0  0
 47118  1  0  0  0
 47119  1  0  0  0
 48 56  1  0  0  0
 48 65  1  0  0  0
 48120  1  0  0  0
 49 50  1  0  0  0
 49 53  1  0  0  0
 49 64  1  0  0  0
 49121  1  0  0  0
 50 51  1  0  0  0
 50122  1  0  0  0
 50123  1  0  0  0
 51 52  1  0  0  0
 51124  1  0  0  0
 51125  1  0  0  0
 52126  1  0  0  0
 52127  1  0  0  0
 53 54  1  0  0  0
 54 55  2  0  0  0
 54128  1  0  0  0
 55 57  1  0  0  0
 55129  1  0  0  0
 56 69  2  0  0  0
 57 58  2  0  0  0
 57130  1  0  0  0
 58131  1  0  0  0
 59 60  1  0  0  0
 59 61  1  0  0  0
 59 62  1  0  0  0
 60132  1  0  0  0
 60133  1  0  0  0
 60134  1  0  0  0
 61135  1  0  0  0
 61136  1  0  0  0
 61137  1  0  0  0
 62138  1  0  0  0
 62139  1  0  0  0
 62140  1  0  0  0
 63 65  1  0  0  0
 63141  1  0  0  0
 63142  1  0  0  0
 63143  1  0  0  0
 64144  1  0  0  0
 65145  1  0  0  0
 68 82  1  0  0  0
 71 72  2  0  0  0
 71 75  1  0  0  0
 71146  1  0  0  0
 72 76  1  0  0  0
 72147  1  0  0  0
 73 74  1  0  0  0
 73 75  2  0  0  0
 73148  1  0  0  0
 74 76  2  0  0  0
 74 79  1  0  0  0
 75 85  1  0  0  0
 76 86  1  0  0  0
 77 78  1  0  0  0
 77 79  1  0  0  0
 77149  1  0  0  0
 77150  1  0  0  0
 78 79  1  0  0  0
 78151  1  0  0  0
 78152  1  0  0  0
 79153  1  0  0  0
 80 81  1  0  0  0
 80 84  1  0  0  0
 80154  1  0  0  0
 80155  1  0  0  0
 81 86  1  0  0  0
 81156  1  0  0  0
 81157  1  0  0  0
 82 83  1  0  0  0
 82158  1  0  0  0
 82159  1  0  0  0
 83 85  1  0  0  0
 83160  1  0  0  0
 83161  1  0  0  0
 84162  1  0  0  0
M  ISO  4   1 100  68 101  82 101  84 100
M  END
> <chiral flag>
0

> <version>
0

> <s_m_source_file>
/data/baiqing/PycharmProjects/Reinvent-master-3.2/result/LINK_invent/BTK/process_docking_weight1_custom_sum_contain_oxygen_bond_distance_aromatic_linkinvent_7_9_3/rearranged_h_0146.sdf

> <i_m_source_file_index>
3

> <r_mmod_Potential_Energy-OPLS-2005>
-94.4439849853516

> <r_mmod_Stretch_Energy-OPLS-2005>
37.2597885131836

> <r_mmod_Bend_Energy-OPLS-2005>
110.624198913574

> <r_mmod_Torsional_Energy-OPLS-2005>
232.252319335938

> <r_mmod_Improper_Torsional_Energy-OPLS-2005>
2.02202939987183

> <r_mmod_Van_der_Waal_Energy-OPLS-2005>
163.124984741211

> <r_mmod_Electrostatic_Energy-OPLS-2005>
-436.435913085938

> <r_mmod_Solvation_Energy-OPLS-2005>
-212.657913208008

> <b_mmod_Minimization_Converged-OPLS-2005>
0

> <r_mmod_RMS_Derivative-OPLS-2005>
3.15571331977844

$$$$
3
                    3D
 Structure written by MMmdl.
175185  0  0  1  0            999 V2000
  -30.6869  -14.6616   20.4713 C   0  0  0  0  0  0
  -30.4228  -12.4139   19.4358 C   0  0  0  0  0  0
  -29.4901  -12.4998   18.2146 C   0  0  0  0  0  0
  -28.0246  -12.3020   18.6541 C   0  0  0  0  0  0
  -27.6425  -13.1876   19.8656 C   0  0  2  0  0  0
  -28.7108  -13.1073   20.9835 C   0  0  0  0  0  0
  -25.2541  -13.8034   20.5747 C   0  0  0  0  0  0
  -24.1761  -13.0336   20.9263 C   0  0  0  0  0  0
  -24.6330  -11.6836   20.8861 C   0  0  0  0  0  0
  -23.8974  -10.4228   21.0481 C   0  0  0  0  0  0
  -24.3520   -9.4136   21.9239 C   0  0  0  0  0  0
  -23.6222   -8.2153   22.0761 C   0  0  0  0  0  0
  -22.4217   -8.0200   21.3533 C   0  0  0  0  0  0
  -21.9844   -9.0196   20.4667 C   0  0  0  0  0  0
  -22.7164  -10.2094   20.3108 C   0  0  0  0  0  0
  -21.6840   -6.0662   22.5235 C   0  0  0  0  0  0
  -21.4028   -6.5588   23.8164 C   0  0  0  0  0  0
  -21.3663   -5.6770   24.9135 C   0  0  0  0  0  0
  -21.6073   -4.3037   24.7223 C   0  0  0  0  0  0
  -21.8834   -3.8102   23.4346 C   0  0  0  0  0  0
  -21.9190   -4.6888   22.3385 C   0  0  0  0  0  0
  -22.7799  -13.5217   21.1873 C   0  0  0  0  0  0
  -22.1682   -4.2069   21.0977 F   0  0  0  0  0  0
  -21.5610   -3.4537   25.7743 F   0  0  0  0  0  0
  -29.9955  -13.4755   20.3737 N   0  0  0  0  0  0
  -26.2949  -12.9164   20.3493 N   0  0  0  0  0  0
  -25.9271  -11.6370   20.5979 N   0  0  0  0  0  0
  -22.0428  -12.8214   22.0420 N   0  0  0  0  0  0
  -25.4130  -15.1704   20.4061 N   0  0  0  0  0  0
  -31.8838  -14.6832   20.1745 O   0  0  0  0  0  0
  -21.6633   -6.8774   21.4183 O   0  0  0  0  0  0
  -22.3534  -14.5558   20.6765 O   0  0  0  0  0  0
  -24.6225  -31.8642   23.2039 C   0  0  0  0  0  0
  -25.9117  -32.4785   23.8334 C   0  0  1  0  0  0
  -27.2390  -27.3675   20.0663 C   0  0  0  0  0  0
  -25.5956  -33.8583   24.2262 N   0  0  0  0  0  0
  -23.4050  -30.4865   21.5549 C   0  0  2  0  0  0
  -24.8458  -28.9411   20.1068 C   0  0  0  0  0  0
  -22.7438  -29.4646   22.5056 C   0  0  0  0  0  0
  -18.0259  -28.1397   22.8516 C   0  0  0  0  0  0
  -24.1456  -36.7211   23.2658 C   0  0  0  0  0  0
  -25.9423  -30.8015   21.3654 C   0  0  0  0  0  0
  -26.0143  -29.4379   20.6929 C   0  0  0  0  0  0
  -27.2058  -28.6605   20.6638 C   0  0  0  0  0  0
  -26.0385  -26.8922   19.4937 C   0  0  0  0  0  0
  -24.8558  -27.6681   19.5076 C   0  0  0  0  0  0
  -23.6081  -29.8199   20.1678 C   0  0  0  0  0  0
  -25.4085  -36.3038   24.0345 C   0  0  1  0  0  0
  -20.5866  -28.3661   23.1360 C   0  0  2  0  0  0
  -20.6755  -26.9399   22.5465 C   0  0  0  0  0  0
  -19.5716  -26.6378   21.5274 C   0  0  0  0  0  0
  -18.1887  -26.7944   22.1662 C   0  0  0  0  0  0
  -19.1527  -28.8856   23.2910 C   0  0  0  0  0  0
  -18.9461  -30.1487   23.8868 C   0  0  0  0  0  0
  -17.6464  -30.6616   24.0564 C   0  0  0  0  0  0
  -25.9062  -34.9456   23.5091 C   0  0  0  0  0  0
  -16.5343  -29.9114   23.6361 C   0  0  0  0  0  0
  -16.7253  -28.6536   23.0371 C   0  0  0  0  0  0
  -26.4511  -31.6603   25.0719 C   0  0  0  0  0  0
  -25.3789  -31.3756   26.1492 C   0  0  0  0  0  0
  -27.0376  -30.3024   24.6179 C   0  0  0  0  0  0
  -27.6027  -32.4404   25.7501 C   0  0  0  0  0  0
  -27.5526  -37.1748   24.8481 C   0  0  0  0  0  0
  -21.4177  -29.3003   22.3778 N   0  0  0  0  0  0
  -26.4221  -37.3763   23.9455 N   0  0  0  0  0  0
  -24.6760  -31.0679   22.0975 N   0  0  0  0  0  0
  -23.4206  -28.8234   23.3143 O   0  0  0  0  0  0
  -28.4208  -26.6175   20.0962 O   0  0  0  0  0  0
  -26.5627  -34.8945   22.4654 O   0  0  0  0  0  0
  -23.5413  -32.1474   23.7389 O   0  0  0  0  0  0
  -31.3830  -21.6962   23.2032 C   0  0  0  0  0  0
  -30.7950  -21.9790   21.9641 C   0  0  0  0  0  0
  -30.4782  -19.4224   23.1291 C   0  0  0  0  0  0
  -30.0962  -19.6314   21.7566 C   0  0  0  0  0  0
  -31.1712  -20.4531   23.8155 C   0  0  0  0  0  0
  -30.0633  -20.9985   21.2578 C   0  0  0  0  0  0
  -28.8467  -17.5276   24.1508 C   0  0  0  0  0  0
  -29.5915  -18.1444   25.2960 C   0  0  0  0  0  0
  -28.4667  -17.7474   20.8383 C   0  0  0  0  0  0
  -28.6652  -16.2562   20.5035 C   0  0  0  0  0  0
  -30.8094  -17.1530   20.8995 C   0  0  0  0  0  0
  -30.2205  -18.1403   23.9110 C   0  0  0  0  0  0
  -29.8401  -18.3969   20.8150 C   0  0  2  0  0  0
  -32.9875  -18.9052   26.5207 C   0  0  0  0  0  0
  -28.6066  -23.9953   20.2057 C   0  0  0  0  0  0
  -32.9298  -19.7019   25.2085 C   0  0  0  0  0  0
  -28.6206  -25.3523   19.3744 C   0  0  0  0  0  0
  -29.3701  -22.7535   19.5621 C   0  0  0  0  0  0
  -30.0585  -15.8693   20.7489 N   0  0  0  0  0  0
  -31.6281  -20.2702   25.0958 O   0  0  0  0  0  0
  -29.3087  -21.3936   20.1444 O   0  0  0  0  0  0
  -31.4623  -12.5135   19.1204 H   0  0  0  0  0  0
  -30.3482  -11.4326   19.9024 H   0  0  0  0  0  0
  -29.7604  -11.7422   17.4780 H   0  0  0  0  0  0
  -29.6199  -13.4646   17.7201 H   0  0  0  0  0  0
  -27.9054  -11.2523   18.9288 H   0  0  0  0  0  0
  -27.3485  -12.4945   17.8206 H   0  0  0  0  0  0
  -27.6189  -14.1869   19.4551 H   0  0  0  0  0  0
  -28.7644  -12.0948   21.3860 H   0  0  0  0  0  0
  -28.4803  -13.7325   21.8455 H   0  0  0  0  0  0
  -25.2612   -9.5637   22.4873 H   0  0  0  0  0  0
  -23.9948   -7.4531   22.7452 H   0  0  0  0  0  0
  -21.0780   -8.8699   19.8963 H   0  0  0  0  0  0
  -22.3577  -10.9647   19.6253 H   0  0  0  0  0  0
  -21.2069   -7.6114   23.9635 H   0  0  0  0  0  0
  -21.1467   -6.0517   25.9039 H   0  0  0  0  0  0
  -22.0629   -2.7561   23.2884 H   0  0  0  0  0  0
  -22.4121  -11.9925   22.4813 H   0  0  0  0  0  0
  -21.1076  -13.1277   22.2690 H   0  0  0  0  0  0
  -24.6499  -15.8224   20.5481 H   0  0  0  0  0  0
  -26.2526  -15.6129   20.0579 H   0  0  0  0  0  0
  -26.7197  -32.5429   23.1084 H   0  0  0  0  0  0
  -25.0111  -33.9705   25.0408 H   0  0  0  0  0  0
  -22.6905  -31.3025   21.4234 H   0  0  0  0  0  0
  -23.3746  -35.9516   23.3366 H   0  0  0  0  0  0
  -24.3509  -36.8778   22.2055 H   0  0  0  0  0  0
  -23.7188  -37.6412   23.6660 H   0  0  0  0  0  0
  -26.0813  -31.5788   20.6121 H   0  0  0  0  0  0
  -26.8173  -30.8235   22.0032 H   0  0  0  0  0  0
  -28.1087  -29.0526   21.1095 H   0  0  0  0  0  0
  -25.9840  -25.9076   19.0546 H   0  0  0  0  0  0
  -23.9496  -27.2639   19.0749 H   0  0  0  0  0  0
  -23.7211  -30.6067   19.4214 H   0  0  0  0  0  0
  -22.7163  -29.2691   19.8622 H   0  0  0  0  0  0
  -25.1268  -36.1842   25.0833 H   0  0  0  0  0  0
  -20.9885  -28.3210   24.1513 H   0  0  0  0  0  0
  -20.5683  -26.2263   23.3662 H   0  0  0  0  0  0
  -21.6620  -26.7478   22.1236 H   0  0  0  0  0  0
  -19.6870  -25.6296   21.1287 H   0  0  0  0  0  0
  -19.6646  -27.3225   20.6839 H   0  0  0  0  0  0
  -17.4176  -26.6746   21.4045 H   0  0  0  0  0  0
  -18.0214  -26.0104   22.9053 H   0  0  0  0  0  0
  -19.7947  -30.7317   24.2173 H   0  0  0  0  0  0
  -17.5038  -31.6284   24.5181 H   0  0  0  0  0  0
  -15.5353  -30.2996   23.7732 H   0  0  0  0  0  0
  -15.8653  -28.0851   22.7090 H   0  0  0  0  0  0
  -24.5931  -30.7123   25.7872 H   0  0  0  0  0  0
  -24.9064  -32.2965   26.4946 H   0  0  0  0  0  0
  -25.8190  -30.8944   27.0244 H   0  0  0  0  0  0
  -26.2970  -29.6768   24.1195 H   0  0  0  0  0  0
  -27.4072  -29.7267   25.4673 H   0  0  0  0  0  0
  -27.8828  -30.4303   23.9407 H   0  0  0  0  0  0
  -27.2547  -33.3683   26.2049 H   0  0  0  0  0  0
  -28.3847  -32.7023   25.0364 H   0  0  0  0  0  0
  -28.0712  -31.8608   26.5462 H   0  0  0  0  0  0
  -28.2578  -38.0010   24.7511 H   0  0  0  0  0  0
  -28.0978  -36.2552   24.6319 H   0  0  0  0  0  0
  -27.2260  -37.1403   25.8887 H   0  0  0  0  0  0
  -20.9365  -29.8649   21.6917 H   0  0  0  0  0  0
  -26.0084  -38.2811   24.1534 H   0  0  0  0  0  0
  -31.9469  -22.4639   23.7152 H   0  0  0  0  0  0
  -30.9174  -22.9767   21.5763 H   0  0  0  0  0  0
  -27.9241  -18.0527   23.9088 H   0  0  0  0  0  0
  -28.7825  -16.4430   24.1132 H   0  0  0  0  0  0
  -29.9665  -17.4532   26.0459 H   0  0  0  0  0  0
  -29.1894  -19.0759   25.6918 H   0  0  0  0  0  0
  -28.0375  -17.8108   21.8231 H   0  0  0  0  0  0
  -27.7538  -18.2360   20.1744 H   0  0  0  0  0  0
  -27.9563  -15.6798   21.0958 H   0  0  0  0  0  0
  -28.4761  -16.1134   19.4382 H   0  0  0  0  0  0
  -31.5710  -17.2324   20.1216 H   0  0  0  0  0  0
  -31.3688  -17.1107   21.8240 H   0  0  0  0  0  0
  -31.0779  -17.4823   23.8471 H   0  0  0  0  0  0
  -29.9637  -18.8148   19.8149 H   0  0  0  0  0  0
  -33.9713  -18.4553   26.6606 H   0  0  0  0  0  0
  -32.2594  -18.0922   26.5287 H   0  0  0  0  0  0
  -32.7808  -19.5422   27.3812 H   0  0  0  0  0  0
  -27.5665  -23.7325   20.3977 H   0  0  0  0  0  0
  -29.0475  -24.1945   21.1797 H   0  0  0  0  0  0
  -33.1732  -19.0481   24.3681 H   0  0  0  0  0  0
  -33.6810  -20.4933   25.2104 H   0  0  0  0  0  0
  -27.9828  -25.2931   18.4916 H   0  0  0  0  0  0
  -29.6229  -25.4354   18.9452 H   0  0  0  0  0  0
  -30.4155  -23.0314   19.4143 H   0  0  0  0  0  0
  -28.9815  -22.6284   18.5476 H   0  0  0  0  0  0
  1 25  1  0  0  0
  1 30  2  0  0  0
  1 89  1  0  0  0
  2  3  1  0  0  0
  2 25  1  0  0  0
  2 92  1  0  0  0
  2 93  1  0  0  0
  3  4  1  0  0  0
  3 94  1  0  0  0
  3 95  1  0  0  0
  4  5  1  0  0  0
  4 96  1  0  0  0
  4 97  1  0  0  0
  5  6  1  0  0  0
  5 26  1  0  0  0
  5 98  1  0  0  0
  6 25  1  0  0  0
  6 99  1  0  0  0
  6100  1  0  0  0
  7  8  2  0  0  0
  7 26  1  0  0  0
  7 29  1  0  0  0
  8  9  1  0  0  0
  8 22  1  0  0  0
  9 10  1  0  0  0
  9 27  2  0  0  0
 10 11  2  0  0  0
 10 15  1  0  0  0
 11 12  1  0  0  0
 11101  1  0  0  0
 12 13  2  0  0  0
 12102  1  0  0  0
 13 14  1  0  0  0
 13 31  1  0  0  0
 14 15  2  0  0  0
 14103  1  0  0  0
 15104  1  0  0  0
 16 17  2  0  0  0
 16 21  1  0  0  0
 16 31  1  0  0  0
 17 18  1  0  0  0
 17105  1  0  0  0
 18 19  2  0  0  0
 18106  1  0  0  0
 19 20  1  0  0  0
 19 24  1  0  0  0
 20 21  2  0  0  0
 20107  1  0  0  0
 21 23  1  0  0  0
 22 28  1  0  0  0
 22 32  2  0  0  0
 26 27  1  0  0  0
 28108  1  0  0  0
 28109  1  0  0  0
 29110  1  0  0  0
 29111  1  0  0  0
 33 34  1  0  0  0
 33 66  1  0  0  0
 33 70  2  0  0  0
 34 36  1  0  0  0
 34 59  1  0  0  0
 34112  1  0  0  0
 35 44  2  0  0  0
 35 45  1  0  0  0
 35 68  1  0  0  0
 36 56  1  0  0  0
 36113  1  0  0  0
 37 39  1  0  0  0
 37 47  1  0  0  0
 37 66  1  0  0  0
 37114  1  0  0  0
 38 43  2  0  0  0
 38 46  1  0  0  0
 38 47  1  0  0  0
 39 64  1  0  0  0
 39 67  2  0  0  0
 40 52  1  0  0  0
 40 53  2  0  0  0
 40 58  1  0  0  0
 41115  1  0  0  0
 41116  1  0  0  0
 41117  1  0  0  0
 41 48  1  0  0  0
 42 43  1  0  0  0
 42 66  1  0  0  0
 42118  1  0  0  0
 42119  1  0  0  0
 43 44  1  0  0  0
 44120  1  0  0  0
 45 46  2  0  0  0
 45121  1  0  0  0
 46122  1  0  0  0
 47123  1  0  0  0
 47124  1  0  0  0
 48 56  1  0  0  0
 48 65  1  0  0  0
 48125  1  0  0  0
 49 50  1  0  0  0
 49 53  1  0  0  0
 49 64  1  0  0  0
 49126  1  0  0  0
 50 51  1  0  0  0
 50127  1  0  0  0
 50128  1  0  0  0
 51 52  1  0  0  0
 51129  1  0  0  0
 51130  1  0  0  0
 52131  1  0  0  0
 52132  1  0  0  0
 53 54  1  0  0  0
 54 55  2  0  0  0
 54133  1  0  0  0
 55 57  1  0  0  0
 55134  1  0  0  0
 56 69  2  0  0  0
 57 58  2  0  0  0
 57135  1  0  0  0
 58136  1  0  0  0
 59 60  1  0  0  0
 59 61  1  0  0  0
 59 62  1  0  0  0
 60137  1  0  0  0
 60138  1  0  0  0
 60139  1  0  0  0
 61140  1  0  0  0
 61141  1  0  0  0
 61142  1  0  0  0
 62143  1  0  0  0
 62144  1  0  0  0
 62145  1  0  0  0
 63 65  1  0  0  0
 63146  1  0  0  0
 63147  1  0  0  0
 63148  1  0  0  0
 64149  1  0  0  0
 65150  1  0  0  0
 68 87  1  0  0  0
 71 72  2  0  0  0
 71 75  1  0  0  0
 71151  1  0  0  0
 72 76  1  0  0  0
 72152  1  0  0  0
 73 74  1  0  0  0
 73 75  2  0  0  0
 73 82  1  0  0  0
 74 76  2  0  0  0
 74 83  1  0  0  0
 75 90  1  0  0  0
 76 91  1  0  0  0
 77 78  1  0  0  0
 77 82  1  0  0  0
 77153  1  0  0  0
 77154  1  0  0  0
 78 82  1  0  0  0
 78155  1  0  0  0
 78156  1  0  0  0
 79 80  1  0  0  0
 79 83  1  0  0  0
 79157  1  0  0  0
 79158  1  0  0  0
 80 89  1  0  0  0
 80159  1  0  0  0
 80160  1  0  0  0
 81 83  1  0  0  0
 81 89  1  0  0  0
 81161  1  0  0  0
 81162  1  0  0  0
 82163  1  0  0  0
 83164  1  0  0  0
 84 86  1  0  0  0
 84165  1  0  0  0
 84166  1  0  0  0
 84167  1  0  0  0
 85 87  1  0  0  0
 85 88  1  0  0  0
 85168  1  0  0  0
 85169  1  0  0  0
 86 90  1  0  0  0
 86170  1  0  0  0
 86171  1  0  0  0
 87172  1  0  0  0
 87173  1  0  0  0
 88 91  1  0  0  0
 88174  1  0  0  0
 88175  1  0  0  0
M  ISO  4   1 100  68 101  87 101  89 100
M  END
> <chiral flag>
0

> <version>
0

> <s_m_source_file>
/data/baiqing/PycharmProjects/Reinvent-master-3.2/result/LINK_invent/BTK/process_docking_weight1_custom_sum_contain_oxygen_bond_distance_aromatic_linkinvent_7_9_3/rearranged_h_0146.sdf

> <i_m_source_file_index>
4

> <r_mmod_Potential_Energy-OPLS-2005>
377.341247558594

> <r_mmod_Stretch_Energy-OPLS-2005>
90.2912979125977

> <r_mmod_Bend_Energy-OPLS-2005>
209.300704956055

> <r_mmod_Torsional_Energy-OPLS-2005>
415.646118164062

> <r_mmod_Improper_Torsional_Energy-OPLS-2005>
4.53013753890991

> <r_mmod_Van_der_Waal_Energy-OPLS-2005>
149.32926940918

> <r_mmod_Electrostatic_Energy-OPLS-2005>
-332.716705322266

> <r_mmod_Solvation_Energy-OPLS-2005>
-204.940689086914

> <b_mmod_Minimization_Converged-OPLS-2005>
0

> <r_mmod_RMS_Derivative-OPLS-2005>
6.930504322052

$$$$
4
                    3D
 Structure written by MMmdl.
167176  0  0  1  0            999 V2000
  -30.6570  -14.5543   20.5922 C   0  0  0  0  0  0
  -30.4045  -12.3674   19.4287 C   0  0  0  0  0  0
  -29.4869  -12.5362   18.2003 C   0  0  0  0  0  0
  -28.0065  -12.3650   18.5993 C   0  0  0  0  0  0
  -27.6375  -13.2136   19.8436 C   0  0  2  0  0  0
  -28.6686  -13.0359   20.9724 C   0  0  0  0  0  0
  -25.2492  -13.8183   20.5645 C   0  0  0  0  0  0
  -24.1781  -13.0438   20.9202 C   0  0  0  0  0  0
  -24.6347  -11.6917   20.8731 C   0  0  0  0  0  0
  -23.9039  -10.4288   21.0397 C   0  0  0  0  0  0
  -24.3628   -9.4216   21.9167 C   0  0  0  0  0  0
  -23.6329   -8.2239   22.0745 C   0  0  0  0  0  0
  -22.4299   -8.0260   21.3535 C   0  0  0  0  0  0
  -21.9910   -9.0226   20.4637 C   0  0  0  0  0  0
  -22.7228  -10.2112   20.3039 C   0  0  0  0  0  0
  -21.6846   -6.0743   22.5301 C   0  0  0  0  0  0
  -21.4009   -6.5649   23.8234 C   0  0  0  0  0  0
  -21.3655   -5.6805   24.9196 C   0  0  0  0  0  0
  -21.6047   -4.3065   24.7239 C   0  0  0  0  0  0
  -21.8803   -3.8161   23.4354 C   0  0  0  0  0  0
  -21.9201   -4.6981   22.3422 C   0  0  0  0  0  0
  -22.7809  -13.5208   21.1902 C   0  0  0  0  0  0
  -22.1657   -4.2167   21.0994 F   0  0  0  0  0  0
  -21.5638   -3.4542   25.7741 F   0  0  0  0  0  0
  -29.9986  -13.3665   20.4399 N   0  0  0  0  0  0
  -26.2870  -12.9350   20.3178 N   0  0  0  0  0  0
  -25.9247  -11.6496   20.5686 N   0  0  0  0  0  0
  -22.0493  -12.8171   22.0476 N   0  0  0  0  0  0
  -25.4175  -15.1926   20.4056 N   0  0  0  0  0  0
  -31.7589  -14.7535   20.0648 O   0  0  0  0  0  0
  -21.6651   -6.8869   21.4242 O   0  0  0  0  0  0
  -22.3470  -14.5515   20.6788 O   0  0  0  0  0  0
  -24.6191  -31.8639   23.2046 C   0  0  0  0  0  0
  -25.9066  -32.4779   23.8352 C   0  0  1  0  0  0
  -27.2068  -27.3465   20.1137 C   0  0  0  0  0  0
  -25.5894  -33.8584   24.2277 N   0  0  0  0  0  0
  -23.4064  -30.4937   21.5466 C   0  0  2  0  0  0
  -24.8498  -28.9595   20.1060 C   0  0  0  0  0  0
  -22.7394  -29.4672   22.4929 C   0  0  0  0  0  0
  -18.0264  -28.1365   22.8480 C   0  0  0  0  0  0
  -24.1486  -36.7273   23.2647 C   0  0  0  0  0  0
  -25.9480  -30.8046   21.3726 C   0  0  0  0  0  0
  -26.0180  -29.4365   20.7137 C   0  0  0  0  0  0
  -27.1974  -28.6417   20.7124 C   0  0  0  0  0  0
  -26.0276  -26.9336   19.4520 C   0  0  0  0  0  0
  -24.8585  -27.7131   19.4661 C   0  0  0  0  0  0
  -23.6130  -29.8297   20.1605 C   0  0  0  0  0  0
  -25.4115  -36.3085   24.0338 C   0  0  1  0  0  0
  -20.5847  -28.3654   23.1268 C   0  0  2  0  0  0
  -20.6751  -26.9373   22.5401 C   0  0  0  0  0  0
  -19.5745  -26.6362   21.5190 C   0  0  0  0  0  0
  -18.1913  -26.7917   22.1585 C   0  0  0  0  0  0
  -19.1510  -28.8828   23.2885 C   0  0  0  0  0  0
  -18.9461  -30.1440   23.8904 C   0  0  0  0  0  0
  -17.6468  -30.6593   24.0546 C   0  0  0  0  0  0
  -25.9044  -34.9461   23.5108 C   0  0  0  0  0  0
  -16.5351  -29.9091   23.6334 C   0  0  0  0  0  0
  -16.7250  -28.6482   23.0377 C   0  0  0  0  0  0
  -26.4480  -31.6579   25.0708 C   0  0  0  0  0  0
  -25.3695  -31.3721   26.1415 C   0  0  0  0  0  0
  -27.0309  -30.3008   24.6136 C   0  0  0  0  0  0
  -27.6033  -32.4331   25.7470 C   0  0  0  0  0  0
  -27.5572  -37.1781   24.8465 C   0  0  0  0  0  0
  -21.4109  -29.3045   22.3656 N   0  0  0  0  0  0
  -26.4286  -37.3779   23.9407 N   0  0  0  0  0  0
  -24.6762  -31.0685   22.0972 N   0  0  0  0  0  0
  -23.4137  -28.8225   23.2991 O   0  0  0  0  0  0
  -28.3349  -26.5235   20.1850 O   0  0  0  0  0  0
  -26.5630  -34.8943   22.4696 O   0  0  0  0  0  0
  -23.5367  -32.1423   23.7393 O   0  0  0  0  0  0
  -27.2047  -19.4443   20.2084 C   0  0  0  0  0  0
  -29.2247  -20.4484   21.0395 C   0  0  0  0  0  0
  -26.7733  -20.7406   19.8663 C   0  0  0  0  0  0
  -28.4439  -19.2643   20.8539 C   0  0  0  0  0  0
  -28.7107  -21.7261   20.6564 C   0  0  0  0  0  0
  -28.5109  -18.3571   23.8631 C   0  0  0  0  0  0
  -29.5712  -16.8058   20.5669 C   0  0  0  0  0  0
  -30.5969  -17.2938   23.0058 C   0  0  0  0  0  0
  -28.7802  -17.8565   21.4536 C   0  0  1  0  0  0
  -30.4876  -15.7892   22.6703 C   0  0  1  0  0  0
  -29.0781  -18.3753   25.2812 C   0  0  0  0  0  0
  -29.5996  -15.0311   23.6771 C   0  0  0  0  0  0
  -28.2024  -25.0640   20.0057 C   0  0  0  0  0  0
  -28.8387  -24.1745   21.1323 C   0  0  0  0  0  0
  -27.4928  -21.8604   20.0963 N   0  0  0  0  0  0
  -29.2843  -17.9220   22.8369 N   0  0  0  0  0  0
  -30.0203  -15.5561   21.2812 N   0  0  0  0  0  0
  -27.3497  -18.7442   23.7064 O   0  0  0  0  0  0
  -29.4583  -22.8928   20.8047 O   0  0  0  0  0  0
  -31.4517  -12.4651   19.1390 H   0  0  0  0  0  0
  -30.3028  -11.3622   19.8397 H   0  0  0  0  0  0
  -29.7521  -11.8173   17.4221 H   0  0  0  0  0  0
  -29.6359  -13.5289   17.7710 H   0  0  0  0  0  0
  -27.8320  -11.3080   18.8035 H   0  0  0  0  0  0
  -27.3551  -12.6140   17.7600 H   0  0  0  0  0  0
  -27.6603  -14.2559   19.5258 H   0  0  0  0  0  0
  -28.6616  -12.0127   21.3477 H   0  0  0  0  0  0
  -28.3766  -13.6620   21.8081 H   0  0  0  0  0  0
  -25.2768   -9.5728   22.4740 H   0  0  0  0  0  0
  -24.0071   -7.4613   22.7437 H   0  0  0  0  0  0
  -21.0853   -8.8711   19.8930 H   0  0  0  0  0  0
  -22.3667  -10.9641   19.6153 H   0  0  0  0  0  0
  -21.1970   -7.6150   23.9750 H   0  0  0  0  0  0
  -21.1496   -6.0526   25.9103 H   0  0  0  0  0  0
  -22.0586   -2.7623   23.2865 H   0  0  0  0  0  0
  -22.4125  -11.9857   22.4894 H   0  0  0  0  0  0
  -21.1079  -13.1137   22.2628 H   0  0  0  0  0  0
  -24.6440  -15.8403   20.5019 H   0  0  0  0  0  0
  -26.2626  -15.6333   20.0719 H   0  0  0  0  0  0
  -26.7104  -32.5447   23.1076 H   0  0  0  0  0  0
  -24.9974  -33.9753   25.0365 H   0  0  0  0  0  0
  -22.7022  -31.3155   21.4066 H   0  0  0  0  0  0
  -23.3772  -35.9571   23.3319 H   0  0  0  0  0  0
  -24.3558  -36.8879   22.2052 H   0  0  0  0  0  0
  -23.7228  -37.6484   23.6653 H   0  0  0  0  0  0
  -26.0866  -31.5750   20.6112 H   0  0  0  0  0  0
  -26.8271  -30.8408   22.0054 H   0  0  0  0  0  0
  -28.0922  -29.0057   21.1991 H   0  0  0  0  0  0
  -25.9726  -26.0045   18.9057 H   0  0  0  0  0  0
  -23.9667  -27.3468   18.9761 H   0  0  0  0  0  0
  -23.7104  -30.6048   19.3996 H   0  0  0  0  0  0
  -22.7345  -29.2497   19.8673 H   0  0  0  0  0  0
  -25.1313  -36.1934   25.0831 H   0  0  0  0  0  0
  -20.9961  -28.3230   24.1379 H   0  0  0  0  0  0
  -20.5622  -26.2269   23.3598 H   0  0  0  0  0  0
  -21.6622  -26.7402   22.1214 H   0  0  0  0  0  0
  -19.6921  -25.6281   21.1209 H   0  0  0  0  0  0
  -19.6711  -27.3165   20.6722 H   0  0  0  0  0  0
  -17.4186  -26.6638   21.3999 H   0  0  0  0  0  0
  -18.0348  -26.0087   22.9008 H   0  0  0  0  0  0
  -19.7953  -30.7221   24.2276 H   0  0  0  0  0  0
  -17.5048  -31.6284   24.5120 H   0  0  0  0  0  0
  -15.5354  -30.3006   23.7706 H   0  0  0  0  0  0
  -15.8623  -28.0803   22.7153 H   0  0  0  0  0  0
  -24.5871  -30.7089   25.7703 H   0  0  0  0  0  0
  -24.8897  -32.2906   26.4821 H   0  0  0  0  0  0
  -25.8004  -30.8881   27.0182 H   0  0  0  0  0  0
  -26.2871  -29.6778   24.1175 H   0  0  0  0  0  0
  -27.4037  -29.7263   25.4612 H   0  0  0  0  0  0
  -27.8718  -30.4322   23.9332 H   0  0  0  0  0  0
  -27.2632  -33.3638   26.2030 H   0  0  0  0  0  0
  -28.3839  -32.6881   25.0288 H   0  0  0  0  0  0
  -28.0693  -31.8468   26.5395 H   0  0  0  0  0  0
  -28.2598  -38.0071   24.7524 H   0  0  0  0  0  0
  -28.1076  -36.2615   24.6302 H   0  0  0  0  0  0
  -27.2278  -37.1427   25.8863 H   0  0  0  0  0  0
  -20.9251  -29.8757   21.6872 H   0  0  0  0  0  0
  -26.0181  -38.2848   24.1442 H   0  0  0  0  0  0
  -26.5446  -18.6049   20.0294 H   0  0  0  0  0  0
  -30.1934  -20.3863   21.5159 H   0  0  0  0  0  0
  -25.8071  -20.8856   19.4055 H   0  0  0  0  0  0
  -30.4476  -17.2900   20.1333 H   0  0  0  0  0  0
  -28.9422  -16.5170   19.7238 H   0  0  0  0  0  0
  -31.3103  -17.7858   22.3431 H   0  0  0  0  0  0
  -31.0199  -17.4206   24.0013 H   0  0  0  0  0  0
  -27.8039  -17.3774   21.5604 H   0  0  0  0  0  0
  -31.5021  -15.3949   22.7848 H   0  0  0  0  0  0
  -30.0024  -18.9518   25.3162 H   0  0  0  0  0  0
  -29.2767  -17.3640   25.6317 H   0  0  0  0  0  0
  -28.3700  -18.8319   25.9735 H   0  0  0  0  0  0
  -28.5416  -15.2607   23.5454 H   0  0  0  0  0  0
  -29.8631  -15.2762   24.7048 H   0  0  0  0  0  0
  -29.7180  -13.9496   23.5824 H   0  0  0  0  0  0
  -27.1721  -24.7217   19.9421 H   0  0  0  0  0  0
  -28.6580  -24.8144   19.0482 H   0  0  0  0  0  0
  -28.1208  -24.0360   21.9430 H   0  0  0  0  0  0
  -29.6473  -24.7555   21.5756 H   0  0  0  0  0  0
  1 25  1  0  0  0
  1 30  2  0  0  0
  1 87  1  0  0  0
  2  3  1  0  0  0
  2 25  1  0  0  0
  2 90  1  0  0  0
  2 91  1  0  0  0
  3  4  1  0  0  0
  3 92  1  0  0  0
  3 93  1  0  0  0
  4  5  1  0  0  0
  4 94  1  0  0  0
  4 95  1  0  0  0
  5  6  1  0  0  0
  5 26  1  0  0  0
  5 96  1  0  0  0
  6 25  1  0  0  0
  6 97  1  0  0  0
  6 98  1  0  0  0
  7  8  2  0  0  0
  7 26  1  0  0  0
  7 29  1  0  0  0
  8  9  1  0  0  0
  8 22  1  0  0  0
  9 10  1  0  0  0
  9 27  2  0  0  0
 10 11  2  0  0  0
 10 15  1  0  0  0
 11 12  1  0  0  0
 11 99  1  0  0  0
 12 13  2  0  0  0
 12100  1  0  0  0
 13 14  1  0  0  0
 13 31  1  0  0  0
 14 15  2  0  0  0
 14101  1  0  0  0
 15102  1  0  0  0
 16 17  2  0  0  0
 16 21  1  0  0  0
 16 31  1  0  0  0
 17 18  1  0  0  0
 17103  1  0  0  0
 18 19  2  0  0  0
 18104  1  0  0  0
 19 20  1  0  0  0
 19 24  1  0  0  0
 20 21  2  0  0  0
 20105  1  0  0  0
 21 23  1  0  0  0
 22 28  1  0  0  0
 22 32  2  0  0  0
 26 27  1  0  0  0
 28106  1  0  0  0
 28107  1  0  0  0
 29108  1  0  0  0
 29109  1  0  0  0
 33 34  1  0  0  0
 33 66  1  0  0  0
 33 70  2  0  0  0
 34 36  1  0  0  0
 34 59  1  0  0  0
 34110  1  0  0  0
 35 44  2  0  0  0
 35 45  1  0  0  0
 35 68  1  0  0  0
 36 56  1  0  0  0
 36111  1  0  0  0
 37 39  1  0  0  0
 37 47  1  0  0  0
 37 66  1  0  0  0
 37112  1  0  0  0
 38 43  2  0  0  0
 38 46  1  0  0  0
 38 47  1  0  0  0
 39 64  1  0  0  0
 39 67  2  0  0  0
 40 52  1  0  0  0
 40 53  2  0  0  0
 40 58  1  0  0  0
 41113  1  0  0  0
 41114  1  0  0  0
 41115  1  0  0  0
 41 48  1  0  0  0
 42 43  1  0  0  0
 42 66  1  0  0  0
 42116  1  0  0  0
 42117  1  0  0  0
 43 44  1  0  0  0
 44118  1  0  0  0
 45 46  2  0  0  0
 45119  1  0  0  0
 46120  1  0  0  0
 47121  1  0  0  0
 47122  1  0  0  0
 48 56  1  0  0  0
 48 65  1  0  0  0
 48123  1  0  0  0
 49 50  1  0  0  0
 49 53  1  0  0  0
 49 64  1  0  0  0
 49124  1  0  0  0
 50 51  1  0  0  0
 50125  1  0  0  0
 50126  1  0  0  0
 51 52  1  0  0  0
 51127  1  0  0  0
 51128  1  0  0  0
 52129  1  0  0  0
 52130  1  0  0  0
 53 54  1  0  0  0
 54 55  2  0  0  0
 54131  1  0  0  0
 55 57  1  0  0  0
 55132  1  0  0  0
 56 69  2  0  0  0
 57 58  2  0  0  0
 57133  1  0  0  0
 58134  1  0  0  0
 59 60  1  0  0  0
 59 61  1  0  0  0
 59 62  1  0  0  0
 60135  1  0  0  0
 60136  1  0  0  0
 60137  1  0  0  0
 61138  1  0  0  0
 61139  1  0  0  0
 61140  1  0  0  0
 62141  1  0  0  0
 62142  1  0  0  0
 62143  1  0  0  0
 63 65  1  0  0  0
 63144  1  0  0  0
 63145  1  0  0  0
 63146  1  0  0  0
 64147  1  0  0  0
 65148  1  0  0  0
 68 83  1  0  0  0
 71 73  2  0  0  0
 71 74  1  0  0  0
 71149  1  0  0  0
 72 74  2  0  0  0
 72 75  1  0  0  0
 72150  1  0  0  0
 73 85  1  0  0  0
 73151  1  0  0  0
 74 79  1  0  0  0
 75 85  2  0  0  0
 75 89  1  0  0  0
 76 81  1  0  0  0
 76 86  1  0  0  0
 76 88  2  0  0  0
 77 79  1  0  0  0
 77 87  1  0  0  0
 77152  1  0  0  0
 77153  1  0  0  0
 78 80  1  0  0  0
 78 86  1  0  0  0
 78154  1  0  0  0
 78155  1  0  0  0
 79 86  1  0  0  0
 79156  1  0  0  0
 80 82  1  0  0  0
 80 87  1  0  0  0
 80157  1  0  0  0
 81158  1  0  0  0
 81159  1  0  0  0
 81160  1  0  0  0
 82161  1  0  0  0
 82162  1  0  0  0
 82163  1  0  0  0
 83 84  1  0  0  0
 83164  1  0  0  0
 83165  1  0  0  0
 84 89  1  0  0  0
 84166  1  0  0  0
 84167  1  0  0  0
M  ISO  4   1 100  68 101  83 101  87 100
M  END
> <chiral flag>
0

> <version>
0

> <s_m_source_file>
/data/baiqing/PycharmProjects/Reinvent-master-3.2/result/LINK_invent/BTK/process_docking_weight1_custom_sum_contain_oxygen_bond_distance_aromatic_linkinvent_7_9_3/rearranged_h_0146.sdf

> <i_m_source_file_index>
5

> <r_mmod_Potential_Energy-OPLS-2005>
58.7705230712891

> <r_mmod_Stretch_Energy-OPLS-2005>
71.9621047973633

> <r_mmod_Bend_Energy-OPLS-2005>
147.952529907227

> <r_mmod_Torsional_Energy-OPLS-2005>
395.739135742188

> <r_mmod_Improper_Torsional_Energy-OPLS-2005>
6.18421983718872

> <r_mmod_Van_der_Waal_Energy-OPLS-2005>
167.395843505859

> <r_mmod_Electrostatic_Energy-OPLS-2005>
-544.726928710938

> <r_mmod_Solvation_Energy-OPLS-2005>
-218.276885986328

> <b_mmod_Minimization_Converged-OPLS-2005>
0

> <r_mmod_RMS_Derivative-OPLS-2005>
4.21261930465698

$$$$
5
                    3D
 Structure written by MMmdl.
164173  0  0  1  0            999 V2000
  -30.6478  -14.5420   20.4890 C   0  0  0  0  0  0
  -30.4135  -12.3329   19.4323 C   0  0  0  0  0  0
  -29.4817  -12.4759   18.2074 C   0  0  0  0  0  0
  -28.0080  -12.3233   18.6278 C   0  0  0  0  0  0
  -27.6380  -13.1971   19.8583 C   0  0  2  0  0  0
  -28.6783  -13.0262   20.9872 C   0  0  0  0  0  0
  -25.2430  -13.8158   20.5602 C   0  0  0  0  0  0
  -24.1732  -13.0408   20.9236 C   0  0  0  0  0  0
  -24.6293  -11.6878   20.8794 C   0  0  0  0  0  0
  -23.8973  -10.4255   21.0453 C   0  0  0  0  0  0
  -24.3534   -9.4168   21.9236 C   0  0  0  0  0  0
  -23.6237   -8.2186   22.0802 C   0  0  0  0  0  0
  -22.4239   -8.0234   21.3558 C   0  0  0  0  0  0
  -21.9838   -9.0187   20.4660 C   0  0  0  0  0  0
  -22.7141  -10.2082   20.3086 C   0  0  0  0  0  0
  -21.6844   -6.0674   22.5258 C   0  0  0  0  0  0
  -21.4022   -6.5594   23.8183 C   0  0  0  0  0  0
  -21.3669   -5.6754   24.9166 C   0  0  0  0  0  0
  -21.6046   -4.3017   24.7214 C   0  0  0  0  0  0
  -21.8828   -3.8100   23.4347 C   0  0  0  0  0  0
  -21.9188   -4.6915   22.3389 C   0  0  0  0  0  0
  -22.7782  -13.5255   21.1864 C   0  0  0  0  0  0
  -22.1651   -4.2092   21.0973 F   0  0  0  0  0  0
  -21.5634   -3.4512   25.7737 F   0  0  0  0  0  0
  -29.9932  -13.3469   20.4162 N   0  0  0  0  0  0
  -26.2842  -12.9280   20.3270 N   0  0  0  0  0  0
  -25.9189  -11.6468   20.5770 N   0  0  0  0  0  0
  -22.0384  -12.8253   22.0428 N   0  0  0  0  0  0
  -25.4013  -15.1870   20.3841 N   0  0  0  0  0  0
  -31.8493  -14.6186   20.2165 O   0  0  0  0  0  0
  -21.6640   -6.8813   21.4218 O   0  0  0  0  0  0
  -22.3471  -14.5528   20.6689 O   0  0  0  0  0  0
  -24.6227  -31.8686   23.2138 C   0  0  0  0  0  0
  -25.9118  -32.4815   23.8420 C   0  0  1  0  0  0
  -27.2104  -27.3756   20.1093 C   0  0  0  0  0  0
  -25.5994  -33.8620   24.2344 N   0  0  0  0  0  0
  -23.4079  -30.4952   21.5587 C   0  0  2  0  0  0
  -24.8469  -28.9559   20.1231 C   0  0  0  0  0  0
  -22.7427  -29.4688   22.5020 C   0  0  0  0  0  0
  -18.0280  -28.1340   22.8457 C   0  0  0  0  0  0
  -24.1494  -36.7264   23.2617 C   0  0  0  0  0  0
  -25.9455  -30.8121   21.3795 C   0  0  0  0  0  0
  -26.0143  -29.4470   20.7169 C   0  0  0  0  0  0
  -27.2008  -28.6682   20.6975 C   0  0  0  0  0  0
  -26.0126  -26.9074   19.5179 C   0  0  0  0  0  0
  -24.8422  -27.6881   19.5213 C   0  0  0  0  0  0
  -23.6204  -29.8389   20.1736 C   0  0  0  0  0  0
  -25.4111  -36.3070   24.0322 C   0  0  1  0  0  0
  -20.5884  -28.3691   23.1333 C   0  0  2  0  0  0
  -20.6806  -26.9439   22.5443 C   0  0  0  0  0  0
  -19.5779  -26.6371   21.5268 C   0  0  0  0  0  0
  -18.1921  -26.7861   22.1655 C   0  0  0  0  0  0
  -19.1525  -28.8834   23.2869 C   0  0  0  0  0  0
  -18.9471  -30.1465   23.8832 C   0  0  0  0  0  0
  -17.6461  -30.6557   24.0523 C   0  0  0  0  0  0
  -25.9059  -34.9458   23.5092 C   0  0  0  0  0  0
  -16.5339  -29.9039   23.6306 C   0  0  0  0  0  0
  -16.7271  -28.6470   23.0310 C   0  0  0  0  0  0
  -26.4521  -31.6603   25.0755 C   0  0  0  0  0  0
  -25.3766  -31.3774   26.1499 C   0  0  0  0  0  0
  -27.0394  -30.3031   24.6212 C   0  0  0  0  0  0
  -27.6085  -32.4366   25.7511 C   0  0  0  0  0  0
  -27.5575  -37.1772   24.8463 C   0  0  0  0  0  0
  -21.4158  -29.3056   22.3745 N   0  0  0  0  0  0
  -26.4277  -37.3769   23.9434 N   0  0  0  0  0  0
  -24.6769  -31.0732   22.1080 N   0  0  0  0  0  0
  -23.4217  -28.8199   23.3025 O   0  0  0  0  0  0
  -28.3860  -26.6345   20.1263 O   0  0  0  0  0  0
  -26.5587  -34.8927   22.4643 O   0  0  0  0  0  0
  -23.5420  -32.1499   23.7483 O   0  0  0  0  0  0
  -28.0405  -18.6048   21.2403 C   0  0  0  0  0  0
  -28.0698  -20.0170   21.1582 C   0  0  0  0  0  0
  -30.4517  -19.9779   21.5782 C   0  0  0  0  0  0
  -29.2110  -17.8510   21.5014 C   0  0  0  0  0  0
  -30.4217  -18.5626   21.7051 C   0  0  0  0  0  0
  -29.2813  -20.7355   21.3195 C   0  0  0  0  0  0
  -31.2323  -17.1724   18.7359 C   0  0  0  0  0  0
  -30.5681  -16.1510   17.8466 C   0  0  0  0  0  0
  -29.9178  -16.5321   19.1656 C   0  0  0  0  0  0
  -31.7083  -17.8333   22.0761 C   0  0  0  0  0  0
  -29.1640  -16.2984   21.4780 C   0  0  0  0  0  0
  -28.3433  -24.4572   21.4006 C   0  0  0  0  0  0
  -28.3620  -25.1838   20.0268 C   0  0  0  0  0  0
  -28.1594  -22.9066   21.3477 C   0  0  0  0  0  0
  -29.8510  -15.6447   20.3256 N   0  0  0  0  0  0
  -29.3723  -22.1279   21.2363 O   0  0  0  0  0  0
  -31.4554  -12.4468   19.1284 H   0  0  0  0  0  0
  -30.3355  -11.3326   19.8609 H   0  0  0  0  0  0
  -29.7403  -11.7410   17.4415 H   0  0  0  0  0  0
  -29.6086  -13.4536   17.7437 H   0  0  0  0  0  0
  -27.8398  -11.2711   18.8611 H   0  0  0  0  0  0
  -27.3526  -12.5570   17.7884 H   0  0  0  0  0  0
  -27.6636  -14.2325   19.5301 H   0  0  0  0  0  0
  -28.6699  -11.9955   21.3450 H   0  0  0  0  0  0
  -28.4384  -13.6430   21.8553 H   0  0  0  0  0  0
  -25.2658   -9.5639   22.4831 H   0  0  0  0  0  0
  -23.9976   -7.4555   22.7477 H   0  0  0  0  0  0
  -21.0803   -8.8614   19.8924 H   0  0  0  0  0  0
  -22.3587  -10.9611   19.6197 H   0  0  0  0  0  0
  -21.2050   -7.6110   23.9663 H   0  0  0  0  0  0
  -21.1489   -6.0511   25.9053 H   0  0  0  0  0  0
  -22.0623   -2.7565   23.2852 H   0  0  0  0  0  0
  -22.3983  -11.9955   22.4864 H   0  0  0  0  0  0
  -21.0959  -13.1230   22.2509 H   0  0  0  0  0  0
  -24.5956  -15.8056   20.4261 H   0  0  0  0  0  0
  -26.2060  -15.6202   19.9460 H   0  0  0  0  0  0
  -26.7161  -32.5492   23.1162 H   0  0  0  0  0  0
  -25.0266  -33.9810   25.0562 H   0  0  0  0  0  0
  -22.6935  -31.3118   21.4270 H   0  0  0  0  0  0
  -23.3780  -35.9575   23.3292 H   0  0  0  0  0  0
  -24.3569  -36.8882   22.2026 H   0  0  0  0  0  0
  -23.7251  -37.6463   23.6648 H   0  0  0  0  0  0
  -26.0743  -31.5805   20.6168 H   0  0  0  0  0  0
  -26.8277  -30.8507   22.0076 H   0  0  0  0  0  0
  -28.1121  -29.0421   21.1460 H   0  0  0  0  0  0
  -25.9329  -25.9484   19.0313 H   0  0  0  0  0  0
  -23.9381  -27.3007   19.0742 H   0  0  0  0  0  0
  -23.7478  -30.6273   19.4297 H   0  0  0  0  0  0
  -22.7351  -29.2863   19.8588 H   0  0  0  0  0  0
  -25.1274  -36.1884   25.0804 H   0  0  0  0  0  0
  -20.9886  -28.3259   24.1495 H   0  0  0  0  0  0
  -20.5739  -26.2356   23.3662 H   0  0  0  0  0  0
  -21.6654  -26.7437   22.1163 H   0  0  0  0  0  0
  -19.6985  -25.6280   21.1354 H   0  0  0  0  0  0
  -19.6760  -27.3118   20.6738 H   0  0  0  0  0  0
  -17.4194  -26.6573   21.4029 H   0  0  0  0  0  0
  -18.0345  -26.0030   22.9113 H   0  0  0  0  0  0
  -19.7951  -30.7300   24.2183 H   0  0  0  0  0  0
  -17.4961  -31.6212   24.5139 H   0  0  0  0  0  0
  -15.5318  -30.2873   23.7658 H   0  0  0  0  0  0
  -15.8702  -28.0764   22.7027 H   0  0  0  0  0  0
  -24.5890  -30.7164   25.7865 H   0  0  0  0  0  0
  -24.8998  -32.2955   26.4931 H   0  0  0  0  0  0
  -25.8068  -30.8948   27.0266 H   0  0  0  0  0  0
  -26.2971  -29.6766   24.1230 H   0  0  0  0  0  0
  -27.4106  -29.7303   25.4721 H   0  0  0  0  0  0
  -27.8844  -30.4364   23.9455 H   0  0  0  0  0  0
  -27.2673  -33.3641   26.2124 H   0  0  0  0  0  0
  -28.3856  -32.6961   25.0317 H   0  0  0  0  0  0
  -28.0796  -31.8478   26.5397 H   0  0  0  0  0  0
  -28.2543  -38.0104   24.7518 H   0  0  0  0  0  0
  -28.1104  -36.2625   24.6240 H   0  0  0  0  0  0
  -27.2304  -37.1357   25.8866 H   0  0  0  0  0  0
  -20.9290  -29.8820   21.7032 H   0  0  0  0  0  0
  -26.0153  -38.2824   24.1502 H   0  0  0  0  0  0
  -27.0938  -18.1062   21.0859 H   0  0  0  0  0  0
  -27.1421  -20.5275   20.9494 H   0  0  0  0  0  0
  -31.3956  -20.4935   21.6973 H   0  0  0  0  0  0
  -31.1960  -18.2171   18.4282 H   0  0  0  0  0  0
  -32.1541  -16.8798   19.2322 H   0  0  0  0  0  0
  -31.0557  -15.1864   17.7464 H   0  0  0  0  0  0
  -30.1163  -16.5317   16.9326 H   0  0  0  0  0  0
  -29.0378  -17.1600   19.0291 H   0  0  0  0  0  0
  -32.4949  -17.9609   21.3303 H   0  0  0  0  0  0
  -31.5900  -16.7635   22.2092 H   0  0  0  0  0  0
  -32.0687  -18.2088   23.0319 H   0  0  0  0  0  0
  -28.1251  -15.9696   21.4909 H   0  0  0  0  0  0
  -29.5708  -15.9453   22.4255 H   0  0  0  0  0  0
  -27.4942  -24.8568   21.9616 H   0  0  0  0  0  0
  -29.2196  -24.7292   21.9892 H   0  0  0  0  0  0
  -29.2589  -24.8778   19.4892 H   0  0  0  0  0  0
  -27.5507  -24.7981   19.4177 H   0  0  0  0  0  0
  -27.4635  -22.6748   20.5399 H   0  0  0  0  0  0
  -27.6623  -22.5979   22.2724 H   0  0  0  0  0  0
  1 25  1  0  0  0
  1 30  2  0  0  0
  1 85  1  0  0  0
  2  3  1  0  0  0
  2 25  1  0  0  0
  2 87  1  0  0  0
  2 88  1  0  0  0
  3  4  1  0  0  0
  3 89  1  0  0  0
  3 90  1  0  0  0
  4  5  1  0  0  0
  4 91  1  0  0  0
  4 92  1  0  0  0
  5  6  1  0  0  0
  5 26  1  0  0  0
  5 93  1  0  0  0
  6 25  1  0  0  0
  6 94  1  0  0  0
  6 95  1  0  0  0
  7  8  2  0  0  0
  7 26  1  0  0  0
  7 29  1  0  0  0
  8  9  1  0  0  0
  8 22  1  0  0  0
  9 10  1  0  0  0
  9 27  2  0  0  0
 10 11  2  0  0  0
 10 15  1  0  0  0
 11 12  1  0  0  0
 11 96  1  0  0  0
 12 13  2  0  0  0
 12 97  1  0  0  0
 13 14  1  0  0  0
 13 31  1  0  0  0
 14 15  2  0  0  0
 14 98  1  0  0  0
 15 99  1  0  0  0
 16 17  2  0  0  0
 16 21  1  0  0  0
 16 31  1  0  0  0
 17 18  1  0  0  0
 17100  1  0  0  0
 18 19  2  0  0  0
 18101  1  0  0  0
 19 20  1  0  0  0
 19 24  1  0  0  0
 20 21  2  0  0  0
 20102  1  0  0  0
 21 23  1  0  0  0
 22 28  1  0  0  0
 22 32  2  0  0  0
 26 27  1  0  0  0
 28103  1  0  0  0
 28104  1  0  0  0
 29105  1  0  0  0
 29106  1  0  0  0
 33 34  1  0  0  0
 33 66  1  0  0  0
 33 70  2  0  0  0
 34 36  1  0  0  0
 34 59  1  0  0  0
 34107  1  0  0  0
 35 44  2  0  0  0
 35 45  1  0  0  0
 35 68  1  0  0  0
 36 56  1  0  0  0
 36108  1  0  0  0
 37 39  1  0  0  0
 37 47  1  0  0  0
 37 66  1  0  0  0
 37109  1  0  0  0
 38 43  2  0  0  0
 38 46  1  0  0  0
 38 47  1  0  0  0
 39 64  1  0  0  0
 39 67  2  0  0  0
 40 52  1  0  0  0
 40 53  2  0  0  0
 40 58  1  0  0  0
 41110  1  0  0  0
 41111  1  0  0  0
 41112  1  0  0  0
 41 48  1  0  0  0
 42 43  1  0  0  0
 42 66  1  0  0  0
 42113  1  0  0  0
 42114  1  0  0  0
 43 44  1  0  0  0
 44115  1  0  0  0
 45 46  2  0  0  0
 45116  1  0  0  0
 46117  1  0  0  0
 47118  1  0  0  0
 47119  1  0  0  0
 48 56  1  0  0  0
 48 65  1  0  0  0
 48120  1  0  0  0
 49 50  1  0  0  0
 49 53  1  0  0  0
 49 64  1  0  0  0
 49121  1  0  0  0
 50 51  1  0  0  0
 50122  1  0  0  0
 50123  1  0  0  0
 51 52  1  0  0  0
 51124  1  0  0  0
 51125  1  0  0  0
 52126  1  0  0  0
 52127  1  0  0  0
 53 54  1  0  0  0
 54 55  2  0  0  0
 54128  1  0  0  0
 55 57  1  0  0  0
 55129  1  0  0  0
 56 69  2  0  0  0
 57 58  2  0  0  0
 57130  1  0  0  0
 58131  1  0  0  0
 59 60  1  0  0  0
 59 61  1  0  0  0
 59 62  1  0  0  0
 60132  1  0  0  0
 60133  1  0  0  0
 60134  1  0  0  0
 61135  1  0  0  0
 61136  1  0  0  0
 61137  1  0  0  0
 62138  1  0  0  0
 62139  1  0  0  0
 62140  1  0  0  0
 63 65  1  0  0  0
 63141  1  0  0  0
 63142  1  0  0  0
 63143  1  0  0  0
 64144  1  0  0  0
 65145  1  0  0  0
 68 83  1  0  0  0
 71 72  2  0  0  0
 71 74  1  0  0  0
 71146  1  0  0  0
 72 76  1  0  0  0
 72147  1  0  0  0
 73 75  1  0  0  0
 73 76  2  0  0  0
 73148  1  0  0  0
 74 75  2  0  0  0
 74 81  1  0  0  0
 75 80  1  0  0  0
 76 86  1  0  0  0
 77 78  1  0  0  0
 77 79  1  0  0  0
 77149  1  0  0  0
 77150  1  0  0  0
 78 79  1  0  0  0
 78151  1  0  0  0
 78152  1  0  0  0
 79 85  1  0  0  0
 79153  1  0  0  0
 80154  1  0  0  0
 80155  1  0  0  0
 80156  1  0  0  0
 81 85  1  0  0  0
 81157  1  0  0  0
 81158  1  0  0  0
 82 83  1  0  0  0
 82 84  1  0  0  0
 82159  1  0  0  0
 82160  1  0  0  0
 83161  1  0  0  0
 83162  1  0  0  0
 84 86  1  0  0  0
 84163  1  0  0  0
 84164  1  0  0  0
M  ISO  4   1 100  68 101  83 101  85 100
M  END
> <chiral flag>
0

> <version>
0

> <s_m_source_file>
/data/baiqing/PycharmProjects/Reinvent-master-3.2/result/LINK_invent/BTK/process_docking_weight1_custom_sum_contain_oxygen_bond_distance_aromatic_linkinvent_7_9_3/rearranged_h_0146.sdf

> <i_m_source_file_index>
6

> <r_mmod_Potential_Energy-OPLS-2005>
235.736022949219

> <r_mmod_Stretch_Energy-OPLS-2005>
54.7649765014648

> <r_mmod_Bend_Energy-OPLS-2005>
121.993858337402

> <r_mmod_Torsional_Energy-OPLS-2005>
362.613739013672

> <r_mmod_Improper_Torsional_Energy-OPLS-2005>
20.0351161956787

> <r_mmod_Van_der_Waal_Energy-OPLS-2005>
157.444473266602

> <r_mmod_Electrostatic_Energy-OPLS-2005>
-318.373046875

> <r_mmod_Solvation_Energy-OPLS-2005>
-192.691360473633

> <b_mmod_Minimization_Converged-OPLS-2005>
0

> <r_mmod_RMS_Derivative-OPLS-2005>
7.10176134109497

$$$$
6
                    3D
 Structure written by MMmdl.
167176  0  0  1  0            999 V2000
  -30.6650  -14.4907   20.5983 C   0  0  0  0  0  0
  -30.4411  -12.3125   19.4334 C   0  0  0  0  0  0
  -29.5126  -12.5128   18.2151 C   0  0  0  0  0  0
  -28.0276  -12.3920   18.6192 C   0  0  0  0  0  0
  -27.6746  -13.2065   19.8922 C   0  0  2  0  0  0
  -28.7138  -12.9435   21.0039 C   0  0  0  0  0  0
  -25.2621  -13.8149   20.5708 C   0  0  0  0  0  0
  -24.1859  -13.0432   20.9181 C   0  0  0  0  0  0
  -24.6414  -11.6899   20.8767 C   0  0  0  0  0  0
  -23.9085  -10.4283   21.0438 C   0  0  0  0  0  0
  -24.3623   -9.4187   21.9195 C   0  0  0  0  0  0
  -23.6283   -8.2230   22.0770 C   0  0  0  0  0  0
  -22.4268   -8.0282   21.3566 C   0  0  0  0  0  0
  -21.9922   -9.0261   20.4682 C   0  0  0  0  0  0
  -22.7268  -10.2135   20.3083 C   0  0  0  0  0  0
  -21.6832   -6.0738   22.5270 C   0  0  0  0  0  0
  -21.4006   -6.5630   23.8218 C   0  0  0  0  0  0
  -21.3679   -5.6786   24.9170 C   0  0  0  0  0  0
  -21.6057   -4.3046   24.7225 C   0  0  0  0  0  0
  -21.8809   -3.8140   23.4329 C   0  0  0  0  0  0
  -21.9183   -4.6962   22.3402 C   0  0  0  0  0  0
  -22.7873  -13.5243   21.1815 C   0  0  0  0  0  0
  -22.1649   -4.2149   21.0974 F   0  0  0  0  0  0
  -21.5652   -3.4543   25.7740 F   0  0  0  0  0  0
  -30.0485  -13.2800   20.4703 N   0  0  0  0  0  0
  -26.3092  -12.9326   20.3447 N   0  0  0  0  0  0
  -25.9354  -11.6483   20.5809 N   0  0  0  0  0  0
  -22.0484  -12.8273   22.0380 N   0  0  0  0  0  0
  -25.4296  -15.1868   20.4114 N   0  0  0  0  0  0
  -31.7378  -14.7603   20.0468 O   0  0  0  0  0  0
  -21.6620   -6.8882   21.4244 O   0  0  0  0  0  0
  -22.3592  -14.5550   20.6656 O   0  0  0  0  0  0
  -24.6153  -31.8657   23.2108 C   0  0  0  0  0  0
  -25.9062  -32.4810   23.8375 C   0  0  1  0  0  0
  -27.2301  -27.4254   20.0811 C   0  0  0  0  0  0
  -25.5924  -33.8599   24.2323 N   0  0  0  0  0  0
  -23.4017  -30.4949   21.5456 C   0  0  2  0  0  0
  -24.8471  -28.9515   20.1170 C   0  0  0  0  0  0
  -22.7383  -29.4659   22.4901 C   0  0  0  0  0  0
  -18.0271  -28.1402   22.8495 C   0  0  0  0  0  0
  -24.1481  -36.7302   23.2633 C   0  0  0  0  0  0
  -25.9295  -30.8277   21.3657 C   0  0  0  0  0  0
  -26.0054  -29.4579   20.7188 C   0  0  0  0  0  0
  -27.1963  -28.6956   20.7066 C   0  0  0  0  0  0
  -26.0519  -26.9293   19.4839 C   0  0  0  0  0  0
  -24.8633  -27.6856   19.5036 C   0  0  0  0  0  0
  -23.6165  -29.8285   20.1590 C   0  0  0  0  0  0
  -25.4106  -36.3090   24.0329 C   0  0  1  0  0  0
  -20.5864  -28.3677   23.1301 C   0  0  2  0  0  0
  -20.6750  -26.9407   22.5406 C   0  0  0  0  0  0
  -19.5727  -26.6410   21.5201 C   0  0  0  0  0  0
  -18.1915  -26.7949   22.1623 C   0  0  0  0  0  0
  -19.1526  -28.8845   23.2919 C   0  0  0  0  0  0
  -18.9460  -30.1440   23.8954 C   0  0  0  0  0  0
  -17.6469  -30.6609   24.0573 C   0  0  0  0  0  0
  -25.9033  -34.9460   23.5114 C   0  0  0  0  0  0
  -16.5356  -29.9130   23.6309 C   0  0  0  0  0  0
  -16.7262  -28.6537   23.0347 C   0  0  0  0  0  0
  -26.4523  -31.6590   25.0686 C   0  0  0  0  0  0
  -25.3786  -31.3716   26.1427 C   0  0  0  0  0  0
  -27.0338  -30.3014   24.6083 C   0  0  0  0  0  0
  -27.6114  -32.4268   25.7469 C   0  0  0  0  0  0
  -27.5573  -37.1818   24.8461 C   0  0  0  0  0  0
  -21.4109  -29.3048   22.3675 N   0  0  0  0  0  0
  -26.4281  -37.3785   23.9409 N   0  0  0  0  0  0
  -24.6665  -31.0771   22.1007 N   0  0  0  0  0  0
  -23.4157  -28.8164   23.2913 O   0  0  0  0  0  0
  -28.4302  -26.7515   19.9978 O   0  0  0  0  0  0
  -26.5562  -34.8917   22.4651 O   0  0  0  0  0  0
  -23.5360  -32.1378   23.7543 O   0  0  0  0  0  0
  -29.1620  -23.3795   18.6169 C   0  0  0  0  0  0
  -28.6496  -24.6134   21.0751 C   0  0  0  0  0  0
  -29.4119  -22.6591   19.8034 C   0  0  0  0  0  0
  -28.7405  -24.7283   18.6495 C   0  0  0  0  0  0
  -29.0987  -23.2636   21.0451 C   0  0  0  0  0  0
  -28.5328  -25.3750   19.8940 C   0  0  0  0  0  0
  -29.6409  -20.1074   19.0321 C   0  0  0  0  0  0
  -30.1663  -21.3464   19.7086 C   0  0  2  0  0  0
  -29.8554  -20.0926   20.5345 C   0  0  2  0  0  0
  -28.5914  -25.4617   17.3293 C   0  0  0  0  0  0
  -28.8104  -23.0121   23.4159 C   0  0  0  0  0  0
  -31.0658  -17.7464   20.8858 C   0  0  0  0  0  0
  -29.8090  -16.8854   21.1832 C   0  0  0  0  0  0
  -30.9665  -19.2756   21.2410 C   0  0  1  0  0  0
  -29.9387  -15.4073   21.2720 N   0  0  0  0  0  0
  -32.2920  -19.9247   21.1329 N   0  3  0  0  0  0
  -29.3220  -22.5192   22.1839 O   0  0  0  0  0  0
  -31.4872  -12.4221   19.1399 H   0  0  0  0  0  0
  -30.3480  -11.2962   19.8187 H   0  0  0  0  0  0
  -29.7476  -11.7780   17.4429 H   0  0  0  0  0  0
  -29.6984  -13.4925   17.7702 H   0  0  0  0  0  0
  -27.8155  -11.3367   18.7883 H   0  0  0  0  0  0
  -27.3888  -12.7041   17.7945 H   0  0  0  0  0  0
  -27.7351  -14.2637   19.6299 H   0  0  0  0  0  0
  -28.6931  -11.8933   21.2998 H   0  0  0  0  0  0
  -28.4626  -13.4985   21.9073 H   0  0  0  0  0  0
  -25.2773   -9.5651   22.4758 H   0  0  0  0  0  0
  -23.9998   -7.4628   22.7483 H   0  0  0  0  0  0
  -21.0853   -8.8810   19.8979 H   0  0  0  0  0  0
  -22.3750  -10.9678   19.6190 H   0  0  0  0  0  0
  -21.1984   -7.6138   23.9731 H   0  0  0  0  0  0
  -21.1522   -6.0501   25.9086 H   0  0  0  0  0  0
  -22.0572   -2.7596   23.2828 H   0  0  0  0  0  0
  -22.4060  -11.9953   22.4838 H   0  0  0  0  0  0
  -21.1119  -13.1361   22.2581 H   0  0  0  0  0  0
  -24.6559  -15.8341   20.5106 H   0  0  0  0  0  0
  -26.2787  -15.6290   20.0806 H   0  0  0  0  0  0
  -26.7118  -32.5554   23.1139 H   0  0  0  0  0  0
  -25.0125  -33.9736   25.0505 H   0  0  0  0  0  0
  -22.6946  -31.3147   21.4048 H   0  0  0  0  0  0
  -23.3731  -35.9646   23.3297 H   0  0  0  0  0  0
  -24.3570  -36.8909   22.2045 H   0  0  0  0  0  0
  -23.7258  -37.6521   23.6636 H   0  0  0  0  0  0
  -26.0297  -31.5910   20.5940 H   0  0  0  0  0  0
  -26.8217  -30.8905   21.9766 H   0  0  0  0  0  0
  -28.0962  -29.0821   21.1650 H   0  0  0  0  0  0
  -26.0519  -25.9713   18.9848 H   0  0  0  0  0  0
  -23.9698  -27.2959   19.0357 H   0  0  0  0  0  0
  -23.7447  -30.6022   19.4004 H   0  0  0  0  0  0
  -22.7388  -29.2595   19.8504 H   0  0  0  0  0  0
  -25.1309  -36.1926   25.0826 H   0  0  0  0  0  0
  -21.0001  -28.3249   24.1405 H   0  0  0  0  0  0
  -20.5629  -26.2280   23.3589 H   0  0  0  0  0  0
  -21.6627  -26.7434   22.1216 H   0  0  0  0  0  0
  -19.6864  -25.6334   21.1195 H   0  0  0  0  0  0
  -19.6664  -27.3247   20.6751 H   0  0  0  0  0  0
  -17.4173  -26.6687   21.4037 H   0  0  0  0  0  0
  -18.0329  -26.0107   22.9038 H   0  0  0  0  0  0
  -19.7944  -30.7227   24.2369 H   0  0  0  0  0  0
  -17.5042  -31.6301   24.5164 H   0  0  0  0  0  0
  -15.5366  -30.3070   23.7607 H   0  0  0  0  0  0
  -15.8654  -28.0886   22.7042 H   0  0  0  0  0  0
  -24.6002  -30.7011   25.7785 H   0  0  0  0  0  0
  -24.8938  -32.2881   26.4797 H   0  0  0  0  0  0
  -25.8150  -30.8965   27.0219 H   0  0  0  0  0  0
  -26.2900  -29.6795   24.1094 H   0  0  0  0  0  0
  -27.4033  -29.7249   25.4580 H   0  0  0  0  0  0
  -27.8771  -30.4295   23.9281 H   0  0  0  0  0  0
  -27.2793  -33.3601   26.2024 H   0  0  0  0  0  0
  -28.3999  -32.6745   25.0346 H   0  0  0  0  0  0
  -28.0690  -31.8353   26.5418 H   0  0  0  0  0  0
  -28.2616  -38.0097   24.7515 H   0  0  0  0  0  0
  -28.1045  -36.2635   24.6293 H   0  0  0  0  0  0
  -27.2274  -37.1496   25.8857 H   0  0  0  0  0  0
  -20.9214  -29.8807   21.6970 H   0  0  0  0  0  0
  -26.0151  -38.2837   24.1466 H   0  0  0  0  0  0
  -29.3881  -22.9137   17.6660 H   0  0  0  0  0  0
  -28.4773  -25.1221   22.0112 H   0  0  0  0  0  0
  -30.3371  -19.5157   18.4404 H   0  0  0  0  0  0
  -28.6160  -20.1298   18.6660 H   0  0  0  0  0  0
  -31.1947  -21.5913   19.4584 H   0  0  0  0  0  0
  -28.9259  -20.1139   21.0998 H   0  0  0  0  0  0
  -28.3694  -26.5187   17.4647 H   0  0  0  0  0  0
  -27.7773  -25.0202   16.7537 H   0  0  0  0  0  0
  -29.5039  -25.3839   16.7356 H   0  0  0  0  0  0
  -29.3768  -23.8750   23.7676 H   0  0  0  0  0  0
  -28.8890  -22.2281   24.1704 H   0  0  0  0  0  0
  -27.7565  -23.2852   23.3350 H   0  0  0  0  0  0
  -31.9026  -17.3293   21.4457 H   0  0  0  0  0  0
  -31.3294  -17.6333   19.8344 H   0  0  0  0  0  0
  -29.3726  -17.2136   22.1272 H   0  0  0  0  0  0
  -29.0526  -17.1028   20.4265 H   0  0  0  0  0  0
  -30.7294  -19.3399   22.3048 H   0  0  0  0  0  0
  -29.1695  -14.9696   21.7605 H   0  0  0  0  0  0
  -32.6320  -19.9144   20.1870 H   0  0  0  0  0  0
  -32.9677  -19.4586   21.7137 H   0  0  0  0  0  0
  -32.2489  -20.8784   21.4485 H   0  0  0  0  0  0
  1 25  1  0  0  0
  1 30  2  0  0  0
  1 85  1  0  0  0
  2  3  1  0  0  0
  2 25  1  0  0  0
  2 88  1  0  0  0
  2 89  1  0  0  0
  3  4  1  0  0  0
  3 90  1  0  0  0
  3 91  1  0  0  0
  4  5  1  0  0  0
  4 92  1  0  0  0
  4 93  1  0  0  0
  5  6  1  0  0  0
  5 26  1  0  0  0
  5 94  1  0  0  0
  6 25  1  0  0  0
  6 95  1  0  0  0
  6 96  1  0  0  0
  7  8  2  0  0  0
  7 26  1  0  0  0
  7 29  1  0  0  0
  8  9  1  0  0  0
  8 22  1  0  0  0
  9 10  1  0  0  0
  9 27  2  0  0  0
 10 11  2  0  0  0
 10 15  1  0  0  0
 11 12  1  0  0  0
 11 97  1  0  0  0
 12 13  2  0  0  0
 12 98  1  0  0  0
 13 14  1  0  0  0
 13 31  1  0  0  0
 14 15  2  0  0  0
 14 99  1  0  0  0
 15100  1  0  0  0
 16 17  2  0  0  0
 16 21  1  0  0  0
 16 31  1  0  0  0
 17 18  1  0  0  0
 17101  1  0  0  0
 18 19  2  0  0  0
 18102  1  0  0  0
 19 20  1  0  0  0
 19 24  1  0  0  0
 20 21  2  0  0  0
 20103  1  0  0  0
 21 23  1  0  0  0
 22 28  1  0  0  0
 22 32  2  0  0  0
 26 27  1  0  0  0
 28104  1  0  0  0
 28105  1  0  0  0
 29106  1  0  0  0
 29107  1  0  0  0
 33 34  1  0  0  0
 33 66  1  0  0  0
 33 70  2  0  0  0
 34 36  1  0  0  0
 34 59  1  0  0  0
 34108  1  0  0  0
 35 44  2  0  0  0
 35 45  1  0  0  0
 35 68  1  0  0  0
 36 56  1  0  0  0
 36109  1  0  0  0
 37 39  1  0  0  0
 37 47  1  0  0  0
 37 66  1  0  0  0
 37110  1  0  0  0
 38 43  2  0  0  0
 38 46  1  0  0  0
 38 47  1  0  0  0
 39 64  1  0  0  0
 39 67  2  0  0  0
 40 52  1  0  0  0
 40 53  2  0  0  0
 40 58  1  0  0  0
 41111  1  0  0  0
 41112  1  0  0  0
 41113  1  0  0  0
 41 48  1  0  0  0
 42 43  1  0  0  0
 42 66  1  0  0  0
 42114  1  0  0  0
 42115  1  0  0  0
 43 44  1  0  0  0
 44116  1  0  0  0
 45 46  2  0  0  0
 45117  1  0  0  0
 46118  1  0  0  0
 47119  1  0  0  0
 47120  1  0  0  0
 48 56  1  0  0  0
 48 65  1  0  0  0
 48121  1  0  0  0
 49 50  1  0  0  0
 49 53  1  0  0  0
 49 64  1  0  0  0
 49122  1  0  0  0
 50 51  1  0  0  0
 50123  1  0  0  0
 50124  1  0  0  0
 51 52  1  0  0  0
 51125  1  0  0  0
 51126  1  0  0  0
 52127  1  0  0  0
 52128  1  0  0  0
 53 54  1  0  0  0
 54 55  2  0  0  0
 54129  1  0  0  0
 55 57  1  0  0  0
 55130  1  0  0  0
 56 69  2  0  0  0
 57 58  2  0  0  0
 57131  1  0  0  0
 58132  1  0  0  0
 59 60  1  0  0  0
 59 61  1  0  0  0
 59 62  1  0  0  0
 60133  1  0  0  0
 60134  1  0  0  0
 60135  1  0  0  0
 61136  1  0  0  0
 61137  1  0  0  0
 61138  1  0  0  0
 62139  1  0  0  0
 62140  1  0  0  0
 62141  1  0  0  0
 63 65  1  0  0  0
 63142  1  0  0  0
 63143  1  0  0  0
 63144  1  0  0  0
 64145  1  0  0  0
 65146  1  0  0  0
 68 76  1  0  0  0
 71 73  2  0  0  0
 71 74  1  0  0  0
 71147  1  0  0  0
 72 75  2  0  0  0
 72 76  1  0  0  0
 72148  1  0  0  0
 73 75  1  0  0  0
 73 78  1  0  0  0
 74 76  2  0  0  0
 74 80  1  0  0  0
 75 87  1  0  0  0
 77 78  1  0  0  0
 77149  1  0  0  0
 77150  1  0  0  0
 77 79  1  0  0  0
 78 79  1  0  0  0
 78151  1  0  0  0
 79 84  1  0  0  0
 79152  1  0  0  0
 80153  1  0  0  0
 80154  1  0  0  0
 80155  1  0  0  0
 81 87  1  0  0  0
 81156  1  0  0  0
 81157  1  0  0  0
 81158  1  0  0  0
 82 83  1  0  0  0
 82 84  1  0  0  0
 82159  1  0  0  0
 82160  1  0  0  0
 83 85  1  0  0  0
 83161  1  0  0  0
 83162  1  0  0  0
 84 86  1  0  0  0
 84163  1  0  0  0
 85164  1  0  0  0
 86165  1  0  0  0
 86166  1  0  0  0
 86167  1  0  0  0
M  CHG  1  86   1
M  ISO  4   1 100  68 101  76 101  85 100
M  END
> <chiral flag>
0

> <version>
0

> <s_m_source_file>
/data/baiqing/PycharmProjects/Reinvent-master-3.2/result/LINK_invent/BTK/process_docking_weight1_custom_sum_contain_oxygen_bond_distance_aromatic_linkinvent_7_9_3/rearranged_h_0146.sdf

> <i_m_source_file_index>
7

> <r_mmod_Potential_Energy-OPLS-2005>
-192.975280761719

> <r_mmod_Stretch_Energy-OPLS-2005>
43.8467674255371

> <r_mmod_Bend_Energy-OPLS-2005>
132.429092407227

> <r_mmod_Torsional_Energy-OPLS-2005>
285.400421142578

> <r_mmod_Improper_Torsional_Energy-OPLS-2005>
6.36466693878174

> <r_mmod_Van_der_Waal_Energy-OPLS-2005>
144.911041259766

> <r_mmod_Electrostatic_Energy-OPLS-2005>
-344.848968505859

> <r_mmod_Solvation_Energy-OPLS-2005>
-474.721038818359

> <b_mmod_Minimization_Converged-OPLS-2005>
0

> <r_mmod_RMS_Derivative-OPLS-2005>
4.04042720794678

$$$$
7
                    3D
 Structure written by MMmdl.
183192  0  0  1  0            999 V2000
  -30.6672  -14.6434   20.3568 C   0  0  0  0  0  0
  -30.4281  -12.3463   19.4766 C   0  0  0  0  0  0
  -29.5091  -12.3248   18.2367 C   0  0  0  0  0  0
  -28.0145  -12.2887   18.6392 C   0  0  0  0  0  0
  -27.6325  -13.1978   19.8457 C   0  0  2  0  0  0
  -28.6936  -13.1656   20.9664 C   0  0  0  0  0  0
  -25.2524  -13.8112   20.5759 C   0  0  0  0  0  0
  -24.1779  -13.0414   20.9255 C   0  0  0  0  0  0
  -24.6322  -11.6875   20.8825 C   0  0  0  0  0  0
  -23.9006  -10.4275   21.0456 C   0  0  0  0  0  0
  -24.3589   -9.4193   21.9223 C   0  0  0  0  0  0
  -23.6283   -8.2218   22.0772 C   0  0  0  0  0  0
  -22.4270   -8.0257   21.3547 C   0  0  0  0  0  0
  -21.9893   -9.0230   20.4649 C   0  0  0  0  0  0
  -22.7199  -10.2118   20.3084 C   0  0  0  0  0  0
  -21.6844   -6.0734   22.5287 C   0  0  0  0  0  0
  -21.3998   -6.5644   23.8216 C   0  0  0  0  0  0
  -21.3663   -5.6807   24.9188 C   0  0  0  0  0  0
  -21.6047   -4.3060   24.7232 C   0  0  0  0  0  0
  -21.8819   -3.8156   23.4359 C   0  0  0  0  0  0
  -21.9190   -4.6966   22.3409 C   0  0  0  0  0  0
  -22.7818  -13.5232   21.1899 C   0  0  0  0  0  0
  -22.1659   -4.2157   21.0990 F   0  0  0  0  0  0
  -21.5649   -3.4538   25.7742 F   0  0  0  0  0  0
  -29.9946  -13.4501   20.3499 N   0  0  0  0  0  0
  -26.2904  -12.9227   20.3384 N   0  0  0  0  0  0
  -25.9241  -11.6414   20.5865 N   0  0  0  0  0  0
  -22.0458  -12.8216   22.0437 N   0  0  0  0  0  0
  -25.4299  -15.1840   20.4167 N   0  0  0  0  0  0
  -31.8946  -14.6808   20.2507 O   0  0  0  0  0  0
  -21.6634   -6.8867   21.4236 O   0  0  0  0  0  0
  -22.3516  -14.5546   20.6744 O   0  0  0  0  0  0
  -24.6168  -31.8645   23.2048 C   0  0  0  0  0  0
  -25.9052  -32.4805   23.8355 C   0  0  1  0  0  0
  -27.2424  -27.3976   20.1111 C   0  0  0  0  0  0
  -25.5906  -33.8600   24.2289 N   0  0  0  0  0  0
  -23.4059  -30.4853   21.5451 C   0  0  2  0  0  0
  -24.8546  -28.9394   20.1149 C   0  0  0  0  0  0
  -22.7414  -29.4651   22.4976 C   0  0  0  0  0  0
  -18.0274  -28.1383   22.8486 C   0  0  0  0  0  0
  -24.1495  -36.7314   23.2638 C   0  0  0  0  0  0
  -25.9361  -30.8186   21.3615 C   0  0  0  0  0  0
  -26.0128  -29.4482   20.7126 C   0  0  0  0  0  0
  -27.2043  -28.6846   20.7061 C   0  0  0  0  0  0
  -26.0623  -26.9074   19.5054 C   0  0  0  0  0  0
  -24.8758  -27.6703   19.5084 C   0  0  0  0  0  0
  -23.6160  -29.8088   20.1630 C   0  0  0  0  0  0
  -25.4119  -36.3102   24.0329 C   0  0  1  0  0  0
  -20.5859  -28.3678   23.1311 C   0  0  2  0  0  0
  -20.6769  -26.9411   22.5423 C   0  0  0  0  0  0
  -19.5753  -26.6382   21.5217 C   0  0  0  0  0  0
  -18.1927  -26.7929   22.1617 C   0  0  0  0  0  0
  -19.1519  -28.8849   23.2894 C   0  0  0  0  0  0
  -18.9452  -30.1453   23.8906 C   0  0  0  0  0  0
  -17.6452  -30.6595   24.0560 C   0  0  0  0  0  0
  -25.9048  -34.9468   23.5112 C   0  0  0  0  0  0
  -16.5341  -29.9094   23.6325 C   0  0  0  0  0  0
  -16.7258  -28.6508   23.0346 C   0  0  0  0  0  0
  -26.4470  -31.6595   25.0700 C   0  0  0  0  0  0
  -25.3720  -31.3697   26.1440 C   0  0  0  0  0  0
  -27.0329  -30.3036   24.6104 C   0  0  0  0  0  0
  -27.6036  -32.4323   25.7480 C   0  0  0  0  0  0
  -27.5591  -37.1808   24.8460 C   0  0  0  0  0  0
  -21.4137  -29.3040   22.3716 N   0  0  0  0  0  0
  -26.4300  -37.3793   23.9410 N   0  0  0  0  0  0
  -24.6713  -31.0715   22.0960 N   0  0  0  0  0  0
  -23.4177  -28.8205   23.3042 O   0  0  0  0  0  0
  -28.4302  -26.6819   20.1671 O   0  0  0  0  0  0
  -26.5613  -34.8929   22.4676 O   0  0  0  0  0  0
  -23.5359  -32.1416   23.7430 O   0  0  0  0  0  0
  -30.3581  -16.6185   17.8946 C   0  0  0  0  0  0
  -31.1211  -21.2222   21.9099 C   0  0  0  0  0  0
  -29.3526  -15.8784   18.7583 C   0  0  0  0  0  0
  -31.4828  -19.7423   21.8439 C   0  0  0  0  0  0
  -30.7320  -17.7485   18.8263 C   0  0  1  0  0  0
  -29.6687  -20.7648   21.6897 C   0  0  1  0  0  0
  -30.5439  -17.1825   20.2687 C   0  0  1  0  0  0
  -28.2158  -18.2432   20.8433 C   0  0  0  0  0  0
  -34.0237  -20.6817   17.9162 C   0  0  0  0  0  0
  -34.7799  -18.3543   17.2168 C   0  0  0  0  0  0
  -28.6735  -21.6720   20.8875 C   0  0  0  0  0  0
  -28.1249  -24.1385   20.4300 C   0  0  0  0  0  0
  -32.2771  -18.9230   17.2448 C   0  0  0  0  0  0
  -28.5856  -25.3694   19.5742 C   0  0  0  0  0  0
  -29.7245  -18.2189   21.1545 C   0  0  2  0  0  0
  -33.7146  -19.4516   17.0469 C   0  0  0  0  0  0
  -29.9429  -15.7977   20.1102 N   0  0  0  0  0  0
  -30.2901  -19.5936   21.0042 N   0  0  0  0  0  0
  -32.0659  -18.3459   18.5921 N   0  3  0  0  0  0
  -29.1643  -23.0612   20.6007 N   0  3  0  0  0  0
  -31.4713  -12.4433   19.1687 H   0  0  0  0  0  0
  -30.3611  -11.4008   20.0159 H   0  0  0  0  0  0
  -29.7314  -11.4335   17.6487 H   0  0  0  0  0  0
  -29.7381  -13.1404   17.5577 H   0  0  0  0  0  0
  -27.7950  -11.2509   18.8935 H   0  0  0  0  0  0
  -27.3868  -12.5199   17.7771 H   0  0  0  0  0  0
  -27.5777  -14.2098   19.4658 H   0  0  0  0  0  0
  -28.7097  -12.1956   21.4640 H   0  0  0  0  0  0
  -28.4620  -13.9099   21.7305 H   0  0  0  0  0  0
  -25.2749   -9.5689   22.4783 H   0  0  0  0  0  0
  -24.0012   -7.4609   22.7490 H   0  0  0  0  0  0
  -21.0838   -8.8743   19.8937 H   0  0  0  0  0  0
  -22.3672  -10.9669   19.6195 H   0  0  0  0  0  0
  -21.1964   -7.6153   23.9713 H   0  0  0  0  0  0
  -21.1498   -6.0540   25.9086 H   0  0  0  0  0  0
  -22.0593   -2.7616   23.2855 H   0  0  0  0  0  0
  -22.4064  -11.9840   22.4763 H   0  0  0  0  0  0
  -21.1075  -13.1235   22.2673 H   0  0  0  0  0  0
  -24.6729  -15.8477   20.5338 H   0  0  0  0  0  0
  -26.2949  -15.6156   20.1195 H   0  0  0  0  0  0
  -26.7123  -32.5498   23.1120 H   0  0  0  0  0  0
  -25.0062  -33.9754   25.0436 H   0  0  0  0  0  0
  -22.6963  -31.3031   21.4021 H   0  0  0  0  0  0
  -23.3769  -35.9630   23.3263 H   0  0  0  0  0  0
  -24.3596  -36.8979   22.2064 H   0  0  0  0  0  0
  -23.7237  -37.6494   23.6691 H   0  0  0  0  0  0
  -26.0519  -31.5815   20.5903 H   0  0  0  0  0  0
  -26.8226  -30.8742   21.9815 H   0  0  0  0  0  0
  -28.0960  -29.0741   21.1773 H   0  0  0  0  0  0
  -26.0321  -25.9342   19.0389 H   0  0  0  0  0  0
  -23.9824  -27.2704   19.0483 H   0  0  0  0  0  0
  -23.7228  -30.5786   19.3981 H   0  0  0  0  0  0
  -22.7397  -29.2263   19.8726 H   0  0  0  0  0  0
  -25.1294  -36.1951   25.0819 H   0  0  0  0  0  0
  -20.9948  -28.3256   24.1430 H   0  0  0  0  0  0
  -20.5677  -26.2280   23.3612 H   0  0  0  0  0  0
  -21.6643  -26.7474   22.1207 H   0  0  0  0  0  0
  -19.6915  -25.6295   21.1244 H   0  0  0  0  0  0
  -19.6688  -27.3182   20.6738 H   0  0  0  0  0  0
  -17.4201  -26.6683   21.4010 H   0  0  0  0  0  0
  -18.0313  -26.0065   22.9005 H   0  0  0  0  0  0
  -19.7939  -30.7265   24.2262 H   0  0  0  0  0  0
  -17.5024  -31.6273   24.5167 H   0  0  0  0  0  0
  -15.5343  -30.3007   23.7655 H   0  0  0  0  0  0
  -15.8653  -28.0832   22.7060 H   0  0  0  0  0  0
  -24.5889  -30.7063   25.7753 H   0  0  0  0  0  0
  -24.8923  -32.2856   26.4892 H   0  0  0  0  0  0
  -25.8064  -30.8845   27.0190 H   0  0  0  0  0  0
  -26.2890  -29.6771   24.1169 H   0  0  0  0  0  0
  -27.4112  -29.7300   25.4578 H   0  0  0  0  0  0
  -27.8712  -30.4360   23.9260 H   0  0  0  0  0  0
  -27.2641  -33.3620   26.2054 H   0  0  0  0  0  0
  -28.3846  -32.6881   25.0309 H   0  0  0  0  0  0
  -28.0694  -31.8442   26.5398 H   0  0  0  0  0  0
  -28.2580  -38.0135   24.7558 H   0  0  0  0  0  0
  -28.1119  -36.2669   24.6234 H   0  0  0  0  0  0
  -27.2307  -37.1386   25.8859 H   0  0  0  0  0  0
  -20.9300  -29.8757   21.6930 H   0  0  0  0  0  0
  -26.0183  -38.2862   24.1424 H   0  0  0  0  0  0
  -29.9318  -16.9645   16.9515 H   0  0  0  0  0  0
  -31.2120  -15.9768   17.6708 H   0  0  0  0  0  0
  -31.5528  -21.7911   21.0831 H   0  0  0  0  0  0
  -31.3132  -21.6960   22.8733 H   0  0  0  0  0  0
  -29.1318  -14.9389   18.2778 H   0  0  0  0  0  0
  -28.4059  -16.4184   18.7961 H   0  0  0  0  0  0
  -31.3799  -19.2293   22.8041 H   0  0  0  0  0  0
  -32.4036  -19.4950   21.3160 H   0  0  0  0  0  0
  -29.9994  -18.5372   18.6455 H   0  0  0  0  0  0
  -29.2421  -20.4203   22.6364 H   0  0  0  0  0  0
  -31.5239  -17.0796   20.7362 H   0  0  0  0  0  0
  -27.7763  -17.2532   20.9558 H   0  0  0  0  0  0
  -28.0012  -18.5921   19.8334 H   0  0  0  0  0  0
  -27.6803  -18.8903   21.5360 H   0  0  0  0  0  0
  -35.0048  -21.0923   17.6736 H   0  0  0  0  0  0
  -34.0225  -20.4462   18.9804 H   0  0  0  0  0  0
  -33.2928  -21.4743   17.7492 H   0  0  0  0  0  0
  -35.7650  -18.7228   16.9283 H   0  0  0  0  0  0
  -34.5638  -17.4894   16.5876 H   0  0  0  0  0  0
  -34.8565  -18.0073   18.2477 H   0  0  0  0  0  0
  -27.7502  -21.7563   21.4628 H   0  0  0  0  0  0
  -28.3849  -21.2000   19.9465 H   0  0  0  0  0  0
  -27.2412  -23.7102   19.9564 H   0  0  0  0  0  0
  -27.8041  -24.4710   21.4174 H   0  0  0  0  0  0
  -32.0742  -18.1697   16.4814 H   0  0  0  0  0  0
  -31.5574  -19.7251   17.0736 H   0  0  0  0  0  0
  -28.1407  -25.3397   18.5797 H   0  0  0  0  0  0
  -29.6555  -25.2768   19.3893 H   0  0  0  0  0  0
  -29.8077  -17.9028   22.1976 H   0  0  0  0  0  0
  -33.7757  -19.7850   16.0099 H   0  0  0  0  0  0
  -32.7736  -17.6480   18.7572 H   0  0  0  0  0  0
  -32.1871  -19.0820   19.2709 H   0  0  0  0  0  0
  -29.7358  -23.0055   19.7728 H   0  0  0  0  0  0
  -29.7715  -23.3389   21.3561 H   0  0  0  0  0  0
  1 25  1  0  0  0
  1 30  2  0  0  0
  1 87  1  0  0  0
  2  3  1  0  0  0
  2 25  1  0  0  0
  2 91  1  0  0  0
  2 92  1  0  0  0
  3  4  1  0  0  0
  3 93  1  0  0  0
  3 94  1  0  0  0
  4  5  1  0  0  0
  4 95  1  0  0  0
  4 96  1  0  0  0
  5  6  1  0  0  0
  5 26  1  0  0  0
  5 97  1  0  0  0
  6 25  1  0  0  0
  6 98  1  0  0  0
  6 99  1  0  0  0
  7  8  2  0  0  0
  7 26  1  0  0  0
  7 29  1  0  0  0
  8  9  1  0  0  0
  8 22  1  0  0  0
  9 10  1  0  0  0
  9 27  2  0  0  0
 10 11  2  0  0  0
 10 15  1  0  0  0
 11 12  1  0  0  0
 11100  1  0  0  0
 12 13  2  0  0  0
 12101  1  0  0  0
 13 14  1  0  0  0
 13 31  1  0  0  0
 14 15  2  0  0  0
 14102  1  0  0  0
 15103  1  0  0  0
 16 17  2  0  0  0
 16 21  1  0  0  0
 16 31  1  0  0  0
 17 18  1  0  0  0
 17104  1  0  0  0
 18 19  2  0  0  0
 18105  1  0  0  0
 19 20  1  0  0  0
 19 24  1  0  0  0
 20 21  2  0  0  0
 20106  1  0  0  0
 21 23  1  0  0  0
 22 28  1  0  0  0
 22 32  2  0  0  0
 26 27  1  0  0  0
 28107  1  0  0  0
 28108  1  0  0  0
 29109  1  0  0  0
 29110  1  0  0  0
 33 34  1  0  0  0
 33 66  1  0  0  0
 33 70  2  0  0  0
 34 36  1  0  0  0
 34 59  1  0  0  0
 34111  1  0  0  0
 35 44  2  0  0  0
 35 45  1  0  0  0
 35 68  1  0  0  0
 36 56  1  0  0  0
 36112  1  0  0  0
 37 39  1  0  0  0
 37 47  1  0  0  0
 37 66  1  0  0  0
 37113  1  0  0  0
 38 43  2  0  0  0
 38 46  1  0  0  0
 38 47  1  0  0  0
 39 64  1  0  0  0
 39 67  2  0  0  0
 40 52  1  0  0  0
 40 53  2  0  0  0
 40 58  1  0  0  0
 41114  1  0  0  0
 41115  1  0  0  0
 41116  1  0  0  0
 41 48  1  0  0  0
 42 43  1  0  0  0
 42 66  1  0  0  0
 42117  1  0  0  0
 42118  1  0  0  0
 43 44  1  0  0  0
 44119  1  0  0  0
 45 46  2  0  0  0
 45120  1  0  0  0
 46121  1  0  0  0
 47122  1  0  0  0
 47123  1  0  0  0
 48 56  1  0  0  0
 48 65  1  0  0  0
 48124  1  0  0  0
 49 50  1  0  0  0
 49 53  1  0  0  0
 49 64  1  0  0  0
 49125  1  0  0  0
 50 51  1  0  0  0
 50126  1  0  0  0
 50127  1  0  0  0
 51 52  1  0  0  0
 51128  1  0  0  0
 51129  1  0  0  0
 52130  1  0  0  0
 52131  1  0  0  0
 53 54  1  0  0  0
 54 55  2  0  0  0
 54132  1  0  0  0
 55 57  1  0  0  0
 55133  1  0  0  0
 56 69  2  0  0  0
 57 58  2  0  0  0
 57134  1  0  0  0
 58135  1  0  0  0
 59 60  1  0  0  0
 59 61  1  0  0  0
 59 62  1  0  0  0
 60136  1  0  0  0
 60137  1  0  0  0
 60138  1  0  0  0
 61139  1  0  0  0
 61140  1  0  0  0
 61141  1  0  0  0
 62142  1  0  0  0
 62143  1  0  0  0
 62144  1  0  0  0
 63 65  1  0  0  0
 63145  1  0  0  0
 63146  1  0  0  0
 63147  1  0  0  0
 64148  1  0  0  0
 65149  1  0  0  0
 68 84  1  0  0  0
 71 73  1  0  0  0
 71 75  1  0  0  0
 71150  1  0  0  0
 71151  1  0  0  0
 72 74  1  0  0  0
 72 76  1  0  0  0
 72152  1  0  0  0
 72153  1  0  0  0
 73 87  1  0  0  0
 73154  1  0  0  0
 73155  1  0  0  0
 74 88  1  0  0  0
 74156  1  0  0  0
 74157  1  0  0  0
 75 77  1  0  0  0
 75 89  1  0  0  0
 75158  1  0  0  0
 76 81  1  0  0  0
 76 88  1  0  0  0
 76159  1  0  0  0
 77 85  1  0  0  0
 77 87  1  0  0  0
 77160  1  0  0  0
 78161  1  0  0  0
 78162  1  0  0  0
 78163  1  0  0  0
 78 85  1  0  0  0
 79164  1  0  0  0
 79165  1  0  0  0
 79166  1  0  0  0
 79 86  1  0  0  0
 80 86  1  0  0  0
 80167  1  0  0  0
 80168  1  0  0  0
 80169  1  0  0  0
 81 90  1  0  0  0
 81170  1  0  0  0
 81171  1  0  0  0
 82 84  1  0  0  0
 82 90  1  0  0  0
 82172  1  0  0  0
 82173  1  0  0  0
 83 86  1  0  0  0
 83 89  1  0  0  0
 83174  1  0  0  0
 83175  1  0  0  0
 84176  1  0  0  0
 84177  1  0  0  0
 85 88  1  0  0  0
 85178  1  0  0  0
 86179  1  0  0  0
 89180  1  0  0  0
 89181  1  0  0  0
 90182  1  0  0  0
 90183  1  0  0  0
M  CHG  2  89   1  90   1
M  ISO  4   1 100  68 101  84 101  87 100
M  END
> <chiral flag>
0

> <version>
0

> <s_m_source_file>
/data/baiqing/PycharmProjects/Reinvent-master-3.2/result/LINK_invent/BTK/process_docking_weight1_custom_sum_contain_oxygen_bond_distance_aromatic_linkinvent_7_9_3/rearranged_h_0146.sdf

> <i_m_source_file_index>
8

> <r_mmod_Potential_Energy-OPLS-2005>
95.1535110473633

> <r_mmod_Stretch_Energy-OPLS-2005>
68.6811141967773

> <r_mmod_Bend_Energy-OPLS-2005>
206.553588867188

> <r_mmod_Torsional_Energy-OPLS-2005>
442.634582519531

> <r_mmod_Improper_Torsional_Energy-OPLS-2005>
15.034478187561

> <r_mmod_Van_der_Waal_Energy-OPLS-2005>
134.608032226562

> <r_mmod_Electrostatic_Energy-OPLS-2005>
25.9260883331299

> <r_mmod_Solvation_Energy-OPLS-2005>
-853.371398925781

> <b_mmod_Minimization_Converged-OPLS-2005>
0

> <r_mmod_RMS_Derivative-OPLS-2005>
2.15531086921692

$$$$
8
                    3D
 Structure written by MMmdl.
166175  0  0  1  0            999 V2000
  -30.8245  -14.3390   20.7044 C   0  0  0  0  0  0
  -30.4159  -12.2951   19.3922 C   0  0  0  0  0  0
  -29.4834  -12.5395   18.1945 C   0  0  0  0  0  0
  -28.0095  -12.4029   18.6164 C   0  0  0  0  0  0
  -27.6741  -13.2169   19.8927 C   0  0  2  0  0  0
  -28.7179  -12.9728   21.0097 C   0  0  0  0  0  0
  -25.2624  -13.8204   20.5730 C   0  0  0  0  0  0
  -24.1874  -13.0459   20.9199 C   0  0  0  0  0  0
  -24.6455  -11.6931   20.8787 C   0  0  0  0  0  0
  -23.9123  -10.4305   21.0435 C   0  0  0  0  0  0
  -24.3645   -9.4200   21.9214 C   0  0  0  0  0  0
  -23.6303   -8.2246   22.0762 C   0  0  0  0  0  0
  -22.4291   -8.0305   21.3547 C   0  0  0  0  0  0
  -21.9944   -9.0295   20.4650 C   0  0  0  0  0  0
  -22.7291  -10.2166   20.3080 C   0  0  0  0  0  0
  -21.6850   -6.0762   22.5272 C   0  0  0  0  0  0
  -21.4008   -6.5647   23.8211 C   0  0  0  0  0  0
  -21.3657   -5.6795   24.9166 C   0  0  0  0  0  0
  -21.6031   -4.3061   24.7211 C   0  0  0  0  0  0
  -21.8820   -3.8162   23.4331 C   0  0  0  0  0  0
  -21.9184   -4.6989   22.3391 C   0  0  0  0  0  0
  -22.7882  -13.5242   21.1845 C   0  0  0  0  0  0
  -22.1658   -4.2178   21.0973 F   0  0  0  0  0  0
  -21.5627   -3.4537   25.7723 F   0  0  0  0  0  0
  -30.0642  -13.2374   20.4672 N   0  0  0  0  0  0
  -26.3095  -12.9393   20.3472 N   0  0  0  0  0  0
  -25.9390  -11.6532   20.5837 N   0  0  0  0  0  0
  -22.0489  -12.8255   22.0388 N   0  0  0  0  0  0
  -25.4344  -15.1922   20.4139 N   0  0  0  0  0  0
  -31.7835  -14.6584   19.9980 O   0  0  0  0  0  0
  -21.6637   -6.8914   21.4248 O   0  0  0  0  0  0
  -22.3570  -14.5538   20.6678 O   0  0  0  0  0  0
  -24.6145  -31.8680   23.2139 C   0  0  0  0  0  0
  -25.9049  -32.4808   23.8406 C   0  0  1  0  0  0
  -27.2179  -27.4506   20.0678 C   0  0  0  0  0  0
  -25.5926  -33.8615   24.2331 N   0  0  0  0  0  0
  -23.3957  -30.5017   21.5540 C   0  0  2  0  0  0
  -24.8304  -28.9751   20.1077 C   0  0  0  0  0  0
  -22.7390  -29.4682   22.4997 C   0  0  0  0  0  0
  -18.0279  -28.1343   22.8467 C   0  0  0  0  0  0
  -24.1497  -36.7339   23.2638 C   0  0  0  0  0  0
  -25.9257  -30.8394   21.3609 C   0  0  0  0  0  0
  -25.9943  -29.4764   20.7028 C   0  0  0  0  0  0
  -27.1810  -28.7154   20.6928 C   0  0  0  0  0  0
  -26.0341  -26.9693   19.4502 C   0  0  0  0  0  0
  -24.8458  -27.7176   19.4825 C   0  0  0  0  0  0
  -23.5935  -29.8430   20.1657 C   0  0  0  0  0  0
  -25.4119  -36.3115   24.0338 C   0  0  1  0  0  0
  -20.5864  -28.3605   23.1322 C   0  0  2  0  0  0
  -20.6756  -26.9360   22.5399 C   0  0  0  0  0  0
  -19.5734  -26.6347   21.5206 C   0  0  0  0  0  0
  -18.1907  -26.7893   22.1610 C   0  0  0  0  0  0
  -19.1528  -28.8798   23.2888 C   0  0  0  0  0  0
  -18.9470  -30.1412   23.8877 C   0  0  0  0  0  0
  -17.6476  -30.6534   24.0548 C   0  0  0  0  0  0
  -25.9044  -34.9460   23.5136 C   0  0  0  0  0  0
  -16.5360  -29.9020   23.6334 C   0  0  0  0  0  0
  -16.7286  -28.6463   23.0313 C   0  0  0  0  0  0
  -26.4486  -31.6566   25.0717 C   0  0  0  0  0  0
  -25.3749  -31.3664   26.1477 C   0  0  0  0  0  0
  -27.0343  -30.3033   24.6031 C   0  0  0  0  0  0
  -27.6038  -32.4297   25.7497 C   0  0  0  0  0  0
  -27.5589  -37.1822   24.8467 C   0  0  0  0  0  0
  -21.4126  -29.3008   22.3733 N   0  0  0  0  0  0
  -26.4315  -37.3776   23.9395 N   0  0  0  0  0  0
  -24.6646  -31.0804   22.1021 N   0  0  0  0  0  0
  -23.4186  -28.8176   23.2988 O   0  0  0  0  0  0
  -28.4082  -26.7550   20.0843 O   0  0  0  0  0  0
  -26.5586  -34.8883   22.4686 O   0  0  0  0  0  0
  -23.5352  -32.1433   23.7558 O   0  0  0  0  0  0
  -27.8880  -22.4549   21.1206 C   0  0  0  0  0  0
  -29.6705  -22.2580   22.7327 C   0  0  0  0  0  0
  -27.5108  -21.1445   21.4380 C   0  0  0  0  0  0
  -29.0099  -23.0254   21.7562 C   0  0  0  0  0  0
  -29.2211  -20.9480   22.9891 C   0  0  0  0  0  0
  -29.1257  -19.4524   25.0760 C   0  0  0  0  0  0
  -29.6249  -18.0174   25.2353 C   0  0  0  0  0  0
  -29.9709  -20.0111   23.9186 C   0  0  1  0  0  0
  -30.0091  -17.6048   23.8085 C   0  0  2  0  0  0
  -31.1209  -16.5381   23.7693 C   0  0  0  0  0  0
  -31.4840  -16.0272   22.3609 C   0  0  0  0  0  0
  -28.4260  -25.4302   19.5611 C   0  0  0  0  0  0
  -29.6296  -24.6433   20.1041 C   0  0  0  0  0  0
  -28.1860  -20.3865   22.3248 N   0  0  0  0  0  0
  -30.5709  -15.0023   21.8419 N   0  0  0  0  0  0
  -30.3939  -18.8541   23.1234 N   0  3  0  0  0  0
  -29.4831  -24.2902   21.4836 O   0  0  0  0  0  0
  -31.4577  -12.3869   19.0791 H   0  0  0  0  0  0
  -30.3138  -11.2707   19.7528 H   0  0  0  0  0  0
  -29.7071  -11.8333   17.3950 H   0  0  0  0  0  0
  -29.6635  -13.5341   17.7852 H   0  0  0  0  0  0
  -27.8060  -11.3443   18.7863 H   0  0  0  0  0  0
  -27.3583  -12.7105   17.7983 H   0  0  0  0  0  0
  -27.7292  -14.2732   19.6242 H   0  0  0  0  0  0
  -28.6716  -11.9390   21.3535 H   0  0  0  0  0  0
  -28.4817  -13.5869   21.8797 H   0  0  0  0  0  0
  -25.2792   -9.5646   22.4807 H   0  0  0  0  0  0
  -23.9983   -7.4627   22.7475 H   0  0  0  0  0  0
  -21.0876   -8.8854   19.8954 H   0  0  0  0  0  0
  -22.3778  -10.9737   19.6190 H   0  0  0  0  0  0
  -21.2014   -7.6157   23.9727 H   0  0  0  0  0  0
  -21.1466   -6.0520   25.9069 H   0  0  0  0  0  0
  -22.0602   -2.7629   23.2818 H   0  0  0  0  0  0
  -22.4051  -11.9905   22.4821 H   0  0  0  0  0  0
  -21.1094  -13.1297   22.2541 H   0  0  0  0  0  0
  -24.6743  -15.8538   20.5363 H   0  0  0  0  0  0
  -26.2926  -15.6285   20.0991 H   0  0  0  0  0  0
  -26.7075  -32.5496   23.1121 H   0  0  0  0  0  0
  -25.0135  -33.9773   25.0511 H   0  0  0  0  0  0
  -22.6882  -31.3232   21.4215 H   0  0  0  0  0  0
  -23.3724  -35.9700   23.3313 H   0  0  0  0  0  0
  -24.3609  -36.8973   22.2057 H   0  0  0  0  0  0
  -23.7274  -37.6555   23.6651 H   0  0  0  0  0  0
  -26.0362  -31.6119   20.5991 H   0  0  0  0  0  0
  -26.8168  -30.8847   21.9753 H   0  0  0  0  0  0
  -28.0773  -29.0901   21.1635 H   0  0  0  0  0  0
  -25.9953  -26.0308   18.9186 H   0  0  0  0  0  0
  -23.9511  -27.3323   19.0104 H   0  0  0  0  0  0
  -23.6894  -30.6241   19.4109 H   0  0  0  0  0  0
  -22.7125  -29.2699   19.8714 H   0  0  0  0  0  0
  -25.1277  -36.1993   25.0830 H   0  0  0  0  0  0
  -20.9972  -28.3150   24.1432 H   0  0  0  0  0  0
  -20.5665  -26.2216   23.3571 H   0  0  0  0  0  0
  -21.6621  -26.7386   22.1183 H   0  0  0  0  0  0
  -19.6915  -25.6275   21.1201 H   0  0  0  0  0  0
  -19.6675  -27.3172   20.6761 H   0  0  0  0  0  0
  -17.4185  -26.6665   21.3999 H   0  0  0  0  0  0
  -18.0270  -26.0031   22.9007 H   0  0  0  0  0  0
  -19.7958  -30.7216   24.2200 H   0  0  0  0  0  0
  -17.5031  -31.6221   24.5136 H   0  0  0  0  0  0
  -15.5344  -30.2890   23.7671 H   0  0  0  0  0  0
  -15.8708  -28.0778   22.6978 H   0  0  0  0  0  0
  -24.5925  -30.6999   25.7836 H   0  0  0  0  0  0
  -24.8916  -32.2797   26.4943 H   0  0  0  0  0  0
  -25.8113  -30.8836   27.0223 H   0  0  0  0  0  0
  -26.2883  -29.6763   24.1136 H   0  0  0  0  0  0
  -27.4243  -29.7308   25.4447 H   0  0  0  0  0  0
  -27.8622  -30.4441   23.9086 H   0  0  0  0  0  0
  -27.2665  -33.3612   26.2059 H   0  0  0  0  0  0
  -28.3864  -32.6850   25.0339 H   0  0  0  0  0  0
  -28.0646  -31.8403   26.5443 H   0  0  0  0  0  0
  -28.2578  -38.0139   24.7511 H   0  0  0  0  0  0
  -28.1104  -36.2664   24.6284 H   0  0  0  0  0  0
  -27.2294  -37.1489   25.8865 H   0  0  0  0  0  0
  -20.9241  -29.8881   21.7120 H   0  0  0  0  0  0
  -26.0214  -38.2855   24.1356 H   0  0  0  0  0  0
  -27.2805  -22.9779   20.4021 H   0  0  0  0  0  0
  -30.5364  -22.6585   23.2446 H   0  0  0  0  0  0
  -26.6502  -20.6918   20.9690 H   0  0  0  0  0  0
  -29.2186  -20.0443   25.9855 H   0  0  0  0  0  0
  -28.0688  -19.4302   24.8070 H   0  0  0  0  0  0
  -28.8796  -17.3501   25.6671 H   0  0  0  0  0  0
  -30.4997  -17.9991   25.8876 H   0  0  0  0  0  0
  -30.8610  -20.5013   24.3171 H   0  0  0  0  0  0
  -29.1203  -17.2222   23.3057 H   0  0  0  0  0  0
  -30.8376  -15.6952   24.3991 H   0  0  0  0  0  0
  -32.0217  -16.9467   24.2345 H   0  0  0  0  0  0
  -32.4889  -15.6016   22.4016 H   0  0  0  0  0  0
  -31.5539  -16.8556   21.6530 H   0  0  0  0  0  0
  -27.5138  -24.8924   19.7952 H   0  0  0  0  0  0
  -28.4971  -25.4933   18.4764 H   0  0  0  0  0  0
  -30.5355  -25.2423   19.9994 H   0  0  0  0  0  0
  -29.7925  -23.7506   19.4952 H   0  0  0  0  0  0
  -29.8042  -14.6816   22.4151 H   0  0  0  0  0  0
  -31.3793  -18.9244   22.9381 H   0  0  0  0  0  0
  -29.8744  -18.9520   22.2611 H   0  0  0  0  0  0
  1 25  1  0  0  0
  1 30  2  0  0  0
  1 85  1  0  0  0
  2  3  1  0  0  0
  2 25  1  0  0  0
  2 88  1  0  0  0
  2 89  1  0  0  0
  3  4  1  0  0  0
  3 90  1  0  0  0
  3 91  1  0  0  0
  4  5  1  0  0  0
  4 92  1  0  0  0
  4 93  1  0  0  0
  5  6  1  0  0  0
  5 26  1  0  0  0
  5 94  1  0  0  0
  6 25  1  0  0  0
  6 95  1  0  0  0
  6 96  1  0  0  0
  7  8  2  0  0  0
  7 26  1  0  0  0
  7 29  1  0  0  0
  8  9  1  0  0  0
  8 22  1  0  0  0
  9 10  1  0  0  0
  9 27  2  0  0  0
 10 11  2  0  0  0
 10 15  1  0  0  0
 11 12  1  0  0  0
 11 97  1  0  0  0
 12 13  2  0  0  0
 12 98  1  0  0  0
 13 14  1  0  0  0
 13 31  1  0  0  0
 14 15  2  0  0  0
 14 99  1  0  0  0
 15100  1  0  0  0
 16 17  2  0  0  0
 16 21  1  0  0  0
 16 31  1  0  0  0
 17 18  1  0  0  0
 17101  1  0  0  0
 18 19  2  0  0  0
 18102  1  0  0  0
 19 20  1  0  0  0
 19 24  1  0  0  0
 20 21  2  0  0  0
 20103  1  0  0  0
 21 23  1  0  0  0
 22 28  1  0  0  0
 22 32  2  0  0  0
 26 27  1  0  0  0
 28104  1  0  0  0
 28105  1  0  0  0
 29106  1  0  0  0
 29107  1  0  0  0
 33 34  1  0  0  0
 33 66  1  0  0  0
 33 70  2  0  0  0
 34 36  1  0  0  0
 34 59  1  0  0  0
 34108  1  0  0  0
 35 44  2  0  0  0
 35 45  1  0  0  0
 35 68  1  0  0  0
 36 56  1  0  0  0
 36109  1  0  0  0
 37 39  1  0  0  0
 37 47  1  0  0  0
 37 66  1  0  0  0
 37110  1  0  0  0
 38 43  2  0  0  0
 38 46  1  0  0  0
 38 47  1  0  0  0
 39 64  1  0  0  0
 39 67  2  0  0  0
 40 52  1  0  0  0
 40 53  2  0  0  0
 40 58  1  0  0  0
 41111  1  0  0  0
 41112  1  0  0  0
 41113  1  0  0  0
 41 48  1  0  0  0
 42 43  1  0  0  0
 42 66  1  0  0  0
 42114  1  0  0  0
 42115  1  0  0  0
 43 44  1  0  0  0
 44116  1  0  0  0
 45 46  2  0  0  0
 45117  1  0  0  0
 46118  1  0  0  0
 47119  1  0  0  0
 47120  1  0  0  0
 48 56  1  0  0  0
 48 65  1  0  0  0
 48121  1  0  0  0
 49 50  1  0  0  0
 49 53  1  0  0  0
 49 64  1  0  0  0
 49122  1  0  0  0
 50 51  1  0  0  0
 50123  1  0  0  0
 50124  1  0  0  0
 51 52  1  0  0  0
 51125  1  0  0  0
 51126  1  0  0  0
 52127  1  0  0  0
 52128  1  0  0  0
 53 54  1  0  0  0
 54 55  2  0  0  0
 54129  1  0  0  0
 55 57  1  0  0  0
 55130  1  0  0  0
 56 69  2  0  0  0
 57 58  2  0  0  0
 57131  1  0  0  0
 58132  1  0  0  0
 59 60  1  0  0  0
 59 61  1  0  0  0
 59 62  1  0  0  0
 60133  1  0  0  0
 60134  1  0  0  0
 60135  1  0  0  0
 61136  1  0  0  0
 61137  1  0  0  0
 61138  1  0  0  0
 62139  1  0  0  0
 62140  1  0  0  0
 62141  1  0  0  0
 63 65  1  0  0  0
 63142  1  0  0  0
 63143  1  0  0  0
 63144  1  0  0  0
 64145  1  0  0  0
 65146  1  0  0  0
 68 82  1  0  0  0
 71 73  2  0  0  0
 71 74  1  0  0  0
 71147  1  0  0  0
 72 74  2  0  0  0
 72 75  1  0  0  0
 72148  1  0  0  0
 73 84  1  0  0  0
 73149  1  0  0  0
 74 87  1  0  0  0
 75 84  2  0  0  0
 75 78  1  0  0  0
 76 77  1  0  0  0
 76 78  1  0  0  0
 76150  1  0  0  0
 76151  1  0  0  0
 77 79  1  0  0  0
 77152  1  0  0  0
 77153  1  0  0  0
 78 86  1  0  0  0
 78154  1  0  0  0
 79 80  1  0  0  0
 79 86  1  0  0  0
 79155  1  0  0  0
 80 81  1  0  0  0
 80156  1  0  0  0
 80157  1  0  0  0
 81 85  1  0  0  0
 81158  1  0  0  0
 81159  1  0  0  0
 82 83  1  0  0  0
 82160  1  0  0  0
 82161  1  0  0  0
 83 87  1  0  0  0
 83162  1  0  0  0
 83163  1  0  0  0
 85164  1  0  0  0
 86165  1  0  0  0
 86166  1  0  0  0
M  CHG  1  86   1
M  ISO  4   1 100  68 101  82 101  85 100
M  END
> <chiral flag>
0

> <version>
0

> <s_m_source_file>
/data/baiqing/PycharmProjects/Reinvent-master-3.2/result/LINK_invent/BTK/process_docking_weight1_custom_sum_contain_oxygen_bond_distance_aromatic_linkinvent_7_9_3/rearranged_h_0146.sdf

> <i_m_source_file_index>
9

> <r_mmod_Potential_Energy-OPLS-2005>
-429.218322753906

> <r_mmod_Stretch_Energy-OPLS-2005>
33.0625610351562

> <r_mmod_Bend_Energy-OPLS-2005>
120.019859313965

> <r_mmod_Torsional_Energy-OPLS-2005>
278.032684326172

> <r_mmod_Improper_Torsional_Energy-OPLS-2005>
3.4611074924469

> <r_mmod_Van_der_Waal_Energy-OPLS-2005>
167.244384765625

> <r_mmod_Electrostatic_Energy-OPLS-2005>
-570.101989746094

> <r_mmod_Solvation_Energy-OPLS-2005>
-470.620544433594

> <b_mmod_Minimization_Converged-OPLS-2005>
0

> <r_mmod_RMS_Derivative-OPLS-2005>
4.13987874984741

$$$$
9
                    3D
 Structure written by MMmdl.
160169  0  0  1  0            999 V2000
  -30.6567  -14.6149   20.5097 C   0  0  0  0  0  0
  -30.4255  -12.3814   19.4593 C   0  0  0  0  0  0
  -29.5053  -12.5062   18.2270 C   0  0  0  0  0  0
  -28.0259  -12.3472   18.6354 C   0  0  0  0  0  0
  -27.6476  -13.2223   19.8609 C   0  0  2  0  0  0
  -28.6887  -13.0932   20.9943 C   0  0  0  0  0  0
  -25.2523  -13.8196   20.5693 C   0  0  0  0  0  0
  -24.1807  -13.0447   20.9206 C   0  0  0  0  0  0
  -24.6385  -11.6923   20.8734 C   0  0  0  0  0  0
  -23.9058  -10.4302   21.0393 C   0  0  0  0  0  0
  -24.3621   -9.4221   21.9169 C   0  0  0  0  0  0
  -23.6313   -8.2247   22.0744 C   0  0  0  0  0  0
  -22.4290   -8.0274   21.3548 C   0  0  0  0  0  0
  -21.9907   -9.0236   20.4642 C   0  0  0  0  0  0
  -22.7228  -10.2122   20.3047 C   0  0  0  0  0  0
  -21.6857   -6.0730   22.5279 C   0  0  0  0  0  0
  -21.4004   -6.5633   23.8214 C   0  0  0  0  0  0
  -21.3659   -5.6792   24.9181 C   0  0  0  0  0  0
  -21.6049   -4.3060   24.7228 C   0  0  0  0  0  0
  -21.8820   -3.8144   23.4353 C   0  0  0  0  0  0
  -21.9192   -4.6954   22.3406 C   0  0  0  0  0  0
  -22.7825  -13.5214   21.1887 C   0  0  0  0  0  0
  -22.1668   -4.2139   21.0976 F   0  0  0  0  0  0
  -21.5633   -3.4535   25.7743 F   0  0  0  0  0  0
  -30.0057  -13.4152   20.4279 N   0  0  0  0  0  0
  -26.2946  -12.9389   20.3300 N   0  0  0  0  0  0
  -25.9304  -11.6536   20.5736 N   0  0  0  0  0  0
  -22.0487  -12.8186   22.0451 N   0  0  0  0  0  0
  -25.4243  -15.1918   20.4117 N   0  0  0  0  0  0
  -31.8262  -14.7297   20.1311 O   0  0  0  0  0  0
  -21.6654   -6.8868   21.4245 O   0  0  0  0  0  0
  -22.3494  -14.5512   20.6725 O   0  0  0  0  0  0
  -24.6238  -31.8607   23.2043 C   0  0  0  0  0  0
  -25.9104  -32.4778   23.8356 C   0  0  1  0  0  0
  -27.2262  -27.3459   20.0970 C   0  0  0  0  0  0
  -25.5934  -33.8584   24.2283 N   0  0  0  0  0  0
  -23.4141  -30.4868   21.5470 C   0  0  2  0  0  0
  -24.8573  -28.9421   20.1103 C   0  0  0  0  0  0
  -22.7448  -29.4640   22.4945 C   0  0  0  0  0  0
  -18.0280  -28.1389   22.8485 C   0  0  0  0  0  0
  -24.1491  -36.7296   23.2641 C   0  0  0  0  0  0
  -25.9524  -30.7978   21.3703 C   0  0  0  0  0  0
  -26.0247  -29.4274   20.7126 C   0  0  0  0  0  0
  -27.2074  -28.6367   20.7044 C   0  0  0  0  0  0
  -26.0257  -26.8924   19.5035 C   0  0  0  0  0  0
  -24.8572  -27.6771   19.5035 C   0  0  0  0  0  0
  -23.6244  -29.8211   20.1618 C   0  0  0  0  0  0
  -25.4117  -36.3091   24.0336 C   0  0  1  0  0  0
  -20.5878  -28.3691   23.1287 C   0  0  2  0  0  0
  -20.6774  -26.9419   22.5409 C   0  0  0  0  0  0
  -19.5754  -26.6388   21.5214 C   0  0  0  0  0  0
  -18.1930  -26.7932   22.1620 C   0  0  0  0  0  0
  -19.1533  -28.8854   23.2883 C   0  0  0  0  0  0
  -18.9459  -30.1457   23.8891 C   0  0  0  0  0  0
  -17.6460  -30.6590   24.0561 C   0  0  0  0  0  0
  -25.9051  -34.9459   23.5105 C   0  0  0  0  0  0
  -16.5350  -29.9086   23.6339 C   0  0  0  0  0  0
  -16.7269  -28.6508   23.0348 C   0  0  0  0  0  0
  -26.4492  -31.6588   25.0720 C   0  0  0  0  0  0
  -25.3728  -31.3725   26.1451 C   0  0  0  0  0  0
  -27.0329  -30.3015   24.6162 C   0  0  0  0  0  0
  -27.6062  -32.4309   25.7481 C   0  0  0  0  0  0
  -27.5585  -37.1801   24.8463 C   0  0  0  0  0  0
  -21.4163  -29.3044   22.3676 N   0  0  0  0  0  0
  -26.4293  -37.3790   23.9412 N   0  0  0  0  0  0
  -24.6825  -31.0642   22.0976 N   0  0  0  0  0  0
  -23.4182  -28.8174   23.3016 O   0  0  0  0  0  0
  -28.3705  -26.5418   20.1476 O   0  0  0  0  0  0
  -26.5612  -34.8927   22.4669 O   0  0  0  0  0  0
  -23.5415  -32.1399   23.7397 O   0  0  0  0  0  0
  -29.9295  -23.5325   20.3558 C   0  0  0  0  0  0
  -27.8408  -22.9365   19.3342 C   0  0  0  0  0  0
  -28.7415  -23.9604   19.7192 C   0  0  0  0  0  0
  -30.2576  -22.1502   20.5004 C   0  0  0  0  0  0
  -28.1513  -21.5493   19.4698 C   0  0  0  0  0  0
  -29.3996  -21.1168   20.0081 C   0  0  0  0  0  0
  -30.1357  -18.0219   21.9242 C   0  0  0  0  0  0
  -29.4595  -18.4031   20.6331 C   0  0  2  0  0  0
  -30.3767  -17.1237   20.7280 C   0  0  2  0  0  0
  -31.6094  -21.8130   21.1051 C   0  0  0  0  0  0
  -27.1540  -20.5407   18.9254 C   0  0  0  0  0  0
  -29.9302  -19.6434   19.8025 C   0  0  0  0  0  0
  -28.5567  -25.4318   19.2111 C   0  0  0  0  0  0
  -29.9218  -15.7245   20.8359 N   0  0  0  0  0  0
  -31.4701  -12.4884   19.1636 H   0  0  0  0  0  0
  -30.3463  -11.3892   19.9055 H   0  0  0  0  0  0
  -29.7761  -11.7618   17.4761 H   0  0  0  0  0  0
  -29.6513  -13.4801   17.7589 H   0  0  0  0  0  0
  -27.8598  -11.2949   18.8685 H   0  0  0  0  0  0
  -27.3716  -12.5774   17.7936 H   0  0  0  0  0  0
  -27.6630  -14.2546   19.5132 H   0  0  0  0  0  0
  -28.6940  -12.0801   21.3982 H   0  0  0  0  0  0
  -28.4382  -13.7499   21.8278 H   0  0  0  0  0  0
  -25.2767   -9.5705   22.4735 H   0  0  0  0  0  0
  -24.0039   -7.4628   22.7444 H   0  0  0  0  0  0
  -21.0850   -8.8744   19.8939 H   0  0  0  0  0  0
  -22.3690  -10.9652   19.6148 H   0  0  0  0  0  0
  -21.1998   -7.6143   23.9713 H   0  0  0  0  0  0
  -21.1480   -6.0524   25.9086 H   0  0  0  0  0  0
  -22.0604   -2.7607   23.2850 H   0  0  0  0  0  0
  -22.4119  -11.9841   22.4819 H   0  0  0  0  0  0
  -21.1087  -13.1161   22.2639 H   0  0  0  0  0  0
  -24.6621  -15.8514   20.5270 H   0  0  0  0  0  0
  -26.2764  -15.6295   20.0841 H   0  0  0  0  0  0
  -26.7157  -32.5454   23.1098 H   0  0  0  0  0  0
  -25.0088  -33.9728   25.0428 H   0  0  0  0  0  0
  -22.7072  -31.3075   21.4089 H   0  0  0  0  0  0
  -23.3766  -35.9614   23.3285 H   0  0  0  0  0  0
  -24.3584  -36.8928   22.2058 H   0  0  0  0  0  0
  -23.7225  -37.6489   23.6662 H   0  0  0  0  0  0
  -26.0815  -31.5606   20.6013 H   0  0  0  0  0  0
  -26.8348  -30.8432   21.9976 H   0  0  0  0  0  0
  -28.1036  -29.0061   21.1833 H   0  0  0  0  0  0
  -25.9462  -25.9093   19.0664 H   0  0  0  0  0  0
  -23.9568  -27.2888   19.0475 H   0  0  0  0  0  0
  -23.7355  -30.5975   19.4037 H   0  0  0  0  0  0
  -22.7430  -29.2488   19.8654 H   0  0  0  0  0  0
  -25.1294  -36.1946   25.0829 H   0  0  0  0  0  0
  -20.9990  -28.3278   24.1402 H   0  0  0  0  0  0
  -20.5696  -26.2304   23.3607 H   0  0  0  0  0  0
  -21.6642  -26.7457   22.1192 H   0  0  0  0  0  0
  -19.6914  -25.6300   21.1240 H   0  0  0  0  0  0
  -19.6696  -27.3196   20.6746 H   0  0  0  0  0  0
  -17.4208  -26.6683   21.4014 H   0  0  0  0  0  0
  -18.0323  -26.0073   22.9014 H   0  0  0  0  0  0
  -19.7940  -30.7274   24.2253 H   0  0  0  0  0  0
  -17.5020  -31.6276   24.5158 H   0  0  0  0  0  0
  -15.5351  -30.2983   23.7679 H   0  0  0  0  0  0
  -15.8668  -28.0836   22.7048 H   0  0  0  0  0  0
  -24.5895  -30.7086   25.7775 H   0  0  0  0  0  0
  -24.8932  -32.2892   26.4887 H   0  0  0  0  0  0
  -25.8051  -30.8886   27.0217 H   0  0  0  0  0  0
  -26.2895  -29.6758   24.1211 H   0  0  0  0  0  0
  -27.4056  -29.7276   25.4656 H   0  0  0  0  0  0
  -27.8750  -30.4297   23.9359 H   0  0  0  0  0  0
  -27.2697  -33.3621   26.2050 H   0  0  0  0  0  0
  -28.3882  -32.6844   25.0311 H   0  0  0  0  0  0
  -28.0721  -31.8435   26.5404 H   0  0  0  0  0  0
  -28.2598  -38.0104   24.7531 H   0  0  0  0  0  0
  -28.1081  -36.2638   24.6259 H   0  0  0  0  0  0
  -27.2301  -37.1415   25.8864 H   0  0  0  0  0  0
  -20.9332  -29.8763   21.6883 H   0  0  0  0  0  0
  -26.0178  -38.2865   24.1418 H   0  0  0  0  0  0
  -30.6489  -24.2835   20.6522 H   0  0  0  0  0  0
  -26.9254  -23.2210   18.8336 H   0  0  0  0  0  0
  -29.4911  -17.6595   22.7227 H   0  0  0  0  0  0
  -30.9696  -18.6344   22.2602 H   0  0  0  0  0  0
  -28.3903  -18.2107   20.5779 H   0  0  0  0  0  0
  -31.3486  -17.2459   20.2506 H   0  0  0  0  0  0
  -32.0140  -22.6555   21.6681 H   0  0  0  0  0  0
  -32.3246  -21.5608   20.3206 H   0  0  0  0  0  0
  -31.5318  -20.9694   21.7914 H   0  0  0  0  0  0
  -26.2028  -21.0121   18.6759 H   0  0  0  0  0  0
  -26.9448  -19.7657   19.6613 H   0  0  0  0  0  0
  -27.5380  -20.0706   18.0204 H   0  0  0  0  0  0
  -31.0179  -19.6532   19.8361 H   0  0  0  0  0  0
  -29.7245  -19.3967   18.7612 H   0  0  0  0  0  0
  -27.8528  -25.4434   18.3810 H   0  0  0  0  0  0
  -29.4978  -25.6678   18.7134 H   0  0  0  0  0  0
  -28.9611  -15.5631   21.0965 H   0  0  0  0  0  0
  1 25  1  0  0  0
  1 30  2  0  0  0
  1 84  1  0  0  0
  2  3  1  0  0  0
  2 25  1  0  0  0
  2 85  1  0  0  0
  2 86  1  0  0  0
  3  4  1  0  0  0
  3 87  1  0  0  0
  3 88  1  0  0  0
  4  5  1  0  0  0
  4 89  1  0  0  0
  4 90  1  0  0  0
  5  6  1  0  0  0
  5 26  1  0  0  0
  5 91  1  0  0  0
  6 25  1  0  0  0
  6 92  1  0  0  0
  6 93  1  0  0  0
  7  8  2  0  0  0
  7 26  1  0  0  0
  7 29  1  0  0  0
  8  9  1  0  0  0
  8 22  1  0  0  0
  9 10  1  0  0  0
  9 27  2  0  0  0
 10 11  2  0  0  0
 10 15  1  0  0  0
 11 12  1  0  0  0
 11 94  1  0  0  0
 12 13  2  0  0  0
 12 95  1  0  0  0
 13 14  1  0  0  0
 13 31  1  0  0  0
 14 15  2  0  0  0
 14 96  1  0  0  0
 15 97  1  0  0  0
 16 17  2  0  0  0
 16 21  1  0  0  0
 16 31  1  0  0  0
 17 18  1  0  0  0
 17 98  1  0  0  0
 18 19  2  0  0  0
 18 99  1  0  0  0
 19 20  1  0  0  0
 19 24  1  0  0  0
 20 21  2  0  0  0
 20100  1  0  0  0
 21 23  1  0  0  0
 22 28  1  0  0  0
 22 32  2  0  0  0
 26 27  1  0  0  0
 28101  1  0  0  0
 28102  1  0  0  0
 29103  1  0  0  0
 29104  1  0  0  0
 33 34  1  0  0  0
 33 66  1  0  0  0
 33 70  2  0  0  0
 34 36  1  0  0  0
 34 59  1  0  0  0
 34105  1  0  0  0
 35 44  2  0  0  0
 35 45  1  0  0  0
 35 68  1  0  0  0
 36 56  1  0  0  0
 36106  1  0  0  0
 37 39  1  0  0  0
 37 47  1  0  0  0
 37 66  1  0  0  0
 37107  1  0  0  0
 38 43  2  0  0  0
 38 46  1  0  0  0
 38 47  1  0  0  0
 39 64  1  0  0  0
 39 67  2  0  0  0
 40 52  1  0  0  0
 40 53  2  0  0  0
 40 58  1  0  0  0
 41108  1  0  0  0
 41109  1  0  0  0
 41110  1  0  0  0
 41 48  1  0  0  0
 42 43  1  0  0  0
 42 66  1  0  0  0
 42111  1  0  0  0
 42112  1  0  0  0
 43 44  1  0  0  0
 44113  1  0  0  0
 45 46  2  0  0  0
 45114  1  0  0  0
 46115  1  0  0  0
 47116  1  0  0  0
 47117  1  0  0  0
 48 56  1  0  0  0
 48 65  1  0  0  0
 48118  1  0  0  0
 49 50  1  0  0  0
 49 53  1  0  0  0
 49 64  1  0  0  0
 49119  1  0  0  0
 50 51  1  0  0  0
 50120  1  0  0  0
 50121  1  0  0  0
 51 52  1  0  0  0
 51122  1  0  0  0
 51123  1  0  0  0
 52124  1  0  0  0
 52125  1  0  0  0
 53 54  1  0  0  0
 54 55  2  0  0  0
 54126  1  0  0  0
 55 57  1  0  0  0
 55127  1  0  0  0
 56 69  2  0  0  0
 57 58  2  0  0  0
 57128  1  0  0  0
 58129  1  0  0  0
 59 60  1  0  0  0
 59 61  1  0  0  0
 59 62  1  0  0  0
 60130  1  0  0  0
 60131  1  0  0  0
 60132  1  0  0  0
 61133  1  0  0  0
 61134  1  0  0  0
 61135  1  0  0  0
 62136  1  0  0  0
 62137  1  0  0  0
 62138  1  0  0  0
 63 65  1  0  0  0
 63139  1  0  0  0
 63140  1  0  0  0
 63141  1  0  0  0
 64142  1  0  0  0
 65143  1  0  0  0
 68 83  1  0  0  0
 71 73  2  0  0  0
 71 74  1  0  0  0
 71144  1  0  0  0
 72 73  1  0  0  0
 72 75  2  0  0  0
 72145  1  0  0  0
 73 83  1  0  0  0
 74 76  2  0  0  0
 74 80  1  0  0  0
 75 76  1  0  0  0
 75 81  1  0  0  0
 76 82  1  0  0  0
 77 78  1  0  0  0
 77 79  1  0  0  0
 77146  1  0  0  0
 77147  1  0  0  0
 78 79  1  0  0  0
 78 82  1  0  0  0
 78148  1  0  0  0
 79 84  1  0  0  0
 79149  1  0  0  0
 80150  1  0  0  0
 80151  1  0  0  0
 80152  1  0  0  0
 81153  1  0  0  0
 81154  1  0  0  0
 81155  1  0  0  0
 82156  1  0  0  0
 82157  1  0  0  0
 83158  1  0  0  0
 83159  1  0  0  0
 84160  1  0  0  0
M  ISO  4   1 100  68 101  83 101  84 100
M  END
> <chiral flag>
0

> <version>
0

> <s_m_source_file>
/data/baiqing/PycharmProjects/Reinvent-master-3.2/result/LINK_invent/BTK/process_docking_weight1_custom_sum_contain_oxygen_bond_distance_aromatic_linkinvent_7_9_3/rearranged_h_0146.sdf

> <i_m_source_file_index>
10

> <r_mmod_Potential_Energy-OPLS-2005>
122.590232849121

> <r_mmod_Stretch_Energy-OPLS-2005>
72.7826919555664

> <r_mmod_Bend_Energy-OPLS-2005>
140.781860351562

> <r_mmod_Torsional_Energy-OPLS-2005>
289.948944091797

> <r_mmod_Improper_Torsional_Energy-OPLS-2005>
8.1424617767334

> <r_mmod_Van_der_Waal_Energy-OPLS-2005>
145.33740234375

> <r_mmod_Electrostatic_Energy-OPLS-2005>
-366.271911621094

> <r_mmod_Solvation_Energy-OPLS-2005>
-207.637969970703

> <b_mmod_Minimization_Converged-OPLS-2005>
0

> <r_mmod_RMS_Derivative-OPLS-2005>
2.05014109611511

$$$$
10
                    3D
 Structure written by MMmdl.
171181  0  0  1  0            999 V2000
  -30.7125  -14.4104   20.5269 C   0  0  0  0  0  0
  -30.4029  -12.2472   19.4302 C   0  0  0  0  0  0
  -29.4917  -12.4814   18.2082 C   0  0  0  0  0  0
  -28.0062  -12.3743   18.6097 C   0  0  0  0  0  0
  -27.6595  -13.2011   19.8785 C   0  0  2  0  0  0
  -28.6980  -12.9759   21.0008 C   0  0  0  0  0  0
  -25.2582  -13.8163   20.5693 C   0  0  0  0  0  0
  -24.1833  -13.0436   20.9181 C   0  0  0  0  0  0
  -24.6384  -11.6902   20.8749 C   0  0  0  0  0  0
  -23.9064  -10.4287   21.0431 C   0  0  0  0  0  0
  -24.3625   -9.4198   21.9199 C   0  0  0  0  0  0
  -23.6297   -8.2239   22.0771 C   0  0  0  0  0  0
  -22.4284   -8.0286   21.3549 C   0  0  0  0  0  0
  -21.9918   -9.0262   20.4644 C   0  0  0  0  0  0
  -22.7255  -10.2133   20.3054 C   0  0  0  0  0  0
  -21.6847   -6.0743   22.5292 C   0  0  0  0  0  0
  -21.4010   -6.5650   23.8225 C   0  0  0  0  0  0
  -21.3652   -5.6805   24.9180 C   0  0  0  0  0  0
  -21.6041   -4.3069   24.7233 C   0  0  0  0  0  0
  -21.8809   -3.8163   23.4351 C   0  0  0  0  0  0
  -21.9194   -4.6973   22.3409 C   0  0  0  0  0  0
  -22.7858  -13.5224   21.1863 C   0  0  0  0  0  0
  -22.1657   -4.2176   21.0977 F   0  0  0  0  0  0
  -21.5632   -3.4543   25.7733 F   0  0  0  0  0  0
  -30.0324  -13.2424   20.4415 N   0  0  0  0  0  0
  -26.3012  -12.9317   20.3378 N   0  0  0  0  0  0
  -25.9307  -11.6485   20.5780 N   0  0  0  0  0  0
  -22.0507  -12.8211   22.0405 N   0  0  0  0  0  0
  -25.4286  -15.1880   20.4155 N   0  0  0  0  0  0
  -31.8695  -14.5506   20.1192 O   0  0  0  0  0  0
  -21.6636   -6.8893   21.4256 O   0  0  0  0  0  0
  -22.3534  -14.5535   20.6732 O   0  0  0  0  0  0
  -24.6119  -31.8688   23.2153 C   0  0  0  0  0  0
  -25.9037  -32.4818   23.8425 C   0  0  1  0  0  0
  -27.2414  -27.4697   20.0866 C   0  0  0  0  0  0
  -25.5916  -33.8625   24.2339 N   0  0  0  0  0  0
  -23.3981  -30.4928   21.5530 C   0  0  2  0  0  0
  -24.8445  -28.9608   20.1183 C   0  0  0  0  0  0
  -22.7388  -29.4657   22.5003 C   0  0  0  0  0  0
  -18.0253  -28.1391   22.8527 C   0  0  0  0  0  0
  -24.1484  -36.7298   23.2651 C   0  0  0  0  0  0
  -25.9235  -30.8439   21.3643 C   0  0  0  0  0  0
  -26.0017  -29.4832   20.7065 C   0  0  0  0  0  0
  -27.2020  -28.7467   20.6826 C   0  0  0  0  0  0
  -26.0639  -26.9494   19.5006 C   0  0  0  0  0  0
  -24.8690  -27.6915   19.5144 C   0  0  0  0  0  0
  -23.6068  -29.8235   20.1678 C   0  0  0  0  0  0
  -25.4117  -36.3097   24.0333 C   0  0  1  0  0  0
  -20.5843  -28.3655   23.1323 C   0  0  2  0  0  0
  -20.6728  -26.9383   22.5419 C   0  0  0  0  0  0
  -19.5691  -26.6381   21.5238 C   0  0  0  0  0  0
  -18.1875  -26.7940   22.1656 C   0  0  0  0  0  0
  -19.1507  -28.8847   23.2920 C   0  0  0  0  0  0
  -18.9446  -30.1474   23.8903 C   0  0  0  0  0  0
  -17.6445  -30.6595   24.0584 C   0  0  0  0  0  0
  -25.9047  -34.9465   23.5113 C   0  0  0  0  0  0
  -16.5335  -29.9094   23.6355 C   0  0  0  0  0  0
  -16.7249  -28.6517   23.0369 C   0  0  0  0  0  0
  -26.4499  -31.6595   25.0741 C   0  0  0  0  0  0
  -25.3771  -31.3624   26.1477 C   0  0  0  0  0  0
  -27.0380  -30.3056   24.6116 C   0  0  0  0  0  0
  -27.6059  -32.4346   25.7510 C   0  0  0  0  0  0
  -27.5572  -37.1803   24.8483 C   0  0  0  0  0  0
  -21.4127  -29.3020   22.3734 N   0  0  0  0  0  0
  -26.4291  -37.3785   23.9423 N   0  0  0  0  0  0
  -24.6622  -31.0812   22.1038 N   0  0  0  0  0  0
  -23.4171  -28.8210   23.3046 O   0  0  0  0  0  0
  -28.4425  -26.8010   20.0875 O   0  0  0  0  0  0
  -26.5588  -34.8909   22.4665 O   0  0  0  0  0  0
  -23.5325  -32.1427   23.7573 O   0  0  0  0  0  0
  -28.1481  -16.4454   17.8121 C   0  0  0  0  0  0
  -28.2810  -17.8795   17.3617 C   0  0  0  0  0  0
  -29.5103  -24.9316   21.0971 C   0  0  0  0  0  0
  -28.7372  -24.8463   18.6693 C   0  0  0  0  0  0
  -29.5813  -23.3978   21.2190 C   0  0  0  0  0  0
  -29.4854  -23.4947   18.6740 C   0  0  0  0  0  0
  -30.5939  -17.6937   21.8434 C   0  0  0  0  0  0
  -29.2988  -17.2870   18.3133 C   0  0  0  0  0  0
  -29.3978  -17.7038   19.7773 C   0  0  1  0  0  0
  -30.3830  -16.8538   20.5903 C   0  0  2  0  0  0
  -28.4418  -25.3795   20.0890 C   0  0  2  0  0  0
  -29.1579  -22.6691   19.9289 C   0  0  1  0  0  0
  -30.0210  -19.1004   19.9870 C   0  0  1  0  0  0
  -29.0603  -20.2893   19.8612 C   0  0  0  0  0  0
  -29.9710  -15.4746   20.8621 N   0  0  0  0  0  0
  -30.6496  -19.0734   21.3323 N   0  3  0  0  0  0
  -29.8780  -21.4501   19.8963 O   0  0  0  0  0  0
  -31.4536  -12.3072   19.1449 H   0  0  0  0  0  0
  -30.2592  -11.2412   19.8289 H   0  0  0  0  0  0
  -29.7211  -11.7584   17.4248 H   0  0  0  0  0  0
  -29.6854  -13.4668   17.7825 H   0  0  0  0  0  0
  -27.7865  -11.3202   18.7814 H   0  0  0  0  0  0
  -27.3716  -12.6852   17.7782 H   0  0  0  0  0  0
  -27.7074  -14.2487   19.5929 H   0  0  0  0  0  0
  -28.6534  -11.9459   21.3575 H   0  0  0  0  0  0
  -28.4827  -13.5993   21.8705 H   0  0  0  0  0  0
  -25.2769   -9.5675   22.4772 H   0  0  0  0  0  0
  -24.0018   -7.4623   22.7481 H   0  0  0  0  0  0
  -21.0860   -8.8759   19.8937 H   0  0  0  0  0  0
  -22.3727  -10.9668   19.6152 H   0  0  0  0  0  0
  -21.1988   -7.6155   23.9738 H   0  0  0  0  0  0
  -21.1485   -6.0529   25.9085 H   0  0  0  0  0  0
  -22.0593   -2.7634   23.2847 H   0  0  0  0  0  0
  -22.4158  -11.9862   22.4757 H   0  0  0  0  0  0
  -21.1115  -13.1209   22.2633 H   0  0  0  0  0  0
  -24.6628  -15.8411   20.5356 H   0  0  0  0  0  0
  -26.2778  -15.6305   20.0951 H   0  0  0  0  0  0
  -26.7112  -32.5519   23.1194 H   0  0  0  0  0  0
  -25.0127  -33.9823   25.0520 H   0  0  0  0  0  0
  -22.6853  -31.3079   21.4117 H   0  0  0  0  0  0
  -23.3745  -35.9628   23.3322 H   0  0  0  0  0  0
  -24.3556  -36.8920   22.2061 H   0  0  0  0  0  0
  -23.7246  -37.6502   23.6679 H   0  0  0  0  0  0
  -26.0339  -31.6165   20.6025 H   0  0  0  0  0  0
  -26.8120  -30.8939   21.9821 H   0  0  0  0  0  0
  -28.0992  -29.1545   21.1289 H   0  0  0  0  0  0
  -26.0552  -25.9807   19.0249 H   0  0  0  0  0  0
  -23.9755  -27.2835   19.0620 H   0  0  0  0  0  0
  -23.7185  -30.5981   19.4079 H   0  0  0  0  0  0
  -22.7331  -29.2395   19.8717 H   0  0  0  0  0  0
  -25.1294  -36.1950   25.0824 H   0  0  0  0  0  0
  -20.9944  -28.3209   24.1443 H   0  0  0  0  0  0
  -20.5647  -26.2262   23.3607 H   0  0  0  0  0  0
  -21.6592  -26.7416   22.1197 H   0  0  0  0  0  0
  -19.6832  -25.6298   21.1247 H   0  0  0  0  0  0
  -19.6623  -27.3220   20.6786 H   0  0  0  0  0  0
  -17.4143  -26.6748   21.4044 H   0  0  0  0  0  0
  -18.0240  -26.0063   22.9022 H   0  0  0  0  0  0
  -19.7910  -30.7328   24.2229 H   0  0  0  0  0  0
  -17.4983  -31.6269   24.5195 H   0  0  0  0  0  0
  -15.5339  -30.2999   23.7685 H   0  0  0  0  0  0
  -15.8647  -28.0862   22.7056 H   0  0  0  0  0  0
  -24.6035  -30.6876   25.7787 H   0  0  0  0  0  0
  -24.8857  -32.2732   26.4901 H   0  0  0  0  0  0
  -25.8162  -30.8835   27.0236 H   0  0  0  0  0  0
  -26.2934  -29.6763   24.1225 H   0  0  0  0  0  0
  -27.4230  -29.7347   25.4578 H   0  0  0  0  0  0
  -27.8715  -30.4396   23.9214 H   0  0  0  0  0  0
  -27.2665  -33.3648   26.2072 H   0  0  0  0  0  0
  -28.3873  -32.6908   25.0340 H   0  0  0  0  0  0
  -28.0720  -31.8484   26.5438 H   0  0  0  0  0  0
  -28.2587  -38.0099   24.7523 H   0  0  0  0  0  0
  -28.1077  -36.2626   24.6341 H   0  0  0  0  0  0
  -27.2264  -37.1475   25.8878 H   0  0  0  0  0  0
  -20.9298  -29.8735   21.6945 H   0  0  0  0  0  0
  -26.0164  -38.2845   24.1474 H   0  0  0  0  0  0
  -28.3679  -15.6675   17.0835 H   0  0  0  0  0  0
  -27.3221  -16.2351   18.4868 H   0  0  0  0  0  0
  -27.5294  -18.5710   17.7361 H   0  0  0  0  0  0
  -28.6064  -18.0612   16.3383 H   0  0  0  0  0  0
  -30.4823  -25.3142   20.7788 H   0  0  0  0  0  0
  -29.3161  -25.3677   22.0777 H   0  0  0  0  0  0
  -27.7999  -24.7462   18.1203 H   0  0  0  0  0  0
  -29.3288  -25.5732   18.1120 H   0  0  0  0  0  0
  -28.9494  -23.0540   22.0410 H   0  0  0  0  0  0
  -30.6017  -23.1251   21.4944 H   0  0  0  0  0  0
  -30.5602  -23.6795   18.6389 H   0  0  0  0  0  0
  -29.2382  -22.9367   17.7705 H   0  0  0  0  0  0
  -31.4971  -17.4184   22.3905 H   0  0  0  0  0  0
  -29.7409  -17.5926   22.5182 H   0  0  0  0  0  0
  -30.2655  -17.0728   17.8597 H   0  0  0  0  0  0
  -28.4061  -17.6701   20.2345 H   0  0  0  0  0  0
  -31.3311  -16.8668   20.0468 H   0  0  0  0  0  0
  -27.4927  -24.9728   20.4450 H   0  0  0  0  0  0
  -28.0784  -22.5012   19.9512 H   0  0  0  0  0  0
  -30.8241  -19.2267   19.2568 H   0  0  0  0  0  0
  -28.3385  -20.2890   20.6806 H   0  0  0  0  0  0
  -28.5042  -20.2578   18.9241 H   0  0  0  0  0  0
  -29.0261  -15.3045   21.1698 H   0  0  0  0  0  0
  -31.6067  -19.3819   21.2599 H   0  0  0  0  0  0
  -30.1753  -19.6941   21.9694 H   0  0  0  0  0  0
  1 25  1  0  0  0
  1 30  2  0  0  0
  1 85  1  0  0  0
  2  3  1  0  0  0
  2 25  1  0  0  0
  2 88  1  0  0  0
  2 89  1  0  0  0
  3  4  1  0  0  0
  3 90  1  0  0  0
  3 91  1  0  0  0
  4  5  1  0  0  0
  4 92  1  0  0  0
  4 93  1  0  0  0
  5  6  1  0  0  0
  5 26  1  0  0  0
  5 94  1  0  0  0
  6 25  1  0  0  0
  6 95  1  0  0  0
  6 96  1  0  0  0
  7  8  2  0  0  0
  7 26  1  0  0  0
  7 29  1  0  0  0
  8  9  1  0  0  0
  8 22  1  0  0  0
  9 10  1  0  0  0
  9 27  2  0  0  0
 10 11  2  0  0  0
 10 15  1  0  0  0
 11 12  1  0  0  0
 11 97  1  0  0  0
 12 13  2  0  0  0
 12 98  1  0  0  0
 13 14  1  0  0  0
 13 31  1  0  0  0
 14 15  2  0  0  0
 14 99  1  0  0  0
 15100  1  0  0  0
 16 17  2  0  0  0
 16 21  1  0  0  0
 16 31  1  0  0  0
 17 18  1  0  0  0
 17101  1  0  0  0
 18 19  2  0  0  0
 18102  1  0  0  0
 19 20  1  0  0  0
 19 24  1  0  0  0
 20 21  2  0  0  0
 20103  1  0  0  0
 21 23  1  0  0  0
 22 28  1  0  0  0
 22 32  2  0  0  0
 26 27  1  0  0  0
 28104  1  0  0  0
 28105  1  0  0  0
 29106  1  0  0  0
 29107  1  0  0  0
 33 34  1  0  0  0
 33 66  1  0  0  0
 33 70  2  0  0  0
 34 36  1  0  0  0
 34 59  1  0  0  0
 34108  1  0  0  0
 35 44  2  0  0  0
 35 45  1  0  0  0
 35 68  1  0  0  0
 36 56  1  0  0  0
 36109  1  0  0  0
 37 39  1  0  0  0
 37 47  1  0  0  0
 37 66  1  0  0  0
 37110  1  0  0  0
 38 43  2  0  0  0
 38 46  1  0  0  0
 38 47  1  0  0  0
 39 64  1  0  0  0
 39 67  2  0  0  0
 40 52  1  0  0  0
 40 53  2  0  0  0
 40 58  1  0  0  0
 41111  1  0  0  0
 41112  1  0  0  0
 41113  1  0  0  0
 41 48  1  0  0  0
 42 43  1  0  0  0
 42 66  1  0  0  0
 42114  1  0  0  0
 42115  1  0  0  0
 43 44  1  0  0  0
 44116  1  0  0  0
 45 46  2  0  0  0
 45117  1  0  0  0
 46118  1  0  0  0
 47119  1  0  0  0
 47120  1  0  0  0
 48 56  1  0  0  0
 48 65  1  0  0  0
 48121  1  0  0  0
 49 50  1  0  0  0
 49 53  1  0  0  0
 49 64  1  0  0  0
 49122  1  0  0  0
 50 51  1  0  0  0
 50123  1  0  0  0
 50124  1  0  0  0
 51 52  1  0  0  0
 51125  1  0  0  0
 51126  1  0  0  0
 52127  1  0  0  0
 52128  1  0  0  0
 53 54  1  0  0  0
 54 55  2  0  0  0
 54129  1  0  0  0
 55 57  1  0  0  0
 55130  1  0  0  0
 56 69  2  0  0  0
 57 58  2  0  0  0
 57131  1  0  0  0
 58132  1  0  0  0
 59 60  1  0  0  0
 59 61  1  0  0  0
 59 62  1  0  0  0
 60133  1  0  0  0
 60134  1  0  0  0
 60135  1  0  0  0
 61136  1  0  0  0
 61137  1  0  0  0
 61138  1  0  0  0
 62139  1  0  0  0
 62140  1  0  0  0
 62141  1  0  0  0
 63 65  1  0  0  0
 63142  1  0  0  0
 63143  1  0  0  0
 63144  1  0  0  0
 64145  1  0  0  0
 65146  1  0  0  0
 68 81  1  0  0  0
 71 72  1  0  0  0
 71147  1  0  0  0
 71148  1  0  0  0
 71 78  1  0  0  0
 72 78  1  0  0  0
 72149  1  0  0  0
 72150  1  0  0  0
 73 75  1  0  0  0
 73 81  1  0  0  0
 73151  1  0  0  0
 73152  1  0  0  0
 74 76  1  0  0  0
 74 81  1  0  0  0
 74153  1  0  0  0
 74154  1  0  0  0
 75 82  1  0  0  0
 75155  1  0  0  0
 75156  1  0  0  0
 76 82  1  0  0  0
 76157  1  0  0  0
 76158  1  0  0  0
 77 80  1  0  0  0
 77 86  1  0  0  0
 77159  1  0  0  0
 77160  1  0  0  0
 78161  1  0  0  0
 78 79  1  0  0  0
 79 80  1  0  0  0
 79 83  1  0  0  0
 79162  1  0  0  0
 80 85  1  0  0  0
 80163  1  0  0  0
 81164  1  0  0  0
 82 87  1  0  0  0
 82165  1  0  0  0
 83 84  1  0  0  0
 83 86  1  0  0  0
 83166  1  0  0  0
 84 87  1  0  0  0
 84167  1  0  0  0
 84168  1  0  0  0
 85169  1  0  0  0
 86170  1  0  0  0
 86171  1  0  0  0
M  CHG  1  86   1
M  ISO  4   1 100  68 101  81 101  85 100
M  END
> <chiral flag>
0

> <version>
0

> <s_m_source_file>
/data/baiqing/PycharmProjects/Reinvent-master-3.2/result/LINK_invent/BTK/process_docking_weight1_custom_sum_contain_oxygen_bond_distance_aromatic_linkinvent_7_9_3/rearranged_h_0146.sdf

> <i_m_source_file_index>
11

> <r_mmod_Potential_Energy-OPLS-2005>
-103.43399810791

> <r_mmod_Stretch_Energy-OPLS-2005>
30.6386966705322

> <r_mmod_Bend_Energy-OPLS-2005>
132.233001708984

> <r_mmod_Torsional_Energy-OPLS-2005>
369.077575683594

> <r_mmod_Improper_Torsional_Energy-OPLS-2005>
5.62090969085693

> <r_mmod_Van_der_Waal_Energy-OPLS-2005>
134.048568725586

> <r_mmod_Electrostatic_Energy-OPLS-2005>
-342.063262939453

> <r_mmod_Solvation_Energy-OPLS-2005>
-445.824157714844

> <b_mmod_Minimization_Converged-OPLS-2005>
0

> <r_mmod_RMS_Derivative-OPLS-2005>
2.61863040924072

$$$$
11
                    3D
 Structure written by MMmdl.
170179  0  0  1  0            999 V2000
  -30.7057  -14.3991   20.6214 C   0  0  0  0  0  0
  -30.4318  -12.2801   19.3980 C   0  0  0  0  0  0
  -29.4983  -12.5261   18.1955 C   0  0  0  0  0  0
  -28.0171  -12.3923   18.6038 C   0  0  0  0  0  0
  -27.6747  -13.1971   19.8873 C   0  0  2  0  0  0
  -28.7123  -12.9065   20.9959 C   0  0  0  0  0  0
  -25.2652  -13.8143   20.5659 C   0  0  0  0  0  0
  -24.1880  -13.0437   20.9144 C   0  0  0  0  0  0
  -24.6417  -11.6895   20.8708 C   0  0  0  0  0  0
  -23.9078  -10.4294   21.0382 C   0  0  0  0  0  0
  -24.3629   -9.4214   21.9161 C   0  0  0  0  0  0
  -23.6302   -8.2257   22.0754 C   0  0  0  0  0  0
  -22.4288   -8.0291   21.3534 C   0  0  0  0  0  0
  -21.9922   -9.0263   20.4634 C   0  0  0  0  0  0
  -22.7252  -10.2136   20.3033 C   0  0  0  0  0  0
  -21.6863   -6.0738   22.5274 C   0  0  0  0  0  0
  -21.4018   -6.5641   23.8202 C   0  0  0  0  0  0
  -21.3649   -5.6797   24.9164 C   0  0  0  0  0  0
  -21.6044   -4.3059   24.7218 C   0  0  0  0  0  0
  -21.8820   -3.8146   23.4343 C   0  0  0  0  0  0
  -21.9197   -4.6965   22.3403 C   0  0  0  0  0  0
  -22.7898  -13.5248   21.1796 C   0  0  0  0  0  0
  -22.1660   -4.2150   21.0981 F   0  0  0  0  0  0
  -21.5628   -3.4540   25.7727 F   0  0  0  0  0  0
  -30.0536  -13.2183   20.4639 N   0  0  0  0  0  0
  -26.3099  -12.9295   20.3395 N   0  0  0  0  0  0
  -25.9347  -11.6458   20.5747 N   0  0  0  0  0  0
  -22.0521  -12.8254   22.0353 N   0  0  0  0  0  0
  -25.4398  -15.1863   20.4098 N   0  0  0  0  0  0
  -31.7721  -14.6753   20.0646 O   0  0  0  0  0  0
  -21.6654   -6.8884   21.4235 O   0  0  0  0  0  0
  -22.3588  -14.5545   20.6628 O   0  0  0  0  0  0
  -24.6109  -31.8692   23.2113 C   0  0  0  0  0  0
  -25.9017  -32.4828   23.8398 C   0  0  1  0  0  0
  -27.2400  -27.4614   20.0941 C   0  0  0  0  0  0
  -25.5894  -33.8627   24.2333 N   0  0  0  0  0  0
  -23.3970  -30.4929   21.5504 C   0  0  2  0  0  0
  -24.8439  -28.9590   20.1153 C   0  0  0  0  0  0
  -22.7385  -29.4665   22.4990 C   0  0  0  0  0  0
  -18.0263  -28.1380   22.8494 C   0  0  0  0  0  0
  -24.1484  -36.7317   23.2640 C   0  0  0  0  0  0
  -25.9213  -30.8450   21.3571 C   0  0  0  0  0  0
  -26.0001  -29.4791   20.7088 C   0  0  0  0  0  0
  -27.1973  -28.7350   20.6974 C   0  0  0  0  0  0
  -26.0652  -26.9454   19.4984 C   0  0  0  0  0  0
  -24.8696  -27.6909   19.5096 C   0  0  0  0  0  0
  -23.6044  -29.8235   20.1647 C   0  0  0  0  0  0
  -25.4104  -36.3114   24.0340 C   0  0  1  0  0  0
  -20.5854  -28.3654   23.1334 C   0  0  2  0  0  0
  -20.6755  -26.9392   22.5427 C   0  0  0  0  0  0
  -19.5743  -26.6386   21.5214 C   0  0  0  0  0  0
  -18.1914  -26.7928   22.1619 C   0  0  0  0  0  0
  -19.1512  -28.8834   23.2914 C   0  0  0  0  0  0
  -18.9448  -30.1439   23.8924 C   0  0  0  0  0  0
  -17.6451  -30.6583   24.0569 C   0  0  0  0  0  0
  -25.9033  -34.9479   23.5130 C   0  0  0  0  0  0
  -16.5337  -29.9094   23.6324 C   0  0  0  0  0  0
  -16.7253  -28.6513   23.0341 C   0  0  0  0  0  0
  -26.4458  -31.6596   25.0709 C   0  0  0  0  0  0
  -25.3738  -31.3694   26.1467 C   0  0  0  0  0  0
  -27.0281  -30.3051   24.6044 C   0  0  0  0  0  0
  -27.6045  -32.4301   25.7470 C   0  0  0  0  0  0
  -27.5578  -37.1812   24.8462 C   0  0  0  0  0  0
  -21.4112  -29.3020   22.3736 N   0  0  0  0  0  0
  -26.4289  -37.3796   23.9410 N   0  0  0  0  0  0
  -24.6614  -31.0825   22.0995 N   0  0  0  0  0  0
  -23.4174  -28.8204   23.3011 O   0  0  0  0  0  0
  -28.4392  -26.7881   20.1161 O   0  0  0  0  0  0
  -26.5585  -34.8925   22.4683 O   0  0  0  0  0  0
  -23.5309  -32.1427   23.7534 O   0  0  0  0  0  0
  -29.9825  -22.9893   21.0413 C   0  0  0  0  0  0
  -30.3165  -21.6743   21.4173 C   0  0  0  0  0  0
  -31.0079  -21.2148   19.1387 C   0  0  0  0  0  0
  -30.1704  -23.4447   19.7179 C   0  0  0  0  0  0
  -30.6877  -22.5362   18.7579 C   0  0  0  0  0  0
  -30.8339  -20.7670   20.4626 C   0  0  0  0  0  0
  -28.8111  -25.1776   18.3031 C   0  0  0  0  0  0
  -28.4644  -25.4151   19.7445 C   0  0  1  0  0  0
  -29.8512  -24.8879   19.3879 C   0  0  1  0  0  0
  -30.9101  -22.9459   17.3099 C   0  0  0  0  0  0
  -31.1836  -27.0089   18.6702 C   0  0  0  0  0  0
  -31.4399  -26.0881   21.0167 C   0  0  0  0  0  0
  -31.1414  -17.4324   22.0656 C   0  0  0  0  0  0
  -30.0949  -16.7568   21.1624 C   0  0  0  0  0  0
  -30.9906  -18.9621   22.0576 C   0  0  0  0  0  0
  -31.1309  -25.7435   19.5470 C   0  0  0  0  0  0
  -30.0177  -15.3059   21.3238 N   0  0  0  0  0  0
  -31.1821  -19.4590   20.7345 O   0  0  0  0  0  0
  -31.4731  -12.3927   19.0926 H   0  0  0  0  0  0
  -30.3355  -11.2524   19.7519 H   0  0  0  0  0  0
  -29.7290  -11.8267   17.3901 H   0  0  0  0  0  0
  -29.6789  -13.5241   17.7933 H   0  0  0  0  0  0
  -27.8110  -11.3344   18.7651 H   0  0  0  0  0  0
  -27.3723  -12.7064   17.7815 H   0  0  0  0  0  0
  -27.7412  -14.2555   19.6344 H   0  0  0  0  0  0
  -28.6763  -11.8522   21.2761 H   0  0  0  0  0  0
  -28.4710  -13.4476   21.9112 H   0  0  0  0  0  0
  -25.2774   -9.5715   22.4735 H   0  0  0  0  0  0
  -23.9999   -7.4679   22.7508 H   0  0  0  0  0  0
  -21.0838   -8.8804   19.8967 H   0  0  0  0  0  0
  -22.3709  -10.9688   19.6156 H   0  0  0  0  0  0
  -21.2016   -7.6149   23.9706 H   0  0  0  0  0  0
  -21.1460   -6.0520   25.9064 H   0  0  0  0  0  0
  -22.0610   -2.7613   23.2839 H   0  0  0  0  0  0
  -22.4122  -11.9929   22.4776 H   0  0  0  0  0  0
  -21.1136  -13.1289   22.2514 H   0  0  0  0  0  0
  -24.6783  -15.8471   20.5206 H   0  0  0  0  0  0
  -26.2985  -15.6218   20.0952 H   0  0  0  0  0  0
  -26.7088  -32.5563   23.1172 H   0  0  0  0  0  0
  -25.0049  -33.9791   25.0480 H   0  0  0  0  0  0
  -22.6842  -31.3086   21.4121 H   0  0  0  0  0  0
  -23.3744  -35.9655   23.3309 H   0  0  0  0  0  0
  -24.3587  -36.8918   22.2057 H   0  0  0  0  0  0
  -23.7239  -37.6525   23.6644 H   0  0  0  0  0  0
  -26.0226  -31.6098   20.5856 H   0  0  0  0  0  0
  -26.8139  -30.9054   21.9677 H   0  0  0  0  0  0
  -28.0910  -29.1337   21.1575 H   0  0  0  0  0  0
  -26.0573  -25.9780   19.0183 H   0  0  0  0  0  0
  -23.9794  -27.2843   19.0478 H   0  0  0  0  0  0
  -23.7109  -30.5979   19.4038 H   0  0  0  0  0  0
  -22.7296  -29.2412   19.8689 H   0  0  0  0  0  0
  -25.1281  -36.1977   25.0833 H   0  0  0  0  0  0
  -20.9955  -28.3220   24.1454 H   0  0  0  0  0  0
  -20.5655  -26.2257   23.3609 H   0  0  0  0  0  0
  -21.6628  -26.7440   22.1220 H   0  0  0  0  0  0
  -19.6902  -25.6302   21.1227 H   0  0  0  0  0  0
  -19.6694  -27.3214   20.6758 H   0  0  0  0  0  0
  -17.4189  -26.6685   21.4011 H   0  0  0  0  0  0
  -18.0309  -26.0063   22.9011 H   0  0  0  0  0  0
  -19.7926  -30.7244   24.2313 H   0  0  0  0  0  0
  -17.5008  -31.6266   24.5162 H   0  0  0  0  0  0
  -15.5338  -30.3007   23.7637 H   0  0  0  0  0  0
  -15.8652  -28.0844   22.7036 H   0  0  0  0  0  0
  -24.5925  -30.7020   25.7810 H   0  0  0  0  0  0
  -24.8915  -32.2847   26.4912 H   0  0  0  0  0  0
  -25.8114  -30.8877   27.0222 H   0  0  0  0  0  0
  -26.2810  -29.6826   24.1111 H   0  0  0  0  0  0
  -27.4084  -29.7266   25.4471 H   0  0  0  0  0  0
  -27.8625  -30.4379   23.9155 H   0  0  0  0  0  0
  -27.2678  -33.3596   26.2074 H   0  0  0  0  0  0
  -28.3856  -32.6864   25.0300 H   0  0  0  0  0  0
  -28.0712  -31.8404   26.5369 H   0  0  0  0  0  0
  -28.2600  -38.0104   24.7502 H   0  0  0  0  0  0
  -28.1063  -36.2636   24.6288 H   0  0  0  0  0  0
  -27.2298  -37.1464   25.8865 H   0  0  0  0  0  0
  -20.9261  -29.8758   21.6981 H   0  0  0  0  0  0
  -26.0177  -38.2872   24.1417 H   0  0  0  0  0  0
  -29.5936  -23.6645   21.7923 H   0  0  0  0  0  0
  -30.1696  -21.3950   22.4506 H   0  0  0  0  0  0
  -31.4015  -20.5279   18.4017 H   0  0  0  0  0  0
  -28.8894  -26.0670   17.6830 H   0  0  0  0  0  0
  -28.3268  -24.3309   17.8213 H   0  0  0  0  0  0
  -27.7617  -24.7665   20.2651 H   0  0  0  0  0  0
  -31.6449  -22.3025   16.8261 H   0  0  0  0  0  0
  -31.2729  -23.9702   17.2253 H   0  0  0  0  0  0
  -29.9778  -22.8651   16.7513 H   0  0  0  0  0  0
  -31.0862  -26.7653   17.6124 H   0  0  0  0  0  0
  -32.1380  -27.5223   18.7902 H   0  0  0  0  0  0
  -30.4025  -27.7241   18.9264 H   0  0  0  0  0  0
  -31.5533  -25.1919   21.6259 H   0  0  0  0  0  0
  -30.6551  -26.6971   21.4648 H   0  0  0  0  0  0
  -32.3742  -26.6439   21.1007 H   0  0  0  0  0  0
  -32.1484  -17.1573   21.7510 H   0  0  0  0  0  0
  -31.0271  -17.0772   23.0911 H   0  0  0  0  0  0
  -30.2824  -17.0052   20.1156 H   0  0  0  0  0  0
  -29.1065  -17.1558   21.3919 H   0  0  0  0  0  0
  -31.7213  -19.4168   22.7288 H   0  0  0  0  0  0
  -29.9962  -19.2087   22.4315 H   0  0  0  0  0  0
  -31.9614  -25.1283   19.1963 H   0  0  0  0  0  0
  -29.1880  -14.9500   21.7778 H   0  0  0  0  0  0
  1 25  1  0  0  0
  1 30  2  0  0  0
  1 87  1  0  0  0
  2  3  1  0  0  0
  2 25  1  0  0  0
  2 89  1  0  0  0
  2 90  1  0  0  0
  3  4  1  0  0  0
  3 91  1  0  0  0
  3 92  1  0  0  0
  4  5  1  0  0  0
  4 93  1  0  0  0
  4 94  1  0  0  0
  5  6  1  0  0  0
  5 26  1  0  0  0
  5 95  1  0  0  0
  6 25  1  0  0  0
  6 96  1  0  0  0
  6 97  1  0  0  0
  7  8  2  0  0  0
  7 26  1  0  0  0
  7 29  1  0  0  0
  8  9  1  0  0  0
  8 22  1  0  0  0
  9 10  1  0  0  0
  9 27  2  0  0  0
 10 11  2  0  0  0
 10 15  1  0  0  0
 11 12  1  0  0  0
 11 98  1  0  0  0
 12 13  2  0  0  0
 12 99  1  0  0  0
 13 14  1  0  0  0
 13 31  1  0  0  0
 14 15  2  0  0  0
 14100  1  0  0  0
 15101  1  0  0  0
 16 17  2  0  0  0
 16 21  1  0  0  0
 16 31  1  0  0  0
 17 18  1  0  0  0
 17102  1  0  0  0
 18 19  2  0  0  0
 18103  1  0  0  0
 19 20  1  0  0  0
 19 24  1  0  0  0
 20 21  2  0  0  0
 20104  1  0  0  0
 21 23  1  0  0  0
 22 28  1  0  0  0
 22 32  2  0  0  0
 26 27  1  0  0  0
 28105  1  0  0  0
 28106  1  0  0  0
 29107  1  0  0  0
 29108  1  0  0  0
 33 34  1  0  0  0
 33 66  1  0  0  0
 33 70  2  0  0  0
 34 36  1  0  0  0
 34 59  1  0  0  0
 34109  1  0  0  0
 35 44  2  0  0  0
 35 45  1  0  0  0
 35 68  1  0  0  0
 36 56  1  0  0  0
 36110  1  0  0  0
 37 39  1  0  0  0
 37 47  1  0  0  0
 37 66  1  0  0  0
 37111  1  0  0  0
 38 43  2  0  0  0
 38 46  1  0  0  0
 38 47  1  0  0  0
 39 64  1  0  0  0
 39 67  2  0  0  0
 40 52  1  0  0  0
 40 53  2  0  0  0
 40 58  1  0  0  0
 41112  1  0  0  0
 41113  1  0  0  0
 41114  1  0  0  0
 41 48  1  0  0  0
 42 43  1  0  0  0
 42 66  1  0  0  0
 42115  1  0  0  0
 42116  1  0  0  0
 43 44  1  0  0  0
 44117  1  0  0  0
 45 46  2  0  0  0
 45118  1  0  0  0
 46119  1  0  0  0
 47120  1  0  0  0
 47121  1  0  0  0
 48 56  1  0  0  0
 48 65  1  0  0  0
 48122  1  0  0  0
 49 50  1  0  0  0
 49 53  1  0  0  0
 49 64  1  0  0  0
 49123  1  0  0  0
 50 51  1  0  0  0
 50124  1  0  0  0
 50125  1  0  0  0
 51 52  1  0  0  0
 51126  1  0  0  0
 51127  1  0  0  0
 52128  1  0  0  0
 52129  1  0  0  0
 53 54  1  0  0  0
 54 55  2  0  0  0
 54130  1  0  0  0
 55 57  1  0  0  0
 55131  1  0  0  0
 56 69  2  0  0  0
 57 58  2  0  0  0
 57132  1  0  0  0
 58133  1  0  0  0
 59 60  1  0  0  0
 59 61  1  0  0  0
 59 62  1  0  0  0
 60134  1  0  0  0
 60135  1  0  0  0
 60136  1  0  0  0
 61137  1  0  0  0
 61138  1  0  0  0
 61139  1  0  0  0
 62140  1  0  0  0
 62141  1  0  0  0
 62142  1  0  0  0
 63 65  1  0  0  0
 63143  1  0  0  0
 63144  1  0  0  0
 63145  1  0  0  0
 64146  1  0  0  0
 65147  1  0  0  0
 68 78  1  0  0  0
 71 72  2  0  0  0
 71 74  1  0  0  0
 71148  1  0  0  0
 72 76  1  0  0  0
 72149  1  0  0  0
 73 75  1  0  0  0
 73 76  2  0  0  0
 73150  1  0  0  0
 74 75  2  0  0  0
 74 79  1  0  0  0
 75 80  1  0  0  0
 76 88  1  0  0  0
 77 78  1  0  0  0
 77 79  1  0  0  0
 77151  1  0  0  0
 77152  1  0  0  0
 78 79  1  0  0  0
 78153  1  0  0  0
 79 86  1  0  0  0
 80154  1  0  0  0
 80155  1  0  0  0
 80156  1  0  0  0
 81157  1  0  0  0
 81158  1  0  0  0
 81159  1  0  0  0
 81 86  1  0  0  0
 82 86  1  0  0  0
 82160  1  0  0  0
 82161  1  0  0  0
 82162  1  0  0  0
 83 84  1  0  0  0
 83 85  1  0  0  0
 83163  1  0  0  0
 83164  1  0  0  0
 84 87  1  0  0  0
 84165  1  0  0  0
 84166  1  0  0  0
 85 88  1  0  0  0
 85167  1  0  0  0
 85168  1  0  0  0
 86169  1  0  0  0
 87170  1  0  0  0
M  ISO  4   1 100  68 101  78 101  87 100
M  END
> <chiral flag>
0

> <version>
0

> <s_m_source_file>
/data/baiqing/PycharmProjects/Reinvent-master-3.2/result/LINK_invent/BTK/process_docking_weight1_custom_sum_contain_oxygen_bond_distance_aromatic_linkinvent_7_9_3/rearranged_h_0146.sdf

> <i_m_source_file_index>
12

> <r_mmod_Potential_Energy-OPLS-2005>
0.535016417503357

> <r_mmod_Stretch_Energy-OPLS-2005>
36.1439018249512

> <r_mmod_Bend_Energy-OPLS-2005>
110.779815673828

> <r_mmod_Torsional_Energy-OPLS-2005>
248.957046508789

> <r_mmod_Improper_Torsional_Energy-OPLS-2005>
4.36683940887451

> <r_mmod_Van_der_Waal_Energy-OPLS-2005>
158.116744995117

> <r_mmod_Electrostatic_Energy-OPLS-2005>
-358.557495117188

> <r_mmod_Solvation_Energy-OPLS-2005>
-207.965942382812

> <b_mmod_Minimization_Converged-OPLS-2005>
0

> <r_mmod_RMS_Derivative-OPLS-2005>
1.91358721256256

$$$$
12
                    3D
 Structure written by MMmdl.
167177  0  0  1  0            999 V2000
  -30.7577  -14.4851   20.5602 C   0  0  0  0  0  0
  -30.4062  -12.3092   19.4446 C   0  0  0  0  0  0
  -29.4988  -12.5173   18.2157 C   0  0  0  0  0  0
  -28.0171  -12.3903   18.6150 C   0  0  0  0  0  0
  -27.6612  -13.2269   19.8735 C   0  0  2  0  0  0
  -28.7062  -13.0540   21.0013 C   0  0  0  0  0  0
  -25.2591  -13.8192   20.5692 C   0  0  0  0  0  0
  -24.1859  -13.0443   20.9178 C   0  0  0  0  0  0
  -24.6434  -11.6928   20.8733 C   0  0  0  0  0  0
  -23.9098  -10.4310   21.0406 C   0  0  0  0  0  0
  -24.3649   -9.4222   21.9188 C   0  0  0  0  0  0
  -23.6318   -8.2261   22.0752 C   0  0  0  0  0  0
  -22.4302   -8.0301   21.3538 C   0  0  0  0  0  0
  -21.9949   -9.0270   20.4633 C   0  0  0  0  0  0
  -22.7279  -10.2154   20.3041 C   0  0  0  0  0  0
  -21.6854   -6.0771   22.5296 C   0  0  0  0  0  0
  -21.4017   -6.5665   23.8236 C   0  0  0  0  0  0
  -21.3652   -5.6800   24.9179 C   0  0  0  0  0  0
  -21.6044   -4.3061   24.7231 C   0  0  0  0  0  0
  -21.8806   -3.8171   23.4335 C   0  0  0  0  0  0
  -21.9182   -4.6995   22.3393 C   0  0  0  0  0  0
  -22.7871  -13.5227   21.1832 C   0  0  0  0  0  0
  -22.1648   -4.2190   21.0967 F   0  0  0  0  0  0
  -21.5622   -3.4532   25.7728 F   0  0  0  0  0  0
  -30.0388  -13.3298   20.4430 N   0  0  0  0  0  0
  -26.3053  -12.9412   20.3388 N   0  0  0  0  0  0
  -25.9386  -11.6549   20.5781 N   0  0  0  0  0  0
  -22.0494  -12.8221   22.0369 N   0  0  0  0  0  0
  -25.4250  -15.1934   20.4117 N   0  0  0  0  0  0
  -31.8924  -14.5691   20.0789 O   0  0  0  0  0  0
  -21.6633   -6.8929   21.4264 O   0  0  0  0  0  0
  -22.3569  -14.5529   20.6678 O   0  0  0  0  0  0
  -24.6197  -31.8650   23.2121 C   0  0  0  0  0  0
  -25.9086  -32.4779   23.8404 C   0  0  1  0  0  0
  -27.2100  -27.4209   20.0928 C   0  0  0  0  0  0
  -25.5983  -33.8600   24.2331 N   0  0  0  0  0  0
  -23.4019  -30.4944   21.5567 C   0  0  2  0  0  0
  -24.8373  -28.9619   20.1175 C   0  0  0  0  0  0
  -22.7417  -29.4668   22.5056 C   0  0  0  0  0  0
  -18.0279  -28.1388   22.8502 C   0  0  0  0  0  0
  -24.1478  -36.7249   23.2639 C   0  0  0  0  0  0
  -25.9348  -30.8303   21.3618 C   0  0  0  0  0  0
  -26.0033  -29.4669   20.7045 C   0  0  0  0  0  0
  -27.1961  -28.7061   20.6827 C   0  0  0  0  0  0
  -26.0216  -26.9355   19.5041 C   0  0  0  0  0  0
  -24.8408  -27.6961   19.5127 C   0  0  0  0  0  0
  -23.6019  -29.8314   20.1705 C   0  0  0  0  0  0
  -25.4111  -36.3078   24.0330 C   0  0  1  0  0  0
  -20.5871  -28.3638   23.1330 C   0  0  2  0  0  0
  -20.6766  -26.9380   22.5406 C   0  0  0  0  0  0
  -19.5726  -26.6391   21.5220 C   0  0  0  0  0  0
  -18.1906  -26.7970   22.1609 C   0  0  0  0  0  0
  -19.1538  -28.8847   23.2910 C   0  0  0  0  0  0
  -18.9460  -30.1485   23.8883 C   0  0  0  0  0  0
  -17.6450  -30.6589   24.0572 C   0  0  0  0  0  0
  -25.9052  -34.9449   23.5114 C   0  0  0  0  0  0
  -16.5340  -29.9080   23.6358 C   0  0  0  0  0  0
  -16.7265  -28.6502   23.0371 C   0  0  0  0  0  0
  -26.4511  -31.6579   25.0746 C   0  0  0  0  0  0
  -25.3783  -31.3658   26.1497 C   0  0  0  0  0  0
  -27.0380  -30.3069   24.6100 C   0  0  0  0  0  0
  -27.6117  -32.4283   25.7449 C   0  0  0  0  0  0
  -27.5580  -37.1734   24.8453 C   0  0  0  0  0  0
  -21.4151  -29.3023   22.3773 N   0  0  0  0  0  0
  -26.4252  -37.3810   23.9475 N   0  0  0  0  0  0
  -24.6716  -31.0770   22.1013 N   0  0  0  0  0  0
  -23.4186  -28.8197   23.3093 O   0  0  0  0  0  0
  -28.3642  -26.6633   20.1093 O   0  0  0  0  0  0
  -26.5565  -34.8901   22.4653 O   0  0  0  0  0  0
  -23.5394  -32.1414   23.7527 O   0  0  0  0  0  0
  -29.7153  -17.9771   20.7733 C   0  0  0  0  0  0
  -32.3932  -18.4575   21.1125 C   0  0  0  0  0  0
  -31.5801  -19.5381   20.7303 C   0  0  0  0  0  0
  -30.1974  -19.2996   20.6006 C   0  0  0  0  0  0
  -30.6206  -16.9200   21.0587 C   0  0  0  0  0  0
  -31.9915  -21.5830   19.1386 C   0  0  0  0  0  0
  -33.3617  -21.1318   19.5739 C   0  0  0  0  0  0
  -29.5483  -23.2956   21.4608 C   0  0  0  0  0  0
  -28.0722  -22.8573   19.4542 C   0  0  0  0  0  0
  -29.3291  -24.8311   21.3725 C   0  0  0  0  0  0
  -28.2694  -24.3657   19.1380 C   0  0  0  0  0  0
  -32.1686  -20.9000   20.4820 C   0  0  0  0  0  0
  -28.3634  -22.4608   20.9241 C   0  0  1  0  0  0
  -28.2115  -25.2579   20.3962 C   0  0  2  0  0  0
  -28.4998  -20.9177   21.1367 C   0  0  0  0  0  0
  -31.9294  -17.2031   21.2824 N   0  0  0  0  0  0
  -30.1280  -15.5689   21.0711 N   0  0  0  0  0  0
  -29.3936  -20.3383   20.1818 O   0  0  0  0  0  0
  -31.4563  -12.3588   19.1467 H   0  0  0  0  0  0
  -30.2698  -11.3078   19.8571 H   0  0  0  0  0  0
  -29.7432  -11.7983   17.4341 H   0  0  0  0  0  0
  -29.6814  -13.5053   17.7853 H   0  0  0  0  0  0
  -27.8096  -11.3351   18.7922 H   0  0  0  0  0  0
  -27.3787  -12.6883   17.7809 H   0  0  0  0  0  0
  -27.6887  -14.2702   19.5603 H   0  0  0  0  0  0
  -28.6799  -12.0369   21.3937 H   0  0  0  0  0  0
  -28.4759  -13.7042   21.8452 H   0  0  0  0  0  0
  -25.2798   -9.5678   22.4770 H   0  0  0  0  0  0
  -24.0013   -7.4642   22.7472 H   0  0  0  0  0  0
  -21.0887   -8.8786   19.8935 H   0  0  0  0  0  0
  -22.3754  -10.9681   19.6135 H   0  0  0  0  0  0
  -21.2018   -7.6180   23.9757 H   0  0  0  0  0  0
  -21.1481   -6.0525   25.9087 H   0  0  0  0  0  0
  -22.0593   -2.7649   23.2806 H   0  0  0  0  0  0
  -22.4079  -11.9854   22.4712 H   0  0  0  0  0  0
  -21.1104  -13.1267   22.2549 H   0  0  0  0  0  0
  -24.6497  -15.8390   20.5114 H   0  0  0  0  0  0
  -26.2709  -15.6391   20.0794 H   0  0  0  0  0  0
  -26.7146  -32.5420   23.1137 H   0  0  0  0  0  0
  -25.0332  -33.9800   25.0600 H   0  0  0  0  0  0
  -22.6936  -31.3151   21.4229 H   0  0  0  0  0  0
  -23.3804  -35.9504   23.3243 H   0  0  0  0  0  0
  -24.3646  -36.8938   22.2077 H   0  0  0  0  0  0
  -23.7081  -37.6379   23.6678 H   0  0  0  0  0  0
  -26.0536  -31.5954   20.5932 H   0  0  0  0  0  0
  -26.8223  -30.8710   21.9814 H   0  0  0  0  0  0
  -28.0964  -29.0879   21.1421 H   0  0  0  0  0  0
  -25.9721  -25.9602   19.0483 H   0  0  0  0  0  0
  -23.9423  -27.2973   19.0636 H   0  0  0  0  0  0
  -23.7042  -30.6046   19.4100 H   0  0  0  0  0  0
  -22.7187  -29.2582   19.8764 H   0  0  0  0  0  0
  -25.1262  -36.1900   25.0807 H   0  0  0  0  0  0
  -20.9956  -28.3136   24.1456 H   0  0  0  0  0  0
  -20.5739  -26.2219   23.3591 H   0  0  0  0  0  0
  -21.6616  -26.7477   22.1132 H   0  0  0  0  0  0
  -19.6887  -25.6321   21.1203 H   0  0  0  0  0  0
  -19.6660  -27.3239   20.6799 H   0  0  0  0  0  0
  -17.4199  -26.6800   21.3985 H   0  0  0  0  0  0
  -18.0249  -26.0098   22.8974 H   0  0  0  0  0  0
  -19.7930  -30.7344   24.2190 H   0  0  0  0  0  0
  -17.4982  -31.6282   24.5171 H   0  0  0  0  0  0
  -15.5328  -30.2942   23.7756 H   0  0  0  0  0  0
  -15.8675  -28.0818   22.7083 H   0  0  0  0  0  0
  -24.6030  -30.6904   25.7851 H   0  0  0  0  0  0
  -24.8886  -32.2808   26.4839 H   0  0  0  0  0  0
  -25.8178  -30.8920   27.0293 H   0  0  0  0  0  0
  -26.2919  -29.6749   24.1291 H   0  0  0  0  0  0
  -27.4405  -29.7344   25.4454 H   0  0  0  0  0  0
  -27.8602  -30.4505   23.9102 H   0  0  0  0  0  0
  -27.2845  -33.3684   26.1887 H   0  0  0  0  0  0
  -28.3961  -32.6663   25.0250 H   0  0  0  0  0  0
  -28.0738  -31.8474   26.5443 H   0  0  0  0  0  0
  -28.2467  -38.0155   24.7763 H   0  0  0  0  0  0
  -28.1192  -36.2729   24.5935 H   0  0  0  0  0  0
  -27.2381  -37.0949   25.8856 H   0  0  0  0  0  0
  -20.9317  -29.8689   21.6942 H   0  0  0  0  0  0
  -26.0112  -38.2827   24.1693 H   0  0  0  0  0  0
  -28.6680  -17.7718   20.5952 H   0  0  0  0  0  0
  -33.4551  -18.5954   21.2602 H   0  0  0  0  0  0
  -31.5131  -21.0212   18.3386 H   0  0  0  0  0  0
  -31.8091  -22.6556   19.1242 H   0  0  0  0  0  0
  -34.0586  -21.9313   19.8165 H   0  0  0  0  0  0
  -33.7888  -20.2945   19.0273 H   0  0  0  0  0  0
  -29.7905  -23.0131   22.4864 H   0  0  0  0  0  0
  -30.4277  -23.0516   20.8720 H   0  0  0  0  0  0
  -28.7216  -22.2937   18.7791 H   0  0  0  0  0  0
  -27.0558  -22.5561   19.2037 H   0  0  0  0  0  0
  -30.2658  -25.3014   21.0722 H   0  0  0  0  0  0
  -29.1056  -25.2351   22.3606 H   0  0  0  0  0  0
  -27.5416  -24.6726   18.3889 H   0  0  0  0  0  0
  -29.2408  -24.5021   18.6646 H   0  0  0  0  0  0
  -32.1051  -21.5084   21.3818 H   0  0  0  0  0  0
  -27.4988  -22.7623   21.5185 H   0  0  0  0  0  0
  -27.2621  -25.0830   20.9065 H   0  0  0  0  0  0
  -27.5210  -20.4469   21.0031 H   0  0  0  0  0  0
  -28.8042  -20.7109   22.1685 H   0  0  0  0  0  0
  -29.1652  -15.4338   21.3328 H   0  0  0  0  0  0
  1 25  1  0  0  0
  1 30  2  0  0  0
  1 87  1  0  0  0
  2  3  1  0  0  0
  2 25  1  0  0  0
  2 89  1  0  0  0
  2 90  1  0  0  0
  3  4  1  0  0  0
  3 91  1  0  0  0
  3 92  1  0  0  0
  4  5  1  0  0  0
  4 93  1  0  0  0
  4 94  1  0  0  0
  5  6  1  0  0  0
  5 26  1  0  0  0
  5 95  1  0  0  0
  6 25  1  0  0  0
  6 96  1  0  0  0
  6 97  1  0  0  0
  7  8  2  0  0  0
  7 26  1  0  0  0
  7 29  1  0  0  0
  8  9  1  0  0  0
  8 22  1  0  0  0
  9 10  1  0  0  0
  9 27  2  0  0  0
 10 11  2  0  0  0
 10 15  1  0  0  0
 11 12  1  0  0  0
 11 98  1  0  0  0
 12 13  2  0  0  0
 12 99  1  0  0  0
 13 14  1  0  0  0
 13 31  1  0  0  0
 14 15  2  0  0  0
 14100  1  0  0  0
 15101  1  0  0  0
 16 17  2  0  0  0
 16 21  1  0  0  0
 16 31  1  0  0  0
 17 18  1  0  0  0
 17102  1  0  0  0
 18 19  2  0  0  0
 18103  1  0  0  0
 19 20  1  0  0  0
 19 24  1  0  0  0
 20 21  2  0  0  0
 20104  1  0  0  0
 21 23  1  0  0  0
 22 28  1  0  0  0
 22 32  2  0  0  0
 26 27  1  0  0  0
 28105  1  0  0  0
 28106  1  0  0  0
 29107  1  0  0  0
 29108  1  0  0  0
 33 34  1  0  0  0
 33 66  1  0  0  0
 33 70  2  0  0  0
 34 36  1  0  0  0
 34 59  1  0  0  0
 34109  1  0  0  0
 35 44  2  0  0  0
 35 45  1  0  0  0
 35 68  1  0  0  0
 36 56  1  0  0  0
 36110  1  0  0  0
 37 39  1  0  0  0
 37 47  1  0  0  0
 37 66  1  0  0  0
 37111  1  0  0  0
 38 43  2  0  0  0
 38 46  1  0  0  0
 38 47  1  0  0  0
 39 64  1  0  0  0
 39 67  2  0  0  0
 40 52  1  0  0  0
 40 53  2  0  0  0
 40 58  1  0  0  0
 41112  1  0  0  0
 41113  1  0  0  0
 41114  1  0  0  0
 41 48  1  0  0  0
 42 43  1  0  0  0
 42 66  1  0  0  0
 42115  1  0  0  0
 42116  1  0  0  0
 43 44  1  0  0  0
 44117  1  0  0  0
 45 46  2  0  0  0
 45118  1  0  0  0
 46119  1  0  0  0
 47120  1  0  0  0
 47121  1  0  0  0
 48 56  1  0  0  0
 48 65  1  0  0  0
 48122  1  0  0  0
 49 50  1  0  0  0
 49 53  1  0  0  0
 49 64  1  0  0  0
 49123  1  0  0  0
 50 51  1  0  0  0
 50124  1  0  0  0
 50125  1  0  0  0
 51 52  1  0  0  0
 51126  1  0  0  0
 51127  1  0  0  0
 52128  1  0  0  0
 52129  1  0  0  0
 53 54  1  0  0  0
 54 55  2  0  0  0
 54130  1  0  0  0
 55 57  1  0  0  0
 55131  1  0  0  0
 56 69  2  0  0  0
 57 58  2  0  0  0
 57132  1  0  0  0
 58133  1  0  0  0
 59 60  1  0  0  0
 59 61  1  0  0  0
 59 62  1  0  0  0
 60134  1  0  0  0
 60135  1  0  0  0
 60136  1  0  0  0
 61137  1  0  0  0
 61138  1  0  0  0
 61139  1  0  0  0
 62140  1  0  0  0
 62141  1  0  0  0
 62142  1  0  0  0
 63 65  1  0  0  0
 63143  1  0  0  0
 63144  1  0  0  0
 63145  1  0  0  0
 64146  1  0  0  0
 65147  1  0  0  0
 68 84  1  0  0  0
 71 74  2  0  0  0
 71 75  1  0  0  0
 71148  1  0  0  0
 72 73  2  0  0  0
 72 86  1  0  0  0
 72149  1  0  0  0
 73 74  1  0  0  0
 73 82  1  0  0  0
 74 88  1  0  0  0
 75 86  2  0  0  0
 75 87  1  0  0  0
 76 77  1  0  0  0
 76 82  1  0  0  0
 76150  1  0  0  0
 76151  1  0  0  0
 77 82  1  0  0  0
 77152  1  0  0  0
 77153  1  0  0  0
 78 80  1  0  0  0
 78 83  1  0  0  0
 78154  1  0  0  0
 78155  1  0  0  0
 79 81  1  0  0  0
 79 83  1  0  0  0
 79156  1  0  0  0
 79157  1  0  0  0
 80 84  1  0  0  0
 80158  1  0  0  0
 80159  1  0  0  0
 81 84  1  0  0  0
 81160  1  0  0  0
 81161  1  0  0  0
 82162  1  0  0  0
 83 85  1  0  0  0
 83163  1  0  0  0
 84164  1  0  0  0
 85 88  1  0  0  0
 85165  1  0  0  0
 85166  1  0  0  0
 87167  1  0  0  0
M  ISO  4   1 100  68 101  84 101  87 100
M  END
> <chiral flag>
0

> <version>
0

> <s_m_source_file>
/data/baiqing/PycharmProjects/Reinvent-master-3.2/result/LINK_invent/BTK/process_docking_weight1_custom_sum_contain_oxygen_bond_distance_aromatic_linkinvent_7_9_3/rearranged_h_0146.sdf

> <i_m_source_file_index>
13

> <r_mmod_Potential_Energy-OPLS-2005>
-48.2345962524414

> <r_mmod_Stretch_Energy-OPLS-2005>
42.4145965576172

> <r_mmod_Bend_Energy-OPLS-2005>
109.208290100098

> <r_mmod_Torsional_Energy-OPLS-2005>
326.802520751953

> <r_mmod_Improper_Torsional_Energy-OPLS-2005>
4.32209062576294

> <r_mmod_Van_der_Waal_Energy-OPLS-2005>
155.903167724609

> <r_mmod_Electrostatic_Energy-OPLS-2005>
-476.139801025391

> <r_mmod_Solvation_Energy-OPLS-2005>
-229.158660888672

> <b_mmod_Minimization_Converged-OPLS-2005>
0

> <r_mmod_RMS_Derivative-OPLS-2005>
4.87154054641724

$$$$
13
                    3D
 Structure written by MMmdl.
172181  0  0  1  0            999 V2000
  -29.4897  -12.9967   20.4950 C   0  0  0  0  0  0
  -29.9929  -11.5627   19.8761 C   0  0  0  0  0  0
  -29.3554  -12.1167   18.2657 C   0  0  0  0  0  0
  -28.5242  -13.6324   18.2070 C   0  0  0  0  0  0
  -28.1654  -14.6126   19.6692 C   0  0  2  0  0  0
  -29.2836  -14.1133   21.3496 C   0  0  0  0  0  0
  -25.3983  -13.7701   20.2987 C   0  0  0  0  0  0
  -24.3881  -13.0005   21.1040 C   0  0  0  0  0  0
  -25.1108  -11.8100   21.1666 C   0  0  0  0  0  0
  -24.1511  -10.5607   21.1115 C   0  0  0  0  0  0
  -24.4663   -9.4821   21.9812 C   0  0  0  0  0  0
  -23.6871   -8.2979   22.1021 C   0  0  0  0  0  0
  -22.5038   -8.1158   21.3537 C   0  0  0  0  0  0
  -22.1639   -9.1524   20.4530 C   0  0  0  0  0  0
  -22.9715  -10.3262   20.3187 C   0  0  0  0  0  0
  -21.7120   -6.1237   22.5111 C   0  0  0  0  0  0
  -21.4203   -6.5927   23.8123 C   0  0  0  0  0  0
  -21.3719   -5.6988   24.9037 C   0  0  0  0  0  0
  -21.6032   -4.3248   24.7056 C   0  0  0  0  0  0
  -21.8774   -3.8451   23.4136 C   0  0  0  0  0  0
  -21.9250   -4.7363   22.3226 C   0  0  0  0  0  0
  -22.8348  -13.2150   21.3590 C   0  0  0  0  0  0
  -22.1675   -4.2468   21.0824 F   0  0  0  0  0  0
  -21.5598   -3.4677   25.7539 F   0  0  0  0  0  0
  -29.9956  -12.5575   21.2539 N   0  0  0  0  0  0
  -26.4850  -14.1825   19.7712 N   0  0  0  0  0  0
  -25.4093  -13.0923   20.6675 N   0  0  0  0  0  0
  -22.2763  -12.6533   22.4081 N   0  0  0  0  0  0
  -25.9883  -14.9250   19.2399 N   0  0  0  0  0  0
  -30.5782  -13.7017   19.7258 O   0  0  0  0  0  0
  -21.7122   -6.9743   21.4180 O   0  0  0  0  0  0
  -22.0640  -13.8649   20.6580 O   0  0  0  0  0  0
  -24.6403  -31.8501   23.1942 C   0  0  0  0  0  0
  -25.9212  -32.4699   23.8290 C   0  0  1  0  0  0
  -27.0477  -27.1072   20.2036 C   0  0  0  0  0  0
  -25.5986  -33.8511   24.2193 N   0  0  0  0  0  0
  -23.4320  -30.4856   21.5406 C   0  0  2  0  0  0
  -24.8508  -28.9322   20.0889 C   0  0  0  0  0  0
  -22.7525  -29.4608   22.4835 C   0  0  0  0  0  0
  -18.0305  -28.1393   22.8483 C   0  0  0  0  0  0
  -24.1508  -36.7264   23.2632 C   0  0  0  0  0  0
  -25.9891  -30.7250   21.3881 C   0  0  0  0  0  0
  -26.0327  -29.3411   20.7229 C   0  0  0  0  0  0
  -27.1562  -28.4408   20.7563 C   0  0  0  0  0  0
  -25.8837  -26.8114   19.4874 C   0  0  0  0  0  0
  -24.7936  -27.6904   19.4435 C   0  0  0  0  0  0
  -23.6442  -29.8462   20.1460 C   0  0  0  0  0  0
  -25.4136  -36.3020   24.0293 C   0  0  1  0  0  0
  -20.5919  -28.3719   23.1236 C   0  0  2  0  0  0
  -20.6793  -26.9427   22.5397 C   0  0  0  0  0  0
  -19.5764  -26.6378   21.5210 C   0  0  0  0  0  0
  -18.1947  -26.7932   22.1629 C   0  0  0  0  0  0
  -19.1561  -28.8871   23.2858 C   0  0  0  0  0  0
  -18.9476  -30.1469   23.8879 C   0  0  0  0  0  0
  -17.6474  -30.6592   24.0563 C   0  0  0  0  0  0
  -25.9092  -34.9404   23.5045 C   0  0  0  0  0  0
  -16.5367  -29.9083   23.6340 C   0  0  0  0  0  0
  -16.7288  -28.6502   23.0357 C   0  0  0  0  0  0
  -26.4520  -31.6565   25.0731 C   0  0  0  0  0  0
  -25.3705  -31.3802   26.1433 C   0  0  0  0  0  0
  -27.0355  -30.2941   24.6326 C   0  0  0  0  0  0
  -27.6042  -32.4339   25.7525 C   0  0  0  0  0  0
  -27.5576  -37.1787   24.8452 C   0  0  0  0  0  0
  -21.4226  -29.3058   22.3599 N   0  0  0  0  0  0
  -26.4288  -37.3736   23.9392 N   0  0  0  0  0  0
  -24.7083  -31.0403   22.0957 N   0  0  0  0  0  0
  -23.4215  -28.8138   23.2935 O   0  0  0  0  0  0
  -27.9391  -26.0160   20.3440 O   0  0  0  0  0  0
  -26.5670  -34.8901   22.4622 O   0  0  0  0  0  0
  -23.5540  -32.1388   23.7187 O   0  0  0  0  0  0
  -27.1840  -20.5479   20.1801 C   0  0  0  0  0  0
  -25.5961  -21.3453   21.6921 C   0  0  0  0  0  0
  -26.5964  -21.7320   20.7416 C   0  0  0  0  0  0
  -26.8402  -19.1656   20.5055 C   0  0  0  0  0  0
  -25.2468  -19.9669   22.0394 C   0  0  0  0  0  0
  -25.8264  -18.7673   21.4537 C   0  0  0  0  0  0
  -24.3873  -13.4320   18.3532 C   0  0  0  0  0  0
  -26.4486  -12.0708   18.8859 C   0  0  0  0  0  0
  -23.9025  -15.4354   19.9424 C   0  0  0  0  0  0
  -26.8695  -14.3689   22.0313 C   0  0  1  0  0  0
  -27.6295  -18.0983   19.7947 C   0  0  0  0  0  0
  -24.2147  -19.8027   23.1446 C   0  0  0  0  0  0
  -26.5968  -13.8604   23.4647 C   0  0  0  0  0  0
  -26.9152  -23.2593   20.1552 C   0  0  0  0  0  0
  -25.4697  -17.2294   22.0512 C   0  0  0  0  0  0
  -27.4246  -24.6576   20.9354 C   0  0  0  0  0  0
  -27.7681  -12.5853   20.6987 N   0  0  0  0  0  0
  -25.3579  -15.7597   21.4430 N   0  3  2  0  0  0
  -31.0188  -11.1996   19.7187 H   0  0  0  0  0  0
  -29.4793  -10.6206   20.1261 H   0  0  0  0  0  0
  -28.8337  -11.2949   17.7789 H   0  0  0  0  0  0
  -30.2211  -12.2281   17.6096 H   0  0  0  0  0  0
  -27.7460  -13.6869   17.4453 H   0  0  0  0  0  0
  -29.2495  -14.2677   17.6940 H   0  0  0  0  0  0
  -28.3126  -15.6617   19.4281 H   0  0  0  0  0  0
  -29.0727  -14.1981   22.4316 H   0  0  0  0  0  0
  -30.0010  -14.9664   21.4894 H   0  0  0  0  0  0
  -25.3488   -9.5728   22.5998 H   0  0  0  0  0  0
  -24.0155   -7.5317   22.7884 H   0  0  0  0  0  0
  -21.2821   -9.0499   19.8384 H   0  0  0  0  0  0
  -22.6629  -11.0737   19.6041 H   0  0  0  0  0  0
  -21.2288   -7.6434   23.9749 H   0  0  0  0  0  0
  -21.1529   -6.0681   25.8956 H   0  0  0  0  0  0
  -22.0446   -2.7898   23.2588 H   0  0  0  0  0  0
  -22.8264  -12.0946   23.0421 H   0  0  0  0  0  0
  -21.2910  -12.7838   22.5862 H   0  0  0  0  0  0
  -25.2618  -15.0784   18.5496 H   0  0  0  0  0  0
  -26.7799  -14.5564   18.7203 H   0  0  0  0  0  0
  -26.7275  -32.5270   23.1008 H   0  0  0  0  0  0
  -25.0085  -33.9652   25.0305 H   0  0  0  0  0  0
  -22.7336  -31.3141   21.4070 H   0  0  0  0  0  0
  -23.3760  -35.9606   23.3261 H   0  0  0  0  0  0
  -24.3591  -36.8940   22.2053 H   0  0  0  0  0  0
  -23.7293  -37.6456   23.6709 H   0  0  0  0  0  0
  -26.1574  -31.4848   20.6229 H   0  0  0  0  0  0
  -26.8585  -30.7550   22.0340 H   0  0  0  0  0  0
  -28.0563  -28.7233   21.2833 H   0  0  0  0  0  0
  -25.7760  -25.8451   19.0156 H   0  0  0  0  0  0
  -23.8892  -27.3841   18.9357 H   0  0  0  0  0  0
  -23.7910  -30.6349   19.4069 H   0  0  0  0  0  0
  -22.7504  -29.3066   19.8270 H   0  0  0  0  0  0
  -25.1332  -36.1824   25.0781 H   0  0  0  0  0  0
  -21.0030  -28.3303   24.1349 H   0  0  0  0  0  0
  -20.5690  -26.2335   23.3611 H   0  0  0  0  0  0
  -21.6656  -26.7441   22.1192 H   0  0  0  0  0  0
  -19.6921  -25.6278   21.1259 H   0  0  0  0  0  0
  -19.6687  -27.3173   20.6724 H   0  0  0  0  0  0
  -17.4210  -26.6671   21.4036 H   0  0  0  0  0  0
  -18.0351  -26.0079   22.9033 H   0  0  0  0  0  0
  -19.7952  -30.7294   24.2229 H   0  0  0  0  0  0
  -17.5028  -31.6268   24.5170 H   0  0  0  0  0  0
  -15.5368  -30.2979   23.7667 H   0  0  0  0  0  0
  -15.8690  -28.0812   22.7084 H   0  0  0  0  0  0
  -24.5871  -30.7152   25.7781 H   0  0  0  0  0  0
  -24.8915  -32.3013   26.4765 H   0  0  0  0  0  0
  -25.7975  -30.9043   27.0271 H   0  0  0  0  0  0
  -26.2958  -29.6683   24.1316 H   0  0  0  0  0  0
  -27.3917  -29.7226   25.4910 H   0  0  0  0  0  0
  -27.8903  -30.4135   23.9666 H   0  0  0  0  0  0
  -27.2613  -33.3667   26.2021 H   0  0  0  0  0  0
  -28.3897  -32.6858   25.0390 H   0  0  0  0  0  0
  -28.0658  -31.8525   26.5516 H   0  0  0  0  0  0
  -28.2557  -38.0116   24.7492 H   0  0  0  0  0  0
  -28.1109  -36.2634   24.6278 H   0  0  0  0  0  0
  -27.2289  -37.1429   25.8855 H   0  0  0  0  0  0
  -20.9400  -29.8800   21.6832 H   0  0  0  0  0  0
  -26.0135  -38.2793   24.1405 H   0  0  0  0  0  0
  -27.9453  -20.7081   19.4284 H   0  0  0  0  0  0
  -25.0556  -22.1466   22.1801 H   0  0  0  0  0  0
  -23.5244  -12.7687   18.3495 H   0  0  0  0  0  0
  -24.4465  -13.7986   17.3281 H   0  0  0  0  0  0
  -26.9069  -11.8643   17.9316 H   0  0  0  0  0  0
  -26.1285  -11.0410   19.0573 H   0  0  0  0  0  0
  -22.9103  -15.7873   20.2031 H   0  0  0  0  0  0
  -24.0405  -16.3087   19.2980 H   0  0  0  0  0  0
  -27.4915  -15.2478   22.1887 H   0  0  0  0  0  0
  -28.2361  -18.5035   18.9836 H   0  0  0  0  0  0
  -26.9444  -17.3814   19.3500 H   0  0  0  0  0  0
  -28.2946  -17.6011   20.5014 H   0  0  0  0  0  0
  -23.9525  -20.7564   23.6031 H   0  0  0  0  0  0
  -24.6022  -19.1634   23.9391 H   0  0  0  0  0  0
  -23.2972  -19.3586   22.7568 H   0  0  0  0  0  0
  -25.7901  -13.1302   23.5003 H   0  0  0  0  0  0
  -26.3083  -14.6806   24.1215 H   0  0  0  0  0  0
  -27.4813  -13.3928   23.8950 H   0  0  0  0  0  0
  -26.0064  -23.5313   19.6173 H   0  0  0  0  0  0
  -27.6471  -23.0988   19.3636 H   0  0  0  0  0  0
  -24.4968  -17.3201   22.5271 H   0  0  0  0  0  0
  -26.1575  -17.1205   22.8875 H   0  0  0  0  0  0
  -28.2652  -24.3327   21.5494 H   0  0  0  0  0  0
  -26.6524  -24.9142   21.6609 H   0  0  0  0  0  0
  -25.9479  -15.9287   20.6295 H   0  0  0  0  0  0
  1 25  1  0  0  0
  1 30  2  0  0  0
  1 87  1  0  0  0
  2  3  1  0  0  0
  2 25  1  0  0  0
  2 89  1  0  0  0
  2 90  1  0  0  0
  3  4  1  0  0  0
  3 91  1  0  0  0
  3 92  1  0  0  0
  4  5  1  0  0  0
  4 93  1  0  0  0
  4 94  1  0  0  0
  5  6  1  0  0  0
  5 26  1  0  0  0
  5 95  1  0  0  0
  6 25  1  0  0  0
  6 96  1  0  0  0
  6 97  1  0  0  0
  7  8  2  0  0  0
  7 26  1  0  0  0
  7 29  1  0  0  0
  8  9  1  0  0  0
  8 22  1  0  0  0
  9 10  1  0  0  0
  9 27  2  0  0  0
 10 11  2  0  0  0
 10 15  1  0  0  0
 11 12  1  0  0  0
 11 98  1  0  0  0
 12 13  2  0  0  0
 12 99  1  0  0  0
 13 14  1  0  0  0
 13 31  1  0  0  0
 14 15  2  0  0  0
 14100  1  0  0  0
 15101  1  0  0  0
 16 17  2  0  0  0
 16 21  1  0  0  0
 16 31  1  0  0  0
 17 18  1  0  0  0
 17102  1  0  0  0
 18 19  2  0  0  0
 18103  1  0  0  0
 19 20  1  0  0  0
 19 24  1  0  0  0
 20 21  2  0  0  0
 20104  1  0  0  0
 21 23  1  0  0  0
 22 28  1  0  0  0
 22 32  2  0  0  0
 26 27  1  0  0  0
 28105  1  0  0  0
 28106  1  0  0  0
 29107  1  0  0  0
 29108  1  0  0  0
 33 34  1  0  0  0
 33 66  1  0  0  0
 33 70  2  0  0  0
 34 36  1  0  0  0
 34 59  1  0  0  0
 34109  1  0  0  0
 35 44  2  0  0  0
 35 45  1  0  0  0
 35 68  1  0  0  0
 36 56  1  0  0  0
 36110  1  0  0  0
 37 39  1  0  0  0
 37 47  1  0  0  0
 37 66  1  0  0  0
 37111  1  0  0  0
 38 43  2  0  0  0
 38 46  1  0  0  0
 38 47  1  0  0  0
 39 64  1  0  0  0
 39 67  2  0  0  0
 40 52  1  0  0  0
 40 53  2  0  0  0
 40 58  1  0  0  0
 41112  1  0  0  0
 41113  1  0  0  0
 41114  1  0  0  0
 41 48  1  0  0  0
 42 43  1  0  0  0
 42 66  1  0  0  0
 42115  1  0  0  0
 42116  1  0  0  0
 43 44  1  0  0  0
 44117  1  0  0  0
 45 46  2  0  0  0
 45118  1  0  0  0
 46119  1  0  0  0
 47120  1  0  0  0
 47121  1  0  0  0
 48 56  1  0  0  0
 48 65  1  0  0  0
 48122  1  0  0  0
 49 50  1  0  0  0
 49 53  1  0  0  0
 49 64  1  0  0  0
 49123  1  0  0  0
 50 51  1  0  0  0
 50124  1  0  0  0
 50125  1  0  0  0
 51 52  1  0  0  0
 51126  1  0  0  0
 51127  1  0  0  0
 52128  1  0  0  0
 52129  1  0  0  0
 53 54  1  0  0  0
 54 55  2  0  0  0
 54130  1  0  0  0
 55 57  1  0  0  0
 55131  1  0  0  0
 56 69  2  0  0  0
 57 58  2  0  0  0
 57132  1  0  0  0
 58133  1  0  0  0
 59 60  1  0  0  0
 59 61  1  0  0  0
 59 62  1  0  0  0
 60134  1  0  0  0
 60135  1  0  0  0
 60136  1  0  0  0
 61137  1  0  0  0
 61138  1  0  0  0
 61139  1  0  0  0
 62140  1  0  0  0
 62141  1  0  0  0
 62142  1  0  0  0
 63 65  1  0  0  0
 63143  1  0  0  0
 63144  1  0  0  0
 63145  1  0  0  0
 64146  1  0  0  0
 65147  1  0  0  0
 68 86  1  0  0  0
 71 73  2  0  0  0
 71 74  1  0  0  0
 71148  1  0  0  0
 72 73  1  0  0  0
 72 75  2  0  0  0
 72149  1  0  0  0
 73 84  1  0  0  0
 74 76  2  0  0  0
 74 81  1  0  0  0
 75 76  1  0  0  0
 75 82  1  0  0  0
 76 85  1  0  0  0
 77 78  1  0  0  0
 77 79  1  0  0  0
 77150  1  0  0  0
 77151  1  0  0  0
 78 87  1  0  0  0
 78152  1  0  0  0
 78153  1  0  0  0
 79 88  1  0  0  0
 79154  1  0  0  0
 79155  1  0  0  0
 80 83  1  0  0  0
 80 87  1  0  0  0
 80 88  1  0  0  0
 80156  1  0  0  0
 81157  1  0  0  0
 81158  1  0  0  0
 81159  1  0  0  0
 82160  1  0  0  0
 82161  1  0  0  0
 82162  1  0  0  0
 83163  1  0  0  0
 83164  1  0  0  0
 83165  1  0  0  0
 84 86  1  0  0  0
 84166  1  0  0  0
 84167  1  0  0  0
 85168  1  0  0  0
 85169  1  0  0  0
 85 88  1  0  0  0
 86170  1  0  0  0
 86171  1  0  0  0
 88172  1  0  0  0
M  CHG  1  88   1
M  ISO  4   1 100  68 101  86 101  87 100
M  END
> <chiral flag>
0

> <version>
0

> <s_m_source_file>
/data/baiqing/PycharmProjects/Reinvent-master-3.2/result/LINK_invent/BTK/process_docking_weight1_custom_sum_contain_oxygen_bond_distance_aromatic_linkinvent_7_9_3/rearranged_h_0146.sdf

> <i_m_source_file_index>
14

> <r_mmod_Potential_Energy-OPLS-2005>
18189.419921875

> <r_mmod_Stretch_Energy-OPLS-2005>
8497.1904296875

> <r_mmod_Bend_Energy-OPLS-2005>
3517.24267578125

> <r_mmod_Torsional_Energy-OPLS-2005>
564.626403808594

> <r_mmod_Improper_Torsional_Energy-OPLS-2005>
52.223331451416

> <r_mmod_Van_der_Waal_Energy-OPLS-2005>
3959.00341796875

> <r_mmod_Electrostatic_Energy-OPLS-2005>
-330.157379150391

> <r_mmod_Solvation_Energy-OPLS-2005>
-396.586151123047

> <b_mmod_Minimization_Converged-OPLS-2005>
0

> <r_mmod_RMS_Derivative-OPLS-2005>
3.80648064613342

$$$$
14
                    3D
 Structure written by MMmdl.
170179  0  0  1  0            999 V2000
  -30.6195  -14.6587   20.4753 C   0  0  0  0  0  0
  -30.4418  -12.3943   19.4649 C   0  0  0  0  0  0
  -29.5130  -12.4870   18.2326 C   0  0  0  0  0  0
  -28.0325  -12.3418   18.6411 C   0  0  0  0  0  0
  -27.6531  -13.2169   19.8657 C   0  0  2  0  0  0
  -28.6999  -13.0901   20.9971 C   0  0  0  0  0  0
  -25.2559  -13.8159   20.5720 C   0  0  0  0  0  0
  -24.1819  -13.0426   20.9193 C   0  0  0  0  0  0
  -24.6399  -11.6902   20.8754 C   0  0  0  0  0  0
  -23.9066  -10.4290   21.0419 C   0  0  0  0  0  0
  -24.3614   -9.4206   21.9197 C   0  0  0  0  0  0
  -23.6299   -8.2235   22.0757 C   0  0  0  0  0  0
  -22.4283   -8.0280   21.3542 C   0  0  0  0  0  0
  -21.9920   -9.0266   20.4652 C   0  0  0  0  0  0
  -22.7243  -10.2146   20.3066 C   0  0  0  0  0  0
  -21.6859   -6.0727   22.5284 C   0  0  0  0  0  0
  -21.4013   -6.5629   23.8218 C   0  0  0  0  0  0
  -21.3661   -5.6782   24.9181 C   0  0  0  0  0  0
  -21.6048   -4.3047   24.7234 C   0  0  0  0  0  0
  -21.8821   -3.8136   23.4357 C   0  0  0  0  0  0
  -21.9197   -4.6951   22.3411 C   0  0  0  0  0  0
  -22.7844  -13.5229   21.1841 C   0  0  0  0  0  0
  -22.1662   -4.2132   21.0990 F   0  0  0  0  0  0
  -21.5638   -3.4535   25.7750 F   0  0  0  0  0  0
  -30.0154  -13.4280   20.4295 N   0  0  0  0  0  0
  -26.2993  -12.9343   20.3349 N   0  0  0  0  0  0
  -25.9328  -11.6499   20.5784 N   0  0  0  0  0  0
  -22.0470  -12.8244   22.0407 N   0  0  0  0  0  0
  -25.4248  -15.1874   20.4185 N   0  0  0  0  0  0
  -31.7866  -14.8174   20.1087 O   0  0  0  0  0  0
  -21.6646   -6.8873   21.4245 O   0  0  0  0  0  0
  -22.3539  -14.5538   20.6676 O   0  0  0  0  0  0
  -24.6257  -31.8600   23.2032 C   0  0  0  0  0  0
  -25.9119  -32.4780   23.8356 C   0  0  1  0  0  0
  -27.2218  -27.3069   20.1086 C   0  0  0  0  0  0
  -25.5943  -33.8580   24.2280 N   0  0  0  0  0  0
  -23.4198  -30.4850   21.5454 C   0  0  2  0  0  0
  -24.8663  -28.9434   20.1076 C   0  0  0  0  0  0
  -22.7473  -29.4626   22.4922 C   0  0  0  0  0  0
  -18.0293  -28.1384   22.8489 C   0  0  0  0  0  0
  -24.1483  -36.7289   23.2635 C   0  0  0  0  0  0
  -25.9625  -30.7831   21.3812 C   0  0  0  0  0  0
  -26.0339  -29.4107   20.7216 C   0  0  0  0  0  0
  -27.2099  -28.6011   20.7205 C   0  0  0  0  0  0
  -26.0334  -26.9119   19.4481 C   0  0  0  0  0  0
  -24.8687  -27.6994   19.4639 C   0  0  0  0  0  0
  -23.6357  -29.8246   20.1590 C   0  0  0  0  0  0
  -25.4111  -36.3080   24.0320 C   0  0  1  0  0  0
  -20.5889  -28.3688   23.1277 C   0  0  2  0  0  0
  -20.6775  -26.9411   22.5404 C   0  0  0  0  0  0
  -19.5750  -26.6386   21.5207 C   0  0  0  0  0  0
  -18.1937  -26.7927   22.1623 C   0  0  0  0  0  0
  -19.1547  -28.8854   23.2880 C   0  0  0  0  0  0
  -18.9462  -30.1458   23.8894 C   0  0  0  0  0  0
  -17.6464  -30.6588   24.0567 C   0  0  0  0  0  0
  -25.9046  -34.9450   23.5095 C   0  0  0  0  0  0
  -16.5356  -29.9084   23.6335 C   0  0  0  0  0  0
  -16.7281  -28.6500   23.0354 C   0  0  0  0  0  0
  -26.4500  -31.6590   25.0729 C   0  0  0  0  0  0
  -25.3734  -31.3746   26.1458 C   0  0  0  0  0  0
  -27.0349  -30.3006   24.6215 C   0  0  0  0  0  0
  -27.6051  -32.4331   25.7512 C   0  0  0  0  0  0
  -27.5576  -37.1802   24.8462 C   0  0  0  0  0  0
  -21.4188  -29.3042   22.3667 N   0  0  0  0  0  0
  -26.4288  -37.3778   23.9403 N   0  0  0  0  0  0
  -24.6876  -31.0594   22.0998 N   0  0  0  0  0  0
  -23.4198  -28.8170   23.3011 O   0  0  0  0  0  0
  -28.3433  -26.4559   20.1866 O   0  0  0  0  0  0
  -26.5611  -34.8920   22.4659 O   0  0  0  0  0  0
  -23.5419  -32.1410   23.7352 O   0  0  0  0  0  0
  -25.4818  -19.7773   18.7630 C   0  0  0  0  0  0
  -26.8049  -21.3613   19.9755 C   0  0  0  0  0  0
  -27.7604  -19.1146   19.5389 C   0  0  0  0  0  0
  -25.5837  -21.0107   19.3982 C   0  0  0  0  0  0
  -26.5434  -18.8567   18.8064 C   0  0  0  0  0  0
  -27.9393  -20.5069   19.9669 C   0  0  0  0  0  0
  -28.5710  -17.7727   19.7084 C   0  0  2  0  0  0
  -29.8745  -17.1526   20.3034 C   0  0  2  0  0  0
  -29.7724  -17.4923   18.8246 C   0  0  0  0  0  0
  -24.4168  -21.9787   19.3826 C   0  0  0  0  0  0
  -26.2881  -17.6102   17.9467 C   0  0  0  0  0  0
  -30.5727  -18.6577   18.2732 C   0  0  0  0  0  0
  -29.6566  -16.4075   17.7647 C   0  0  0  0  0  0
  -29.0315  -23.8809   20.5193 C   0  0  0  0  0  0
  -28.2768  -25.0415   19.7259 C   0  0  0  0  0  0
  -29.3192  -22.5144   19.7313 C   0  0  0  0  0  0
  -29.7777  -15.7187   20.6896 N   0  0  0  0  0  0
  -29.1189  -21.1643   20.3262 O   0  0  0  0  0  0
  -31.4831  -12.5200   19.1621 H   0  0  0  0  0  0
  -30.3794  -11.4058   19.9222 H   0  0  0  0  0  0
  -29.7764  -11.7153   17.5084 H   0  0  0  0  0  0
  -29.6653  -13.4381   17.7232 H   0  0  0  0  0  0
  -27.8591  -11.2906   18.8732 H   0  0  0  0  0  0
  -27.3828  -12.5752   17.7964 H   0  0  0  0  0  0
  -27.6625  -14.2489   19.5181 H   0  0  0  0  0  0
  -28.7135  -12.0752   21.3974 H   0  0  0  0  0  0
  -28.4470  -13.7400   21.8367 H   0  0  0  0  0  0
  -25.2751   -9.5686   22.4792 H   0  0  0  0  0  0
  -24.0009   -7.4640   22.7480 H   0  0  0  0  0  0
  -21.0850   -8.8806   19.8956 H   0  0  0  0  0  0
  -22.3712  -10.9688   19.6165 H   0  0  0  0  0  0
  -21.1991   -7.6132   23.9723 H   0  0  0  0  0  0
  -21.1481   -6.0502   25.9086 H   0  0  0  0  0  0
  -22.0599   -2.7598   23.2862 H   0  0  0  0  0  0
  -22.4069  -11.9923   22.4845 H   0  0  0  0  0  0
  -21.1069  -13.1253   22.2548 H   0  0  0  0  0  0
  -24.6552  -15.8367   20.5407 H   0  0  0  0  0  0
  -26.2718  -15.6352   20.1025 H   0  0  0  0  0  0
  -26.7190  -32.5452   23.1103 H   0  0  0  0  0  0
  -25.0111  -33.9725   25.0442 H   0  0  0  0  0  0
  -22.7137  -31.3061   21.4044 H   0  0  0  0  0  0
  -23.3742  -35.9625   23.3300 H   0  0  0  0  0  0
  -24.3575  -36.8912   22.2051 H   0  0  0  0  0  0
  -23.7240  -37.6494   23.6656 H   0  0  0  0  0  0
  -26.0976  -31.5470   20.6148 H   0  0  0  0  0  0
  -26.8405  -30.8294   22.0138 H   0  0  0  0  0  0
  -28.1002  -28.9517   21.2226 H   0  0  0  0  0  0
  -25.9546  -25.9868   18.9025 H   0  0  0  0  0  0
  -23.9784  -27.3414   18.9648 H   0  0  0  0  0  0
  -23.7575  -30.6029   19.4046 H   0  0  0  0  0  0
  -22.7551  -29.2568   19.8533 H   0  0  0  0  0  0
  -25.1295  -36.1926   25.0813 H   0  0  0  0  0  0
  -20.9990  -28.3264   24.1393 H   0  0  0  0  0  0
  -20.5675  -26.2302   23.3611 H   0  0  0  0  0  0
  -21.6647  -26.7441   22.1204 H   0  0  0  0  0  0
  -19.6909  -25.6299   21.1239 H   0  0  0  0  0  0
  -19.6681  -27.3190   20.6736 H   0  0  0  0  0  0
  -17.4208  -26.6683   21.4029 H   0  0  0  0  0  0
  -18.0334  -26.0063   22.9011 H   0  0  0  0  0  0
  -19.7939  -30.7276   24.2252 H   0  0  0  0  0  0
  -17.5018  -31.6265   24.5172 H   0  0  0  0  0  0
  -15.5355  -30.2987   23.7649 H   0  0  0  0  0  0
  -15.8681  -28.0821   22.7059 H   0  0  0  0  0  0
  -24.5903  -30.7097   25.7792 H   0  0  0  0  0  0
  -24.8935  -32.2921   26.4870 H   0  0  0  0  0  0
  -25.8060  -30.8937   27.0239 H   0  0  0  0  0  0
  -26.2933  -29.6758   24.1224 H   0  0  0  0  0  0
  -27.4002  -29.7270   25.4743 H   0  0  0  0  0  0
  -27.8824  -30.4266   23.9476 H   0  0  0  0  0  0
  -27.2646  -33.3621   26.2096 H   0  0  0  0  0  0
  -28.3873  -32.6909   25.0359 H   0  0  0  0  0  0
  -28.0713  -31.8460   26.5435 H   0  0  0  0  0  0
  -28.2596  -38.0097   24.7513 H   0  0  0  0  0  0
  -28.1073  -36.2628   24.6288 H   0  0  0  0  0  0
  -27.2295  -37.1461   25.8868 H   0  0  0  0  0  0
  -20.9358  -29.8780   21.6891 H   0  0  0  0  0  0
  -26.0162  -38.2849   24.1418 H   0  0  0  0  0  0
  -24.5709  -19.5331   18.2324 H   0  0  0  0  0  0
  -26.8726  -22.3521   20.3958 H   0  0  0  0  0  0
  -27.8145  -17.0283   19.9332 H   0  0  0  0  0  0
  -30.4745  -17.8004   20.9410 H   0  0  0  0  0  0
  -23.5753  -21.5666   19.9394 H   0  0  0  0  0  0
  -24.0918  -22.1640   18.3579 H   0  0  0  0  0  0
  -24.6801  -22.9368   19.8327 H   0  0  0  0  0  0
  -25.2371  -17.3231   17.9946 H   0  0  0  0  0  0
  -26.8466  -16.7087   18.1712 H   0  0  0  0  0  0
  -26.5053  -17.8534   16.9061 H   0  0  0  0  0  0
  -30.7132  -19.4265   19.0333 H   0  0  0  0  0  0
  -30.0546  -19.1074   17.4250 H   0  0  0  0  0  0
  -31.5572  -18.3218   17.9457 H   0  0  0  0  0  0
  -28.9738  -15.6204   18.0790 H   0  0  0  0  0  0
  -30.6321  -15.9615   17.5692 H   0  0  0  0  0  0
  -29.2715  -16.8240   16.8331 H   0  0  0  0  0  0
  -28.4747  -23.6646   21.4312 H   0  0  0  0  0  0
  -29.9899  -24.2686   20.8645 H   0  0  0  0  0  0
  -27.2542  -24.6774   19.6952 H   0  0  0  0  0  0
  -28.6273  -25.0410   18.6932 H   0  0  0  0  0  0
  -30.3699  -22.5407   19.4424 H   0  0  0  0  0  0
  -28.8093  -22.5569   18.7671 H   0  0  0  0  0  0
  -28.8710  -15.4397   21.0317 H   0  0  0  0  0  0
  1 25  1  0  0  0
  1 30  2  0  0  0
  1 87  1  0  0  0
  2  3  1  0  0  0
  2 25  1  0  0  0
  2 89  1  0  0  0
  2 90  1  0  0  0
  3  4  1  0  0  0
  3 91  1  0  0  0
  3 92  1  0  0  0
  4  5  1  0  0  0
  4 93  1  0  0  0
  4 94  1  0  0  0
  5  6  1  0  0  0
  5 26  1  0  0  0
  5 95  1  0  0  0
  6 25  1  0  0  0
  6 96  1  0  0  0
  6 97  1  0  0  0
  7  8  2  0  0  0
  7 26  1  0  0  0
  7 29  1  0  0  0
  8  9  1  0  0  0
  8 22  1  0  0  0
  9 10  1  0  0  0
  9 27  2  0  0  0
 10 11  2  0  0  0
 10 15  1  0  0  0
 11 12  1  0  0  0
 11 98  1  0  0  0
 12 13  2  0  0  0
 12 99  1  0  0  0
 13 14  1  0  0  0
 13 31  1  0  0  0
 14 15  2  0  0  0
 14100  1  0  0  0
 15101  1  0  0  0
 16 17  2  0  0  0
 16 21  1  0  0  0
 16 31  1  0  0  0
 17 18  1  0  0  0
 17102  1  0  0  0
 18 19  2  0  0  0
 18103  1  0  0  0
 19 20  1  0  0  0
 19 24  1  0  0  0
 20 21  2  0  0  0
 20104  1  0  0  0
 21 23  1  0  0  0
 22 28  1  0  0  0
 22 32  2  0  0  0
 26 27  1  0  0  0
 28105  1  0  0  0
 28106  1  0  0  0
 29107  1  0  0  0
 29108  1  0  0  0
 33 34  1  0  0  0
 33 66  1  0  0  0
 33 70  2  0  0  0
 34 36  1  0  0  0
 34 59  1  0  0  0
 34109  1  0  0  0
 35 44  2  0  0  0
 35 45  1  0  0  0
 35 68  1  0  0  0
 36 56  1  0  0  0
 36110  1  0  0  0
 37 39  1  0  0  0
 37 47  1  0  0  0
 37 66  1  0  0  0
 37111  1  0  0  0
 38 43  2  0  0  0
 38 46  1  0  0  0
 38 47  1  0  0  0
 39 64  1  0  0  0
 39 67  2  0  0  0
 40 52  1  0  0  0
 40 53  2  0  0  0
 40 58  1  0  0  0
 41112  1  0  0  0
 41113  1  0  0  0
 41114  1  0  0  0
 41 48  1  0  0  0
 42 43  1  0  0  0
 42 66  1  0  0  0
 42115  1  0  0  0
 42116  1  0  0  0
 43 44  1  0  0  0
 44117  1  0  0  0
 45 46  2  0  0  0
 45118  1  0  0  0
 46119  1  0  0  0
 47120  1  0  0  0
 47121  1  0  0  0
 48 56  1  0  0  0
 48 65  1  0  0  0
 48122  1  0  0  0
 49 50  1  0  0  0
 49 53  1  0  0  0
 49 64  1  0  0  0
 49123  1  0  0  0
 50 51  1  0  0  0
 50124  1  0  0  0
 50125  1  0  0  0
 51 52  1  0  0  0
 51126  1  0  0  0
 51127  1  0  0  0
 52128  1  0  0  0
 52129  1  0  0  0
 53 54  1  0  0  0
 54 55  2  0  0  0
 54130  1  0  0  0
 55 57  1  0  0  0
 55131  1  0  0  0
 56 69  2  0  0  0
 57 58  2  0  0  0
 57132  1  0  0  0
 58133  1  0  0  0
 59 60  1  0  0  0
 59 61  1  0  0  0
 59 62  1  0  0  0
 60134  1  0  0  0
 60135  1  0  0  0
 60136  1  0  0  0
 61137  1  0  0  0
 61138  1  0  0  0
 61139  1  0  0  0
 62140  1  0  0  0
 62141  1  0  0  0
 62142  1  0  0  0
 63 65  1  0  0  0
 63143  1  0  0  0
 63144  1  0  0  0
 63145  1  0  0  0
 64146  1  0  0  0
 65147  1  0  0  0
 68 85  1  0  0  0
 71 74  2  0  0  0
 71 75  1  0  0  0
 71148  1  0  0  0
 72 74  1  0  0  0
 72 76  2  0  0  0
 72149  1  0  0  0
 73 75  2  0  0  0
 73 76  1  0  0  0
 73 77  1  0  0  0
 74 80  1  0  0  0
 75 81  1  0  0  0
 76 88  1  0  0  0
 77 78  1  0  0  0
 77 79  1  0  0  0
 77150  1  0  0  0
 78 79  1  0  0  0
 78 87  1  0  0  0
 78151  1  0  0  0
 79 82  1  0  0  0
 79 83  1  0  0  0
 80152  1  0  0  0
 80153  1  0  0  0
 80154  1  0  0  0
 81155  1  0  0  0
 81156  1  0  0  0
 81157  1  0  0  0
 82158  1  0  0  0
 82159  1  0  0  0
 82160  1  0  0  0
 83161  1  0  0  0
 83162  1  0  0  0
 83163  1  0  0  0
 84 85  1  0  0  0
 84 86  1  0  0  0
 84164  1  0  0  0
 84165  1  0  0  0
 85166  1  0  0  0
 85167  1  0  0  0
 86 88  1  0  0  0
 86168  1  0  0  0
 86169  1  0  0  0
 87170  1  0  0  0
M  ISO  4   1 100  68 101  85 101  87 100
M  END
> <chiral flag>
0

> <version>
0

> <s_m_source_file>
/data/baiqing/PycharmProjects/Reinvent-master-3.2/result/LINK_invent/BTK/process_docking_weight1_custom_sum_contain_oxygen_bond_distance_aromatic_linkinvent_7_9_3/rearranged_h_0146.sdf

> <i_m_source_file_index>
15

> <r_mmod_Potential_Energy-OPLS-2005>
287.219909667969

> <r_mmod_Stretch_Energy-OPLS-2005>
105.148246765137

> <r_mmod_Bend_Energy-OPLS-2005>
248.345642089844

> <r_mmod_Torsional_Energy-OPLS-2005>
346.874755859375

> <r_mmod_Improper_Torsional_Energy-OPLS-2005>
6.94248867034912

> <r_mmod_Van_der_Waal_Energy-OPLS-2005>
149.394866943359

> <r_mmod_Electrostatic_Energy-OPLS-2005>
-413.884552001953

> <r_mmod_Solvation_Energy-OPLS-2005>
-211.426330566406

> <b_mmod_Minimization_Converged-OPLS-2005>
0

> <r_mmod_RMS_Derivative-OPLS-2005>
1.37908148765564

$$$$
15
                    3D
 Structure written by MMmdl.
158166  0  0  1  0            999 V2000
  -30.5969  -14.7608   20.4796 C   0  0  0  0  0  0
  -30.4463  -12.4663   19.4718 C   0  0  0  0  0  0
  -29.5200  -12.4771   18.2345 C   0  0  0  0  0  0
  -28.0493  -12.2809   18.6630 C   0  0  0  0  0  0
  -27.6350  -13.2146   19.8291 C   0  0  2  0  0  0
  -28.6777  -13.1821   20.9673 C   0  0  0  0  0  0
  -25.2492  -13.8160   20.5636 C   0  0  0  0  0  0
  -24.1765  -13.0442   20.9186 C   0  0  0  0  0  0
  -24.6320  -11.6902   20.8728 C   0  0  0  0  0  0
  -23.8985  -10.4287   21.0419 C   0  0  0  0  0  0
  -24.3539   -9.4214   21.9203 C   0  0  0  0  0  0
  -23.6226   -8.2266   22.0789 C   0  0  0  0  0  0
  -22.4209   -8.0286   21.3593 C   0  0  0  0  0  0
  -21.9807   -9.0252   20.4686 C   0  0  0  0  0  0
  -22.7143  -10.2127   20.3072 C   0  0  0  0  0  0
  -21.6835   -6.0699   22.5278 C   0  0  0  0  0  0
  -21.4016   -6.5622   23.8209 C   0  0  0  0  0  0
  -21.3676   -5.6764   24.9182 C   0  0  0  0  0  0
  -21.6045   -4.3027   24.7243 C   0  0  0  0  0  0
  -21.8818   -3.8112   23.4374 C   0  0  0  0  0  0
  -21.9193   -4.6924   22.3398 C   0  0  0  0  0  0
  -22.7791  -13.5283   21.1858 C   0  0  0  0  0  0
  -22.1653   -4.2096   21.0995 F   0  0  0  0  0  0
  -21.5616   -3.4528   25.7773 F   0  0  0  0  0  0
  -29.9779  -13.5347   20.3826 N   0  0  0  0  0  0
  -26.2867  -12.9301   20.3135 N   0  0  0  0  0  0
  -25.9214  -11.6468   20.5650 N   0  0  0  0  0  0
  -22.0371  -12.8357   22.0426 N   0  0  0  0  0  0
  -25.4182  -15.1901   20.4088 N   0  0  0  0  0  0
  -31.8045  -14.8583   20.2437 O   0  0  0  0  0  0
  -21.6635   -6.8856   21.4224 O   0  0  0  0  0  0
  -22.3503  -14.5592   20.6687 O   0  0  0  0  0  0
  -24.6308  -31.8550   23.1970 C   0  0  0  0  0  0
  -25.9107  -32.4748   23.8354 C   0  0  1  0  0  0
  -27.2061  -27.2379   20.1344 C   0  0  0  0  0  0
  -25.5875  -33.8548   24.2224 N   0  0  0  0  0  0
  -23.4307  -30.4781   21.5433 C   0  0  2  0  0  0
  -24.8727  -28.9245   20.1153 C   0  0  0  0  0  0
  -22.7517  -29.4591   22.4907 C   0  0  0  0  0  0
  -18.0299  -28.1419   22.8488 C   0  0  0  0  0  0
  -24.1478  -36.7295   23.2637 C   0  0  0  0  0  0
  -25.9808  -30.7583   21.3849 C   0  0  0  0  0  0
  -26.0471  -29.3803   20.7259 C   0  0  0  0  0  0
  -27.2188  -28.5503   20.7218 C   0  0  0  0  0  0
  -26.0045  -26.8596   19.4907 C   0  0  0  0  0  0
  -24.8570  -27.6718   19.4871 C   0  0  0  0  0  0
  -23.6473  -29.8143   20.1598 C   0  0  0  0  0  0
  -25.4091  -36.3058   24.0316 C   0  0  1  0  0  0
  -20.5905  -28.3713   23.1278 C   0  0  2  0  0  0
  -20.6776  -26.9425   22.5407 C   0  0  0  0  0  0
  -19.5741  -26.6393   21.5218 C   0  0  0  0  0  0
  -18.1933  -26.7969   22.1632 C   0  0  0  0  0  0
  -19.1555  -28.8883   23.2898 C   0  0  0  0  0  0
  -18.9473  -30.1491   23.8914 C   0  0  0  0  0  0
  -17.6463  -30.6613   24.0567 C   0  0  0  0  0  0
  -25.9045  -34.9434   23.5094 C   0  0  0  0  0  0
  -16.5355  -29.9102   23.6340 C   0  0  0  0  0  0
  -16.7285  -28.6525   23.0357 C   0  0  0  0  0  0
  -26.4429  -31.6634   25.0803 C   0  0  0  0  0  0
  -25.3607  -31.3896   26.1521 C   0  0  0  0  0  0
  -27.0192  -30.2987   24.6389 C   0  0  0  0  0  0
  -27.6022  -32.4381   25.7521 C   0  0  0  0  0  0
  -27.5575  -37.1775   24.8443 C   0  0  0  0  0  0
  -21.4228  -29.3043   22.3643 N   0  0  0  0  0  0
  -26.4256  -37.3764   23.9437 N   0  0  0  0  0  0
  -24.7007  -31.0485   22.0968 N   0  0  0  0  0  0
  -23.4203  -28.8125   23.3018 O   0  0  0  0  0  0
  -28.2969  -26.3308   20.1674 O   0  0  0  0  0  0
  -26.5661  -34.8911   22.4693 O   0  0  0  0  0  0
  -23.5437  -32.1373   23.7223 O   0  0  0  0  0  0
  -29.9835  -19.8216   22.2201 C   0  0  0  0  0  0
  -30.2473  -17.4111   22.3756 C   0  0  0  0  0  0
  -30.2543  -18.6783   22.9998 C   0  0  0  0  0  0
  -29.6907  -19.6973   20.8486 C   0  0  0  0  0  0
  -29.9511  -17.2641   20.9988 C   0  0  0  0  0  0
  -30.5495  -18.8137   24.4942 C   0  0  0  0  0  0
  -30.4782  -24.0934   20.8024 C   0  0  0  0  0  0
  -29.5826  -21.0367   19.9846 C   0  0  0  0  0  0
  -28.0281  -24.8556   20.3937 C   0  0  0  0  0  0
  -29.1442  -23.6968   20.1369 C   0  0  2  0  0  0
  -29.6596  -18.4229   20.2733 N   0  0  0  0  0  0
  -29.7692  -15.8777   20.5151 N   0  0  0  0  0  0
  -28.7667  -22.2348   20.5085 N   0  3  0  0  0  0
  -31.4859  -12.6045   19.1753 H   0  0  0  0  0  0
  -30.3999  -11.4999   19.9746 H   0  0  0  0  0  0
  -29.8089  -11.6881   17.5384 H   0  0  0  0  0  0
  -29.6315  -13.4144   17.6860 H   0  0  0  0  0  0
  -27.9376  -11.2406   18.9790 H   0  0  0  0  0  0
  -27.3831  -12.4073   17.8079 H   0  0  0  0  0  0
  -27.6212  -14.2196   19.4095 H   0  0  0  0  0  0
  -28.7181  -12.1958   21.4275 H   0  0  0  0  0  0
  -28.4051  -13.8769   21.7610 H   0  0  0  0  0  0
  -25.2677   -9.5701   22.4765 H   0  0  0  0  0  0
  -23.9929   -7.4646   22.7497 H   0  0  0  0  0  0
  -21.0728   -8.8777   19.9005 H   0  0  0  0  0  0
  -22.3595  -10.9659   19.6193 H   0  0  0  0  0  0
  -21.2014   -7.6123   23.9692 H   0  0  0  0  0  0
  -21.1483   -6.0516   25.9084 H   0  0  0  0  0  0
  -22.0570   -2.7550   23.2907 H   0  0  0  0  0  0
  -22.3876  -12.0063   22.4956 H   0  0  0  0  0  0
  -21.1022  -13.1539   22.2590 H   0  0  0  0  0  0
  -24.6395  -15.8330   20.5053 H   0  0  0  0  0  0
  -26.2461  -15.6328   20.0337 H   0  0  0  0  0  0
  -26.7198  -32.5357   23.1127 H   0  0  0  0  0  0
  -24.9863  -33.9693   25.0249 H   0  0  0  0  0  0
  -22.7291  -31.3012   21.3967 H   0  0  0  0  0  0
  -23.3725  -35.9645   23.3255 H   0  0  0  0  0  0
  -24.3587  -36.8960   22.2068 H   0  0  0  0  0  0
  -23.7232  -37.6479   23.6691 H   0  0  0  0  0  0
  -26.1312  -31.5155   20.6130 H   0  0  0  0  0  0
  -26.8523  -30.8001   22.0280 H   0  0  0  0  0  0
  -28.1178  -28.8941   21.2144 H   0  0  0  0  0  0
  -25.9135  -25.9167   18.9745 H   0  0  0  0  0  0
  -23.9550  -27.3203   19.0044 H   0  0  0  0  0  0
  -23.7784  -30.5898   19.4056 H   0  0  0  0  0  0
  -22.7658  -29.2502   19.8490 H   0  0  0  0  0  0
  -25.1258  -36.1903   25.0795 H   0  0  0  0  0  0
  -21.0011  -28.3283   24.1395 H   0  0  0  0  0  0
  -20.5670  -26.2309   23.3609 H   0  0  0  0  0  0
  -21.6645  -26.7436   22.1199 H   0  0  0  0  0  0
  -19.6882  -25.6291   21.1271 H   0  0  0  0  0  0
  -19.6691  -27.3184   20.6732 H   0  0  0  0  0  0
  -17.4187  -26.6733   21.4055 H   0  0  0  0  0  0
  -18.0339  -26.0138   22.9053 H   0  0  0  0  0  0
  -19.7937  -30.7334   24.2290 H   0  0  0  0  0  0
  -17.4997  -31.6299   24.5162 H   0  0  0  0  0  0
  -15.5349  -30.2994   23.7668 H   0  0  0  0  0  0
  -15.8693  -28.0831   22.7066 H   0  0  0  0  0  0
  -24.5758  -30.7261   25.7875 H   0  0  0  0  0  0
  -24.8815  -32.3106   26.4864 H   0  0  0  0  0  0
  -25.7861  -30.9137   27.0366 H   0  0  0  0  0  0
  -26.2766  -29.6850   24.1273 H   0  0  0  0  0  0
  -27.3575  -29.7216   25.5011 H   0  0  0  0  0  0
  -27.8813  -30.4158   23.9818 H   0  0  0  0  0  0
  -27.2636  -33.3660   26.2159 H   0  0  0  0  0  0
  -28.3751  -32.6992   25.0276 H   0  0  0  0  0  0
  -28.0793  -31.8493   26.5373 H   0  0  0  0  0  0
  -28.2560  -38.0097   24.7490 H   0  0  0  0  0  0
  -28.1094  -36.2631   24.6214 H   0  0  0  0  0  0
  -27.2345  -37.1379   25.8858 H   0  0  0  0  0  0
  -20.9408  -29.8757   21.6846 H   0  0  0  0  0  0
  -26.0129  -38.2829   24.1472 H   0  0  0  0  0  0
  -30.0382  -20.7981   22.6792 H   0  0  0  0  0  0
  -30.4292  -16.5380   22.9852 H   0  0  0  0  0  0
  -31.1329  -19.7091   24.7045 H   0  0  0  0  0  0
  -31.1275  -17.9700   24.8749 H   0  0  0  0  0  0
  -29.6270  -18.8747   25.0784 H   0  0  0  0  0  0
  -30.8263  -25.0658   20.4457 H   0  0  0  0  0  0
  -31.2711  -23.3768   20.5853 H   0  0  0  0  0  0
  -30.3862  -24.1646   21.8876 H   0  0  0  0  0  0
  -29.2443  -20.7906   18.9787 H   0  0  0  0  0  0
  -30.6154  -21.3641   19.8570 H   0  0  0  0  0  0
  -27.6732  -24.7688   21.4210 H   0  0  0  0  0  0
  -27.1841  -24.5409   19.7917 H   0  0  0  0  0  0
  -29.3153  -23.6932   19.0604 H   0  0  0  0  0  0
  -28.8103  -15.6528   20.3175 H   0  0  0  0  0  0
  -28.7365  -22.1426   21.5097 H   0  0  0  0  0  0
  -27.8284  -22.0596   20.1809 H   0  0  0  0  0  0
  1 25  1  0  0  0
  1 30  2  0  0  0
  1 82  1  0  0  0
  2  3  1  0  0  0
  2 25  1  0  0  0
  2 84  1  0  0  0
  2 85  1  0  0  0
  3  4  1  0  0  0
  3 86  1  0  0  0
  3 87  1  0  0  0
  4  5  1  0  0  0
  4 88  1  0  0  0
  4 89  1  0  0  0
  5  6  1  0  0  0
  5 26  1  0  0  0
  5 90  1  0  0  0
  6 25  1  0  0  0
  6 91  1  0  0  0
  6 92  1  0  0  0
  7  8  2  0  0  0
  7 26  1  0  0  0
  7 29  1  0  0  0
  8  9  1  0  0  0
  8 22  1  0  0  0
  9 10  1  0  0  0
  9 27  2  0  0  0
 10 11  2  0  0  0
 10 15  1  0  0  0
 11 12  1  0  0  0
 11 93  1  0  0  0
 12 13  2  0  0  0
 12 94  1  0  0  0
 13 14  1  0  0  0
 13 31  1  0  0  0
 14 15  2  0  0  0
 14 95  1  0  0  0
 15 96  1  0  0  0
 16 17  2  0  0  0
 16 21  1  0  0  0
 16 31  1  0  0  0
 17 18  1  0  0  0
 17 97  1  0  0  0
 18 19  2  0  0  0
 18 98  1  0  0  0
 19 20  1  0  0  0
 19 24  1  0  0  0
 20 21  2  0  0  0
 20 99  1  0  0  0
 21 23  1  0  0  0
 22 28  1  0  0  0
 22 32  2  0  0  0
 26 27  1  0  0  0
 28100  1  0  0  0
 28101  1  0  0  0
 29102  1  0  0  0
 29103  1  0  0  0
 33 34  1  0  0  0
 33 66  1  0  0  0
 33 70  2  0  0  0
 34 36  1  0  0  0
 34 59  1  0  0  0
 34104  1  0  0  0
 35 44  2  0  0  0
 35 45  1  0  0  0
 35 68  1  0  0  0
 36 56  1  0  0  0
 36105  1  0  0  0
 37 39  1  0  0  0
 37 47  1  0  0  0
 37 66  1  0  0  0
 37106  1  0  0  0
 38 43  2  0  0  0
 38 46  1  0  0  0
 38 47  1  0  0  0
 39 64  1  0  0  0
 39 67  2  0  0  0
 40 52  1  0  0  0
 40 53  2  0  0  0
 40 58  1  0  0  0
 41107  1  0  0  0
 41108  1  0  0  0
 41109  1  0  0  0
 41 48  1  0  0  0
 42 43  1  0  0  0
 42 66  1  0  0  0
 42110  1  0  0  0
 42111  1  0  0  0
 43 44  1  0  0  0
 44112  1  0  0  0
 45 46  2  0  0  0
 45113  1  0  0  0
 46114  1  0  0  0
 47115  1  0  0  0
 47116  1  0  0  0
 48 56  1  0  0  0
 48 65  1  0  0  0
 48117  1  0  0  0
 49 50  1  0  0  0
 49 53  1  0  0  0
 49 64  1  0  0  0
 49118  1  0  0  0
 50 51  1  0  0  0
 50119  1  0  0  0
 50120  1  0  0  0
 51 52  1  0  0  0
 51121  1  0  0  0
 51122  1  0  0  0
 52123  1  0  0  0
 52124  1  0  0  0
 53 54  1  0  0  0
 54 55  2  0  0  0
 54125  1  0  0  0
 55 57  1  0  0  0
 55126  1  0  0  0
 56 69  2  0  0  0
 57 58  2  0  0  0
 57127  1  0  0  0
 58128  1  0  0  0
 59 60  1  0  0  0
 59 61  1  0  0  0
 59 62  1  0  0  0
 60129  1  0  0  0
 60130  1  0  0  0
 60131  1  0  0  0
 61132  1  0  0  0
 61133  1  0  0  0
 61134  1  0  0  0
 62135  1  0  0  0
 62136  1  0  0  0
 62137  1  0  0  0
 63 65  1  0  0  0
 63138  1  0  0  0
 63139  1  0  0  0
 63140  1  0  0  0
 64141  1  0  0  0
 65142  1  0  0  0
 68 79  1  0  0  0
 71 73  2  0  0  0
 71 74  1  0  0  0
 71143  1  0  0  0
 72 73  1  0  0  0
 72 75  2  0  0  0
 72144  1  0  0  0
 73 76  1  0  0  0
 74 78  1  0  0  0
 74 81  2  0  0  0
 75 81  1  0  0  0
 75 82  1  0  0  0
 76145  1  0  0  0
 76146  1  0  0  0
 76147  1  0  0  0
 77148  1  0  0  0
 77149  1  0  0  0
 77150  1  0  0  0
 77 80  1  0  0  0
 78 83  1  0  0  0
 78151  1  0  0  0
 78152  1  0  0  0
 79 80  1  0  0  0
 79153  1  0  0  0
 79154  1  0  0  0
 80 83  1  0  0  0
 80155  1  0  0  0
 82156  1  0  0  0
 83157  1  0  0  0
 83158  1  0  0  0
M  CHG  1  83   1
M  ISO  4   1 100  68 101  79 101  82 100
M  END
> <chiral flag>
0

> <version>
0

> <s_m_source_file>
/data/baiqing/PycharmProjects/Reinvent-master-3.2/result/LINK_invent/BTK/process_docking_weight1_custom_sum_contain_oxygen_bond_distance_aromatic_linkinvent_7_9_3/rearranged_h_0146.sdf

> <i_m_source_file_index>
16

> <r_mmod_Potential_Energy-OPLS-2005>
-126.431053161621

> <r_mmod_Stretch_Energy-OPLS-2005>
130.567230224609

> <r_mmod_Bend_Energy-OPLS-2005>
164.429534912109

> <r_mmod_Torsional_Energy-OPLS-2005>
258.253479003906

> <r_mmod_Improper_Torsional_Energy-OPLS-2005>
10.3928136825562

> <r_mmod_Van_der_Waal_Energy-OPLS-2005>
133.82780456543

> <r_mmod_Electrostatic_Energy-OPLS-2005>
-448.655792236328

> <r_mmod_Solvation_Energy-OPLS-2005>
-476.548553466797

> <b_mmod_Minimization_Converged-OPLS-2005>
0

> <r_mmod_RMS_Derivative-OPLS-2005>
5.87071084976196

$$$$
16
                    3D
 Structure written by MMmdl.
165175  0  0  1  0            999 V2000
  -30.6215  -14.9182   20.3850 C   0  0  0  0  0  0
  -30.4247  -12.5707   19.4739 C   0  0  0  0  0  0
  -29.5055  -12.5245   18.2357 C   0  0  0  0  0  0
  -28.0382  -12.3315   18.6594 C   0  0  0  0  0  0
  -27.6261  -13.2653   19.8299 C   0  0  2  0  0  0
  -28.6812  -13.3214   20.9551 C   0  0  0  0  0  0
  -25.2477  -13.8260   20.5774 C   0  0  0  0  0  0
  -24.1786  -13.0450   20.9225 C   0  0  0  0  0  0
  -24.6431  -11.6942   20.8752 C   0  0  0  0  0  0
  -23.9117  -10.4305   21.0417 C   0  0  0  0  0  0
  -24.3644   -9.4221   21.9206 C   0  0  0  0  0  0
  -23.6310   -8.2254   22.0765 C   0  0  0  0  0  0
  -22.4299   -8.0291   21.3548 C   0  0  0  0  0  0
  -21.9950   -9.0265   20.4652 C   0  0  0  0  0  0
  -22.7282  -10.2145   20.3066 C   0  0  0  0  0  0
  -21.6863   -6.0763   22.5280 C   0  0  0  0  0  0
  -21.4008   -6.5656   23.8213 C   0  0  0  0  0  0
  -21.3658   -5.6800   24.9169 C   0  0  0  0  0  0
  -21.6044   -4.3071   24.7220 C   0  0  0  0  0  0
  -21.8811   -3.8173   23.4331 C   0  0  0  0  0  0
  -21.9188   -4.6988   22.3389 C   0  0  0  0  0  0
  -22.7799  -13.5204   21.1861 C   0  0  0  0  0  0
  -22.1670   -4.2179   21.0969 F   0  0  0  0  0  0
  -21.5623   -3.4549   25.7736 F   0  0  0  0  0  0
  -29.9553  -13.6988   20.3296 N   0  0  0  0  0  0
  -26.2911  -12.9525   20.3300 N   0  0  0  0  0  0
  -25.9370  -11.6642   20.5768 N   0  0  0  0  0  0
  -22.0463  -12.8162   22.0410 N   0  0  0  0  0  0
  -25.4131  -15.1997   20.4272 N   0  0  0  0  0  0
  -31.8367  -14.8919   20.1624 O   0  0  0  0  0  0
  -21.6645   -6.8906   21.4248 O   0  0  0  0  0  0
  -22.3480  -14.5527   20.6755 O   0  0  0  0  0  0
  -24.6429  -31.8439   23.1863 C   0  0  0  0  0  0
  -25.9207  -32.4684   23.8258 C   0  0  1  0  0  0
  -27.2292  -27.1738   20.1092 C   0  0  0  0  0  0
  -25.5988  -33.8490   24.2200 N   0  0  0  0  0  0
  -23.4429  -30.4651   21.5303 C   0  0  2  0  0  0
  -24.8900  -28.8945   20.0979 C   0  0  0  0  0  0
  -22.7547  -29.4544   22.4827 C   0  0  0  0  0  0
  -18.0316  -28.1365   22.8504 C   0  0  0  0  0  0
  -24.1483  -36.7227   23.2651 C   0  0  0  0  0  0
  -25.9947  -30.7252   21.3773 C   0  0  0  0  0  0
  -26.0649  -29.3401   20.7167 C   0  0  0  0  0  0
  -27.2290  -28.4900   20.7157 C   0  0  0  0  0  0
  -26.0220  -26.8102   19.4735 C   0  0  0  0  0  0
  -24.8778  -27.6400   19.4689 C   0  0  0  0  0  0
  -23.6650  -29.7963   20.1472 C   0  0  0  0  0  0
  -25.4111  -36.3011   24.0328 C   0  0  1  0  0  0
  -20.5924  -28.3710   23.1224 C   0  0  2  0  0  0
  -20.6804  -26.9413   22.5394 C   0  0  0  0  0  0
  -19.5765  -26.6369   21.5213 C   0  0  0  0  0  0
  -18.1940  -26.7923   22.1604 C   0  0  0  0  0  0
  -19.1570  -28.8850   23.2863 C   0  0  0  0  0  0
  -18.9497  -30.1455   23.8900 C   0  0  0  0  0  0
  -17.6500  -30.6581   24.0560 C   0  0  0  0  0  0
  -25.9080  -34.9402   23.5059 C   0  0  0  0  0  0
  -16.5391  -29.9071   23.6337 C   0  0  0  0  0  0
  -16.7299  -28.6476   23.0388 C   0  0  0  0  0  0
  -26.4542  -31.6544   25.0697 C   0  0  0  0  0  0
  -25.3736  -31.3698   26.1401 C   0  0  0  0  0  0
  -27.0416  -30.2958   24.6237 C   0  0  0  0  0  0
  -27.6089  -32.4319   25.7474 C   0  0  0  0  0  0
  -27.5554  -37.1773   24.8468 C   0  0  0  0  0  0
  -21.4238  -29.3053   22.3597 N   0  0  0  0  0  0
  -26.4240  -37.3734   23.9445 N   0  0  0  0  0  0
  -24.7127  -31.0326   22.0869 N   0  0  0  0  0  0
  -23.4188  -28.8128   23.2993 O   0  0  0  0  0  0
  -28.3092  -26.2324   20.2082 O   0  0  0  0  0  0
  -26.5642  -34.8915   22.4628 O   0  0  0  0  0  0
  -23.5557  -32.1345   23.7102 O   0  0  0  0  0  0
  -27.3850  -22.7156   20.5632 C   0  0  0  0  0  0
  -28.4699  -23.3754   19.9158 C   0  0  0  0  0  0
  -27.6083  -21.3557   20.7016 C   0  0  0  0  0  0
  -29.3514  -22.2754   19.7071 C   0  0  0  0  0  0
  -26.0170  -19.2934   20.4239 C   0  0  0  0  0  0
  -25.1796  -20.4201   20.9826 C   0  0  0  0  0  0
  -29.4905  -18.5695   19.0592 C   0  0  0  0  0  0
  -29.2106  -18.5344   21.4346 C   0  0  0  0  0  0
  -30.2439  -17.1375   19.1922 C   0  0  0  0  0  0
  -29.9618  -17.1088   21.5232 C   0  0  0  0  0  0
  -26.6602  -20.3579   21.2823 C   0  0  0  0  0  0
  -29.5821  -19.5619   20.2815 C   0  0  0  0  0  0
  -30.6621  -22.3007   18.9866 C   0  0  0  0  0  0
  -28.4824  -24.9419   19.3909 C   0  0  0  0  0  0
  -28.8806  -21.0012   20.2319 N   0  0  0  0  0  0
  -29.9485  -16.1813   20.3360 N   0  0  0  0  0  0
  -31.4614  -12.6921   19.1528 H   0  0  0  0  0  0
  -30.3919  -11.6290   20.0243 H   0  0  0  0  0  0
  -29.8125  -11.7231   17.5634 H   0  0  0  0  0  0
  -29.6013  -13.4509   17.6697 H   0  0  0  0  0  0
  -27.9158  -11.2887   18.9553 H   0  0  0  0  0  0
  -27.3753  -12.4859   17.8060 H   0  0  0  0  0  0
  -27.5787  -14.2636   19.3961 H   0  0  0  0  0  0
  -28.7670  -12.3658   21.4721 H   0  0  0  0  0  0
  -28.4004  -14.0646   21.7030 H   0  0  0  0  0  0
  -25.2789   -9.5699   22.4784 H   0  0  0  0  0  0
  -24.0030   -7.4659   22.7483 H   0  0  0  0  0  0
  -21.0889   -8.8776   19.8957 H   0  0  0  0  0  0
  -22.3744  -10.9681   19.6166 H   0  0  0  0  0  0
  -21.2001   -7.6169   23.9735 H   0  0  0  0  0  0
  -21.1491   -6.0531   25.9079 H   0  0  0  0  0  0
  -22.0591   -2.7630   23.2828 H   0  0  0  0  0  0
  -22.4099  -11.9806   22.4753 H   0  0  0  0  0  0
  -21.1079  -13.1177   22.2641 H   0  0  0  0  0  0
  -24.6461  -15.8516   20.5529 H   0  0  0  0  0  0
  -26.2739  -15.6488   20.1394 H   0  0  0  0  0  0
  -26.7286  -32.5309   23.1000 H   0  0  0  0  0  0
  -25.0273  -33.9614   25.0447 H   0  0  0  0  0  0
  -22.7463  -31.2917   21.3802 H   0  0  0  0  0  0
  -23.3762  -35.9535   23.3245 H   0  0  0  0  0  0
  -24.3580  -36.8906   22.2073 H   0  0  0  0  0  0
  -23.7220  -37.6399   23.6730 H   0  0  0  0  0  0
  -26.1444  -31.4735   20.5987 H   0  0  0  0  0  0
  -26.8671  -30.7749   22.0158 H   0  0  0  0  0  0
  -28.1210  -28.8302   21.2243 H   0  0  0  0  0  0
  -25.9213  -25.8425   19.0096 H   0  0  0  0  0  0
  -23.9789  -27.2862   18.9843 H   0  0  0  0  0  0
  -23.7989  -30.5753   19.3953 H   0  0  0  0  0  0
  -22.7744  -29.2443   19.8386 H   0  0  0  0  0  0
  -25.1270  -36.1816   25.0807 H   0  0  0  0  0  0
  -21.0054  -28.3324   24.1321 H   0  0  0  0  0  0
  -20.5700  -26.2336   23.3624 H   0  0  0  0  0  0
  -21.6671  -26.7418   22.1177 H   0  0  0  0  0  0
  -19.6935  -25.6276   21.1250 H   0  0  0  0  0  0
  -19.6700  -27.3183   20.6741 H   0  0  0  0  0  0
  -17.4228  -26.6745   21.3974 H   0  0  0  0  0  0
  -18.0283  -26.0019   22.8937 H   0  0  0  0  0  0
  -19.7963  -30.7276   24.2264 H   0  0  0  0  0  0
  -17.5050  -31.6267   24.5139 H   0  0  0  0  0  0
  -15.5407  -30.2986   23.7656 H   0  0  0  0  0  0
  -15.8686  -28.0807   22.7118 H   0  0  0  0  0  0
  -24.5994  -30.6922   25.7771 H   0  0  0  0  0  0
  -24.8832  -32.2840   26.4741 H   0  0  0  0  0  0
  -25.8050  -30.8990   27.0241 H   0  0  0  0  0  0
  -26.3009  -29.6662   24.1284 H   0  0  0  0  0  0
  -27.4119  -29.7256   25.4771 H   0  0  0  0  0  0
  -27.8860  -30.4226   23.9456 H   0  0  0  0  0  0
  -27.2746  -33.3733   26.1843 H   0  0  0  0  0  0
  -28.3994  -32.6675   25.0334 H   0  0  0  0  0  0
  -28.0621  -31.8555   26.5553 H   0  0  0  0  0  0
  -28.2518  -38.0103   24.7558 H   0  0  0  0  0  0
  -28.1093  -36.2662   24.6220 H   0  0  0  0  0  0
  -27.2302  -37.1303   25.8863 H   0  0  0  0  0  0
  -20.9457  -29.8809   21.6808 H   0  0  0  0  0  0
  -26.0087  -38.2778   24.1493 H   0  0  0  0  0  0
  -26.4650  -23.2012   20.8597 H   0  0  0  0  0  0
  -26.2412  -19.3015   19.3592 H   0  0  0  0  0  0
  -25.9162  -18.3072   20.8664 H   0  0  0  0  0  0
  -24.4943  -20.1779   21.7947 H   0  0  0  0  0  0
  -24.8254  -21.1758   20.2856 H   0  0  0  0  0  0
  -28.4433  -18.3908   18.8198 H   0  0  0  0  0  0
  -29.8991  -19.0836   18.1862 H   0  0  0  0  0  0
  -29.3057  -19.0465   22.3927 H   0  0  0  0  0  0
  -28.1644  -18.2746   21.3461 H   0  0  0  0  0  0
  -31.3175  -17.3443   19.2140 H   0  0  0  0  0  0
  -30.0893  -16.5872   18.2609 H   0  0  0  0  0  0
  -29.5228  -16.5551   22.3566 H   0  0  0  0  0  0
  -31.0015  -17.2850   21.8065 H   0  0  0  0  0  0
  -26.9298  -20.1203   22.3095 H   0  0  0  0  0  0
  -30.6405  -19.7808   20.4151 H   0  0  0  0  0  0
  -30.9451  -23.3166   18.7060 H   0  0  0  0  0  0
  -30.6165  -21.7064   18.0723 H   0  0  0  0  0  0
  -31.4609  -21.8997   19.6101 H   0  0  0  0  0  0
  -27.8275  -24.9842   18.5244 H   0  0  0  0  0  0
  -29.4675  -25.0752   18.9461 H   0  0  0  0  0  0
  1 25  1  0  0  0
  1 30  2  0  0  0
  1 86  1  0  0  0
  2  3  1  0  0  0
  2 25  1  0  0  0
  2 87  1  0  0  0
  2 88  1  0  0  0
  3  4  1  0  0  0
  3 89  1  0  0  0
  3 90  1  0  0  0
  4  5  1  0  0  0
  4 91  1  0  0  0
  4 92  1  0  0  0
  5  6  1  0  0  0
  5 26  1  0  0  0
  5 93  1  0  0  0
  6 25  1  0  0  0
  6 94  1  0  0  0
  6 95  1  0  0  0
  7  8  2  0  0  0
  7 26  1  0  0  0
  7 29  1  0  0  0
  8  9  1  0  0  0
  8 22  1  0  0  0
  9 10  1  0  0  0
  9 27  2  0  0  0
 10 11  2  0  0  0
 10 15  1  0  0  0
 11 12  1  0  0  0
 11 96  1  0  0  0
 12 13  2  0  0  0
 12 97  1  0  0  0
 13 14  1  0  0  0
 13 31  1  0  0  0
 14 15  2  0  0  0
 14 98  1  0  0  0
 15 99  1  0  0  0
 16 17  2  0  0  0
 16 21  1  0  0  0
 16 31  1  0  0  0
 17 18  1  0  0  0
 17100  1  0  0  0
 18 19  2  0  0  0
 18101  1  0  0  0
 19 20  1  0  0  0
 19 24  1  0  0  0
 20 21  2  0  0  0
 20102  1  0  0  0
 21 23  1  0  0  0
 22 28  1  0  0  0
 22 32  2  0  0  0
 26 27  1  0  0  0
 28103  1  0  0  0
 28104  1  0  0  0
 29105  1  0  0  0
 29106  1  0  0  0
 33 34  1  0  0  0
 33 66  1  0  0  0
 33 70  2  0  0  0
 34 36  1  0  0  0
 34 59  1  0  0  0
 34107  1  0  0  0
 35 44  2  0  0  0
 35 45  1  0  0  0
 35 68  1  0  0  0
 36 56  1  0  0  0
 36108  1  0  0  0
 37 39  1  0  0  0
 37 47  1  0  0  0
 37 66  1  0  0  0
 37109  1  0  0  0
 38 43  2  0  0  0
 38 46  1  0  0  0
 38 47  1  0  0  0
 39 64  1  0  0  0
 39 67  2  0  0  0
 40 52  1  0  0  0
 40 53  2  0  0  0
 40 58  1  0  0  0
 41110  1  0  0  0
 41111  1  0  0  0
 41112  1  0  0  0
 41 48  1  0  0  0
 42 43  1  0  0  0
 42 66  1  0  0  0
 42113  1  0  0  0
 42114  1  0  0  0
 43 44  1  0  0  0
 44115  1  0  0  0
 45 46  2  0  0  0
 45116  1  0  0  0
 46117  1  0  0  0
 47118  1  0  0  0
 47119  1  0  0  0
 48 56  1  0  0  0
 48 65  1  0  0  0
 48120  1  0  0  0
 49 50  1  0  0  0
 49 53  1  0  0  0
 49 64  1  0  0  0
 49121  1  0  0  0
 50 51  1  0  0  0
 50122  1  0  0  0
 50123  1  0  0  0
 51 52  1  0  0  0
 51124  1  0  0  0
 51125  1  0  0  0
 52126  1  0  0  0
 52127  1  0  0  0
 53 54  1  0  0  0
 54 55  2  0  0  0
 54128  1  0  0  0
 55 57  1  0  0  0
 55129  1  0  0  0
 56 69  2  0  0  0
 57 58  2  0  0  0
 57130  1  0  0  0
 58131  1  0  0  0
 59 60  1  0  0  0
 59 61  1  0  0  0
 59 62  1  0  0  0
 60132  1  0  0  0
 60133  1  0  0  0
 60134  1  0  0  0
 61135  1  0  0  0
 61136  1  0  0  0
 61137  1  0  0  0
 62138  1  0  0  0
 62139  1  0  0  0
 62140  1  0  0  0
 63 65  1  0  0  0
 63141  1  0  0  0
 63142  1  0  0  0
 63143  1  0  0  0
 64144  1  0  0  0
 65145  1  0  0  0
 68 84  1  0  0  0
 71 72  1  0  0  0
 71 73  2  0  0  0
 71146  1  0  0  0
 72 74  2  0  0  0
 72 84  1  0  0  0
 73 85  1  0  0  0
 73 81  1  0  0  0
 74 83  1  0  0  0
 74 85  1  0  0  0
 75 76  1  0  0  0
 75 81  1  0  0  0
 75147  1  0  0  0
 75148  1  0  0  0
 76 81  1  0  0  0
 76149  1  0  0  0
 76150  1  0  0  0
 77 79  1  0  0  0
 77 82  1  0  0  0
 77151  1  0  0  0
 77152  1  0  0  0
 78 80  1  0  0  0
 78 82  1  0  0  0
 78153  1  0  0  0
 78154  1  0  0  0
 79 86  1  0  0  0
 79155  1  0  0  0
 79156  1  0  0  0
 80 86  1  0  0  0
 80157  1  0  0  0
 80158  1  0  0  0
 81159  1  0  0  0
 82 85  1  0  0  0
 82160  1  0  0  0
 83161  1  0  0  0
 83162  1  0  0  0
 83163  1  0  0  0
 84164  1  0  0  0
 84165  1  0  0  0
M  ISO  4   1 100  68 101  84 101  86 100
M  END
> <chiral flag>
0

> <version>
0

> <s_m_source_file>
/data/baiqing/PycharmProjects/Reinvent-master-3.2/result/LINK_invent/BTK/process_docking_weight1_custom_sum_contain_oxygen_bond_distance_aromatic_linkinvent_7_9_3/rearranged_h_0146.sdf

> <i_m_source_file_index>
17

> <r_mmod_Potential_Energy-OPLS-2005>
698.834289550781

> <r_mmod_Stretch_Energy-OPLS-2005>
214.748062133789

> <r_mmod_Bend_Energy-OPLS-2005>
284.577880859375

> <r_mmod_Torsional_Energy-OPLS-2005>
383.83203125

> <r_mmod_Improper_Torsional_Energy-OPLS-2005>
15.5409450531006

> <r_mmod_Van_der_Waal_Energy-OPLS-2005>
108.066276550293

> <r_mmod_Electrostatic_Energy-OPLS-2005>
-281.58837890625

> <r_mmod_Solvation_Energy-OPLS-2005>
-195.129531860352

> <b_mmod_Minimization_Converged-OPLS-2005>
0

> <r_mmod_RMS_Derivative-OPLS-2005>
4.72853994369507

$$$$
17
                    3D
 Structure written by MMmdl.
165175  0  0  1  0            999 V2000
  -30.7019  -14.4361   20.4839 C   0  0  0  0  0  0
  -30.4233  -12.2394   19.4474 C   0  0  0  0  0  0
  -29.5005  -12.4090   18.2228 C   0  0  0  0  0  0
  -28.0143  -12.3240   18.6300 C   0  0  0  0  0  0
  -27.6592  -13.1925   19.8678 C   0  0  2  0  0  0
  -28.7023  -13.0001   20.9943 C   0  0  0  0  0  0
  -25.2584  -13.8131   20.5663 C   0  0  0  0  0  0
  -24.1833  -13.0436   20.9192 C   0  0  0  0  0  0
  -24.6366  -11.6897   20.8736 C   0  0  0  0  0  0
  -23.9032  -10.4296   21.0406 C   0  0  0  0  0  0
  -24.3593   -9.4209   21.9183 C   0  0  0  0  0  0
  -23.6291   -8.2234   22.0733 C   0  0  0  0  0  0
  -22.4268   -8.0271   21.3532 C   0  0  0  0  0  0
  -21.9907   -9.0240   20.4623 C   0  0  0  0  0  0
  -22.7206  -10.2134   20.3044 C   0  0  0  0  0  0
  -21.6852   -6.0727   22.5266 C   0  0  0  0  0  0
  -21.4011   -6.5637   23.8197 C   0  0  0  0  0  0
  -21.3658   -5.6782   24.9171 C   0  0  0  0  0  0
  -21.6053   -4.3049   24.7220 C   0  0  0  0  0  0
  -21.8819   -3.8132   23.4344 C   0  0  0  0  0  0
  -21.9198   -4.6959   22.3395 C   0  0  0  0  0  0
  -22.7852  -13.5228   21.1851 C   0  0  0  0  0  0
  -22.1663   -4.2135   21.0982 F   0  0  0  0  0  0
  -21.5639   -3.4544   25.7737 F   0  0  0  0  0  0
  -30.0371  -13.2575   20.4315 N   0  0  0  0  0  0
  -26.3006  -12.9267   20.3330 N   0  0  0  0  0  0
  -25.9287  -11.6451   20.5784 N   0  0  0  0  0  0
  -22.0495  -12.8211   22.0402 N   0  0  0  0  0  0
  -25.4297  -15.1850   20.4022 N   0  0  0  0  0  0
  -31.8872  -14.5573   20.1617 O   0  0  0  0  0  0
  -21.6633   -6.8867   21.4234 O   0  0  0  0  0  0
  -22.3559  -14.5549   20.6724 O   0  0  0  0  0  0
  -24.6103  -31.8719   23.2125 C   0  0  0  0  0  0
  -25.9022  -32.4849   23.8415 C   0  0  1  0  0  0
  -27.2550  -27.4692   20.1148 C   0  0  0  0  0  0
  -25.5897  -33.8645   24.2348 N   0  0  0  0  0  0
  -23.3974  -30.4906   21.5504 C   0  0  2  0  0  0
  -24.8518  -28.9611   20.1161 C   0  0  0  0  0  0
  -22.7393  -29.4665   22.5019 C   0  0  0  0  0  0
  -18.0259  -28.1368   22.8496 C   0  0  0  0  0  0
  -24.1485  -36.7316   23.2638 C   0  0  0  0  0  0
  -25.9197  -30.8507   21.3597 C   0  0  0  0  0  0
  -26.0034  -29.4828   20.7187 C   0  0  0  0  0  0
  -27.2043  -28.7438   20.7269 C   0  0  0  0  0  0
  -26.0912  -26.9603   19.5029 C   0  0  0  0  0  0
  -24.8888  -27.6948   19.5043 C   0  0  0  0  0  0
  -23.6073  -29.8188   20.1653 C   0  0  0  0  0  0
  -25.4107  -36.3121   24.0342 C   0  0  1  0  0  0
  -20.5839  -28.3649   23.1340 C   0  0  2  0  0  0
  -20.6738  -26.9389   22.5424 C   0  0  0  0  0  0
  -19.5731  -26.6379   21.5210 C   0  0  0  0  0  0
  -18.1907  -26.7913   22.1612 C   0  0  0  0  0  0
  -19.1508  -28.8819   23.2909 C   0  0  0  0  0  0
  -18.9437  -30.1422   23.8912 C   0  0  0  0  0  0
  -17.6442  -30.6575   24.0555 C   0  0  0  0  0  0
  -25.9036  -34.9496   23.5139 C   0  0  0  0  0  0
  -16.5334  -29.9079   23.6324 C   0  0  0  0  0  0
  -16.7246  -28.6497   23.0355 C   0  0  0  0  0  0
  -26.4465  -31.6593   25.0711 C   0  0  0  0  0  0
  -25.3747  -31.3675   26.1473 C   0  0  0  0  0  0
  -27.0290  -30.3044   24.6033 C   0  0  0  0  0  0
  -27.6063  -32.4293   25.7469 C   0  0  0  0  0  0
  -27.5592  -37.1797   24.8457 C   0  0  0  0  0  0
  -21.4125  -29.3024   22.3756 N   0  0  0  0  0  0
  -26.4284  -37.3818   23.9420 N   0  0  0  0  0  0
  -24.6600  -31.0844   22.1011 N   0  0  0  0  0  0
  -23.4183  -28.8214   23.3056 O   0  0  0  0  0  0
  -28.3810  -26.6794   20.0649 O   0  0  0  0  0  0
  -26.5593  -34.8940   22.4693 O   0  0  0  0  0  0
  -23.5300  -32.1459   23.7526 O   0  0  0  0  0  0
  -30.5288  -21.0313   21.8298 C   0  0  0  0  0  0
  -30.0034  -22.3012   22.1247 C   0  0  0  0  0  0
  -29.7767  -16.9228   18.6387 C   0  0  0  0  0  0
  -31.5577  -20.9358   20.8731 C   0  0  0  0  0  0
  -32.0391  -22.1217   20.2811 C   0  0  0  0  0  0
  -30.1701  -16.7350   19.9760 C   0  0  0  0  0  0
  -30.3661  -18.0470   17.9441 C   0  0  0  0  0  0
  -30.5147  -23.4246   21.4553 C   0  0  0  0  0  0
  -31.3033  -18.7500   19.8251 C   0  0  0  0  0  0
  -30.0466  -16.1257   17.3942 C   0  0  1  0  0  0
  -33.1418  -22.1002   19.2376 C   0  0  0  0  0  0
  -28.8048  -15.7161   16.6084 C   0  0  0  0  0  0
  -29.4271  -26.9382   20.9978 C   0  0  0  0  0  0
  -30.4344  -25.7813   20.9429 C   0  0  0  0  0  0
  -31.5324  -23.3343   20.5705 N   0  0  0  0  0  0
  -30.8229  -17.7611   20.5840 N   0  0  0  0  0  0
  -31.2220  -18.8997   18.5124 N   0  0  0  0  0  0
  -32.0466  -19.6974   20.4583 N   0  0  0  0  0  0
  -29.9104  -15.5080   20.6287 N   0  0  0  0  0  0
  -30.6615  -17.3383   16.7995 O   0  0  0  0  0  0
  -29.9405  -24.6586   21.6779 O   0  0  0  0  0  0
  -31.4722  -12.3119   19.1504 H   0  0  0  0  0  0
  -30.3068  -11.2444   19.8829 H   0  0  0  0  0  0
  -29.7193  -11.6373   17.4836 H   0  0  0  0  0  0
  -29.7010  -13.3555   17.7324 H   0  0  0  0  0  0
  -27.7990  -11.2740   18.8466 H   0  0  0  0  0  0
  -27.3725  -12.5923   17.7892 H   0  0  0  0  0  0
  -27.6971  -14.2298   19.5399 H   0  0  0  0  0  0
  -28.6635  -11.9806   21.3808 H   0  0  0  0  0  0
  -28.4904  -13.6475   21.8486 H   0  0  0  0  0  0
  -25.2733   -9.5704   22.4754 H   0  0  0  0  0  0
  -24.0011   -7.4622   22.7448 H   0  0  0  0  0  0
  -21.0829   -8.8733   19.8936 H   0  0  0  0  0  0
  -22.3640  -10.9660   19.6159 H   0  0  0  0  0  0
  -21.1996   -7.6148   23.9707 H   0  0  0  0  0  0
  -21.1484   -6.0519   25.9077 H   0  0  0  0  0  0
  -22.0605   -2.7605   23.2835 H   0  0  0  0  0  0
  -22.4104  -11.9867   22.4774 H   0  0  0  0  0  0
  -21.1111  -13.1215   22.2590 H   0  0  0  0  0  0
  -24.6552  -15.8301   20.5167 H   0  0  0  0  0  0
  -26.2595  -15.6290   20.0324 H   0  0  0  0  0  0
  -26.7099  -32.5593   23.1212 H   0  0  0  0  0  0
  -25.0051  -33.9823   25.0490 H   0  0  0  0  0  0
  -22.6841  -31.3050   21.4110 H   0  0  0  0  0  0
  -23.3765  -35.9630   23.3280 H   0  0  0  0  0  0
  -24.3583  -36.8947   22.2051 H   0  0  0  0  0  0
  -23.7206  -37.6509   23.6653 H   0  0  0  0  0  0
  -26.0156  -31.6111   20.5838 H   0  0  0  0  0  0
  -26.8127  -30.9182   21.9685 H   0  0  0  0  0  0
  -28.0783  -29.1674   21.1995 H   0  0  0  0  0  0
  -26.1160  -25.9870   19.0344 H   0  0  0  0  0  0
  -24.0064  -27.2840   19.0351 H   0  0  0  0  0  0
  -23.7076  -30.5925   19.4036 H   0  0  0  0  0  0
  -22.7371  -29.2293   19.8741 H   0  0  0  0  0  0
  -25.1271  -36.1996   25.0828 H   0  0  0  0  0  0
  -20.9925  -28.3194   24.1465 H   0  0  0  0  0  0
  -20.5633  -26.2256   23.3601 H   0  0  0  0  0  0
  -21.6616  -26.7437   22.1225 H   0  0  0  0  0  0
  -19.6891  -25.6299   21.1227 H   0  0  0  0  0  0
  -19.6675  -27.3206   20.6752 H   0  0  0  0  0  0
  -17.4183  -26.6681   21.4000 H   0  0  0  0  0  0
  -18.0294  -26.0046   22.8999 H   0  0  0  0  0  0
  -19.7918  -30.7220   24.2310 H   0  0  0  0  0  0
  -17.5008  -31.6271   24.5147 H   0  0  0  0  0  0
  -15.5336  -30.2986   23.7641 H   0  0  0  0  0  0
  -15.8651  -28.0817   22.7066 H   0  0  0  0  0  0
  -24.5922  -30.7037   25.7790 H   0  0  0  0  0  0
  -24.8955  -32.2828   26.4951 H   0  0  0  0  0  0
  -25.8118  -30.8809   27.0206 H   0  0  0  0  0  0
  -26.2808  -29.6815   24.1131 H   0  0  0  0  0  0
  -27.4130  -29.7262   25.4445 H   0  0  0  0  0  0
  -27.8609  -30.4377   23.9117 H   0  0  0  0  0  0
  -27.2705  -33.3590   26.2076 H   0  0  0  0  0  0
  -28.3861  -32.6853   25.0285 H   0  0  0  0  0  0
  -28.0754  -31.8399   26.5361 H   0  0  0  0  0  0
  -28.2575  -38.0128   24.7570 H   0  0  0  0  0  0
  -28.1104  -36.2663   24.6184 H   0  0  0  0  0  0
  -27.2317  -37.1342   25.8858 H   0  0  0  0  0  0
  -20.9275  -29.8757   21.6999 H   0  0  0  0  0  0
  -26.0175  -38.2891   24.1462 H   0  0  0  0  0  0
  -30.1287  -20.1482   22.3057 H   0  0  0  0  0  0
  -29.1990  -22.4027   22.8381 H   0  0  0  0  0  0
  -30.7829  -15.3348   17.5549 H   0  0  0  0  0  0
  -32.8008  -21.5980   18.3310 H   0  0  0  0  0  0
  -34.0169  -21.5743   19.6198 H   0  0  0  0  0  0
  -33.4542  -23.1089   18.9639 H   0  0  0  0  0  0
  -28.1865  -16.5748   16.3474 H   0  0  0  0  0  0
  -28.1828  -15.0199   17.1678 H   0  0  0  0  0  0
  -29.0828  -15.2261   15.6754 H   0  0  0  0  0  0
  -29.9357  -27.8621   20.7191 H   0  0  0  0  0  0
  -29.0435  -27.0579   22.0127 H   0  0  0  0  0  0
  -31.3793  -26.0904   21.3937 H   0  0  0  0  0  0
  -30.6279  -25.5489   19.8965 H   0  0  0  0  0  0
  -32.8411  -19.8982   19.8660 H   0  0  0  0  0  0
  -28.9483  -15.3039   20.8412 H   0  0  0  0  0  0
  1 25  1  0  0  0
  1 30  2  0  0  0
  1 89  1  0  0  0
  2  3  1  0  0  0
  2 25  1  0  0  0
  2 92  1  0  0  0
  2 93  1  0  0  0
  3  4  1  0  0  0
  3 94  1  0  0  0
  3 95  1  0  0  0
  4  5  1  0  0  0
  4 96  1  0  0  0
  4 97  1  0  0  0
  5  6  1  0  0  0
  5 26  1  0  0  0
  5 98  1  0  0  0
  6 25  1  0  0  0
  6 99  1  0  0  0
  6100  1  0  0  0
  7  8  2  0  0  0
  7 26  1  0  0  0
  7 29  1  0  0  0
  8  9  1  0  0  0
  8 22  1  0  0  0
  9 10  1  0  0  0
  9 27  2  0  0  0
 10 11  2  0  0  0
 10 15  1  0  0  0
 11 12  1  0  0  0
 11101  1  0  0  0
 12 13  2  0  0  0
 12102  1  0  0  0
 13 14  1  0  0  0
 13 31  1  0  0  0
 14 15  2  0  0  0
 14103  1  0  0  0
 15104  1  0  0  0
 16 17  2  0  0  0
 16 21  1  0  0  0
 16 31  1  0  0  0
 17 18  1  0  0  0
 17105  1  0  0  0
 18 19  2  0  0  0
 18106  1  0  0  0
 19 20  1  0  0  0
 19 24  1  0  0  0
 20 21  2  0  0  0
 20107  1  0  0  0
 21 23  1  0  0  0
 22 28  1  0  0  0
 22 32  2  0  0  0
 26 27  1  0  0  0
 28108  1  0  0  0
 28109  1  0  0  0
 29110  1  0  0  0
 29111  1  0  0  0
 33 34  1  0  0  0
 33 66  1  0  0  0
 33 70  2  0  0  0
 34 36  1  0  0  0
 34 59  1  0  0  0
 34112  1  0  0  0
 35 44  2  0  0  0
 35 45  1  0  0  0
 35 68  1  0  0  0
 36 56  1  0  0  0
 36113  1  0  0  0
 37 39  1  0  0  0
 37 47  1  0  0  0
 37 66  1  0  0  0
 37114  1  0  0  0
 38 43  2  0  0  0
 38 46  1  0  0  0
 38 47  1  0  0  0
 39 64  1  0  0  0
 39 67  2  0  0  0
 40 52  1  0  0  0
 40 53  2  0  0  0
 40 58  1  0  0  0
 41115  1  0  0  0
 41116  1  0  0  0
 41117  1  0  0  0
 41 48  1  0  0  0
 42 43  1  0  0  0
 42 66  1  0  0  0
 42118  1  0  0  0
 42119  1  0  0  0
 43 44  1  0  0  0
 44120  1  0  0  0
 45 46  2  0  0  0
 45121  1  0  0  0
 46122  1  0  0  0
 47123  1  0  0  0
 47124  1  0  0  0
 48 56  1  0  0  0
 48 65  1  0  0  0
 48125  1  0  0  0
 49 50  1  0  0  0
 49 53  1  0  0  0
 49 64  1  0  0  0
 49126  1  0  0  0
 50 51  1  0  0  0
 50127  1  0  0  0
 50128  1  0  0  0
 51 52  1  0  0  0
 51129  1  0  0  0
 51130  1  0  0  0
 52131  1  0  0  0
 52132  1  0  0  0
 53 54  1  0  0  0
 54 55  2  0  0  0
 54133  1  0  0  0
 55 57  1  0  0  0
 55134  1  0  0  0
 56 69  2  0  0  0
 57 58  2  0  0  0
 57135  1  0  0  0
 58136  1  0  0  0
 59 60  1  0  0  0
 59 61  1  0  0  0
 59 62  1  0  0  0
 60137  1  0  0  0
 60138  1  0  0  0
 60139  1  0  0  0
 61140  1  0  0  0
 61141  1  0  0  0
 61142  1  0  0  0
 62143  1  0  0  0
 62144  1  0  0  0
 62145  1  0  0  0
 63 65  1  0  0  0
 63146  1  0  0  0
 63147  1  0  0  0
 63148  1  0  0  0
 64149  1  0  0  0
 65150  1  0  0  0
 68 83  1  0  0  0
 71 72  2  0  0  0
 71 74  1  0  0  0
 71151  1  0  0  0
 72 78  1  0  0  0
 72152  1  0  0  0
 73 76  1  0  0  0
 73 77  2  0  0  0
 73 80  1  0  0  0
 74 75  2  0  0  0
 74 88  1  0  0  0
 75 81  1  0  0  0
 75 85  1  0  0  0
 76 86  2  0  0  0
 76 89  1  0  0  0
 77 87  1  0  0  0
 77 90  1  0  0  0
 78 85  2  0  0  0
 78 91  1  0  0  0
 79 86  1  0  0  0
 79 87  2  0  0  0
 79 88  1  0  0  0
 80 82  1  0  0  0
 80 90  1  0  0  0
 80153  1  0  0  0
 81154  1  0  0  0
 81155  1  0  0  0
 81156  1  0  0  0
 82157  1  0  0  0
 82158  1  0  0  0
 82159  1  0  0  0
 83 84  1  0  0  0
 83160  1  0  0  0
 83161  1  0  0  0
 84 91  1  0  0  0
 84162  1  0  0  0
 84163  1  0  0  0
 88164  1  0  0  0
 89165  1  0  0  0
M  ISO  4   1 100  68 101  83 101  89 100
M  END
> <chiral flag>
0

> <version>
0

> <s_m_source_file>
/data/baiqing/PycharmProjects/Reinvent-master-3.2/result/LINK_invent/BTK/process_docking_weight1_custom_sum_contain_oxygen_bond_distance_aromatic_linkinvent_7_9_3/rearranged_h_0146.sdf

> <i_m_source_file_index>
18

> <r_mmod_Potential_Energy-OPLS-2005>
-318.769134521484

> <r_mmod_Stretch_Energy-OPLS-2005>
39.4961090087891

> <r_mmod_Bend_Energy-OPLS-2005>
386.972290039062

> <r_mmod_Torsional_Energy-OPLS-2005>
380.462768554688

> <r_mmod_Improper_Torsional_Energy-OPLS-2005>
54.648624420166

> <r_mmod_Van_der_Waal_Energy-OPLS-2005>
180.671310424805

> <r_mmod_Electrostatic_Energy-OPLS-2005>
-1127.625

> <r_mmod_Solvation_Energy-OPLS-2005>
-250.202056884766

> <b_mmod_Minimization_Converged-OPLS-2005>
0

> <r_mmod_RMS_Derivative-OPLS-2005>
3.50820064544678

$$$$
18
                    3D
 Structure written by MMmdl.
155164  0  0  1  0            999 V2000
  -30.4414  -15.1791   20.3850 C   0  0  0  0  0  0
  -30.4530  -12.7464   19.5202 C   0  0  0  0  0  0
  -29.5385  -12.5630   18.2820 C   0  0  0  0  0  0
  -28.0809  -12.3034   18.7083 C   0  0  0  0  0  0
  -27.6233  -13.2648   19.8337 C   0  0  2  0  0  0
  -28.6608  -13.3794   20.9712 C   0  0  0  0  0  0
  -25.2438  -13.8246   20.5757 C   0  0  0  0  0  0
  -24.1772  -13.0441   20.9239 C   0  0  0  0  0  0
  -24.6411  -11.6936   20.8746 C   0  0  0  0  0  0
  -23.9102  -10.4297   21.0394 C   0  0  0  0  0  0
  -24.3642   -9.4205   21.9175 C   0  0  0  0  0  0
  -23.6300   -8.2249   22.0762 C   0  0  0  0  0  0
  -22.4279   -8.0295   21.3553 C   0  0  0  0  0  0
  -21.9925   -9.0271   20.4649 C   0  0  0  0  0  0
  -22.7272  -10.2134   20.3044 C   0  0  0  0  0  0
  -21.6861   -6.0737   22.5274 C   0  0  0  0  0  0
  -21.4012   -6.5640   23.8208 C   0  0  0  0  0  0
  -21.3650   -5.6790   24.9164 C   0  0  0  0  0  0
  -21.6038   -4.3055   24.7218 C   0  0  0  0  0  0
  -21.8822   -3.8142   23.4343 C   0  0  0  0  0  0
  -21.9194   -4.6963   22.3400 C   0  0  0  0  0  0
  -22.7791  -13.5193   21.1901 C   0  0  0  0  0  0
  -22.1660   -4.2142   21.0980 F   0  0  0  0  0  0
  -21.5632   -3.4542   25.7732 F   0  0  0  0  0  0
  -29.9100  -13.8667   20.3641 N   0  0  0  0  0  0
  -26.2864  -12.9491   20.3241 N   0  0  0  0  0  0
  -25.9346  -11.6599   20.5717 N   0  0  0  0  0  0
  -22.0446  -12.8174   22.0447 N   0  0  0  0  0  0
  -25.4108  -15.1988   20.4251 N   0  0  0  0  0  0
  -31.6455  -15.2460   20.1018 O   0  0  0  0  0  0
  -21.6648   -6.8890   21.4238 O   0  0  0  0  0  0
  -22.3468  -14.5496   20.6748 O   0  0  0  0  0  0
  -24.6543  -31.8330   23.1748 C   0  0  0  0  0  0
  -25.9252  -32.4644   23.8205 C   0  0  1  0  0  0
  -27.2261  -26.9954   20.1932 C   0  0  0  0  0  0
  -25.5978  -33.8466   24.2114 N   0  0  0  0  0  0
  -23.4677  -30.4417   21.5223 C   0  0  2  0  0  0
  -24.9211  -28.8372   20.1143 C   0  0  0  0  0  0
  -22.7637  -29.4477   22.4815 C   0  0  0  0  0  0
  -18.0308  -28.1408   22.8505 C   0  0  0  0  0  0
  -24.1450  -36.7182   23.2643 C   0  0  0  0  0  0
  -26.0287  -30.6648   21.3896 C   0  0  0  0  0  0
  -26.1022  -29.2573   20.7396 C   0  0  0  0  0  0
  -27.2516  -28.3578   20.7516 C   0  0  0  0  0  0
  -26.0147  -26.7048   19.5278 C   0  0  0  0  0  0
  -24.8989  -27.5781   19.4913 C   0  0  0  0  0  0
  -23.7034  -29.7557   20.1480 C   0  0  0  0  0  0
  -25.4100  -36.3000   24.0315 C   0  0  1  0  0  0
  -20.5939  -28.3729   23.1226 C   0  0  2  0  0  0
  -20.6778  -26.9420   22.5423 C   0  0  0  0  0  0
  -19.5750  -26.6374   21.5230 C   0  0  0  0  0  0
  -18.1929  -26.7963   22.1621 C   0  0  0  0  0  0
  -19.1581  -28.8886   23.2853 C   0  0  0  0  0  0
  -18.9501  -30.1480   23.8880 C   0  0  0  0  0  0
  -17.6502  -30.6616   24.0559 C   0  0  0  0  0  0
  -25.9090  -34.9388   23.5029 C   0  0  0  0  0  0
  -16.5375  -29.9118   23.6356 C   0  0  0  0  0  0
  -16.7303  -28.6517   23.0407 C   0  0  0  0  0  0
  -26.4521  -31.6581   25.0704 C   0  0  0  0  0  0
  -25.3678  -31.3900   26.1406 C   0  0  0  0  0  0
  -27.0349  -30.2949   24.6370 C   0  0  0  0  0  0
  -27.6067  -32.4337   25.7472 C   0  0  0  0  0  0
  -27.5552  -37.1726   24.8468 C   0  0  0  0  0  0
  -21.4310  -29.3033   22.3567 N   0  0  0  0  0  0
  -26.4223  -37.3753   23.9474 N   0  0  0  0  0  0
  -24.7379  -31.0051   22.0840 N   0  0  0  0  0  0
  -23.4217  -28.8048   23.3030 O   0  0  0  0  0  0
  -28.2582  -25.9420   20.2627 O   0  0  0  0  0  0
  -26.5669  -34.8921   22.4608 O   0  0  0  0  0  0
  -23.5625  -32.1244   23.6890 O   0  0  0  0  0  0
  -30.3351  -18.9069   19.7389 C   0  0  0  0  0  0
  -28.5290  -18.7690   21.1613 C   0  0  0  0  0  0
  -29.1210  -21.1911   20.3464 C   0  0  0  0  0  0
  -30.1364  -20.3787   19.6659 C   0  0  0  0  0  0
  -29.5433  -17.9589   20.4957 C   0  0  0  0  0  0
  -28.3347  -20.2512   21.1354 C   0  0  0  0  0  0
  -28.4381  -23.6230   19.0707 C   0  0  0  0  0  0
  -29.0638  -22.9374   20.2814 C   0  0  1  0  0  0
  -28.0143  -24.3350   20.3309 C   0  0  1  0  0  0
  -31.1244  -21.1356   18.7932 C   0  0  0  0  0  0
  -26.5539  -20.0883   22.7851 C   0  0  0  0  0  0
  -29.5953  -16.3579   20.5864 N   0  0  0  0  0  0
  -27.3739  -20.8707   21.9148 O   0  0  0  0  0  0
  -31.4710  -12.9550   19.1907 H   0  0  0  0  0  0
  -30.5152  -11.8243   20.1000 H   0  0  0  0  0  0
  -29.9023  -11.7405   17.6639 H   0  0  0  0  0  0
  -29.5796  -13.4560   17.6567 H   0  0  0  0  0  0
  -28.0240  -11.2740   19.0635 H   0  0  0  0  0  0
  -27.4115  -12.3655   17.8494 H   0  0  0  0  0  0
  -27.5562  -14.2472   19.3627 H   0  0  0  0  0  0
  -28.8056  -12.4212   21.4722 H   0  0  0  0  0  0
  -28.3136  -14.0790   21.7336 H   0  0  0  0  0  0
  -25.2786   -9.5673   22.4751 H   0  0  0  0  0  0
  -23.9997   -7.4636   22.7492 H   0  0  0  0  0  0
  -21.0857   -8.8796   19.8958 H   0  0  0  0  0  0
  -22.3745  -10.9668   19.6147 H   0  0  0  0  0  0
  -21.2005   -7.6149   23.9706 H   0  0  0  0  0  0
  -21.1460   -6.0523   25.9067 H   0  0  0  0  0  0
  -22.0608   -2.7606   23.2845 H   0  0  0  0  0  0
  -22.4065  -11.9824   22.4800 H   0  0  0  0  0  0
  -21.1061  -13.1172   22.2653 H   0  0  0  0  0  0
  -24.6454  -15.8514   20.5588 H   0  0  0  0  0  0
  -26.2586  -15.6457   20.1013 H   0  0  0  0  0  0
  -26.7320  -32.5192   23.0924 H   0  0  0  0  0  0
  -25.0168  -33.9589   25.0293 H   0  0  0  0  0  0
  -22.7773  -31.2713   21.3547 H   0  0  0  0  0  0
  -23.3788  -35.9435   23.3235 H   0  0  0  0  0  0
  -24.3560  -36.8893   22.2077 H   0  0  0  0  0  0
  -23.7080  -37.6301   23.6729 H   0  0  0  0  0  0
  -26.1909  -31.4083   20.6084 H   0  0  0  0  0  0
  -26.8950  -30.7310   22.0358 H   0  0  0  0  0  0
  -28.1481  -28.6835   21.2607 H   0  0  0  0  0  0
  -25.9118  -25.7368   19.0574 H   0  0  0  0  0  0
  -23.9959  -27.2482   18.9962 H   0  0  0  0  0  0
  -23.8534  -30.5247   19.3891 H   0  0  0  0  0  0
  -22.8157  -29.2047   19.8319 H   0  0  0  0  0  0
  -25.1269  -36.1778   25.0797 H   0  0  0  0  0  0
  -21.0018  -28.3302   24.1351 H   0  0  0  0  0  0
  -20.5616  -26.2359   23.3659 H   0  0  0  0  0  0
  -21.6642  -26.7387   22.1236 H   0  0  0  0  0  0
  -19.6911  -25.6280   21.1267 H   0  0  0  0  0  0
  -19.6691  -27.3174   20.6757 H   0  0  0  0  0  0
  -17.4206  -26.6750   21.4006 H   0  0  0  0  0  0
  -18.0289  -26.0102   22.9001 H   0  0  0  0  0  0
  -19.7981  -30.7295   24.2226 H   0  0  0  0  0  0
  -17.5077  -31.6305   24.5153 H   0  0  0  0  0  0
  -15.5385  -30.3023   23.7721 H   0  0  0  0  0  0
  -15.8686  -28.0820   22.7167 H   0  0  0  0  0  0
  -24.5870  -30.7203   25.7784 H   0  0  0  0  0  0
  -24.8839  -32.3135   26.4610 H   0  0  0  0  0  0
  -25.7937  -30.9259   27.0307 H   0  0  0  0  0  0
  -26.2972  -29.6709   24.1319 H   0  0  0  0  0  0
  -27.3854  -29.7240   25.4968 H   0  0  0  0  0  0
  -27.8939  -30.4155   23.9773 H   0  0  0  0  0  0
  -27.2758  -33.3821   26.1720 H   0  0  0  0  0  0
  -28.4059  -32.6562   25.0387 H   0  0  0  0  0  0
  -28.0495  -31.8619   26.5631 H   0  0  0  0  0  0
  -28.2512  -38.0076   24.7611 H   0  0  0  0  0  0
  -28.1075  -36.2614   24.6128 H   0  0  0  0  0  0
  -27.2322  -37.1185   25.8877 H   0  0  0  0  0  0
  -20.9528  -29.8755   21.6743 H   0  0  0  0  0  0
  -26.0057  -38.2777   24.1622 H   0  0  0  0  0  0
  -31.1442  -18.4877   19.1566 H   0  0  0  0  0  0
  -27.8470  -18.1811   21.7548 H   0  0  0  0  0  0
  -27.6375  -23.0928   18.5563 H   0  0  0  0  0  0
  -29.1217  -24.1395   18.4008 H   0  0  0  0  0  0
  -30.0847  -23.2272   20.5243 H   0  0  0  0  0  0
  -27.0254  -24.1419   20.7412 H   0  0  0  0  0  0
  -31.6873  -20.4666   18.1411 H   0  0  0  0  0  0
  -31.8403  -21.6817   19.4080 H   0  0  0  0  0  0
  -30.6090  -21.8567   18.1589 H   0  0  0  0  0  0
  -26.0044  -20.7424   23.4659 H   0  0  0  0  0  0
  -27.1311  -19.4101   23.4163 H   0  0  0  0  0  0
  -25.8129  -19.5182   22.2208 H   0  0  0  0  0  0
  -28.7005  -16.0054   20.8891 H   0  0  0  0  0  0
  1 25  1  0  0  0
  1 30  2  0  0  0
  1 82  1  0  0  0
  2  3  1  0  0  0
  2 25  1  0  0  0
  2 84  1  0  0  0
  2 85  1  0  0  0
  3  4  1  0  0  0
  3 86  1  0  0  0
  3 87  1  0  0  0
  4  5  1  0  0  0
  4 88  1  0  0  0
  4 89  1  0  0  0
  5  6  1  0  0  0
  5 26  1  0  0  0
  5 90  1  0  0  0
  6 25  1  0  0  0
  6 91  1  0  0  0
  6 92  1  0  0  0
  7  8  2  0  0  0
  7 26  1  0  0  0
  7 29  1  0  0  0
  8  9  1  0  0  0
  8 22  1  0  0  0
  9 10  1  0  0  0
  9 27  2  0  0  0
 10 11  2  0  0  0
 10 15  1  0  0  0
 11 12  1  0  0  0
 11 93  1  0  0  0
 12 13  2  0  0  0
 12 94  1  0  0  0
 13 14  1  0  0  0
 13 31  1  0  0  0
 14 15  2  0  0  0
 14 95  1  0  0  0
 15 96  1  0  0  0
 16 17  2  0  0  0
 16 21  1  0  0  0
 16 31  1  0  0  0
 17 18  1  0  0  0
 17 97  1  0  0  0
 18 19  2  0  0  0
 18 98  1  0  0  0
 19 20  1  0  0  0
 19 24  1  0  0  0
 20 21  2  0  0  0
 20 99  1  0  0  0
 21 23  1  0  0  0
 22 28  1  0  0  0
 22 32  2  0  0  0
 26 27  1  0  0  0
 28100  1  0  0  0
 28101  1  0  0  0
 29102  1  0  0  0
 29103  1  0  0  0
 33 34  1  0  0  0
 33 66  1  0  0  0
 33 70  2  0  0  0
 34 36  1  0  0  0
 34 59  1  0  0  0
 34104  1  0  0  0
 35 44  2  0  0  0
 35 45  1  0  0  0
 35 68  1  0  0  0
 36 56  1  0  0  0
 36105  1  0  0  0
 37 39  1  0  0  0
 37 47  1  0  0  0
 37 66  1  0  0  0
 37106  1  0  0  0
 38 43  2  0  0  0
 38 46  1  0  0  0
 38 47  1  0  0  0
 39 64  1  0  0  0
 39 67  2  0  0  0
 40 52  1  0  0  0
 40 53  2  0  0  0
 40 58  1  0  0  0
 41107  1  0  0  0
 41108  1  0  0  0
 41109  1  0  0  0
 41 48  1  0  0  0
 42 43  1  0  0  0
 42 66  1  0  0  0
 42110  1  0  0  0
 42111  1  0  0  0
 43 44  1  0  0  0
 44112  1  0  0  0
 45 46  2  0  0  0
 45113  1  0  0  0
 46114  1  0  0  0
 47115  1  0  0  0
 47116  1  0  0  0
 48 56  1  0  0  0
 48 65  1  0  0  0
 48117  1  0  0  0
 49 50  1  0  0  0
 49 53  1  0  0  0
 49 64  1  0  0  0
 49118  1  0  0  0
 50 51  1  0  0  0
 50119  1  0  0  0
 50120  1  0  0  0
 51 52  1  0  0  0
 51121  1  0  0  0
 51122  1  0  0  0
 52123  1  0  0  0
 52124  1  0  0  0
 53 54  1  0  0  0
 54 55  2  0  0  0
 54125  1  0  0  0
 55 57  1  0  0  0
 55126  1  0  0  0
 56 69  2  0  0  0
 57 58  2  0  0  0
 57127  1  0  0  0
 58128  1  0  0  0
 59 60  1  0  0  0
 59 61  1  0  0  0
 59 62  1  0  0  0
 60129  1  0  0  0
 60130  1  0  0  0
 60131  1  0  0  0
 61132  1  0  0  0
 61133  1  0  0  0
 61134  1  0  0  0
 62135  1  0  0  0
 62136  1  0  0  0
 62137  1  0  0  0
 63 65  1  0  0  0
 63138  1  0  0  0
 63139  1  0  0  0
 63140  1  0  0  0
 64141  1  0  0  0
 65142  1  0  0  0
 68 79  1  0  0  0
 71 74  2  0  0  0
 71 75  1  0  0  0
 71143  1  0  0  0
 72 75  2  0  0  0
 72 76  1  0  0  0
 72144  1  0  0  0
 73 74  1  0  0  0
 73 76  2  0  0  0
 73 78  1  0  0  0
 74 80  1  0  0  0
 75 82  1  0  0  0
 76 83  1  0  0  0
 77 78  1  0  0  0
 77 79  1  0  0  0
 77145  1  0  0  0
 77146  1  0  0  0
 78 79  1  0  0  0
 78147  1  0  0  0
 79148  1  0  0  0
 80149  1  0  0  0
 80150  1  0  0  0
 80151  1  0  0  0
 81 83  1  0  0  0
 81152  1  0  0  0
 81153  1  0  0  0
 81154  1  0  0  0
 82155  1  0  0  0
M  ISO  4   1 100  68 101  79 101  82 100
M  END
> <chiral flag>
0

> <version>
0

> <s_m_source_file>
/data/baiqing/PycharmProjects/Reinvent-master-3.2/result/LINK_invent/BTK/process_docking_weight1_custom_sum_contain_oxygen_bond_distance_aromatic_linkinvent_7_9_3/rearranged_h_0146.sdf

> <i_m_source_file_index>
19

> <r_mmod_Potential_Energy-OPLS-2005>
1016.10736083984

> <r_mmod_Stretch_Energy-OPLS-2005>
454.117065429688

> <r_mmod_Bend_Energy-OPLS-2005>
394.992095947266

> <r_mmod_Torsional_Energy-OPLS-2005>
243.327117919922

> <r_mmod_Improper_Torsional_Energy-OPLS-2005>
3.41546487808228

> <r_mmod_Van_der_Waal_Energy-OPLS-2005>
129.124572753906

> <r_mmod_Electrostatic_Energy-OPLS-2005>
-357.886596679688

> <r_mmod_Solvation_Energy-OPLS-2005>
-218.904541015625

> <b_mmod_Minimization_Converged-OPLS-2005>
0

> <r_mmod_RMS_Derivative-OPLS-2005>
3.2206699848175

$$$$
19
                    3D
 Structure written by MMmdl.
176185  0  0  1  0            999 V2000
  -30.5384  -14.9567   20.4419 C   0  0  0  0  0  0
  -30.4438  -12.5992   19.4957 C   0  0  0  0  0  0
  -29.5240  -12.5264   18.2552 C   0  0  0  0  0  0
  -28.0569  -12.3079   18.6748 C   0  0  0  0  0  0
  -27.6295  -13.2447   19.8349 C   0  0  2  0  0  0
  -28.6719  -13.2795   20.9719 C   0  0  0  0  0  0
  -25.2465  -13.8205   20.5700 C   0  0  0  0  0  0
  -24.1771  -13.0434   20.9200 C   0  0  0  0  0  0
  -24.6390  -11.6916   20.8755 C   0  0  0  0  0  0
  -23.9077  -10.4292   21.0409 C   0  0  0  0  0  0
  -24.3623   -9.4200   21.9180 C   0  0  0  0  0  0
  -23.6290   -8.2244   22.0758 C   0  0  0  0  0  0
  -22.4262   -8.0296   21.3561 C   0  0  0  0  0  0
  -21.9903   -9.0267   20.4657 C   0  0  0  0  0  0
  -22.7251  -10.2133   20.3059 C   0  0  0  0  0  0
  -21.6856   -6.0737   22.5276 C   0  0  0  0  0  0
  -21.4031   -6.5641   23.8212 C   0  0  0  0  0  0
  -21.3655   -5.6793   24.9172 C   0  0  0  0  0  0
  -21.6038   -4.3053   24.7221 C   0  0  0  0  0  0
  -21.8823   -3.8145   23.4341 C   0  0  0  0  0  0
  -21.9192   -4.6965   22.3399 C   0  0  0  0  0  0
  -22.7798  -13.5207   21.1861 C   0  0  0  0  0  0
  -22.1661   -4.2159   21.0979 F   0  0  0  0  0  0
  -21.5617   -3.4533   25.7728 F   0  0  0  0  0  0
  -29.9426  -13.6993   20.3664 N   0  0  0  0  0  0
  -26.2883  -12.9429   20.3228 N   0  0  0  0  0  0
  -25.9318  -11.6560   20.5716 N   0  0  0  0  0  0
  -22.0444  -12.8220   22.0431 N   0  0  0  0  0  0
  -25.4117  -15.1937   20.4156 N   0  0  0  0  0  0
  -31.7455  -15.0202   20.1899 O   0  0  0  0  0  0
  -21.6644   -6.8877   21.4237 O   0  0  0  0  0  0
  -22.3488  -14.5511   20.6700 O   0  0  0  0  0  0
  -24.6457  -31.8418   23.1864 C   0  0  0  0  0  0
  -25.9224  -32.4676   23.8263 C   0  0  1  0  0  0
  -27.2117  -27.1133   20.1589 C   0  0  0  0  0  0
  -25.5950  -33.8480   24.2176 N   0  0  0  0  0  0
  -23.4498  -30.4610   21.5327 C   0  0  2  0  0  0
  -24.8986  -28.8852   20.1073 C   0  0  0  0  0  0
  -22.7572  -29.4545   22.4858 C   0  0  0  0  0  0
  -18.0305  -28.1404   22.8470 C   0  0  0  0  0  0
  -24.1490  -36.7254   23.2644 C   0  0  0  0  0  0
  -26.0059  -30.7080   21.3887 C   0  0  0  0  0  0
  -26.0757  -29.3172   20.7307 C   0  0  0  0  0  0
  -27.2313  -28.4476   20.7418 C   0  0  0  0  0  0
  -26.0130  -26.7900   19.4863 C   0  0  0  0  0  0
  -24.8824  -27.6350   19.4682 C   0  0  0  0  0  0
  -23.6764  -29.7898   20.1515 C   0  0  0  0  0  0
  -25.4117  -36.3018   24.0316 C   0  0  1  0  0  0
  -20.5918  -28.3733   23.1233 C   0  0  2  0  0  0
  -20.6792  -26.9437   22.5402 C   0  0  0  0  0  0
  -19.5767  -26.6383   21.5212 C   0  0  0  0  0  0
  -18.1947  -26.7937   22.1621 C   0  0  0  0  0  0
  -19.1560  -28.8887   23.2843 C   0  0  0  0  0  0
  -18.9476  -30.1479   23.8878 C   0  0  0  0  0  0
  -17.6474  -30.6600   24.0558 C   0  0  0  0  0  0
  -25.9070  -34.9398   23.5060 C   0  0  0  0  0  0
  -16.5366  -29.9092   23.6340 C   0  0  0  0  0  0
  -16.7288  -28.6511   23.0357 C   0  0  0  0  0  0
  -26.4525  -31.6556   25.0720 C   0  0  0  0  0  0
  -25.3698  -31.3768   26.1412 C   0  0  0  0  0  0
  -27.0393  -30.2943   24.6335 C   0  0  0  0  0  0
  -27.6049  -32.4331   25.7502 C   0  0  0  0  0  0
  -27.5574  -37.1778   24.8461 C   0  0  0  0  0  0
  -21.4266  -29.3054   22.3600 N   0  0  0  0  0  0
  -26.4277  -37.3739   23.9412 N   0  0  0  0  0  0
  -24.7207  -31.0252   22.0904 N   0  0  0  0  0  0
  -23.4199  -28.8111   23.3038 O   0  0  0  0  0  0
  -28.2511  -26.1116   20.2535 O   0  0  0  0  0  0
  -26.5669  -34.8907   22.4647 O   0  0  0  0  0  0
  -23.5576  -32.1301   23.7076 O   0  0  0  0  0  0
  -29.2947  -18.8216   20.2698 C   0  0  0  0  0  0
  -29.4128  -20.2304   20.7552 C   0  0  0  0  0  0
  -29.9643  -17.6251   20.8614 C   0  0  0  0  0  0
  -30.7645  -17.9864   21.9806 C   0  0  0  0  0  0
  -30.2285  -20.3083   21.9050 C   0  0  0  0  0  0
  -32.4037  -22.3946   23.6183 C   0  0  0  0  0  0
  -30.1373  -22.6300   24.7367 C   0  0  0  0  0  0
  -33.0859  -22.7667   24.9450 C   0  0  0  0  0  0
  -30.8342  -22.9933   26.0592 C   0  0  0  0  0  0
  -31.0246  -21.7436   23.8369 C   0  0  1  0  0  0
  -32.1881  -23.6843   25.7993 C   0  0  1  0  0  0
  -30.5630  -16.2781   23.8702 C   0  0  0  0  0  0
  -28.6628  -21.5987   20.1435 C   0  0  0  0  0  0
  -31.4917  -16.9783   22.8680 C   0  0  0  0  0  0
  -28.8854  -23.2461   20.5578 C   0  0  0  0  0  0
  -28.0017  -24.5838   20.0013 C   0  0  0  0  0  0
  -30.8672  -19.2522   22.4549 N   0  0  0  0  0  0
  -29.7378  -16.1373   20.5125 N   0  0  0  0  0  0
  -30.3717  -21.5364   22.5509 N   0  0  0  0  0  0
  -32.8530  -24.0726   27.0558 N   0  3  0  0  0  0
  -31.4768  -12.7631   19.1839 H   0  0  0  0  0  0
  -30.4422  -11.6521   20.0383 H   0  0  0  0  0  0
  -29.8491  -11.7248   17.5892 H   0  0  0  0  0  0
  -29.6080  -13.4518   17.6834 H   0  0  0  0  0  0
  -27.9581  -11.2679   18.9888 H   0  0  0  0  0  0
  -27.3940  -12.4363   17.8191 H   0  0  0  0  0  0
  -27.5898  -14.2435   19.3995 H   0  0  0  0  0  0
  -28.7657  -12.3053   21.4560 H   0  0  0  0  0  0
  -28.3680  -13.9852   21.7473 H   0  0  0  0  0  0
  -25.2766   -9.5680   22.4752 H   0  0  0  0  0  0
  -24.0008   -7.4628   22.7469 H   0  0  0  0  0  0
  -21.0840   -8.8800   19.8949 H   0  0  0  0  0  0
  -22.3727  -10.9679   19.6171 H   0  0  0  0  0  0
  -21.2051   -7.6151   23.9726 H   0  0  0  0  0  0
  -21.1460   -6.0513   25.9076 H   0  0  0  0  0  0
  -22.0602   -2.7605   23.2837 H   0  0  0  0  0  0
  -22.4071  -11.9906   22.4849 H   0  0  0  0  0  0
  -21.1057  -13.1256   22.2617 H   0  0  0  0  0  0
  -24.6395  -15.8401   20.5335 H   0  0  0  0  0  0
  -26.2505  -15.6430   20.0741 H   0  0  0  0  0  0
  -26.7297  -32.5282   23.0997 H   0  0  0  0  0  0
  -25.0032  -33.9581   25.0279 H   0  0  0  0  0  0
  -22.7535  -31.2877   21.3778 H   0  0  0  0  0  0
  -23.3754  -35.9585   23.3278 H   0  0  0  0  0  0
  -24.3587  -36.8914   22.2067 H   0  0  0  0  0  0
  -23.7247  -37.6443   23.6697 H   0  0  0  0  0  0
  -26.1629  -31.4628   20.6169 H   0  0  0  0  0  0
  -26.8748  -30.7581   22.0333 H   0  0  0  0  0  0
  -28.1233  -28.7694   21.2612 H   0  0  0  0  0  0
  -25.9167  -25.8352   18.9896 H   0  0  0  0  0  0
  -23.9853  -27.2985   18.9667 H   0  0  0  0  0  0
  -23.8147  -30.5633   19.3951 H   0  0  0  0  0  0
  -22.7896  -29.2330   19.8429 H   0  0  0  0  0  0
  -25.1307  -36.1836   25.0808 H   0  0  0  0  0  0
  -20.9998  -28.3329   24.1361 H   0  0  0  0  0  0
  -20.5688  -26.2351   23.3624 H   0  0  0  0  0  0
  -21.6661  -26.7449   22.1208 H   0  0  0  0  0  0
  -19.6930  -25.6285   21.1268 H   0  0  0  0  0  0
  -19.6702  -27.3173   20.6727 H   0  0  0  0  0  0
  -17.4211  -26.6672   21.4029 H   0  0  0  0  0  0
  -18.0354  -26.0091   22.9033 H   0  0  0  0  0  0
  -19.7953  -30.7296   24.2241 H   0  0  0  0  0  0
  -17.5032  -31.6279   24.5161 H   0  0  0  0  0  0
  -15.5368  -30.2988   23.7682 H   0  0  0  0  0  0
  -15.8684  -28.0822   22.7092 H   0  0  0  0  0  0
  -24.5850  -30.7148   25.7729 H   0  0  0  0  0  0
  -24.8919  -32.2965   26.4805 H   0  0  0  0  0  0
  -25.7964  -30.8941   27.0215 H   0  0  0  0  0  0
  -26.3022  -29.6652   24.1325 H   0  0  0  0  0  0
  -27.3968  -29.7264   25.4938 H   0  0  0  0  0  0
  -27.8949  -30.4165   23.9686 H   0  0  0  0  0  0
  -27.2630  -33.3643   26.2038 H   0  0  0  0  0  0
  -28.3877  -32.6875   25.0340 H   0  0  0  0  0  0
  -28.0699  -31.8486   26.5454 H   0  0  0  0  0  0
  -28.2569  -38.0095   24.7526 H   0  0  0  0  0  0
  -28.1091  -36.2628   24.6252 H   0  0  0  0  0  0
  -27.2303  -37.1392   25.8867 H   0  0  0  0  0  0
  -20.9484  -29.8741   21.6748 H   0  0  0  0  0  0
  -26.0138  -38.2804   24.1414 H   0  0  0  0  0  0
  -28.6460  -18.6492   19.4232 H   0  0  0  0  0  0
  -33.0442  -21.7163   23.0531 H   0  0  0  0  0  0
  -32.2947  -23.2940   23.0094 H   0  0  0  0  0  0
  -29.8714  -23.5506   24.2143 H   0  0  0  0  0  0
  -29.1973  -22.1183   24.9515 H   0  0  0  0  0  0
  -34.0350  -23.2601   24.7323 H   0  0  0  0  0  0
  -33.3248  -21.8556   25.4962 H   0  0  0  0  0  0
  -30.9814  -22.0896   26.6520 H   0  0  0  0  0  0
  -30.1817  -23.6433   26.6433 H   0  0  0  0  0  0
  -31.1636  -20.7912   24.3509 H   0  0  0  0  0  0
  -32.0048  -24.6073   25.2451 H   0  0  0  0  0  0
  -31.1251  -15.5871   24.4987 H   0  0  0  0  0  0
  -29.7798  -15.7096   23.3705 H   0  0  0  0  0  0
  -30.0820  -17.0047   24.5247 H   0  0  0  0  0  0
  -27.5986  -21.4014   20.2715 H   0  0  0  0  0  0
  -28.8144  -21.5415   19.0652 H   0  0  0  0  0  0
  -32.2590  -17.5039   23.4390 H   0  0  0  0  0  0
  -32.0558  -16.2610   22.2804 H   0  0  0  0  0  0
  -29.9340  -23.4719   20.3612 H   0  0  0  0  0  0
  -28.7696  -23.3199   21.6374 H   0  0  0  0  0  0
  -26.9822  -24.3894   20.3381 H   0  0  0  0  0  0
  -27.9628  -24.4839   18.9170 H   0  0  0  0  0  0
  -28.7632  -15.9160   20.3791 H   0  0  0  0  0  0
  -29.8903  -22.3254   22.1399 H   0  0  0  0  0  0
  -33.0578  -23.2738   27.6275 H   0  0  0  0  0  0
  -32.2710  -24.6996   27.5827 H   0  0  0  0  0  0
  -33.7145  -24.5507   26.8600 H   0  0  0  0  0  0
  1 25  1  0  0  0
  1 30  2  0  0  0
  1 88  1  0  0  0
  2  3  1  0  0  0
  2 25  1  0  0  0
  2 91  1  0  0  0
  2 92  1  0  0  0
  3  4  1  0  0  0
  3 93  1  0  0  0
  3 94  1  0  0  0
  4  5  1  0  0  0
  4 95  1  0  0  0
  4 96  1  0  0  0
  5  6  1  0  0  0
  5 26  1  0  0  0
  5 97  1  0  0  0
  6 25  1  0  0  0
  6 98  1  0  0  0
  6 99  1  0  0  0
  7  8  2  0  0  0
  7 26  1  0  0  0
  7 29  1  0  0  0
  8  9  1  0  0  0
  8 22  1  0  0  0
  9 10  1  0  0  0
  9 27  2  0  0  0
 10 11  2  0  0  0
 10 15  1  0  0  0
 11 12  1  0  0  0
 11100  1  0  0  0
 12 13  2  0  0  0
 12101  1  0  0  0
 13 14  1  0  0  0
 13 31  1  0  0  0
 14 15  2  0  0  0
 14102  1  0  0  0
 15103  1  0  0  0
 16 17  2  0  0  0
 16 21  1  0  0  0
 16 31  1  0  0  0
 17 18  1  0  0  0
 17104  1  0  0  0
 18 19  2  0  0  0
 18105  1  0  0  0
 19 20  1  0  0  0
 19 24  1  0  0  0
 20 21  2  0  0  0
 20106  1  0  0  0
 21 23  1  0  0  0
 22 28  1  0  0  0
 22 32  2  0  0  0
 26 27  1  0  0  0
 28107  1  0  0  0
 28108  1  0  0  0
 29109  1  0  0  0
 29110  1  0  0  0
 33 34  1  0  0  0
 33 66  1  0  0  0
 33 70  2  0  0  0
 34 36  1  0  0  0
 34 59  1  0  0  0
 34111  1  0  0  0
 35 44  2  0  0  0
 35 45  1  0  0  0
 35 68  1  0  0  0
 36 56  1  0  0  0
 36112  1  0  0  0
 37 39  1  0  0  0
 37 47  1  0  0  0
 37 66  1  0  0  0
 37113  1  0  0  0
 38 43  2  0  0  0
 38 46  1  0  0  0
 38 47  1  0  0  0
 39 64  1  0  0  0
 39 67  2  0  0  0
 40 52  1  0  0  0
 40 53  2  0  0  0
 40 58  1  0  0  0
 41114  1  0  0  0
 41115  1  0  0  0
 41116  1  0  0  0
 41 48  1  0  0  0
 42 43  1  0  0  0
 42 66  1  0  0  0
 42117  1  0  0  0
 42118  1  0  0  0
 43 44  1  0  0  0
 44119  1  0  0  0
 45 46  2  0  0  0
 45120  1  0  0  0
 46121  1  0  0  0
 47122  1  0  0  0
 47123  1  0  0  0
 48 56  1  0  0  0
 48 65  1  0  0  0
 48124  1  0  0  0
 49 50  1  0  0  0
 49 53  1  0  0  0
 49 64  1  0  0  0
 49125  1  0  0  0
 50 51  1  0  0  0
 50126  1  0  0  0
 50127  1  0  0  0
 51 52  1  0  0  0
 51128  1  0  0  0
 51129  1  0  0  0
 52130  1  0  0  0
 52131  1  0  0  0
 53 54  1  0  0  0
 54 55  2  0  0  0
 54132  1  0  0  0
 55 57  1  0  0  0
 55133  1  0  0  0
 56 69  2  0  0  0
 57 58  2  0  0  0
 57134  1  0  0  0
 58135  1  0  0  0
 59 60  1  0  0  0
 59 61  1  0  0  0
 59 62  1  0  0  0
 60136  1  0  0  0
 60137  1  0  0  0
 60138  1  0  0  0
 61139  1  0  0  0
 61140  1  0  0  0
 61141  1  0  0  0
 62142  1  0  0  0
 62143  1  0  0  0
 62144  1  0  0  0
 63 65  1  0  0  0
 63145  1  0  0  0
 63146  1  0  0  0
 63147  1  0  0  0
 64148  1  0  0  0
 65149  1  0  0  0
 68 86  1  0  0  0
 71 72  2  0  0  0
 71 73  1  0  0  0
 71150  1  0  0  0
 72 75  1  0  0  0
 72 83  1  0  0  0
 73 74  2  0  0  0
 73 88  1  0  0  0
 74 84  1  0  0  0
 74 87  1  0  0  0
 75 87  2  0  0  0
 75 89  1  0  0  0
 76 78  1  0  0  0
 76 80  1  0  0  0
 76151  1  0  0  0
 76152  1  0  0  0
 77 79  1  0  0  0
 77 80  1  0  0  0
 77153  1  0  0  0
 77154  1  0  0  0
 78 81  1  0  0  0
 78155  1  0  0  0
 78156  1  0  0  0
 79 81  1  0  0  0
 79157  1  0  0  0
 79158  1  0  0  0
 80 89  1  0  0  0
 80159  1  0  0  0
 81 90  1  0  0  0
 81160  1  0  0  0
 82 84  1  0  0  0
 82161  1  0  0  0
 82162  1  0  0  0
 82163  1  0  0  0
 83 85  1  0  0  0
 83164  1  0  0  0
 83165  1  0  0  0
 84166  1  0  0  0
 84167  1  0  0  0
 85 86  1  0  0  0
 85168  1  0  0  0
 85169  1  0  0  0
 86170  1  0  0  0
 86171  1  0  0  0
 88172  1  0  0  0
 89173  1  0  0  0
 90174  1  0  0  0
 90175  1  0  0  0
 90176  1  0  0  0
M  CHG  1  90   1
M  ISO  4   1 100  68 101  86 101  88 100
M  END
> <chiral flag>
0

> <version>
0

> <s_m_source_file>
/data/baiqing/PycharmProjects/Reinvent-master-3.2/result/LINK_invent/BTK/process_docking_weight1_custom_sum_contain_oxygen_bond_distance_aromatic_linkinvent_7_9_3/rearranged_h_0146.sdf

> <i_m_source_file_index>
20

> <r_mmod_Potential_Energy-OPLS-2005>
71.3689880371094

> <r_mmod_Stretch_Energy-OPLS-2005>
289.388977050781

> <r_mmod_Bend_Energy-OPLS-2005>
285.176239013672

> <r_mmod_Torsional_Energy-OPLS-2005>
236.467239379883

> <r_mmod_Improper_Torsional_Energy-OPLS-2005>
8.19700336456299

> <r_mmod_Van_der_Waal_Energy-OPLS-2005>
140.832717895508

> <r_mmod_Electrostatic_Energy-OPLS-2005>
-589.456481933594

> <r_mmod_Solvation_Energy-OPLS-2005>
-507.727752685547

> <b_mmod_Minimization_Converged-OPLS-2005>
0

> <r_mmod_RMS_Derivative-OPLS-2005>
2.16357564926147

$$$$
20
                    3D
 Structure written by MMmdl.
176185  0  0  1  0            999 V2000
  -30.6703  -14.4898   20.5130 C   0  0  0  0  0  0
  -30.4263  -12.2958   19.4312 C   0  0  0  0  0  0
  -29.4994  -12.4657   18.2085 C   0  0  0  0  0  0
  -28.0173  -12.3450   18.6201 C   0  0  0  0  0  0
  -27.6568  -13.1940   19.8691 C   0  0  2  0  0  0
  -28.7010  -13.0080   20.9953 C   0  0  0  0  0  0
  -25.2598  -13.8120   20.5680 C   0  0  0  0  0  0
  -24.1839  -13.0427   20.9167 C   0  0  0  0  0  0
  -24.6367  -11.6883   20.8735 C   0  0  0  0  0  0
  -23.9036  -10.4284   21.0399 C   0  0  0  0  0  0
  -24.3601   -9.4204   21.9169 C   0  0  0  0  0  0
  -23.6283   -8.2244   22.0754 C   0  0  0  0  0  0
  -22.4264   -8.0281   21.3543 C   0  0  0  0  0  0
  -21.9893   -9.0246   20.4644 C   0  0  0  0  0  0
  -22.7215  -10.2125   20.3041 C   0  0  0  0  0  0
  -21.6852   -6.0730   22.5273 C   0  0  0  0  0  0
  -21.4009   -6.5630   23.8202 C   0  0  0  0  0  0
  -21.3661   -5.6785   24.9162 C   0  0  0  0  0  0
  -21.6050   -4.3047   24.7211 C   0  0  0  0  0  0
  -21.8823   -3.8141   23.4331 C   0  0  0  0  0  0
  -21.9194   -4.6961   22.3389 C   0  0  0  0  0  0
  -22.7871  -13.5245   21.1831 C   0  0  0  0  0  0
  -22.1671   -4.2149   21.0965 F   0  0  0  0  0  0
  -21.5636   -3.4528   25.7725 F   0  0  0  0  0  0
  -30.0267  -13.2966   20.4294 N   0  0  0  0  0  0
  -26.3003  -12.9256   20.3343 N   0  0  0  0  0  0
  -25.9288  -11.6444   20.5779 N   0  0  0  0  0  0
  -22.0505  -12.8237   22.0378 N   0  0  0  0  0  0
  -25.4353  -15.1846   20.4137 N   0  0  0  0  0  0
  -31.8405  -14.6511   20.1566 O   0  0  0  0  0  0
  -21.6638   -6.8868   21.4232 O   0  0  0  0  0  0
  -22.3569  -14.5565   20.6689 O   0  0  0  0  0  0
  -24.6124  -31.8712   23.2154 C   0  0  0  0  0  0
  -25.9043  -32.4839   23.8428 C   0  0  1  0  0  0
  -27.2384  -27.4615   20.1107 C   0  0  0  0  0  0
  -25.5924  -33.8633   24.2371 N   0  0  0  0  0  0
  -23.3985  -30.4949   21.5541 C   0  0  2  0  0  0
  -24.8490  -28.9585   20.1252 C   0  0  0  0  0  0
  -22.7397  -29.4697   22.5032 C   0  0  0  0  0  0
  -18.0265  -28.1387   22.8501 C   0  0  0  0  0  0
  -24.1484  -36.7308   23.2640 C   0  0  0  0  0  0
  -25.9241  -30.8431   21.3681 C   0  0  0  0  0  0
  -26.0037  -29.4745   20.7283 C   0  0  0  0  0  0
  -27.2017  -28.7292   20.7313 C   0  0  0  0  0  0
  -26.0761  -26.9541   19.4993 C   0  0  0  0  0  0
  -24.8749  -27.6912   19.5163 C   0  0  0  0  0  0
  -23.6100  -29.8243   20.1692 C   0  0  0  0  0  0
  -25.4106  -36.3114   24.0341 C   0  0  1  0  0  0
  -20.5857  -28.3685   23.1324 C   0  0  2  0  0  0
  -20.6777  -26.9433   22.5421 C   0  0  0  0  0  0
  -19.5756  -26.6397   21.5221 C   0  0  0  0  0  0
  -18.1920  -26.7932   22.1612 C   0  0  0  0  0  0
  -19.1517  -28.8845   23.2906 C   0  0  0  0  0  0
  -18.9445  -30.1445   23.8935 C   0  0  0  0  0  0
  -17.6452  -30.6606   24.0565 C   0  0  0  0  0  0
  -25.9032  -34.9480   23.5147 C   0  0  0  0  0  0
  -16.5343  -29.9114   23.6326 C   0  0  0  0  0  0
  -16.7250  -28.6513   23.0373 C   0  0  0  0  0  0
  -26.4503  -31.6597   25.0725 C   0  0  0  0  0  0
  -25.3783  -31.3660   26.1471 C   0  0  0  0  0  0
  -27.0346  -30.3043   24.6079 C   0  0  0  0  0  0
  -27.6097  -32.4310   25.7471 C   0  0  0  0  0  0
  -27.5584  -37.1803   24.8469 C   0  0  0  0  0  0
  -21.4138  -29.3043   22.3731 N   0  0  0  0  0  0
  -26.4288  -37.3794   23.9409 N   0  0  0  0  0  0
  -24.6625  -31.0840   22.1040 N   0  0  0  0  0  0
  -23.4185  -28.8247   23.3070 O   0  0  0  0  0  0
  -28.3905  -26.7179   20.0353 O   0  0  0  0  0  0
  -26.5586  -34.8931   22.4708 O   0  0  0  0  0  0
  -23.5323  -32.1468   23.7554 O   0  0  0  0  0  0
  -30.7660  -22.9396   22.2388 C   0  0  0  0  0  0
  -29.0316  -21.1587   21.0983 C   0  0  0  0  0  0
  -31.3048  -21.8181   21.5735 C   0  0  0  0  0  0
  -30.4143  -20.9023   20.9537 C   0  0  0  0  0  0
  -29.3771  -23.1299   22.2605 C   0  0  0  0  0  0
  -29.5217  -16.2375   19.2736 C   0  0  0  0  0  0
  -29.6455  -16.4466   21.6845 C   0  0  0  0  0  0
  -30.3867  -17.4889   19.0852 C   0  0  0  0  0  0
  -30.4447  -17.7807   21.5533 C   0  0  1  0  0  0
  -32.8165  -21.6799   21.4810 C   0  0  0  0  0  0
  -31.9334  -17.5548   21.9071 C   0  0  0  0  0  0
  -29.6083  -20.7747   17.9800 C   0  0  0  0  0  0
  -30.9547  -20.3039   18.5597 C   0  0  0  0  0  0
  -28.0781  -25.1214   21.8673 C   0  0  0  0  0  0
  -28.9323  -26.2614   21.2721 C   0  0  0  0  0  0
  -30.9152  -19.7754   20.0245 C   0  0  2  0  0  0
  -28.5217  -22.2403   21.7244 N   0  0  0  0  0  0
  -29.8301  -15.5538   20.5329 N   0  0  0  0  0  0
  -28.8335  -24.2933   22.8106 N   0  0  0  0  0  0
  -30.2257  -18.4445   20.2185 N   0  3  1  0  0  0
  -31.4723  -12.3979   19.1345 H   0  0  0  0  0  0
  -30.3264  -11.2921   19.8480 H   0  0  0  0  0  0
  -29.7353  -11.7126   17.4550 H   0  0  0  0  0  0
  -29.6794  -13.4280   17.7308 H   0  0  0  0  0  0
  -27.8216  -11.2916   18.8218 H   0  0  0  0  0  0
  -27.3727  -12.6180   17.7829 H   0  0  0  0  0  0
  -27.6806  -14.2328   19.5504 H   0  0  0  0  0  0
  -28.6763  -11.9864   21.3790 H   0  0  0  0  0  0
  -28.4777  -13.6569   21.8448 H   0  0  0  0  0  0
  -25.2750   -9.5697   22.4719 H   0  0  0  0  0  0
  -24.0001   -7.4639   22.7475 H   0  0  0  0  0  0
  -21.0824   -8.8759   19.8943 H   0  0  0  0  0  0
  -22.3674  -10.9661   19.6142 H   0  0  0  0  0  0
  -21.1993   -7.6130   23.9703 H   0  0  0  0  0  0
  -21.1486   -6.0512   25.9069 H   0  0  0  0  0  0
  -22.0599   -2.7605   23.2828 H   0  0  0  0  0  0
  -22.4149  -11.9898   22.4747 H   0  0  0  0  0  0
  -21.1122  -13.1263   22.2595 H   0  0  0  0  0  0
  -24.6702  -15.8405   20.5278 H   0  0  0  0  0  0
  -26.2936  -15.6228   20.1073 H   0  0  0  0  0  0
  -26.7118  -32.5572   23.1205 H   0  0  0  0  0  0
  -25.0117  -33.9800   25.0543 H   0  0  0  0  0  0
  -22.6861  -31.3109   21.4152 H   0  0  0  0  0  0
  -23.3747  -35.9643   23.3319 H   0  0  0  0  0  0
  -24.3587  -36.8900   22.2055 H   0  0  0  0  0  0
  -23.7233  -37.6517   23.6645 H   0  0  0  0  0  0
  -26.0322  -31.6050   20.5944 H   0  0  0  0  0  0
  -26.8134  -30.9032   21.9828 H   0  0  0  0  0  0
  -28.0933  -29.1291   21.1951 H   0  0  0  0  0  0
  -26.0984  -25.9842   19.0217 H   0  0  0  0  0  0
  -23.9853  -27.2856   19.0545 H   0  0  0  0  0  0
  -23.7265  -30.6011   19.4124 H   0  0  0  0  0  0
  -22.7327  -29.2470   19.8700 H   0  0  0  0  0  0
  -25.1278  -36.1993   25.0829 H   0  0  0  0  0  0
  -20.9922  -28.3276   24.1456 H   0  0  0  0  0  0
  -20.5729  -26.2302   23.3612 H   0  0  0  0  0  0
  -21.6650  -26.7535   22.1192 H   0  0  0  0  0  0
  -19.6947  -25.6313   21.1252 H   0  0  0  0  0  0
  -19.6698  -27.3211   20.6757 H   0  0  0  0  0  0
  -17.4211  -26.6693   21.3996 H   0  0  0  0  0  0
  -18.0304  -26.0063   22.8987 H   0  0  0  0  0  0
  -19.7926  -30.7218   24.2362 H   0  0  0  0  0  0
  -17.5026  -31.6298   24.5155 H   0  0  0  0  0  0
  -15.5355  -30.3040   23.7628 H   0  0  0  0  0  0
  -15.8638  -28.0832   22.7124 H   0  0  0  0  0  0
  -24.5981  -30.6983   25.7796 H   0  0  0  0  0  0
  -24.8937  -32.2787   26.4953 H   0  0  0  0  0  0
  -25.8144  -30.8815   27.0215 H   0  0  0  0  0  0
  -26.2867  -29.6744   24.1241 H   0  0  0  0  0  0
  -27.4249  -29.7337   25.4519 H   0  0  0  0  0  0
  -27.8649  -30.4371   23.9134 H   0  0  0  0  0  0
  -27.2762  -33.3632   26.2058 H   0  0  0  0  0  0
  -28.3904  -32.6834   25.0275 H   0  0  0  0  0  0
  -28.0778  -31.8419   26.5374 H   0  0  0  0  0  0
  -28.2608  -38.0099   24.7548 H   0  0  0  0  0  0
  -28.1072  -36.2637   24.6261 H   0  0  0  0  0  0
  -27.2308  -37.1421   25.8872 H   0  0  0  0  0  0
  -20.9324  -29.8712   21.6893 H   0  0  0  0  0  0
  -26.0186  -38.2871   24.1432 H   0  0  0  0  0  0
  -31.4253  -23.6757   22.6787 H   0  0  0  0  0  0
  -28.3011  -20.5094   20.6380 H   0  0  0  0  0  0
  -29.6686  -15.5748   18.4197 H   0  0  0  0  0  0
  -28.4650  -16.5105   19.2571 H   0  0  0  0  0  0
  -28.5807  -16.6728   21.7600 H   0  0  0  0  0  0
  -29.8935  -15.9333   22.6156 H   0  0  0  0  0  0
  -30.0636  -17.9298   18.1437 H   0  0  0  0  0  0
  -31.4363  -17.2194   18.9642 H   0  0  0  0  0  0
  -30.0497  -18.4569   22.3130 H   0  0  0  0  0  0
  -33.3262  -22.4315   22.0851 H   0  0  0  0  0  0
  -33.1496  -21.8051   20.4507 H   0  0  0  0  0  0
  -33.1456  -20.7062   21.8392 H   0  0  0  0  0  0
  -32.4683  -16.9965   21.1410 H   0  0  0  0  0  0
  -32.0266  -16.9994   22.8414 H   0  0  0  0  0  0
  -32.4647  -18.4911   22.0665 H   0  0  0  0  0  0
  -29.6990  -20.9654   16.9118 H   0  0  0  0  0  0
  -29.2812  -21.7078   18.4409 H   0  0  0  0  0  0
  -28.8158  -20.0384   18.1148 H   0  0  0  0  0  0
  -31.6361  -21.1550   18.5243 H   0  0  0  0  0  0
  -31.4214  -19.5841   17.8883 H   0  0  0  0  0  0
  -27.6880  -24.5148   21.0498 H   0  0  0  0  0  0
  -27.2044  -25.5363   22.3696 H   0  0  0  0  0  0
  -29.9318  -25.8872   21.0466 H   0  0  0  0  0  0
  -29.0628  -27.0740   21.9902 H   0  0  0  0  0  0
  -31.9629  -19.5826   20.2403 H   0  0  0  0  0  0
  -29.5044  -24.8365   23.3443 H   0  0  0  0  0  0
  -29.2392  -18.6546   20.1993 H   0  0  0  0  0  0
  1 25  1  0  0  0
  1 30  2  0  0  0
  1 88  1  0  0  0
  2  3  1  0  0  0
  2 25  1  0  0  0
  2 91  1  0  0  0
  2 92  1  0  0  0
  3  4  1  0  0  0
  3 93  1  0  0  0
  3 94  1  0  0  0
  4  5  1  0  0  0
  4 95  1  0  0  0
  4 96  1  0  0  0
  5  6  1  0  0  0
  5 26  1  0  0  0
  5 97  1  0  0  0
  6 25  1  0  0  0
  6 98  1  0  0  0
  6 99  1  0  0  0
  7  8  2  0  0  0
  7 26  1  0  0  0
  7 29  1  0  0  0
  8  9  1  0  0  0
  8 22  1  0  0  0
  9 10  1  0  0  0
  9 27  2  0  0  0
 10 11  2  0  0  0
 10 15  1  0  0  0
 11 12  1  0  0  0
 11100  1  0  0  0
 12 13  2  0  0  0
 12101  1  0  0  0
 13 14  1  0  0  0
 13 31  1  0  0  0
 14 15  2  0  0  0
 14102  1  0  0  0
 15103  1  0  0  0
 16 17  2  0  0  0
 16 21  1  0  0  0
 16 31  1  0  0  0
 17 18  1  0  0  0
 17104  1  0  0  0
 18 19  2  0  0  0
 18105  1  0  0  0
 19 20  1  0  0  0
 19 24  1  0  0  0
 20 21  2  0  0  0
 20106  1  0  0  0
 21 23  1  0  0  0
 22 28  1  0  0  0
 22 32  2  0  0  0
 26 27  1  0  0  0
 28107  1  0  0  0
 28108  1  0  0  0
 29109  1  0  0  0
 29110  1  0  0  0
 33 34  1  0  0  0
 33 66  1  0  0  0
 33 70  2  0  0  0
 34 36  1  0  0  0
 34 59  1  0  0  0
 34111  1  0  0  0
 35 44  2  0  0  0
 35 45  1  0  0  0
 35 68  1  0  0  0
 36 56  1  0  0  0
 36112  1  0  0  0
 37 39  1  0  0  0
 37 47  1  0  0  0
 37 66  1  0  0  0
 37113  1  0  0  0
 38 43  2  0  0  0
 38 46  1  0  0  0
 38 47  1  0  0  0
 39 64  1  0  0  0
 39 67  2  0  0  0
 40 52  1  0  0  0
 40 53  2  0  0  0
 40 58  1  0  0  0
 41114  1  0  0  0
 41115  1  0  0  0
 41116  1  0  0  0
 41 48  1  0  0  0
 42 43  1  0  0  0
 42 66  1  0  0  0
 42117  1  0  0  0
 42118  1  0  0  0
 43 44  1  0  0  0
 44119  1  0  0  0
 45 46  2  0  0  0
 45120  1  0  0  0
 46121  1  0  0  0
 47122  1  0  0  0
 47123  1  0  0  0
 48 56  1  0  0  0
 48 65  1  0  0  0
 48124  1  0  0  0
 49 50  1  0  0  0
 49 53  1  0  0  0
 49 64  1  0  0  0
 49125  1  0  0  0
 50 51  1  0  0  0
 50126  1  0  0  0
 50127  1  0  0  0
 51 52  1  0  0  0
 51128  1  0  0  0
 51129  1  0  0  0
 52130  1  0  0  0
 52131  1  0  0  0
 53 54  1  0  0  0
 54 55  2  0  0  0
 54132  1  0  0  0
 55 57  1  0  0  0
 55133  1  0  0  0
 56 69  2  0  0  0
 57 58  2  0  0  0
 57134  1  0  0  0
 58135  1  0  0  0
 59 60  1  0  0  0
 59 61  1  0  0  0
 59 62  1  0  0  0
 60136  1  0  0  0
 60137  1  0  0  0
 60138  1  0  0  0
 61139  1  0  0  0
 61140  1  0  0  0
 61141  1  0  0  0
 62142  1  0  0  0
 62143  1  0  0  0
 62144  1  0  0  0
 63 65  1  0  0  0
 63145  1  0  0  0
 63146  1  0  0  0
 63147  1  0  0  0
 64148  1  0  0  0
 65149  1  0  0  0
 68 85  1  0  0  0
 71 73  2  0  0  0
 71 75  1  0  0  0
 71150  1  0  0  0
 72 74  2  0  0  0
 72 87  1  0  0  0
 72151  1  0  0  0
 73 74  1  0  0  0
 73 80  1  0  0  0
 74 86  1  0  0  0
 75 87  2  0  0  0
 75 89  1  0  0  0
 76 78  1  0  0  0
 76 88  1  0  0  0
 76152  1  0  0  0
 76153  1  0  0  0
 77 79  1  0  0  0
 77 88  1  0  0  0
 77154  1  0  0  0
 77155  1  0  0  0
 78156  1  0  0  0
 78157  1  0  0  0
 78 90  1  0  0  0
 79 81  1  0  0  0
 79 90  1  0  0  0
 79158  1  0  0  0
 80159  1  0  0  0
 80160  1  0  0  0
 80161  1  0  0  0
 81162  1  0  0  0
 81163  1  0  0  0
 81164  1  0  0  0
 82 83  1  0  0  0
 82165  1  0  0  0
 82166  1  0  0  0
 82167  1  0  0  0
 83168  1  0  0  0
 83169  1  0  0  0
 83 86  1  0  0  0
 84 85  1  0  0  0
 84 89  1  0  0  0
 84170  1  0  0  0
 84171  1  0  0  0
 85172  1  0  0  0
 85173  1  0  0  0
 86 90  1  0  0  0
 86174  1  0  0  0
 89175  1  0  0  0
 90176  1  0  0  0
M  CHG  1  90   1
M  ISO  4   1 100  68 101  85 101  88 100
M  END
> <chiral flag>
0

> <version>
0

> <s_m_source_file>
/data/baiqing/PycharmProjects/Reinvent-master-3.2/result/LINK_invent/BTK/process_docking_weight1_custom_sum_contain_oxygen_bond_distance_aromatic_linkinvent_7_9_3/rearranged_h_0146.sdf

> <i_m_source_file_index>
21

> <r_mmod_Potential_Energy-OPLS-2005>
-60.619010925293

> <r_mmod_Stretch_Energy-OPLS-2005>
41.9475326538086

> <r_mmod_Bend_Energy-OPLS-2005>
110.971656799316

> <r_mmod_Torsional_Energy-OPLS-2005>
437.777954101562

> <r_mmod_Improper_Torsional_Energy-OPLS-2005>
22.1791839599609

> <r_mmod_Van_der_Waal_Energy-OPLS-2005>
158.476821899414

> <r_mmod_Electrostatic_Energy-OPLS-2005>
-414.723937988281

> <r_mmod_Solvation_Energy-OPLS-2005>
-431.762390136719

> <b_mmod_Minimization_Converged-OPLS-2005>
0

> <r_mmod_RMS_Derivative-OPLS-2005>
2.68144464492798

$$$$
21
                    3D
 Structure written by MMmdl.
158167  0  0  1  0            999 V2000
  -30.6808  -14.4911   20.5757 C   0  0  0  0  0  0
  -30.4228  -12.3209   19.4161 C   0  0  0  0  0  0
  -29.4888  -12.5014   18.2014 C   0  0  0  0  0  0
  -28.0116  -12.3552   18.6204 C   0  0  0  0  0  0
  -27.6575  -13.2040   19.8701 C   0  0  2  0  0  0
  -28.6990  -12.9897   20.9899 C   0  0  0  0  0  0
  -25.2580  -13.8140   20.5699 C   0  0  0  0  0  0
  -24.1838  -13.0437   20.9182 C   0  0  0  0  0  0
  -24.6368  -11.6890   20.8728 C   0  0  0  0  0  0
  -23.9034  -10.4285   21.0405 C   0  0  0  0  0  0
  -24.3597   -9.4205   21.9192 C   0  0  0  0  0  0
  -23.6279   -8.2237   22.0752 C   0  0  0  0  0  0
  -22.4266   -8.0272   21.3536 C   0  0  0  0  0  0
  -21.9891   -9.0240   20.4639 C   0  0  0  0  0  0
  -22.7202  -10.2129   20.3052 C   0  0  0  0  0  0
  -21.6856   -6.0734   22.5272 C   0  0  0  0  0  0
  -21.4009   -6.5637   23.8209 C   0  0  0  0  0  0
  -21.3663   -5.6794   24.9179 C   0  0  0  0  0  0
  -21.6043   -4.3054   24.7228 C   0  0  0  0  0  0
  -21.8825   -3.8141   23.4343 C   0  0  0  0  0  0
  -21.9187   -4.6954   22.3399 C   0  0  0  0  0  0
  -22.7851  -13.5221   21.1847 C   0  0  0  0  0  0
  -22.1668   -4.2146   21.0979 F   0  0  0  0  0  0
  -21.5627   -3.4537   25.7739 F   0  0  0  0  0  0
  -30.0225  -13.3090   20.4306 N   0  0  0  0  0  0
  -26.3004  -12.9306   20.3349 N   0  0  0  0  0  0
  -25.9296  -11.6467   20.5770 N   0  0  0  0  0  0
  -22.0504  -12.8219   22.0405 N   0  0  0  0  0  0
  -25.4325  -15.1866   20.4134 N   0  0  0  0  0  0
  -31.8129  -14.6876   20.1265 O   0  0  0  0  0  0
  -21.6634   -6.8870   21.4238 O   0  0  0  0  0  0
  -22.3545  -14.5551   20.6717 O   0  0  0  0  0  0
  -24.6152  -31.8661   23.2060 C   0  0  0  0  0  0
  -25.9052  -32.4797   23.8377 C   0  0  1  0  0  0
  -27.2442  -27.4408   20.0851 C   0  0  0  0  0  0
  -25.5899  -33.8604   24.2338 N   0  0  0  0  0  0
  -23.3992  -30.4905   21.5469 C   0  0  2  0  0  0
  -24.8433  -28.9401   20.1188 C   0  0  0  0  0  0
  -22.7372  -29.4705   22.5000 C   0  0  0  0  0  0
  -18.0270  -28.1382   22.8480 C   0  0  0  0  0  0
  -24.1477  -36.7327   23.2632 C   0  0  0  0  0  0
  -25.9238  -30.8303   21.3545 C   0  0  0  0  0  0
  -26.0004  -29.4632   20.7067 C   0  0  0  0  0  0
  -27.2009  -28.7218   20.6836 C   0  0  0  0  0  0
  -26.0700  -26.9189   19.5033 C   0  0  0  0  0  0
  -24.8714  -27.6647   19.5203 C   0  0  0  0  0  0
  -23.6059  -29.8125   20.1649 C   0  0  0  0  0  0
  -25.4091  -36.3110   24.0349 C   0  0  1  0  0  0
  -20.5853  -28.3684   23.1303 C   0  0  2  0  0  0
  -20.6770  -26.9440   22.5397 C   0  0  0  0  0  0
  -19.5753  -26.6408   21.5182 C   0  0  0  0  0  0
  -18.1928  -26.7933   22.1610 C   0  0  0  0  0  0
  -19.1512  -28.8844   23.2893 C   0  0  0  0  0  0
  -18.9451  -30.1445   23.8926 C   0  0  0  0  0  0
  -17.6456  -30.6589   24.0567 C   0  0  0  0  0  0
  -25.9040  -34.9468   23.5146 C   0  0  0  0  0  0
  -16.5351  -29.9098   23.6306 C   0  0  0  0  0  0
  -16.7267  -28.6502   23.0348 C   0  0  0  0  0  0
  -26.4485  -31.6572   25.0706 C   0  0  0  0  0  0
  -25.3768  -31.3647   26.1466 C   0  0  0  0  0  0
  -27.0308  -30.3011   24.6059 C   0  0  0  0  0  0
  -27.6059  -32.4300   25.7468 C   0  0  0  0  0  0
  -27.5599  -37.1801   24.8468 C   0  0  0  0  0  0
  -21.4104  -29.3045   22.3702 N   0  0  0  0  0  0
  -26.4295  -37.3800   23.9436 N   0  0  0  0  0  0
  -24.6654  -31.0779   22.0944 N   0  0  0  0  0  0
  -23.4151  -28.8285   23.3067 O   0  0  0  0  0  0
  -28.4572  -26.7885   20.0604 O   0  0  0  0  0  0
  -26.5598  -34.8916   22.4703 O   0  0  0  0  0  0
  -23.5346  -32.1446   23.7455 O   0  0  0  0  0  0
  -29.3761  -22.2169   20.0650 C   0  0  0  0  0  0
  -29.6316  -20.8278   20.0812 C   0  0  0  0  0  0
  -27.4541  -20.4627   21.0575 C   0  0  0  0  0  0
  -28.1912  -22.7705   20.6102 C   0  0  0  0  0  0
  -27.1962  -21.8571   21.0564 C   0  0  0  0  0  0
  -28.6897  -19.9252   20.6309 C   0  0  0  0  0  0
  -29.3164  -25.0420   21.1320 C   0  0  0  0  0  0
  -28.0600  -24.2871   20.7964 C   0  0  1  0  0  0
  -28.5790  -25.3734   19.8439 C   0  0  2  0  0  0
  -25.8427  -22.3531   21.5566 C   0  0  0  0  0  0
  -30.4842  -16.8115   21.5446 C   0  0  0  0  0  0
  -30.1918  -17.9895   20.5751 C   0  0  0  0  0  0
  -29.9754  -15.4873   21.1450 N   0  0  0  0  0  0
  -28.8846  -18.5551   20.7773 O   0  0  0  0  0  0
  -31.4659  -12.4317   19.1115 H   0  0  0  0  0  0
  -30.3355  -11.3105   19.8208 H   0  0  0  0  0  0
  -29.7287  -11.7728   17.4253 H   0  0  0  0  0  0
  -29.6477  -13.4856   17.7586 H   0  0  0  0  0  0
  -27.8313  -11.2995   18.8301 H   0  0  0  0  0  0
  -27.3557  -12.6170   17.7892 H   0  0  0  0  0  0
  -27.6990  -14.2507   19.5667 H   0  0  0  0  0  0
  -28.6861  -11.9529   21.3288 H   0  0  0  0  0  0
  -28.4604  -13.5869   21.8705 H   0  0  0  0  0  0
  -25.2740   -9.5696   22.4767 H   0  0  0  0  0  0
  -23.9993   -7.4630   22.7476 H   0  0  0  0  0  0
  -21.0823   -8.8747   19.8943 H   0  0  0  0  0  0
  -22.3651  -10.9670   19.6166 H   0  0  0  0  0  0
  -21.2009   -7.6148   23.9713 H   0  0  0  0  0  0
  -21.1482   -6.0527   25.9086 H   0  0  0  0  0  0
  -22.0598   -2.7600   23.2848 H   0  0  0  0  0  0
  -22.4116  -11.9859   22.4760 H   0  0  0  0  0  0
  -21.1122  -13.1241   22.2639 H   0  0  0  0  0  0
  -24.6696  -15.8447   20.5305 H   0  0  0  0  0  0
  -26.2919  -15.6244   20.1055 H   0  0  0  0  0  0
  -26.7110  -32.5515   23.1132 H   0  0  0  0  0  0
  -25.0025  -33.9744   25.0477 H   0  0  0  0  0  0
  -22.6886  -31.3067   21.4045 H   0  0  0  0  0  0
  -23.3741  -35.9669   23.3291 H   0  0  0  0  0  0
  -24.3572  -36.8951   22.2052 H   0  0  0  0  0  0
  -23.7242  -37.6533   23.6649 H   0  0  0  0  0  0
  -26.0323  -31.5890   20.5801 H   0  0  0  0  0  0
  -26.8124  -30.8891   21.9683 H   0  0  0  0  0  0
  -28.1002  -29.1348   21.1204 H   0  0  0  0  0  0
  -26.0875  -25.9540   19.0154 H   0  0  0  0  0  0
  -23.9814  -27.2500   19.0650 H   0  0  0  0  0  0
  -23.7166  -30.5847   19.4019 H   0  0  0  0  0  0
  -22.7249  -29.2337   19.8766 H   0  0  0  0  0  0
  -25.1255  -36.1967   25.0849 H   0  0  0  0  0  0
  -20.9950  -28.3279   24.1417 H   0  0  0  0  0  0
  -20.5623  -26.2340   23.3592 H   0  0  0  0  0  0
  -21.6653  -26.7458   22.1222 H   0  0  0  0  0  0
  -19.6919  -25.6307   21.1219 H   0  0  0  0  0  0
  -19.6678  -27.3199   20.6686 H   0  0  0  0  0  0
  -17.4202  -26.6662   21.4011 H   0  0  0  0  0  0
  -18.0351  -26.0060   22.8980 H   0  0  0  0  0  0
  -19.7953  -30.7216   24.2341 H   0  0  0  0  0  0
  -17.5047  -31.6264   24.5178 H   0  0  0  0  0  0
  -15.5364  -30.3024   23.7610 H   0  0  0  0  0  0
  -15.8675  -28.0825   22.7070 H   0  0  0  0  0  0
  -24.5962  -30.6960   25.7819 H   0  0  0  0  0  0
  -24.8915  -32.2771   26.4932 H   0  0  0  0  0  0
  -25.8155  -30.8825   27.0210 H   0  0  0  0  0  0
  -26.2820  -29.6743   24.1175 H   0  0  0  0  0  0
  -27.4161  -29.7258   25.4491 H   0  0  0  0  0  0
  -27.8636  -30.4343   23.9147 H   0  0  0  0  0  0
  -27.2690  -33.3594   26.2064 H   0  0  0  0  0  0
  -28.3856  -32.6854   25.0290 H   0  0  0  0  0  0
  -28.0742  -31.8415   26.5367 H   0  0  0  0  0  0
  -28.2580  -38.0123   24.7544 H   0  0  0  0  0  0
  -28.1117  -36.2655   24.6240 H   0  0  0  0  0  0
  -27.2318  -37.1406   25.8865 H   0  0  0  0  0  0
  -20.9288  -29.8797   21.6929 H   0  0  0  0  0  0
  -26.0178  -38.2890   24.1415 H   0  0  0  0  0  0
  -30.1395  -22.8625   19.6548 H   0  0  0  0  0  0
  -30.5752  -20.4903   19.6758 H   0  0  0  0  0  0
  -26.6998  -19.7832   21.4302 H   0  0  0  0  0  0
  -30.2926  -24.5764   21.0233 H   0  0  0  0  0  0
  -29.2415  -25.7170   21.9844 H   0  0  0  0  0  0
  -27.1704  -24.5552   21.3551 H   0  0  0  0  0  0
  -29.0528  -25.1058   18.9022 H   0  0  0  0  0  0
  -25.1768  -21.5349   21.8350 H   0  0  0  0  0  0
  -25.3436  -22.9219   20.7712 H   0  0  0  0  0  0
  -25.9474  -22.9911   22.4341 H   0  0  0  0  0  0
  -30.0801  -17.0558   22.5258 H   0  0  0  0  0  0
  -31.5639  -16.7400   21.6901 H   0  0  0  0  0  0
  -30.3230  -17.6995   19.5309 H   0  0  0  0  0  0
  -30.9641  -18.7275   20.7905 H   0  0  0  0  0  0
  -29.0282  -15.2650   21.4137 H   0  0  0  0  0  0
  1 25  1  0  0  0
  1 30  2  0  0  0
  1 83  1  0  0  0
  2  3  1  0  0  0
  2 25  1  0  0  0
  2 85  1  0  0  0
  2 86  1  0  0  0
  3  4  1  0  0  0
  3 87  1  0  0  0
  3 88  1  0  0  0
  4  5  1  0  0  0
  4 89  1  0  0  0
  4 90  1  0  0  0
  5  6  1  0  0  0
  5 26  1  0  0  0
  5 91  1  0  0  0
  6 25  1  0  0  0
  6 92  1  0  0  0
  6 93  1  0  0  0
  7  8  2  0  0  0
  7 26  1  0  0  0
  7 29  1  0  0  0
  8  9  1  0  0  0
  8 22  1  0  0  0
  9 10  1  0  0  0
  9 27  2  0  0  0
 10 11  2  0  0  0
 10 15  1  0  0  0
 11 12  1  0  0  0
 11 94  1  0  0  0
 12 13  2  0  0  0
 12 95  1  0  0  0
 13 14  1  0  0  0
 13 31  1  0  0  0
 14 15  2  0  0  0
 14 96  1  0  0  0
 15 97  1  0  0  0
 16 17  2  0  0  0
 16 21  1  0  0  0
 16 31  1  0  0  0
 17 18  1  0  0  0
 17 98  1  0  0  0
 18 19  2  0  0  0
 18 99  1  0  0  0
 19 20  1  0  0  0
 19 24  1  0  0  0
 20 21  2  0  0  0
 20100  1  0  0  0
 21 23  1  0  0  0
 22 28  1  0  0  0
 22 32  2  0  0  0
 26 27  1  0  0  0
 28101  1  0  0  0
 28102  1  0  0  0
 29103  1  0  0  0
 29104  1  0  0  0
 33 34  1  0  0  0
 33 66  1  0  0  0
 33 70  2  0  0  0
 34 36  1  0  0  0
 34 59  1  0  0  0
 34105  1  0  0  0
 35 44  2  0  0  0
 35 45  1  0  0  0
 35 68  1  0  0  0
 36 56  1  0  0  0
 36106  1  0  0  0
 37 39  1  0  0  0
 37 47  1  0  0  0
 37 66  1  0  0  0
 37107  1  0  0  0
 38 43  2  0  0  0
 38 46  1  0  0  0
 38 47  1  0  0  0
 39 64  1  0  0  0
 39 67  2  0  0  0
 40 52  1  0  0  0
 40 53  2  0  0  0
 40 58  1  0  0  0
 41108  1  0  0  0
 41109  1  0  0  0
 41110  1  0  0  0
 41 48  1  0  0  0
 42 43  1  0  0  0
 42 66  1  0  0  0
 42111  1  0  0  0
 42112  1  0  0  0
 43 44  1  0  0  0
 44113  1  0  0  0
 45 46  2  0  0  0
 45114  1  0  0  0
 46115  1  0  0  0
 47116  1  0  0  0
 47117  1  0  0  0
 48 56  1  0  0  0
 48 65  1  0  0  0
 48118  1  0  0  0
 49 50  1  0  0  0
 49 53  1  0  0  0
 49 64  1  0  0  0
 49119  1  0  0  0
 50 51  1  0  0  0
 50120  1  0  0  0
 50121  1  0  0  0
 51 52  1  0  0  0
 51122  1  0  0  0
 51123  1  0  0  0
 52124  1  0  0  0
 52125  1  0  0  0
 53 54  1  0  0  0
 54 55  2  0  0  0
 54126  1  0  0  0
 55 57  1  0  0  0
 55127  1  0  0  0
 56 69  2  0  0  0
 57 58  2  0  0  0
 57128  1  0  0  0
 58129  1  0  0  0
 59 60  1  0  0  0
 59 61  1  0  0  0
 59 62  1  0  0  0
 60130  1  0  0  0
 60131  1  0  0  0
 60132  1  0  0  0
 61133  1  0  0  0
 61134  1  0  0  0
 61135  1  0  0  0
 62136  1  0  0  0
 62137  1  0  0  0
 62138  1  0  0  0
 63 65  1  0  0  0
 63139  1  0  0  0
 63140  1  0  0  0
 63141  1  0  0  0
 64142  1  0  0  0
 65143  1  0  0  0
 68 79  1  0  0  0
 71 72  2  0  0  0
 71 74  1  0  0  0
 71144  1  0  0  0
 72 76  1  0  0  0
 72145  1  0  0  0
 73 75  1  0  0  0
 73 76  2  0  0  0
 73146  1  0  0  0
 74 75  2  0  0  0
 74 78  1  0  0  0
 75 80  1  0  0  0
 76 84  1  0  0  0
 77 78  1  0  0  0
 77 79  1  0  0  0
 77147  1  0  0  0
 77148  1  0  0  0
 78 79  1  0  0  0
 78149  1  0  0  0
 79150  1  0  0  0
 80151  1  0  0  0
 80152  1  0  0  0
 80153  1  0  0  0
 81 82  1  0  0  0
 81 83  1  0  0  0
 81154  1  0  0  0
 81155  1  0  0  0
 82 84  1  0  0  0
 82156  1  0  0  0
 82157  1  0  0  0
 83158  1  0  0  0
M  ISO  4   1 100  68 101  79 101  83 100
M  END
> <chiral flag>
0

> <version>
0

> <s_m_source_file>
/data/baiqing/PycharmProjects/Reinvent-master-3.2/result/LINK_invent/BTK/process_docking_weight1_custom_sum_contain_oxygen_bond_distance_aromatic_linkinvent_7_9_3/rearranged_h_0146.sdf

> <i_m_source_file_index>
22

> <r_mmod_Potential_Energy-OPLS-2005>
-45.613166809082

> <r_mmod_Stretch_Energy-OPLS-2005>
42.0155029296875

> <r_mmod_Bend_Energy-OPLS-2005>
147.455093383789

> <r_mmod_Torsional_Energy-OPLS-2005>
226.468872070312

> <r_mmod_Improper_Torsional_Energy-OPLS-2005>
3.04566240310669

> <r_mmod_Van_der_Waal_Energy-OPLS-2005>
156.065353393555

> <r_mmod_Electrostatic_Energy-OPLS-2005>
-428.790252685547

> <r_mmod_Solvation_Energy-OPLS-2005>
-205.910079956055

> <b_mmod_Minimization_Converged-OPLS-2005>
0

> <r_mmod_RMS_Derivative-OPLS-2005>
4.00168943405151

$$$$
22
                    3D
 Structure written by MMmdl.
168177  0  0  1  0            999 V2000
  -30.8601  -14.6900   20.3718 C   0  0  0  0  0  0
  -30.3855  -12.4101   19.4387 C   0  0  0  0  0  0
  -29.4826  -12.4770   18.1893 C   0  0  0  0  0  0
  -28.0143  -12.3416   18.6218 C   0  0  0  0  0  0
  -27.6570  -13.2635   19.8283 C   0  0  2  0  0  0
  -28.7434  -13.2919   20.9383 C   0  0  0  0  0  0
  -25.2600  -13.8184   20.5899 C   0  0  0  0  0  0
  -24.1871  -13.0435   20.9189 C   0  0  0  0  0  0
  -24.6526  -11.6931   20.8708 C   0  0  0  0  0  0
  -23.9153  -10.4302   21.0362 C   0  0  0  0  0  0
  -24.3670   -9.4182   21.9138 C   0  0  0  0  0  0
  -23.6331   -8.2228   22.0722 C   0  0  0  0  0  0
  -22.4329   -8.0270   21.3482 C   0  0  0  0  0  0
  -21.9935   -9.0243   20.4593 C   0  0  0  0  0  0
  -22.7294  -10.2101   20.3004 C   0  0  0  0  0  0
  -21.6849   -6.0704   22.5232 C   0  0  0  0  0  0
  -21.4071   -6.5585   23.8177 C   0  0  0  0  0  0
  -21.3704   -5.6721   24.9115 C   0  0  0  0  0  0
  -21.6007   -4.2970   24.7177 C   0  0  0  0  0  0
  -21.8831   -3.8093   23.4308 C   0  0  0  0  0  0
  -21.9191   -4.6926   22.3373 C   0  0  0  0  0  0
  -22.7872  -13.5227   21.1765 C   0  0  0  0  0  0
  -22.1632   -4.2119   21.0958 F   0  0  0  0  0  0
  -21.5699   -3.4468   25.7700 F   0  0  0  0  0  0
  -30.0477  -13.5641   20.3130 N   0  0  0  0  0  0
  -26.3145  -12.9514   20.3373 N   0  0  0  0  0  0
  -25.9498  -11.6621   20.5745 N   0  0  0  0  0  0
  -22.0453  -12.8314   22.0302 N   0  0  0  0  0  0
  -25.4250  -15.1883   20.4587 N   0  0  0  0  0  0
  -32.0154  -14.5873   19.9578 O   0  0  0  0  0  0
  -21.6628   -6.8912   21.4224 O   0  0  0  0  0  0
  -22.3598  -14.5516   20.6519 O   0  0  0  0  0  0
  -24.6199  -31.8578   23.2146 C   0  0  0  0  0  0
  -25.9036  -32.4783   23.8493 C   0  0  1  0  0  0
  -27.1855  -27.3321   20.1096 C   0  0  0  0  0  0
  -25.5848  -33.8610   24.2354 N   0  0  0  0  0  0
  -23.4176  -30.4850   21.5513 C   0  0  2  0  0  0
  -24.8547  -28.9485   20.1217 C   0  0  0  0  0  0
  -22.7454  -29.4545   22.4908 C   0  0  0  0  0  0
  -18.0239  -28.1380   22.8507 C   0  0  0  0  0  0
  -24.1450  -36.7300   23.2649 C   0  0  0  0  0  0
  -25.9565  -30.8032   21.3868 C   0  0  0  0  0  0
  -26.0293  -29.4363   20.7144 C   0  0  0  0  0  0
  -27.2063  -28.6310   20.7076 C   0  0  0  0  0  0
  -26.0013  -26.8974   19.4879 C   0  0  0  0  0  0
  -24.8368  -27.6856   19.5129 C   0  0  0  0  0  0
  -23.6370  -29.8400   20.1587 C   0  0  0  0  0  0
  -25.4082  -36.3100   24.0334 C   0  0  1  0  0  0
  -20.5846  -28.3601   23.1299 C   0  0  2  0  0  0
  -20.6733  -26.9317   22.5411 C   0  0  0  0  0  0
  -19.5704  -26.6331   21.5223 C   0  0  0  0  0  0
  -18.1885  -26.7912   22.1641 C   0  0  0  0  0  0
  -19.1502  -28.8829   23.2900 C   0  0  0  0  0  0
  -18.9425  -30.1453   23.8896 C   0  0  0  0  0  0
  -17.6435  -30.6582   24.0562 C   0  0  0  0  0  0
  -25.9032  -34.9449   23.5147 C   0  0  0  0  0  0
  -16.5329  -29.9102   23.6349 C   0  0  0  0  0  0
  -16.7239  -28.6512   23.0396 C   0  0  0  0  0  0
  -26.4449  -31.6650   25.0864 C   0  0  0  0  0  0
  -25.3783  -31.3873   26.1687 C   0  0  0  0  0  0
  -27.0322  -30.3072   24.6357 C   0  0  0  0  0  0
  -27.5996  -32.4433   25.7662 C   0  0  0  0  0  0
  -27.5546  -37.1818   24.8443 C   0  0  0  0  0  0
  -21.4158  -29.2972   22.3706 N   0  0  0  0  0  0
  -26.4247  -37.3778   23.9429 N   0  0  0  0  0  0
  -24.6825  -31.0628   22.1112 N   0  0  0  0  0  0
  -23.4203  -28.7975   23.2885 O   0  0  0  0  0  0
  -28.2791  -26.4770   20.0801 O   0  0  0  0  0  0
  -26.5512  -34.8881   22.4679 O   0  0  0  0  0  0
  -23.5339  -32.1271   23.7463 O   0  0  0  0  0  0
  -25.1658  -19.6484   19.5546 C   0  0  0  0  0  0
  -26.2195  -20.5579   19.7920 C   0  0  0  0  0  0
  -26.7913  -17.9079   19.1803 C   0  0  0  0  0  0
  -27.8750  -18.7511   19.5533 C   0  0  0  0  0  0
  -25.4406  -18.3170   19.1965 C   0  0  0  0  0  0
  -27.5862  -20.1737   19.7519 C   0  0  0  0  0  0
  -30.6927  -17.7296   22.5140 C   0  0  0  0  0  0
  -29.2368  -17.3140   22.2314 C   0  0  0  0  0  0
  -31.5133  -16.7905   21.5987 C   0  0  0  0  0  0
  -29.2807  -16.7835   20.7874 C   0  0  1  0  0  0
  -23.0697  -17.7059   18.8901 C   0  0  0  0  0  0
  -29.2575  -18.0139   19.7373 C   0  0  0  0  0  0
  -27.8543  -23.8056   19.8593 C   0  0  0  0  0  0
  -28.1434  -25.1424   20.6953 C   0  0  0  0  0  0
  -28.3120  -22.4549   20.5711 C   0  0  0  0  0  0
  -30.5183  -15.9363   20.8739 N   0  0  0  0  0  0
  -24.4672  -17.3681   18.9255 O   0  0  0  0  0  0
  -28.5643  -21.1798   19.8594 O   0  0  0  0  0  0
  -30.1764  -11.4831   19.9743 H   0  0  0  0  0  0
  -31.4284  -12.3461   19.1298 H   0  0  0  0  0  0
  -29.7261  -11.6670   17.4892 H   0  0  0  0  0  0
  -29.6454  -13.4063   17.6466 H   0  0  0  0  0  0
  -27.8514  -11.2961   18.8749 H   0  0  0  0  0  0
  -27.3584  -12.5506   17.7779 H   0  0  0  0  0  0
  -27.6159  -14.2702   19.4106 H   0  0  0  0  0  0
  -28.7861  -12.3414   21.4747 H   0  0  0  0  0  0
  -28.5078  -14.0526   21.6825 H   0  0  0  0  0  0
  -25.2839   -9.5685   22.4647 H   0  0  0  0  0  0
  -23.9988   -7.4673   22.7504 H   0  0  0  0  0  0
  -21.0844   -8.8841   19.8979 H   0  0  0  0  0  0
  -22.3812  -10.9646   19.6109 H   0  0  0  0  0  0
  -21.2079   -7.6103   23.9698 H   0  0  0  0  0  0
  -21.1529   -6.0425   25.9021 H   0  0  0  0  0  0
  -22.0584   -2.7579   23.2754 H   0  0  0  0  0  0
  -22.4008  -12.0105   22.5020 H   0  0  0  0  0  0
  -21.1062  -13.1393   22.2301 H   0  0  0  0  0  0
  -24.6409  -15.8291   20.4228 H   0  0  0  0  0  0
  -26.2805  -15.6259   20.1416 H   0  0  0  0  0  0
  -26.7096  -32.5394   23.1278 H   0  0  0  0  0  0
  -25.0232  -33.9864   25.0636 H   0  0  0  0  0  0
  -22.7058  -31.3002   21.4131 H   0  0  0  0  0  0
  -23.3711  -35.9631   23.3330 H   0  0  0  0  0  0
  -24.3543  -36.8898   22.2056 H   0  0  0  0  0  0
  -23.7179  -37.6506   23.6656 H   0  0  0  0  0  0
  -26.0830  -31.5959   20.6453 H   0  0  0  0  0  0
  -26.8374  -30.8320   22.0212 H   0  0  0  0  0  0
  -28.1107  -28.9969   21.1742 H   0  0  0  0  0  0
  -25.9777  -25.9411   18.9816 H   0  0  0  0  0  0
  -23.9272  -27.3219   19.0570 H   0  0  0  0  0  0
  -23.7760  -30.6298   19.4137 H   0  0  0  0  0  0
  -22.7597  -29.2804   19.8283 H   0  0  0  0  0  0
  -25.1254  -36.1998   25.0807 H   0  0  0  0  0  0
  -20.9902  -28.3156   24.1440 H   0  0  0  0  0  0
  -20.5590  -26.2219   23.3623 H   0  0  0  0  0  0
  -21.6638  -26.7345   22.1252 H   0  0  0  0  0  0
  -19.6870  -25.6220   21.1312 H   0  0  0  0  0  0
  -19.6719  -27.3136   20.6757 H   0  0  0  0  0  0
  -17.4174  -26.6642   21.4032 H   0  0  0  0  0  0
  -18.0276  -26.0053   22.9026 H   0  0  0  0  0  0
  -19.7929  -30.7239   24.2269 H   0  0  0  0  0  0
  -17.5031  -31.6268   24.5140 H   0  0  0  0  0  0
  -15.5352  -30.3031   23.7684 H   0  0  0  0  0  0
  -15.8621  -28.0837   22.7154 H   0  0  0  0  0  0
  -24.5810  -30.7305   25.8167 H   0  0  0  0  0  0
  -24.9157  -32.3099   26.5193 H   0  0  0  0  0  0
  -25.8167  -30.9044   27.0434 H   0  0  0  0  0  0
  -26.2942  -29.6885   24.1202 H   0  0  0  0  0  0
  -27.3809  -29.7234   25.4894 H   0  0  0  0  0  0
  -27.8894  -30.4385   23.9762 H   0  0  0  0  0  0
  -27.2526  -33.3698   26.2291 H   0  0  0  0  0  0
  -28.3841  -32.7069   25.0555 H   0  0  0  0  0  0
  -28.0651  -31.8563   26.5608 H   0  0  0  0  0  0
  -28.2553  -38.0112   24.7475 H   0  0  0  0  0  0
  -28.1033  -36.2638   24.6296 H   0  0  0  0  0  0
  -27.2268  -37.1530   25.8838 H   0  0  0  0  0  0
  -20.9244  -29.8887   21.7115 H   0  0  0  0  0  0
  -26.0118  -38.2818   24.1525 H   0  0  0  0  0  0
  -24.1485  -20.0010   19.6455 H   0  0  0  0  0  0
  -25.9376  -21.5859   19.9839 H   0  0  0  0  0  0
  -27.0011  -16.8824   18.9030 H   0  0  0  0  0  0
  -30.9547  -17.6407   23.5757 H   0  0  0  0  0  0
  -30.8809  -18.7783   22.2555 H   0  0  0  0  0  0
  -28.5021  -18.1040   22.3915 H   0  0  0  0  0  0
  -28.9828  -16.4890   22.9061 H   0  0  0  0  0  0
  -32.2444  -16.2115   22.1761 H   0  0  0  0  0  0
  -32.1252  -17.3869   20.9032 H   0  0  0  0  0  0
  -28.4545  -16.1181   20.5532 H   0  0  0  0  0  0
  -22.5095  -16.8180   18.5847 H   0  0  0  0  0  0
  -22.8367  -18.4825   18.1610 H   0  0  0  0  0  0
  -22.6403  -17.9947   19.8524 H   0  0  0  0  0  0
  -30.0169  -18.7522   19.9955 H   0  0  0  0  0  0
  -29.5584  -17.6201   18.7627 H   0  0  0  0  0  0
  -28.3455  -23.8738   18.8912 H   0  0  0  0  0  0
  -26.7848  -23.7472   19.6590 H   0  0  0  0  0  0
  -29.1109  -24.9977   21.1732 H   0  0  0  0  0  0
  -27.4410  -25.2094   21.5314 H   0  0  0  0  0  0
  -27.7034  -22.2436   21.4549 H   0  0  0  0  0  0
  -29.2922  -22.7100   20.9708 H   0  0  0  0  0  0
  1 25  1  0  0  0
  1 30  2  0  0  0
  1 86  1  0  0  0
  2  3  1  0  0  0
  2 25  1  0  0  0
  2 89  1  0  0  0
  2 90  1  0  0  0
  3  4  1  0  0  0
  3 91  1  0  0  0
  3 92  1  0  0  0
  4  5  1  0  0  0
  4 93  1  0  0  0
  4 94  1  0  0  0
  5  6  1  0  0  0
  5 26  1  0  0  0
  5 95  1  0  0  0
  6 25  1  0  0  0
  6 96  1  0  0  0
  6 97  1  0  0  0
  7  8  2  0  0  0
  7 26  1  0  0  0
  7 29  1  0  0  0
  8  9  1  0  0  0
  8 22  1  0  0  0
  9 10  1  0  0  0
  9 27  2  0  0  0
 10 11  2  0  0  0
 10 15  1  0  0  0
 11 12  1  0  0  0
 11 98  1  0  0  0
 12 13  2  0  0  0
 12 99  1  0  0  0
 13 14  1  0  0  0
 13 31  1  0  0  0
 14 15  2  0  0  0
 14100  1  0  0  0
 15101  1  0  0  0
 16 17  2  0  0  0
 16 21  1  0  0  0
 16 31  1  0  0  0
 17 18  1  0  0  0
 17102  1  0  0  0
 18 19  2  0  0  0
 18103  1  0  0  0
 19 20  1  0  0  0
 19 24  1  0  0  0
 20 21  2  0  0  0
 20104  1  0  0  0
 21 23  1  0  0  0
 22 28  1  0  0  0
 22 32  2  0  0  0
 26 27  1  0  0  0
 28105  1  0  0  0
 28106  1  0  0  0
 29107  1  0  0  0
 29108  1  0  0  0
 33 34  1  0  0  0
 33 66  1  0  0  0
 33 70  2  0  0  0
 34 36  1  0  0  0
 34 59  1  0  0  0
 34109  1  0  0  0
 35 44  2  0  0  0
 35 45  1  0  0  0
 35 68  1  0  0  0
 36 56  1  0  0  0
 36110  1  0  0  0
 37 39  1  0  0  0
 37 47  1  0  0  0
 37 66  1  0  0  0
 37111  1  0  0  0
 38 43  2  0  0  0
 38 46  1  0  0  0
 38 47  1  0  0  0
 39 64  1  0  0  0
 39 67  2  0  0  0
 40 52  1  0  0  0
 40 53  2  0  0  0
 40 58  1  0  0  0
 41112  1  0  0  0
 41113  1  0  0  0
 41114  1  0  0  0
 41 48  1  0  0  0
 42 43  1  0  0  0
 42 66  1  0  0  0
 42115  1  0  0  0
 42116  1  0  0  0
 43 44  1  0  0  0
 44117  1  0  0  0
 45 46  2  0  0  0
 45118  1  0  0  0
 46119  1  0  0  0
 47120  1  0  0  0
 47121  1  0  0  0
 48 56  1  0  0  0
 48 65  1  0  0  0
 48122  1  0  0  0
 49 50  1  0  0  0
 49 53  1  0  0  0
 49 64  1  0  0  0
 49123  1  0  0  0
 50 51  1  0  0  0
 50124  1  0  0  0
 50125  1  0  0  0
 51 52  1  0  0  0
 51126  1  0  0  0
 51127  1  0  0  0
 52128  1  0  0  0
 52129  1  0  0  0
 53 54  1  0  0  0
 54 55  2  0  0  0
 54130  1  0  0  0
 55 57  1  0  0  0
 55131  1  0  0  0
 56 69  2  0  0  0
 57 58  2  0  0  0
 57132  1  0  0  0
 58133  1  0  0  0
 59 60  1  0  0  0
 59 61  1  0  0  0
 59 62  1  0  0  0
 60134  1  0  0  0
 60135  1  0  0  0
 60136  1  0  0  0
 61137  1  0  0  0
 61138  1  0  0  0
 61139  1  0  0  0
 62140  1  0  0  0
 62141  1  0  0  0
 62142  1  0  0  0
 63 65  1  0  0  0
 63143  1  0  0  0
 63144  1  0  0  0
 63145  1  0  0  0
 64146  1  0  0  0
 65147  1  0  0  0
 68 84  1  0  0  0
 71 72  2  0  0  0
 71 75  1  0  0  0
 71148  1  0  0  0
 72 76  1  0  0  0
 72149  1  0  0  0
 73 74  1  0  0  0
 73 75  2  0  0  0
 73150  1  0  0  0
 74 76  2  0  0  0
 74 82  1  0  0  0
 75 87  1  0  0  0
 76 88  1  0  0  0
 77 78  1  0  0  0
 77 79  1  0  0  0
 77151  1  0  0  0
 77152  1  0  0  0
 78 80  1  0  0  0
 78153  1  0  0  0
 78154  1  0  0  0
 79 86  1  0  0  0
 79155  1  0  0  0
 79156  1  0  0  0
 80 82  1  0  0  0
 80 86  1  0  0  0
 80157  1  0  0  0
 81 87  1  0  0  0
 81158  1  0  0  0
 81159  1  0  0  0
 81160  1  0  0  0
 82161  1  0  0  0
 82162  1  0  0  0
 83 84  1  0  0  0
 83 85  1  0  0  0
 83163  1  0  0  0
 83164  1  0  0  0
 84165  1  0  0  0
 84166  1  0  0  0
 85 88  1  0  0  0
 85167  1  0  0  0
 85168  1  0  0  0
M  ISO  4   1 100  68 101  84 101  86 100
M  END
> <chiral flag>
0

> <version>
0

> <s_m_source_file>
/data/baiqing/PycharmProjects/Reinvent-master-3.2/result/LINK_invent/BTK/process_docking_weight1_custom_sum_contain_oxygen_bond_distance_aromatic_linkinvent_7_9_3/rearranged_h_0146.sdf

> <i_m_source_file_index>
23

> <r_mmod_Potential_Energy-OPLS-2005>
457.861633300781

> <r_mmod_Stretch_Energy-OPLS-2005>
109.969299316406

> <r_mmod_Bend_Energy-OPLS-2005>
264.100372314453

> <r_mmod_Torsional_Energy-OPLS-2005>
375.244934082031

> <r_mmod_Improper_Torsional_Energy-OPLS-2005>
2.18547606468201

> <r_mmod_Van_der_Waal_Energy-OPLS-2005>
125.133766174316

> <r_mmod_Electrostatic_Energy-OPLS-2005>
-305.606079101562

> <r_mmod_Solvation_Energy-OPLS-2005>
-196.422592163086

> <b_mmod_Minimization_Converged-OPLS-2005>
0

> <r_mmod_RMS_Derivative-OPLS-2005>
16.0823001861572

$$$$
23
                    3D
 Structure written by MMmdl.
161170  0  0  1  0            999 V2000
  -30.5486  -14.7260   20.4709 C   0  0  0  0  0  0
  -30.4245  -12.4559   19.4425 C   0  0  0  0  0  0
  -29.4975  -12.5369   18.2111 C   0  0  0  0  0  0
  -28.0143  -12.3864   18.6089 C   0  0  0  0  0  0
  -27.6298  -13.2374   19.8513 C   0  0  2  0  0  0
  -28.6730  -13.1073   20.9810 C   0  0  0  0  0  0
  -25.2409  -13.8187   20.5688 C   0  0  0  0  0  0
  -24.1703  -13.0383   20.9201 C   0  0  0  0  0  0
  -24.6327  -11.6899   20.8656 C   0  0  0  0  0  0
  -23.9013  -10.4283   21.0366 C   0  0  0  0  0  0
  -24.3594   -9.4191   21.9142 C   0  0  0  0  0  0
  -23.6330   -8.2202   22.0713 C   0  0  0  0  0  0
  -22.4268   -8.0246   21.3541 C   0  0  0  0  0  0
  -21.9903   -9.0165   20.4585 C   0  0  0  0  0  0
  -22.7202  -10.2077   20.3024 C   0  0  0  0  0  0
  -21.6847   -6.0703   22.5285 C   0  0  0  0  0  0
  -21.3991   -6.5637   23.8205 C   0  0  0  0  0  0
  -21.3666   -5.6801   24.9177 C   0  0  0  0  0  0
  -21.6015   -4.3050   24.7210 C   0  0  0  0  0  0
  -21.8854   -3.8133   23.4354 C   0  0  0  0  0  0
  -21.9193   -4.6949   22.3406 C   0  0  0  0  0  0
  -22.7745  -13.5088   21.2016 C   0  0  0  0  0  0
  -22.1696   -4.2139   21.0990 F   0  0  0  0  0  0
  -21.5649   -3.4561   25.7746 F   0  0  0  0  0  0
  -29.9717  -13.4827   20.4140 N   0  0  0  0  0  0
  -26.2832  -12.9381   20.3235 N   0  0  0  0  0  0
  -25.9244  -11.6504   20.5603 N   0  0  0  0  0  0
  -22.0529  -12.7905   22.0524 N   0  0  0  0  0  0
  -25.4008  -15.1938   20.4183 N   0  0  0  0  0  0
  -31.7255  -14.8768   20.1200 O   0  0  0  0  0  0
  -21.6644   -6.8844   21.4250 O   0  0  0  0  0  0
  -22.3368  -14.5423   20.7008 O   0  0  0  0  0  0
  -24.6365  -31.8485   23.2009 C   0  0  0  0  0  0
  -25.9185  -32.4680   23.8376 C   0  0  1  0  0  0
  -27.1765  -27.2034   20.1567 C   0  0  0  0  0  0
  -25.5948  -33.8491   24.2264 N   0  0  0  0  0  0
  -23.4316  -30.4715   21.5439 C   0  0  2  0  0  0
  -24.8707  -28.9078   20.1225 C   0  0  0  0  0  0
  -22.7517  -29.4549   22.4925 C   0  0  0  0  0  0
  -18.0287  -28.1373   22.8478 C   0  0  0  0  0  0
  -24.1463  -36.7272   23.2643 C   0  0  0  0  0  0
  -25.9803  -30.7455   21.3837 C   0  0  0  0  0  0
  -26.0459  -29.3575   20.7424 C   0  0  0  0  0  0
  -27.2059  -28.5129   20.7553 C   0  0  0  0  0  0
  -26.0033  -26.8490   19.4798 C   0  0  0  0  0  0
  -24.8516  -27.6581   19.4894 C   0  0  0  0  0  0
  -23.6480  -29.8038   20.1629 C   0  0  0  0  0  0
  -25.4074  -36.3001   24.0310 C   0  0  1  0  0  0
  -20.5897  -28.3675   23.1273 C   0  0  2  0  0  0
  -20.6758  -26.9376   22.5424 C   0  0  0  0  0  0
  -19.5734  -26.6362   21.5213 C   0  0  0  0  0  0
  -18.1913  -26.7913   22.1627 C   0  0  0  0  0  0
  -19.1550  -28.8844   23.2856 C   0  0  0  0  0  0
  -18.9448  -30.1451   23.8845 C   0  0  0  0  0  0
  -17.6452  -30.6582   24.0542 C   0  0  0  0  0  0
  -25.9047  -34.9375   23.5095 C   0  0  0  0  0  0
  -16.5348  -29.9054   23.6355 C   0  0  0  0  0  0
  -16.7271  -28.6491   23.0336 C   0  0  0  0  0  0
  -26.4528  -31.6538   25.0816 C   0  0  0  0  0  0
  -25.3771  -31.3756   26.1566 C   0  0  0  0  0  0
  -27.0385  -30.2919   24.6386 C   0  0  0  0  0  0
  -27.6053  -32.4286   25.7651 C   0  0  0  0  0  0
  -27.5527  -37.1794   24.8435 C   0  0  0  0  0  0
  -21.4212  -29.3005   22.3666 N   0  0  0  0  0  0
  -26.4221  -37.3717   23.9406 N   0  0  0  0  0  0
  -24.7030  -31.0407   22.1000 N   0  0  0  0  0  0
  -23.4195  -28.8090   23.3028 O   0  0  0  0  0  0
  -28.2314  -26.2673   20.0948 O   0  0  0  0  0  0
  -26.5615  -34.8856   22.4656 O   0  0  0  0  0  0
  -23.5512  -32.1308   23.7303 O   0  0  0  0  0  0
  -26.9566  -20.7079   20.7878 C   0  0  0  0  0  0
  -28.7123  -22.3582   20.4222 C   0  0  0  0  0  0
  -26.0581  -21.7841   20.9033 C   0  0  0  0  0  0
  -26.4519  -23.1239   20.7842 C   0  0  0  0  0  0
  -27.8145  -23.5109   20.5912 C   0  0  0  0  0  0
  -28.3236  -20.9510   20.5205 C   0  0  0  0  0  0
  -24.6030  -21.6349   21.2846 C   0  0  0  0  0  0
  -25.2456  -24.0152   21.0084 C   0  0  0  0  0  0
  -24.0531  -23.0721   21.2963 C   0  0  0  0  0  0
  -29.7825  -25.0049   21.3581 C   0  0  0  0  0  0
  -29.9287  -17.2679   20.2380 C   0  0  0  0  0  0
  -28.9894  -18.4546   20.8268 C   0  0  0  0  0  0
  -28.3030  -25.0214   20.9516 C   0  0  1  0  0  0
  -29.7174  -15.8150   20.6636 N   0  0  0  0  0  0
  -29.2457  -19.8659   20.3738 O   0  0  0  0  0  0
  -31.4639  -12.6081   19.1375 H   0  0  0  0  0  0
  -30.3858  -11.4623   19.8850 H   0  0  0  0  0  0
  -29.7620  -11.7854   17.4667 H   0  0  0  0  0  0
  -29.6369  -13.4998   17.7232 H   0  0  0  0  0  0
  -27.8137  -11.3280   18.7912 H   0  0  0  0  0  0
  -27.3822  -12.6664   17.7664 H   0  0  0  0  0  0
  -27.6299  -14.2720   19.5081 H   0  0  0  0  0  0
  -28.7001  -12.0836   21.3533 H   0  0  0  0  0  0
  -28.4110  -13.7344   21.8319 H   0  0  0  0  0  0
  -25.2783   -9.5710   22.4647 H   0  0  0  0  0  0
  -24.0079   -7.4579   22.7382 H   0  0  0  0  0  0
  -21.0861   -8.8573   19.8844 H   0  0  0  0  0  0
  -22.3620  -10.9551   19.6065 H   0  0  0  0  0  0
  -21.1960   -7.6151   23.9695 H   0  0  0  0  0  0
  -21.1481   -6.0552   25.9081 H   0  0  0  0  0  0
  -22.0621   -2.7605   23.2847 H   0  0  0  0  0  0
  -22.4334  -11.9534   22.4698 H   0  0  0  0  0  0
  -21.1139  -13.0694   22.2945 H   0  0  0  0  0  0
  -24.6196  -15.8306   20.5208 H   0  0  0  0  0  0
  -26.2267  -15.6469   20.0515 H   0  0  0  0  0  0
  -26.7264  -32.5287   23.1134 H   0  0  0  0  0  0
  -25.0065  -33.9607   25.0381 H   0  0  0  0  0  0
  -22.7297  -31.2948   21.3960 H   0  0  0  0  0  0
  -23.3670  -35.9665   23.3289 H   0  0  0  0  0  0
  -24.3553  -36.8928   22.2065 H   0  0  0  0  0  0
  -23.7288  -37.6492   23.6696 H   0  0  0  0  0  0
  -26.1026  -31.4920   20.5989 H   0  0  0  0  0  0
  -26.8647  -30.8143   22.0060 H   0  0  0  0  0  0
  -28.1073  -28.8435   21.2492 H   0  0  0  0  0  0
  -25.9782  -25.9137   18.9424 H   0  0  0  0  0  0
  -23.9535  -27.3064   19.0003 H   0  0  0  0  0  0
  -23.7849  -30.5740   19.4038 H   0  0  0  0  0  0
  -22.7665  -29.2392   19.8548 H   0  0  0  0  0  0
  -25.1260  -36.1832   25.0797 H   0  0  0  0  0  0
  -20.9963  -28.3221   24.1393 H   0  0  0  0  0  0
  -20.5658  -26.2251   23.3603 H   0  0  0  0  0  0
  -21.6620  -26.7372   22.1208 H   0  0  0  0  0  0
  -19.6892  -25.6266   21.1220 H   0  0  0  0  0  0
  -19.6690  -27.3189   20.6742 H   0  0  0  0  0  0
  -17.4184  -26.6655   21.4018 H   0  0  0  0  0  0
  -18.0317  -26.0060   22.9037 H   0  0  0  0  0  0
  -19.7911  -30.7292   24.2179 H   0  0  0  0  0  0
  -17.4985  -31.6241   24.5155 H   0  0  0  0  0  0
  -15.5340  -30.2919   23.7702 H   0  0  0  0  0  0
  -15.8671  -28.0798   22.7054 H   0  0  0  0  0  0
  -24.5914  -30.7086   25.7988 H   0  0  0  0  0  0
  -24.9011  -32.2962   26.4954 H   0  0  0  0  0  0
  -25.8130  -30.9013   27.0371 H   0  0  0  0  0  0
  -26.3042  -29.6681   24.1266 H   0  0  0  0  0  0
  -27.3827  -29.7165   25.4999 H   0  0  0  0  0  0
  -27.9008  -30.4110   23.9820 H   0  0  0  0  0  0
  -27.2599  -33.3553   26.2231 H   0  0  0  0  0  0
  -28.3932  -32.6867   25.0579 H   0  0  0  0  0  0
  -28.0635  -31.8406   26.5608 H   0  0  0  0  0  0
  -28.2500  -38.0133   24.7442 H   0  0  0  0  0  0
  -28.1070  -36.2636   24.6275 H   0  0  0  0  0  0
  -27.2255  -37.1462   25.8850 H   0  0  0  0  0  0
  -20.9429  -29.8698   21.6827 H   0  0  0  0  0  0
  -26.0065  -38.2770   24.1450 H   0  0  0  0  0  0
  -26.5648  -19.7115   20.9156 H   0  0  0  0  0  0
  -29.7651  -22.5511   20.2775 H   0  0  0  0  0  0
  -24.5174  -21.1912   22.2767 H   0  0  0  0  0  0
  -24.0528  -20.9995   20.5881 H   0  0  0  0  0  0
  -25.0030  -24.5454   20.0972 H   0  0  0  0  0  0
  -25.4204  -24.7355   21.8061 H   0  0  0  0  0  0
  -23.5580  -23.3178   22.2392 H   0  0  0  0  0  0
  -23.2969  -23.1720   20.5131 H   0  0  0  0  0  0
  -29.9919  -24.2204   22.0868 H   0  0  0  0  0  0
  -30.0731  -25.9524   21.8063 H   0  0  0  0  0  0
  -30.4249  -24.8412   20.4898 H   0  0  0  0  0  0
  -30.9721  -17.5266   20.4161 H   0  0  0  0  0  0
  -29.8059  -17.2699   19.1520 H   0  0  0  0  0  0
  -29.1034  -18.4441   21.9159 H   0  0  0  0  0  0
  -27.9520  -18.1800   20.6340 H   0  0  0  0  0  0
  -27.7453  -25.2516   21.8641 H   0  0  0  0  0  0
  -28.7712  -15.5807   20.9298 H   0  0  0  0  0  0
  1 25  1  0  0  0
  1 30  2  0  0  0
  1 84  1  0  0  0
  2  3  1  0  0  0
  2 25  1  0  0  0
  2 86  1  0  0  0
  2 87  1  0  0  0
  3  4  1  0  0  0
  3 88  1  0  0  0
  3 89  1  0  0  0
  4  5  1  0  0  0
  4 90  1  0  0  0
  4 91  1  0  0  0
  5  6  1  0  0  0
  5 26  1  0  0  0
  5 92  1  0  0  0
  6 25  1  0  0  0
  6 93  1  0  0  0
  6 94  1  0  0  0
  7  8  2  0  0  0
  7 26  1  0  0  0
  7 29  1  0  0  0
  8  9  1  0  0  0
  8 22  1  0  0  0
  9 10  1  0  0  0
  9 27  2  0  0  0
 10 11  2  0  0  0
 10 15  1  0  0  0
 11 12  1  0  0  0
 11 95  1  0  0  0
 12 13  2  0  0  0
 12 96  1  0  0  0
 13 14  1  0  0  0
 13 31  1  0  0  0
 14 15  2  0  0  0
 14 97  1  0  0  0
 15 98  1  0  0  0
 16 17  2  0  0  0
 16 21  1  0  0  0
 16 31  1  0  0  0
 17 18  1  0  0  0
 17 99  1  0  0  0
 18 19  2  0  0  0
 18100  1  0  0  0
 19 20  1  0  0  0
 19 24  1  0  0  0
 20 21  2  0  0  0
 20101  1  0  0  0
 21 23  1  0  0  0
 22 28  1  0  0  0
 22 32  2  0  0  0
 26 27  1  0  0  0
 28102  1  0  0  0
 28103  1  0  0  0
 29104  1  0  0  0
 29105  1  0  0  0
 33 34  1  0  0  0
 33 66  1  0  0  0
 33 70  2  0  0  0
 34 36  1  0  0  0
 34 59  1  0  0  0
 34106  1  0  0  0
 35 44  2  0  0  0
 35 45  1  0  0  0
 35 68  1  0  0  0
 36 56  1  0  0  0
 36107  1  0  0  0
 37 39  1  0  0  0
 37 47  1  0  0  0
 37 66  1  0  0  0
 37108  1  0  0  0
 38 43  2  0  0  0
 38 46  1  0  0  0
 38 47  1  0  0  0
 39 64  1  0  0  0
 39 67  2  0  0  0
 40 52  1  0  0  0
 40 53  2  0  0  0
 40 58  1  0  0  0
 41109  1  0  0  0
 41110  1  0  0  0
 41111  1  0  0  0
 41 48  1  0  0  0
 42 43  1  0  0  0
 42 66  1  0  0  0
 42112  1  0  0  0
 42113  1  0  0  0
 43 44  1  0  0  0
 44114  1  0  0  0
 45 46  2  0  0  0
 45115  1  0  0  0
 46116  1  0  0  0
 47117  1  0  0  0
 47118  1  0  0  0
 48 56  1  0  0  0
 48 65  1  0  0  0
 48119  1  0  0  0
 49 50  1  0  0  0
 49 53  1  0  0  0
 49 64  1  0  0  0
 49120  1  0  0  0
 50 51  1  0  0  0
 50121  1  0  0  0
 50122  1  0  0  0
 51 52  1  0  0  0
 51123  1  0  0  0
 51124  1  0  0  0
 52125  1  0  0  0
 52126  1  0  0  0
 53 54  1  0  0  0
 54 55  2  0  0  0
 54127  1  0  0  0
 55 57  1  0  0  0
 55128  1  0  0  0
 56 69  2  0  0  0
 57 58  2  0  0  0
 57129  1  0  0  0
 58130  1  0  0  0
 59 60  1  0  0  0
 59 61  1  0  0  0
 59 62  1  0  0  0
 60131  1  0  0  0
 60132  1  0  0  0
 60133  1  0  0  0
 61134  1  0  0  0
 61135  1  0  0  0
 61136  1  0  0  0
 62137  1  0  0  0
 62138  1  0  0  0
 62139  1  0  0  0
 63 65  1  0  0  0
 63140  1  0  0  0
 63141  1  0  0  0
 63142  1  0  0  0
 64143  1  0  0  0
 65144  1  0  0  0
 68 83  1  0  0  0
 71 73  2  0  0  0
 71 76  1  0  0  0
 71145  1  0  0  0
 72 75  1  0  0  0
 72 76  2  0  0  0
 72146  1  0  0  0
 73 74  1  0  0  0
 73 77  1  0  0  0
 74 75  2  0  0  0
 74 78  1  0  0  0
 75 83  1  0  0  0
 76 85  1  0  0  0
 77 79  1  0  0  0
 77147  1  0  0  0
 77148  1  0  0  0
 78 79  1  0  0  0
 78149  1  0  0  0
 78150  1  0  0  0
 79151  1  0  0  0
 79152  1  0  0  0
 80153  1  0  0  0
 80154  1  0  0  0
 80155  1  0  0  0
 80 83  1  0  0  0
 81 82  1  0  0  0
 81 84  1  0  0  0
 81156  1  0  0  0
 81157  1  0  0  0
 82 85  1  0  0  0
 82158  1  0  0  0
 82159  1  0  0  0
 83160  1  0  0  0
 84161  1  0  0  0
M  ISO  4   1 100  68 101  83 101  84 100
M  END
> <chiral flag>
0

> <version>
0

> <s_m_source_file>
/data/baiqing/PycharmProjects/Reinvent-master-3.2/result/LINK_invent/BTK/process_docking_weight1_custom_sum_contain_oxygen_bond_distance_aromatic_linkinvent_7_9_3/rearranged_h_0146.sdf

> <i_m_source_file_index>
24

> <r_mmod_Potential_Energy-OPLS-2005>
257.089538574219

> <r_mmod_Stretch_Energy-OPLS-2005>
140.738693237305

> <r_mmod_Bend_Energy-OPLS-2005>
234.90412902832

> <r_mmod_Torsional_Energy-OPLS-2005>
277.792449951172

> <r_mmod_Improper_Torsional_Energy-OPLS-2005>
10.9759750366211

> <r_mmod_Van_der_Waal_Energy-OPLS-2005>
130.223785400391

> <r_mmod_Electrostatic_Energy-OPLS-2005>
-423.468414306641

> <r_mmod_Solvation_Energy-OPLS-2005>
-213.976776123047

> <b_mmod_Minimization_Converged-OPLS-2005>
0

> <r_mmod_RMS_Derivative-OPLS-2005>
7.83472681045532

$$$$
24
                    3D
 Structure written by MMmdl.
168177  0  0  1  0            999 V2000
  -30.7200  -14.5746   20.5762 C   0  0  0  0  0  0
  -30.4167  -12.3779   19.4491 C   0  0  0  0  0  0
  -29.4939  -12.4922   18.2192 C   0  0  0  0  0  0
  -28.0250  -12.2903   18.6352 C   0  0  0  0  0  0
  -27.6414  -13.1788   19.8410 C   0  0  2  0  0  0
  -28.6863  -13.0704   20.9831 C   0  0  0  0  0  0
  -25.2555  -13.8075   20.5630 C   0  0  0  0  0  0
  -24.1804  -13.0400   20.9204 C   0  0  0  0  0  0
  -24.6336  -11.6861   20.8776 C   0  0  0  0  0  0
  -23.9011  -10.4265   21.0447 C   0  0  0  0  0  0
  -24.3582   -9.4180   21.9213 C   0  0  0  0  0  0
  -23.6272   -8.2211   22.0761 C   0  0  0  0  0  0
  -22.4256   -8.0259   21.3547 C   0  0  0  0  0  0
  -21.9884   -9.0230   20.4653 C   0  0  0  0  0  0
  -22.7202  -10.2112   20.3079 C   0  0  0  0  0  0
  -21.6836   -6.0725   22.5285 C   0  0  0  0  0  0
  -21.3994   -6.5633   23.8216 C   0  0  0  0  0  0
  -21.3657   -5.6789   24.9181 C   0  0  0  0  0  0
  -21.6048   -4.3051   24.7229 C   0  0  0  0  0  0
  -21.8819   -3.8140   23.4352 C   0  0  0  0  0  0
  -21.9185   -4.6956   22.3409 C   0  0  0  0  0  0
  -22.7844  -13.5235   21.1874 C   0  0  0  0  0  0
  -22.1657   -4.2144   21.0985 F   0  0  0  0  0  0
  -21.5640   -3.4534   25.7741 F   0  0  0  0  0  0
  -30.0060  -13.4087   20.4304 N   0  0  0  0  0  0
  -26.2911  -12.9170   20.3204 N   0  0  0  0  0  0
  -25.9233  -11.6378   20.5748 N   0  0  0  0  0  0
  -22.0466  -12.8244   22.0426 N   0  0  0  0  0  0
  -25.4298  -15.1785   20.3990 N   0  0  0  0  0  0
  -31.8522  -14.6627   20.0901 O   0  0  0  0  0  0
  -21.6620   -6.8857   21.4243 O   0  0  0  0  0  0
  -22.3548  -14.5553   20.6723 O   0  0  0  0  0  0
  -24.6185  -31.8648   23.2074 C   0  0  0  0  0  0
  -25.9059  -32.4806   23.8385 C   0  0  1  0  0  0
  -27.2337  -27.3920   20.1114 C   0  0  0  0  0  0
  -25.5906  -33.8605   24.2313 N   0  0  0  0  0  0
  -23.4091  -30.4877   21.5488 C   0  0  2  0  0  0
  -24.8562  -28.9506   20.1129 C   0  0  0  0  0  0
  -22.7439  -29.4637   22.4977 C   0  0  0  0  0  0
  -18.0274  -28.1377   22.8495 C   0  0  0  0  0  0
  -24.1483  -36.7300   23.2640 C   0  0  0  0  0  0
  -25.9423  -30.8201   21.3656 C   0  0  0  0  0  0
  -26.0193  -29.4525   20.7099 C   0  0  0  0  0  0
  -27.2112  -28.6841   20.6983 C   0  0  0  0  0  0
  -26.0496  -26.9187   19.4996 C   0  0  0  0  0  0
  -24.8698  -27.6865   19.5000 C   0  0  0  0  0  0
  -23.6195  -29.8208   20.1635 C   0  0  0  0  0  0
  -25.4104  -36.3102   24.0343 C   0  0  1  0  0  0
  -20.5869  -28.3666   23.1314 C   0  0  2  0  0  0
  -20.6762  -26.9399   22.5420 C   0  0  0  0  0  0
  -19.5742  -26.6383   21.5219 C   0  0  0  0  0  0
  -18.1920  -26.7925   22.1626 C   0  0  0  0  0  0
  -19.1524  -28.8839   23.2900 C   0  0  0  0  0  0
  -18.9449  -30.1443   23.8909 C   0  0  0  0  0  0
  -17.6452  -30.6585   24.0562 C   0  0  0  0  0  0
  -25.9039  -34.9468   23.5127 C   0  0  0  0  0  0
  -16.5341  -29.9084   23.6328 C   0  0  0  0  0  0
  -16.7264  -28.6499   23.0353 C   0  0  0  0  0  0
  -26.4478  -31.6595   25.0725 C   0  0  0  0  0  0
  -25.3743  -31.3719   26.1480 C   0  0  0  0  0  0
  -27.0291  -30.3022   24.6119 C   0  0  0  0  0  0
  -27.6066  -32.4309   25.7470 C   0  0  0  0  0  0
  -27.5580  -37.1798   24.8461 C   0  0  0  0  0  0
  -21.4162  -29.3027   22.3718 N   0  0  0  0  0  0
  -26.4286  -37.3791   23.9420 N   0  0  0  0  0  0
  -24.6750  -31.0723   22.0985 N   0  0  0  0  0  0
  -23.4198  -28.8188   23.3035 O   0  0  0  0  0  0
  -28.3898  -26.6224   20.1531 O   0  0  0  0  0  0
  -26.5607  -34.8930   22.4693 O   0  0  0  0  0  0
  -23.5366  -32.1410   23.7448 O   0  0  0  0  0  0
  -29.0725  -20.9840   22.3727 C   0  0  0  0  0  0
  -29.0010  -22.3762   22.1473 C   0  0  0  0  0  0
  -29.4349  -22.9046   20.9029 C   0  0  0  0  0  0
  -29.5662  -20.1221   21.3756 C   0  0  0  0  0  0
  -29.8825  -21.9539   19.9370 C   0  0  0  0  0  0
  -28.8092  -17.6925   20.7836 C   0  0  0  0  0  0
  -31.1172  -18.0155   21.6241 C   0  0  0  0  0  0
  -28.8662  -16.2130   21.2599 C   0  0  0  0  0  0
  -31.1442  -16.5213   22.0742 C   0  0  0  0  0  0
  -29.6911  -18.5988   21.6523 C   0  0  0  0  0  0
  -28.4916  -23.2685   23.2668 C   0  0  0  0  0  0
  -29.1863  -22.2612   17.5143 C   0  0  0  0  0  0
  -29.5089  -24.4477   20.6864 C   0  0  0  0  0  0
  -30.3288  -22.3488   18.5342 C   0  0  0  0  0  0
  -28.2461  -25.1760   20.1354 C   0  0  0  0  0  0
  -29.9382  -20.6123   20.1706 N   0  0  0  0  0  0
  -30.2288  -15.6308   21.3143 N   0  0  0  0  0  0
  -31.4587  -12.4732   19.1405 H   0  0  0  0  0  0
  -30.3388  -11.3845   19.8941 H   0  0  0  0  0  0
  -29.7742  -11.7537   17.4669 H   0  0  0  0  0  0
  -29.6176  -13.4706   17.7512 H   0  0  0  0  0  0
  -27.8892  -11.2385   18.8914 H   0  0  0  0  0  0
  -27.3614  -12.4863   17.7918 H   0  0  0  0  0  0
  -27.6327  -14.1738   19.4099 H   0  0  0  0  0  0
  -28.7048  -12.0546   21.3798 H   0  0  0  0  0  0
  -28.4181  -13.6970   21.8329 H   0  0  0  0  0  0
  -25.2725   -9.5656   22.4793 H   0  0  0  0  0  0
  -23.9986   -7.4589   22.7465 H   0  0  0  0  0  0
  -21.0819   -8.8746   19.8953 H   0  0  0  0  0  0
  -22.3672  -10.9657   19.6188 H   0  0  0  0  0  0
  -21.1973   -7.6140   23.9718 H   0  0  0  0  0  0
  -21.1488   -6.0518   25.9085 H   0  0  0  0  0  0
  -22.0602   -2.7603   23.2850 H   0  0  0  0  0  0
  -22.4048  -11.9887   22.4808 H   0  0  0  0  0  0
  -21.1095  -13.1303   22.2640 H   0  0  0  0  0  0
  -24.6642  -15.8343   20.5095 H   0  0  0  0  0  0
  -26.2762  -15.6127   20.0559 H   0  0  0  0  0  0
  -26.7131  -32.5506   23.1149 H   0  0  0  0  0  0
  -25.0060  -33.9756   25.0463 H   0  0  0  0  0  0
  -22.6998  -31.3062   21.4090 H   0  0  0  0  0  0
  -23.3754  -35.9622   23.3296 H   0  0  0  0  0  0
  -24.3576  -36.8917   22.2055 H   0  0  0  0  0  0
  -23.7225  -37.6501   23.6652 H   0  0  0  0  0  0
  -26.0622  -31.5864   20.5986 H   0  0  0  0  0  0
  -26.8272  -30.8700   21.9885 H   0  0  0  0  0  0
  -28.1075  -29.0682   21.1653 H   0  0  0  0  0  0
  -26.0192  -25.9517   19.0192 H   0  0  0  0  0  0
  -23.9776  -27.2965   19.0297 H   0  0  0  0  0  0
  -23.7298  -30.5962   19.4045 H   0  0  0  0  0  0
  -22.7429  -29.2421   19.8667 H   0  0  0  0  0  0
  -25.1281  -36.1960   25.0836 H   0  0  0  0  0  0
  -20.9962  -28.3221   24.1434 H   0  0  0  0  0  0
  -20.5666  -26.2273   23.3607 H   0  0  0  0  0  0
  -21.6628  -26.7436   22.1208 H   0  0  0  0  0  0
  -19.6902  -25.6300   21.1234 H   0  0  0  0  0  0
  -19.6686  -27.3202   20.6757 H   0  0  0  0  0  0
  -17.4198  -26.6687   21.4017 H   0  0  0  0  0  0
  -18.0307  -26.0058   22.9008 H   0  0  0  0  0  0
  -19.7923  -30.7253   24.2285 H   0  0  0  0  0  0
  -17.5006  -31.6263   24.5160 H   0  0  0  0  0  0
  -15.5342  -30.2988   23.7648 H   0  0  0  0  0  0
  -15.8663  -28.0824   22.7064 H   0  0  0  0  0  0
  -24.5878  -30.7116   25.7813 H   0  0  0  0  0  0
  -24.8987  -32.2887   26.4975 H   0  0  0  0  0  0
  -25.8086  -30.8837   27.0214 H   0  0  0  0  0  0
  -26.2822  -29.6790   24.1187 H   0  0  0  0  0  0
  -27.4055  -29.7262   25.4582 H   0  0  0  0  0  0
  -27.8671  -30.4319   23.9267 H   0  0  0  0  0  0
  -27.2705  -33.3619   26.2050 H   0  0  0  0  0  0
  -28.3865  -32.6851   25.0278 H   0  0  0  0  0  0
  -28.0745  -31.8430   26.5378 H   0  0  0  0  0  0
  -28.2594  -38.0100   24.7523 H   0  0  0  0  0  0
  -28.1080  -36.2635   24.6258 H   0  0  0  0  0  0
  -27.2310  -37.1411   25.8868 H   0  0  0  0  0  0
  -20.9336  -29.8746   21.6930 H   0  0  0  0  0  0
  -26.0174  -38.2866   24.1435 H   0  0  0  0  0  0
  -28.7647  -20.5760   23.3264 H   0  0  0  0  0  0
  -27.7778  -18.0451   20.8247 H   0  0  0  0  0  0
  -29.1159  -17.7681   19.7391 H   0  0  0  0  0  0
  -31.5368  -18.1142   20.6224 H   0  0  0  0  0  0
  -31.7580  -18.6024   22.2831 H   0  0  0  0  0  0
  -28.2240  -15.6697   20.5926 H   0  0  0  0  0  0
  -28.4156  -16.1256   22.2499 H   0  0  0  0  0  0
  -30.8555  -16.4604   23.1241 H   0  0  0  0  0  0
  -32.1743  -16.1611   22.0466 H   0  0  0  0  0  0
  -29.3356  -18.4685   22.6754 H   0  0  0  0  0  0
  -28.0404  -22.6814   24.0674 H   0  0  0  0  0  0
  -27.7325  -23.9609   22.9044 H   0  0  0  0  0  0
  -29.3092  -23.8438   23.7012 H   0  0  0  0  0  0
  -29.5305  -22.5410   16.5188 H   0  0  0  0  0  0
  -28.3664  -22.9261   17.7835 H   0  0  0  0  0  0
  -28.7892  -21.2476   17.4596 H   0  0  0  0  0  0
  -30.3639  -24.7017   20.0638 H   0  0  0  0  0  0
  -29.7606  -24.9067   21.6418 H   0  0  0  0  0  0
  -31.1338  -21.6813   18.2228 H   0  0  0  0  0  0
  -30.7713  -23.3410   18.5116 H   0  0  0  0  0  0
  -27.3876  -24.8878   20.7431 H   0  0  0  0  0  0
  -28.0461  -24.8442   19.1167 H   0  0  0  0  0  0
  1 25  1  0  0  0
  1 30  2  0  0  0
  1 87  1  0  0  0
  2  3  1  0  0  0
  2 25  1  0  0  0
  2 88  1  0  0  0
  2 89  1  0  0  0
  3  4  1  0  0  0
  3 90  1  0  0  0
  3 91  1  0  0  0
  4  5  1  0  0  0
  4 92  1  0  0  0
  4 93  1  0  0  0
  5  6  1  0  0  0
  5 26  1  0  0  0
  5 94  1  0  0  0
  6 25  1  0  0  0
  6 95  1  0  0  0
  6 96  1  0  0  0
  7  8  2  0  0  0
  7 26  1  0  0  0
  7 29  1  0  0  0
  8  9  1  0  0  0
  8 22  1  0  0  0
  9 10  1  0  0  0
  9 27  2  0  0  0
 10 11  2  0  0  0
 10 15  1  0  0  0
 11 12  1  0  0  0
 11 97  1  0  0  0
 12 13  2  0  0  0
 12 98  1  0  0  0
 13 14  1  0  0  0
 13 31  1  0  0  0
 14 15  2  0  0  0
 14 99  1  0  0  0
 15100  1  0  0  0
 16 17  2  0  0  0
 16 21  1  0  0  0
 16 31  1  0  0  0
 17 18  1  0  0  0
 17101  1  0  0  0
 18 19  2  0  0  0
 18102  1  0  0  0
 19 20  1  0  0  0
 19 24  1  0  0  0
 20 21  2  0  0  0
 20103  1  0  0  0
 21 23  1  0  0  0
 22 28  1  0  0  0
 22 32  2  0  0  0
 26 27  1  0  0  0
 28104  1  0  0  0
 28105  1  0  0  0
 29106  1  0  0  0
 29107  1  0  0  0
 33 34  1  0  0  0
 33 66  1  0  0  0
 33 70  2  0  0  0
 34 36  1  0  0  0
 34 59  1  0  0  0
 34108  1  0  0  0
 35 44  2  0  0  0
 35 45  1  0  0  0
 35 68  1  0  0  0
 36 56  1  0  0  0
 36109  1  0  0  0
 37 39  1  0  0  0
 37 47  1  0  0  0
 37 66  1  0  0  0
 37110  1  0  0  0
 38 43  2  0  0  0
 38 46  1  0  0  0
 38 47  1  0  0  0
 39 64  1  0  0  0
 39 67  2  0  0  0
 40 52  1  0  0  0
 40 53  2  0  0  0
 40 58  1  0  0  0
 41111  1  0  0  0
 41112  1  0  0  0
 41113  1  0  0  0
 41 48  1  0  0  0
 42 43  1  0  0  0
 42 66  1  0  0  0
 42114  1  0  0  0
 42115  1  0  0  0
 43 44  1  0  0  0
 44116  1  0  0  0
 45 46  2  0  0  0
 45117  1  0  0  0
 46118  1  0  0  0
 47119  1  0  0  0
 47120  1  0  0  0
 48 56  1  0  0  0
 48 65  1  0  0  0
 48121  1  0  0  0
 49 50  1  0  0  0
 49 53  1  0  0  0
 49 64  1  0  0  0
 49122  1  0  0  0
 50 51  1  0  0  0
 50123  1  0  0  0
 50124  1  0  0  0
 51 52  1  0  0  0
 51125  1  0  0  0
 51126  1  0  0  0
 52127  1  0  0  0
 52128  1  0  0  0
 53 54  1  0  0  0
 54 55  2  0  0  0
 54129  1  0  0  0
 55 57  1  0  0  0
 55130  1  0  0  0
 56 69  2  0  0  0
 57 58  2  0  0  0
 57131  1  0  0  0
 58132  1  0  0  0
 59 60  1  0  0  0
 59 61  1  0  0  0
 59 62  1  0  0  0
 60133  1  0  0  0
 60134  1  0  0  0
 60135  1  0  0  0
 61136  1  0  0  0
 61137  1  0  0  0
 61138  1  0  0  0
 62139  1  0  0  0
 62140  1  0  0  0
 62141  1  0  0  0
 63 65  1  0  0  0
 63142  1  0  0  0
 63143  1  0  0  0
 63144  1  0  0  0
 64145  1  0  0  0
 65146  1  0  0  0
 68 85  1  0  0  0
 71 72  2  0  0  0
 71 74  1  0  0  0
 71147  1  0  0  0
 72 73  1  0  0  0
 72 81  1  0  0  0
 73 75  2  0  0  0
 73 83  1  0  0  0
 74 86  2  0  0  0
 74 80  1  0  0  0
 75 84  1  0  0  0
 75 86  1  0  0  0
 76 78  1  0  0  0
 76 80  1  0  0  0
 76148  1  0  0  0
 76149  1  0  0  0
 77 79  1  0  0  0
 77 80  1  0  0  0
 77150  1  0  0  0
 77151  1  0  0  0
 78 87  1  0  0  0
 78152  1  0  0  0
 78153  1  0  0  0
 79 87  1  0  0  0
 79154  1  0  0  0
 79155  1  0  0  0
 80156  1  0  0  0
 81157  1  0  0  0
 81158  1  0  0  0
 81159  1  0  0  0
 82 84  1  0  0  0
 82160  1  0  0  0
 82161  1  0  0  0
 82162  1  0  0  0
 83 85  1  0  0  0
 83163  1  0  0  0
 83164  1  0  0  0
 84165  1  0  0  0
 84166  1  0  0  0
 85167  1  0  0  0
 85168  1  0  0  0
M  ISO  4   1 100  68 101  85 101  87 100
M  END
> <chiral flag>
0

> <version>
0

> <s_m_source_file>
/data/baiqing/PycharmProjects/Reinvent-master-3.2/result/LINK_invent/BTK/process_docking_weight1_custom_sum_contain_oxygen_bond_distance_aromatic_linkinvent_7_9_3/rearranged_h_0146.sdf

> <i_m_source_file_index>
25

> <r_mmod_Potential_Energy-OPLS-2005>
2.81210589408875

> <r_mmod_Stretch_Energy-OPLS-2005>
57.4929733276367

> <r_mmod_Bend_Energy-OPLS-2005>
132.358505249023

> <r_mmod_Torsional_Energy-OPLS-2005>
281.152770996094

> <r_mmod_Improper_Torsional_Energy-OPLS-2005>
2.62310719490051

> <r_mmod_Van_der_Waal_Energy-OPLS-2005>
162.243774414062

> <r_mmod_Electrostatic_Energy-OPLS-2005>
-453.895660400391

> <r_mmod_Solvation_Energy-OPLS-2005>
-207.587646484375

> <b_mmod_Minimization_Converged-OPLS-2005>
0

> <r_mmod_RMS_Derivative-OPLS-2005>
0.850627720355988

$$$$
25
                    3D
 Structure written by MMmdl.
160169  0  0  1  0            999 V2000
  -30.7317  -14.5430   20.4516 C   0  0  0  0  0  0
  -30.4174  -12.3211   19.4568 C   0  0  0  0  0  0
  -29.5016  -12.4706   18.2252 C   0  0  0  0  0  0
  -28.0230  -12.3439   18.6352 C   0  0  0  0  0  0
  -27.6554  -13.2241   19.8616 C   0  0  2  0  0  0
  -28.7072  -13.1095   20.9910 C   0  0  0  0  0  0
  -25.2555  -13.8176   20.5692 C   0  0  0  0  0  0
  -24.1855  -13.0443   20.9207 C   0  0  0  0  0  0
  -24.6434  -11.6919   20.8764 C   0  0  0  0  0  0
  -23.9101  -10.4302   21.0402 C   0  0  0  0  0  0
  -24.3643   -9.4198   21.9175 C   0  0  0  0  0  0
  -23.6315   -8.2237   22.0740 C   0  0  0  0  0  0
  -22.4281   -8.0292   21.3534 C   0  0  0  0  0  0
  -21.9938   -9.0265   20.4626 C   0  0  0  0  0  0
  -22.7279  -10.2142   20.3044 C   0  0  0  0  0  0
  -21.6867   -6.0732   22.5262 C   0  0  0  0  0  0
  -21.4037   -6.5629   23.8205 C   0  0  0  0  0  0
  -21.3660   -5.6776   24.9153 C   0  0  0  0  0  0
  -21.6056   -4.3041   24.7209 C   0  0  0  0  0  0
  -21.8836   -3.8144   23.4332 C   0  0  0  0  0  0
  -21.9202   -4.6964   22.3385 C   0  0  0  0  0  0
  -22.7859  -13.5205   21.1869 C   0  0  0  0  0  0
  -22.1681   -4.2146   21.0966 F   0  0  0  0  0  0
  -21.5619   -3.4536   25.7734 F   0  0  0  0  0  0
  -30.0337  -13.3716   20.4141 N   0  0  0  0  0  0
  -26.3032  -12.9397   20.3381 N   0  0  0  0  0  0
  -25.9377  -11.6546   20.5849 N   0  0  0  0  0  0
  -22.0503  -12.8215   22.0430 N   0  0  0  0  0  0
  -25.4252  -15.1896   20.3991 N   0  0  0  0  0  0
  -31.9177  -14.6059   20.1368 O   0  0  0  0  0  0
  -21.6642   -6.8887   21.4233 O   0  0  0  0  0  0
  -22.3564  -14.5513   20.6694 O   0  0  0  0  0  0
  -24.6273  -31.8642   23.2081 C   0  0  0  0  0  0
  -25.9131  -32.4793   23.8396 C   0  0  1  0  0  0
  -27.1737  -27.3135   20.0963 C   0  0  0  0  0  0
  -25.5944  -33.8593   24.2336 N   0  0  0  0  0  0
  -23.4160  -30.5004   21.5497 C   0  0  2  0  0  0
  -24.8492  -28.9721   20.1021 C   0  0  0  0  0  0
  -22.7468  -29.4671   22.4892 C   0  0  0  0  0  0
  -18.0299  -28.1385   22.8454 C   0  0  0  0  0  0
  -24.1495  -36.7310   23.2638 C   0  0  0  0  0  0
  -25.9619  -30.7980   21.3742 C   0  0  0  0  0  0
  -26.0265  -29.4291   20.7099 C   0  0  0  0  0  0
  -27.1960  -28.6093   20.7029 C   0  0  0  0  0  0
  -25.9816  -26.9410   19.4287 C   0  0  0  0  0  0
  -24.8303  -27.7378   19.4494 C   0  0  0  0  0  0
  -23.6229  -29.8548   20.1585 C   0  0  0  0  0  0
  -25.4117  -36.3093   24.0330 C   0  0  1  0  0  0
  -20.5897  -28.3689   23.1250 C   0  0  2  0  0  0
  -20.6776  -26.9407   22.5391 C   0  0  0  0  0  0
  -19.5758  -26.6382   21.5184 C   0  0  0  0  0  0
  -18.1939  -26.7924   22.1598 C   0  0  0  0  0  0
  -19.1551  -28.8847   23.2858 C   0  0  0  0  0  0
  -18.9474  -30.1447   23.8878 C   0  0  0  0  0  0
  -17.6481  -30.6569   24.0558 C   0  0  0  0  0  0
  -25.9052  -34.9448   23.5135 C   0  0  0  0  0  0
  -16.5365  -29.9067   23.6325 C   0  0  0  0  0  0
  -16.7288  -28.6496   23.0314 C   0  0  0  0  0  0
  -26.4514  -31.6566   25.0742 C   0  0  0  0  0  0
  -25.3755  -31.3680   26.1468 C   0  0  0  0  0  0
  -27.0346  -30.2988   24.6193 C   0  0  0  0  0  0
  -27.6088  -32.4276   25.7499 C   0  0  0  0  0  0
  -27.5574  -37.1813   24.8463 C   0  0  0  0  0  0
  -21.4170  -29.3072   22.3648 N   0  0  0  0  0  0
  -26.4299  -37.3781   23.9393 N   0  0  0  0  0  0
  -24.6885  -31.0707   22.0996 N   0  0  0  0  0  0
  -23.4204  -28.8174   23.2929 O   0  0  0  0  0  0
  -28.2352  -26.3969   20.1792 O   0  0  0  0  0  0
  -26.5625  -34.8890   22.4705 O   0  0  0  0  0  0
  -23.5445  -32.1407   23.7460 O   0  0  0  0  0  0
  -26.9713  -19.5229   21.3115 C   0  0  0  0  0  0
  -28.0828  -18.6842   21.2204 C   0  0  0  0  0  0
  -27.0681  -20.8591   20.8750 C   0  0  0  0  0  0
  -29.2681  -19.1840   20.6720 C   0  0  0  0  0  0
  -28.2946  -21.3077   20.3229 C   0  0  0  0  0  0
  -25.7080  -22.8949   21.9089 C   0  0  0  0  0  0
  -25.0638  -21.5931   22.2955 C   0  0  0  0  0  0
  -25.8353  -21.6948   20.9958 C   0  0  0  0  0  0
  -30.4914  -18.2542   20.6542 C   0  0  0  0  0  0
  -30.3766  -16.9491   19.8020 C   0  0  0  0  0  0
  -27.8719  -24.9737   19.9494 C   0  0  0  0  0  0
  -28.7372  -23.7503   20.4426 C   0  0  0  0  0  0
  -29.3689  -20.4694   20.2067 N   0  0  0  0  0  0
  -30.0019  -15.6828   20.5089 N   0  0  0  0  0  0
  -28.3999  -22.5470   19.6936 O   0  0  0  0  0  0
  -31.4628  -12.3917   19.1520 H   0  0  0  0  0  0
  -30.3066  -11.3371   19.9151 H   0  0  0  0  0  0
  -29.7538  -11.7157   17.4807 H   0  0  0  0  0  0
  -29.6722  -13.4363   17.7487 H   0  0  0  0  0  0
  -27.8376  -11.2951   18.8721 H   0  0  0  0  0  0
  -27.3761  -12.5820   17.7891 H   0  0  0  0  0  0
  -27.6653  -14.2547   19.5117 H   0  0  0  0  0  0
  -28.6878  -12.1130   21.4358 H   0  0  0  0  0  0
  -28.4866  -13.8103   21.7972 H   0  0  0  0  0  0
  -25.2772   -9.5673   22.4763 H   0  0  0  0  0  0
  -24.0016   -7.4610   22.7459 H   0  0  0  0  0  0
  -21.0881   -8.8788   19.8909 H   0  0  0  0  0  0
  -22.3747  -10.9682   19.6170 H   0  0  0  0  0  0
  -21.2052   -7.6142   23.9730 H   0  0  0  0  0  0
  -21.1461   -6.0480   25.9055 H   0  0  0  0  0  0
  -22.0622   -2.7613   23.2810 H   0  0  0  0  0  0
  -22.4082  -11.9830   22.4768 H   0  0  0  0  0  0
  -21.1099  -13.1201   22.2573 H   0  0  0  0  0  0
  -24.6562  -15.8440   20.4855 H   0  0  0  0  0  0
  -26.2636  -15.6148   20.0251 H   0  0  0  0  0  0
  -26.7180  -32.5452   23.1123 H   0  0  0  0  0  0
  -25.0073  -33.9768   25.0463 H   0  0  0  0  0  0
  -22.7096  -31.3219   21.4188 H   0  0  0  0  0  0
  -23.3738  -35.9659   23.3324 H   0  0  0  0  0  0
  -24.3593  -36.8915   22.2050 H   0  0  0  0  0  0
  -23.7249  -37.6520   23.6643 H   0  0  0  0  0  0
  -26.0987  -31.5668   20.6125 H   0  0  0  0  0  0
  -26.8432  -30.8406   22.0031 H   0  0  0  0  0  0
  -28.0951  -28.9527   21.1979 H   0  0  0  0  0  0
  -25.8847  -26.0108   18.8894 H   0  0  0  0  0  0
  -23.9321  -27.4026   18.9488 H   0  0  0  0  0  0
  -23.7304  -30.6388   19.4074 H   0  0  0  0  0  0
  -22.7398  -29.2853   19.8608 H   0  0  0  0  0  0
  -25.1281  -36.1975   25.0820 H   0  0  0  0  0  0
  -21.0012  -28.3281   24.1359 H   0  0  0  0  0  0
  -20.5641  -26.2313   23.3603 H   0  0  0  0  0  0
  -21.6644  -26.7407   22.1209 H   0  0  0  0  0  0
  -19.6919  -25.6293   21.1205 H   0  0  0  0  0  0
  -19.6689  -27.3192   20.6717 H   0  0  0  0  0  0
  -17.4204  -26.6654   21.4008 H   0  0  0  0  0  0
  -18.0352  -26.0076   22.9016 H   0  0  0  0  0  0
  -19.7964  -30.7263   24.2220 H   0  0  0  0  0  0
  -17.5037  -31.6234   24.5184 H   0  0  0  0  0  0
  -15.5360  -30.2958   23.7659 H   0  0  0  0  0  0
  -15.8697  -28.0821   22.7004 H   0  0  0  0  0  0
  -24.5987  -30.6962   25.7815 H   0  0  0  0  0  0
  -24.8879  -32.2816   26.4872 H   0  0  0  0  0  0
  -25.8107  -30.8899   27.0255 H   0  0  0  0  0  0
  -26.2918  -29.6731   24.1248 H   0  0  0  0  0  0
  -27.4059  -29.7257   25.4698 H   0  0  0  0  0  0
  -27.8768  -30.4265   23.9394 H   0  0  0  0  0  0
  -27.2749  -33.3607   26.2056 H   0  0  0  0  0  0
  -28.3914  -32.6794   25.0324 H   0  0  0  0  0  0
  -28.0729  -31.8396   26.5434 H   0  0  0  0  0  0
  -28.2607  -38.0099   24.7507 H   0  0  0  0  0  0
  -28.1057  -36.2632   24.6295 H   0  0  0  0  0  0
  -27.2303  -37.1486   25.8873 H   0  0  0  0  0  0
  -20.9332  -29.8847   21.6917 H   0  0  0  0  0  0
  -26.0185  -38.2858   24.1387 H   0  0  0  0  0  0
  -26.0496  -19.1333   21.7215 H   0  0  0  0  0  0
  -28.0248  -17.6695   21.5864 H   0  0  0  0  0  0
  -26.5832  -23.2014   22.4767 H   0  0  0  0  0  0
  -25.0192  -23.6932   21.6376 H   0  0  0  0  0  0
  -23.9814  -21.5174   22.2377 H   0  0  0  0  0  0
  -25.5217  -21.0577   23.1274 H   0  0  0  0  0  0
  -25.2529  -21.6579   20.0764 H   0  0  0  0  0  0
  -30.7506  -17.9952   21.6811 H   0  0  0  0  0  0
  -31.3379  -18.8354   20.2850 H   0  0  0  0  0  0
  -31.3512  -16.8167   19.3267 H   0  0  0  0  0  0
  -29.7004  -17.1102   18.9599 H   0  0  0  0  0  0
  -26.8816  -24.7760   20.3642 H   0  0  0  0  0  0
  -27.7867  -24.8549   18.8685 H   0  0  0  0  0  0
  -28.6258  -23.5991   21.5175 H   0  0  0  0  0  0
  -29.7920  -23.9457   20.2616 H   0  0  0  0  0  0
  -29.0350  -15.5791   20.7757 H   0  0  0  0  0  0
  1 25  1  0  0  0
  1 30  2  0  0  0
  1 84  1  0  0  0
  2  3  1  0  0  0
  2 25  1  0  0  0
  2 86  1  0  0  0
  2 87  1  0  0  0
  3  4  1  0  0  0
  3 88  1  0  0  0
  3 89  1  0  0  0
  4  5  1  0  0  0
  4 90  1  0  0  0
  4 91  1  0  0  0
  5  6  1  0  0  0
  5 26  1  0  0  0
  5 92  1  0  0  0
  6 25  1  0  0  0
  6 93  1  0  0  0
  6 94  1  0  0  0
  7  8  2  0  0  0
  7 26  1  0  0  0
  7 29  1  0  0  0
  8  9  1  0  0  0
  8 22  1  0  0  0
  9 10  1  0  0  0
  9 27  2  0  0  0
 10 11  2  0  0  0
 10 15  1  0  0  0
 11 12  1  0  0  0
 11 95  1  0  0  0
 12 13  2  0  0  0
 12 96  1  0  0  0
 13 14  1  0  0  0
 13 31  1  0  0  0
 14 15  2  0  0  0
 14 97  1  0  0  0
 15 98  1  0  0  0
 16 17  2  0  0  0
 16 21  1  0  0  0
 16 31  1  0  0  0
 17 18  1  0  0  0
 17 99  1  0  0  0
 18 19  2  0  0  0
 18100  1  0  0  0
 19 20  1  0  0  0
 19 24  1  0  0  0
 20 21  2  0  0  0
 20101  1  0  0  0
 21 23  1  0  0  0
 22 28  1  0  0  0
 22 32  2  0  0  0
 26 27  1  0  0  0
 28102  1  0  0  0
 28103  1  0  0  0
 29104  1  0  0  0
 29105  1  0  0  0
 33 34  1  0  0  0
 33 66  1  0  0  0
 33 70  2  0  0  0
 34 36  1  0  0  0
 34 59  1  0  0  0
 34106  1  0  0  0
 35 44  2  0  0  0
 35 45  1  0  0  0
 35 68  1  0  0  0
 36 56  1  0  0  0
 36107  1  0  0  0
 37 39  1  0  0  0
 37 47  1  0  0  0
 37 66  1  0  0  0
 37108  1  0  0  0
 38 43  2  0  0  0
 38 46  1  0  0  0
 38 47  1  0  0  0
 39 64  1  0  0  0
 39 67  2  0  0  0
 40 52  1  0  0  0
 40 53  2  0  0  0
 40 58  1  0  0  0
 41109  1  0  0  0
 41110  1  0  0  0
 41111  1  0  0  0
 41 48  1  0  0  0
 42 43  1  0  0  0
 42 66  1  0  0  0
 42112  1  0  0  0
 42113  1  0  0  0
 43 44  1  0  0  0
 44114  1  0  0  0
 45 46  2  0  0  0
 45115  1  0  0  0
 46116  1  0  0  0
 47117  1  0  0  0
 47118  1  0  0  0
 48 56  1  0  0  0
 48 65  1  0  0  0
 48119  1  0  0  0
 49 50  1  0  0  0
 49 53  1  0  0  0
 49 64  1  0  0  0
 49120  1  0  0  0
 50 51  1  0  0  0
 50121  1  0  0  0
 50122  1  0  0  0
 51 52  1  0  0  0
 51123  1  0  0  0
 51124  1  0  0  0
 52125  1  0  0  0
 52126  1  0  0  0
 53 54  1  0  0  0
 54 55  2  0  0  0
 54127  1  0  0  0
 55 57  1  0  0  0
 55128  1  0  0  0
 56 69  2  0  0  0
 57 58  2  0  0  0
 57129  1  0  0  0
 58130  1  0  0  0
 59 60  1  0  0  0
 59 61  1  0  0  0
 59 62  1  0  0  0
 60131  1  0  0  0
 60132  1  0  0  0
 60133  1  0  0  0
 61134  1  0  0  0
 61135  1  0  0  0
 61136  1  0  0  0
 62137  1  0  0  0
 62138  1  0  0  0
 62139  1  0  0  0
 63 65  1  0  0  0
 63140  1  0  0  0
 63141  1  0  0  0
 63142  1  0  0  0
 64143  1  0  0  0
 65144  1  0  0  0
 68 81  1  0  0  0
 71 72  2  0  0  0
 71 73  1  0  0  0
 71145  1  0  0  0
 72 74  1  0  0  0
 72146  1  0  0  0
 73 75  2  0  0  0
 73 78  1  0  0  0
 74 79  1  0  0  0
 74 83  2  0  0  0
 75 83  1  0  0  0
 75 85  1  0  0  0
 76 77  1  0  0  0
 76 78  1  0  0  0
 76147  1  0  0  0
 76148  1  0  0  0
 77 78  1  0  0  0
 77149  1  0  0  0
 77150  1  0  0  0
 78151  1  0  0  0
 79 80  1  0  0  0
 79152  1  0  0  0
 79153  1  0  0  0
 80 84  1  0  0  0
 80154  1  0  0  0
 80155  1  0  0  0
 81 82  1  0  0  0
 81156  1  0  0  0
 81157  1  0  0  0
 82 85  1  0  0  0
 82158  1  0  0  0
 82159  1  0  0  0
 84160  1  0  0  0
M  ISO  4   1 100  68 101  81 101  84 100
M  END
> <chiral flag>
0

> <version>
0

> <s_m_source_file>
/data/baiqing/PycharmProjects/Reinvent-master-3.2/result/LINK_invent/BTK/process_docking_weight1_custom_sum_contain_oxygen_bond_distance_aromatic_linkinvent_7_9_3/rearranged_h_0146.sdf

> <i_m_source_file_index>
26

> <r_mmod_Potential_Energy-OPLS-2005>
-28.7257270812988

> <r_mmod_Stretch_Energy-OPLS-2005>
62.917724609375

> <r_mmod_Bend_Energy-OPLS-2005>
133.834320068359

> <r_mmod_Torsional_Energy-OPLS-2005>
289.791320800781

> <r_mmod_Improper_Torsional_Energy-OPLS-2005>
11.1030941009521

> <r_mmod_Van_der_Waal_Energy-OPLS-2005>
153.624588012695

> <r_mmod_Electrostatic_Energy-OPLS-2005>
-510.120422363281

> <r_mmod_Solvation_Energy-OPLS-2005>
-222.927368164062

> <b_mmod_Minimization_Converged-OPLS-2005>
0

> <r_mmod_RMS_Derivative-OPLS-2005>
4.846999168396

$$$$
26
                    3D
 Structure written by MMmdl.
161170  0  0  1  0            999 V2000
  -30.5721  -14.9047   20.4302 C   0  0  0  0  0  0
  -30.4420  -12.5582   19.4962 C   0  0  0  0  0  0
  -29.5219  -12.5103   18.2549 C   0  0  0  0  0  0
  -28.0589  -12.2934   18.6837 C   0  0  0  0  0  0
  -27.6350  -13.2355   19.8406 C   0  0  2  0  0  0
  -28.6769  -13.2592   20.9794 C   0  0  0  0  0  0
  -25.2494  -13.8176   20.5691 C   0  0  0  0  0  0
  -24.1776  -13.0425   20.9205 C   0  0  0  0  0  0
  -24.6377  -11.6895   20.8734 C   0  0  0  0  0  0
  -23.9042  -10.4286   21.0395 C   0  0  0  0  0  0
  -24.3595   -9.4203   21.9181 C   0  0  0  0  0  0
  -23.6277   -8.2232   22.0752 C   0  0  0  0  0  0
  -22.4270   -8.0262   21.3534 C   0  0  0  0  0  0
  -21.9892   -9.0232   20.4637 C   0  0  0  0  0  0
  -22.7211  -10.2120   20.3043 C   0  0  0  0  0  0
  -21.6854   -6.0701   22.5269 C   0  0  0  0  0  0
  -21.4019   -6.5618   23.8199 C   0  0  0  0  0  0
  -21.3653   -5.6782   24.9169 C   0  0  0  0  0  0
  -21.6041   -4.3044   24.7237 C   0  0  0  0  0  0
  -21.8817   -3.8121   23.4367 C   0  0  0  0  0  0
  -21.9207   -4.6924   22.3414 C   0  0  0  0  0  0
  -22.7811  -13.5211   21.1880 C   0  0  0  0  0  0
  -22.1665   -4.2097   21.0990 F   0  0  0  0  0  0
  -21.5629   -3.4539   25.7761 F   0  0  0  0  0  0
  -29.9582  -13.6563   20.3819 N   0  0  0  0  0  0
  -26.2907  -12.9386   20.3263 N   0  0  0  0  0  0
  -25.9313  -11.6529   20.5753 N   0  0  0  0  0  0
  -22.0458  -12.8194   22.0431 N   0  0  0  0  0  0
  -25.4191  -15.1895   20.4081 N   0  0  0  0  0  0
  -31.7706  -14.9626   20.1455 O   0  0  0  0  0  0
  -21.6640   -6.8846   21.4234 O   0  0  0  0  0  0
  -22.3499  -14.5534   20.6744 O   0  0  0  0  0  0
  -24.6412  -31.8466   23.1838 C   0  0  0  0  0  0
  -25.9199  -32.4719   23.8218 C   0  0  1  0  0  0
  -27.2207  -27.1270   20.1525 C   0  0  0  0  0  0
  -25.5990  -33.8517   24.2201 N   0  0  0  0  0  0
  -23.4434  -30.4583   21.5321 C   0  0  2  0  0  0
  -24.8940  -28.8707   20.1168 C   0  0  0  0  0  0
  -22.7538  -29.4553   22.4871 C   0  0  0  0  0  0
  -18.0316  -28.1411   22.8502 C   0  0  0  0  0  0
  -24.1475  -36.7198   23.2635 C   0  0  0  0  0  0
  -25.9945  -30.7066   21.3874 C   0  0  0  0  0  0
  -26.0648  -29.3094   20.7465 C   0  0  0  0  0  0
  -27.2213  -28.4459   20.7617 C   0  0  0  0  0  0
  -26.0498  -26.8166   19.4332 C   0  0  0  0  0  0
  -24.8958  -27.6338   19.4505 C   0  0  0  0  0  0
  -23.6709  -29.7760   20.1554 C   0  0  0  0  0  0
  -25.4130  -36.3028   24.0318 C   0  0  1  0  0  0
  -20.5924  -28.3731   23.1245 C   0  0  2  0  0  0
  -20.6780  -26.9436   22.5413 C   0  0  0  0  0  0
  -19.5764  -26.6410   21.5210 C   0  0  0  0  0  0
  -18.1957  -26.7968   22.1628 C   0  0  0  0  0  0
  -19.1572  -28.8895   23.2865 C   0  0  0  0  0  0
  -18.9506  -30.1490   23.8890 C   0  0  0  0  0  0
  -17.6506  -30.6616   24.0573 C   0  0  0  0  0  0
  -25.9081  -34.9413   23.5071 C   0  0  0  0  0  0
  -16.5395  -29.9102   23.6349 C   0  0  0  0  0  0
  -16.7305  -28.6509   23.0390 C   0  0  0  0  0  0
  -26.4561  -31.6560   25.0630 C   0  0  0  0  0  0
  -25.3779  -31.3768   26.1354 C   0  0  0  0  0  0
  -27.0409  -30.2963   24.6142 C   0  0  0  0  0  0
  -27.6118  -32.4282   25.7432 C   0  0  0  0  0  0
  -27.5585  -37.1769   24.8487 C   0  0  0  0  0  0
  -21.4229  -29.3038   22.3598 N   0  0  0  0  0  0
  -26.4290  -37.3753   23.9438 N   0  0  0  0  0  0
  -24.7129  -31.0261   22.0899 N   0  0  0  0  0  0
  -23.4192  -28.8126   23.3049 O   0  0  0  0  0  0
  -28.3339  -26.2124   20.1604 O   0  0  0  0  0  0
  -26.5612  -34.8903   22.4616 O   0  0  0  0  0  0
  -23.5540  -32.1361   23.7059 O   0  0  0  0  0  0
  -30.0615  -22.9136   19.9910 C   0  0  0  0  0  0
  -27.8941  -22.2678   20.4740 C   0  0  0  0  0  0
  -27.5147  -23.6601   20.4475 C   0  0  0  0  0  0
  -29.2189  -21.7718   20.2503 C   0  0  0  0  0  0
  -28.4412  -24.7385   20.1746 C   0  0  0  0  0  0
  -26.7281  -21.3836   20.7976 C   0  0  0  0  0  0
  -26.0456  -23.7846   20.7838 C   0  0  0  0  0  0
  -25.5105  -22.3291   20.9649 C   0  0  0  0  0  0
  -24.8805  -22.1698   22.3585 C   0  0  0  0  0  0
  -24.4552  -21.9807   19.8930 C   0  0  0  0  0  0
  -29.1936  -18.9325   20.4331 C   0  0  0  0  0  0
  -30.2373  -17.6101   20.4968 C   0  0  0  0  0  0
  -29.7115  -24.2629   19.9578 N   0  0  0  0  0  0
  -29.7549  -20.3769   20.2789 N   0  0  0  0  0  0
  -29.8168  -16.0946   20.5910 N   0  0  0  0  0  0
  -31.4798  -12.7003   19.1887 H   0  0  0  0  0  0
  -30.4215  -11.6042   20.0250 H   0  0  0  0  0  0
  -29.8357  -11.7089   17.5836 H   0  0  0  0  0  0
  -29.6101  -13.4393   17.6902 H   0  0  0  0  0  0
  -27.9758  -11.2576   19.0163 H   0  0  0  0  0  0
  -27.3854  -12.3954   17.8320 H   0  0  0  0  0  0
  -27.6073  -14.2356   19.4090 H   0  0  0  0  0  0
  -28.7572  -12.2818   21.4565 H   0  0  0  0  0  0
  -28.3863  -13.9634   21.7612 H   0  0  0  0  0  0
  -25.2728   -9.5691   22.4764 H   0  0  0  0  0  0
  -23.9982   -7.4630   22.7480 H   0  0  0  0  0  0
  -21.0813   -8.8734   19.8957 H   0  0  0  0  0  0
  -22.3638  -10.9651   19.6153 H   0  0  0  0  0  0
  -21.1996   -7.6122   23.9683 H   0  0  0  0  0  0
  -21.1477   -6.0517   25.9065 H   0  0  0  0  0  0
  -22.0606   -2.7577   23.2897 H   0  0  0  0  0  0
  -22.4085  -11.9846   22.4796 H   0  0  0  0  0  0
  -21.1074  -13.1207   22.2635 H   0  0  0  0  0  0
  -24.6496  -15.8442   20.4951 H   0  0  0  0  0  0
  -26.2613  -15.6222   20.0510 H   0  0  0  0  0  0
  -26.7255  -32.5373   23.0932 H   0  0  0  0  0  0
  -25.0296  -33.9647   25.0463 H   0  0  0  0  0  0
  -22.7460  -31.2836   21.3728 H   0  0  0  0  0  0
  -23.3784  -35.9477   23.3294 H   0  0  0  0  0  0
  -24.3538  -36.8795   22.2038 H   0  0  0  0  0  0
  -23.7141  -37.6372   23.6638 H   0  0  0  0  0  0
  -26.1356  -31.4488   20.5996 H   0  0  0  0  0  0
  -26.8688  -30.7749   22.0212 H   0  0  0  0  0  0
  -28.1152  -28.7726   21.2744 H   0  0  0  0  0  0
  -26.0207  -25.9164   18.8391 H   0  0  0  0  0  0
  -24.0087  -27.3110   18.9217 H   0  0  0  0  0  0
  -23.8096  -30.5431   19.3932 H   0  0  0  0  0  0
  -22.7852  -29.2164   19.8482 H   0  0  0  0  0  0
  -25.1290  -36.1860   25.0800 H   0  0  0  0  0  0
  -21.0041  -28.3352   24.1352 H   0  0  0  0  0  0
  -20.5701  -26.2339   23.3625 H   0  0  0  0  0  0
  -21.6650  -26.7459   22.1212 H   0  0  0  0  0  0
  -19.6898  -25.6315   21.1254 H   0  0  0  0  0  0
  -19.6696  -27.3204   20.6719 H   0  0  0  0  0  0
  -17.4223  -26.6755   21.4021 H   0  0  0  0  0  0
  -18.0320  -26.0103   22.9006 H   0  0  0  0  0  0
  -19.7996  -30.7308   24.2238 H   0  0  0  0  0  0
  -17.5071  -31.6304   24.5169 H   0  0  0  0  0  0
  -15.5399  -30.3008   23.7658 H   0  0  0  0  0  0
  -15.8698  -28.0801   22.7129 H   0  0  0  0  0  0
  -24.5980  -30.7059   25.7725 H   0  0  0  0  0  0
  -24.8975  -32.2972   26.4683 H   0  0  0  0  0  0
  -25.8122  -30.9060   27.0183 H   0  0  0  0  0  0
  -26.3009  -29.6717   24.1128 H   0  0  0  0  0  0
  -27.4038  -29.7188   25.4651 H   0  0  0  0  0  0
  -27.8885  -30.4204   23.9396 H   0  0  0  0  0  0
  -27.2771  -33.3636   26.1919 H   0  0  0  0  0  0
  -28.4018  -32.6747   25.0327 H   0  0  0  0  0  0
  -28.0664  -31.8446   26.5441 H   0  0  0  0  0  0
  -28.2616  -38.0065   24.7564 H   0  0  0  0  0  0
  -28.1069  -36.2594   24.6291 H   0  0  0  0  0  0
  -27.2293  -37.1377   25.8889 H   0  0  0  0  0  0
  -20.9417  -29.8732   21.6764 H   0  0  0  0  0  0
  -26.0155  -38.2807   24.1511 H   0  0  0  0  0  0
  -31.1113  -22.7377   19.8067 H   0  0  0  0  0  0
  -26.9490  -20.8261   21.7068 H   0  0  0  0  0  0
  -26.5980  -20.6648   19.9884 H   0  0  0  0  0  0
  -25.4896  -24.2812   19.9952 H   0  0  0  0  0  0
  -25.9451  -24.3810   21.6914 H   0  0  0  0  0  0
  -25.6080  -22.3651   23.1473 H   0  0  0  0  0  0
  -24.4925  -21.1607   22.5090 H   0  0  0  0  0  0
  -24.0532  -22.8655   22.4952 H   0  0  0  0  0  0
  -24.8584  -22.0842   18.8841 H   0  0  0  0  0  0
  -23.5766  -22.6242   19.9648 H   0  0  0  0  0  0
  -24.1125  -20.9479   19.9982 H   0  0  0  0  0  0
  -28.5673  -18.9153   21.3259 H   0  0  0  0  0  0
  -28.5040  -18.7721   19.6038 H   0  0  0  0  0  0
  -30.8813  -17.7686   21.3621 H   0  0  0  0  0  0
  -30.9062  -17.6798   19.6389 H   0  0  0  0  0  0
  -30.7584  -20.3588   20.1025 H   0  0  0  0  0  0
  -28.8448  -15.9370   20.8078 H   0  0  0  0  0  0
  1 25  1  0  0  0
  1 30  2  0  0  0
  1 85  1  0  0  0
  2  3  1  0  0  0
  2 25  1  0  0  0
  2 86  1  0  0  0
  2 87  1  0  0  0
  3  4  1  0  0  0
  3 88  1  0  0  0
  3 89  1  0  0  0
  4  5  1  0  0  0
  4 90  1  0  0  0
  4 91  1  0  0  0
  5  6  1  0  0  0
  5 26  1  0  0  0
  5 92  1  0  0  0
  6 25  1  0  0  0
  6 93  1  0  0  0
  6 94  1  0  0  0
  7  8  2  0  0  0
  7 26  1  0  0  0
  7 29  1  0  0  0
  8  9  1  0  0  0
  8 22  1  0  0  0
  9 10  1  0  0  0
  9 27  2  0  0  0
 10 11  2  0  0  0
 10 15  1  0  0  0
 11 12  1  0  0  0
 11 95  1  0  0  0
 12 13  2  0  0  0
 12 96  1  0  0  0
 13 14  1  0  0  0
 13 31  1  0  0  0
 14 15  2  0  0  0
 14 97  1  0  0  0
 15 98  1  0  0  0
 16 17  2  0  0  0
 16 21  1  0  0  0
 16 31  1  0  0  0
 17 18  1  0  0  0
 17 99  1  0  0  0
 18 19  2  0  0  0
 18100  1  0  0  0
 19 20  1  0  0  0
 19 24  1  0  0  0
 20 21  2  0  0  0
 20101  1  0  0  0
 21 23  1  0  0  0
 22 28  1  0  0  0
 22 32  2  0  0  0
 26 27  1  0  0  0
 28102  1  0  0  0
 28103  1  0  0  0
 29104  1  0  0  0
 29105  1  0  0  0
 33 34  1  0  0  0
 33 66  1  0  0  0
 33 70  2  0  0  0
 34 36  1  0  0  0
 34 59  1  0  0  0
 34106  1  0  0  0
 35 44  2  0  0  0
 35 45  1  0  0  0
 35 68  1  0  0  0
 36 56  1  0  0  0
 36107  1  0  0  0
 37 39  1  0  0  0
 37 47  1  0  0  0
 37 66  1  0  0  0
 37108  1  0  0  0
 38 43  2  0  0  0
 38 46  1  0  0  0
 38 47  1  0  0  0
 39 64  1  0  0  0
 39 67  2  0  0  0
 40 52  1  0  0  0
 40 53  2  0  0  0
 40 58  1  0  0  0
 41109  1  0  0  0
 41110  1  0  0  0
 41111  1  0  0  0
 41 48  1  0  0  0
 42 43  1  0  0  0
 42 66  1  0  0  0
 42112  1  0  0  0
 42113  1  0  0  0
 43 44  1  0  0  0
 44114  1  0  0  0
 45 46  2  0  0  0
 45115  1  0  0  0
 46116  1  0  0  0
 47117  1  0  0  0
 47118  1  0  0  0
 48 56  1  0  0  0
 48 65  1  0  0  0
 48119  1  0  0  0
 49 50  1  0  0  0
 49 53  1  0  0  0
 49 64  1  0  0  0
 49120  1  0  0  0
 50 51  1  0  0  0
 50121  1  0  0  0
 50122  1  0  0  0
 51 52  1  0  0  0
 51123  1  0  0  0
 51124  1  0  0  0
 52125  1  0  0  0
 52126  1  0  0  0
 53 54  1  0  0  0
 54 55  2  0  0  0
 54127  1  0  0  0
 55 57  1  0  0  0
 55128  1  0  0  0
 56 69  2  0  0  0
 57 58  2  0  0  0
 57129  1  0  0  0
 58130  1  0  0  0
 59 60  1  0  0  0
 59 61  1  0  0  0
 59 62  1  0  0  0
 60131  1  0  0  0
 60132  1  0  0  0
 60133  1  0  0  0
 61134  1  0  0  0
 61135  1  0  0  0
 61136  1  0  0  0
 62137  1  0  0  0
 62138  1  0  0  0
 62139  1  0  0  0
 63 65  1  0  0  0
 63140  1  0  0  0
 63141  1  0  0  0
 63142  1  0  0  0
 64143  1  0  0  0
 65144  1  0  0  0
 68 75  1  0  0  0
 71 74  2  0  0  0
 71 83  1  0  0  0
 71145  1  0  0  0
 72 73  2  0  0  0
 72 74  1  0  0  0
 72 76  1  0  0  0
 73 75  1  0  0  0
 73 77  1  0  0  0
 74 84  1  0  0  0
 75 83  2  0  0  0
 76 78  1  0  0  0
 76146  1  0  0  0
 76147  1  0  0  0
 77 78  1  0  0  0
 77148  1  0  0  0
 77149  1  0  0  0
 78 79  1  0  0  0
 78 80  1  0  0  0
 79150  1  0  0  0
 79151  1  0  0  0
 79152  1  0  0  0
 80153  1  0  0  0
 80154  1  0  0  0
 80155  1  0  0  0
 81 82  1  0  0  0
 81 84  1  0  0  0
 81156  1  0  0  0
 81157  1  0  0  0
 82 85  1  0  0  0
 82158  1  0  0  0
 82159  1  0  0  0
 84160  1  0  0  0
 85161  1  0  0  0
M  ISO  4   1 100  68 101  75 101  85 100
M  END
> <chiral flag>
0

> <version>
0

> <s_m_source_file>
/data/baiqing/PycharmProjects/Reinvent-master-3.2/result/LINK_invent/BTK/process_docking_weight1_custom_sum_contain_oxygen_bond_distance_aromatic_linkinvent_7_9_3/rearranged_h_0146.sdf

> <i_m_source_file_index>
27

> <r_mmod_Potential_Energy-OPLS-2005>
317.759674072266

> <r_mmod_Stretch_Energy-OPLS-2005>
213.147308349609

> <r_mmod_Bend_Energy-OPLS-2005>
332.218780517578

> <r_mmod_Torsional_Energy-OPLS-2005>
189.366897583008

> <r_mmod_Improper_Torsional_Energy-OPLS-2005>
4.73626136779785

> <r_mmod_Van_der_Waal_Energy-OPLS-2005>
128.52067565918

> <r_mmod_Electrostatic_Energy-OPLS-2005>
-483.728424072266

> <r_mmod_Solvation_Energy-OPLS-2005>
-236.233459472656

> <b_mmod_Minimization_Converged-OPLS-2005>
0

> <r_mmod_RMS_Derivative-OPLS-2005>
3.76309037208557

$$$$
27
                    3D
 Structure written by MMmdl.
170179  0  0  1  0            999 V2000
  -30.5899  -14.6780   20.5079 C   0  0  0  0  0  0
  -30.4302  -12.4117   19.4832 C   0  0  0  0  0  0
  -29.5044  -12.5271   18.2484 C   0  0  0  0  0  0
  -28.0275  -12.3542   18.6514 C   0  0  0  0  0  0
  -27.6479  -13.2260   19.8769 C   0  0  2  0  0  0
  -28.6896  -13.0930   21.0137 C   0  0  0  0  0  0
  -25.2568  -13.8204   20.5850 C   0  0  0  0  0  0
  -24.1811  -13.0454   20.9228 C   0  0  0  0  0  0
  -24.6366  -11.6947   20.8689 C   0  0  0  0  0  0
  -23.9019  -10.4332   21.0370 C   0  0  0  0  0  0
  -24.3564   -9.4250   21.9146 C   0  0  0  0  0  0
  -23.6278   -8.2262   22.0712 C   0  0  0  0  0  0
  -22.4264   -8.0277   21.3509 C   0  0  0  0  0  0
  -21.9852   -9.0256   20.4599 C   0  0  0  0  0  0
  -22.7176  -10.2152   20.3008 C   0  0  0  0  0  0
  -21.6873   -6.0732   22.5297 C   0  0  0  0  0  0
  -21.4040   -6.5638   23.8225 C   0  0  0  0  0  0
  -21.3651   -5.6792   24.9183 C   0  0  0  0  0  0
  -21.6068   -4.3054   24.7247 C   0  0  0  0  0  0
  -21.8836   -3.8137   23.4353 C   0  0  0  0  0  0
  -21.9211   -4.6959   22.3410 C   0  0  0  0  0  0
  -22.7831  -13.5207   21.1896 C   0  0  0  0  0  0
  -22.1649   -4.2141   21.0991 F   0  0  0  0  0  0
  -21.5623   -3.4531   25.7730 F   0  0  0  0  0  0
  -30.0048  -13.4369   20.4602 N   0  0  0  0  0  0
  -26.2976  -12.9405   20.3420 N   0  0  0  0  0  0
  -25.9285  -11.6552   20.5726 N   0  0  0  0  0  0
  -22.0459  -12.8193   22.0448 N   0  0  0  0  0  0
  -25.4403  -15.1927   20.4547 N   0  0  0  0  0  0
  -31.7317  -14.8514   20.0734 O   0  0  0  0  0  0
  -21.6642   -6.8869   21.4245 O   0  0  0  0  0  0
  -22.3539  -14.5523   20.6754 O   0  0  0  0  0  0
  -24.6289  -31.8572   23.2028 C   0  0  0  0  0  0
  -25.9131  -32.4762   23.8361 C   0  0  1  0  0  0
  -27.2058  -27.2743   20.1364 C   0  0  0  0  0  0
  -25.5971  -33.8550   24.2276 N   0  0  0  0  0  0
  -23.4251  -30.4809   21.5410 C   0  0  2  0  0  0
  -24.8713  -28.9372   20.1050 C   0  0  0  0  0  0
  -22.7499  -29.4591   22.4906 C   0  0  0  0  0  0
  -18.0308  -28.1404   22.8463 C   0  0  0  0  0  0
  -24.1487  -36.7283   23.2627 C   0  0  0  0  0  0
  -25.9691  -30.7702   21.3832 C   0  0  0  0  0  0
  -26.0375  -29.3940   20.7287 C   0  0  0  0  0  0
  -27.2081  -28.5732   20.7404 C   0  0  0  0  0  0
  -26.0316  -26.9066   19.4373 C   0  0  0  0  0  0
  -24.8743  -27.7037   19.4408 C   0  0  0  0  0  0
  -23.6415  -29.8189   20.1552 C   0  0  0  0  0  0
  -25.4105  -36.3047   24.0322 C   0  0  1  0  0  0
  -20.5891  -28.3694   23.1277 C   0  0  2  0  0  0
  -20.6782  -26.9422   22.5390 C   0  0  0  0  0  0
  -19.5767  -26.6398   21.5193 C   0  0  0  0  0  0
  -18.1957  -26.7958   22.1605 C   0  0  0  0  0  0
  -19.1552  -28.8875   23.2864 C   0  0  0  0  0  0
  -18.9470  -30.1481   23.8880 C   0  0  0  0  0  0
  -17.6464  -30.6592   24.0563 C   0  0  0  0  0  0
  -25.9062  -34.9434   23.5089 C   0  0  0  0  0  0
  -16.5357  -29.9082   23.6334 C   0  0  0  0  0  0
  -16.7290  -28.6509   23.0334 C   0  0  0  0  0  0
  -26.4513  -31.6573   25.0737 C   0  0  0  0  0  0
  -25.3740  -31.3695   26.1453 C   0  0  0  0  0  0
  -27.0325  -30.3000   24.6191 C   0  0  0  0  0  0
  -27.6089  -32.4274   25.7477 C   0  0  0  0  0  0
  -27.5584  -37.1774   24.8445 C   0  0  0  0  0  0
  -21.4215  -29.3038   22.3661 N   0  0  0  0  0  0
  -26.4262  -37.3773   23.9430 N   0  0  0  0  0  0
  -24.6926  -31.0553   22.0988 N   0  0  0  0  0  0
  -23.4223  -28.8145   23.2985 O   0  0  0  0  0  0
  -28.2872  -26.3713   20.2007 O   0  0  0  0  0  0
  -26.5605  -34.8898   22.4633 O   0  0  0  0  0  0
  -23.5448  -32.1381   23.7331 O   0  0  0  0  0  0
  -33.1662  -18.9130   22.3746 C   0  0  0  0  0  0
  -32.0615  -18.6916   21.5280 C   0  0  0  0  0  0
  -32.9647  -19.1384   23.7499 C   0  0  0  0  0  0
  -30.5624  -18.9021   23.4392 C   0  0  0  0  0  0
  -30.7499  -18.6823   22.0558 C   0  0  0  0  0  0
  -31.6649  -19.1428   24.2847 C   0  0  0  0  0  0
  -27.8124  -24.5794   21.9189 C   0  0  0  0  0  0
  -27.8730  -23.0285   22.0196 C   0  0  0  0  0  0
  -27.9863  -24.9152   20.4377 C   0  0  2  0  0  0
  -28.9786  -23.7421   20.0354 C   0  0  2  0  0  0
  -29.0101  -23.5328   18.5088 C   0  0  0  0  0  0
  -29.7158  -17.1292   20.2293 C   0  0  0  0  0  0
  -29.4548  -21.2888   20.9973 C   0  0  0  0  0  0
  -29.5399  -18.4449   21.1535 C   0  0  2  0  0  0
  -28.9537  -19.8292   20.5109 C   0  0  2  0  0  0
  -29.7683  -15.7344   20.8355 N   0  0  0  0  0  0
  -28.5166  -22.4929   20.7794 N   0  3  1  0  0  0
  -29.1026  -19.7994   19.0976 O   0  0  0  0  0  0
  -31.4753  -19.3732   25.6052 F   0  0  0  0  0  0
  -31.4740  -12.5331   19.1913 H   0  0  0  0  0  0
  -30.3569  -11.4197   19.9291 H   0  0  0  0  0  0
  -29.7738  -11.7918   17.4891 H   0  0  0  0  0  0
  -29.6365  -13.5094   17.7930 H   0  0  0  0  0  0
  -27.8630  -11.3034   18.8818 H   0  0  0  0  0  0
  -27.3647  -12.5813   17.8149 H   0  0  0  0  0  0
  -27.6545  -14.2568   19.5239 H   0  0  0  0  0  0
  -28.6989  -12.0783   21.4134 H   0  0  0  0  0  0
  -28.4302  -13.7366   21.8557 H   0  0  0  0  0  0
  -25.2692   -9.5741   22.4741 H   0  0  0  0  0  0
  -24.0030   -7.4666   22.7422 H   0  0  0  0  0  0
  -21.0767   -8.8776   19.8911 H   0  0  0  0  0  0
  -22.3625  -10.9692   19.6116 H   0  0  0  0  0  0
  -21.2039   -7.6149   23.9722 H   0  0  0  0  0  0
  -21.1434   -6.0497   25.9088 H   0  0  0  0  0  0
  -22.0601   -2.7602   23.2839 H   0  0  0  0  0  0
  -22.4027  -11.9800   22.4785 H   0  0  0  0  0  0
  -21.1101  -13.1248   22.2716 H   0  0  0  0  0  0
  -24.6830  -15.8509   20.5899 H   0  0  0  0  0  0
  -26.3272  -15.6356   20.2457 H   0  0  0  0  0  0
  -26.7191  -32.5386   23.1102 H   0  0  0  0  0  0
  -25.0157  -33.9689   25.0451 H   0  0  0  0  0  0
  -22.7206  -31.3035   21.4003 H   0  0  0  0  0  0
  -23.3766  -35.9598   23.3210 H   0  0  0  0  0  0
  -24.3608  -36.8980   22.2063 H   0  0  0  0  0  0
  -23.7209  -37.6449   23.6694 H   0  0  0  0  0  0
  -26.1036  -31.5289   20.6103 H   0  0  0  0  0  0
  -26.8497  -30.8217   22.0099 H   0  0  0  0  0  0
  -28.0951  -28.9145   21.2537 H   0  0  0  0  0  0
  -25.9836  -25.9958   18.8613 H   0  0  0  0  0  0
  -23.9942  -27.3681   18.9079 H   0  0  0  0  0  0
  -23.7624  -30.5960   19.3998 H   0  0  0  0  0  0
  -22.7642  -29.2469   19.8494 H   0  0  0  0  0  0
  -25.1278  -36.1886   25.0817 H   0  0  0  0  0  0
  -21.0001  -28.3265   24.1390 H   0  0  0  0  0  0
  -20.5669  -26.2317   23.3585 H   0  0  0  0  0  0
  -21.6654  -26.7446   22.1189 H   0  0  0  0  0  0
  -19.6918  -25.6306   21.1232 H   0  0  0  0  0  0
  -19.6728  -27.3192   20.6712 H   0  0  0  0  0  0
  -17.4225  -26.6709   21.4006 H   0  0  0  0  0  0
  -18.0368  -26.0117   22.9014 H   0  0  0  0  0  0
  -19.7938  -30.7311   24.2248 H   0  0  0  0  0  0
  -17.5002  -31.6264   24.5172 H   0  0  0  0  0  0
  -15.5343  -30.2953   23.7691 H   0  0  0  0  0  0
  -15.8702  -28.0822   22.7025 H   0  0  0  0  0  0
  -24.5954  -30.7016   25.7786 H   0  0  0  0  0  0
  -24.8887  -32.2826   26.4890 H   0  0  0  0  0  0
  -25.8074  -30.8877   27.0229 H   0  0  0  0  0  0
  -26.2891  -29.6766   24.1231 H   0  0  0  0  0  0
  -27.4035  -29.7251   25.4689 H   0  0  0  0  0  0
  -27.8767  -30.4286   23.9416 H   0  0  0  0  0  0
  -27.2776  -33.3585   26.2078 H   0  0  0  0  0  0
  -28.3901  -32.6803   25.0295 H   0  0  0  0  0  0
  -28.0783  -31.8377   26.5368 H   0  0  0  0  0  0
  -28.2523  -38.0149   24.7586 H   0  0  0  0  0  0
  -28.1156  -36.2683   24.6134 H   0  0  0  0  0  0
  -27.2327  -37.1256   25.8850 H   0  0  0  0  0  0
  -20.9431  -29.8769   21.6852 H   0  0  0  0  0  0
  -26.0131  -38.2822   24.1509 H   0  0  0  0  0  0
  -34.1695  -18.9062   21.9748 H   0  0  0  0  0  0
  -32.2269  -18.5235   20.4725 H   0  0  0  0  0  0
  -33.8109  -19.3092   24.3993 H   0  0  0  0  0  0
  -29.5673  -18.8917   23.8562 H   0  0  0  0  0  0
  -28.6416  -25.0078   22.4814 H   0  0  0  0  0  0
  -26.8900  -24.9915   22.3311 H   0  0  0  0  0  0
  -26.8707  -22.6109   22.1117 H   0  0  0  0  0  0
  -28.4091  -22.7516   22.9308 H   0  0  0  0  0  0
  -27.0492  -24.6375   19.9619 H   0  0  0  0  0  0
  -29.9787  -23.9983   20.3915 H   0  0  0  0  0  0
  -28.0414  -23.2083   18.1213 H   0  0  0  0  0  0
  -29.7541  -22.7884   18.2179 H   0  0  0  0  0  0
  -29.2614  -24.4634   17.9961 H   0  0  0  0  0  0
  -30.5703  -17.2615   19.5645 H   0  0  0  0  0  0
  -28.8566  -17.0904   19.5556 H   0  0  0  0  0  0
  -30.4261  -21.5094   20.5519 H   0  0  0  0  0  0
  -29.6689  -21.2266   22.0646 H   0  0  0  0  0  0
  -28.7481  -18.1481   21.8438 H   0  0  0  0  0  0
  -27.8768  -19.7889   20.6941 H   0  0  0  0  0  0
  -28.9077  -15.4352   21.2688 H   0  0  0  0  0  0
  -27.7526  -22.1187   20.2316 H   0  0  0  0  0  0
  -28.6914  -19.0047   18.7720 H   0  0  0  0  0  0
  1 25  1  0  0  0
  1 30  2  0  0  0
  1 86  1  0  0  0
  2  3  1  0  0  0
  2 25  1  0  0  0
  2 90  1  0  0  0
  2 91  1  0  0  0
  3  4  1  0  0  0
  3 92  1  0  0  0
  3 93  1  0  0  0
  4  5  1  0  0  0
  4 94  1  0  0  0
  4 95  1  0  0  0
  5  6  1  0  0  0
  5 26  1  0  0  0
  5 96  1  0  0  0
  6 25  1  0  0  0
  6 97  1  0  0  0
  6 98  1  0  0  0
  7  8  2  0  0  0
  7 26  1  0  0  0
  7 29  1  0  0  0
  8  9  1  0  0  0
  8 22  1  0  0  0
  9 10  1  0  0  0
  9 27  2  0  0  0
 10 11  2  0  0  0
 10 15  1  0  0  0
 11 12  1  0  0  0
 11 99  1  0  0  0
 12 13  2  0  0  0
 12100  1  0  0  0
 13 14  1  0  0  0
 13 31  1  0  0  0
 14 15  2  0  0  0
 14101  1  0  0  0
 15102  1  0  0  0
 16 17  2  0  0  0
 16 21  1  0  0  0
 16 31  1  0  0  0
 17 18  1  0  0  0
 17103  1  0  0  0
 18 19  2  0  0  0
 18104  1  0  0  0
 19 20  1  0  0  0
 19 24  1  0  0  0
 20 21  2  0  0  0
 20105  1  0  0  0
 21 23  1  0  0  0
 22 28  1  0  0  0
 22 32  2  0  0  0
 26 27  1  0  0  0
 28106  1  0  0  0
 28107  1  0  0  0
 29108  1  0  0  0
 29109  1  0  0  0
 33 34  1  0  0  0
 33 66  1  0  0  0
 33 70  2  0  0  0
 34 36  1  0  0  0
 34 59  1  0  0  0
 34110  1  0  0  0
 35 44  2  0  0  0
 35 45  1  0  0  0
 35 68  1  0  0  0
 36 56  1  0  0  0
 36111  1  0  0  0
 37 39  1  0  0  0
 37 47  1  0  0  0
 37 66  1  0  0  0
 37112  1  0  0  0
 38 43  2  0  0  0
 38 46  1  0  0  0
 38 47  1  0  0  0
 39 64  1  0  0  0
 39 67  2  0  0  0
 40 52  1  0  0  0
 40 53  2  0  0  0
 40 58  1  0  0  0
 41113  1  0  0  0
 41114  1  0  0  0
 41115  1  0  0  0
 41 48  1  0  0  0
 42 43  1  0  0  0
 42 66  1  0  0  0
 42116  1  0  0  0
 42117  1  0  0  0
 43 44  1  0  0  0
 44118  1  0  0  0
 45 46  2  0  0  0
 45119  1  0  0  0
 46120  1  0  0  0
 47121  1  0  0  0
 47122  1  0  0  0
 48 56  1  0  0  0
 48 65  1  0  0  0
 48123  1  0  0  0
 49 50  1  0  0  0
 49 53  1  0  0  0
 49 64  1  0  0  0
 49124  1  0  0  0
 50 51  1  0  0  0
 50125  1  0  0  0
 50126  1  0  0  0
 51 52  1  0  0  0
 51127  1  0  0  0
 51128  1  0  0  0
 52129  1  0  0  0
 52130  1  0  0  0
 53 54  1  0  0  0
 54 55  2  0  0  0
 54131  1  0  0  0
 55 57  1  0  0  0
 55132  1  0  0  0
 56 69  2  0  0  0
 57 58  2  0  0  0
 57133  1  0  0  0
 58134  1  0  0  0
 59 60  1  0  0  0
 59 61  1  0  0  0
 59 62  1  0  0  0
 60135  1  0  0  0
 60136  1  0  0  0
 60137  1  0  0  0
 61138  1  0  0  0
 61139  1  0  0  0
 61140  1  0  0  0
 62141  1  0  0  0
 62142  1  0  0  0
 62143  1  0  0  0
 63 65  1  0  0  0
 63144  1  0  0  0
 63145  1  0  0  0
 63146  1  0  0  0
 64147  1  0  0  0
 65148  1  0  0  0
 68 79  1  0  0  0
 71 72  2  0  0  0
 71 73  1  0  0  0
 71149  1  0  0  0
 72 75  1  0  0  0
 72150  1  0  0  0
 73 76  2  0  0  0
 73151  1  0  0  0
 74 75  2  0  0  0
 74 76  1  0  0  0
 74152  1  0  0  0
 75 84  1  0  0  0
 76 89  1  0  0  0
 77 78  1  0  0  0
 77 79  1  0  0  0
 77153  1  0  0  0
 77154  1  0  0  0
 78 87  1  0  0  0
 78155  1  0  0  0
 78156  1  0  0  0
 79 80  1  0  0  0
 79157  1  0  0  0
 80 81  1  0  0  0
 80 87  1  0  0  0
 80158  1  0  0  0
 81159  1  0  0  0
 81160  1  0  0  0
 81161  1  0  0  0
 82 86  1  0  0  0
 82162  1  0  0  0
 82163  1  0  0  0
 82 84  1  0  0  0
 83 85  1  0  0  0
 83164  1  0  0  0
 83165  1  0  0  0
 83 87  1  0  0  0
 84 85  1  0  0  0
 84166  1  0  0  0
 85 88  1  0  0  0
 85167  1  0  0  0
 86168  1  0  0  0
 87169  1  0  0  0
 88170  1  0  0  0
M  CHG  1  87   1
M  ISO  4   1 100  68 101  79 101  86 100
M  END
> <chiral flag>
0

> <version>
0

> <s_m_source_file>
/data/baiqing/PycharmProjects/Reinvent-master-3.2/result/LINK_invent/BTK/process_docking_weight1_custom_sum_contain_oxygen_bond_distance_aromatic_linkinvent_7_9_3/rearranged_h_0146.sdf

> <i_m_source_file_index>
28

> <r_mmod_Potential_Energy-OPLS-2005>
145.016723632812

> <r_mmod_Stretch_Energy-OPLS-2005>
113.713478088379

> <r_mmod_Bend_Energy-OPLS-2005>
191.72119140625

> <r_mmod_Torsional_Energy-OPLS-2005>
313.469635009766

> <r_mmod_Improper_Torsional_Energy-OPLS-2005>
6.76855087280273

> <r_mmod_Van_der_Waal_Energy-OPLS-2005>
132.685821533203

> <r_mmod_Electrostatic_Energy-OPLS-2005>
-235.523040771484

> <r_mmod_Solvation_Energy-OPLS-2005>
-448.322387695312

> <b_mmod_Minimization_Converged-OPLS-2005>
0

> <r_mmod_RMS_Derivative-OPLS-2005>
5.12233829498291

$$$$
28
                    3D
 Structure written by MMmdl.
170180  0  0  1  0            999 V2000
  -30.6006  -14.7361   20.4792 C   0  0  0  0  0  0
  -30.4357  -12.4479   19.4851 C   0  0  0  0  0  0
  -29.5201  -12.5322   18.2426 C   0  0  0  0  0  0
  -28.0426  -12.3512   18.6435 C   0  0  0  0  0  0
  -27.6490  -13.2310   19.8603 C   0  0  2  0  0  0
  -28.6893  -13.1369   21.0005 C   0  0  0  0  0  0
  -25.2551  -13.8199   20.5654 C   0  0  0  0  0  0
  -24.1833  -13.0453   20.9161 C   0  0  0  0  0  0
  -24.6410  -11.6928   20.8719 C   0  0  0  0  0  0
  -23.9077  -10.4311   21.0383 C   0  0  0  0  0  0
  -24.3628   -9.4229   21.9170 C   0  0  0  0  0  0
  -23.6303   -8.2264   22.0754 C   0  0  0  0  0  0
  -22.4291   -8.0287   21.3533 C   0  0  0  0  0  0
  -21.9920   -9.0263   20.4648 C   0  0  0  0  0  0
  -22.7240  -10.2149   20.3045 C   0  0  0  0  0  0
  -21.6869   -6.0741   22.5272 C   0  0  0  0  0  0
  -21.4025   -6.5642   23.8210 C   0  0  0  0  0  0
  -21.3660   -5.6794   24.9171 C   0  0  0  0  0  0
  -21.6037   -4.3051   24.7219 C   0  0  0  0  0  0
  -21.8826   -3.8148   23.4343 C   0  0  0  0  0  0
  -21.9201   -4.6964   22.3403 C   0  0  0  0  0  0
  -22.7853  -13.5247   21.1802 C   0  0  0  0  0  0
  -22.1659   -4.2148   21.0978 F   0  0  0  0  0  0
  -21.5629   -3.4537   25.7732 F   0  0  0  0  0  0
  -29.9998  -13.4954   20.4420 N   0  0  0  0  0  0
  -26.2977  -12.9392   20.3284 N   0  0  0  0  0  0
  -25.9351  -11.6534   20.5751 N   0  0  0  0  0  0
  -22.0490  -12.8270   22.0377 N   0  0  0  0  0  0
  -25.4272  -15.1921   20.4043 N   0  0  0  0  0  0
  -31.7585  -14.8618   20.0630 O   0  0  0  0  0  0
  -21.6649   -6.8882   21.4240 O   0  0  0  0  0  0
  -22.3544  -14.5535   20.6619 O   0  0  0  0  0  0
  -24.6347  -31.8530   23.1965 C   0  0  0  0  0  0
  -25.9161  -32.4739   23.8320 C   0  0  1  0  0  0
  -27.2074  -27.2284   20.1289 C   0  0  0  0  0  0
  -25.5952  -33.8545   24.2247 N   0  0  0  0  0  0
  -23.4315  -30.4772   21.5414 C   0  0  2  0  0  0
  -24.8769  -28.9232   20.1069 C   0  0  0  0  0  0
  -22.7518  -29.4595   22.4892 C   0  0  0  0  0  0
  -18.0301  -28.1389   22.8469 C   0  0  0  0  0  0
  -24.1493  -36.7277   23.2638 C   0  0  0  0  0  0
  -25.9810  -30.7543   21.3827 C   0  0  0  0  0  0
  -26.0504  -29.3750   20.7235 C   0  0  0  0  0  0
  -27.2177  -28.5395   20.7257 C   0  0  0  0  0  0
  -26.0142  -26.8657   19.4620 C   0  0  0  0  0  0
  -24.8657  -27.6787   19.4640 C   0  0  0  0  0  0
  -23.6492  -29.8121   20.1574 C   0  0  0  0  0  0
  -25.4123  -36.3067   24.0325 C   0  0  1  0  0  0
  -20.5908  -28.3707   23.1245 C   0  0  2  0  0  0
  -20.6784  -26.9415   22.5408 C   0  0  0  0  0  0
  -19.5767  -26.6373   21.5207 C   0  0  0  0  0  0
  -18.1944  -26.7930   22.1609 C   0  0  0  0  0  0
  -19.1556  -28.8867   23.2852 C   0  0  0  0  0  0
  -18.9473  -30.1472   23.8859 C   0  0  0  0  0  0
  -17.6466  -30.6580   24.0561 C   0  0  0  0  0  0
  -25.9066  -34.9432   23.5087 C   0  0  0  0  0  0
  -16.5358  -29.9069   23.6337 C   0  0  0  0  0  0
  -16.7286  -28.6499   23.0337 C   0  0  0  0  0  0
  -26.4520  -31.6570   25.0717 C   0  0  0  0  0  0
  -25.3727  -31.3714   26.1422 C   0  0  0  0  0  0
  -27.0382  -30.2983   24.6232 C   0  0  0  0  0  0
  -27.6083  -32.4308   25.7490 C   0  0  0  0  0  0
  -27.5589  -37.1790   24.8457 C   0  0  0  0  0  0
  -21.4225  -29.3046   22.3630 N   0  0  0  0  0  0
  -26.4296  -37.3772   23.9406 N   0  0  0  0  0  0
  -24.7019  -31.0469   22.0959 N   0  0  0  0  0  0
  -23.4207  -28.8139   23.3005 O   0  0  0  0  0  0
  -28.2752  -26.2919   20.2135 O   0  0  0  0  0  0
  -26.5639  -34.8913   22.4657 O   0  0  0  0  0  0
  -23.5489  -32.1369   23.7243 O   0  0  0  0  0  0
  -29.1339  -16.9461   18.8697 C   0  0  0  0  0  0
  -28.6771  -19.3180   18.6776 C   0  0  0  0  0  0
  -28.6642  -18.0287   18.0938 C   0  0  0  0  0  0
  -29.5877  -17.1115   20.1885 C   0  0  0  0  0  0
  -29.1501  -19.5147   19.9915 C   0  0  0  0  0  0
  -30.3593  -19.0702   15.7159 C   0  0  0  0  0  0
  -30.6979  -17.6060   15.8557 C   0  0  0  0  0  0
  -26.9409  -20.0316   15.7093 C   0  0  0  0  0  0
  -26.2970  -18.8494   15.0265 C   0  0  0  0  0  0
  -29.2620  -18.0292   15.6068 C   0  0  0  0  0  0
  -26.9148  -18.6848   16.4032 C   0  0  0  0  0  0
  -27.6555  -16.3442   16.4549 C   0  0  0  0  0  0
  -28.9006  -23.5682   20.4901 C   0  0  0  0  0  0
  -28.0097  -24.8210   19.9381 C   0  0  0  0  0  0
  -28.6350  -22.0511   19.9309 C   0  0  0  0  0  0
  -28.1490  -17.7994   16.6481 C   0  0  0  0  0  0
  -29.5750  -18.4050   20.7269 N   0  0  0  0  0  0
  -29.8601  -15.8372   20.8937 N   0  0  0  0  0  0
  -29.2170  -20.8218   20.5832 O   0  0  0  0  0  0
  -31.4790  -12.5704   19.1890 H   0  0  0  0  0  0
  -30.3705  -11.4583   19.9413 H   0  0  0  0  0  0
  -29.8066  -11.7784   17.5087 H   0  0  0  0  0  0
  -29.6502  -13.4982   17.7522 H   0  0  0  0  0  0
  -27.8916  -11.2980   18.8827 H   0  0  0  0  0  0
  -27.3910  -12.5656   17.7944 H   0  0  0  0  0  0
  -27.6504  -14.2601   19.4998 H   0  0  0  0  0  0
  -28.7198  -12.1274   21.4135 H   0  0  0  0  0  0
  -28.4216  -13.7944   21.8285 H   0  0  0  0  0  0
  -25.2781   -9.5718   22.4738 H   0  0  0  0  0  0
  -24.0015   -7.4677   22.7494 H   0  0  0  0  0  0
  -21.0832   -8.8780   19.8986 H   0  0  0  0  0  0
  -22.3672  -10.9683   19.6154 H   0  0  0  0  0  0
  -21.2018   -7.6153   23.9710 H   0  0  0  0  0  0
  -21.1468   -6.0520   25.9069 H   0  0  0  0  0  0
  -22.0604   -2.7605   23.2839 H   0  0  0  0  0  0
  -22.4080  -11.9956   22.4819 H   0  0  0  0  0  0
  -21.1110  -13.1330   22.2549 H   0  0  0  0  0  0
  -24.6573  -15.8459   20.4977 H   0  0  0  0  0  0
  -26.2729  -15.6285   20.0608 H   0  0  0  0  0  0
  -26.7216  -32.5377   23.1047 H   0  0  0  0  0  0
  -25.0107  -33.9674   25.0397 H   0  0  0  0  0  0
  -22.7299  -31.3014   21.3953 H   0  0  0  0  0  0
  -23.3770  -35.9592   23.3284 H   0  0  0  0  0  0
  -24.3580  -36.8922   22.2054 H   0  0  0  0  0  0
  -23.7221  -37.6462   23.6675 H   0  0  0  0  0  0
  -26.1239  -31.5142   20.6134 H   0  0  0  0  0  0
  -26.8572  -30.8015   22.0170 H   0  0  0  0  0  0
  -28.1112  -28.8739   21.2341 H   0  0  0  0  0  0
  -25.9277  -25.9229   18.9433 H   0  0  0  0  0  0
  -23.9694  -27.3361   18.9646 H   0  0  0  0  0  0
  -23.7681  -30.5869   19.3995 H   0  0  0  0  0  0
  -22.7673  -29.2438   19.8560 H   0  0  0  0  0  0
  -25.1303  -36.1912   25.0817 H   0  0  0  0  0  0
  -21.0006  -28.3297   24.1363 H   0  0  0  0  0  0
  -20.5665  -26.2321   23.3623 H   0  0  0  0  0  0
  -21.6652  -26.7415   22.1213 H   0  0  0  0  0  0
  -19.6928  -25.6278   21.1252 H   0  0  0  0  0  0
  -19.6718  -27.3167   20.6727 H   0  0  0  0  0  0
  -17.4224  -26.6691   21.4006 H   0  0  0  0  0  0
  -18.0336  -26.0064   22.8996 H   0  0  0  0  0  0
  -19.7950  -30.7314   24.2191 H   0  0  0  0  0  0
  -17.5013  -31.6250   24.5180 H   0  0  0  0  0  0
  -15.5357  -30.2952   23.7679 H   0  0  0  0  0  0
  -15.8692  -28.0814   22.7036 H   0  0  0  0  0  0
  -24.5918  -30.7056   25.7728 H   0  0  0  0  0  0
  -24.8897  -32.2876   26.4832 H   0  0  0  0  0  0
  -25.8024  -30.8891   27.0210 H   0  0  0  0  0  0
  -26.2976  -29.6705   24.1265 H   0  0  0  0  0  0
  -27.4064  -29.7274   25.4768 H   0  0  0  0  0  0
  -27.8854  -30.4260   23.9488 H   0  0  0  0  0  0
  -27.2711  -33.3616   26.2066 H   0  0  0  0  0  0
  -28.3895  -32.6856   25.0310 H   0  0  0  0  0  0
  -28.0754  -31.8426   26.5402 H   0  0  0  0  0  0
  -28.2594  -38.0102   24.7531 H   0  0  0  0  0  0
  -28.1105  -36.2637   24.6253 H   0  0  0  0  0  0
  -27.2307  -37.1386   25.8860 H   0  0  0  0  0  0
  -20.9416  -29.8772   21.6830 H   0  0  0  0  0  0
  -26.0178  -38.2847   24.1422 H   0  0  0  0  0  0
  -29.1268  -15.9505   18.4580 H   0  0  0  0  0  0
  -28.3326  -20.1516   18.0875 H   0  0  0  0  0  0
  -30.6775  -19.5625   14.7990 H   0  0  0  0  0  0
  -30.4169  -19.6844   16.6104 H   0  0  0  0  0  0
  -30.9879  -17.2625   16.8456 H   0  0  0  0  0  0
  -31.2266  -17.1284   15.0330 H   0  0  0  0  0  0
  -26.2774  -20.8031   16.0961 H   0  0  0  0  0  0
  -27.8819  -20.3925   15.3025 H   0  0  0  0  0  0
  -26.8092  -18.4326   14.1620 H   0  0  0  0  0  0
  -25.2105  -18.8301   14.9638 H   0  0  0  0  0  0
  -28.9249  -17.8381   14.5913 H   0  0  0  0  0  0
  -26.1816  -18.5869   17.2034 H   0  0  0  0  0  0
  -28.4728  -15.6225   16.4654 H   0  0  0  0  0  0
  -27.1616  -16.2183   15.4915 H   0  0  0  0  0  0
  -26.9348  -16.0564   17.2219 H   0  0  0  0  0  0
  -28.7904  -23.5505   21.5745 H   0  0  0  0  0  0
  -29.9516  -23.7965   20.3215 H   0  0  0  0  0  0
  -27.0065  -24.5983   20.3035 H   0  0  0  0  0  0
  -27.9580  -24.7243   18.8535 H   0  0  0  0  0  0
  -28.9655  -22.0567   18.8921 H   0  0  0  0  0  0
  -27.5563  -21.8965   19.8992 H   0  0  0  0  0  0
  -29.1068  -15.5776   21.5101 H   0  0  0  0  0  0
  1 25  1  0  0  0
  1 30  2  0  0  0
  1 88  1  0  0  0
  2  3  1  0  0  0
  2 25  1  0  0  0
  2 90  1  0  0  0
  2 91  1  0  0  0
  3  4  1  0  0  0
  3 92  1  0  0  0
  3 93  1  0  0  0
  4  5  1  0  0  0
  4 94  1  0  0  0
  4 95  1  0  0  0
  5  6  1  0  0  0
  5 26  1  0  0  0
  5 96  1  0  0  0
  6 25  1  0  0  0
  6 97  1  0  0  0
  6 98  1  0  0  0
  7  8  2  0  0  0
  7 26  1  0  0  0
  7 29  1  0  0  0
  8  9  1  0  0  0
  8 22  1  0  0  0
  9 10  1  0  0  0
  9 27  2  0  0  0
 10 11  2  0  0  0
 10 15  1  0  0  0
 11 12  1  0  0  0
 11 99  1  0  0  0
 12 13  2  0  0  0
 12100  1  0  0  0
 13 14  1  0  0  0
 13 31  1  0  0  0
 14 15  2  0  0  0
 14101  1  0  0  0
 15102  1  0  0  0
 16 17  2  0  0  0
 16 21  1  0  0  0
 16 31  1  0  0  0
 17 18  1  0  0  0
 17103  1  0  0  0
 18 19  2  0  0  0
 18104  1  0  0  0
 19 20  1  0  0  0
 19 24  1  0  0  0
 20 21  2  0  0  0
 20105  1  0  0  0
 21 23  1  0  0  0
 22 28  1  0  0  0
 22 32  2  0  0  0
 26 27  1  0  0  0
 28106  1  0  0  0
 28107  1  0  0  0
 29108  1  0  0  0
 29109  1  0  0  0
 33 34  1  0  0  0
 33 66  1  0  0  0
 33 70  2  0  0  0
 34 36  1  0  0  0
 34 59  1  0  0  0
 34110  1  0  0  0
 35 44  2  0  0  0
 35 45  1  0  0  0
 35 68  1  0  0  0
 36 56  1  0  0  0
 36111  1  0  0  0
 37 39  1  0  0  0
 37 47  1  0  0  0
 37 66  1  0  0  0
 37112  1  0  0  0
 38 43  2  0  0  0
 38 46  1  0  0  0
 38 47  1  0  0  0
 39 64  1  0  0  0
 39 67  2  0  0  0
 40 52  1  0  0  0
 40 53  2  0  0  0
 40 58  1  0  0  0
 41113  1  0  0  0
 41114  1  0  0  0
 41115  1  0  0  0
 41 48  1  0  0  0
 42 43  1  0  0  0
 42 66  1  0  0  0
 42116  1  0  0  0
 42117  1  0  0  0
 43 44  1  0  0  0
 44118  1  0  0  0
 45 46  2  0  0  0
 45119  1  0  0  0
 46120  1  0  0  0
 47121  1  0  0  0
 47122  1  0  0  0
 48 56  1  0  0  0
 48 65  1  0  0  0
 48123  1  0  0  0
 49 50  1  0  0  0
 49 53  1  0  0  0
 49 64  1  0  0  0
 49124  1  0  0  0
 50 51  1  0  0  0
 50125  1  0  0  0
 50126  1  0  0  0
 51 52  1  0  0  0
 51127  1  0  0  0
 51128  1  0  0  0
 52129  1  0  0  0
 52130  1  0  0  0
 53 54  1  0  0  0
 54 55  2  0  0  0
 54131  1  0  0  0
 55 57  1  0  0  0
 55132  1  0  0  0
 56 69  2  0  0  0
 57 58  2  0  0  0
 57133  1  0  0  0
 58134  1  0  0  0
 59 60  1  0  0  0
 59 61  1  0  0  0
 59 62  1  0  0  0
 60135  1  0  0  0
 60136  1  0  0  0
 60137  1  0  0  0
 61138  1  0  0  0
 61139  1  0  0  0
 61140  1  0  0  0
 62141  1  0  0  0
 62142  1  0  0  0
 62143  1  0  0  0
 63 65  1  0  0  0
 63144  1  0  0  0
 63145  1  0  0  0
 63146  1  0  0  0
 64147  1  0  0  0
 65148  1  0  0  0
 68 84  1  0  0  0
 71 73  2  0  0  0
 71 74  1  0  0  0
 71149  1  0  0  0
 72 73  1  0  0  0
 72 75  2  0  0  0
 72150  1  0  0  0
 73 86  1  0  0  0
 74 87  2  0  0  0
 74 88  1  0  0  0
 75 87  1  0  0  0
 75 89  1  0  0  0
 76 77  1  0  0  0
 76151  1  0  0  0
 76152  1  0  0  0
 76 80  1  0  0  0
 77 80  1  0  0  0
 77153  1  0  0  0
 77154  1  0  0  0
 78 79  1  0  0  0
 78155  1  0  0  0
 78156  1  0  0  0
 78 81  1  0  0  0
 79 81  1  0  0  0
 79157  1  0  0  0
 79158  1  0  0  0
 80 86  1  0  0  0
 80159  1  0  0  0
 81 86  1  0  0  0
 81160  1  0  0  0
 82161  1  0  0  0
 82162  1  0  0  0
 82163  1  0  0  0
 82 86  1  0  0  0
 83 84  1  0  0  0
 83 85  1  0  0  0
 83164  1  0  0  0
 83165  1  0  0  0
 84166  1  0  0  0
 84167  1  0  0  0
 85 89  1  0  0  0
 85168  1  0  0  0
 85169  1  0  0  0
 88170  1  0  0  0
M  ISO  4   1 100  68 101  84 101  88 100
M  END
> <chiral flag>
0

> <version>
0

> <s_m_source_file>
/data/baiqing/PycharmProjects/Reinvent-master-3.2/result/LINK_invent/BTK/process_docking_weight1_custom_sum_contain_oxygen_bond_distance_aromatic_linkinvent_7_9_3/rearranged_h_0146.sdf

> <i_m_source_file_index>
29

> <r_mmod_Potential_Energy-OPLS-2005>
161.006378173828

> <r_mmod_Stretch_Energy-OPLS-2005>
147.628524780273

> <r_mmod_Bend_Energy-OPLS-2005>
193.321075439453

> <r_mmod_Torsional_Energy-OPLS-2005>
332.865844726562

> <r_mmod_Improper_Torsional_Energy-OPLS-2005>
5.64636421203613

> <r_mmod_Van_der_Waal_Energy-OPLS-2005>
145.081680297852

> <r_mmod_Electrostatic_Energy-OPLS-2005>
-533.877624511719

> <r_mmod_Solvation_Energy-OPLS-2005>
-223.625839233398

> <b_mmod_Minimization_Converged-OPLS-2005>
0

> <r_mmod_RMS_Derivative-OPLS-2005>
2.1477792263031

$$$$
29
                    3D
 Structure written by MMmdl.
163172  0  0  1  0            999 V2000
  -30.5562  -14.8023   20.5107 C   0  0  0  0  0  0
  -30.4492  -12.5131   19.4748 C   0  0  0  0  0  0
  -29.5148  -12.5347   18.2424 C   0  0  0  0  0  0
  -28.0470  -12.3223   18.6611 C   0  0  0  0  0  0
  -27.6438  -13.2255   19.8558 C   0  0  2  0  0  0
  -28.6839  -13.1490   20.9939 C   0  0  0  0  0  0
  -25.2534  -13.8171   20.5697 C   0  0  0  0  0  0
  -24.1817  -13.0436   20.9198 C   0  0  0  0  0  0
  -24.6397  -11.6894   20.8744 C   0  0  0  0  0  0
  -23.9080  -10.4281   21.0417 C   0  0  0  0  0  0
  -24.3632   -9.4192   21.9193 C   0  0  0  0  0  0
  -23.6307   -8.2236   22.0755 C   0  0  0  0  0  0
  -22.4287   -8.0280   21.3541 C   0  0  0  0  0  0
  -21.9927   -9.0251   20.4641 C   0  0  0  0  0  0
  -22.7264  -10.2131   20.3051 C   0  0  0  0  0  0
  -21.6851   -6.0745   22.5284 C   0  0  0  0  0  0
  -21.3989   -6.5644   23.8215 C   0  0  0  0  0  0
  -21.3640   -5.6802   24.9178 C   0  0  0  0  0  0
  -21.6046   -4.3066   24.7227 C   0  0  0  0  0  0
  -21.8826   -3.8156   23.4355 C   0  0  0  0  0  0
  -21.9194   -4.6976   22.3408 C   0  0  0  0  0  0
  -22.7835  -13.5229   21.1857 C   0  0  0  0  0  0
  -22.1675   -4.2165   21.0984 F   0  0  0  0  0  0
  -21.5626   -3.4544   25.7736 F   0  0  0  0  0  0
  -29.9762  -13.5507   20.4270 N   0  0  0  0  0  0
  -26.2945  -12.9358   20.3285 N   0  0  0  0  0  0
  -25.9329  -11.6507   20.5758 N   0  0  0  0  0  0
  -22.0473  -12.8193   22.0369 N   0  0  0  0  0  0
  -25.4243  -15.1904   20.4108 N   0  0  0  0  0  0
  -31.7291  -14.9462   20.1524 O   0  0  0  0  0  0
  -21.6634   -6.8889   21.4251 O   0  0  0  0  0  0
  -22.3525  -14.5544   20.6712 O   0  0  0  0  0  0
  -24.6355  -31.8532   23.1919 C   0  0  0  0  0  0
  -25.9153  -32.4753   23.8303 C   0  0  1  0  0  0
  -27.2122  -27.2258   20.1611 C   0  0  0  0  0  0
  -25.5912  -33.8549   24.2229 N   0  0  0  0  0  0
  -23.4336  -30.4760   21.5347 C   0  0  2  0  0  0
  -24.8802  -28.9185   20.1058 C   0  0  0  0  0  0
  -22.7529  -29.4617   22.4861 C   0  0  0  0  0  0
  -18.0292  -28.1426   22.8487 C   0  0  0  0  0  0
  -24.1433  -36.7208   23.2666 C   0  0  0  0  0  0
  -25.9813  -30.7587   21.3742 C   0  0  0  0  0  0
  -26.0528  -29.3779   20.7206 C   0  0  0  0  0  0
  -27.2222  -28.5482   20.7292 C   0  0  0  0  0  0
  -26.0212  -26.8472   19.5002 C   0  0  0  0  0  0
  -24.8736  -27.6644   19.4778 C   0  0  0  0  0  0
  -23.6522  -29.8085   20.1515 C   0  0  0  0  0  0
  -25.4074  -36.3048   24.0346 C   0  0  1  0  0  0
  -20.5907  -28.3730   23.1209 C   0  0  2  0  0  0
  -20.6764  -26.9436   22.5374 C   0  0  0  0  0  0
  -19.5725  -26.6390   21.5202 C   0  0  0  0  0  0
  -18.1912  -26.7968   22.1604 C   0  0  0  0  0  0
  -19.1555  -28.8892   23.2850 C   0  0  0  0  0  0
  -18.9504  -30.1485   23.8884 C   0  0  0  0  0  0
  -17.6519  -30.6628   24.0595 C   0  0  0  0  0  0
  -25.9052  -34.9442   23.5090 C   0  0  0  0  0  0
  -16.5395  -29.9139   23.6375 C   0  0  0  0  0  0
  -16.7278  -28.6548   23.0378 C   0  0  0  0  0  0
  -26.4506  -31.6610   25.0720 C   0  0  0  0  0  0
  -25.3702  -31.3705   26.1409 C   0  0  0  0  0  0
  -27.0478  -30.3081   24.6217 C   0  0  0  0  0  0
  -27.6033  -32.4395   25.7505 C   0  0  0  0  0  0
  -27.5529  -37.1761   24.8493 C   0  0  0  0  0  0
  -21.4234  -29.3085   22.3601 N   0  0  0  0  0  0
  -26.4221  -37.3778   23.9470 N   0  0  0  0  0  0
  -24.7034  -31.0500   22.0904 N   0  0  0  0  0  0
  -23.4200  -28.8168   23.2989 O   0  0  0  0  0  0
  -28.2782  -26.2917   20.2685 O   0  0  0  0  0  0
  -26.5660  -34.8945   22.4683 O   0  0  0  0  0  0
  -23.5478  -32.1347   23.7174 O   0  0  0  0  0  0
  -28.3064  -19.6071   20.3761 C   0  0  0  0  0  0
  -30.0056  -19.7810   22.1159 C   0  0  0  0  0  0
  -28.9614  -18.2557   19.8178 C   0  0  0  0  0  0
  -29.9201  -18.1857   22.1163 C   0  0  0  0  0  0
  -29.3243  -20.6503   20.9681 C   0  0  2  0  0  0
  -29.0401  -23.6876   20.7941 C   0  0  2  0  0  0
  -29.9569  -17.4320   20.7438 C   0  0  1  0  0  0
  -28.8142  -22.1685   21.4194 C   0  0  2  0  0  0
  -29.5387  -24.0330   22.1979 C   0  0  2  0  0  0
  -30.7830  -24.8989   22.4049 C   0  0  0  0  0  0
  -27.9748  -24.8003   20.2632 C   0  0  0  0  0  0
  -29.7423  -15.8989   20.8171 N   0  0  0  0  0  0
  -29.7761  -22.6231   22.4361 N   0  3  0  0  0  0
  -31.4777  -12.6926   19.1571 H   0  0  0  0  0  0
  -30.4517  -11.5310   19.9481 H   0  0  0  0  0  0
  -29.8169  -11.7729   17.5222 H   0  0  0  0  0  0
  -29.6083  -13.4927   17.7290 H   0  0  0  0  0  0
  -27.9313  -11.2737   18.9386 H   0  0  0  0  0  0
  -27.3813  -12.4894   17.8135 H   0  0  0  0  0  0
  -27.6403  -14.2475   19.4755 H   0  0  0  0  0  0
  -28.7439  -12.1352   21.3935 H   0  0  0  0  0  0
  -28.4016  -13.7901   21.8302 H   0  0  0  0  0  0
  -25.2784   -9.5668   22.4771 H   0  0  0  0  0  0
  -24.0011   -7.4622   22.7465 H   0  0  0  0  0  0
  -21.0872   -8.8791   19.8933 H   0  0  0  0  0  0
  -22.3759  -10.9674   19.6148 H   0  0  0  0  0  0
  -21.1961   -7.6146   23.9728 H   0  0  0  0  0  0
  -21.1447   -6.0519   25.9085 H   0  0  0  0  0  0
  -22.0618   -2.7621   23.2851 H   0  0  0  0  0  0
  -22.4073  -11.9838   22.4723 H   0  0  0  0  0  0
  -21.1066  -13.1178   22.2536 H   0  0  0  0  0  0
  -24.6539  -15.8420   20.5114 H   0  0  0  0  0  0
  -26.2716  -15.6301   20.0735 H   0  0  0  0  0  0
  -26.7246  -32.5399   23.1073 H   0  0  0  0  0  0
  -25.0073  -33.9677   25.0376 H   0  0  0  0  0  0
  -22.7344  -31.3017   21.3843 H   0  0  0  0  0  0
  -23.3754  -35.9488   23.3336 H   0  0  0  0  0  0
  -24.3506  -36.8796   22.2075 H   0  0  0  0  0  0
  -23.7085  -37.6365   23.6683 H   0  0  0  0  0  0
  -26.1238  -31.5132   20.5987 H   0  0  0  0  0  0
  -26.8599  -30.8112   22.0057 H   0  0  0  0  0  0
  -28.1155  -28.8930   21.2322 H   0  0  0  0  0  0
  -25.9465  -25.8832   19.0189 H   0  0  0  0  0  0
  -23.9813  -27.3066   18.9830 H   0  0  0  0  0  0
  -23.7738  -30.5847   19.3956 H   0  0  0  0  0  0
  -22.7702  -29.2422   19.8437 H   0  0  0  0  0  0
  -25.1225  -36.1910   25.0834 H   0  0  0  0  0  0
  -21.0018  -28.3341   24.1315 H   0  0  0  0  0  0
  -20.5622  -26.2377   23.3612 H   0  0  0  0  0  0
  -21.6619  -26.7423   22.1195 H   0  0  0  0  0  0
  -19.6893  -25.6300   21.1230 H   0  0  0  0  0  0
  -19.6654  -27.3207   20.6746 H   0  0  0  0  0  0
  -17.4168  -26.6745   21.4020 H   0  0  0  0  0  0
  -18.0308  -26.0101   22.8988 H   0  0  0  0  0  0
  -19.8000  -30.7299   24.2211 H   0  0  0  0  0  0
  -17.5096  -31.6304   24.5210 H   0  0  0  0  0  0
  -15.5412  -30.3059   23.7715 H   0  0  0  0  0  0
  -15.8658  -28.0880   22.7123 H   0  0  0  0  0  0
  -24.5935  -30.7006   25.7686 H   0  0  0  0  0  0
  -24.8829  -32.2842   26.4823 H   0  0  0  0  0  0
  -25.7978  -30.8879   27.0209 H   0  0  0  0  0  0
  -26.3150  -29.6740   24.1214 H   0  0  0  0  0  0
  -27.4233  -29.7388   25.4739 H   0  0  0  0  0  0
  -27.8939  -30.4451   23.9476 H   0  0  0  0  0  0
  -27.2671  -33.3785   26.1907 H   0  0  0  0  0  0
  -28.3928  -32.6798   25.0372 H   0  0  0  0  0  0
  -28.0620  -31.8633   26.5541 H   0  0  0  0  0  0
  -28.2547  -38.0069   24.7587 H   0  0  0  0  0  0
  -28.1001  -36.2591   24.6248 H   0  0  0  0  0  0
  -27.2261  -37.1332   25.8902 H   0  0  0  0  0  0
  -20.9451  -29.8788   21.6782 H   0  0  0  0  0  0
  -26.0085  -38.2829   24.1550 H   0  0  0  0  0  0
  -27.5775  -19.3379   21.1449 H   0  0  0  0  0  0
  -27.7160  -20.0678   19.5854 H   0  0  0  0  0  0
  -31.0582  -20.0652   22.1722 H   0  0  0  0  0  0
  -29.5752  -20.0746   23.0754 H   0  0  0  0  0  0
  -29.5139  -18.5345   18.9190 H   0  0  0  0  0  0
  -28.1611  -17.6014   19.4671 H   0  0  0  0  0  0
  -28.9952  -17.9068   22.6237 H   0  0  0  0  0  0
  -30.7113  -17.7984   22.7602 H   0  0  0  0  0  0
  -30.0768  -20.7877   20.1922 H   0  0  0  0  0  0
  -29.8921  -23.6437   20.1135 H   0  0  0  0  0  0
  -30.9557  -17.5846   20.3310 H   0  0  0  0  0  0
  -27.8323  -22.1260   21.8962 H   0  0  0  0  0  0
  -28.7056  -24.3528   22.8271 H   0  0  0  0  0  0
  -31.6329  -24.5487   21.8177 H   0  0  0  0  0  0
  -31.0857  -24.9135   23.4532 H   0  0  0  0  0  0
  -30.5959  -25.9326   22.1111 H   0  0  0  0  0  0
  -27.0484  -24.6616   20.8241 H   0  0  0  0  0  0
  -27.7316  -24.5410   19.2330 H   0  0  0  0  0  0
  -28.8091  -15.6287   21.0871 H   0  0  0  0  0  0
  -30.7172  -22.3697   22.1814 H   0  0  0  0  0  0
  -29.5636  -22.3303   23.3760 H   0  0  0  0  0  0
  1 25  1  0  0  0
  1 30  2  0  0  0
  1 82  1  0  0  0
  2  3  1  0  0  0
  2 25  1  0  0  0
  2 84  1  0  0  0
  2 85  1  0  0  0
  3  4  1  0  0  0
  3 86  1  0  0  0
  3 87  1  0  0  0
  4  5  1  0  0  0
  4 88  1  0  0  0
  4 89  1  0  0  0
  5  6  1  0  0  0
  5 26  1  0  0  0
  5 90  1  0  0  0
  6 25  1  0  0  0
  6 91  1  0  0  0
  6 92  1  0  0  0
  7  8  2  0  0  0
  7 26  1  0  0  0
  7 29  1  0  0  0
  8  9  1  0  0  0
  8 22  1  0  0  0
  9 10  1  0  0  0
  9 27  2  0  0  0
 10 11  2  0  0  0
 10 15  1  0  0  0
 11 12  1  0  0  0
 11 93  1  0  0  0
 12 13  2  0  0  0
 12 94  1  0  0  0
 13 14  1  0  0  0
 13 31  1  0  0  0
 14 15  2  0  0  0
 14 95  1  0  0  0
 15 96  1  0  0  0
 16 17  2  0  0  0
 16 21  1  0  0  0
 16 31  1  0  0  0
 17 18  1  0  0  0
 17 97  1  0  0  0
 18 19  2  0  0  0
 18 98  1  0  0  0
 19 20  1  0  0  0
 19 24  1  0  0  0
 20 21  2  0  0  0
 20 99  1  0  0  0
 21 23  1  0  0  0
 22 28  1  0  0  0
 22 32  2  0  0  0
 26 27  1  0  0  0
 28100  1  0  0  0
 28101  1  0  0  0
 29102  1  0  0  0
 29103  1  0  0  0
 33 34  1  0  0  0
 33 66  1  0  0  0
 33 70  2  0  0  0
 34 36  1  0  0  0
 34 59  1  0  0  0
 34104  1  0  0  0
 35 44  2  0  0  0
 35 45  1  0  0  0
 35 68  1  0  0  0
 36 56  1  0  0  0
 36105  1  0  0  0
 37 39  1  0  0  0
 37 47  1  0  0  0
 37 66  1  0  0  0
 37106  1  0  0  0
 38 43  2  0  0  0
 38 46  1  0  0  0
 38 47  1  0  0  0
 39 64  1  0  0  0
 39 67  2  0  0  0
 40 52  1  0  0  0
 40 53  2  0  0  0
 40 58  1  0  0  0
 41107  1  0  0  0
 41108  1  0  0  0
 41109  1  0  0  0
 41 48  1  0  0  0
 42 43  1  0  0  0
 42 66  1  0  0  0
 42110  1  0  0  0
 42111  1  0  0  0
 43 44  1  0  0  0
 44112  1  0  0  0
 45 46  2  0  0  0
 45113  1  0  0  0
 46114  1  0  0  0
 47115  1  0  0  0
 47116  1  0  0  0
 48 56  1  0  0  0
 48 65  1  0  0  0
 48117  1  0  0  0
 49 50  1  0  0  0
 49 53  1  0  0  0
 49 64  1  0  0  0
 49118  1  0  0  0
 50 51  1  0  0  0
 50119  1  0  0  0
 50120  1  0  0  0
 51 52  1  0  0  0
 51121  1  0  0  0
 51122  1  0  0  0
 52123  1  0  0  0
 52124  1  0  0  0
 53 54  1  0  0  0
 54 55  2  0  0  0
 54125  1  0  0  0
 55 57  1  0  0  0
 55126  1  0  0  0
 56 69  2  0  0  0
 57 58  2  0  0  0
 57127  1  0  0  0
 58128  1  0  0  0
 59 60  1  0  0  0
 59 61  1  0  0  0
 59 62  1  0  0  0
 60129  1  0  0  0
 60130  1  0  0  0
 60131  1  0  0  0
 61132  1  0  0  0
 61133  1  0  0  0
 61134  1  0  0  0
 62135  1  0  0  0
 62136  1  0  0  0
 62137  1  0  0  0
 63 65  1  0  0  0
 63138  1  0  0  0
 63139  1  0  0  0
 63140  1  0  0  0
 64141  1  0  0  0
 65142  1  0  0  0
 68 81  1  0  0  0
 71 73  1  0  0  0
 71143  1  0  0  0
 71144  1  0  0  0
 71 75  1  0  0  0
 72 74  1  0  0  0
 72 75  1  0  0  0
 72145  1  0  0  0
 72146  1  0  0  0
 73 77  1  0  0  0
 73147  1  0  0  0
 73148  1  0  0  0
 74 77  1  0  0  0
 74149  1  0  0  0
 74150  1  0  0  0
 75 78  1  0  0  0
 75151  1  0  0  0
 76 78  1  0  0  0
 76 79  1  0  0  0
 76 81  1  0  0  0
 76152  1  0  0  0
 77 82  1  0  0  0
 77153  1  0  0  0
 78 83  1  0  0  0
 78154  1  0  0  0
 79 80  1  0  0  0
 79 83  1  0  0  0
 79155  1  0  0  0
 80156  1  0  0  0
 80157  1  0  0  0
 80158  1  0  0  0
 81159  1  0  0  0
 81160  1  0  0  0
 82161  1  0  0  0
 83162  1  0  0  0
 83163  1  0  0  0
M  CHG  1  83   1
M  ISO  4   1 100  68 101  81 101  82 100
M  END
> <chiral flag>
0

> <version>
0

> <s_m_source_file>
/data/baiqing/PycharmProjects/Reinvent-master-3.2/result/LINK_invent/BTK/process_docking_weight1_custom_sum_contain_oxygen_bond_distance_aromatic_linkinvent_7_9_3/rearranged_h_0146.sdf

> <i_m_source_file_index>
30

> <r_mmod_Potential_Energy-OPLS-2005>
204.047805786133

> <r_mmod_Stretch_Energy-OPLS-2005>
165.749450683594

> <r_mmod_Bend_Energy-OPLS-2005>
225.825485229492

> <r_mmod_Torsional_Energy-OPLS-2005>
293.041900634766

> <r_mmod_Improper_Torsional_Energy-OPLS-2005>
4.16648292541504

> <r_mmod_Van_der_Waal_Energy-OPLS-2005>
124.673057556152

> <r_mmod_Electrostatic_Energy-OPLS-2005>
-257.508178710938

> <r_mmod_Solvation_Energy-OPLS-2005>
-467.102508544922

> <b_mmod_Minimization_Converged-OPLS-2005>
0

> <r_mmod_RMS_Derivative-OPLS-2005>
4.28882884979248

$$$$
30
                    3D
 Structure written by MMmdl.
174185  0  0  1  0            999 V2000
  -30.7452  -14.4019   20.5952 C   0  0  0  0  0  0
  -30.4092  -12.2683   19.4169 C   0  0  0  0  0  0
  -29.4868  -12.4990   18.2041 C   0  0  0  0  0  0
  -28.0100  -12.3524   18.6168 C   0  0  0  0  0  0
  -27.6591  -13.1921   19.8728 C   0  0  2  0  0  0
  -28.7027  -12.9863   20.9967 C   0  0  0  0  0  0
  -25.2597  -13.8131   20.5680 C   0  0  0  0  0  0
  -24.1835  -13.0431   20.9189 C   0  0  0  0  0  0
  -24.6374  -11.6891   20.8755 C   0  0  0  0  0  0
  -23.9044  -10.4287   21.0430 C   0  0  0  0  0  0
  -24.3600   -9.4202   21.9206 C   0  0  0  0  0  0
  -23.6279   -8.2231   22.0763 C   0  0  0  0  0  0
  -22.4262   -8.0283   21.3546 C   0  0  0  0  0  0
  -21.9905   -9.0262   20.4652 C   0  0  0  0  0  0
  -22.7228  -10.2143   20.3068 C   0  0  0  0  0  0
  -21.6842   -6.0736   22.5278 C   0  0  0  0  0  0
  -21.4007   -6.5639   23.8216 C   0  0  0  0  0  0
  -21.3662   -5.6792   24.9172 C   0  0  0  0  0  0
  -21.6049   -4.3056   24.7228 C   0  0  0  0  0  0
  -21.8820   -3.8151   23.4344 C   0  0  0  0  0  0
  -21.9186   -4.6962   22.3404 C   0  0  0  0  0  0
  -22.7864  -13.5246   21.1852 C   0  0  0  0  0  0
  -22.1654   -4.2148   21.0977 F   0  0  0  0  0  0
  -21.5638   -3.4544   25.7743 F   0  0  0  0  0  0
  -30.0423  -13.2493   20.4473 N   0  0  0  0  0  0
  -26.3009  -12.9266   20.3368 N   0  0  0  0  0  0
  -25.9296  -11.6441   20.5794 N   0  0  0  0  0  0
  -22.0488  -12.8255   22.0403 N   0  0  0  0  0  0
  -25.4339  -15.1850   20.4077 N   0  0  0  0  0  0
  -31.8575  -14.5664   20.0885 O   0  0  0  0  0  0
  -21.6622   -6.8881   21.4245 O   0  0  0  0  0  0
  -22.3568  -14.5566   20.6703 O   0  0  0  0  0  0
  -24.6086  -31.8718   23.2120 C   0  0  0  0  0  0
  -25.9008  -32.4831   23.8409 C   0  0  1  0  0  0
  -27.2379  -27.4724   20.0952 C   0  0  0  0  0  0
  -25.5899  -33.8632   24.2339 N   0  0  0  0  0  0
  -23.3934  -30.4939   21.5526 C   0  0  2  0  0  0
  -24.8380  -28.9576   20.1236 C   0  0  0  0  0  0
  -22.7371  -29.4676   22.5019 C   0  0  0  0  0  0
  -18.0263  -28.1387   22.8507 C   0  0  0  0  0  0
  -24.1485  -36.7317   23.2637 C   0  0  0  0  0  0
  -25.9159  -30.8471   21.3599 C   0  0  0  0  0  0
  -25.9927  -29.4822   20.7138 C   0  0  0  0  0  0
  -27.1924  -28.7463   20.6946 C   0  0  0  0  0  0
  -26.0651  -26.9462   19.5058 C   0  0  0  0  0  0
  -24.8668  -27.6876   19.5203 C   0  0  0  0  0  0
  -23.5999  -29.8227   20.1689 C   0  0  0  0  0  0
  -25.4109  -36.3111   24.0334 C   0  0  1  0  0  0
  -20.5847  -28.3659   23.1338 C   0  0  2  0  0  0
  -20.6745  -26.9403   22.5426 C   0  0  0  0  0  0
  -19.5721  -26.6386   21.5224 C   0  0  0  0  0  0
  -18.1900  -26.7935   22.1641 C   0  0  0  0  0  0
  -19.1511  -28.8844   23.2913 C   0  0  0  0  0  0
  -18.9451  -30.1463   23.8906 C   0  0  0  0  0  0
  -17.6452  -30.6599   24.0581 C   0  0  0  0  0  0
  -25.9040  -34.9480   23.5123 C   0  0  0  0  0  0
  -16.5341  -29.9106   23.6339 C   0  0  0  0  0  0
  -16.7255  -28.6528   23.0347 C   0  0  0  0  0  0
  -26.4478  -31.6590   25.0714 C   0  0  0  0  0  0
  -25.3776  -31.3662   26.1480 C   0  0  0  0  0  0
  -27.0313  -30.3039   24.6059 C   0  0  0  0  0  0
  -27.6058  -32.4310   25.7481 C   0  0  0  0  0  0
  -27.5583  -37.1803   24.8471 C   0  0  0  0  0  0
  -21.4112  -29.3015   22.3738 N   0  0  0  0  0  0
  -26.4292  -37.3801   23.9420 N   0  0  0  0  0  0
  -24.6571  -31.0851   22.1006 N   0  0  0  0  0  0
  -23.4156  -28.8227   23.3059 O   0  0  0  0  0  0
  -28.4628  -26.8545   20.0531 O   0  0  0  0  0  0
  -26.5597  -34.8923   22.4682 O   0  0  0  0  0  0
  -23.5291  -32.1476   23.7538 O   0  0  0  0  0  0
  -31.9277  -18.7917   23.7956 C   0  0  0  0  0  0
  -32.2084  -17.3445   23.4808 C   0  0  0  0  0  0
  -28.7882  -24.9902   21.5436 C   0  0  0  0  0  0
  -29.8197  -25.1159   19.2307 C   0  0  0  0  0  0
  -30.8859  -21.0847   19.2851 C   0  0  0  0  0  0
  -29.0974  -16.3482   20.4540 C   0  0  0  0  0  0
  -29.2712  -23.5239   21.6773 C   0  0  0  0  0  0
  -30.7061  -24.0134   19.8251 C   0  0  0  0  0  0
  -31.0737  -19.6175   19.6256 C   0  0  0  0  0  0
  -29.9651  -20.6537   21.4869 C   0  0  0  0  0  0
  -30.0809  -15.5480   21.2895 C   0  0  2  0  0  0
  -31.8443  -18.2994   22.3656 C   0  0  0  0  0  0
  -30.4382  -16.9386   20.7774 C   0  0  2  0  0  0
  -30.6467  -21.7605   20.6442 C   0  0  2  0  0  0
  -28.5831  -25.4387   20.0865 C   0  0  0  0  0  0
  -30.5035  -18.1869   21.6380 C   0  0  2  0  0  0
  -29.8573  -22.9848   20.4353 N   0  0  0  0  0  0
  -30.1883  -19.3694   20.7856 N   0  3  2  0  0  0
  -31.4568  -12.3375   19.1194 H   0  0  0  0  0  0
  -30.2787  -11.2578   19.8072 H   0  0  0  0  0  0
  -29.7242  -11.7867   17.4124 H   0  0  0  0  0  0
  -29.6608  -13.4929   17.7876 H   0  0  0  0  0  0
  -27.8227  -11.2956   18.8114 H   0  0  0  0  0  0
  -27.3566  -12.6251   17.7871 H   0  0  0  0  0  0
  -27.6933  -14.2313   19.5621 H   0  0  0  0  0  0
  -28.6622  -11.9611   21.3674 H   0  0  0  0  0  0
  -28.4708  -13.6177   21.8547 H   0  0  0  0  0  0
  -25.2745   -9.5676   22.4788 H   0  0  0  0  0  0
  -23.9986   -7.4620   22.7478 H   0  0  0  0  0  0
  -21.0838   -8.8792   19.8958 H   0  0  0  0  0  0
  -22.3698  -10.9689   19.6177 H   0  0  0  0  0  0
  -21.1991   -7.6148   23.9720 H   0  0  0  0  0  0
  -21.1491   -6.0519   25.9078 H   0  0  0  0  0  0
  -22.0598   -2.7612   23.2847 H   0  0  0  0  0  0
  -22.4071  -11.9894   22.4782 H   0  0  0  0  0  0
  -21.1121  -13.1317   22.2621 H   0  0  0  0  0  0
  -24.6725  -15.8463   20.5204 H   0  0  0  0  0  0
  -26.2923  -15.6204   20.0959 H   0  0  0  0  0  0
  -26.7066  -32.5571   23.1170 H   0  0  0  0  0  0
  -25.0069  -33.9810   25.0494 H   0  0  0  0  0  0
  -22.6792  -31.3085   21.4125 H   0  0  0  0  0  0
  -23.3757  -35.9637   23.3288 H   0  0  0  0  0  0
  -24.3580  -36.8966   22.2055 H   0  0  0  0  0  0
  -23.7233  -37.6506   23.6684 H   0  0  0  0  0  0
  -26.0213  -31.6123   20.5902 H   0  0  0  0  0  0
  -26.8045  -30.9017   21.9761 H   0  0  0  0  0  0
  -28.0909  -29.1576   21.1330 H   0  0  0  0  0  0
  -26.0603  -25.9926   19.0014 H   0  0  0  0  0  0
  -23.9772  -27.2843   19.0564 H   0  0  0  0  0  0
  -23.7117  -30.5970   19.4095 H   0  0  0  0  0  0
  -22.7243  -29.2431   19.8713 H   0  0  0  0  0  0
  -25.1277  -36.1964   25.0826 H   0  0  0  0  0  0
  -20.9935  -28.3233   24.1460 H   0  0  0  0  0  0
  -20.5668  -26.2267   23.3611 H   0  0  0  0  0  0
  -21.6617  -26.7457   22.1216 H   0  0  0  0  0  0
  -19.6882  -25.6302   21.1246 H   0  0  0  0  0  0
  -19.6653  -27.3206   20.6762 H   0  0  0  0  0  0
  -17.4168  -26.6708   21.4037 H   0  0  0  0  0  0
  -18.0287  -26.0066   22.9027 H   0  0  0  0  0  0
  -19.7924  -30.7285   24.2251 H   0  0  0  0  0  0
  -17.5017  -31.6275   24.5204 H   0  0  0  0  0  0
  -15.5347  -30.3017   23.7664 H   0  0  0  0  0  0
  -15.8659  -28.0869   22.7025 H   0  0  0  0  0  0
  -24.5972  -30.6973   25.7836 H   0  0  0  0  0  0
  -24.8931  -32.2791   26.4942 H   0  0  0  0  0  0
  -25.8165  -30.8852   27.0230 H   0  0  0  0  0  0
  -26.2835  -29.6783   24.1167 H   0  0  0  0  0  0
  -27.4163  -29.7277   25.4484 H   0  0  0  0  0  0
  -27.8631  -30.4359   23.9137 H   0  0  0  0  0  0
  -27.2679  -33.3600   26.2082 H   0  0  0  0  0  0
  -28.3861  -32.6891   25.0311 H   0  0  0  0  0  0
  -28.0742  -31.8433   26.5388 H   0  0  0  0  0  0
  -28.2582  -38.0116   24.7548 H   0  0  0  0  0  0
  -28.1101  -36.2650   24.6267 H   0  0  0  0  0  0
  -27.2305  -37.1416   25.8874 H   0  0  0  0  0  0
  -20.9278  -29.8719   21.6950 H   0  0  0  0  0  0
  -26.0178  -38.2868   24.1465 H   0  0  0  0  0  0
  -32.7721  -19.4245   24.0620 H   0  0  0  0  0  0
  -31.0006  -19.0089   24.3232 H   0  0  0  0  0  0
  -31.4690  -16.6137   23.8000 H   0  0  0  0  0  0
  -33.2427  -17.0102   23.5321 H   0  0  0  0  0  0
  -29.5291  -25.6420   22.0102 H   0  0  0  0  0  0
  -27.8694  -25.1350   22.1131 H   0  0  0  0  0  0
  -29.4916  -24.8279   18.2315 H   0  0  0  0  0  0
  -30.4346  -26.0066   19.0927 H   0  0  0  0  0  0
  -30.0118  -21.1872   18.6390 H   0  0  0  0  0  0
  -31.7442  -21.4801   18.7408 H   0  0  0  0  0  0
  -28.2161  -16.7227   20.9704 H   0  0  0  0  0  0
  -28.9430  -16.0783   19.4113 H   0  0  0  0  0  0
  -28.4237  -22.9063   21.9762 H   0  0  0  0  0  0
  -29.9941  -23.4700   22.4942 H   0  0  0  0  0  0
  -31.3847  -24.4281   20.5744 H   0  0  0  0  0  0
  -31.3402  -23.6245   19.0287 H   0  0  0  0  0  0
  -32.1203  -19.4454   19.8679 H   0  0  0  0  0  0
  -30.8255  -18.9774   18.7785 H   0  0  0  0  0  0
  -28.8861  -20.7871   21.5551 H   0  0  0  0  0  0
  -30.3537  -20.6544   22.5049 H   0  0  0  0  0  0
  -29.9063  -15.4466   22.3583 H   0  0  0  0  0  0
  -32.6875  -18.5422   21.7254 H   0  0  0  0  0  0
  -31.1574  -16.9576   19.9599 H   0  0  0  0  0  0
  -31.6074  -21.9929   21.1100 H   0  0  0  0  0  0
  -27.7304  -24.9051   19.6696 H   0  0  0  0  0  0
  -29.7183  -18.1101   22.3930 H   0  0  0  0  0  0
  -29.2868  -19.1670   20.3791 H   0  0  0  0  0  0
  1 25  1  0  0  0
  1 30  2  0  0  0
  1 81  1  0  0  0
  2  3  1  0  0  0
  2 25  1  0  0  0
  2 89  1  0  0  0
  2 90  1  0  0  0
  3  4  1  0  0  0
  3 91  1  0  0  0
  3 92  1  0  0  0
  4  5  1  0  0  0
  4 93  1  0  0  0
  4 94  1  0  0  0
  5  6  1  0  0  0
  5 26  1  0  0  0
  5 95  1  0  0  0
  6 25  1  0  0  0
  6 96  1  0  0  0
  6 97  1  0  0  0
  7  8  2  0  0  0
  7 26  1  0  0  0
  7 29  1  0  0  0
  8  9  1  0  0  0
  8 22  1  0  0  0
  9 10  1  0  0  0
  9 27  2  0  0  0
 10 11  2  0  0  0
 10 15  1  0  0  0
 11 12  1  0  0  0
 11 98  1  0  0  0
 12 13  2  0  0  0
 12 99  1  0  0  0
 13 14  1  0  0  0
 13 31  1  0  0  0
 14 15  2  0  0  0
 14100  1  0  0  0
 15101  1  0  0  0
 16 17  2  0  0  0
 16 21  1  0  0  0
 16 31  1  0  0  0
 17 18  1  0  0  0
 17102  1  0  0  0
 18 19  2  0  0  0
 18103  1  0  0  0
 19 20  1  0  0  0
 19 24  1  0  0  0
 20 21  2  0  0  0
 20104  1  0  0  0
 21 23  1  0  0  0
 22 28  1  0  0  0
 22 32  2  0  0  0
 26 27  1  0  0  0
 28105  1  0  0  0
 28106  1  0  0  0
 29107  1  0  0  0
 29108  1  0  0  0
 33 34  1  0  0  0
 33 66  1  0  0  0
 33 70  2  0  0  0
 34 36  1  0  0  0
 34 59  1  0  0  0
 34109  1  0  0  0
 35 44  2  0  0  0
 35 45  1  0  0  0
 35 68  1  0  0  0
 36 56  1  0  0  0
 36110  1  0  0  0
 37 39  1  0  0  0
 37 47  1  0  0  0
 37 66  1  0  0  0
 37111  1  0  0  0
 38 43  2  0  0  0
 38 46  1  0  0  0
 38 47  1  0  0  0
 39 64  1  0  0  0
 39 67  2  0  0  0
 40 52  1  0  0  0
 40 53  2  0  0  0
 40 58  1  0  0  0
 41112  1  0  0  0
 41113  1  0  0  0
 41114  1  0  0  0
 41 48  1  0  0  0
 42 43  1  0  0  0
 42 66  1  0  0  0
 42115  1  0  0  0
 42116  1  0  0  0
 43 44  1  0  0  0
 44117  1  0  0  0
 45 46  2  0  0  0
 45118  1  0  0  0
 46119  1  0  0  0
 47120  1  0  0  0
 47121  1  0  0  0
 48 56  1  0  0  0
 48 65  1  0  0  0
 48122  1  0  0  0
 49 50  1  0  0  0
 49 53  1  0  0  0
 49 64  1  0  0  0
 49123  1  0  0  0
 50 51  1  0  0  0
 50124  1  0  0  0
 50125  1  0  0  0
 51 52  1  0  0  0
 51126  1  0  0  0
 51127  1  0  0  0
 52128  1  0  0  0
 52129  1  0  0  0
 53 54  1  0  0  0
 54 55  2  0  0  0
 54130  1  0  0  0
 55 57  1  0  0  0
 55131  1  0  0  0
 56 69  2  0  0  0
 57 58  2  0  0  0
 57132  1  0  0  0
 58133  1  0  0  0
 59 60  1  0  0  0
 59 61  1  0  0  0
 59 62  1  0  0  0
 60134  1  0  0  0
 60135  1  0  0  0
 60136  1  0  0  0
 61137  1  0  0  0
 61138  1  0  0  0
 61139  1  0  0  0
 62140  1  0  0  0
 62141  1  0  0  0
 62142  1  0  0  0
 63 65  1  0  0  0
 63143  1  0  0  0
 63144  1  0  0  0
 63145  1  0  0  0
 64146  1  0  0  0
 65147  1  0  0  0
 68 85  1  0  0  0
 71 72  1  0  0  0
 71148  1  0  0  0
 71149  1  0  0  0
 71 82  1  0  0  0
 72 82  1  0  0  0
 72150  1  0  0  0
 72151  1  0  0  0
 73 77  1  0  0  0
 73 85  1  0  0  0
 73152  1  0  0  0
 73153  1  0  0  0
 74 78  1  0  0  0
 74 85  1  0  0  0
 74154  1  0  0  0
 74155  1  0  0  0
 75 79  1  0  0  0
 75 84  1  0  0  0
 75156  1  0  0  0
 75157  1  0  0  0
 76 81  1  0  0  0
 76158  1  0  0  0
 76159  1  0  0  0
 76 83  1  0  0  0
 77160  1  0  0  0
 77161  1  0  0  0
 77 87  1  0  0  0
 78 87  1  0  0  0
 78162  1  0  0  0
 78163  1  0  0  0
 79164  1  0  0  0
 79165  1  0  0  0
 79 88  1  0  0  0
 80 84  1  0  0  0
 80 88  1  0  0  0
 80166  1  0  0  0
 80167  1  0  0  0
 81 83  1  0  0  0
 81168  1  0  0  0
 82169  1  0  0  0
 82 86  1  0  0  0
 83 86  1  0  0  0
 83170  1  0  0  0
 84 87  1  0  0  0
 84171  1  0  0  0
 85172  1  0  0  0
 86 88  1  0  0  0
 86173  1  0  0  0
 88174  1  0  0  0
M  CHG  1  88   1
M  ISO  4   1 100  68 101  81 100  85 101
M  END
> <chiral flag>
0

> <version>
0

> <s_m_source_file>
/data/baiqing/PycharmProjects/Reinvent-master-3.2/result/LINK_invent/BTK/process_docking_weight1_custom_sum_contain_oxygen_bond_distance_aromatic_linkinvent_7_9_3/rearranged_h_0146.sdf

> <i_m_source_file_index>
31

> <r_mmod_Potential_Energy-OPLS-2005>
80.3556137084961

> <r_mmod_Stretch_Energy-OPLS-2005>
34.2381477355957

> <r_mmod_Bend_Energy-OPLS-2005>
136.859191894531

> <r_mmod_Torsional_Energy-OPLS-2005>
388.059844970703

> <r_mmod_Improper_Torsional_Energy-OPLS-2005>
2.89289236068726

> <r_mmod_Van_der_Waal_Energy-OPLS-2005>
147.561492919922

> <r_mmod_Electrostatic_Energy-OPLS-2005>
-223.918792724609

> <r_mmod_Solvation_Energy-OPLS-2005>
-416.384552001953

> <b_mmod_Minimization_Converged-OPLS-2005>
0

> <r_mmod_RMS_Derivative-OPLS-2005>
1.72027313709259

$$$$
31
                    3D
 Structure written by MMmdl.
166176  0  0  1  0            999 V2000
  -30.6531  -14.8848   20.4421 C   0  0  0  0  0  0
  -30.4184  -12.5620   19.4791 C   0  0  0  0  0  0
  -29.5035  -12.5080   18.2395 C   0  0  0  0  0  0
  -28.0429  -12.2849   18.6691 C   0  0  0  0  0  0
  -27.6208  -13.2275   19.8222 C   0  0  2  0  0  0
  -28.6702  -13.3083   20.9555 C   0  0  0  0  0  0
  -25.2462  -13.8167   20.5693 C   0  0  0  0  0  0
  -24.1766  -13.0418   20.9228 C   0  0  0  0  0  0
  -24.6368  -11.6904   20.8777 C   0  0  0  0  0  0
  -23.9046  -10.4284   21.0416 C   0  0  0  0  0  0
  -24.3608   -9.4202   21.9188 C   0  0  0  0  0  0
  -23.6288   -8.2240   22.0762 C   0  0  0  0  0  0
  -22.4265   -8.0283   21.3549 C   0  0  0  0  0  0
  -21.9896   -9.0249   20.4645 C   0  0  0  0  0  0
  -22.7228  -10.2131   20.3055 C   0  0  0  0  0  0
  -21.6855   -6.0733   22.5280 C   0  0  0  0  0  0
  -21.4014   -6.5636   23.8205 C   0  0  0  0  0  0
  -21.3652   -5.6788   24.9169 C   0  0  0  0  0  0
  -21.6041   -4.3057   24.7228 C   0  0  0  0  0  0
  -21.8823   -3.8148   23.4344 C   0  0  0  0  0  0
  -21.9197   -4.6958   22.3404 C   0  0  0  0  0  0
  -22.7796  -13.5218   21.1865 C   0  0  0  0  0  0
  -22.1667   -4.2142   21.0982 F   0  0  0  0  0  0
  -21.5618   -3.4541   25.7736 F   0  0  0  0  0  0
  -29.9470  -13.6877   20.3390 N   0  0  0  0  0  0
  -26.2853  -12.9356   20.3219 N   0  0  0  0  0  0
  -25.9286  -11.6515   20.5754 N   0  0  0  0  0  0
  -22.0439  -12.8211   22.0427 N   0  0  0  0  0  0
  -25.4135  -15.1877   20.4080 N   0  0  0  0  0  0
  -31.8650  -14.8189   20.2113 O   0  0  0  0  0  0
  -21.6648   -6.8873   21.4235 O   0  0  0  0  0  0
  -22.3491  -14.5526   20.6709 O   0  0  0  0  0  0
  -24.6407  -31.8473   23.1892 C   0  0  0  0  0  0
  -25.9179  -32.4712   23.8278 C   0  0  1  0  0  0
  -27.2256  -27.1786   20.1367 C   0  0  0  0  0  0
  -25.5951  -33.8521   24.2202 N   0  0  0  0  0  0
  -23.4423  -30.4655   21.5339 C   0  0  2  0  0  0
  -24.8918  -28.9011   20.1043 C   0  0  0  0  0  0
  -22.7541  -29.4544   22.4844 C   0  0  0  0  0  0
  -18.0316  -28.1359   22.8497 C   0  0  0  0  0  0
  -24.1490  -36.7269   23.2643 C   0  0  0  0  0  0
  -25.9950  -30.7328   21.3832 C   0  0  0  0  0  0
  -26.0659  -29.3491   20.7210 C   0  0  0  0  0  0
  -27.2294  -28.5006   20.7242 C   0  0  0  0  0  0
  -26.0223  -26.8176   19.4886 C   0  0  0  0  0  0
  -24.8816  -27.6470   19.4747 C   0  0  0  0  0  0
  -23.6653  -29.7951   20.1513 C   0  0  0  0  0  0
  -25.4119  -36.3051   24.0323 C   0  0  1  0  0  0
  -20.5919  -28.3704   23.1234 C   0  0  2  0  0  0
  -20.6784  -26.9402   22.5395 C   0  0  0  0  0  0
  -19.5760  -26.6363   21.5204 C   0  0  0  0  0  0
  -18.1950  -26.7906   22.1617 C   0  0  0  0  0  0
  -19.1571  -28.8846   23.2862 C   0  0  0  0  0  0
  -18.9474  -30.1443   23.8886 C   0  0  0  0  0  0
  -17.6476  -30.6570   24.0568 C   0  0  0  0  0  0
  -25.9069  -34.9428   23.5071 C   0  0  0  0  0  0
  -16.5365  -29.9074   23.6321 C   0  0  0  0  0  0
  -16.7299  -28.6481   23.0374 C   0  0  0  0  0  0
  -26.4505  -31.6558   25.0704 C   0  0  0  0  0  0
  -25.3706  -31.3747   26.1412 C   0  0  0  0  0  0
  -27.0360  -30.2955   24.6276 C   0  0  0  0  0  0
  -27.6048  -32.4340   25.7489 C   0  0  0  0  0  0
  -27.5583  -37.1784   24.8465 C   0  0  0  0  0  0
  -21.4237  -29.3052   22.3602 N   0  0  0  0  0  0
  -26.4290  -37.3756   23.9415 N   0  0  0  0  0  0
  -24.7124  -31.0356   22.0917 N   0  0  0  0  0  0
  -23.4194  -28.8116   23.2997 O   0  0  0  0  0  0
  -28.3055  -26.2448   20.2634 O   0  0  0  0  0  0
  -26.5642  -34.8926   22.4640 O   0  0  0  0  0  0
  -23.5526  -32.1348   23.7118 O   0  0  0  0  0  0
  -29.6910  -21.6539   17.0722 C   0  0  0  0  0  0
  -29.2294  -22.6200   17.8834 C   0  0  0  0  0  0
  -29.8210  -20.4808   17.8383 C   0  0  0  0  0  0
  -29.4414  -20.6975   19.1651 C   0  0  0  0  0  0
  -30.1095  -19.0767   15.6127 C   0  0  0  0  0  0
  -29.5230  -18.0898   16.5734 C   0  0  0  0  0  0
  -28.5225  -18.2185   19.8865 C   0  0  0  0  0  0
  -30.8288  -18.7307   20.4636 C   0  0  0  0  0  0
  -28.7127  -16.7468   20.5303 C   0  0  0  0  0  0
  -30.8789  -17.3330   21.2302 C   0  0  0  0  0  0
  -29.4480  -19.4693   20.2373 C   0  0  0  0  0  0
  -30.3495  -19.2420   17.1091 C   0  0  0  0  0  0
  -28.6889  -23.3057   20.1996 C   0  0  0  0  0  0
  -28.4072  -24.8624   19.5981 C   0  0  0  0  0  0
  -29.1044  -22.1703   19.1977 N   0  0  0  0  0  0
  -30.0898  -16.1774   20.6781 N   0  0  0  0  0  0
  -31.7346  -19.0118   17.2581 O   0  0  0  0  0  0
  -31.4539  -12.6817   19.1548 H   0  0  0  0  0  0
  -30.3915  -11.6185   20.0257 H   0  0  0  0  0  0
  -29.8222  -11.7112   17.5663 H   0  0  0  0  0  0
  -29.5891  -13.4389   17.6776 H   0  0  0  0  0  0
  -27.9446  -11.2447   18.9826 H   0  0  0  0  0  0
  -27.3767  -12.4102   17.8140 H   0  0  0  0  0  0
  -27.5555  -14.1943   19.3357 H   0  0  0  0  0  0
  -28.7579  -12.3541   21.4786 H   0  0  0  0  0  0
  -28.3761  -14.0479   21.7024 H   0  0  0  0  0  0
  -25.2740   -9.5697   22.4776 H   0  0  0  0  0  0
  -23.9994   -7.4635   22.7489 H   0  0  0  0  0  0
  -21.0826   -8.8771   19.8950 H   0  0  0  0  0  0
  -22.3677  -10.9677   19.6180 H   0  0  0  0  0  0
  -21.2012   -7.6145   23.9708 H   0  0  0  0  0  0
  -21.1460   -6.0520   25.9067 H   0  0  0  0  0  0
  -22.0607   -2.7609   23.2852 H   0  0  0  0  0  0
  -22.4049  -11.9873   22.4819 H   0  0  0  0  0  0
  -21.1048  -13.1230   22.2606 H   0  0  0  0  0  0
  -24.6436  -15.8388   20.5147 H   0  0  0  0  0  0
  -26.2594  -15.6315   20.0761 H   0  0  0  0  0  0
  -26.7251  -32.5329   23.1025 H   0  0  0  0  0  0
  -25.0102  -33.9636   25.0359 H   0  0  0  0  0  0
  -22.7465  -31.2918   21.3784 H   0  0  0  0  0  0
  -23.3760  -35.9589   23.3315 H   0  0  0  0  0  0
  -24.3575  -36.8888   22.2051 H   0  0  0  0  0  0
  -23.7238  -37.6473   23.6666 H   0  0  0  0  0  0
  -26.1451  -31.4881   20.6116 H   0  0  0  0  0  0
  -26.8682  -30.7782   22.0236 H   0  0  0  0  0  0
  -28.1246  -28.8368   21.2273 H   0  0  0  0  0  0
  -25.9048  -25.8521   19.0254 H   0  0  0  0  0  0
  -23.9810  -27.2958   18.9892 H   0  0  0  0  0  0
  -23.7963  -30.5691   19.3944 H   0  0  0  0  0  0
  -22.7810  -29.2313   19.8466 H   0  0  0  0  0  0
  -25.1300  -36.1887   25.0810 H   0  0  0  0  0  0
  -21.0037  -28.3286   24.1351 H   0  0  0  0  0  0
  -20.5640  -26.2320   23.3618 H   0  0  0  0  0  0
  -21.6654  -26.7391   22.1206 H   0  0  0  0  0  0
  -19.6919  -25.6272   21.1259 H   0  0  0  0  0  0
  -19.6692  -27.3154   20.6720 H   0  0  0  0  0  0
  -17.4209  -26.6686   21.4030 H   0  0  0  0  0  0
  -18.0347  -26.0014   22.8977 H   0  0  0  0  0  0
  -19.7945  -30.7281   24.2242 H   0  0  0  0  0  0
  -17.5026  -31.6263   24.5161 H   0  0  0  0  0  0
  -15.5357  -30.2990   23.7645 H   0  0  0  0  0  0
  -15.8702  -28.0810   22.7096 H   0  0  0  0  0  0
  -24.5869  -30.7114   25.7742 H   0  0  0  0  0  0
  -24.8908  -32.2919   26.4814 H   0  0  0  0  0  0
  -25.7981  -30.8926   27.0202 H   0  0  0  0  0  0
  -26.2951  -29.6700   24.1279 H   0  0  0  0  0  0
  -27.3960  -29.7249   25.4840 H   0  0  0  0  0  0
  -27.8880  -30.4196   23.9595 H   0  0  0  0  0  0
  -27.2616  -33.3653   26.2010 H   0  0  0  0  0  0
  -28.3861  -32.6875   25.0314 H   0  0  0  0  0  0
  -28.0706  -31.8506   26.5433 H   0  0  0  0  0  0
  -28.2581  -38.0097   24.7516 H   0  0  0  0  0  0
  -28.1087  -36.2619   24.6279 H   0  0  0  0  0  0
  -27.2298  -37.1438   25.8867 H   0  0  0  0  0  0
  -20.9421  -29.8789   21.6823 H   0  0  0  0  0  0
  -26.0168  -38.2836   24.1407 H   0  0  0  0  0  0
  -29.9069  -21.7874   16.0204 H   0  0  0  0  0  0
  -29.0151  -23.6265   17.5633 H   0  0  0  0  0  0
  -29.3958  -19.7285   15.1104 H   0  0  0  0  0  0
  -30.9213  -18.7213   14.9781 H   0  0  0  0  0  0
  -29.9522  -17.0903   16.6153 H   0  0  0  0  0  0
  -28.4400  -18.1332   16.6659 H   0  0  0  0  0  0
  -27.4816  -18.5193   20.0133 H   0  0  0  0  0  0
  -28.6046  -18.0454   18.8271 H   0  0  0  0  0  0
  -31.2860  -18.5150   19.5114 H   0  0  0  0  0  0
  -31.5158  -19.4259   20.9487 H   0  0  0  0  0  0
  -28.1312  -16.0730   19.9179 H   0  0  0  0  0  0
  -28.2504  -16.7254   21.5168 H   0  0  0  0  0  0
  -30.5451  -17.4946   22.2555 H   0  0  0  0  0  0
  -31.9280  -17.0494   21.3305 H   0  0  0  0  0  0
  -29.1229  -19.8562   21.2040 H   0  0  0  0  0  0
  -27.8007  -22.9665   20.7306 H   0  0  0  0  0  0
  -29.4743  -23.3649   20.9532 H   0  0  0  0  0  0
  -27.6198  -24.7638   18.8585 H   0  0  0  0  0  0
  -29.3034  -25.0703   19.0125 H   0  0  0  0  0  0
  -31.9011  -18.1198   16.9789 H   0  0  0  0  0  0
  1 25  1  0  0  0
  1 30  2  0  0  0
  1 86  1  0  0  0
  2  3  1  0  0  0
  2 25  1  0  0  0
  2 88  1  0  0  0
  2 89  1  0  0  0
  3  4  1  0  0  0
  3 90  1  0  0  0
  3 91  1  0  0  0
  4  5  1  0  0  0
  4 92  1  0  0  0
  4 93  1  0  0  0
  5  6  1  0  0  0
  5 26  1  0  0  0
  5 94  1  0  0  0
  6 25  1  0  0  0
  6 95  1  0  0  0
  6 96  1  0  0  0
  7  8  2  0  0  0
  7 26  1  0  0  0
  7 29  1  0  0  0
  8  9  1  0  0  0
  8 22  1  0  0  0
  9 10  1  0  0  0
  9 27  2  0  0  0
 10 11  2  0  0  0
 10 15  1  0  0  0
 11 12  1  0  0  0
 11 97  1  0  0  0
 12 13  2  0  0  0
 12 98  1  0  0  0
 13 14  1  0  0  0
 13 31  1  0  0  0
 14 15  2  0  0  0
 14 99  1  0  0  0
 15100  1  0  0  0
 16 17  2  0  0  0
 16 21  1  0  0  0
 16 31  1  0  0  0
 17 18  1  0  0  0
 17101  1  0  0  0
 18 19  2  0  0  0
 18102  1  0  0  0
 19 20  1  0  0  0
 19 24  1  0  0  0
 20 21  2  0  0  0
 20103  1  0  0  0
 21 23  1  0  0  0
 22 28  1  0  0  0
 22 32  2  0  0  0
 26 27  1  0  0  0
 28104  1  0  0  0
 28105  1  0  0  0
 29106  1  0  0  0
 29107  1  0  0  0
 33 34  1  0  0  0
 33 66  1  0  0  0
 33 70  2  0  0  0
 34 36  1  0  0  0
 34 59  1  0  0  0
 34108  1  0  0  0
 35 44  2  0  0  0
 35 45  1  0  0  0
 35 68  1  0  0  0
 36 56  1  0  0  0
 36109  1  0  0  0
 37 39  1  0  0  0
 37 47  1  0  0  0
 37 66  1  0  0  0
 37110  1  0  0  0
 38 43  2  0  0  0
 38 46  1  0  0  0
 38 47  1  0  0  0
 39 64  1  0  0  0
 39 67  2  0  0  0
 40 52  1  0  0  0
 40 53  2  0  0  0
 40 58  1  0  0  0
 41111  1  0  0  0
 41112  1  0  0  0
 41113  1  0  0  0
 41 48  1  0  0  0
 42 43  1  0  0  0
 42 66  1  0  0  0
 42114  1  0  0  0
 42115  1  0  0  0
 43 44  1  0  0  0
 44116  1  0  0  0
 45 46  2  0  0  0
 45117  1  0  0  0
 46118  1  0  0  0
 47119  1  0  0  0
 47120  1  0  0  0
 48 56  1  0  0  0
 48 65  1  0  0  0
 48121  1  0  0  0
 49 50  1  0  0  0
 49 53  1  0  0  0
 49 64  1  0  0  0
 49122  1  0  0  0
 50 51  1  0  0  0
 50123  1  0  0  0
 50124  1  0  0  0
 51 52  1  0  0  0
 51125  1  0  0  0
 51126  1  0  0  0
 52127  1  0  0  0
 52128  1  0  0  0
 53 54  1  0  0  0
 54 55  2  0  0  0
 54129  1  0  0  0
 55 57  1  0  0  0
 55130  1  0  0  0
 56 69  2  0  0  0
 57 58  2  0  0  0
 57131  1  0  0  0
 58132  1  0  0  0
 59 60  1  0  0  0
 59 61  1  0  0  0
 59 62  1  0  0  0
 60133  1  0  0  0
 60134  1  0  0  0
 60135  1  0  0  0
 61136  1  0  0  0
 61137  1  0  0  0
 61138  1  0  0  0
 62139  1  0  0  0
 62140  1  0  0  0
 62141  1  0  0  0
 63 65  1  0  0  0
 63142  1  0  0  0
 63143  1  0  0  0
 63144  1  0  0  0
 64145  1  0  0  0
 65146  1  0  0  0
 68 84  1  0  0  0
 71 72  2  0  0  0
 71 73  1  0  0  0
 71147  1  0  0  0
 72 85  1  0  0  0
 72148  1  0  0  0
 73 74  2  0  0  0
 73 82  1  0  0  0
 74 85  1  0  0  0
 74 81  1  0  0  0
 75 76  1  0  0  0
 75 82  1  0  0  0
 75149  1  0  0  0
 75150  1  0  0  0
 76 82  1  0  0  0
 76151  1  0  0  0
 76152  1  0  0  0
 77 79  1  0  0  0
 77 81  1  0  0  0
 77153  1  0  0  0
 77154  1  0  0  0
 78 80  1  0  0  0
 78 81  1  0  0  0
 78155  1  0  0  0
 78156  1  0  0  0
 79 86  1  0  0  0
 79157  1  0  0  0
 79158  1  0  0  0
 80 86  1  0  0  0
 80159  1  0  0  0
 80160  1  0  0  0
 81161  1  0  0  0
 82 87  1  0  0  0
 83 84  1  0  0  0
 83 85  1  0  0  0
 83162  1  0  0  0
 83163  1  0  0  0
 84164  1  0  0  0
 84165  1  0  0  0
 87166  1  0  0  0
M  ISO  4   1 100  68 101  84 101  86 100
M  END
> <chiral flag>
0

> <version>
0

> <s_m_source_file>
/data/baiqing/PycharmProjects/Reinvent-master-3.2/result/LINK_invent/BTK/process_docking_weight1_custom_sum_contain_oxygen_bond_distance_aromatic_linkinvent_7_9_3/rearranged_h_0146.sdf

> <i_m_source_file_index>
32

> <r_mmod_Potential_Energy-OPLS-2005>
712.01708984375

> <r_mmod_Stretch_Energy-OPLS-2005>
238.059692382812

> <r_mmod_Bend_Energy-OPLS-2005>
360.318145751953

> <r_mmod_Torsional_Energy-OPLS-2005>
352.809295654297

> <r_mmod_Improper_Torsional_Energy-OPLS-2005>
2.43321490287781

> <r_mmod_Van_der_Waal_Energy-OPLS-2005>
139.075073242188

> <r_mmod_Electrostatic_Energy-OPLS-2005>
-314.920959472656

> <r_mmod_Solvation_Energy-OPLS-2005>
-223.776748657227

> <b_mmod_Minimization_Converged-OPLS-2005>
0

> <r_mmod_RMS_Derivative-OPLS-2005>
2.9908459186554

$$$$
32
                    3D
 Structure written by MMmdl.
161170  0  0  1  0            999 V2000
  -30.7474  -14.3780   20.6509 C   0  0  0  0  0  0
  -30.4134  -12.2817   19.3944 C   0  0  0  0  0  0
  -29.4843  -12.5231   18.1889 C   0  0  0  0  0  0
  -28.0048  -12.3894   18.6013 C   0  0  0  0  0  0
  -27.6637  -13.2036   19.8786 C   0  0  2  0  0  0
  -28.7025  -12.9377   20.9901 C   0  0  0  0  0  0
  -25.2588  -13.8161   20.5672 C   0  0  0  0  0  0
  -24.1826  -13.0442   20.9150 C   0  0  0  0  0  0
  -24.6370  -11.6906   20.8705 C   0  0  0  0  0  0
  -23.9038  -10.4292   21.0379 C   0  0  0  0  0  0
  -24.3604   -9.4210   21.9156 C   0  0  0  0  0  0
  -23.6286   -8.2238   22.0739 C   0  0  0  0  0  0
  -22.4268   -8.0266   21.3538 C   0  0  0  0  0  0
  -21.9888   -9.0231   20.4634 C   0  0  0  0  0  0
  -22.7205  -10.2112   20.3031 C   0  0  0  0  0  0
  -21.6853   -6.0710   22.5270 C   0  0  0  0  0  0
  -21.4015   -6.5622   23.8205 C   0  0  0  0  0  0
  -21.3663   -5.6777   24.9173 C   0  0  0  0  0  0
  -21.6053   -4.3038   24.7219 C   0  0  0  0  0  0
  -21.8826   -3.8125   23.4347 C   0  0  0  0  0  0
  -21.9190   -4.6939   22.3400 C   0  0  0  0  0  0
  -22.7848  -13.5235   21.1812 C   0  0  0  0  0  0
  -22.1661   -4.2125   21.0975 F   0  0  0  0  0  0
  -21.5638   -3.4526   25.7740 F   0  0  0  0  0  0
  -30.0399  -13.2362   20.4479 N   0  0  0  0  0  0
  -26.3026  -12.9323   20.3372 N   0  0  0  0  0  0
  -25.9299  -11.6488   20.5741 N   0  0  0  0  0  0
  -22.0504  -12.8233   22.0386 N   0  0  0  0  0  0
  -25.4337  -15.1874   20.4097 N   0  0  0  0  0  0
  -31.8145  -14.6270   20.0814 O   0  0  0  0  0  0
  -21.6641   -6.8851   21.4236 O   0  0  0  0  0  0
  -22.3527  -14.5531   20.6642 O   0  0  0  0  0  0
  -24.6124  -31.8708   23.2132 C   0  0  0  0  0  0
  -25.9017  -32.4844   23.8432 C   0  0  1  0  0  0
  -27.2235  -27.4417   20.0967 C   0  0  0  0  0  0
  -25.5888  -33.8641   24.2361 N   0  0  0  0  0  0
  -23.4009  -30.4959   21.5529 C   0  0  2  0  0  0
  -24.8461  -28.9689   20.1131 C   0  0  0  0  0  0
  -22.7399  -29.4676   22.4994 C   0  0  0  0  0  0
  -18.0268  -28.1378   22.8499 C   0  0  0  0  0  0
  -24.1488  -36.7314   23.2640 C   0  0  0  0  0  0
  -25.9300  -30.8390   21.3682 C   0  0  0  0  0  0
  -26.0067  -29.4755   20.7119 C   0  0  0  0  0  0
  -27.2012  -28.7195   20.7006 C   0  0  0  0  0  0
  -26.0512  -26.9616   19.4704 C   0  0  0  0  0  0
  -24.8636  -27.7120   19.4872 C   0  0  0  0  0  0
  -23.6083  -29.8330   20.1656 C   0  0  0  0  0  0
  -25.4107  -36.3128   24.0354 C   0  0  1  0  0  0
  -20.5862  -28.3662   23.1330 C   0  0  2  0  0  0
  -20.6768  -26.9399   22.5422 C   0  0  0  0  0  0
  -19.5742  -26.6385   21.5222 C   0  0  0  0  0  0
  -18.1923  -26.7928   22.1631 C   0  0  0  0  0  0
  -19.1520  -28.8835   23.2916 C   0  0  0  0  0  0
  -18.9447  -30.1445   23.8916 C   0  0  0  0  0  0
  -17.6444  -30.6584   24.0564 C   0  0  0  0  0  0
  -25.9023  -34.9489   23.5151 C   0  0  0  0  0  0
  -16.5339  -29.9087   23.6325 C   0  0  0  0  0  0
  -16.7261  -28.6504   23.0347 C   0  0  0  0  0  0
  -26.4444  -31.6607   25.0743 C   0  0  0  0  0  0
  -25.3725  -31.3696   26.1503 C   0  0  0  0  0  0
  -27.0260  -30.3056   24.6090 C   0  0  0  0  0  0
  -27.6031  -32.4324   25.7493 C   0  0  0  0  0  0
  -27.5587  -37.1816   24.8465 C   0  0  0  0  0  0
  -21.4131  -29.3038   22.3732 N   0  0  0  0  0  0
  -26.4297  -37.3804   23.9412 N   0  0  0  0  0  0
  -24.6659  -31.0826   22.1030 N   0  0  0  0  0  0
  -23.4177  -28.8211   23.3025 O   0  0  0  0  0  0
  -28.3724  -26.6805   20.1160 O   0  0  0  0  0  0
  -26.5568  -34.8930   22.4700 O   0  0  0  0  0  0
  -23.5321  -32.1448   23.7526 O   0  0  0  0  0  0
  -31.6757  -18.7691   21.3555 C   0  0  0  0  0  0
  -31.6596  -22.4586   21.2918 C   0  0  0  0  0  0
  -30.0621  -17.3919   22.8356 C   0  0  0  0  0  0
  -32.4022  -21.1240   21.1711 C   0  0  0  0  0  0
  -30.0424  -20.6972   21.1881 C   0  0  0  0  0  0
  -30.5371  -17.7943   21.4546 C   0  0  2  0  0  0
  -30.8625  -16.4114   22.0163 C   0  0  2  0  0  0
  -30.3013  -22.1288   20.6838 C   0  0  1  0  0  0
  -29.4376  -24.4764   20.4651 C   0  0  0  0  0  0
  -28.1829  -25.3508   20.6291 C   0  0  0  0  0  0
  -31.3728  -20.0820   21.2368 N   0  0  0  0  0  0
  -30.2015  -15.2464   21.5108 N   0  0  0  0  0  0
  -29.2180  -23.0964   20.9821 N   0  3  0  0  0  0
  -32.8497  -18.3860   21.3796 O   0  0  0  0  0  0
  -31.4579  -12.3759   19.0931 H   0  0  0  0  0  0
  -30.3064  -11.2586   19.7595 H   0  0  0  0  0  0
  -29.7161  -11.8225   17.3855 H   0  0  0  0  0  0
  -29.6621  -13.5214   17.7856 H   0  0  0  0  0  0
  -27.7973  -11.3318   18.7666 H   0  0  0  0  0  0
  -27.3568  -12.6992   17.7794 H   0  0  0  0  0  0
  -27.7211  -14.2594   19.6128 H   0  0  0  0  0  0
  -28.6653  -11.8902   21.2926 H   0  0  0  0  0  0
  -28.4587  -13.5020   21.8907 H   0  0  0  0  0  0
  -25.2761   -9.5689   22.4713 H   0  0  0  0  0  0
  -24.0007   -7.4628   22.7457 H   0  0  0  0  0  0
  -21.0814   -8.8725   19.8942 H   0  0  0  0  0  0
  -22.3656  -10.9632   19.6119 H   0  0  0  0  0  0
  -21.2004   -7.6129   23.9701 H   0  0  0  0  0  0
  -21.1489   -6.0508   25.9076 H   0  0  0  0  0  0
  -22.0600   -2.7584   23.2849 H   0  0  0  0  0  0
  -22.4147  -11.9909   22.4790 H   0  0  0  0  0  0
  -21.1101  -13.1214   22.2567 H   0  0  0  0  0  0
  -24.6733  -15.8503   20.5205 H   0  0  0  0  0  0
  -26.2990  -15.6208   20.1117 H   0  0  0  0  0  0
  -26.7086  -32.5561   23.1203 H   0  0  0  0  0  0
  -25.0088  -33.9820   25.0542 H   0  0  0  0  0  0
  -22.6895  -31.3129   21.4170 H   0  0  0  0  0  0
  -23.3760  -35.9634   23.3303 H   0  0  0  0  0  0
  -24.3595  -36.8909   22.2053 H   0  0  0  0  0  0
  -23.7220  -37.6519   23.6633 H   0  0  0  0  0  0
  -26.0462  -31.6089   20.6044 H   0  0  0  0  0  0
  -26.8172  -30.8872   21.9882 H   0  0  0  0  0  0
  -28.0959  -29.1021   21.1726 H   0  0  0  0  0  0
  -26.0399  -26.0141   18.9510 H   0  0  0  0  0  0
  -23.9760  -27.3233   19.0069 H   0  0  0  0  0  0
  -23.7115  -30.6097   19.4069 H   0  0  0  0  0  0
  -22.7339  -29.2500   19.8713 H   0  0  0  0  0  0
  -25.1281  -36.2014   25.0849 H   0  0  0  0  0  0
  -20.9965  -28.3223   24.1449 H   0  0  0  0  0  0
  -20.5685  -26.2261   23.3605 H   0  0  0  0  0  0
  -21.6637  -26.7457   22.1205 H   0  0  0  0  0  0
  -19.6900  -25.6300   21.1244 H   0  0  0  0  0  0
  -19.6690  -27.3201   20.6758 H   0  0  0  0  0  0
  -17.4199  -26.6682   21.4027 H   0  0  0  0  0  0
  -18.0312  -26.0066   22.9022 H   0  0  0  0  0  0
  -19.7919  -30.7259   24.2294 H   0  0  0  0  0  0
  -17.5000  -31.6266   24.5159 H   0  0  0  0  0  0
  -15.5337  -30.2992   23.7639 H   0  0  0  0  0  0
  -15.8664  -28.0831   22.7045 H   0  0  0  0  0  0
  -24.5921  -30.7005   25.7859 H   0  0  0  0  0  0
  -24.8877  -32.2830   26.4956 H   0  0  0  0  0  0
  -25.8101  -30.8889   27.0262 H   0  0  0  0  0  0
  -26.2793  -29.6864   24.1103 H   0  0  0  0  0  0
  -27.3991  -29.7249   25.4535 H   0  0  0  0  0  0
  -27.8653  -30.4386   23.9260 H   0  0  0  0  0  0
  -27.2661  -33.3633   26.2067 H   0  0  0  0  0  0
  -28.3829  -32.6868   25.0301 H   0  0  0  0  0  0
  -28.0702  -31.8446   26.5405 H   0  0  0  0  0  0
  -28.2605  -38.0114   24.7529 H   0  0  0  0  0  0
  -28.1083  -36.2652   24.6274 H   0  0  0  0  0  0
  -27.2307  -37.1442   25.8866 H   0  0  0  0  0  0
  -20.9269  -29.8770   21.6978 H   0  0  0  0  0  0
  -26.0199  -38.2890   24.1400 H   0  0  0  0  0  0
  -32.1738  -23.2747   20.7839 H   0  0  0  0  0  0
  -31.5529  -22.7267   22.3440 H   0  0  0  0  0  0
  -28.9909  -17.2370   22.9505 H   0  0  0  0  0  0
  -30.5569  -17.8375   23.6978 H   0  0  0  0  0  0
  -33.1572  -21.0148   21.9521 H   0  0  0  0  0  0
  -32.9065  -21.0522   20.2052 H   0  0  0  0  0  0
  -29.3590  -20.1626   20.5279 H   0  0  0  0  0  0
  -29.6171  -20.6950   22.1931 H   0  0  0  0  0  0
  -29.7985  -17.8354   20.6560 H   0  0  0  0  0  0
  -31.8774  -16.2404   22.3742 H   0  0  0  0  0  0
  -30.4150  -22.0828   19.5980 H   0  0  0  0  0  0
  -30.2782  -24.9390   20.9824 H   0  0  0  0  0  0
  -29.6995  -24.4307   19.4069 H   0  0  0  0  0  0
  -27.9175  -25.4222   21.6852 H   0  0  0  0  0  0
  -27.3606  -24.8348   20.1359 H   0  0  0  0  0  0
  -29.3264  -14.9737   21.9334 H   0  0  0  0  0  0
  -29.0664  -23.1304   21.9795 H   0  0  0  0  0  0
  -28.3717  -22.7331   20.5686 H   0  0  0  0  0  0
  1 25  1  0  0  0
  1 30  2  0  0  0
  1 82  1  0  0  0
  2  3  1  0  0  0
  2 25  1  0  0  0
  2 85  1  0  0  0
  2 86  1  0  0  0
  3  4  1  0  0  0
  3 87  1  0  0  0
  3 88  1  0  0  0
  4  5  1  0  0  0
  4 89  1  0  0  0
  4 90  1  0  0  0
  5  6  1  0  0  0
  5 26  1  0  0  0
  5 91  1  0  0  0
  6 25  1  0  0  0
  6 92  1  0  0  0
  6 93  1  0  0  0
  7  8  2  0  0  0
  7 26  1  0  0  0
  7 29  1  0  0  0
  8  9  1  0  0  0
  8 22  1  0  0  0
  9 10  1  0  0  0
  9 27  2  0  0  0
 10 11  2  0  0  0
 10 15  1  0  0  0
 11 12  1  0  0  0
 11 94  1  0  0  0
 12 13  2  0  0  0
 12 95  1  0  0  0
 13 14  1  0  0  0
 13 31  1  0  0  0
 14 15  2  0  0  0
 14 96  1  0  0  0
 15 97  1  0  0  0
 16 17  2  0  0  0
 16 21  1  0  0  0
 16 31  1  0  0  0
 17 18  1  0  0  0
 17 98  1  0  0  0
 18 19  2  0  0  0
 18 99  1  0  0  0
 19 20  1  0  0  0
 19 24  1  0  0  0
 20 21  2  0  0  0
 20100  1  0  0  0
 21 23  1  0  0  0
 22 28  1  0  0  0
 22 32  2  0  0  0
 26 27  1  0  0  0
 28101  1  0  0  0
 28102  1  0  0  0
 29103  1  0  0  0
 29104  1  0  0  0
 33 34  1  0  0  0
 33 66  1  0  0  0
 33 70  2  0  0  0
 34 36  1  0  0  0
 34 59  1  0  0  0
 34105  1  0  0  0
 35 44  2  0  0  0
 35 45  1  0  0  0
 35 68  1  0  0  0
 36 56  1  0  0  0
 36106  1  0  0  0
 37 39  1  0  0  0
 37 47  1  0  0  0
 37 66  1  0  0  0
 37107  1  0  0  0
 38 43  2  0  0  0
 38 46  1  0  0  0
 38 47  1  0  0  0
 39 64  1  0  0  0
 39 67  2  0  0  0
 40 52  1  0  0  0
 40 53  2  0  0  0
 40 58  1  0  0  0
 41108  1  0  0  0
 41109  1  0  0  0
 41110  1  0  0  0
 41 48  1  0  0  0
 42 43  1  0  0  0
 42 66  1  0  0  0
 42111  1  0  0  0
 42112  1  0  0  0
 43 44  1  0  0  0
 44113  1  0  0  0
 45 46  2  0  0  0
 45114  1  0  0  0
 46115  1  0  0  0
 47116  1  0  0  0
 47117  1  0  0  0
 48 56  1  0  0  0
 48 65  1  0  0  0
 48118  1  0  0  0
 49 50  1  0  0  0
 49 53  1  0  0  0
 49 64  1  0  0  0
 49119  1  0  0  0
 50 51  1  0  0  0
 50120  1  0  0  0
 50121  1  0  0  0
 51 52  1  0  0  0
 51122  1  0  0  0
 51123  1  0  0  0
 52124  1  0  0  0
 52125  1  0  0  0
 53 54  1  0  0  0
 54 55  2  0  0  0
 54126  1  0  0  0
 55 57  1  0  0  0
 55127  1  0  0  0
 56 69  2  0  0  0
 57 58  2  0  0  0
 57128  1  0  0  0
 58129  1  0  0  0
 59 60  1  0  0  0
 59 61  1  0  0  0
 59 62  1  0  0  0
 60130  1  0  0  0
 60131  1  0  0  0
 60132  1  0  0  0
 61133  1  0  0  0
 61134  1  0  0  0
 61135  1  0  0  0
 62136  1  0  0  0
 62137  1  0  0  0
 62138  1  0  0  0
 63 65  1  0  0  0
 63139  1  0  0  0
 63140  1  0  0  0
 63141  1  0  0  0
 64142  1  0  0  0
 65143  1  0  0  0
 68 80  1  0  0  0
 71 81  1  0  0  0
 71 84  2  0  0  0
 71 76  1  0  0  0
 72 74  1  0  0  0
 72 78  1  0  0  0
 72144  1  0  0  0
 72145  1  0  0  0
 73 76  1  0  0  0
 73 77  1  0  0  0
 73146  1  0  0  0
 73147  1  0  0  0
 74 81  1  0  0  0
 74148  1  0  0  0
 74149  1  0  0  0
 75 78  1  0  0  0
 75 81  1  0  0  0
 75150  1  0  0  0
 75151  1  0  0  0
 76 77  1  0  0  0
 76152  1  0  0  0
 77 82  1  0  0  0
 77153  1  0  0  0
 78 83  1  0  0  0
 78154  1  0  0  0
 79 80  1  0  0  0
 79 83  1  0  0  0
 79155  1  0  0  0
 79156  1  0  0  0
 80157  1  0  0  0
 80158  1  0  0  0
 82159  1  0  0  0
 83160  1  0  0  0
 83161  1  0  0  0
M  CHG  1  83   1
M  ISO  4   1 100  68 101  80 101  82 100
M  END
> <chiral flag>
0

> <version>
0

> <s_m_source_file>
/data/baiqing/PycharmProjects/Reinvent-master-3.2/result/LINK_invent/BTK/process_docking_weight1_custom_sum_contain_oxygen_bond_distance_aromatic_linkinvent_7_9_3/rearranged_h_0146.sdf

> <i_m_source_file_index>
33

> <r_mmod_Potential_Energy-OPLS-2005>
-93.890998840332

> <r_mmod_Stretch_Energy-OPLS-2005>
33.822925567627

> <r_mmod_Bend_Energy-OPLS-2005>
116.886177062988

> <r_mmod_Torsional_Energy-OPLS-2005>
336.572998046875

> <r_mmod_Improper_Torsional_Energy-OPLS-2005>
1.91389727592468

> <r_mmod_Van_der_Waal_Energy-OPLS-2005>
136.358215332031

> <r_mmod_Electrostatic_Energy-OPLS-2005>
-220.096481323242

> <r_mmod_Solvation_Energy-OPLS-2005>
-508.570556640625

> <b_mmod_Minimization_Converged-OPLS-2005>
0

> <r_mmod_RMS_Derivative-OPLS-2005>
1.86013293266296

$$$$
33
                    3D
 Structure written by MMmdl.
185194  0  0  1  0            999 V2000
  -30.7198  -14.4761   20.3912 C   0  0  0  0  0  0
  -30.4092  -12.2616   19.4411 C   0  0  0  0  0  0
  -29.4894  -12.4381   18.2128 C   0  0  0  0  0  0
  -28.0023  -12.3584   18.6053 C   0  0  0  0  0  0
  -27.6511  -13.2107   19.8527 C   0  0  2  0  0  0
  -28.7085  -13.0715   20.9825 C   0  0  0  0  0  0
  -25.2545  -13.8205   20.5649 C   0  0  0  0  0  0
  -24.1821  -13.0483   20.9141 C   0  0  0  0  0  0
  -24.6375  -11.6942   20.8677 C   0  0  0  0  0  0
  -23.9068  -10.4309   21.0423 C   0  0  0  0  0  0
  -24.3630   -9.4250   21.9228 C   0  0  0  0  0  0
  -23.6284   -8.2303   22.0810 C   0  0  0  0  0  0
  -22.4283   -8.0329   21.3558 C   0  0  0  0  0  0
  -21.9930   -9.0318   20.4674 C   0  0  0  0  0  0
  -22.7244  -10.2184   20.3086 C   0  0  0  0  0  0
  -21.6900   -6.0721   22.5287 C   0  0  0  0  0  0
  -21.4030   -6.5617   23.8207 C   0  0  0  0  0  0
  -21.3676   -5.6802   24.9183 C   0  0  0  0  0  0
  -21.6047   -4.3047   24.7236 C   0  0  0  0  0  0
  -21.8822   -3.8128   23.4344 C   0  0  0  0  0  0
  -21.9194   -4.6943   22.3410 C   0  0  0  0  0  0
  -22.7810  -13.5260   21.1812 C   0  0  0  0  0  0
  -22.1647   -4.2137   21.0979 F   0  0  0  0  0  0
  -21.5669   -3.4526   25.7748 F   0  0  0  0  0  0
  -30.0394  -13.3050   20.4059 N   0  0  0  0  0  0
  -26.2991  -12.9368   20.3319 N   0  0  0  0  0  0
  -25.9298  -11.6523   20.5708 N   0  0  0  0  0  0
  -22.0500  -12.8265   22.0402 N   0  0  0  0  0  0
  -25.4217  -15.1944   20.4011 N   0  0  0  0  0  0
  -31.9375  -14.5542   20.2389 O   0  0  0  0  0  0
  -21.6675   -6.8887   21.4256 O   0  0  0  0  0  0
  -22.3460  -14.5549   20.6668 O   0  0  0  0  0  0
  -24.6110  -31.8707   23.2111 C   0  0  0  0  0  0
  -25.9013  -32.4844   23.8410 C   0  0  1  0  0  0
  -27.2525  -27.4703   20.0979 C   0  0  0  0  0  0
  -25.5888  -33.8634   24.2354 N   0  0  0  0  0  0
  -23.3963  -30.4916   21.5520 C   0  0  2  0  0  0
  -24.8469  -28.9607   20.1172 C   0  0  0  0  0  0
  -22.7400  -29.4652   22.5027 C   0  0  0  0  0  0
  -18.0259  -28.1382   22.8483 C   0  0  0  0  0  0
  -24.1478  -36.7313   23.2641 C   0  0  0  0  0  0
  -25.9185  -30.8515   21.3542 C   0  0  0  0  0  0
  -26.0023  -29.4850   20.7102 C   0  0  0  0  0  0
  -27.2066  -28.7530   20.6988 C   0  0  0  0  0  0
  -26.0782  -26.9561   19.5081 C   0  0  0  0  0  0
  -24.8792  -27.6929   19.5112 C   0  0  0  0  0  0
  -23.6029  -29.8190   20.1677 C   0  0  0  0  0  0
  -25.4097  -36.3125   24.0350 C   0  0  1  0  0  0
  -20.5850  -28.3643   23.1335 C   0  0  2  0  0  0
  -20.6762  -26.9383   22.5412 C   0  0  0  0  0  0
  -19.5746  -26.6381   21.5203 C   0  0  0  0  0  0
  -18.1922  -26.7930   22.1610 C   0  0  0  0  0  0
  -19.1506  -28.8823   23.2920 C   0  0  0  0  0  0
  -18.9453  -30.1441   23.8895 C   0  0  0  0  0  0
  -17.6460  -30.6585   24.0552 C   0  0  0  0  0  0
  -25.9025  -34.9491   23.5154 C   0  0  0  0  0  0
  -16.5346  -29.9078   23.6355 C   0  0  0  0  0  0
  -16.7248  -28.6518   23.0338 C   0  0  0  0  0  0
  -26.4458  -31.6603   25.0717 C   0  0  0  0  0  0
  -25.3753  -31.3666   26.1479 C   0  0  0  0  0  0
  -27.0308  -30.3079   24.6027 C   0  0  0  0  0  0
  -27.6048  -32.4311   25.7467 C   0  0  0  0  0  0
  -27.5575  -37.1811   24.8473 C   0  0  0  0  0  0
  -21.4128  -29.3033   22.3759 N   0  0  0  0  0  0
  -26.4289  -37.3797   23.9421 N   0  0  0  0  0  0
  -24.6597  -31.0847   22.0997 N   0  0  0  0  0  0
  -23.4194  -28.8217   23.3078 O   0  0  0  0  0  0
  -28.3673  -26.6632   20.0477 O   0  0  0  0  0  0
  -26.5565  -34.8921   22.4711 O   0  0  0  0  0  0
  -23.5314  -32.1420   23.7545 O   0  0  0  0  0  0
  -30.1705  -19.9651   20.2942 C   0  0  0  0  0  0
  -28.5349  -21.4546   19.2964 C   0  0  0  0  0  0
  -29.0629  -19.3151   18.2195 C   0  0  0  0  0  0
  -29.9629  -18.9788   19.2905 C   0  0  0  0  0  0
  -29.4878  -21.2052   20.2865 C   0  0  0  0  0  0
  -28.3468  -20.5338   18.2523 C   0  0  0  0  0  0
  -32.1542  -17.9702   19.3192 C   0  0  0  0  0  0
  -32.5626  -17.9870   17.8453 C   0  0  0  0  0  0
  -31.1231  -15.8741   17.6875 C   0  0  0  0  0  0
  -30.2728  -16.4583   18.8987 C   0  0  2  0  0  0
  -28.8413  -18.4788   16.9679 C   0  0  0  0  0  0
  -27.1579  -21.8084   15.0998 C   0  0  0  0  0  0
  -32.2562  -16.8457   15.6798 C   0  0  0  0  0  0
  -30.5353  -25.9142   20.8090 C   0  0  0  0  0  0
  -31.2296  -23.6604   19.9245 C   0  0  0  0  0  0
  -27.7945  -21.9783   16.4811 C   0  0  0  0  0  0
  -29.5928  -27.1208   20.6123 C   0  0  0  0  0  0
  -30.9981  -22.7997   21.1907 C   0  0  0  0  0  0
  -30.7138  -17.7721   19.4055 N   0  0  0  0  0  0
  -29.9594  -15.5093   19.9907 N   0  0  0  0  0  0
  -32.2517  -16.7073   17.1565 N   0  3  1  0  0  0
  -30.3338  -24.8442   19.7992 N   0  3  0  0  0  0
  -29.7054  -22.1891   21.2179 O   0  0  0  0  0  0
  -27.4652  -20.8258   17.2440 O   0  0  0  0  0  0
  -31.4590  -12.3314   19.1535 H   0  0  0  0  0  0
  -30.2848  -11.2708   19.8850 H   0  0  0  0  0  0
  -29.7072  -11.6721   17.4687 H   0  0  0  0  0  0
  -29.6905  -13.3970   17.7373 H   0  0  0  0  0  0
  -27.7507  -11.3099   18.7762 H   0  0  0  0  0  0
  -27.3882  -12.6829   17.7658 H   0  0  0  0  0  0
  -27.6585  -14.2432   19.5154 H   0  0  0  0  0  0
  -28.6741  -12.0778   21.4300 H   0  0  0  0  0  0
  -28.5150  -13.7731   21.7984 H   0  0  0  0  0  0
  -25.2814   -9.5726   22.4759 H   0  0  0  0  0  0
  -24.0047   -7.4661   22.7491 H   0  0  0  0  0  0
  -21.0916   -8.8822   19.8857 H   0  0  0  0  0  0
  -22.3793  -10.9752   19.6156 H   0  0  0  0  0  0
  -21.2054   -7.6130   23.9720 H   0  0  0  0  0  0
  -21.1480   -6.0502   25.9081 H   0  0  0  0  0  0
  -22.0579   -2.7578   23.2875 H   0  0  0  0  0  0
  -22.4123  -11.9957   22.4850 H   0  0  0  0  0  0
  -21.1108  -13.1259   22.2594 H   0  0  0  0  0  0
  -24.6566  -15.8468   20.5422 H   0  0  0  0  0  0
  -26.2770  -15.6464   20.1026 H   0  0  0  0  0  0
  -26.7093  -32.5570   23.1192 H   0  0  0  0  0  0
  -25.0102  -33.9803   25.0536 H   0  0  0  0  0  0
  -22.6824  -31.3075   21.4149 H   0  0  0  0  0  0
  -23.3739  -35.9645   23.3315 H   0  0  0  0  0  0
  -24.3576  -36.8905   22.2054 H   0  0  0  0  0  0
  -23.7223  -37.6521   23.6637 H   0  0  0  0  0  0
  -26.0188  -31.6122   20.5777 H   0  0  0  0  0  0
  -26.8111  -30.9170   21.9644 H   0  0  0  0  0  0
  -28.0799  -29.1952   21.1539 H   0  0  0  0  0  0
  -26.0964  -25.9789   19.0442 H   0  0  0  0  0  0
  -23.9935  -27.2808   19.0458 H   0  0  0  0  0  0
  -23.6995  -30.5906   19.4047 H   0  0  0  0  0  0
  -22.7289  -29.2322   19.8800 H   0  0  0  0  0  0
  -25.1278  -36.1997   25.0840 H   0  0  0  0  0  0
  -20.9936  -28.3201   24.1462 H   0  0  0  0  0  0
  -20.5683  -26.2249   23.3594 H   0  0  0  0  0  0
  -21.6640  -26.7455   22.1201 H   0  0  0  0  0  0
  -19.6910  -25.6300   21.1228 H   0  0  0  0  0  0
  -19.6696  -27.3199   20.6748 H   0  0  0  0  0  0
  -17.4201  -26.6680   21.4002 H   0  0  0  0  0  0
  -18.0307  -26.0058   22.8997 H   0  0  0  0  0  0
  -19.7920  -30.7260   24.2268 H   0  0  0  0  0  0
  -17.5003  -31.6250   24.5155 H   0  0  0  0  0  0
  -15.5346  -30.2975   23.7658 H   0  0  0  0  0  0
  -15.8658  -28.0821   22.7056 H   0  0  0  0  0  0
  -24.5929  -30.7007   25.7814 H   0  0  0  0  0  0
  -24.8929  -32.2800   26.4970 H   0  0  0  0  0  0
  -25.8133  -30.8810   27.0212 H   0  0  0  0  0  0
  -26.2831  -29.6805   24.1156 H   0  0  0  0  0  0
  -27.4223  -29.7335   25.4436 H   0  0  0  0  0  0
  -27.8588  -30.4456   23.9068 H   0  0  0  0  0  0
  -27.2690  -33.3608   26.2066 H   0  0  0  0  0  0
  -28.3835  -32.6870   25.0275 H   0  0  0  0  0  0
  -28.0730  -31.8418   26.5356 H   0  0  0  0  0  0
  -28.2610  -38.0091   24.7526 H   0  0  0  0  0  0
  -28.1064  -36.2639   24.6307 H   0  0  0  0  0  0
  -27.2305  -37.1464   25.8875 H   0  0  0  0  0  0
  -20.9285  -29.8718   21.6939 H   0  0  0  0  0  0
  -26.0191  -38.2879   24.1410 H   0  0  0  0  0  0
  -30.8681  -19.7733   21.0969 H   0  0  0  0  0  0
  -27.9675  -22.3723   19.3191 H   0  0  0  0  0  0
  -32.4811  -18.8943   19.7960 H   0  0  0  0  0  0
  -32.6614  -17.1631   19.8503 H   0  0  0  0  0  0
  -33.6326  -18.1818   17.7694 H   0  0  0  0  0  0
  -32.0683  -18.8159   17.3324 H   0  0  0  0  0  0
  -30.4310  -15.6471   16.8727 H   0  0  0  0  0  0
  -31.5690  -14.9022   17.8908 H   0  0  0  0  0  0
  -29.2650  -16.5741   18.5110 H   0  0  0  0  0  0
  -29.6511  -17.8025   16.7386 H   0  0  0  0  0  0
  -28.7837  -19.1280   16.0956 H   0  0  0  0  0  0
  -27.9000  -17.9333   17.0521 H   0  0  0  0  0  0
  -27.3159  -22.6977   14.4880 H   0  0  0  0  0  0
  -26.0842  -21.6357   15.1809 H   0  0  0  0  0  0
  -27.5836  -20.9562   14.5671 H   0  0  0  0  0  0
  -33.1282  -17.4138   15.3506 H   0  0  0  0  0  0
  -31.3678  -17.3725   15.3245 H   0  0  0  0  0  0
  -32.3011  -15.8754   15.1899 H   0  0  0  0  0  0
  -30.3582  -25.5042   21.8021 H   0  0  0  0  0  0
  -31.5692  -26.2635   20.7946 H   0  0  0  0  0  0
  -31.1082  -23.0374   19.0377 H   0  0  0  0  0  0
  -32.2645  -24.0030   19.9113 H   0  0  0  0  0  0
  -27.4147  -22.8731   16.9737 H   0  0  0  0  0  0
  -28.8787  -22.0904   16.3707 H   0  0  0  0  0  0
  -30.0337  -27.8769   19.9610 H   0  0  0  0  0  0
  -29.4429  -27.5727   21.5934 H   0  0  0  0  0  0
  -31.1224  -23.3939   22.0927 H   0  0  0  0  0  0
  -31.7634  -22.0291   21.2466 H   0  0  0  0  0  0
  -28.9721  -15.3853   20.1753 H   0  0  0  0  0  0
  -33.0601  -16.1412   17.3666 H   0  0  0  0  0  0
  -30.4791  -25.2520   18.8868 H   0  0  0  0  0  0
  -29.3672  -24.5532   19.8377 H   0  0  0  0  0  0
  1 25  1  0  0  0
  1 30  2  0  0  0
  1 90  1  0  0  0
  2  3  1  0  0  0
  2 25  1  0  0  0
  2 95  1  0  0  0
  2 96  1  0  0  0
  3  4  1  0  0  0
  3 97  1  0  0  0
  3 98  1  0  0  0
  4  5  1  0  0  0
  4 99  1  0  0  0
  4100  1  0  0  0
  5  6  1  0  0  0
  5 26  1  0  0  0
  5101  1  0  0  0
  6 25  1  0  0  0
  6102  1  0  0  0
  6103  1  0  0  0
  7  8  2  0  0  0
  7 26  1  0  0  0
  7 29  1  0  0  0
  8  9  1  0  0  0
  8 22  1  0  0  0
  9 10  1  0  0  0
  9 27  2  0  0  0
 10 11  2  0  0  0
 10 15  1  0  0  0
 11 12  1  0  0  0
 11104  1  0  0  0
 12 13  2  0  0  0
 12105  1  0  0  0
 13 14  1  0  0  0
 13 31  1  0  0  0
 14 15  2  0  0  0
 14106  1  0  0  0
 15107  1  0  0  0
 16 17  2  0  0  0
 16 21  1  0  0  0
 16 31  1  0  0  0
 17 18  1  0  0  0
 17108  1  0  0  0
 18 19  2  0  0  0
 18109  1  0  0  0
 19 20  1  0  0  0
 19 24  1  0  0  0
 20 21  2  0  0  0
 20110  1  0  0  0
 21 23  1  0  0  0
 22 28  1  0  0  0
 22 32  2  0  0  0
 26 27  1  0  0  0
 28111  1  0  0  0
 28112  1  0  0  0
 29113  1  0  0  0
 29114  1  0  0  0
 33 34  1  0  0  0
 33 66  1  0  0  0
 33 70  2  0  0  0
 34 36  1  0  0  0
 34 59  1  0  0  0
 34115  1  0  0  0
 35 44  2  0  0  0
 35 45  1  0  0  0
 35 68  1  0  0  0
 36 56  1  0  0  0
 36116  1  0  0  0
 37 39  1  0  0  0
 37 47  1  0  0  0
 37 66  1  0  0  0
 37117  1  0  0  0
 38 43  2  0  0  0
 38 46  1  0  0  0
 38 47  1  0  0  0
 39 64  1  0  0  0
 39 67  2  0  0  0
 40 52  1  0  0  0
 40 53  2  0  0  0
 40 58  1  0  0  0
 41118  1  0  0  0
 41119  1  0  0  0
 41120  1  0  0  0
 41 48  1  0  0  0
 42 43  1  0  0  0
 42 66  1  0  0  0
 42121  1  0  0  0
 42122  1  0  0  0
 43 44  1  0  0  0
 44123  1  0  0  0
 45 46  2  0  0  0
 45124  1  0  0  0
 46125  1  0  0  0
 47126  1  0  0  0
 47127  1  0  0  0
 48 56  1  0  0  0
 48 65  1  0  0  0
 48128  1  0  0  0
 49 50  1  0  0  0
 49 53  1  0  0  0
 49 64  1  0  0  0
 49129  1  0  0  0
 50 51  1  0  0  0
 50130  1  0  0  0
 50131  1  0  0  0
 51 52  1  0  0  0
 51132  1  0  0  0
 51133  1  0  0  0
 52134  1  0  0  0
 52135  1  0  0  0
 53 54  1  0  0  0
 54 55  2  0  0  0
 54136  1  0  0  0
 55 57  1  0  0  0
 55137  1  0  0  0
 56 69  2  0  0  0
 57 58  2  0  0  0
 57138  1  0  0  0
 58139  1  0  0  0
 59 60  1  0  0  0
 59 61  1  0  0  0
 59 62  1  0  0  0
 60140  1  0  0  0
 60141  1  0  0  0
 60142  1  0  0  0
 61143  1  0  0  0
 61144  1  0  0  0
 61145  1  0  0  0
 62146  1  0  0  0
 62147  1  0  0  0
 62148  1  0  0  0
 63 65  1  0  0  0
 63149  1  0  0  0
 63150  1  0  0  0
 63151  1  0  0  0
 64152  1  0  0  0
 65153  1  0  0  0
 68 87  1  0  0  0
 71 74  2  0  0  0
 71 75  1  0  0  0
 71154  1  0  0  0
 72 75  2  0  0  0
 72 76  1  0  0  0
 72155  1  0  0  0
 73 74  1  0  0  0
 73 76  2  0  0  0
 73 81  1  0  0  0
 74 89  1  0  0  0
 75 93  1  0  0  0
 76 94  1  0  0  0
 77 78  1  0  0  0
 77 89  1  0  0  0
 77156  1  0  0  0
 77157  1  0  0  0
 78 91  1  0  0  0
 78158  1  0  0  0
 78159  1  0  0  0
 79 80  1  0  0  0
 79 91  1  0  0  0
 79160  1  0  0  0
 79161  1  0  0  0
 80 89  1  0  0  0
 80 90  1  0  0  0
 80162  1  0  0  0
 81163  1  0  0  0
 81164  1  0  0  0
 81165  1  0  0  0
 82 86  1  0  0  0
 82166  1  0  0  0
 82167  1  0  0  0
 82168  1  0  0  0
 83169  1  0  0  0
 83170  1  0  0  0
 83171  1  0  0  0
 83 91  1  0  0  0
 84 87  1  0  0  0
 84 92  1  0  0  0
 84172  1  0  0  0
 84173  1  0  0  0
 85 88  1  0  0  0
 85 92  1  0  0  0
 85174  1  0  0  0
 85175  1  0  0  0
 86 94  1  0  0  0
 86176  1  0  0  0
 86177  1  0  0  0
 87178  1  0  0  0
 87179  1  0  0  0
 88 93  1  0  0  0
 88180  1  0  0  0
 88181  1  0  0  0
 90182  1  0  0  0
 91183  1  0  0  0
 92184  1  0  0  0
 92185  1  0  0  0
M  CHG  2  91   1  92   1
M  ISO  4   1 100  68 101  87 101  90 100
M  END
> <chiral flag>
0

> <version>
0

> <s_m_source_file>
/data/baiqing/PycharmProjects/Reinvent-master-3.2/result/LINK_invent/BTK/process_docking_weight1_custom_sum_contain_oxygen_bond_distance_aromatic_linkinvent_7_9_3/rearranged_h_0146.sdf

> <i_m_source_file_index>
34

> <r_mmod_Potential_Energy-OPLS-2005>
-44.890682220459

> <r_mmod_Stretch_Energy-OPLS-2005>
48.0621337890625

> <r_mmod_Bend_Energy-OPLS-2005>
161.744323730469

> <r_mmod_Torsional_Energy-OPLS-2005>
406.83544921875

> <r_mmod_Improper_Torsional_Energy-OPLS-2005>
22.5368309020996

> <r_mmod_Van_der_Waal_Energy-OPLS-2005>
167.808135986328

> <r_mmod_Electrostatic_Energy-OPLS-2005>
-69.89697265625

> <r_mmod_Solvation_Energy-OPLS-2005>
-808.607421875

> <b_mmod_Minimization_Converged-OPLS-2005>
0

> <r_mmod_RMS_Derivative-OPLS-2005>
6.36189937591553

$$$$
34
                    3D
 Structure written by MMmdl.
167175  0  0  1  0            999 V2000
  -31.0903  -14.6930   19.6778 C   0  0  0  0  0  0
  -31.2109  -12.3334   19.6199 C   0  0  0  0  0  0
  -30.5121  -12.2328   18.2996 C   0  0  0  0  0  0
  -29.1629  -12.4967   18.7070 C   0  0  0  0  0  0
  -28.4104  -13.7818   19.7895 C   0  0  2  0  0  0
  -29.4757  -13.4354   20.9407 C   0  0  0  0  0  0
  -24.6070  -14.3483   20.7847 C   0  0  0  0  0  0
  -23.8042  -13.3403   21.2784 C   0  0  0  0  0  0
  -24.3034  -12.0531   21.0014 C   0  0  0  0  0  0
  -23.7813  -10.6281   21.0665 C   0  0  0  0  0  0
  -24.2662   -9.6244   21.9590 C   0  0  0  0  0  0
  -23.6213   -8.3612   22.0915 C   0  0  0  0  0  0
  -22.4549   -8.0759   21.3412 C   0  0  0  0  0  0
  -22.0165   -9.0356   20.4121 C   0  0  0  0  0  0
  -22.6737  -10.2746   20.2672 C   0  0  0  0  0  0
  -21.7184   -6.0931   22.5232 C   0  0  0  0  0  0
  -21.4223   -6.5792   23.8163 C   0  0  0  0  0  0
  -21.3719   -5.6914   24.9112 C   0  0  0  0  0  0
  -21.6020   -4.3158   24.7180 C   0  0  0  0  0  0
  -21.8778   -3.8258   23.4298 C   0  0  0  0  0  0
  -21.9299   -4.7100   22.3368 C   0  0  0  0  0  0
  -22.3872  -13.5969   21.4425 C   0  0  0  0  0  0
  -22.1714   -4.2238   21.0957 F   0  0  0  0  0  0
  -21.5579   -3.4621   25.7687 F   0  0  0  0  0  0
  -30.7188  -13.5433   20.2633 N   0  0  0  0  0  0
  -25.5734  -13.7902   20.0534 N   0  0  0  0  0  0
  -24.7074  -12.5765   19.9023 N   0  0  0  0  0  0
  -21.7365  -12.7776   22.2426 N   0  0  0  0  0  0
  -24.4943  -15.7105   20.7615 N   0  0  0  0  0  0
  -32.1070  -15.1935   20.1040 O   0  0  0  0  0  0
  -21.7216   -6.9079   21.4144 O   0  0  0  0  0  0
  -21.8730  -14.5302   20.8323 O   0  0  0  0  0  0
  -24.6967  -31.7822   23.1434 C   0  0  0  0  0  0
  -25.9501  -32.4356   23.7990 C   0  0  1  0  0  0
  -26.9466  -26.4249   20.2641 C   0  0  0  0  0  0
  -25.6030  -33.8205   24.1856 N   0  0  0  0  0  0
  -23.5148  -30.3967   21.5077 C   0  0  2  0  0  0
  -24.9208  -28.7096   20.1012 C   0  0  0  0  0  0
  -22.7766  -29.4255   22.4684 C   0  0  0  0  0  0
  -18.0340  -28.1415   22.8467 C   0  0  0  0  0  0
  -24.1506  -36.7110   23.2652 C   0  0  0  0  0  0
  -26.1005  -30.4176   21.4445 C   0  0  0  0  0  0
  -26.1092  -28.9633   20.7909 C   0  0  0  0  0  0
  -27.1218  -27.8453   20.8393 C   0  0  0  0  0  0
  -25.7969  -26.4642   19.4532 C   0  0  0  0  0  0
  -24.8252  -27.5027   19.3944 C   0  0  0  0  0  0
  -23.7598  -29.7152   20.1326 C   0  0  0  0  0  0
  -25.4164  -36.2832   24.0261 C   0  0  1  0  0  0
  -20.5971  -28.3776   23.1140 C   0  0  2  0  0  0
  -20.6797  -26.9431   22.5413 C   0  0  0  0  0  0
  -19.5771  -26.6357   21.5228 C   0  0  0  0  0  0
  -18.1956  -26.7942   22.1631 C   0  0  0  0  0  0
  -19.1604  -28.8924   23.2778 C   0  0  0  0  0  0
  -18.9508  -30.1509   23.8817 C   0  0  0  0  0  0
  -17.6494  -30.6598   24.0546 C   0  0  0  0  0  0
  -25.9159  -34.9226   23.4908 C   0  0  0  0  0  0
  -16.5384  -29.9070   23.6351 C   0  0  0  0  0  0
  -16.7321  -28.6492   23.0376 C   0  0  0  0  0  0
  -26.4605  -31.6473   25.0692 C   0  0  0  0  0  0
  -25.3616  -31.3856   26.1269 C   0  0  0  0  0  0
  -27.0541  -30.2775   24.6747 C   0  0  0  0  0  0
  -27.6042  -32.4374   25.7494 C   0  0  0  0  0  0
  -27.5567  -37.1706   24.8457 C   0  0  0  0  0  0
  -21.4415  -29.3012   22.3444 N   0  0  0  0  0  0
  -26.4267  -37.3616   23.9406 N   0  0  0  0  0  0
  -24.7998  -30.9061   22.0816 N   0  0  0  0  0  0
  -23.4170  -28.7860   23.3062 O   0  0  0  0  0  0
  -27.6391  -24.9957   20.4102 O   0  0  0  0  0  0
  -26.5820  -34.8833   22.4540 O   0  0  0  0  0  0
  -23.5975  -32.1050   23.6277 O   0  0  0  0  0  0
  -27.1479  -14.3851   21.6252 C   0  0  0  0  0  0
  -27.0857  -12.5409   21.1254 C   0  0  0  0  0  0
  -26.8480  -15.3426   18.8306 C   0  0  0  0  0  0
  -26.8641  -13.7342   18.1370 C   0  0  0  0  0  0
  -27.0766  -15.8044   20.4605 C   0  0  0  0  0  0
  -26.9130  -12.1724   19.2471 C   0  0  0  0  0  0
  -27.9250   -8.9119   18.1789 C   0  0  0  0  0  0
  -27.5709   -9.5112   20.5842 C   0  0  0  0  0  0
  -27.9671  -14.1703   17.0207 C   0  0  0  0  0  0
  -27.4632  -21.2089   20.6486 C   0  0  0  0  0  0
  -29.3375  -15.1352   17.4095 C   0  0  0  0  0  0
  -27.1651  -23.2031   20.1646 C   0  0  0  0  0  0
  -27.0691  -19.2146   20.2367 C   0  0  0  0  0  0
  -27.0132   -9.6552   19.1653 C   0  0  0  0  0  0
  -30.6074  -15.0481   18.3818 N   0  0  0  0  0  0
  -27.2330  -17.4505   20.8097 O   0  0  0  0  0  0
  -26.8245  -10.9502   18.5882 O   0  0  0  0  0  0
  -32.2910  -12.3899   19.4625 H   0  0  0  0  0  0
  -31.0568  -11.4520   20.2466 H   0  0  0  0  0  0
  -30.6196  -11.2130   17.9192 H   0  0  0  0  0  0
  -30.9036  -12.8552   17.4962 H   0  0  0  0  0  0
  -29.0934  -11.5770   19.2965 H   0  0  0  0  0  0
  -28.7061  -12.1305   17.7958 H   0  0  0  0  0  0
  -28.7906  -14.7482   19.6390 H   0  0  0  0  0  0
  -29.4402  -12.4418   21.3889 H   0  0  0  0  0  0
  -29.5344  -14.1511   21.7634 H   0  0  0  0  0  0
  -25.0993   -9.8532   22.6072 H   0  0  0  0  0  0
  -24.0006   -7.6456   22.8067 H   0  0  0  0  0  0
  -21.1487   -8.8238   19.8021 H   0  0  0  0  0  0
  -22.2814  -10.9959   19.5641 H   0  0  0  0  0  0
  -21.2277   -7.6309   23.9688 H   0  0  0  0  0  0
  -21.1529   -6.0655   25.9015 H   0  0  0  0  0  0
  -22.0440   -2.7708   23.2774 H   0  0  0  0  0  0
  -22.2110  -12.0207   22.7107 H   0  0  0  0  0  0
  -20.7464  -12.9050   22.3992 H   0  0  0  0  0  0
  -23.6839  -16.1999   21.1213 H   0  0  0  0  0  0
  -25.1403  -16.3078   20.2609 H   0  0  0  0  0  0
  -26.7566  -32.4700   23.0665 H   0  0  0  0  0  0
  -25.0031  -33.9229   24.9908 H   0  0  0  0  0  0
  -22.8513  -31.2459   21.3306 H   0  0  0  0  0  0
  -23.3791  -35.9411   23.3213 H   0  0  0  0  0  0
  -24.3582  -36.8884   22.2089 H   0  0  0  0  0  0
  -23.7240  -37.6242   23.6811 H   0  0  0  0  0  0
  -26.3414  -31.1227   20.6482 H   0  0  0  0  0  0
  -26.9458  -30.4662   22.1168 H   0  0  0  0  0  0
  -28.0019  -28.0208   21.4410 H   0  0  0  0  0  0
  -25.5569  -25.5612   18.9111 H   0  0  0  0  0  0
  -23.9375  -27.3202   18.8051 H   0  0  0  0  0  0
  -23.9729  -30.4844   19.3899 H   0  0  0  0  0  0
  -22.8459  -29.2262   19.7908 H   0  0  0  0  0  0
  -25.1379  -36.1564   25.0749 H   0  0  0  0  0  0
  -21.0054  -28.3392   24.1263 H   0  0  0  0  0  0
  -20.5658  -26.2401   23.3681 H   0  0  0  0  0  0
  -21.6656  -26.7360   22.1227 H   0  0  0  0  0  0
  -19.6917  -25.6242   21.1312 H   0  0  0  0  0  0
  -19.6703  -27.3124   20.6722 H   0  0  0  0  0  0
  -17.4227  -26.6706   21.4029 H   0  0  0  0  0  0
  -18.0321  -26.0094   22.9035 H   0  0  0  0  0  0
  -19.7980  -30.7356   24.2135 H   0  0  0  0  0  0
  -17.5038  -31.6269   24.5163 H   0  0  0  0  0  0
  -15.5377  -30.2941   23.7718 H   0  0  0  0  0  0
  -15.8728  -28.0777   22.7136 H   0  0  0  0  0  0
  -24.5860  -30.7145   25.7554 H   0  0  0  0  0  0
  -24.8736  -32.3089   26.4397 H   0  0  0  0  0  0
  -25.7733  -30.9211   27.0237 H   0  0  0  0  0  0
  -26.3263  -29.6347   24.1785 H   0  0  0  0  0  0
  -27.3891  -29.7297   25.5563 H   0  0  0  0  0  0
  -27.9289  -30.3828   24.0334 H   0  0  0  0  0  0
  -27.2588  -33.3795   26.1763 H   0  0  0  0  0  0
  -28.3977  -32.6740   25.0396 H   0  0  0  0  0  0
  -28.0557  -31.8710   26.5646 H   0  0  0  0  0  0
  -28.2508  -38.0070   24.7538 H   0  0  0  0  0  0
  -28.1137  -36.2591   24.6237 H   0  0  0  0  0  0
  -27.2284  -37.1276   25.8855 H   0  0  0  0  0  0
  -20.9722  -29.8666   21.6512 H   0  0  0  0  0  0
  -26.0067  -38.2642   24.1445 H   0  0  0  0  0  0
  -27.2574  -14.6115   22.6757 H   0  0  0  0  0  0
  -27.1454  -11.7895   21.8947 H   0  0  0  0  0  0
  -26.8555  -16.1713   18.1379 H   0  0  0  0  0  0
  -28.0840   -7.8794   18.4887 H   0  0  0  0  0  0
  -28.9026   -9.3899   18.1109 H   0  0  0  0  0  0
  -27.5005   -8.8905   17.1746 H   0  0  0  0  0  0
  -27.7497   -8.4602   20.8123 H   0  0  0  0  0  0
  -26.8468   -9.8444   21.3148 H   0  0  0  0  0  0
  -28.5107  -10.0400   20.7308 H   0  0  0  0  0  0
  -27.3849  -14.7971   16.3428 H   0  0  0  0  0  0
  -28.2216  -13.3663   16.3308 H   0  0  0  0  0  0
  -27.1848  -21.2380   21.7027 H   0  0  0  0  0  0
  -28.5525  -21.1770   20.6799 H   0  0  0  0  0  0
  -28.9731  -16.1439   17.5975 H   0  0  0  0  0  0
  -29.8215  -15.2583   16.4412 H   0  0  0  0  0  0
  -27.3023  -23.1572   19.0845 H   0  0  0  0  0  0
  -26.0848  -23.2887   20.2754 H   0  0  0  0  0  0
  -25.9869  -19.2409   20.1114 H   0  0  0  0  0  0
  -27.4316  -19.1216   19.2133 H   0  0  0  0  0  0
  -26.0344   -9.1753   19.1483 H   0  0  0  0  0  0
  -31.3011  -15.6827   18.0145 H   0  0  0  0  0  0
  1 25  1  0  0  0
  1 30  2  0  0  0
  1 85  1  0  0  0
  2  3  1  0  0  0
  2 25  1  0  0  0
  2 88  1  0  0  0
  2 89  1  0  0  0
  3  4  1  0  0  0
  3 90  1  0  0  0
  3 91  1  0  0  0
  4  5  1  0  0  0
  4 92  1  0  0  0
  4 93  1  0  0  0
  5  6  1  0  0  0
  5 26  1  0  0  0
  5 94  1  0  0  0
  6 25  1  0  0  0
  6 95  1  0  0  0
  6 96  1  0  0  0
  7  8  2  0  0  0
  7 26  1  0  0  0
  7 29  1  0  0  0
  8  9  1  0  0  0
  8 22  1  0  0  0
  9 10  1  0  0  0
  9 27  2  0  0  0
 10 11  2  0  0  0
 10 15  1  0  0  0
 11 12  1  0  0  0
 11 97  1  0  0  0
 12 13  2  0  0  0
 12 98  1  0  0  0
 13 14  1  0  0  0
 13 31  1  0  0  0
 14 15  2  0  0  0
 14 99  1  0  0  0
 15100  1  0  0  0
 16 17  2  0  0  0
 16 21  1  0  0  0
 16 31  1  0  0  0
 17 18  1  0  0  0
 17101  1  0  0  0
 18 19  2  0  0  0
 18102  1  0  0  0
 19 20  1  0  0  0
 19 24  1  0  0  0
 20 21  2  0  0  0
 20103  1  0  0  0
 21 23  1  0  0  0
 22 28  1  0  0  0
 22 32  2  0  0  0
 26 27  1  0  0  0
 28104  1  0  0  0
 28105  1  0  0  0
 29106  1  0  0  0
 29107  1  0  0  0
 33 34  1  0  0  0
 33 66  1  0  0  0
 33 70  2  0  0  0
 34 36  1  0  0  0
 34 59  1  0  0  0
 34108  1  0  0  0
 35 44  2  0  0  0
 35 45  1  0  0  0
 35 68  1  0  0  0
 36 56  1  0  0  0
 36109  1  0  0  0
 37 39  1  0  0  0
 37 47  1  0  0  0
 37 66  1  0  0  0
 37110  1  0  0  0
 38 43  2  0  0  0
 38 46  1  0  0  0
 38 47  1  0  0  0
 39 64  1  0  0  0
 39 67  2  0  0  0
 40 52  1  0  0  0
 40 53  2  0  0  0
 40 58  1  0  0  0
 41111  1  0  0  0
 41112  1  0  0  0
 41113  1  0  0  0
 41 48  1  0  0  0
 42 43  1  0  0  0
 42 66  1  0  0  0
 42114  1  0  0  0
 42115  1  0  0  0
 43 44  1  0  0  0
 44116  1  0  0  0
 45 46  2  0  0  0
 45117  1  0  0  0
 46118  1  0  0  0
 47119  1  0  0  0
 47120  1  0  0  0
 48 56  1  0  0  0
 48 65  1  0  0  0
 48121  1  0  0  0
 49 50  1  0  0  0
 49 53  1  0  0  0
 49 64  1  0  0  0
 49122  1  0  0  0
 50 51  1  0  0  0
 50123  1  0  0  0
 50124  1  0  0  0
 51 52  1  0  0  0
 51125  1  0  0  0
 51126  1  0  0  0
 52127  1  0  0  0
 52128  1  0  0  0
 53 54  1  0  0  0
 54 55  2  0  0  0
 54129  1  0  0  0
 55 57  1  0  0  0
 55130  1  0  0  0
 56 69  2  0  0  0
 57 58  2  0  0  0
 57131  1  0  0  0
 58132  1  0  0  0
 59 60  1  0  0  0
 59 61  1  0  0  0
 59 62  1  0  0  0
 60133  1  0  0  0
 60134  1  0  0  0
 60135  1  0  0  0
 61136  1  0  0  0
 61137  1  0  0  0
 61138  1  0  0  0
 62139  1  0  0  0
 62140  1  0  0  0
 62141  1  0  0  0
 63 65  1  0  0  0
 63142  1  0  0  0
 63143  1  0  0  0
 63144  1  0  0  0
 64145  1  0  0  0
 65146  1  0  0  0
 68 82  1  0  0  0
 71 72  2  0  0  0
 71 75  1  0  0  0
 71147  1  0  0  0
 72 76  1  0  0  0
 72148  1  0  0  0
 73 74  1  0  0  0
 73 75  2  0  0  0
 73149  1  0  0  0
 74 76  2  0  0  0
 74 79  1  0  0  0
 75 86  1  0  0  0
 76 87  1  0  0  0
 77150  1  0  0  0
 77151  1  0  0  0
 77152  1  0  0  0
 77 84  1  0  0  0
 78 84  1  0  0  0
 78153  1  0  0  0
 78154  1  0  0  0
 78155  1  0  0  0
 79 81  1  0  0  0
 79156  1  0  0  0
 79157  1  0  0  0
 80 82  1  0  0  0
 80 83  1  0  0  0
 80158  1  0  0  0
 80159  1  0  0  0
 81 85  1  0  0  0
 81160  1  0  0  0
 81161  1  0  0  0
 82162  1  0  0  0
 82163  1  0  0  0
 83 86  1  0  0  0
 83164  1  0  0  0
 83165  1  0  0  0
 84 87  1  0  0  0
 84166  1  0  0  0
 85167  1  0  0  0
M  ISO  4   1 100  68 101  82 101  85 100
M  END
> <chiral flag>
0

> <version>
0

> <s_m_source_file>
/data/baiqing/PycharmProjects/Reinvent-master-3.2/result/LINK_invent/BTK/process_docking_weight1_custom_sum_contain_oxygen_bond_distance_aromatic_linkinvent_7_9_3/rearranged_h_0146.sdf

> <i_m_source_file_index>
35

> <r_mmod_Potential_Energy-OPLS-2005>
13429.17578125

> <r_mmod_Stretch_Energy-OPLS-2005>
6960.4072265625

> <r_mmod_Bend_Energy-OPLS-2005>
1319.77978515625

> <r_mmod_Torsional_Energy-OPLS-2005>
574.039489746094

> <r_mmod_Improper_Torsional_Energy-OPLS-2005>
61.6766891479492

> <r_mmod_Van_der_Waal_Energy-OPLS-2005>
2944.17724609375

> <r_mmod_Electrostatic_Energy-OPLS-2005>
-389.424285888672

> <r_mmod_Solvation_Energy-OPLS-2005>
-234.556167602539

> <b_mmod_Minimization_Converged-OPLS-2005>
0

> <r_mmod_RMS_Derivative-OPLS-2005>
3.98464298248291

$$$$
35
                    3D
 Structure written by MMmdl.
180190  0  0  1  0            999 V2000
  -30.6861  -14.5593   20.5468 C   0  0  0  0  0  0
  -30.4185  -12.3519   19.4585 C   0  0  0  0  0  0
  -29.5037  -12.5056   18.2251 C   0  0  0  0  0  0
  -28.0282  -12.3461   18.6389 C   0  0  0  0  0  0
  -27.6548  -13.2174   19.8662 C   0  0  2  0  0  0
  -28.6912  -13.0693   21.0016 C   0  0  0  0  0  0
  -25.2458  -13.8130   20.5387 C   0  0  0  0  0  0
  -24.1793  -13.0431   20.9168 C   0  0  0  0  0  0
  -24.6389  -11.6934   20.8824 C   0  0  0  0  0  0
  -23.9092  -10.4304   21.0484 C   0  0  0  0  0  0
  -24.3678   -9.4206   21.9242 C   0  0  0  0  0  0
  -23.6318   -8.2248   22.0784 C   0  0  0  0  0  0
  -22.4298   -8.0287   21.3561 C   0  0  0  0  0  0
  -21.9954   -9.0279   20.4687 C   0  0  0  0  0  0
  -22.7265  -10.2166   20.3120 C   0  0  0  0  0  0
  -21.6840   -6.0731   22.5279 C   0  0  0  0  0  0
  -21.3993   -6.5643   23.8202 C   0  0  0  0  0  0
  -21.3639   -5.6807   24.9180 C   0  0  0  0  0  0
  -21.6049   -4.3068   24.7233 C   0  0  0  0  0  0
  -21.8796   -3.8153   23.4356 C   0  0  0  0  0  0
  -21.9153   -4.6960   22.3403 C   0  0  0  0  0  0
  -22.7800  -13.5238   21.1882 C   0  0  0  0  0  0
  -22.1633   -4.2162   21.0961 F   0  0  0  0  0  0
  -21.5704   -3.4538   25.7747 F   0  0  0  0  0  0
  -30.0114  -13.3762   20.4378 N   0  0  0  0  0  0
  -26.2965  -12.9358   20.3274 N   0  0  0  0  0  0
  -25.9318  -11.6525   20.5810 N   0  0  0  0  0  0
  -22.0440  -12.8251   22.0470 N   0  0  0  0  0  0
  -25.4142  -15.1764   20.3319 N   0  0  0  0  0  0
  -31.8458  -14.6704   20.1258 O   0  0  0  0  0  0
  -21.6660   -6.8887   21.4235 O   0  0  0  0  0  0
  -22.3452  -14.5490   20.6687 O   0  0  0  0  0  0
  -24.6248  -31.8642   23.2073 C   0  0  0  0  0  0
  -25.9125  -32.4798   23.8404 C   0  0  1  0  0  0
  -27.2077  -27.3534   20.1020 C   0  0  0  0  0  0
  -25.5932  -33.8601   24.2319 N   0  0  0  0  0  0
  -23.4169  -30.4897   21.5511 C   0  0  2  0  0  0
  -24.8583  -28.9567   20.1075 C   0  0  0  0  0  0
  -22.7451  -29.4646   22.4997 C   0  0  0  0  0  0
  -18.0275  -28.1358   22.8485 C   0  0  0  0  0  0
  -24.1497  -36.7305   23.2647 C   0  0  0  0  0  0
  -25.9564  -30.7994   21.3764 C   0  0  0  0  0  0
  -26.0253  -29.4317   20.7184 C   0  0  0  0  0  0
  -27.2053  -28.6389   20.7164 C   0  0  0  0  0  0
  -26.0323  -26.9406   19.4364 C   0  0  0  0  0  0
  -24.8601  -27.7118   19.4610 C   0  0  0  0  0  0
  -23.6273  -29.8326   20.1643 C   0  0  0  0  0  0
  -25.4118  -36.3105   24.0347 C   0  0  1  0  0  0
  -20.5875  -28.3659   23.1285 C   0  0  2  0  0  0
  -20.6754  -26.9378   22.5409 C   0  0  0  0  0  0
  -19.5729  -26.6363   21.5193 C   0  0  0  0  0  0
  -18.1931  -26.7892   22.1634 C   0  0  0  0  0  0
  -19.1529  -28.8816   23.2880 C   0  0  0  0  0  0
  -18.9453  -30.1430   23.8893 C   0  0  0  0  0  0
  -17.6466  -30.6560   24.0554 C   0  0  0  0  0  0
  -25.9068  -34.9476   23.5124 C   0  0  0  0  0  0
  -16.5356  -29.9072   23.6319 C   0  0  0  0  0  0
  -16.7266  -28.6477   23.0340 C   0  0  0  0  0  0
  -26.4501  -31.6592   25.0776 C   0  0  0  0  0  0
  -25.3737  -31.3709   26.1500 C   0  0  0  0  0  0
  -27.0341  -30.3037   24.6185 C   0  0  0  0  0  0
  -27.6089  -32.4291   25.7513 C   0  0  0  0  0  0
  -27.5586  -37.1829   24.8481 C   0  0  0  0  0  0
  -21.4173  -29.3029   22.3692 N   0  0  0  0  0  0
  -26.4291  -37.3792   23.9432 N   0  0  0  0  0  0
  -24.6850  -31.0678   22.0996 N   0  0  0  0  0  0
  -23.4187  -28.8153   23.3053 O   0  0  0  0  0  0
  -28.3043  -26.4958   20.1502 O   0  0  0  0  0  0
  -26.5624  -34.8914   22.4704 O   0  0  0  0  0  0
  -23.5435  -32.1412   23.7425 O   0  0  0  0  0  0
  -25.5479  -20.2079   22.5053 C   0  0  0  0  0  0
  -26.4196  -21.2077   22.0299 C   0  0  0  0  0  0
  -26.1679  -19.0033   22.3474 C   0  0  0  0  0  0
  -27.5768  -20.6236   21.5895 C   0  0  0  0  0  0
  -30.1075  -21.4003   24.9443 C   0  0  0  0  0  0
  -28.6836  -20.9761   24.6687 C   0  0  0  0  0  0
  -28.8078  -17.1685   22.5556 C   0  0  0  0  0  0
  -29.4169  -18.1820   20.3443 C   0  0  0  0  0  0
  -29.9968  -16.2161   22.2192 C   0  0  0  0  0  0
  -29.9129  -16.7806   19.8337 C   0  0  0  0  0  0
  -29.6914  -21.0242   23.5380 C   0  0  0  0  0  0
  -28.2799  -18.0194   21.3616 C   0  0  0  0  0  0
  -24.1227  -17.5856   22.9945 C   0  0  0  0  0  0
  -25.6429  -17.6615   22.7913 C   0  0  0  0  0  0
  -29.5097  -22.0412   22.4127 C   0  0  0  0  0  0
  -28.9239  -23.9401   20.1423 C   0  0  0  0  0  0
  -28.0037  -25.1268   20.6064 C   0  0  0  0  0  0
  -28.7725  -21.4805   21.1609 C   0  0  2  0  0  0
  -27.4233  -19.2043   21.7334 N   0  0  0  0  0  0
  -29.9561  -15.6806   20.8434 N   0  0  0  0  0  0
  -28.2709  -22.5771   20.2517 N   0  3  0  0  0  0
  -31.4655  -12.4340   19.1639 H   0  0  0  0  0  0
  -30.3151  -11.3579   19.8952 H   0  0  0  0  0  0
  -29.7610  -11.7661   17.4679 H   0  0  0  0  0  0
  -29.6576  -13.4818   17.7561 H   0  0  0  0  0  0
  -27.8668  -11.2959   18.8822 H   0  0  0  0  0  0
  -27.3774  -12.5786   17.7961 H   0  0  0  0  0  0
  -27.6834  -14.2559   19.5289 H   0  0  0  0  0  0
  -28.6806  -12.0559   21.4103 H   0  0  0  0  0  0
  -28.4411  -13.7345   21.8292 H   0  0  0  0  0  0
  -25.2832   -9.5659   22.4836 H   0  0  0  0  0  0
  -24.0015   -7.4650   22.7511 H   0  0  0  0  0  0
  -21.0890   -8.8828   19.9004 H   0  0  0  0  0  0
  -22.3740  -10.9730   19.6268 H   0  0  0  0  0  0
  -21.1985   -7.6168   23.9679 H   0  0  0  0  0  0
  -21.1509   -6.0582   25.9081 H   0  0  0  0  0  0
  -22.0611   -2.7611   23.2879 H   0  0  0  0  0  0
  -22.4073  -11.9950   22.4912 H   0  0  0  0  0  0
  -21.1056  -13.1294   22.2690 H   0  0  0  0  0  0
  -24.6520  -15.8403   20.4100 H   0  0  0  0  0  0
  -26.2529  -15.5823   19.9392 H   0  0  0  0  0  0
  -26.7204  -32.5459   23.1165 H   0  0  0  0  0  0
  -25.0085  -33.9766   25.0458 H   0  0  0  0  0  0
  -22.7110  -31.3126   21.4170 H   0  0  0  0  0  0
  -23.3751  -35.9645   23.3303 H   0  0  0  0  0  0
  -24.3597  -36.8910   22.2062 H   0  0  0  0  0  0
  -23.7236  -37.6515   23.6637 H   0  0  0  0  0  0
  -26.0953  -31.5557   20.6028 H   0  0  0  0  0  0
  -26.8335  -30.8431   22.0111 H   0  0  0  0  0  0
  -28.0972  -28.9930   21.2118 H   0  0  0  0  0  0
  -25.9983  -26.0101   18.8842 H   0  0  0  0  0  0
  -23.9713  -27.3448   18.9638 H   0  0  0  0  0  0
  -23.7461  -30.6123   19.4102 H   0  0  0  0  0  0
  -22.7441  -29.2650   19.8682 H   0  0  0  0  0  0
  -25.1297  -36.1980   25.0830 H   0  0  0  0  0  0
  -20.9975  -28.3192   24.1400 H   0  0  0  0  0  0
  -20.5617  -26.2279   23.3615 H   0  0  0  0  0  0
  -21.6636  -26.7378   22.1236 H   0  0  0  0  0  0
  -19.6880  -25.6269   21.1203 H   0  0  0  0  0  0
  -19.6646  -27.3193   20.6725 H   0  0  0  0  0  0
  -17.4204  -26.6618   21.4046 H   0  0  0  0  0  0
  -18.0330  -26.0040   22.9028 H   0  0  0  0  0  0
  -19.7936  -30.7218   24.2275 H   0  0  0  0  0  0
  -17.5023  -31.6235   24.5154 H   0  0  0  0  0  0
  -15.5351  -30.2981   23.7607 H   0  0  0  0  0  0
  -15.8670  -28.0791   22.7062 H   0  0  0  0  0  0
  -24.5890  -30.7089   25.7822 H   0  0  0  0  0  0
  -24.8960  -32.2861   26.4995 H   0  0  0  0  0  0
  -25.8041  -30.8831   27.0249 H   0  0  0  0  0  0
  -26.2914  -29.6822   24.1166 H   0  0  0  0  0  0
  -27.4044  -29.7253   25.4662 H   0  0  0  0  0  0
  -27.8763  -30.4399   23.9393 H   0  0  0  0  0  0
  -27.2732  -33.3576   26.2121 H   0  0  0  0  0  0
  -28.3816  -32.6854   25.0264 H   0  0  0  0  0  0
  -28.0821  -31.8408   26.5382 H   0  0  0  0  0  0
  -28.2631  -38.0109   24.7517 H   0  0  0  0  0  0
  -28.1038  -36.2645   24.6276 H   0  0  0  0  0  0
  -27.2322  -37.1445   25.8889 H   0  0  0  0  0  0
  -20.9342  -29.8849   21.6986 H   0  0  0  0  0  0
  -26.0180  -38.2881   24.1363 H   0  0  0  0  0  0
  -24.5737  -20.3559   22.9548 H   0  0  0  0  0  0
  -26.2202  -22.2705   22.0661 H   0  0  0  0  0  0
  -30.7293  -20.6936   25.4921 H   0  0  0  0  0  0
  -30.2990  -22.4494   25.1607 H   0  0  0  0  0  0
  -27.9170  -21.7478   24.6892 H   0  0  0  0  0  0
  -28.3504  -19.9911   24.9921 H   0  0  0  0  0  0
  -29.1045  -17.8283   23.3707 H   0  0  0  0  0  0
  -28.0094  -16.5431   22.9494 H   0  0  0  0  0  0
  -29.0942  -18.7667   19.4811 H   0  0  0  0  0  0
  -30.2414  -18.7280   20.8047 H   0  0  0  0  0  0
  -30.0337  -15.4037   22.9505 H   0  0  0  0  0  0
  -30.9402  -16.7547   22.3430 H   0  0  0  0  0  0
  -30.8886  -16.9096   19.3557 H   0  0  0  0  0  0
  -29.2413  -16.4457   19.0389 H   0  0  0  0  0  0
  -30.0820  -20.0692   23.1979 H   0  0  0  0  0  0
  -27.5971  -17.3675   20.8173 H   0  0  0  0  0  0
  -23.8210  -16.5638   23.2285 H   0  0  0  0  0  0
  -23.5810  -17.8993   22.1002 H   0  0  0  0  0  0
  -23.8106  -18.2122   23.8284 H   0  0  0  0  0  0
  -26.1189  -17.3861   23.7345 H   0  0  0  0  0  0
  -25.9124  -16.8878   22.0865 H   0  0  0  0  0  0
  -30.4842  -22.4436   22.1320 H   0  0  0  0  0  0
  -28.9375  -22.8759   22.8189 H   0  0  0  0  0  0
  -29.9017  -23.9826   20.6205 H   0  0  0  0  0  0
  -29.1181  -24.0821   19.0799 H   0  0  0  0  0  0
  -27.9861  -25.1484   21.6950 H   0  0  0  0  0  0
  -26.9942  -24.8312   20.3324 H   0  0  0  0  0  0
  -29.4808  -20.8825   20.5931 H   0  0  0  0  0  0
  -28.2353  -22.1754   19.3271 H   0  0  0  0  0  0
  -27.3098  -22.7116   20.5202 H   0  0  0  0  0  0
  1 25  1  0  0  0
  1 30  2  0  0  0
  1 90  1  0  0  0
  2  3  1  0  0  0
  2 25  1  0  0  0
  2 92  1  0  0  0
  2 93  1  0  0  0
  3  4  1  0  0  0
  3 94  1  0  0  0
  3 95  1  0  0  0
  4  5  1  0  0  0
  4 96  1  0  0  0
  4 97  1  0  0  0
  5  6  1  0  0  0
  5 26  1  0  0  0
  5 98  1  0  0  0
  6 25  1  0  0  0
  6 99  1  0  0  0
  6100  1  0  0  0
  7  8  2  0  0  0
  7 26  1  0  0  0
  7 29  1  0  0  0
  8  9  1  0  0  0
  8 22  1  0  0  0
  9 10  1  0  0  0
  9 27  2  0  0  0
 10 11  2  0  0  0
 10 15  1  0  0  0
 11 12  1  0  0  0
 11101  1  0  0  0
 12 13  2  0  0  0
 12102  1  0  0  0
 13 14  1  0  0  0
 13 31  1  0  0  0
 14 15  2  0  0  0
 14103  1  0  0  0
 15104  1  0  0  0
 16 17  2  0  0  0
 16 21  1  0  0  0
 16 31  1  0  0  0
 17 18  1  0  0  0
 17105  1  0  0  0
 18 19  2  0  0  0
 18106  1  0  0  0
 19 20  1  0  0  0
 19 24  1  0  0  0
 20 21  2  0  0  0
 20107  1  0  0  0
 21 23  1  0  0  0
 22 28  1  0  0  0
 22 32  2  0  0  0
 26 27  1  0  0  0
 28108  1  0  0  0
 28109  1  0  0  0
 29110  1  0  0  0
 29111  1  0  0  0
 33 34  1  0  0  0
 33 66  1  0  0  0
 33 70  2  0  0  0
 34 36  1  0  0  0
 34 59  1  0  0  0
 34112  1  0  0  0
 35 44  2  0  0  0
 35 45  1  0  0  0
 35 68  1  0  0  0
 36 56  1  0  0  0
 36113  1  0  0  0
 37 39  1  0  0  0
 37 47  1  0  0  0
 37 66  1  0  0  0
 37114  1  0  0  0
 38 43  2  0  0  0
 38 46  1  0  0  0
 38 47  1  0  0  0
 39 64  1  0  0  0
 39 67  2  0  0  0
 40 52  1  0  0  0
 40 53  2  0  0  0
 40 58  1  0  0  0
 41115  1  0  0  0
 41116  1  0  0  0
 41117  1  0  0  0
 41 48  1  0  0  0
 42 43  1  0  0  0
 42 66  1  0  0  0
 42118  1  0  0  0
 42119  1  0  0  0
 43 44  1  0  0  0
 44120  1  0  0  0
 45 46  2  0  0  0
 45121  1  0  0  0
 46122  1  0  0  0
 47123  1  0  0  0
 47124  1  0  0  0
 48 56  1  0  0  0
 48 65  1  0  0  0
 48125  1  0  0  0
 49 50  1  0  0  0
 49 53  1  0  0  0
 49 64  1  0  0  0
 49126  1  0  0  0
 50 51  1  0  0  0
 50127  1  0  0  0
 50128  1  0  0  0
 51 52  1  0  0  0
 51129  1  0  0  0
 51130  1  0  0  0
 52131  1  0  0  0
 52132  1  0  0  0
 53 54  1  0  0  0
 54 55  2  0  0  0
 54133  1  0  0  0
 55 57  1  0  0  0
 55134  1  0  0  0
 56 69  2  0  0  0
 57 58  2  0  0  0
 57135  1  0  0  0
 58136  1  0  0  0
 59 60  1  0  0  0
 59 61  1  0  0  0
 59 62  1  0  0  0
 60137  1  0  0  0
 60138  1  0  0  0
 60139  1  0  0  0
 61140  1  0  0  0
 61141  1  0  0  0
 61142  1  0  0  0
 62143  1  0  0  0
 62144  1  0  0  0
 62145  1  0  0  0
 63 65  1  0  0  0
 63146  1  0  0  0
 63147  1  0  0  0
 63148  1  0  0  0
 64149  1  0  0  0
 65150  1  0  0  0
 68 87  1  0  0  0
 71 72  1  0  0  0
 71 73  2  0  0  0
 71151  1  0  0  0
 72 74  2  0  0  0
 72152  1  0  0  0
 73 84  1  0  0  0
 73 89  1  0  0  0
 74 88  1  0  0  0
 74 89  1  0  0  0
 75 76  1  0  0  0
 75 81  1  0  0  0
 75153  1  0  0  0
 75154  1  0  0  0
 76 81  1  0  0  0
 76155  1  0  0  0
 76156  1  0  0  0
 77 79  1  0  0  0
 77 82  1  0  0  0
 77157  1  0  0  0
 77158  1  0  0  0
 78 80  1  0  0  0
 78 82  1  0  0  0
 78159  1  0  0  0
 78160  1  0  0  0
 79 90  1  0  0  0
 79161  1  0  0  0
 79162  1  0  0  0
 80 90  1  0  0  0
 80163  1  0  0  0
 80164  1  0  0  0
 81 85  1  0  0  0
 81165  1  0  0  0
 82 89  1  0  0  0
 82166  1  0  0  0
 83 84  1  0  0  0
 83167  1  0  0  0
 83168  1  0  0  0
 83169  1  0  0  0
 84170  1  0  0  0
 84171  1  0  0  0
 85172  1  0  0  0
 85173  1  0  0  0
 85 88  1  0  0  0
 86 87  1  0  0  0
 86 91  1  0  0  0
 86174  1  0  0  0
 86175  1  0  0  0
 87176  1  0  0  0
 87177  1  0  0  0
 88 91  1  0  0  0
 88178  1  0  0  0
 91179  1  0  0  0
 91180  1  0  0  0
M  CHG  1  91   1
M  ISO  4   1 100  68 101  87 101  90 100
M  END
> <chiral flag>
0

> <version>
0

> <s_m_source_file>
/data/baiqing/PycharmProjects/Reinvent-master-3.2/result/LINK_invent/BTK/process_docking_weight1_custom_sum_contain_oxygen_bond_distance_aromatic_linkinvent_7_9_3/rearranged_h_0146.sdf

> <i_m_source_file_index>
36

> <r_mmod_Potential_Energy-OPLS-2005>
235.799194335938

> <r_mmod_Stretch_Energy-OPLS-2005>
74.7162857055664

> <r_mmod_Bend_Energy-OPLS-2005>
175.09245300293

> <r_mmod_Torsional_Energy-OPLS-2005>
439.520965576172

> <r_mmod_Improper_Torsional_Energy-OPLS-2005>
11.3684434890747

> <r_mmod_Van_der_Waal_Energy-OPLS-2005>
125.387634277344

> <r_mmod_Electrostatic_Energy-OPLS-2005>
-213.21467590332

> <r_mmod_Solvation_Energy-OPLS-2005>
-413.132232666016

> <b_mmod_Minimization_Converged-OPLS-2005>
0

> <r_mmod_RMS_Derivative-OPLS-2005>
5.81803178787231

$$$$
36
                    3D
 Structure written by MMmdl.
176186  0  0  1  0            999 V2000
  -30.6079  -14.5729   20.5779 C   0  0  0  0  0  0
  -30.4621  -12.3706   19.4302 C   0  0  0  0  0  0
  -29.5134  -12.4904   18.2166 C   0  0  0  0  0  0
  -28.0298  -12.3333   18.6246 C   0  0  0  0  0  0
  -27.6557  -13.1933   19.8628 C   0  0  2  0  0  0
  -28.6991  -12.9862   20.9852 C   0  0  0  0  0  0
  -25.2591  -13.8107   20.5685 C   0  0  0  0  0  0
  -24.1810  -13.0425   20.9190 C   0  0  0  0  0  0
  -24.6309  -11.6888   20.8713 C   0  0  0  0  0  0
  -23.8970  -10.4288   21.0405 C   0  0  0  0  0  0
  -24.3505   -9.4236   21.9219 C   0  0  0  0  0  0
  -23.6208   -8.2254   22.0800 C   0  0  0  0  0  0
  -22.4225   -8.0224   21.3560 C   0  0  0  0  0  0
  -21.9808   -9.0224   20.4715 C   0  0  0  0  0  0
  -22.7102  -10.2131   20.3116 C   0  0  0  0  0  0
  -21.6813   -6.0723   22.5318 C   0  0  0  0  0  0
  -21.3998   -6.5665   23.8243 C   0  0  0  0  0  0
  -21.3655   -5.6837   24.9224 C   0  0  0  0  0  0
  -21.6003   -4.3088   24.7291 C   0  0  0  0  0  0
  -21.8779   -3.8155   23.4428 C   0  0  0  0  0  0
  -21.9173   -4.6953   22.3466 C   0  0  0  0  0  0
  -22.7847  -13.5278   21.1853 C   0  0  0  0  0  0
  -22.1636   -4.2118   21.1041 F   0  0  0  0  0  0
  -21.5627   -3.4578   25.7819 F   0  0  0  0  0  0
  -30.0180  -13.3494   20.4361 N   0  0  0  0  0  0
  -26.2982  -12.9252   20.3301 N   0  0  0  0  0  0
  -25.9215  -11.6468   20.5712 N   0  0  0  0  0  0
  -22.0386  -12.8384   22.0424 N   0  0  0  0  0  0
  -25.4311  -15.1823   20.4129 N   0  0  0  0  0  0
  -31.7592  -14.8147   20.2161 O   0  0  0  0  0  0
  -21.6618   -6.8809   21.4254 O   0  0  0  0  0  0
  -22.3607  -14.5597   20.6663 O   0  0  0  0  0  0
  -24.6127  -31.8654   23.2095 C   0  0  0  0  0  0
  -25.9009  -32.4808   23.8407 C   0  0  1  0  0  0
  -27.2445  -27.3932   20.1184 C   0  0  0  0  0  0
  -25.5860  -33.8619   24.2353 N   0  0  0  0  0  0
  -23.4059  -30.4872   21.5468 C   0  0  2  0  0  0
  -24.8611  -28.9502   20.1092 C   0  0  0  0  0  0
  -22.7416  -29.4602   22.4942 C   0  0  0  0  0  0
  -18.0248  -28.1372   22.8484 C   0  0  0  0  0  0
  -24.1474  -36.7287   23.2646 C   0  0  0  0  0  0
  -25.9370  -30.8225   21.3714 C   0  0  0  0  0  0
  -26.0194  -29.4523   20.7171 C   0  0  0  0  0  0
  -27.2061  -28.6807   20.7176 C   0  0  0  0  0  0
  -26.0715  -26.9236   19.4835 C   0  0  0  0  0  0
  -24.8903  -27.6937   19.4797 C   0  0  0  0  0  0
  -23.6216  -29.8213   20.1608 C   0  0  0  0  0  0
  -25.4091  -36.3115   24.0352 C   0  0  1  0  0  0
  -20.5861  -28.3651   23.1305 C   0  0  2  0  0  0
  -20.6744  -26.9385   22.5424 C   0  0  0  0  0  0
  -19.5728  -26.6386   21.5207 C   0  0  0  0  0  0
  -18.1901  -26.7913   22.1622 C   0  0  0  0  0  0
  -19.1517  -28.8822   23.2903 C   0  0  0  0  0  0
  -18.9433  -30.1428   23.8922 C   0  0  0  0  0  0
  -17.6443  -30.6594   24.0548 C   0  0  0  0  0  0
  -25.9017  -34.9457   23.5158 C   0  0  0  0  0  0
  -16.5325  -29.9096   23.6327 C   0  0  0  0  0  0
  -16.7239  -28.6505   23.0353 C   0  0  0  0  0  0
  -26.4472  -31.6576   25.0719 C   0  0  0  0  0  0
  -25.3768  -31.3623   26.1493 C   0  0  0  0  0  0
  -27.0309  -30.3014   24.6074 C   0  0  0  0  0  0
  -27.6089  -32.4281   25.7459 C   0  0  0  0  0  0
  -27.5571  -37.1803   24.8472 C   0  0  0  0  0  0
  -21.4140  -29.3019   22.3712 N   0  0  0  0  0  0
  -26.4290  -37.3791   23.9428 N   0  0  0  0  0  0
  -24.6691  -31.0734   22.1012 N   0  0  0  0  0  0
  -23.4161  -28.8140   23.3005 O   0  0  0  0  0  0
  -28.4115  -26.6427   20.1684 O   0  0  0  0  0  0
  -26.5599  -34.8902   22.4731 O   0  0  0  0  0  0
  -23.5321  -32.1414   23.7475 O   0  0  0  0  0  0
  -28.1171  -24.1469   20.6372 C   0  0  0  0  0  0
  -28.4784  -25.2888   19.8387 C   0  0  0  0  0  0
  -29.0703  -24.7865   18.7037 C   0  0  0  0  0  0
  -28.4679  -23.0124   19.9461 C   0  0  0  0  0  0
  -31.3404  -25.5584   17.7155 C   0  0  0  0  0  0
  -30.5620  -26.8309   17.9073 C   0  0  0  0  0  0
  -29.8465  -18.0994   20.4956 C   0  0  0  0  0  0
  -30.4443  -19.6343   22.4162 C   0  0  0  0  0  0
  -30.7957  -17.1539   22.6494 C   0  0  0  0  0  0
  -29.8296  -25.5290   17.6419 C   0  0  0  0  0  0
  -29.4737  -19.4491   21.2141 C   0  0  1  0  0  0
  -29.7914  -16.9191   21.5142 C   0  0  2  0  0  0
  -30.5073  -22.3751   17.0203 C   0  0  0  0  0  0
  -28.0938  -22.8366   16.3598 C   0  0  0  0  0  0
  -29.4883  -20.7215   20.2826 C   0  0  0  0  0  0
  -29.0585  -22.5010   17.5110 C   0  0  0  0  0  0
  -28.8836  -23.3941   18.6699 N   0  0  0  0  0  0
  -28.3622  -21.6803   20.4383 N   0  0  0  0  0  0
  -29.7351  -15.5220   21.0113 N   0  0  0  0  0  0
  -30.4988  -18.4489   23.3157 N   0  3  0  0  0  0
  -31.4936  -12.5528   19.1219 H   0  0  0  0  0  0
  -30.4510  -11.3601   19.8373 H   0  0  0  0  0  0
  -29.7738  -11.7458   17.4623 H   0  0  0  0  0  0
  -29.6689  -13.4673   17.7556 H   0  0  0  0  0  0
  -27.8470  -11.2739   18.8325 H   0  0  0  0  0  0
  -27.3791  -12.5838   17.7845 H   0  0  0  0  0  0
  -27.6833  -14.2341   19.5353 H   0  0  0  0  0  0
  -28.7100  -11.9471   21.3140 H   0  0  0  0  0  0
  -28.4308  -13.5598   21.8758 H   0  0  0  0  0  0
  -25.2580   -9.5807   22.4870 H   0  0  0  0  0  0
  -23.9886   -7.4712   22.7571 H   0  0  0  0  0  0
  -21.0715   -8.8723   19.9085 H   0  0  0  0  0  0
  -22.3433  -10.9685   19.6300 H   0  0  0  0  0  0
  -21.1965   -7.6170   23.9722 H   0  0  0  0  0  0
  -21.1523   -6.0613   25.9123 H   0  0  0  0  0  0
  -22.0534   -2.7605   23.2989 H   0  0  0  0  0  0
  -22.3758  -11.9987   22.4910 H   0  0  0  0  0  0
  -21.1071  -13.1678   22.2533 H   0  0  0  0  0  0
  -24.6567  -15.8221   20.5462 H   0  0  0  0  0  0
  -26.2655  -15.6426   20.0734 H   0  0  0  0  0  0
  -26.7065  -32.5551   23.1175 H   0  0  0  0  0  0
  -24.9971  -33.9774   25.0473 H   0  0  0  0  0  0
  -22.6946  -31.3047   21.4072 H   0  0  0  0  0  0
  -23.3747  -35.9619   23.3335 H   0  0  0  0  0  0
  -24.3556  -36.8866   22.2057 H   0  0  0  0  0  0
  -23.7211  -37.6487   23.6642 H   0  0  0  0  0  0
  -26.0590  -31.5915   20.6073 H   0  0  0  0  0  0
  -26.8208  -30.8739   21.9964 H   0  0  0  0  0  0
  -28.0951  -29.0676   21.1958 H   0  0  0  0  0  0
  -26.0625  -25.9633   18.9914 H   0  0  0  0  0  0
  -24.0036  -27.3150   18.9882 H   0  0  0  0  0  0
  -23.7339  -30.6016   19.4076 H   0  0  0  0  0  0
  -22.7465  -29.2438   19.8570 H   0  0  0  0  0  0
  -25.1280  -36.1986   25.0850 H   0  0  0  0  0  0
  -20.9936  -28.3224   24.1432 H   0  0  0  0  0  0
  -20.5611  -26.2257   23.3613 H   0  0  0  0  0  0
  -21.6604  -26.7418   22.1226 H   0  0  0  0  0  0
  -19.6898  -25.6310   21.1198 H   0  0  0  0  0  0
  -19.6664  -27.3230   20.6766 H   0  0  0  0  0  0
  -17.4164  -26.6638   21.4030 H   0  0  0  0  0  0
  -18.0323  -26.0055   22.9025 H   0  0  0  0  0  0
  -19.7915  -30.7233   24.2301 H   0  0  0  0  0  0
  -17.5003  -31.6268   24.5164 H   0  0  0  0  0  0
  -15.5336  -30.3017   23.7642 H   0  0  0  0  0  0
  -15.8620  -28.0839   22.7078 H   0  0  0  0  0  0
  -24.5979  -30.6916   25.7838 H   0  0  0  0  0  0
  -24.8894  -32.2727   26.4989 H   0  0  0  0  0  0
  -25.8164  -30.8783   27.0223 H   0  0  0  0  0  0
  -26.2818  -29.6755   24.1178 H   0  0  0  0  0  0
  -27.4149  -29.7275   25.4525 H   0  0  0  0  0  0
  -27.8653  -30.4356   23.9180 H   0  0  0  0  0  0
  -27.2754  -33.3596   26.2059 H   0  0  0  0  0  0
  -28.3873  -32.6790   25.0236 H   0  0  0  0  0  0
  -28.0779  -31.8350   26.5334 H   0  0  0  0  0  0
  -28.2623  -38.0065   24.7495 H   0  0  0  0  0  0
  -28.1032  -36.2596   24.6352 H   0  0  0  0  0  0
  -27.2269  -37.1499   25.8866 H   0  0  0  0  0  0
  -20.9295  -29.8751   21.6941 H   0  0  0  0  0  0
  -26.0175  -38.2871   24.1450 H   0  0  0  0  0  0
  -27.6797  -24.1608   21.6261 H   0  0  0  0  0  0
  -31.8249  -25.1378   18.5987 H   0  0  0  0  0  0
  -31.8759  -25.4091   16.7814 H   0  0  0  0  0  0
  -30.6055  -27.5689   17.1086 H   0  0  0  0  0  0
  -30.5663  -27.2409   18.9169 H   0  0  0  0  0  0
  -30.8482  -18.1672   20.0663 H   0  0  0  0  0  0
  -29.1613  -17.9250   19.6634 H   0  0  0  0  0  0
  -30.1325  -20.5063   22.9942 H   0  0  0  0  0  0
  -31.4569  -19.8453   22.0672 H   0  0  0  0  0  0
  -31.8203  -17.1544   22.2718 H   0  0  0  0  0  0
  -30.7321  -16.3447   23.3782 H   0  0  0  0  0  0
  -29.3679  -25.4348   16.6632 H   0  0  0  0  0  0
  -28.4630  -19.3273   21.6079 H   0  0  0  0  0  0
  -28.8097  -16.9974   21.9810 H   0  0  0  0  0  0
  -30.5913  -21.5162   16.3554 H   0  0  0  0  0  0
  -31.2173  -22.2380   17.8392 H   0  0  0  0  0  0
  -30.8090  -23.2453   16.4378 H   0  0  0  0  0  0
  -27.9411  -21.9719   15.7104 H   0  0  0  0  0  0
  -28.4669  -23.6510   15.7405 H   0  0  0  0  0  0
  -27.1132  -23.1296   16.7352 H   0  0  0  0  0  0
  -29.5071  -20.3516   19.2628 H   0  0  0  0  0  0
  -30.4266  -21.2653   20.4190 H   0  0  0  0  0  0
  -28.7326  -21.5113   17.8164 H   0  0  0  0  0  0
  -27.4551  -21.2635   20.2177 H   0  0  0  0  0  0
  -28.8204  -15.1186   21.1404 H   0  0  0  0  0  0
  -29.6178  -18.3699   23.7963 H   0  0  0  0  0  0
  -31.1991  -18.6051   24.0221 H   0  0  0  0  0  0
  1 25  1  0  0  0
  1 30  2  0  0  0
  1 89  1  0  0  0
  2  3  1  0  0  0
  2 25  1  0  0  0
  2 91  1  0  0  0
  2 92  1  0  0  0
  3  4  1  0  0  0
  3 93  1  0  0  0
  3 94  1  0  0  0
  4  5  1  0  0  0
  4 95  1  0  0  0
  4 96  1  0  0  0
  5  6  1  0  0  0
  5 26  1  0  0  0
  5 97  1  0  0  0
  6 25  1  0  0  0
  6 98  1  0  0  0
  6 99  1  0  0  0
  7  8  2  0  0  0
  7 26  1  0  0  0
  7 29  1  0  0  0
  8  9  1  0  0  0
  8 22  1  0  0  0
  9 10  1  0  0  0
  9 27  2  0  0  0
 10 11  2  0  0  0
 10 15  1  0  0  0
 11 12  1  0  0  0
 11100  1  0  0  0
 12 13  2  0  0  0
 12101  1  0  0  0
 13 14  1  0  0  0
 13 31  1  0  0  0
 14 15  2  0  0  0
 14102  1  0  0  0
 15103  1  0  0  0
 16 17  2  0  0  0
 16 21  1  0  0  0
 16 31  1  0  0  0
 17 18  1  0  0  0
 17104  1  0  0  0
 18 19  2  0  0  0
 18105  1  0  0  0
 19 20  1  0  0  0
 19 24  1  0  0  0
 20 21  2  0  0  0
 20106  1  0  0  0
 21 23  1  0  0  0
 22 28  1  0  0  0
 22 32  2  0  0  0
 26 27  1  0  0  0
 28107  1  0  0  0
 28108  1  0  0  0
 29109  1  0  0  0
 29110  1  0  0  0
 33 34  1  0  0  0
 33 66  1  0  0  0
 33 70  2  0  0  0
 34 36  1  0  0  0
 34 59  1  0  0  0
 34111  1  0  0  0
 35 44  2  0  0  0
 35 45  1  0  0  0
 35 68  1  0  0  0
 36 56  1  0  0  0
 36112  1  0  0  0
 37 39  1  0  0  0
 37 47  1  0  0  0
 37 66  1  0  0  0
 37113  1  0  0  0
 38 43  2  0  0  0
 38 46  1  0  0  0
 38 47  1  0  0  0
 39 64  1  0  0  0
 39 67  2  0  0  0
 40 52  1  0  0  0
 40 53  2  0  0  0
 40 58  1  0  0  0
 41114  1  0  0  0
 41115  1  0  0  0
 41116  1  0  0  0
 41 48  1  0  0  0
 42 43  1  0  0  0
 42 66  1  0  0  0
 42117  1  0  0  0
 42118  1  0  0  0
 43 44  1  0  0  0
 44119  1  0  0  0
 45 46  2  0  0  0
 45120  1  0  0  0
 46121  1  0  0  0
 47122  1  0  0  0
 47123  1  0  0  0
 48 56  1  0  0  0
 48 65  1  0  0  0
 48124  1  0  0  0
 49 50  1  0  0  0
 49 53  1  0  0  0
 49 64  1  0  0  0
 49125  1  0  0  0
 50 51  1  0  0  0
 50126  1  0  0  0
 50127  1  0  0  0
 51 52  1  0  0  0
 51128  1  0  0  0
 51129  1  0  0  0
 52130  1  0  0  0
 52131  1  0  0  0
 53 54  1  0  0  0
 54 55  2  0  0  0
 54132  1  0  0  0
 55 57  1  0  0  0
 55133  1  0  0  0
 56 69  2  0  0  0
 57 58  2  0  0  0
 57134  1  0  0  0
 58135  1  0  0  0
 59 60  1  0  0  0
 59 61  1  0  0  0
 59 62  1  0  0  0
 60136  1  0  0  0
 60137  1  0  0  0
 60138  1  0  0  0
 61139  1  0  0  0
 61140  1  0  0  0
 61141  1  0  0  0
 62142  1  0  0  0
 62143  1  0  0  0
 62144  1  0  0  0
 63 65  1  0  0  0
 63145  1  0  0  0
 63146  1  0  0  0
 63147  1  0  0  0
 64148  1  0  0  0
 65149  1  0  0  0
 68 72  1  0  0  0
 71 72  1  0  0  0
 71 74  2  0  0  0
 71150  1  0  0  0
 72 73  2  0  0  0
 73 87  1  0  0  0
 73 80  1  0  0  0
 74 87  1  0  0  0
 74 88  1  0  0  0
 75 76  1  0  0  0
 75 80  1  0  0  0
 75151  1  0  0  0
 75152  1  0  0  0
 76 80  1  0  0  0
 76153  1  0  0  0
 76154  1  0  0  0
 77 81  1  0  0  0
 77 82  1  0  0  0
 77155  1  0  0  0
 77156  1  0  0  0
 78 81  1  0  0  0
 78 90  1  0  0  0
 78157  1  0  0  0
 78158  1  0  0  0
 79 82  1  0  0  0
 79 90  1  0  0  0
 79159  1  0  0  0
 79160  1  0  0  0
 80161  1  0  0  0
 81 85  1  0  0  0
 81162  1  0  0  0
 82 89  1  0  0  0
 82163  1  0  0  0
 83164  1  0  0  0
 83165  1  0  0  0
 83166  1  0  0  0
 83 86  1  0  0  0
 84 86  1  0  0  0
 84167  1  0  0  0
 84168  1  0  0  0
 84169  1  0  0  0
 85 88  1  0  0  0
 85170  1  0  0  0
 85171  1  0  0  0
 86 87  1  0  0  0
 86172  1  0  0  0
 88173  1  0  0  0
 89174  1  0  0  0
 90175  1  0  0  0
 90176  1  0  0  0
M  CHG  1  90   1
M  ISO  4   1 100  68 101  72 101  89 100
M  END
> <chiral flag>
0

> <version>
0

> <s_m_source_file>
/data/baiqing/PycharmProjects/Reinvent-master-3.2/result/LINK_invent/BTK/process_docking_weight1_custom_sum_contain_oxygen_bond_distance_aromatic_linkinvent_7_9_3/rearranged_h_0146.sdf

> <i_m_source_file_index>
37

> <r_mmod_Potential_Energy-OPLS-2005>
-95.7658157348633

> <r_mmod_Stretch_Energy-OPLS-2005>
54.5711631774902

> <r_mmod_Bend_Energy-OPLS-2005>
155.976638793945

> <r_mmod_Torsional_Energy-OPLS-2005>
350.377990722656

> <r_mmod_Improper_Torsional_Energy-OPLS-2005>
8.16131114959717

> <r_mmod_Van_der_Waal_Energy-OPLS-2005>
121.43546295166

> <r_mmod_Electrostatic_Energy-OPLS-2005>
-340.710723876953

> <r_mmod_Solvation_Energy-OPLS-2005>
-475.374908447266

> <b_mmod_Minimization_Converged-OPLS-2005>
0

> <r_mmod_RMS_Derivative-OPLS-2005>
7.10793447494507

$$$$
37
                    3D
 Structure written by MMmdl.
167175  0  0  1  0            999 V2000
  -30.6255  -14.5401   20.5442 C   0  0  0  0  0  0
  -30.4287  -12.3325   19.4340 C   0  0  0  0  0  0
  -29.4943  -12.5086   18.2167 C   0  0  0  0  0  0
  -28.0206  -12.3393   18.6301 C   0  0  0  0  0  0
  -27.6622  -13.1868   19.8784 C   0  0  2  0  0  0
  -28.7003  -12.9899   21.0070 C   0  0  0  0  0  0
  -25.2626  -13.8022   20.5597 C   0  0  0  0  0  0
  -24.1898  -13.0398   20.9142 C   0  0  0  0  0  0
  -24.6436  -11.6847   20.8778 C   0  0  0  0  0  0
  -23.9087  -10.4268   21.0452 C   0  0  0  0  0  0
  -24.3645   -9.4179   21.9216 C   0  0  0  0  0  0
  -23.6308   -8.2234   22.0800 C   0  0  0  0  0  0
  -22.4285   -8.0295   21.3564 C   0  0  0  0  0  0
  -21.9924   -9.0280   20.4674 C   0  0  0  0  0  0
  -22.7277  -10.2136   20.3089 C   0  0  0  0  0  0
  -21.6851   -6.0772   22.5297 C   0  0  0  0  0  0
  -21.4025   -6.5677   23.8229 C   0  0  0  0  0  0
  -21.3628   -5.6814   24.9173 C   0  0  0  0  0  0
  -21.6035   -4.3079   24.7219 C   0  0  0  0  0  0
  -21.8809   -3.8187   23.4336 C   0  0  0  0  0  0
  -21.9196   -4.7012   22.3401 C   0  0  0  0  0  0
  -22.7927  -13.5259   21.1777 C   0  0  0  0  0  0
  -22.1667   -4.2210   21.0969 F   0  0  0  0  0  0
  -21.5598   -3.4554   25.7715 F   0  0  0  0  0  0
  -30.0246  -13.3184   20.4565 N   0  0  0  0  0  0
  -26.3059  -12.9184   20.3364 N   0  0  0  0  0  0
  -25.9354  -11.6365   20.5819 N   0  0  0  0  0  0
  -22.0565  -12.8276   22.0314 N   0  0  0  0  0  0
  -25.4276  -15.1702   20.3850 N   0  0  0  0  0  0
  -31.7436  -14.7622   20.0703 O   0  0  0  0  0  0
  -21.6633   -6.8915   21.4253 O   0  0  0  0  0  0
  -22.3618  -14.5554   20.6583 O   0  0  0  0  0  0
  -24.6237  -31.8632   23.2054 C   0  0  0  0  0  0
  -25.9078  -32.4799   23.8381 C   0  0  1  0  0  0
  -27.2303  -27.3672   20.0975 C   0  0  0  0  0  0
  -25.5916  -33.8609   24.2308 N   0  0  0  0  0  0
  -23.4150  -30.4847   21.5489 C   0  0  2  0  0  0
  -24.8578  -28.9472   20.1148 C   0  0  0  0  0  0
  -22.7466  -29.4605   22.4991 C   0  0  0  0  0  0
  -18.0295  -28.1383   22.8465 C   0  0  0  0  0  0
  -24.1487  -36.7310   23.2648 C   0  0  0  0  0  0
  -25.9492  -30.8108   21.3657 C   0  0  0  0  0  0
  -26.0242  -29.4420   20.7079 C   0  0  0  0  0  0
  -27.2105  -28.6614   20.6889 C   0  0  0  0  0  0
  -26.0304  -26.8977   19.5075 C   0  0  0  0  0  0
  -24.8603  -27.6819   19.5096 C   0  0  0  0  0  0
  -23.6267  -29.8247   20.1637 C   0  0  0  0  0  0
  -25.4106  -36.3115   24.0344 C   0  0  1  0  0  0
  -20.5880  -28.3657   23.1318 C   0  0  2  0  0  0
  -20.6753  -26.9394   22.5401 C   0  0  0  0  0  0
  -19.5762  -26.6398   21.5162 C   0  0  0  0  0  0
  -18.1953  -26.7940   22.1583 C   0  0  0  0  0  0
  -19.1538  -28.8837   23.2892 C   0  0  0  0  0  0
  -18.9448  -30.1438   23.8918 C   0  0  0  0  0  0
  -17.6433  -30.6564   24.0565 C   0  0  0  0  0  0
  -25.9037  -34.9481   23.5121 C   0  0  0  0  0  0
  -16.5341  -29.9053   23.6336 C   0  0  0  0  0  0
  -16.7274  -28.6490   23.0333 C   0  0  0  0  0  0
  -26.4487  -31.6601   25.0729 C   0  0  0  0  0  0
  -25.3750  -31.3744   26.1490 C   0  0  0  0  0  0
  -27.0322  -30.3030   24.6143 C   0  0  0  0  0  0
  -27.6043  -32.4347   25.7505 C   0  0  0  0  0  0
  -27.5580  -37.1821   24.8468 C   0  0  0  0  0  0
  -21.4178  -29.3034   22.3740 N   0  0  0  0  0  0
  -26.4292  -37.3797   23.9408 N   0  0  0  0  0  0
  -24.6811  -31.0683   22.0977 N   0  0  0  0  0  0
  -23.4202  -28.8163   23.3075 O   0  0  0  0  0  0
  -28.4190  -26.6366   20.1108 O   0  0  0  0  0  0
  -26.5592  -34.8936   22.4679 O   0  0  0  0  0  0
  -23.5391  -32.1408   23.7373 O   0  0  0  0  0  0
  -29.4096  -20.5759   20.9832 C   0  0  0  0  0  0
  -27.3878  -21.7552   20.3469 C   0  0  0  0  0  0
  -28.6928  -19.3446   21.1026 C   0  0  0  0  0  0
  -27.2771  -19.3849   20.9269 C   0  0  0  0  0  0
  -28.7562  -21.8032   20.6597 C   0  0  0  0  0  0
  -26.6356  -20.5695   20.4886 C   0  0  0  0  0  0
  -25.8858  -18.1441   22.6631 C   0  0  0  0  0  0
  -24.2152  -22.7108   19.7865 C   0  0  0  0  0  0
  -29.4073  -18.0298   21.5551 C   0  0  0  0  0  0
  -26.4067  -18.1672   21.2161 C   0  0  0  0  0  0
  -29.7514  -16.9432   20.4735 C   0  0  0  0  0  0
  -24.7828  -21.4025   19.2123 C   0  0  0  0  0  0
  -28.4979  -25.2250   19.7422 C   0  0  0  0  0  0
  -28.7491  -24.2582   20.9464 C   0  0  0  0  0  0
  -29.8150  -15.5407   20.9753 N   0  0  0  0  0  0
  -29.4478  -23.0133   20.6335 O   0  0  0  0  0  0
  -25.2790  -20.5374   20.2309 O   0  0  0  0  0  0
  -31.4727  -12.4465   19.1329 H   0  0  0  0  0  0
  -30.3392  -11.3213   19.8341 H   0  0  0  0  0  0
  -29.7448  -11.7919   17.4347 H   0  0  0  0  0  0
  -29.6333  -13.4967   17.7756 H   0  0  0  0  0  0
  -27.8447  -11.2822   18.8319 H   0  0  0  0  0  0
  -27.3603  -12.5950   17.8017 H   0  0  0  0  0  0
  -27.6982  -14.2299   19.5664 H   0  0  0  0  0  0
  -28.6924  -11.9588   21.3654 H   0  0  0  0  0  0
  -28.4519  -13.5991   21.8777 H   0  0  0  0  0  0
  -25.2810   -9.5623   22.4768 H   0  0  0  0  0  0
  -24.0019   -7.4611   22.7521 H   0  0  0  0  0  0
  -21.0859   -8.8823   19.8973 H   0  0  0  0  0  0
  -22.3793  -10.9693   19.6201 H   0  0  0  0  0  0
  -21.2036   -7.6195   23.9737 H   0  0  0  0  0  0
  -21.1441   -6.0550   25.9066 H   0  0  0  0  0  0
  -22.0611   -2.7667   23.2807 H   0  0  0  0  0  0
  -22.4231  -11.9948   22.4672 H   0  0  0  0  0  0
  -21.1208  -13.1325   22.2580 H   0  0  0  0  0  0
  -24.6433  -15.8062   20.4732 H   0  0  0  0  0  0
  -26.2574  -15.5998   20.0003 H   0  0  0  0  0  0
  -26.7140  -32.5502   23.1143 H   0  0  0  0  0  0
  -25.0087  -33.9783   25.0469 H   0  0  0  0  0  0
  -22.7097  -31.3052   21.4111 H   0  0  0  0  0  0
  -23.3748  -35.9647   23.3313 H   0  0  0  0  0  0
  -24.3591  -36.8913   22.2066 H   0  0  0  0  0  0
  -23.7246  -37.6522   23.6645 H   0  0  0  0  0  0
  -26.0654  -31.5800   20.6016 H   0  0  0  0  0  0
  -26.8304  -30.8625   21.9918 H   0  0  0  0  0  0
  -28.1133  -29.0419   21.1427 H   0  0  0  0  0  0
  -25.9533  -25.9318   19.0322 H   0  0  0  0  0  0
  -23.9574  -27.2979   19.0556 H   0  0  0  0  0  0
  -23.7468  -30.6038   19.4099 H   0  0  0  0  0  0
  -22.7449  -29.2575   19.8622 H   0  0  0  0  0  0
  -25.1283  -36.1993   25.0837 H   0  0  0  0  0  0
  -20.9939  -28.3155   24.1452 H   0  0  0  0  0  0
  -20.5635  -26.2239   23.3548 H   0  0  0  0  0  0
  -21.6632  -26.7422   22.1237 H   0  0  0  0  0  0
  -19.6917  -25.6309   21.1194 H   0  0  0  0  0  0
  -19.6748  -27.3220   20.6717 H   0  0  0  0  0  0
  -17.4226  -26.6698   21.3989 H   0  0  0  0  0  0
  -18.0354  -26.0083   22.8984 H   0  0  0  0  0  0
  -19.7935  -30.7246   24.2306 H   0  0  0  0  0  0
  -17.4975  -31.6253   24.5159 H   0  0  0  0  0  0
  -15.5341  -30.2922   23.7666 H   0  0  0  0  0  0
  -15.8685  -28.0823   22.7007 H   0  0  0  0  0  0
  -24.5873  -30.7139   25.7847 H   0  0  0  0  0  0
  -24.9013  -32.2919   26.4992 H   0  0  0  0  0  0
  -25.8111  -30.8878   27.0224 H   0  0  0  0  0  0
  -26.2875  -29.6804   24.1157 H   0  0  0  0  0  0
  -27.4027  -29.7278   25.4648 H   0  0  0  0  0  0
  -27.8743  -30.4337   23.9332 H   0  0  0  0  0  0
  -27.2597  -33.3602   26.2138 H   0  0  0  0  0  0
  -28.3808  -32.6987   25.0311 H   0  0  0  0  0  0
  -28.0745  -31.8449   26.5393 H   0  0  0  0  0  0
  -28.2606  -38.0107   24.7482 H   0  0  0  0  0  0
  -28.1042  -36.2640   24.6292 H   0  0  0  0  0  0
  -27.2290  -37.1472   25.8868 H   0  0  0  0  0  0
  -20.9308  -29.8811   21.7042 H   0  0  0  0  0  0
  -26.0177  -38.2873   24.1404 H   0  0  0  0  0  0
  -30.4705  -20.5929   21.1926 H   0  0  0  0  0  0
  -26.9143  -22.6599   20.0123 H   0  0  0  0  0  0
  -26.7173  -18.1666   23.3653 H   0  0  0  0  0  0
  -25.2928  -17.2503   22.8620 H   0  0  0  0  0  0
  -25.2449  -18.9985   22.8826 H   0  0  0  0  0  0
  -24.0416  -23.4313   18.9873 H   0  0  0  0  0  0
  -24.8895  -23.1921   20.4938 H   0  0  0  0  0  0
  -23.2737  -22.5298   20.3090 H   0  0  0  0  0  0
  -28.7947  -17.5717   22.3322 H   0  0  0  0  0  0
  -30.3324  -18.2936   22.0668 H   0  0  0  0  0  0
  -26.9551  -17.2552   21.0137 H   0  0  0  0  0  0
  -25.5705  -18.1366   20.5189 H   0  0  0  0  0  0
  -30.6629  -17.2239   19.9447 H   0  0  0  0  0  0
  -28.9621  -16.9325   19.7208 H   0  0  0  0  0  0
  -25.5457  -21.6018   18.4592 H   0  0  0  0  0  0
  -23.9927  -20.8693   18.6836 H   0  0  0  0  0  0
  -27.6785  -24.8524   19.1349 H   0  0  0  0  0  0
  -29.3693  -25.1500   19.0904 H   0  0  0  0  0  0
  -27.8288  -24.0963   21.5112 H   0  0  0  0  0  0
  -29.4023  -24.7805   21.6451 H   0  0  0  0  0  0
  -28.9678  -15.2112   21.4153 H   0  0  0  0  0  0
  1 25  1  0  0  0
  1 30  2  0  0  0
  1 85  1  0  0  0
  2  3  1  0  0  0
  2 25  1  0  0  0
  2 88  1  0  0  0
  2 89  1  0  0  0
  3  4  1  0  0  0
  3 90  1  0  0  0
  3 91  1  0  0  0
  4  5  1  0  0  0
  4 92  1  0  0  0
  4 93  1  0  0  0
  5  6  1  0  0  0
  5 26  1  0  0  0
  5 94  1  0  0  0
  6 25  1  0  0  0
  6 95  1  0  0  0
  6 96  1  0  0  0
  7  8  2  0  0  0
  7 26  1  0  0  0
  7 29  1  0  0  0
  8  9  1  0  0  0
  8 22  1  0  0  0
  9 10  1  0  0  0
  9 27  2  0  0  0
 10 11  2  0  0  0
 10 15  1  0  0  0
 11 12  1  0  0  0
 11 97  1  0  0  0
 12 13  2  0  0  0
 12 98  1  0  0  0
 13 14  1  0  0  0
 13 31  1  0  0  0
 14 15  2  0  0  0
 14 99  1  0  0  0
 15100  1  0  0  0
 16 17  2  0  0  0
 16 21  1  0  0  0
 16 31  1  0  0  0
 17 18  1  0  0  0
 17101  1  0  0  0
 18 19  2  0  0  0
 18102  1  0  0  0
 19 20  1  0  0  0
 19 24  1  0  0  0
 20 21  2  0  0  0
 20103  1  0  0  0
 21 23  1  0  0  0
 22 28  1  0  0  0
 22 32  2  0  0  0
 26 27  1  0  0  0
 28104  1  0  0  0
 28105  1  0  0  0
 29106  1  0  0  0
 29107  1  0  0  0
 33 34  1  0  0  0
 33 66  1  0  0  0
 33 70  2  0  0  0
 34 36  1  0  0  0
 34 59  1  0  0  0
 34108  1  0  0  0
 35 44  2  0  0  0
 35 45  1  0  0  0
 35 68  1  0  0  0
 36 56  1  0  0  0
 36109  1  0  0  0
 37 39  1  0  0  0
 37 47  1  0  0  0
 37 66  1  0  0  0
 37110  1  0  0  0
 38 43  2  0  0  0
 38 46  1  0  0  0
 38 47  1  0  0  0
 39 64  1  0  0  0
 39 67  2  0  0  0
 40 52  1  0  0  0
 40 53  2  0  0  0
 40 58  1  0  0  0
 41111  1  0  0  0
 41112  1  0  0  0
 41113  1  0  0  0
 41 48  1  0  0  0
 42 43  1  0  0  0
 42 66  1  0  0  0
 42114  1  0  0  0
 42115  1  0  0  0
 43 44  1  0  0  0
 44116  1  0  0  0
 45 46  2  0  0  0
 45117  1  0  0  0
 46118  1  0  0  0
 47119  1  0  0  0
 47120  1  0  0  0
 48 56  1  0  0  0
 48 65  1  0  0  0
 48121  1  0  0  0
 49 50  1  0  0  0
 49 53  1  0  0  0
 49 64  1  0  0  0
 49122  1  0  0  0
 50 51  1  0  0  0
 50123  1  0  0  0
 50124  1  0  0  0
 51 52  1  0  0  0
 51125  1  0  0  0
 51126  1  0  0  0
 52127  1  0  0  0
 52128  1  0  0  0
 53 54  1  0  0  0
 54 55  2  0  0  0
 54129  1  0  0  0
 55 57  1  0  0  0
 55130  1  0  0  0
 56 69  2  0  0  0
 57 58  2  0  0  0
 57131  1  0  0  0
 58132  1  0  0  0
 59 60  1  0  0  0
 59 61  1  0  0  0
 59 62  1  0  0  0
 60133  1  0  0  0
 60134  1  0  0  0
 60135  1  0  0  0
 61136  1  0  0  0
 61137  1  0  0  0
 61138  1  0  0  0
 62139  1  0  0  0
 62140  1  0  0  0
 62141  1  0  0  0
 63 65  1  0  0  0
 63142  1  0  0  0
 63143  1  0  0  0
 63144  1  0  0  0
 64145  1  0  0  0
 65146  1  0  0  0
 68 83  1  0  0  0
 71 73  2  0  0  0
 71 75  1  0  0  0
 71147  1  0  0  0
 72 75  2  0  0  0
 72 76  1  0  0  0
 72148  1  0  0  0
 73 74  1  0  0  0
 73 79  1  0  0  0
 74 76  2  0  0  0
 74 80  1  0  0  0
 75 86  1  0  0  0
 76 87  1  0  0  0
 77 80  1  0  0  0
 77149  1  0  0  0
 77150  1  0  0  0
 77151  1  0  0  0
 78 82  1  0  0  0
 78152  1  0  0  0
 78153  1  0  0  0
 78154  1  0  0  0
 79 81  1  0  0  0
 79155  1  0  0  0
 79156  1  0  0  0
 80157  1  0  0  0
 80158  1  0  0  0
 81 85  1  0  0  0
 81159  1  0  0  0
 81160  1  0  0  0
 82 87  1  0  0  0
 82161  1  0  0  0
 82162  1  0  0  0
 83 84  1  0  0  0
 83163  1  0  0  0
 83164  1  0  0  0
 84 86  1  0  0  0
 84165  1  0  0  0
 84166  1  0  0  0
 85167  1  0  0  0
M  ISO  4   1 100  68 101  83 101  85 100
M  END
> <chiral flag>
0

> <version>
0

> <s_m_source_file>
/data/baiqing/PycharmProjects/Reinvent-master-3.2/result/LINK_invent/BTK/process_docking_weight1_custom_sum_contain_oxygen_bond_distance_aromatic_linkinvent_7_9_3/rearranged_h_0146.sdf

> <i_m_source_file_index>
38

> <r_mmod_Potential_Energy-OPLS-2005>
5.36961317062378

> <r_mmod_Stretch_Energy-OPLS-2005>
59.7970542907715

> <r_mmod_Bend_Energy-OPLS-2005>
132.611022949219

> <r_mmod_Torsional_Energy-OPLS-2005>
231.075088500977

> <r_mmod_Improper_Torsional_Energy-OPLS-2005>
7.53145933151245

> <r_mmod_Van_der_Waal_Energy-OPLS-2005>
152.905349731445

> <r_mmod_Electrostatic_Energy-OPLS-2005>
-388.155517578125

> <r_mmod_Solvation_Energy-OPLS-2005>
-214.359649658203

> <b_mmod_Minimization_Converged-OPLS-2005>
0

> <r_mmod_RMS_Derivative-OPLS-2005>
5.29927921295166

$$$$
38
                    3D
 Structure written by MMmdl.
150159  0  0  1  0            999 V2000
  -30.4304  -15.2321   20.3550 C   0  0  0  0  0  0
  -30.4518  -12.7796   19.5077 C   0  0  0  0  0  0
  -29.5370  -12.5545   18.2771 C   0  0  0  0  0  0
  -28.0833  -12.2870   18.7081 C   0  0  0  0  0  0
  -27.6148  -13.2655   19.8130 C   0  0  2  0  0  0
  -28.6534  -13.4289   20.9414 C   0  0  0  0  0  0
  -25.2417  -13.8219   20.5689 C   0  0  0  0  0  0
  -24.1769  -13.0412   20.9238 C   0  0  0  0  0  0
  -24.6422  -11.6919   20.8755 C   0  0  0  0  0  0
  -23.9109  -10.4285   21.0408 C   0  0  0  0  0  0
  -24.3649   -9.4199   21.9184 C   0  0  0  0  0  0
  -23.6310   -8.2241   22.0754 C   0  0  0  0  0  0
  -22.4285   -8.0287   21.3547 C   0  0  0  0  0  0
  -21.9934   -9.0264   20.4646 C   0  0  0  0  0  0
  -22.7280  -10.2136   20.3054 C   0  0  0  0  0  0
  -21.6857   -6.0757   22.5286 C   0  0  0  0  0  0
  -21.4023   -6.5657   23.8223 C   0  0  0  0  0  0
  -21.3650   -5.6798   24.9180 C   0  0  0  0  0  0
  -21.6030   -4.3061   24.7222 C   0  0  0  0  0  0
  -21.8818   -3.8165   23.4345 C   0  0  0  0  0  0
  -21.9199   -4.6986   22.3408 C   0  0  0  0  0  0
  -22.7792  -13.5181   21.1880 C   0  0  0  0  0  0
  -22.1668   -4.2175   21.0985 F   0  0  0  0  0  0
  -21.5615   -3.4539   25.7734 F   0  0  0  0  0  0
  -29.8906  -13.9192   20.3126 N   0  0  0  0  0  0
  -26.2843  -12.9482   20.3172 N   0  0  0  0  0  0
  -25.9354  -11.6596   20.5707 N   0  0  0  0  0  0
  -22.0451  -12.8190   22.0458 N   0  0  0  0  0  0
  -25.3966  -15.1947   20.4082 N   0  0  0  0  0  0
  -31.6615  -15.2595   20.1975 O   0  0  0  0  0  0
  -21.6636   -6.8899   21.4247 O   0  0  0  0  0  0
  -22.3481  -14.5470   20.6698 O   0  0  0  0  0  0
  -24.6607  -31.8288   23.1728 C   0  0  0  0  0  0
  -25.9311  -32.4607   23.8196 C   0  0  1  0  0  0
  -27.2253  -26.9693   20.1844 C   0  0  0  0  0  0
  -25.5993  -33.8411   24.2111 N   0  0  0  0  0  0
  -23.4699  -30.4420   21.5192 C   0  0  2  0  0  0
  -24.9237  -28.8281   20.1169 C   0  0  0  0  0  0
  -22.7642  -29.4457   22.4757 C   0  0  0  0  0  0
  -18.0309  -28.1336   22.8445 C   0  0  0  0  0  0
  -24.1469  -36.7181   23.2657 C   0  0  0  0  0  0
  -26.0378  -30.6464   21.3967 C   0  0  0  0  0  0
  -26.1087  -29.2393   20.7423 C   0  0  0  0  0  0
  -27.2581  -28.3347   20.7431 C   0  0  0  0  0  0
  -26.0099  -26.6905   19.5228 C   0  0  0  0  0  0
  -24.8973  -27.5718   19.4879 C   0  0  0  0  0  0
  -23.7099  -29.7585   20.1454 C   0  0  0  0  0  0
  -25.4099  -36.2962   24.0331 C   0  0  1  0  0  0
  -20.5935  -28.3700   23.1157 C   0  0  2  0  0  0
  -20.6772  -26.9371   22.5384 C   0  0  0  0  0  0
  -19.5752  -26.6317   21.5171 C   0  0  0  0  0  0
  -18.1930  -26.7865   22.1584 C   0  0  0  0  0  0
  -19.1578  -28.8827   23.2790 C   0  0  0  0  0  0
  -18.9514  -30.1413   23.8820 C   0  0  0  0  0  0
  -17.6523  -30.6547   24.0510 C   0  0  0  0  0  0
  -25.9088  -34.9356   23.5036 C   0  0  0  0  0  0
  -16.5399  -29.9032   23.6326 C   0  0  0  0  0  0
  -16.7302  -28.6441   23.0362 C   0  0  0  0  0  0
  -26.4581  -31.6531   25.0704 C   0  0  0  0  0  0
  -25.3712  -31.3775   26.1375 C   0  0  0  0  0  0
  -27.0536  -30.2914   24.6448 C   0  0  0  0  0  0
  -27.6061  -32.4368   25.7495 C   0  0  0  0  0  0
  -27.5563  -37.1723   24.8474 C   0  0  0  0  0  0
  -21.4308  -29.3025   22.3528 N   0  0  0  0  0  0
  -26.4231  -37.3713   23.9474 N   0  0  0  0  0  0
  -24.7424  -30.9992   22.0830 N   0  0  0  0  0  0
  -23.4214  -28.8011   23.2969 O   0  0  0  0  0  0
  -28.2724  -25.9223   20.1665 O   0  0  0  0  0  0
  -26.5676  -34.8898   22.4621 O   0  0  0  0  0  0
  -23.5697  -32.1263   23.6839 O   0  0  0  0  0  0
  -28.3869  -18.7481   19.6952 C   0  0  0  0  0  0
  -30.1722  -20.4568   20.7625 C   0  0  0  0  0  0
  -28.1897  -20.2120   19.6507 C   0  0  0  0  0  0
  -29.0383  -21.1929   20.2136 C   0  0  0  0  0  0
  -29.5252  -18.0471   20.2829 C   0  0  0  0  0  0
  -27.1076  -20.9554   18.8983 C   0  0  0  0  0  0
  -27.5960  -22.4396   18.7144 C   0  0  0  0  0  0
  -28.6990  -22.8155   19.7557 C   0  0  1  0  0  0
  -28.1638  -24.3301   20.5369 C   0  0  0  0  0  0
  -30.3816  -19.0355   20.7987 N   0  0  0  0  0  0
  -29.5733  -16.4341   20.3202 N   0  0  0  0  0  0
  -31.4662  -12.9944   19.1674 H   0  0  0  0  0  0
  -30.5287  -11.8748   20.1134 H   0  0  0  0  0  0
  -29.9077  -11.7269   17.6699 H   0  0  0  0  0  0
  -29.5670  -13.4409   17.6417 H   0  0  0  0  0  0
  -28.0319  -11.2639   19.0804 H   0  0  0  0  0  0
  -27.4154  -12.3324   17.8478 H   0  0  0  0  0  0
  -27.5326  -14.2310   19.3121 H   0  0  0  0  0  0
  -28.8083  -12.4944   21.4816 H   0  0  0  0  0  0
  -28.3007  -14.1564   21.6740 H   0  0  0  0  0  0
  -25.2791   -9.5676   22.4763 H   0  0  0  0  0  0
  -24.0019   -7.4636   22.7471 H   0  0  0  0  0  0
  -21.0869   -8.8784   19.8958 H   0  0  0  0  0  0
  -22.3732  -10.9675   19.6163 H   0  0  0  0  0  0
  -21.2017   -7.6162   23.9742 H   0  0  0  0  0  0
  -21.1458   -6.0523   25.9084 H   0  0  0  0  0  0
  -22.0599   -2.7628   23.2832 H   0  0  0  0  0  0
  -22.4103  -11.9895   22.4885 H   0  0  0  0  0  0
  -21.1058  -13.1203   22.2633 H   0  0  0  0  0  0
  -24.5963  -15.8144   20.4714 H   0  0  0  0  0  0
  -26.2163  -15.6478   20.0307 H   0  0  0  0  0  0
  -26.7358  -32.5165   23.0889 H   0  0  0  0  0  0
  -25.0136  -33.9469   25.0265 H   0  0  0  0  0  0
  -22.7786  -31.2708   21.3521 H   0  0  0  0  0  0
  -23.3780  -35.9469   23.3254 H   0  0  0  0  0  0
  -24.3568  -36.8899   22.2092 H   0  0  0  0  0  0
  -23.7167  -37.6324   23.6749 H   0  0  0  0  0  0
  -26.2240  -31.3964   20.6273 H   0  0  0  0  0  0
  -26.8921  -30.6917   22.0596 H   0  0  0  0  0  0
  -28.1655  -28.6614   21.2320 H   0  0  0  0  0  0
  -25.9080  -25.7353   19.0269 H   0  0  0  0  0  0
  -23.9987  -27.2507   18.9780 H   0  0  0  0  0  0
  -23.8729  -30.5334   19.3957 H   0  0  0  0  0  0
  -22.8175  -29.2238   19.8163 H   0  0  0  0  0  0
  -25.1278  -36.1735   25.0818 H   0  0  0  0  0  0
  -21.0026  -28.3292   24.1283 H   0  0  0  0  0  0
  -20.5589  -26.2327   23.3640 H   0  0  0  0  0  0
  -21.6642  -26.7298   22.1235 H   0  0  0  0  0  0
  -19.6934  -25.6216   21.1233 H   0  0  0  0  0  0
  -19.6680  -27.3085   20.6662 H   0  0  0  0  0  0
  -17.4212  -26.6593   21.3984 H   0  0  0  0  0  0
  -18.0331  -25.9984   22.8958 H   0  0  0  0  0  0
  -19.8016  -30.7191   24.2179 H   0  0  0  0  0  0
  -17.5104  -31.6233   24.5105 H   0  0  0  0  0  0
  -15.5399  -30.2926   23.7695 H   0  0  0  0  0  0
  -15.8688  -28.0737   22.7149 H   0  0  0  0  0  0
  -24.5886  -30.7129   25.7693 H   0  0  0  0  0  0
  -24.8919  -32.2990   26.4697 H   0  0  0  0  0  0
  -25.7966  -30.9018   27.0219 H   0  0  0  0  0  0
  -26.3247  -29.6508   24.1489 H   0  0  0  0  0  0
  -27.4126  -29.7347   25.5113 H   0  0  0  0  0  0
  -27.9137  -30.4131   23.9859 H   0  0  0  0  0  0
  -27.2616  -33.3722   26.1912 H   0  0  0  0  0  0
  -28.3934  -32.6863   25.0362 H   0  0  0  0  0  0
  -28.0655  -31.8616   26.5539 H   0  0  0  0  0  0
  -28.2514  -38.0084   24.7609 H   0  0  0  0  0  0
  -28.1115  -36.2625   24.6159 H   0  0  0  0  0  0
  -27.2313  -37.1188   25.8877 H   0  0  0  0  0  0
  -20.9526  -29.8801   21.6750 H   0  0  0  0  0  0
  -26.0075  -38.2758   24.1557 H   0  0  0  0  0  0
  -27.6227  -18.1465   19.2217 H   0  0  0  0  0  0
  -31.0044  -21.0311   21.1447 H   0  0  0  0  0  0
  -26.1981  -20.9316   19.4997 H   0  0  0  0  0  0
  -26.8848  -20.4783   17.9442 H   0  0  0  0  0  0
  -26.7629  -23.1431   18.7024 H   0  0  0  0  0  0
  -28.0465  -22.5171   17.7239 H   0  0  0  0  0  0
  -29.6001  -23.0993   19.2104 H   0  0  0  0  0  0
  -28.6784  -24.3174   21.4980 H   0  0  0  0  0  0
  -27.1222  -24.1687   20.8133 H   0  0  0  0  0  0
  -28.6324  -16.0871   20.2363 H   0  0  0  0  0  0
  1 25  1  0  0  0
  1 30  2  0  0  0
  1 81  1  0  0  0
  2  3  1  0  0  0
  2 25  1  0  0  0
  2 82  1  0  0  0
  2 83  1  0  0  0
  3  4  1  0  0  0
  3 84  1  0  0  0
  3 85  1  0  0  0
  4  5  1  0  0  0
  4 86  1  0  0  0
  4 87  1  0  0  0
  5  6  1  0  0  0
  5 26  1  0  0  0
  5 88  1  0  0  0
  6 25  1  0  0  0
  6 89  1  0  0  0
  6 90  1  0  0  0
  7  8  2  0  0  0
  7 26  1  0  0  0
  7 29  1  0  0  0
  8  9  1  0  0  0
  8 22  1  0  0  0
  9 10  1  0  0  0
  9 27  2  0  0  0
 10 11  2  0  0  0
 10 15  1  0  0  0
 11 12  1  0  0  0
 11 91  1  0  0  0
 12 13  2  0  0  0
 12 92  1  0  0  0
 13 14  1  0  0  0
 13 31  1  0  0  0
 14 15  2  0  0  0
 14 93  1  0  0  0
 15 94  1  0  0  0
 16 17  2  0  0  0
 16 21  1  0  0  0
 16 31  1  0  0  0
 17 18  1  0  0  0
 17 95  1  0  0  0
 18 19  2  0  0  0
 18 96  1  0  0  0
 19 20  1  0  0  0
 19 24  1  0  0  0
 20 21  2  0  0  0
 20 97  1  0  0  0
 21 23  1  0  0  0
 22 28  1  0  0  0
 22 32  2  0  0  0
 26 27  1  0  0  0
 28 98  1  0  0  0
 28 99  1  0  0  0
 29100  1  0  0  0
 29101  1  0  0  0
 33 34  1  0  0  0
 33 66  1  0  0  0
 33 70  2  0  0  0
 34 36  1  0  0  0
 34 59  1  0  0  0
 34102  1  0  0  0
 35 44  2  0  0  0
 35 45  1  0  0  0
 35 68  1  0  0  0
 36 56  1  0  0  0
 36103  1  0  0  0
 37 39  1  0  0  0
 37 47  1  0  0  0
 37 66  1  0  0  0
 37104  1  0  0  0
 38 43  2  0  0  0
 38 46  1  0  0  0
 38 47  1  0  0  0
 39 64  1  0  0  0
 39 67  2  0  0  0
 40 52  1  0  0  0
 40 53  2  0  0  0
 40 58  1  0  0  0
 41105  1  0  0  0
 41106  1  0  0  0
 41107  1  0  0  0
 41 48  1  0  0  0
 42 43  1  0  0  0
 42 66  1  0  0  0
 42108  1  0  0  0
 42109  1  0  0  0
 43 44  1  0  0  0
 44110  1  0  0  0
 45 46  2  0  0  0
 45111  1  0  0  0
 46112  1  0  0  0
 47113  1  0  0  0
 47114  1  0  0  0
 48 56  1  0  0  0
 48 65  1  0  0  0
 48115  1  0  0  0
 49 50  1  0  0  0
 49 53  1  0  0  0
 49 64  1  0  0  0
 49116  1  0  0  0
 50 51  1  0  0  0
 50117  1  0  0  0
 50118  1  0  0  0
 51 52  1  0  0  0
 51119  1  0  0  0
 51120  1  0  0  0
 52121  1  0  0  0
 52122  1  0  0  0
 53 54  1  0  0  0
 54 55  2  0  0  0
 54123  1  0  0  0
 55 57  1  0  0  0
 55124  1  0  0  0
 56 69  2  0  0  0
 57 58  2  0  0  0
 57125  1  0  0  0
 58126  1  0  0  0
 59 60  1  0  0  0
 59 61  1  0  0  0
 59 62  1  0  0  0
 60127  1  0  0  0
 60128  1  0  0  0
 60129  1  0  0  0
 61130  1  0  0  0
 61131  1  0  0  0
 61132  1  0  0  0
 62133  1  0  0  0
 62134  1  0  0  0
 62135  1  0  0  0
 63 65  1  0  0  0
 63136  1  0  0  0
 63137  1  0  0  0
 63138  1  0  0  0
 64139  1  0  0  0
 65140  1  0  0  0
 68 79  1  0  0  0
 71 73  2  0  0  0
 71 75  1  0  0  0
 71141  1  0  0  0
 72 74  2  0  0  0
 72 80  1  0  0  0
 72142  1  0  0  0
 73 74  1  0  0  0
 73 76  1  0  0  0
 74 78  1  0  0  0
 75 80  2  0  0  0
 75 81  1  0  0  0
 76 77  1  0  0  0
 76143  1  0  0  0
 76144  1  0  0  0
 77 78  1  0  0  0
 77145  1  0  0  0
 77146  1  0  0  0
 78 79  1  0  0  0
 78147  1  0  0  0
 79148  1  0  0  0
 79149  1  0  0  0
 81150  1  0  0  0
M  ISO  4   1 100  68 101  79 101  81 100
M  END
> <chiral flag>
0

> <version>
0

> <s_m_source_file>
/data/baiqing/PycharmProjects/Reinvent-master-3.2/result/LINK_invent/BTK/process_docking_weight1_custom_sum_contain_oxygen_bond_distance_aromatic_linkinvent_7_9_3/rearranged_h_0146.sdf

> <i_m_source_file_index>
39

> <r_mmod_Potential_Energy-OPLS-2005>
1025.2890625

> <r_mmod_Stretch_Energy-OPLS-2005>
467.786346435547

> <r_mmod_Bend_Energy-OPLS-2005>
489.728912353516

> <r_mmod_Torsional_Energy-OPLS-2005>
254.551147460938

> <r_mmod_Improper_Torsional_Energy-OPLS-2005>
10.4420938491821

> <r_mmod_Van_der_Waal_Energy-OPLS-2005>
123.121940612793

> <r_mmod_Electrostatic_Energy-OPLS-2005>
-488.75927734375

> <r_mmod_Solvation_Energy-OPLS-2005>
-239.092620849609

> <b_mmod_Minimization_Converged-OPLS-2005>
0

> <r_mmod_RMS_Derivative-OPLS-2005>
3.27786445617676

$$$$
39
                    3D
 Structure written by MMmdl.
161170  0  0  1  0            999 V2000
  -30.7385  -14.4087   20.6423 C   0  0  0  0  0  0
  -30.4262  -12.2966   19.4029 C   0  0  0  0  0  0
  -29.4924  -12.5086   18.1949 C   0  0  0  0  0  0
  -28.0136  -12.3765   18.6091 C   0  0  0  0  0  0
  -27.6677  -13.2022   19.8770 C   0  0  2  0  0  0
  -28.7075  -12.9522   20.9917 C   0  0  0  0  0  0
  -25.2622  -13.8149   20.5657 C   0  0  0  0  0  0
  -24.1863  -13.0433   20.9153 C   0  0  0  0  0  0
  -24.6413  -11.6903   20.8713 C   0  0  0  0  0  0
  -23.9071  -10.4290   21.0386 C   0  0  0  0  0  0
  -24.3617   -9.4204   21.9169 C   0  0  0  0  0  0
  -23.6287   -8.2245   22.0755 C   0  0  0  0  0  0
  -22.4265   -8.0283   21.3544 C   0  0  0  0  0  0
  -21.9907   -9.0253   20.4642 C   0  0  0  0  0  0
  -22.7241  -10.2130   20.3038 C   0  0  0  0  0  0
  -21.6857   -6.0726   22.5275 C   0  0  0  0  0  0
  -21.4020   -6.5632   23.8204 C   0  0  0  0  0  0
  -21.3652   -5.6785   24.9171 C   0  0  0  0  0  0
  -21.6043   -4.3048   24.7223 C   0  0  0  0  0  0
  -21.8824   -3.8136   23.4342 C   0  0  0  0  0  0
  -21.9201   -4.6952   22.3400 C   0  0  0  0  0  0
  -22.7888  -13.5235   21.1820 C   0  0  0  0  0  0
  -22.1665   -4.2134   21.0976 F   0  0  0  0  0  0
  -21.5627   -3.4533   25.7734 F   0  0  0  0  0  0
  -30.0449  -13.2552   20.4501 N   0  0  0  0  0  0
  -26.3064  -12.9316   20.3360 N   0  0  0  0  0  0
  -25.9337  -11.6479   20.5738 N   0  0  0  0  0  0
  -22.0518  -12.8236   22.0368 N   0  0  0  0  0  0
  -25.4360  -15.1867   20.4074 N   0  0  0  0  0  0
  -31.8034  -14.6661   20.0768 O   0  0  0  0  0  0
  -21.6640   -6.8870   21.4234 O   0  0  0  0  0  0
  -22.3574  -14.5529   20.6651 O   0  0  0  0  0  0
  -24.6141  -31.8677   23.2112 C   0  0  0  0  0  0
  -25.9038  -32.4824   23.8401 C   0  0  1  0  0  0
  -27.2406  -27.4393   20.0915 C   0  0  0  0  0  0
  -25.5901  -33.8624   24.2343 N   0  0  0  0  0  0
  -23.4026  -30.4939   21.5504 C   0  0  2  0  0  0
  -24.8476  -28.9619   20.1145 C   0  0  0  0  0  0
  -22.7403  -29.4678   22.4980 C   0  0  0  0  0  0
  -18.0278  -28.1381   22.8511 C   0  0  0  0  0  0
  -24.1481  -36.7295   23.2642 C   0  0  0  0  0  0
  -25.9326  -30.8341   21.3643 C   0  0  0  0  0  0
  -26.0086  -29.4699   20.7105 C   0  0  0  0  0  0
  -27.2047  -28.7173   20.6946 C   0  0  0  0  0  0
  -26.0534  -26.9419   19.4980 C   0  0  0  0  0  0
  -24.8652  -27.6958   19.5074 C   0  0  0  0  0  0
  -23.6094  -29.8299   20.1642 C   0  0  0  0  0  0
  -25.4101  -36.3110   24.0352 C   0  0  1  0  0  0
  -20.5869  -28.3665   23.1317 C   0  0  2  0  0  0
  -20.6783  -26.9395   22.5425 C   0  0  0  0  0  0
  -19.5760  -26.6397   21.5220 C   0  0  0  0  0  0
  -18.1928  -26.7943   22.1620 C   0  0  0  0  0  0
  -19.1529  -28.8834   23.2919 C   0  0  0  0  0  0
  -18.9460  -30.1454   23.8919 C   0  0  0  0  0  0
  -17.6460  -30.6590   24.0581 C   0  0  0  0  0  0
  -25.9034  -34.9483   23.5139 C   0  0  0  0  0  0
  -16.5347  -29.9100   23.6338 C   0  0  0  0  0  0
  -16.7268  -28.6513   23.0358 C   0  0  0  0  0  0
  -26.4470  -31.6599   25.0725 C   0  0  0  0  0  0
  -25.3744  -31.3702   26.1473 C   0  0  0  0  0  0
  -27.0292  -30.3053   24.6086 C   0  0  0  0  0  0
  -27.6060  -32.4305   25.7473 C   0  0  0  0  0  0
  -27.5583  -37.1793   24.8467 C   0  0  0  0  0  0
  -21.4128  -29.3037   22.3708 N   0  0  0  0  0  0
  -26.4289  -37.3792   23.9426 N   0  0  0  0  0  0
  -24.6682  -31.0792   22.1009 N   0  0  0  0  0  0
  -23.4172  -28.8221   23.3021 O   0  0  0  0  0  0
  -28.4279  -26.7303   20.0999 O   0  0  0  0  0  0
  -26.5585  -34.8932   22.4701 O   0  0  0  0  0  0
  -23.5335  -32.1412   23.7529 O   0  0  0  0  0  0
  -29.6272  -19.7661   20.4136 C   0  0  0  0  0  0
  -30.0975  -21.1896   22.2913 C   0  0  0  0  0  0
  -29.5335  -20.9248   19.6136 C   0  0  0  0  0  0
  -29.9074  -19.8853   21.7922 C   0  0  0  0  0  0
  -29.7375  -22.1802   20.2253 C   0  0  0  0  0  0
  -27.8864  -21.1702   17.5893 C   0  0  0  0  0  0
  -28.3546  -19.7346   17.5788 C   0  0  0  0  0  0
  -29.2472  -20.8184   18.1445 C   0  0  0  0  0  0
  -30.6453  -16.6466   21.7344 C   0  0  0  0  0  0
  -29.5247  -17.5368   22.3026 C   0  0  0  0  0  0
  -28.3791  -25.3363   19.7651 C   0  0  0  0  0  0
  -29.7279  -24.6362   20.0113 C   0  0  0  0  0  0
  -30.0132  -22.3081   21.5393 N   0  0  0  0  0  0
  -30.1588  -15.2927   21.4631 N   0  0  0  0  0  0
  -30.0078  -18.8285   22.6777 O   0  0  0  0  0  0
  -29.6805  -23.3179   19.4403 O   0  0  0  0  0  0
  -31.4683  -12.4053   19.0978 H   0  0  0  0  0  0
  -30.3370  -11.2772   19.7826 H   0  0  0  0  0  0
  -29.7268  -11.7869   17.4111 H   0  0  0  0  0  0
  -29.6658  -13.4948   17.7614 H   0  0  0  0  0  0
  -27.8146  -11.3197   18.7902 H   0  0  0  0  0  0
  -27.3662  -12.6694   17.7813 H   0  0  0  0  0  0
  -27.7237  -14.2545   19.5989 H   0  0  0  0  0  0
  -28.6785  -11.9076   21.3054 H   0  0  0  0  0  0
  -28.4573  -13.5237   21.8861 H   0  0  0  0  0  0
  -25.2770   -9.5681   22.4737 H   0  0  0  0  0  0
  -23.9994   -7.4637   22.7481 H   0  0  0  0  0  0
  -21.0837   -8.8762   19.8947 H   0  0  0  0  0  0
  -22.3698  -10.9659   19.6133 H   0  0  0  0  0  0
  -21.2011   -7.6142   23.9704 H   0  0  0  0  0  0
  -21.1467   -6.0516   25.9070 H   0  0  0  0  0  0
  -22.0611   -2.7601   23.2847 H   0  0  0  0  0  0
  -22.4136  -11.9909   22.4775 H   0  0  0  0  0  0
  -21.1119  -13.1245   22.2512 H   0  0  0  0  0  0
  -24.6719  -15.8450   20.5172 H   0  0  0  0  0  0
  -26.2906  -15.6232   20.0844 H   0  0  0  0  0  0
  -26.7109  -32.5518   23.1157 H   0  0  0  0  0  0
  -25.0103  -33.9784   25.0522 H   0  0  0  0  0  0
  -22.6939  -31.3133   21.4137 H   0  0  0  0  0  0
  -23.3768  -35.9603   23.3304 H   0  0  0  0  0  0
  -24.3598  -36.8896   22.2060 H   0  0  0  0  0  0
  -23.7205  -37.6495   23.6641 H   0  0  0  0  0  0
  -26.0513  -31.6020   20.5987 H   0  0  0  0  0  0
  -26.8179  -30.8811   21.9871 H   0  0  0  0  0  0
  -28.1016  -29.1149   21.1501 H   0  0  0  0  0  0
  -26.0175  -25.9783   19.0134 H   0  0  0  0  0  0
  -23.9744  -27.2955   19.0435 H   0  0  0  0  0  0
  -23.7134  -30.6054   19.4040 H   0  0  0  0  0  0
  -22.7332  -29.2489   19.8712 H   0  0  0  0  0  0
  -25.1276  -36.1978   25.0845 H   0  0  0  0  0  0
  -20.9986  -28.3229   24.1425 H   0  0  0  0  0  0
  -20.5714  -26.2253   23.3606 H   0  0  0  0  0  0
  -21.6643  -26.7455   22.1174 H   0  0  0  0  0  0
  -19.6920  -25.6315   21.1220 H   0  0  0  0  0  0
  -19.6714  -27.3247   20.6777 H   0  0  0  0  0  0
  -17.4205  -26.6724   21.4005 H   0  0  0  0  0  0
  -18.0309  -26.0083   22.9006 H   0  0  0  0  0  0
  -19.7935  -30.7284   24.2276 H   0  0  0  0  0  0
  -17.5012  -31.6275   24.5186 H   0  0  0  0  0  0
  -15.5348  -30.3012   23.7661 H   0  0  0  0  0  0
  -15.8670  -28.0850   22.7041 H   0  0  0  0  0  0
  -24.5915  -30.7045   25.7824 H   0  0  0  0  0  0
  -24.8918  -32.2847   26.4927 H   0  0  0  0  0  0
  -25.8092  -30.8875   27.0230 H   0  0  0  0  0  0
  -26.2819  -29.6827   24.1150 H   0  0  0  0  0  0
  -27.4105  -29.7268   25.4510 H   0  0  0  0  0  0
  -27.8642  -30.4408   23.9211 H   0  0  0  0  0  0
  -27.2708  -33.3618   26.2050 H   0  0  0  0  0  0
  -28.3859  -32.6830   25.0278 H   0  0  0  0  0  0
  -28.0739  -31.8421   26.5374 H   0  0  0  0  0  0
  -28.2579  -38.0110   24.7544 H   0  0  0  0  0  0
  -28.1088  -36.2641   24.6239 H   0  0  0  0  0  0
  -27.2316  -37.1384   25.8872 H   0  0  0  0  0  0
  -20.9272  -29.8729   21.6914 H   0  0  0  0  0  0
  -26.0181  -38.2867   24.1450 H   0  0  0  0  0  0
  -29.4895  -18.7991   19.9545 H   0  0  0  0  0  0
  -30.3185  -21.3417   23.3378 H   0  0  0  0  0  0
  -27.0919  -21.4279   18.2890 H   0  0  0  0  0  0
  -27.8434  -21.6749   16.6263 H   0  0  0  0  0  0
  -28.6232  -19.3130   16.6116 H   0  0  0  0  0  0
  -27.8488  -19.0497   18.2569 H   0  0  0  0  0  0
  -30.1193  -21.1087   17.5602 H   0  0  0  0  0  0
  -31.4691  -16.5907   22.4468 H   0  0  0  0  0  0
  -31.0503  -17.0928   20.8259 H   0  0  0  0  0  0
  -29.1383  -17.0772   23.2135 H   0  0  0  0  0  0
  -28.6705  -17.5944   21.6273 H   0  0  0  0  0  0
  -27.6043  -24.8315   20.3452 H   0  0  0  0  0  0
  -28.1260  -25.2352   18.7082 H   0  0  0  0  0  0
  -29.9938  -24.6844   21.0664 H   0  0  0  0  0  0
  -30.5121  -25.1836   19.4868 H   0  0  0  0  0  0
  -29.2962  -15.0063   21.9010 H   0  0  0  0  0  0
  1 25  1  0  0  0
  1 30  2  0  0  0
  1 84  1  0  0  0
  2  3  1  0  0  0
  2 25  1  0  0  0
  2 87  1  0  0  0
  2 88  1  0  0  0
  3  4  1  0  0  0
  3 89  1  0  0  0
  3 90  1  0  0  0
  4  5  1  0  0  0
  4 91  1  0  0  0
  4 92  1  0  0  0
  5  6  1  0  0  0
  5 26  1  0  0  0
  5 93  1  0  0  0
  6 25  1  0  0  0
  6 94  1  0  0  0
  6 95  1  0  0  0
  7  8  2  0  0  0
  7 26  1  0  0  0
  7 29  1  0  0  0
  8  9  1  0  0  0
  8 22  1  0  0  0
  9 10  1  0  0  0
  9 27  2  0  0  0
 10 11  2  0  0  0
 10 15  1  0  0  0
 11 12  1  0  0  0
 11 96  1  0  0  0
 12 13  2  0  0  0
 12 97  1  0  0  0
 13 14  1  0  0  0
 13 31  1  0  0  0
 14 15  2  0  0  0
 14 98  1  0  0  0
 15 99  1  0  0  0
 16 17  2  0  0  0
 16 21  1  0  0  0
 16 31  1  0  0  0
 17 18  1  0  0  0
 17100  1  0  0  0
 18 19  2  0  0  0
 18101  1  0  0  0
 19 20  1  0  0  0
 19 24  1  0  0  0
 20 21  2  0  0  0
 20102  1  0  0  0
 21 23  1  0  0  0
 22 28  1  0  0  0
 22 32  2  0  0  0
 26 27  1  0  0  0
 28103  1  0  0  0
 28104  1  0  0  0
 29105  1  0  0  0
 29106  1  0  0  0
 33 34  1  0  0  0
 33 66  1  0  0  0
 33 70  2  0  0  0
 34 36  1  0  0  0
 34 59  1  0  0  0
 34107  1  0  0  0
 35 44  2  0  0  0
 35 45  1  0  0  0
 35 68  1  0  0  0
 36 56  1  0  0  0
 36108  1  0  0  0
 37 39  1  0  0  0
 37 47  1  0  0  0
 37 66  1  0  0  0
 37109  1  0  0  0
 38 43  2  0  0  0
 38 46  1  0  0  0
 38 47  1  0  0  0
 39 64  1  0  0  0
 39 67  2  0  0  0
 40 52  1  0  0  0
 40 53  2  0  0  0
 40 58  1  0  0  0
 41110  1  0  0  0
 41111  1  0  0  0
 41112  1  0  0  0
 41 48  1  0  0  0
 42 43  1  0  0  0
 42 66  1  0  0  0
 42113  1  0  0  0
 42114  1  0  0  0
 43 44  1  0  0  0
 44115  1  0  0  0
 45 46  2  0  0  0
 45116  1  0  0  0
 46117  1  0  0  0
 47118  1  0  0  0
 47119  1  0  0  0
 48 56  1  0  0  0
 48 65  1  0  0  0
 48120  1  0  0  0
 49 50  1  0  0  0
 49 53  1  0  0  0
 49 64  1  0  0  0
 49121  1  0  0  0
 50 51  1  0  0  0
 50122  1  0  0  0
 50123  1  0  0  0
 51 52  1  0  0  0
 51124  1  0  0  0
 51125  1  0  0  0
 52126  1  0  0  0
 52127  1  0  0  0
 53 54  1  0  0  0
 54 55  2  0  0  0
 54128  1  0  0  0
 55 57  1  0  0  0
 55129  1  0  0  0
 56 69  2  0  0  0
 57 58  2  0  0  0
 57130  1  0  0  0
 58131  1  0  0  0
 59 60  1  0  0  0
 59 61  1  0  0  0
 59 62  1  0  0  0
 60132  1  0  0  0
 60133  1  0  0  0
 60134  1  0  0  0
 61135  1  0  0  0
 61136  1  0  0  0
 61137  1  0  0  0
 62138  1  0  0  0
 62139  1  0  0  0
 62140  1  0  0  0
 63 65  1  0  0  0
 63141  1  0  0  0
 63142  1  0  0  0
 63143  1  0  0  0
 64144  1  0  0  0
 65145  1  0  0  0
 68 81  1  0  0  0
 71 73  2  0  0  0
 71 74  1  0  0  0
 71146  1  0  0  0
 72 74  2  0  0  0
 72 83  1  0  0  0
 72147  1  0  0  0
 73 75  1  0  0  0
 73 78  1  0  0  0
 74 85  1  0  0  0
 75 83  2  0  0  0
 75 86  1  0  0  0
 76 77  1  0  0  0
 76 78  1  0  0  0
 76148  1  0  0  0
 76149  1  0  0  0
 77 78  1  0  0  0
 77150  1  0  0  0
 77151  1  0  0  0
 78152  1  0  0  0
 79 80  1  0  0  0
 79 84  1  0  0  0
 79153  1  0  0  0
 79154  1  0  0  0
 80 85  1  0  0  0
 80155  1  0  0  0
 80156  1  0  0  0
 81 82  1  0  0  0
 81157  1  0  0  0
 81158  1  0  0  0
 82 86  1  0  0  0
 82159  1  0  0  0
 82160  1  0  0  0
 84161  1  0  0  0
M  ISO  4   1 100  68 101  81 101  84 100
M  END
> <chiral flag>
0

> <version>
0

> <s_m_source_file>
/data/baiqing/PycharmProjects/Reinvent-master-3.2/result/LINK_invent/BTK/process_docking_weight1_custom_sum_contain_oxygen_bond_distance_aromatic_linkinvent_7_9_3/rearranged_h_0146.sdf

> <i_m_source_file_index>
40

> <r_mmod_Potential_Energy-OPLS-2005>
-224.350723266602

> <r_mmod_Stretch_Energy-OPLS-2005>
35.7304878234863

> <r_mmod_Bend_Energy-OPLS-2005>
113.574417114258

> <r_mmod_Torsional_Energy-OPLS-2005>
204.064682006836

> <r_mmod_Improper_Torsional_Energy-OPLS-2005>
1.91098380088806

> <r_mmod_Van_der_Waal_Energy-OPLS-2005>
165.942352294922

> <r_mmod_Electrostatic_Energy-OPLS-2005>
-534.60546875

> <r_mmod_Solvation_Energy-OPLS-2005>
-219.82926940918

> <b_mmod_Minimization_Converged-OPLS-2005>
0

> <r_mmod_RMS_Derivative-OPLS-2005>
2.51394534111023

$$$$
40
                    3D
 Structure written by MMmdl.
179188  0  0  1  0            999 V2000
  -30.6766  -14.4573   20.5011 C   0  0  0  0  0  0
  -30.4144  -12.2706   19.4242 C   0  0  0  0  0  0
  -29.4937  -12.4803   18.2048 C   0  0  0  0  0  0
  -28.0115  -12.3504   18.6128 C   0  0  0  0  0  0
  -27.6569  -13.1893   19.8688 C   0  0  2  0  0  0
  -28.6983  -12.9825   20.9921 C   0  0  0  0  0  0
  -25.2602  -13.7962   20.5706 C   0  0  0  0  0  0
  -24.1834  -13.0338   20.9255 C   0  0  0  0  0  0
  -24.6371  -11.6813   20.8784 C   0  0  0  0  0  0
  -23.9017  -10.4241   21.0424 C   0  0  0  0  0  0
  -24.3592   -9.4169   21.9200 C   0  0  0  0  0  0
  -23.6268   -8.2210   22.0753 C   0  0  0  0  0  0
  -22.4239   -8.0267   21.3550 C   0  0  0  0  0  0
  -21.9872   -9.0241   20.4663 C   0  0  0  0  0  0
  -22.7203  -10.2114   20.3068 C   0  0  0  0  0  0
  -21.6840   -6.0742   22.5285 C   0  0  0  0  0  0
  -21.4000   -6.5647   23.8219 C   0  0  0  0  0  0
  -21.3641   -5.6798   24.9172 C   0  0  0  0  0  0
  -21.6028   -4.3056   24.7220 C   0  0  0  0  0  0
  -21.8830   -3.8163   23.4336 C   0  0  0  0  0  0
  -21.9185   -4.6977   22.3393 C   0  0  0  0  0  0
  -22.7882  -13.5227   21.1885 C   0  0  0  0  0  0
  -22.1656   -4.2169   21.0972 F   0  0  0  0  0  0
  -21.5621   -3.4537   25.7724 F   0  0  0  0  0  0
  -30.0274  -13.2672   20.4321 N   0  0  0  0  0  0
  -26.3005  -12.9148   20.3335 N   0  0  0  0  0  0
  -25.9296  -11.6345   20.5794 N   0  0  0  0  0  0
  -22.0446  -12.8253   22.0399 N   0  0  0  0  0  0
  -25.4402  -15.1567   20.3943 N   0  0  0  0  0  0
  -31.8474  -14.5913   20.1459 O   0  0  0  0  0  0
  -21.6602   -6.8878   21.4246 O   0  0  0  0  0  0
  -22.3670  -14.5594   20.6739 O   0  0  0  0  0  0
  -24.6098  -31.8706   23.2121 C   0  0  0  0  0  0
  -25.9015  -32.4824   23.8408 C   0  0  1  0  0  0
  -27.2566  -27.4950   20.0981 C   0  0  0  0  0  0
  -25.5890  -33.8628   24.2339 N   0  0  0  0  0  0
  -23.3965  -30.4889   21.5501 C   0  0  2  0  0  0
  -24.8490  -28.9591   20.1177 C   0  0  0  0  0  0
  -22.7389  -29.4648   22.5018 C   0  0  0  0  0  0
  -18.0274  -28.1350   22.8500 C   0  0  0  0  0  0
  -24.1482  -36.7314   23.2633 C   0  0  0  0  0  0
  -25.9162  -30.8554   21.3546 C   0  0  0  0  0  0
  -25.9998  -29.4909   20.7124 C   0  0  0  0  0  0
  -27.2062  -28.7636   20.7059 C   0  0  0  0  0  0
  -26.0958  -26.9585   19.5036 C   0  0  0  0  0  0
  -24.8885  -27.6864   19.5146 C   0  0  0  0  0  0
  -23.6059  -29.8157   20.1652 C   0  0  0  0  0  0
  -25.4097  -36.3113   24.0334 C   0  0  1  0  0  0
  -20.5862  -28.3616   23.1340 C   0  0  2  0  0  0
  -20.6771  -26.9345   22.5444 C   0  0  0  0  0  0
  -19.5757  -26.6354   21.5232 C   0  0  0  0  0  0
  -18.1927  -26.7896   22.1634 C   0  0  0  0  0  0
  -19.1525  -28.8802   23.2909 C   0  0  0  0  0  0
  -18.9466  -30.1420   23.8895 C   0  0  0  0  0  0
  -17.6472  -30.6559   24.0569 C   0  0  0  0  0  0
  -25.9022  -34.9477   23.5121 C   0  0  0  0  0  0
  -16.5366  -29.9063   23.6315 C   0  0  0  0  0  0
  -16.7267  -28.6479   23.0335 C   0  0  0  0  0  0
  -26.4488  -31.6570   25.0707 C   0  0  0  0  0  0
  -25.3801  -31.3632   26.1477 C   0  0  0  0  0  0
  -27.0284  -30.3024   24.6002 C   0  0  0  0  0  0
  -27.6064  -32.4280   25.7461 C   0  0  0  0  0  0
  -27.5575  -37.1812   24.8463 C   0  0  0  0  0  0
  -21.4124  -29.2997   22.3752 N   0  0  0  0  0  0
  -26.4289  -37.3789   23.9409 N   0  0  0  0  0  0
  -24.6574  -31.0848   22.0987 N   0  0  0  0  0  0
  -23.4176  -28.8202   23.3053 O   0  0  0  0  0  0
  -28.4373  -26.8015   20.0609 O   0  0  0  0  0  0
  -26.5577  -34.8919   22.4676 O   0  0  0  0  0  0
  -23.5303  -32.1442   23.7537 O   0  0  0  0  0  0
  -26.9801  -24.5857   22.2891 C   0  0  0  0  0  0
  -28.2709  -23.8344   20.3659 C   0  0  0  0  0  0
  -27.9941  -24.8084   21.3378 C   0  0  0  0  0  0
  -26.2138  -23.4011   22.2482 C   0  0  0  0  0  0
  -27.5098  -22.6558   20.3080 C   0  0  0  0  0  0
  -26.4836  -22.4261   21.2517 C   0  0  0  0  0  0
  -24.3321  -18.1556   19.4360 C   0  0  0  0  0  0
  -24.0944  -18.9787   20.6940 C   0  0  0  0  0  0
  -25.8462  -18.2170   19.1882 C   0  0  0  0  0  0
  -25.4442  -18.9855   21.4406 C   0  0  2  0  0  0
  -25.0649  -23.2513   23.2297 C   0  0  0  0  0  0
  -27.7959  -21.6603   19.2019 C   0  0  0  0  0  0
  -31.2560  -17.3366   19.6209 C   0  0  0  0  0  0
  -28.7429  -26.1210   21.2727 C   0  0  0  0  0  0
  -25.7223  -20.3339   22.1311 C   0  0  0  0  0  0
  -28.7865  -17.6391   19.9711 C   0  0  0  0  0  0
  -27.6137  -17.8235   20.9645 C   0  0  0  0  0  0
  -30.0684  -16.9649   20.5396 C   0  0  1  0  0  0
  -29.8656  -15.5105   20.7448 N   0  0  0  0  0  0
  -26.5014  -18.6776   20.4416 N   0  3  1  0  0  0
  -25.7160  -21.3027   21.0871 O   0  0  0  0  0  0
  -31.4624  -12.3540   19.1305 H   0  0  0  0  0  0
  -30.2940  -11.2627   19.8239 H   0  0  0  0  0  0
  -29.7319  -11.7536   17.4252 H   0  0  0  0  0  0
  -29.6739  -13.4643   17.7709 H   0  0  0  0  0  0
  -27.8139  -11.2955   18.8040 H   0  0  0  0  0  0
  -27.3635  -12.6319   17.7817 H   0  0  0  0  0  0
  -27.6985  -14.2326   19.5593 H   0  0  0  0  0  0
  -28.6694  -11.9544   21.3576 H   0  0  0  0  0  0
  -28.4730  -13.6072   21.8575 H   0  0  0  0  0  0
  -25.2732   -9.5632   22.4776 H   0  0  0  0  0  0
  -23.9987   -7.4576   22.7440 H   0  0  0  0  0  0
  -21.0805   -8.8750   19.8976 H   0  0  0  0  0  0
  -22.3669  -10.9654   19.6184 H   0  0  0  0  0  0
  -21.2011   -7.6157   23.9715 H   0  0  0  0  0  0
  -21.1447   -6.0529   25.9067 H   0  0  0  0  0  0
  -22.0635   -2.7628   23.2823 H   0  0  0  0  0  0
  -22.3976  -11.9877   22.4788 H   0  0  0  0  0  0
  -21.1084  -13.1367   22.2597 H   0  0  0  0  0  0
  -24.5891  -15.7026   20.3258 H   0  0  0  0  0  0
  -26.1367  -15.4162   19.7122 H   0  0  0  0  0  0
  -26.7097  -32.5604   23.1191 H   0  0  0  0  0  0
  -25.0141  -33.9794   25.0554 H   0  0  0  0  0  0
  -22.6833  -31.3039   21.4107 H   0  0  0  0  0  0
  -23.3750  -35.9647   23.3305 H   0  0  0  0  0  0
  -24.3585  -36.8912   22.2047 H   0  0  0  0  0  0
  -23.7229  -37.6515   23.6641 H   0  0  0  0  0  0
  -26.0138  -31.6205   20.5818 H   0  0  0  0  0  0
  -26.8065  -30.9180   21.9662 H   0  0  0  0  0  0
  -28.0982  -29.1790   21.1510 H   0  0  0  0  0  0
  -26.1322  -25.9810   19.0413 H   0  0  0  0  0  0
  -24.0062  -27.2653   19.0539 H   0  0  0  0  0  0
  -23.7106  -30.5887   19.4040 H   0  0  0  0  0  0
  -22.7343  -29.2288   19.8710 H   0  0  0  0  0  0
  -25.1278  -36.1975   25.0830 H   0  0  0  0  0  0
  -20.9970  -28.3196   24.1453 H   0  0  0  0  0  0
  -20.5649  -26.2233   23.3633 H   0  0  0  0  0  0
  -21.6650  -26.7369   22.1269 H   0  0  0  0  0  0
  -19.6911  -25.6283   21.1222 H   0  0  0  0  0  0
  -19.6697  -27.3201   20.6790 H   0  0  0  0  0  0
  -17.4226  -26.6672   21.4009 H   0  0  0  0  0  0
  -18.0318  -26.0024   22.9016 H   0  0  0  0  0  0
  -19.7957  -30.7222   24.2258 H   0  0  0  0  0  0
  -17.5031  -31.6231   24.5184 H   0  0  0  0  0  0
  -15.5363  -30.2963   23.7607 H   0  0  0  0  0  0
  -15.8681  -28.0794   22.7023 H   0  0  0  0  0  0
  -24.6037  -30.6880   25.7858 H   0  0  0  0  0  0
  -24.8940  -32.2768   26.4907 H   0  0  0  0  0  0
  -25.8239  -30.8877   27.0232 H   0  0  0  0  0  0
  -26.2772  -29.6800   24.1131 H   0  0  0  0  0  0
  -27.4151  -29.7219   25.4380 H   0  0  0  0  0  0
  -27.8562  -30.4340   23.9033 H   0  0  0  0  0  0
  -27.2684  -33.3573   26.2042 H   0  0  0  0  0  0
  -28.3877  -32.6831   25.0301 H   0  0  0  0  0  0
  -28.0731  -31.8417   26.5378 H   0  0  0  0  0  0
  -28.2596  -38.0112   24.7529 H   0  0  0  0  0  0
  -28.1069  -36.2640   24.6272 H   0  0  0  0  0  0
  -27.2304  -37.1444   25.8872 H   0  0  0  0  0  0
  -20.9230  -29.8766   21.7054 H   0  0  0  0  0  0
  -26.0178  -38.2856   24.1456 H   0  0  0  0  0  0
  -26.7540  -25.3505   23.0199 H   0  0  0  0  0  0
  -29.0463  -24.0183   19.6358 H   0  0  0  0  0  0
  -23.7635  -18.5275   18.5833 H   0  0  0  0  0  0
  -24.0010  -17.1329   19.5998 H   0  0  0  0  0  0
  -23.2887  -18.5671   21.3046 H   0  0  0  0  0  0
  -23.7845  -19.9833   20.4048 H   0  0  0  0  0  0
  -26.0670  -18.9401   18.4017 H   0  0  0  0  0  0
  -26.2155  -17.2562   18.8338 H   0  0  0  0  0  0
  -25.4204  -18.1919   22.1887 H   0  0  0  0  0  0
  -24.7614  -24.2196   23.6277 H   0  0  0  0  0  0
  -25.3561  -22.6248   24.0715 H   0  0  0  0  0  0
  -24.1920  -22.8106   22.7470 H   0  0  0  0  0  0
  -28.3952  -22.1165   18.4129 H   0  0  0  0  0  0
  -26.8726  -21.3048   18.7444 H   0  0  0  0  0  0
  -28.3570  -20.8175   19.5996 H   0  0  0  0  0  0
  -31.3187  -18.4135   19.4630 H   0  0  0  0  0  0
  -31.1680  -16.8696   18.6389 H   0  0  0  0  0  0
  -32.2135  -17.0487   20.0537 H   0  0  0  0  0  0
  -29.8138  -25.9168   21.2933 H   0  0  0  0  0  0
  -28.5292  -26.7354   22.1500 H   0  0  0  0  0  0
  -26.6727  -20.3203   22.6664 H   0  0  0  0  0  0
  -24.9389  -20.5410   22.8601 H   0  0  0  0  0  0
  -29.0552  -18.6272   19.5983 H   0  0  0  0  0  0
  -28.4584  -17.0845   19.0915 H   0  0  0  0  0  0
  -28.0009  -18.2968   21.8679 H   0  0  0  0  0  0
  -27.2319  -16.8534   21.2759 H   0  0  0  0  0  0
  -30.2826  -17.3907   21.5204 H   0  0  0  0  0  0
  -28.9399  -15.2388   21.0355 H   0  0  0  0  0  0
  -26.8972  -19.5795   20.2149 H   0  0  0  0  0  0
  1 25  1  0  0  0
  1 30  2  0  0  0
  1 89  1  0  0  0
  2  3  1  0  0  0
  2 25  1  0  0  0
  2 92  1  0  0  0
  2 93  1  0  0  0
  3  4  1  0  0  0
  3 94  1  0  0  0
  3 95  1  0  0  0
  4  5  1  0  0  0
  4 96  1  0  0  0
  4 97  1  0  0  0
  5  6  1  0  0  0
  5 26  1  0  0  0
  5 98  1  0  0  0
  6 25  1  0  0  0
  6 99  1  0  0  0
  6100  1  0  0  0
  7  8  2  0  0  0
  7 26  1  0  0  0
  7 29  1  0  0  0
  8  9  1  0  0  0
  8 22  1  0  0  0
  9 10  1  0  0  0
  9 27  2  0  0  0
 10 11  2  0  0  0
 10 15  1  0  0  0
 11 12  1  0  0  0
 11101  1  0  0  0
 12 13  2  0  0  0
 12102  1  0  0  0
 13 14  1  0  0  0
 13 31  1  0  0  0
 14 15  2  0  0  0
 14103  1  0  0  0
 15104  1  0  0  0
 16 17  2  0  0  0
 16 21  1  0  0  0
 16 31  1  0  0  0
 17 18  1  0  0  0
 17105  1  0  0  0
 18 19  2  0  0  0
 18106  1  0  0  0
 19 20  1  0  0  0
 19 24  1  0  0  0
 20 21  2  0  0  0
 20107  1  0  0  0
 21 23  1  0  0  0
 22 28  1  0  0  0
 22 32  2  0  0  0
 26 27  1  0  0  0
 28108  1  0  0  0
 28109  1  0  0  0
 29110  1  0  0  0
 29111  1  0  0  0
 33 34  1  0  0  0
 33 66  1  0  0  0
 33 70  2  0  0  0
 34 36  1  0  0  0
 34 59  1  0  0  0
 34112  1  0  0  0
 35 44  2  0  0  0
 35 45  1  0  0  0
 35 68  1  0  0  0
 36 56  1  0  0  0
 36113  1  0  0  0
 37 39  1  0  0  0
 37 47  1  0  0  0
 37 66  1  0  0  0
 37114  1  0  0  0
 38 43  2  0  0  0
 38 46  1  0  0  0
 38 47  1  0  0  0
 39 64  1  0  0  0
 39 67  2  0  0  0
 40 52  1  0  0  0
 40 53  2  0  0  0
 40 58  1  0  0  0
 41115  1  0  0  0
 41116  1  0  0  0
 41117  1  0  0  0
 41 48  1  0  0  0
 42 43  1  0  0  0
 42 66  1  0  0  0
 42118  1  0  0  0
 42119  1  0  0  0
 43 44  1  0  0  0
 44120  1  0  0  0
 45 46  2  0  0  0
 45121  1  0  0  0
 46122  1  0  0  0
 47123  1  0  0  0
 47124  1  0  0  0
 48 56  1  0  0  0
 48 65  1  0  0  0
 48125  1  0  0  0
 49 50  1  0  0  0
 49 53  1  0  0  0
 49 64  1  0  0  0
 49126  1  0  0  0
 50 51  1  0  0  0
 50127  1  0  0  0
 50128  1  0  0  0
 51 52  1  0  0  0
 51129  1  0  0  0
 51130  1  0  0  0
 52131  1  0  0  0
 52132  1  0  0  0
 53 54  1  0  0  0
 54 55  2  0  0  0
 54133  1  0  0  0
 55 57  1  0  0  0
 55134  1  0  0  0
 56 69  2  0  0  0
 57 58  2  0  0  0
 57135  1  0  0  0
 58136  1  0  0  0
 59 60  1  0  0  0
 59 61  1  0  0  0
 59 62  1  0  0  0
 60137  1  0  0  0
 60138  1  0  0  0
 60139  1  0  0  0
 61140  1  0  0  0
 61141  1  0  0  0
 61142  1  0  0  0
 62143  1  0  0  0
 62144  1  0  0  0
 62145  1  0  0  0
 63 65  1  0  0  0
 63146  1  0  0  0
 63147  1  0  0  0
 63148  1  0  0  0
 64149  1  0  0  0
 65150  1  0  0  0
 68 84  1  0  0  0
 71 73  2  0  0  0
 71 74  1  0  0  0
 71151  1  0  0  0
 72 73  1  0  0  0
 72 75  2  0  0  0
 72152  1  0  0  0
 73 84  1  0  0  0
 74 76  2  0  0  0
 74 81  1  0  0  0
 75 76  1  0  0  0
 75 82  1  0  0  0
 76 91  1  0  0  0
 77 78  1  0  0  0
 77 79  1  0  0  0
 77153  1  0  0  0
 77154  1  0  0  0
 78 80  1  0  0  0
 78155  1  0  0  0
 78156  1  0  0  0
 79 90  1  0  0  0
 79157  1  0  0  0
 79158  1  0  0  0
 80 85  1  0  0  0
 80 90  1  0  0  0
 80159  1  0  0  0
 81160  1  0  0  0
 81161  1  0  0  0
 81162  1  0  0  0
 82163  1  0  0  0
 82164  1  0  0  0
 82165  1  0  0  0
 83166  1  0  0  0
 83167  1  0  0  0
 83168  1  0  0  0
 83 88  1  0  0  0
 84169  1  0  0  0
 84170  1  0  0  0
 85 91  1  0  0  0
 85171  1  0  0  0
 85172  1  0  0  0
 86 87  1  0  0  0
 86 88  1  0  0  0
 86173  1  0  0  0
 86174  1  0  0  0
 87175  1  0  0  0
 87176  1  0  0  0
 87 90  1  0  0  0
 88 89  1  0  0  0
 88177  1  0  0  0
 89178  1  0  0  0
 90179  1  0  0  0
M  CHG  1  90   1
M  ISO  4   1 100  68 101  84 101  89 100
M  END
> <chiral flag>
0

> <version>
0

> <s_m_source_file>
/data/baiqing/PycharmProjects/Reinvent-master-3.2/result/LINK_invent/BTK/process_docking_weight1_custom_sum_contain_oxygen_bond_distance_aromatic_linkinvent_7_9_3/rearranged_h_0146.sdf

> <i_m_source_file_index>
41

> <r_mmod_Potential_Energy-OPLS-2005>
32.8417778015137

> <r_mmod_Stretch_Energy-OPLS-2005>
35.6891021728516

> <r_mmod_Bend_Energy-OPLS-2005>
115.657585144043

> <r_mmod_Torsional_Energy-OPLS-2005>
363.218109130859

> <r_mmod_Improper_Torsional_Energy-OPLS-2005>
10.8366842269897

> <r_mmod_Van_der_Waal_Energy-OPLS-2005>
136.672164916992

> <r_mmod_Electrostatic_Energy-OPLS-2005>
-225.507202148438

> <r_mmod_Solvation_Energy-OPLS-2005>
-417.470001220703

> <b_mmod_Minimization_Converged-OPLS-2005>
0

> <r_mmod_RMS_Derivative-OPLS-2005>
2.80964517593384

$$$$
41
                    3D
 Structure written by MMmdl.
167176  0  0  1  0            999 V2000
  -30.7659  -14.4189   20.7091 C   0  0  0  0  0  0
  -30.4132  -12.3251   19.4200 C   0  0  0  0  0  0
  -29.4903  -12.5331   18.2031 C   0  0  0  0  0  0
  -28.0157  -12.3618   18.6096 C   0  0  0  0  0  0
  -27.6555  -13.2061   19.8571 C   0  0  2  0  0  0
  -28.6817  -13.0015   20.9877 C   0  0  0  0  0  0
  -25.2562  -13.8152   20.5638 C   0  0  0  0  0  0
  -24.1824  -13.0426   20.9161 C   0  0  0  0  0  0
  -24.6377  -11.6899   20.8684 C   0  0  0  0  0  0
  -23.9041  -10.4280   21.0367 C   0  0  0  0  0  0
  -24.3604   -9.4222   21.9157 C   0  0  0  0  0  0
  -23.6299   -8.2254   22.0739 C   0  0  0  0  0  0
  -22.4277   -8.0266   21.3541 C   0  0  0  0  0  0
  -21.9898   -9.0235   20.4638 C   0  0  0  0  0  0
  -22.7204  -10.2121   20.3035 C   0  0  0  0  0  0
  -21.6857   -6.0731   22.5284 C   0  0  0  0  0  0
  -21.4017   -6.5639   23.8215 C   0  0  0  0  0  0
  -21.3656   -5.6786   24.9176 C   0  0  0  0  0  0
  -21.6047   -4.3055   24.7231 C   0  0  0  0  0  0
  -21.8812   -3.8146   23.4352 C   0  0  0  0  0  0
  -21.9194   -4.6963   22.3405 C   0  0  0  0  0  0
  -22.7850  -13.5225   21.1856 C   0  0  0  0  0  0
  -22.1647   -4.2155   21.0988 F   0  0  0  0  0  0
  -21.5649   -3.4534   25.7740 F   0  0  0  0  0  0
  -30.0367  -13.2852   20.4766 N   0  0  0  0  0  0
  -26.2977  -12.9319   20.3237 N   0  0  0  0  0  0
  -25.9301  -11.6476   20.5688 N   0  0  0  0  0  0
  -22.0505  -12.8207   22.0428 N   0  0  0  0  0  0
  -25.4307  -15.1875   20.4074 N   0  0  0  0  0  0
  -31.7305  -14.7236   19.9970 O   0  0  0  0  0  0
  -21.6648   -6.8869   21.4234 O   0  0  0  0  0  0
  -22.3523  -14.5537   20.6725 O   0  0  0  0  0  0
  -24.6156  -31.8664   23.2086 C   0  0  0  0  0  0
  -25.9046  -32.4814   23.8383 C   0  0  1  0  0  0
  -27.2251  -27.4149   20.1106 C   0  0  0  0  0  0
  -25.5902  -33.8611   24.2314 N   0  0  0  0  0  0
  -23.4037  -30.4890   21.5494 C   0  0  2  0  0  0
  -24.8489  -28.9453   20.1229 C   0  0  0  0  0  0
  -22.7409  -29.4656   22.4988 C   0  0  0  0  0  0
  -18.0273  -28.1374   22.8489 C   0  0  0  0  0  0
  -24.1485  -36.7308   23.2637 C   0  0  0  0  0  0
  -25.9340  -30.8244   21.3662 C   0  0  0  0  0  0
  -26.0097  -29.4546   20.7206 C   0  0  0  0  0  0
  -27.2043  -28.6964   20.7110 C   0  0  0  0  0  0
  -26.0525  -26.9195   19.5099 C   0  0  0  0  0  0
  -24.8644  -27.6760   19.5167 C   0  0  0  0  0  0
  -23.6145  -29.8181   20.1658 C   0  0  0  0  0  0
  -25.4104  -36.3105   24.0337 C   0  0  1  0  0  0
  -20.5861  -28.3656   23.1314 C   0  0  2  0  0  0
  -20.6759  -26.9388   22.5424 C   0  0  0  0  0  0
  -19.5746  -26.6378   21.5214 C   0  0  0  0  0  0
  -18.1918  -26.7927   22.1609 C   0  0  0  0  0  0
  -19.1522  -28.8827   23.2905 C   0  0  0  0  0  0
  -18.9451  -30.1435   23.8917 C   0  0  0  0  0  0
  -17.6457  -30.6582   24.0563 C   0  0  0  0  0  0
  -25.9031  -34.9473   23.5121 C   0  0  0  0  0  0
  -16.5345  -29.9082   23.6329 C   0  0  0  0  0  0
  -16.7261  -28.6501   23.0350 C   0  0  0  0  0  0
  -26.4467  -31.6597   25.0720 C   0  0  0  0  0  0
  -25.3734  -31.3721   26.1473 C   0  0  0  0  0  0
  -27.0287  -30.3029   24.6114 C   0  0  0  0  0  0
  -27.6041  -32.4315   25.7488 C   0  0  0  0  0  0
  -27.5580  -37.1809   24.8460 C   0  0  0  0  0  0
  -21.4133  -29.3038   22.3736 N   0  0  0  0  0  0
  -26.4289  -37.3790   23.9410 N   0  0  0  0  0  0
  -24.6694  -31.0756   22.0995 N   0  0  0  0  0  0
  -23.4182  -28.8199   23.3034 O   0  0  0  0  0  0
  -28.3787  -26.6672   20.0443 O   0  0  0  0  0  0
  -26.5604  -34.8920   22.4689 O   0  0  0  0  0  0
  -23.5352  -32.1426   23.7471 O   0  0  0  0  0  0
  -30.4122  -15.8060   24.0749 C   0  0  0  0  0  0
  -31.0460  -16.9316   23.2737 C   0  0  0  0  0  0
  -28.6009  -19.3777   22.4723 C   0  0  0  0  0  0
  -29.2734  -19.5405   20.1224 C   0  0  0  0  0  0
  -30.5063  -14.6204   23.1265 C   0  0  0  0  0  0
  -28.7160  -20.9122   22.6243 C   0  0  0  0  0  0
  -29.3366  -21.1005   20.2353 C   0  0  0  0  0  0
  -29.6105  -18.8334   21.4524 C   0  0  2  0  0  0
  -30.6550  -16.6461   21.8045 C   0  0  1  0  0  0
  -28.1732  -24.1907   20.6211 C   0  0  0  0  0  0
  -28.7828  -23.1433   21.6058 C   0  0  0  0  0  0
  -28.5443  -25.6478   21.0443 C   0  0  0  0  0  0
  -30.4020  -15.1896   21.7723 N   0  0  0  0  0  0
  -28.5253  -21.6793   21.3547 N   0  3  2  0  0  0
  -29.5073  -17.3852   21.4067 O   0  0  0  0  0  0
  -31.4600  -12.4204   19.1247 H   0  0  0  0  0  0
  -30.3133  -11.3077   19.8014 H   0  0  0  0  0  0
  -29.7452  -11.8279   17.4112 H   0  0  0  0  0  0
  -29.6451  -13.5301   17.7877 H   0  0  0  0  0  0
  -27.8429  -11.3039   18.8135 H   0  0  0  0  0  0
  -27.3620  -12.6168   17.7744 H   0  0  0  0  0  0
  -27.6979  -14.2528   19.5544 H   0  0  0  0  0  0
  -28.6453  -11.9801   21.3721 H   0  0  0  0  0  0
  -28.3743  -13.6513   21.8045 H   0  0  0  0  0  0
  -25.2745   -9.5738   22.4732 H   0  0  0  0  0  0
  -24.0022   -7.4648   22.7452 H   0  0  0  0  0  0
  -21.0841   -8.8732   19.8939 H   0  0  0  0  0  0
  -22.3640  -10.9655   19.6153 H   0  0  0  0  0  0
  -21.2004   -7.6138   23.9732 H   0  0  0  0  0  0
  -21.1488   -6.0513   25.9084 H   0  0  0  0  0  0
  -22.0602   -2.7610   23.2852 H   0  0  0  0  0  0
  -22.4097  -11.9851   22.4806 H   0  0  0  0  0  0
  -21.1122  -13.1222   22.2631 H   0  0  0  0  0  0
  -24.6746  -15.8517   20.5353 H   0  0  0  0  0  0
  -26.3035  -15.6251   20.1396 H   0  0  0  0  0  0
  -26.7122  -32.5507   23.1147 H   0  0  0  0  0  0
  -25.0055  -33.9776   25.0462 H   0  0  0  0  0  0
  -22.6936  -31.3059   21.4068 H   0  0  0  0  0  0
  -23.3744  -35.9645   23.3308 H   0  0  0  0  0  0
  -24.3580  -36.8917   22.2050 H   0  0  0  0  0  0
  -23.7243  -37.6514   23.6650 H   0  0  0  0  0  0
  -26.0503  -31.5854   20.5931 H   0  0  0  0  0  0
  -26.8211  -30.8785   21.9860 H   0  0  0  0  0  0
  -28.1044  -29.0873   21.1640 H   0  0  0  0  0  0
  -26.0611  -25.9500   19.0319 H   0  0  0  0  0  0
  -23.9723  -27.2786   19.0520 H   0  0  0  0  0  0
  -23.7286  -30.5911   19.4048 H   0  0  0  0  0  0
  -22.7372  -29.2422   19.8666 H   0  0  0  0  0  0
  -25.1286  -36.1965   25.0834 H   0  0  0  0  0  0
  -20.9945  -28.3225   24.1435 H   0  0  0  0  0  0
  -20.5634  -26.2273   23.3618 H   0  0  0  0  0  0
  -21.6635  -26.7415   22.1230 H   0  0  0  0  0  0
  -19.6902  -25.6293   21.1234 H   0  0  0  0  0  0
  -19.6694  -27.3202   20.6758 H   0  0  0  0  0  0
  -17.4194  -26.6691   21.4002 H   0  0  0  0  0  0
  -18.0293  -26.0053   22.8983 H   0  0  0  0  0  0
  -19.7932  -30.7248   24.2289 H   0  0  0  0  0  0
  -17.5012  -31.6267   24.5161 H   0  0  0  0  0  0
  -15.5347  -30.2993   23.7646 H   0  0  0  0  0  0
  -15.8659  -28.0831   22.7051 H   0  0  0  0  0  0
  -24.5932  -30.7027   25.7837 H   0  0  0  0  0  0
  -24.8896  -32.2877   26.4881 H   0  0  0  0  0  0
  -25.8088  -30.8941   27.0255 H   0  0  0  0  0  0
  -26.2837  -29.6807   24.1139 H   0  0  0  0  0  0
  -27.4014  -29.7251   25.4580 H   0  0  0  0  0  0
  -27.8692  -30.4334   23.9294 H   0  0  0  0  0  0
  -27.2663  -33.3609   26.2081 H   0  0  0  0  0  0
  -28.3847  -32.6878   25.0317 H   0  0  0  0  0  0
  -28.0709  -31.8430   26.5394 H   0  0  0  0  0  0
  -28.2599  -38.0103   24.7502 H   0  0  0  0  0  0
  -28.1077  -36.2639   24.6283 H   0  0  0  0  0  0
  -27.2308  -37.1453   25.8867 H   0  0  0  0  0  0
  -20.9291  -29.8778   21.6972 H   0  0  0  0  0  0
  -26.0175  -38.2866   24.1420 H   0  0  0  0  0  0
  -29.3689  -16.0373   24.2968 H   0  0  0  0  0  0
  -30.9206  -15.6258   25.0236 H   0  0  0  0  0  0
  -32.1325  -16.8565   23.3428 H   0  0  0  0  0  0
  -30.7707  -17.9209   23.6310 H   0  0  0  0  0  0
  -27.5887  -19.1060   22.1723 H   0  0  0  0  0  0
  -28.7572  -18.9101   23.4442 H   0  0  0  0  0  0
  -29.9661  -19.2109   19.3467 H   0  0  0  0  0  0
  -28.2817  -19.2373   19.7868 H   0  0  0  0  0  0
  -29.7616  -13.8644   23.3724 H   0  0  0  0  0  0
  -31.4828  -14.1423   23.2377 H   0  0  0  0  0  0
  -29.6973  -21.1513   23.0372 H   0  0  0  0  0  0
  -27.9834  -21.2482   23.3598 H   0  0  0  0  0  0
  -29.0056  -21.5430   19.2943 H   0  0  0  0  0  0
  -30.3778  -21.4000   20.3608 H   0  0  0  0  0  0
  -30.6222  -19.1335   21.7340 H   0  0  0  0  0  0
  -31.4778  -16.8964   21.1291 H   0  0  0  0  0  0
  -27.0871  -24.0920   20.5918 H   0  0  0  0  0  0
  -28.5360  -24.0068   19.6102 H   0  0  0  0  0  0
  -28.3951  -23.3935   22.5951 H   0  0  0  0  0  0
  -29.8607  -23.2995   21.6717 H   0  0  0  0  0  0
  -29.6058  -25.6691   21.2924 H   0  0  0  0  0  0
  -28.0274  -25.9196   21.9672 H   0  0  0  0  0  0
  -27.5514  -21.5809   21.1062 H   0  0  0  0  0  0
  1 25  1  0  0  0
  1 30  2  0  0  0
  1 83  1  0  0  0
  2  3  1  0  0  0
  2 25  1  0  0  0
  2 86  1  0  0  0
  2 87  1  0  0  0
  3  4  1  0  0  0
  3 88  1  0  0  0
  3 89  1  0  0  0
  4  5  1  0  0  0
  4 90  1  0  0  0
  4 91  1  0  0  0
  5  6  1  0  0  0
  5 26  1  0  0  0
  5 92  1  0  0  0
  6 25  1  0  0  0
  6 93  1  0  0  0
  6 94  1  0  0  0
  7  8  2  0  0  0
  7 26  1  0  0  0
  7 29  1  0  0  0
  8  9  1  0  0  0
  8 22  1  0  0  0
  9 10  1  0  0  0
  9 27  2  0  0  0
 10 11  2  0  0  0
 10 15  1  0  0  0
 11 12  1  0  0  0
 11 95  1  0  0  0
 12 13  2  0  0  0
 12 96  1  0  0  0
 13 14  1  0  0  0
 13 31  1  0  0  0
 14 15  2  0  0  0
 14 97  1  0  0  0
 15 98  1  0  0  0
 16 17  2  0  0  0
 16 21  1  0  0  0
 16 31  1  0  0  0
 17 18  1  0  0  0
 17 99  1  0  0  0
 18 19  2  0  0  0
 18100  1  0  0  0
 19 20  1  0  0  0
 19 24  1  0  0  0
 20 21  2  0  0  0
 20101  1  0  0  0
 21 23  1  0  0  0
 22 28  1  0  0  0
 22 32  2  0  0  0
 26 27  1  0  0  0
 28102  1  0  0  0
 28103  1  0  0  0
 29104  1  0  0  0
 29105  1  0  0  0
 33 34  1  0  0  0
 33 66  1  0  0  0
 33 70  2  0  0  0
 34 36  1  0  0  0
 34 59  1  0  0  0
 34106  1  0  0  0
 35 44  2  0  0  0
 35 45  1  0  0  0
 35 68  1  0  0  0
 36 56  1  0  0  0
 36107  1  0  0  0
 37 39  1  0  0  0
 37 47  1  0  0  0
 37 66  1  0  0  0
 37108  1  0  0  0
 38 43  2  0  0  0
 38 46  1  0  0  0
 38 47  1  0  0  0
 39 64  1  0  0  0
 39 67  2  0  0  0
 40 52  1  0  0  0
 40 53  2  0  0  0
 40 58  1  0  0  0
 41109  1  0  0  0
 41110  1  0  0  0
 41111  1  0  0  0
 41 48  1  0  0  0
 42 43  1  0  0  0
 42 66  1  0  0  0
 42112  1  0  0  0
 42113  1  0  0  0
 43 44  1  0  0  0
 44114  1  0  0  0
 45 46  2  0  0  0
 45115  1  0  0  0
 46116  1  0  0  0
 47117  1  0  0  0
 47118  1  0  0  0
 48 56  1  0  0  0
 48 65  1  0  0  0
 48119  1  0  0  0
 49 50  1  0  0  0
 49 53  1  0  0  0
 49 64  1  0  0  0
 49120  1  0  0  0
 50 51  1  0  0  0
 50121  1  0  0  0
 50122  1  0  0  0
 51 52  1  0  0  0
 51123  1  0  0  0
 51124  1  0  0  0
 52125  1  0  0  0
 52126  1  0  0  0
 53 54  1  0  0  0
 54 55  2  0  0  0
 54127  1  0  0  0
 55 57  1  0  0  0
 55128  1  0  0  0
 56 69  2  0  0  0
 57 58  2  0  0  0
 57129  1  0  0  0
 58130  1  0  0  0
 59 60  1  0  0  0
 59 61  1  0  0  0
 59 62  1  0  0  0
 60131  1  0  0  0
 60132  1  0  0  0
 60133  1  0  0  0
 61134  1  0  0  0
 61135  1  0  0  0
 61136  1  0  0  0
 62137  1  0  0  0
 62138  1  0  0  0
 62139  1  0  0  0
 63 65  1  0  0  0
 63140  1  0  0  0
 63141  1  0  0  0
 63142  1  0  0  0
 64143  1  0  0  0
 65144  1  0  0  0
 68 82  1  0  0  0
 71 72  1  0  0  0
 71 75  1  0  0  0
 71145  1  0  0  0
 71146  1  0  0  0
 72 79  1  0  0  0
 72147  1  0  0  0
 72148  1  0  0  0
 73 76  1  0  0  0
 73 78  1  0  0  0
 73149  1  0  0  0
 73150  1  0  0  0
 74 77  1  0  0  0
 74 78  1  0  0  0
 74151  1  0  0  0
 74152  1  0  0  0
 75 83  1  0  0  0
 75153  1  0  0  0
 75154  1  0  0  0
 76 84  1  0  0  0
 76155  1  0  0  0
 76156  1  0  0  0
 77 84  1  0  0  0
 77157  1  0  0  0
 77158  1  0  0  0
 78 85  1  0  0  0
 78159  1  0  0  0
 79 83  1  0  0  0
 79 85  1  0  0  0
 79160  1  0  0  0
 80 81  1  0  0  0
 80 82  1  0  0  0
 80161  1  0  0  0
 80162  1  0  0  0
 81163  1  0  0  0
 81164  1  0  0  0
 81 84  1  0  0  0
 82165  1  0  0  0
 82166  1  0  0  0
 84167  1  0  0  0
M  CHG  1  84   1
M  ISO  4   1 100  68 101  82 101  83 100
M  END
> <chiral flag>
0

> <version>
0

> <s_m_source_file>
/data/baiqing/PycharmProjects/Reinvent-master-3.2/result/LINK_invent/BTK/process_docking_weight1_custom_sum_contain_oxygen_bond_distance_aromatic_linkinvent_7_9_3/rearranged_h_0146.sdf

> <i_m_source_file_index>
42

> <r_mmod_Potential_Energy-OPLS-2005>
108.637794494629

> <r_mmod_Stretch_Energy-OPLS-2005>
51.0180053710938

> <r_mmod_Bend_Energy-OPLS-2005>
139.390426635742

> <r_mmod_Torsional_Energy-OPLS-2005>
393.384368896484

> <r_mmod_Improper_Torsional_Energy-OPLS-2005>
4.61121702194214

> <r_mmod_Van_der_Waal_Energy-OPLS-2005>
134.401153564453

> <r_mmod_Electrostatic_Energy-OPLS-2005>
-191.396041870117

> <r_mmod_Solvation_Energy-OPLS-2005>
-434.66162109375

> <b_mmod_Minimization_Converged-OPLS-2005>
0

> <r_mmod_RMS_Derivative-OPLS-2005>
2.36099934577942

$$$$
42
                    3D
 Structure written by MMmdl.
180190  0  0  1  0            999 V2000
  -30.6466  -14.6624   20.2762 C   0  0  0  0  0  0
  -30.4243  -12.3704   19.4581 C   0  0  0  0  0  0
  -29.5372  -12.4476   18.1978 C   0  0  0  0  0  0
  -28.0316  -12.6082   18.5090 C   0  0  0  0  0  0
  -27.7012  -12.7620   20.0036 C   0  0  2  0  0  0
  -28.7127  -13.3107   20.9952 C   0  0  0  0  0  0
  -25.3055  -13.7266   20.6014 C   0  0  0  0  0  0
  -24.1657  -13.0215   20.9288 C   0  0  0  0  0  0
  -24.5498  -11.6574   20.8777 C   0  0  0  0  0  0
  -23.8303  -10.4091   21.0485 C   0  0  0  0  0  0
  -24.3199   -9.4135   21.9282 C   0  0  0  0  0  0
  -23.6156   -8.2054   22.0784 C   0  0  0  0  0  0
  -22.4151   -8.0023   21.3588 C   0  0  0  0  0  0
  -21.9492   -8.9909   20.4797 C   0  0  0  0  0  0
  -22.6609  -10.1823   20.3049 C   0  0  0  0  0  0
  -21.6817   -6.0584   22.5338 C   0  0  0  0  0  0
  -21.4009   -6.5567   23.8240 C   0  0  0  0  0  0
  -21.3638   -5.6759   24.9214 C   0  0  0  0  0  0
  -21.5970   -4.2995   24.7237 C   0  0  0  0  0  0
  -21.8859   -3.8105   23.4369 C   0  0  0  0  0  0
  -21.9172   -4.6867   22.3432 C   0  0  0  0  0  0
  -22.7749  -13.5440   21.1768 C   0  0  0  0  0  0
  -22.1729   -4.2083   21.1008 F   0  0  0  0  0  0
  -21.5474   -3.4527   25.7787 F   0  0  0  0  0  0
  -30.0062  -13.4760   20.3336 N   0  0  0  0  0  0
  -26.2931  -12.7717   20.3768 N   0  0  0  0  0  0
  -25.8103  -11.5318   20.5680 N   0  0  0  0  0  0
  -21.9939  -12.8857   22.0314 N   0  0  0  0  0  0
  -25.5592  -15.0681   20.5067 N   0  0  0  0  0  0
  -31.8566  -14.7484   20.0947 O   0  0  0  0  0  0
  -21.6573   -6.8658   21.4290 O   0  0  0  0  0  0
  -22.3775  -14.5655   20.6345 O   0  0  0  0  0  0
  -24.6123  -31.8727   23.2243 C   0  0  0  0  0  0
  -25.9036  -32.4825   23.8480 C   0  0  1  0  0  0
  -27.1667  -27.3902   20.0707 C   0  0  0  0  0  0
  -25.5938  -33.8650   24.2370 N   0  0  0  0  0  0
  -23.3958  -30.5153   21.5681 C   0  0  2  0  0  0
  -24.8263  -29.0049   20.1104 C   0  0  0  0  0  0
  -22.7378  -29.4682   22.4965 C   0  0  0  0  0  0
  -18.0268  -28.1378   22.8479 C   0  0  0  0  0  0
  -24.1511  -36.7352   23.2635 C   0  0  0  0  0  0
  -25.9363  -30.8085   21.4093 C   0  0  0  0  0  0
  -25.9943  -29.4467   20.7477 C   0  0  0  0  0  0
  -27.1635  -28.6360   20.7546 C   0  0  0  0  0  0
  -26.0224  -27.0785   19.3101 C   0  0  0  0  0  0
  -24.8378  -27.8114   19.3863 C   0  0  0  0  0  0
  -23.6022  -29.8837   20.1727 C   0  0  0  0  0  0
  -25.4130  -36.3133   24.0317 C   0  0  1  0  0  0
  -20.5845  -28.3671   23.1312 C   0  0  2  0  0  0
  -20.6781  -26.9416   22.5408 C   0  0  0  0  0  0
  -19.5770  -26.6370   21.5206 C   0  0  0  0  0  0
  -18.1934  -26.7915   22.1614 C   0  0  0  0  0  0
  -19.1515  -28.8839   23.2898 C   0  0  0  0  0  0
  -18.9455  -30.1443   23.8911 C   0  0  0  0  0  0
  -17.6456  -30.6592   24.0559 C   0  0  0  0  0  0
  -25.9039  -34.9492   23.5113 C   0  0  0  0  0  0
  -16.5344  -29.9084   23.6334 C   0  0  0  0  0  0
  -16.7255  -28.6502   23.0358 C   0  0  0  0  0  0
  -26.4486  -31.6634   25.0826 C   0  0  0  0  0  0
  -25.3761  -31.3787   26.1587 C   0  0  0  0  0  0
  -27.0291  -30.3035   24.6264 C   0  0  0  0  0  0
  -27.6028  -32.4373   25.7620 C   0  0  0  0  0  0
  -27.5578  -37.1855   24.8448 C   0  0  0  0  0  0
  -21.4105  -29.3045   22.3709 N   0  0  0  0  0  0
  -26.4299  -37.3798   23.9374 N   0  0  0  0  0  0
  -24.6647  -31.0791   22.1196 N   0  0  0  0  0  0
  -23.4181  -28.8147   23.2918 O   0  0  0  0  0  0
  -28.2544  -26.5153   20.1028 O   0  0  0  0  0  0
  -26.5597  -34.8901   22.4676 O   0  0  0  0  0  0
  -23.5324  -32.1511   23.7643 O   0  0  0  0  0  0
  -26.2257  -18.1538   19.5345 C   0  0  0  0  0  0
  -26.8566  -16.5848   18.1156 C   0  0  0  0  0  0
  -25.7197  -17.3147   18.5942 C   0  0  0  0  0  0
  -27.9776  -16.9306   18.8563 C   0  0  0  0  0  0
  -25.8857  -15.7548   15.7463 C   0  0  0  0  0  0
  -25.9018  -14.5332   16.6246 C   0  0  0  0  0  0
  -26.7932  -22.8587   19.9708 C   0  0  0  0  0  0
  -29.1171  -22.7447   20.8226 C   0  0  0  0  0  0
  -26.9510  -24.3402   19.6488 C   0  0  0  0  0  0
  -29.3021  -24.2643   20.4450 C   0  0  0  0  0  0
  -26.8797  -15.6538   16.9007 C   0  0  0  0  0  0
  -28.0901  -22.0222   19.9060 C   0  0  1  0  0  0
  -28.0007  -25.1123   20.4890 C   0  0  1  0  0  0
  -23.9781  -18.4151   17.1867 C   0  0  0  0  0  0
  -23.3008  -17.4374   19.3956 C   0  0  0  0  0  0
  -29.3835  -16.3101   18.8667 C   0  0  0  0  0  0
  -27.6218  -20.5554   20.2221 C   0  0  0  0  0  0
  -28.4416  -19.2151   20.1093 C   0  0  0  0  0  0
  -24.2488  -17.2826   18.1931 C   0  0  0  0  0  0
  -27.6165  -18.1199   19.5203 N   0  0  0  0  0  0
  -29.8463  -15.7626   20.1668 N   0  0  0  0  0  0
  -31.4755  -12.4351   19.1675 H   0  0  0  0  0  0
  -30.3182  -11.4214   19.9908 H   0  0  0  0  0  0
  -29.7151  -11.5756   17.5682 H   0  0  0  0  0  0
  -29.8605  -13.2957   17.5916 H   0  0  0  0  0  0
  -27.4618  -11.7731   18.1016 H   0  0  0  0  0  0
  -27.6801  -13.4966   18.0209 H   0  0  0  0  0  0
  -27.9882  -11.7299   20.2095 H   0  0  0  0  0  0
  -28.8181  -12.6430   21.8530 H   0  0  0  0  0  0
  -28.3416  -14.2505   21.4180 H   0  0  0  0  0  0
  -25.2287   -9.5695   22.4984 H   0  0  0  0  0  0
  -23.9866   -7.4515   22.7611 H   0  0  0  0  0  0
  -21.0313   -8.8144   19.9305 H   0  0  0  0  0  0
  -22.2782  -10.9318   19.6290 H   0  0  0  0  0  0
  -21.2201   -7.6090   23.9782 H   0  0  0  0  0  0
  -21.1357   -6.0458   25.9101 H   0  0  0  0  0  0
  -22.0660   -2.7573   23.2829 H   0  0  0  0  0  0
  -22.3082  -12.0602   22.5116 H   0  0  0  0  0  0
  -21.1012  -13.3006   22.2836 H   0  0  0  0  0  0
  -24.7894  -15.7178   20.5550 H   0  0  0  0  0  0
  -26.3262  -15.4492   19.9576 H   0  0  0  0  0  0
  -26.7068  -32.5512   23.1205 H   0  0  0  0  0  0
  -25.0126  -33.9847   25.0536 H   0  0  0  0  0  0
  -22.6775  -31.3316   21.4509 H   0  0  0  0  0  0
  -23.3714  -35.9740   23.3343 H   0  0  0  0  0  0
  -24.3587  -36.8925   22.2029 H   0  0  0  0  0  0
  -23.7310  -37.6591   23.6625 H   0  0  0  0  0  0
  -26.0825  -31.5712   20.6465 H   0  0  0  0  0  0
  -26.8164  -30.8349   22.0415 H   0  0  0  0  0  0
  -28.0405  -28.9460   21.3080 H   0  0  0  0  0  0
  -26.0045  -26.2838   18.5855 H   0  0  0  0  0  0
  -23.9667  -27.5019   18.8256 H   0  0  0  0  0  0
  -23.7255  -30.6797   19.4355 H   0  0  0  0  0  0
  -22.7176  -29.3286   19.8497 H   0  0  0  0  0  0
  -25.1308  -36.2018   25.0797 H   0  0  0  0  0  0
  -20.9955  -28.3262   24.1439 H   0  0  0  0  0  0
  -20.5704  -26.2277   23.3599 H   0  0  0  0  0  0
  -21.6647  -26.7485   22.1190 H   0  0  0  0  0  0
  -19.6934  -25.6274   21.1266 H   0  0  0  0  0  0
  -19.6704  -27.3158   20.6728 H   0  0  0  0  0  0
  -17.4193  -26.6637   21.4025 H   0  0  0  0  0  0
  -18.0361  -26.0058   22.9032 H   0  0  0  0  0  0
  -19.7936  -30.7262   24.2260 H   0  0  0  0  0  0
  -17.5027  -31.6272   24.5180 H   0  0  0  0  0  0
  -15.5353  -30.3009   23.7668 H   0  0  0  0  0  0
  -15.8649  -28.0840   22.7074 H   0  0  0  0  0  0
  -24.5916  -30.7124   25.7986 H   0  0  0  0  0  0
  -24.9008  -32.2975   26.5016 H   0  0  0  0  0  0
  -25.8150  -30.8999   27.0353 H   0  0  0  0  0  0
  -26.2832  -29.6815   24.1287 H   0  0  0  0  0  0
  -27.3942  -29.7264   25.4776 H   0  0  0  0  0  0
  -27.8758  -30.4270   23.9508 H   0  0  0  0  0  0
  -27.2552  -33.3602   26.2273 H   0  0  0  0  0  0
  -28.3835  -32.7039   25.0490 H   0  0  0  0  0  0
  -28.0689  -31.8471   26.5510 H   0  0  0  0  0  0
  -28.2627  -38.0126   24.7441 H   0  0  0  0  0  0
  -28.1053  -36.2645   24.6364 H   0  0  0  0  0  0
  -27.2285  -37.1612   25.8853 H   0  0  0  0  0  0
  -20.9227  -29.8848   21.7026 H   0  0  0  0  0  0
  -26.0204  -38.2886   24.1339 H   0  0  0  0  0  0
  -25.6916  -18.8920   20.1186 H   0  0  0  0  0  0
  -24.9380  -16.2769   15.7995 H   0  0  0  0  0  0
  -26.2873  -15.6279   14.7445 H   0  0  0  0  0  0
  -25.0795  -14.3842   17.3245 H   0  0  0  0  0  0
  -26.2744  -13.6256   16.1545 H   0  0  0  0  0  0
  -26.0371  -22.4589   19.2924 H   0  0  0  0  0  0
  -26.3659  -22.7803   20.9742 H   0  0  0  0  0  0
  -28.8166  -22.6629   21.8668 H   0  0  0  0  0  0
  -30.0781  -22.2349   20.7437 H   0  0  0  0  0  0
  -25.9547  -24.7077   19.8674 H   0  0  0  0  0  0
  -27.1593  -24.4674   18.5807 H   0  0  0  0  0  0
  -29.7056  -24.3329   19.4368 H   0  0  0  0  0  0
  -30.0430  -24.7212   21.1060 H   0  0  0  0  0  0
  -27.9134  -15.4682   16.6041 H   0  0  0  0  0  0
  -28.4632  -22.0420   18.8779 H   0  0  0  0  0  0
  -27.6460  -25.1311   21.5241 H   0  0  0  0  0  0
  -24.6230  -18.3786   16.3123 H   0  0  0  0  0  0
  -24.1508  -19.3789   17.6600 H   0  0  0  0  0  0
  -22.9472  -18.4285   16.8373 H   0  0  0  0  0  0
  -23.5521  -16.7531   20.2050 H   0  0  0  0  0  0
  -22.2658  -17.2318   19.1141 H   0  0  0  0  0  0
  -23.3099  -18.4465   19.8050 H   0  0  0  0  0  0
  -30.1106  -17.0410   18.5067 H   0  0  0  0  0  0
  -29.4391  -15.5181   18.1236 H   0  0  0  0  0  0
  -26.8692  -20.4786   19.4433 H   0  0  0  0  0  0
  -27.0580  -20.5387   21.1561 H   0  0  0  0  0  0
  -28.7717  -18.9106   21.1020 H   0  0  0  0  0  0
  -29.3379  -19.3522   19.5036 H   0  0  0  0  0  0
  -24.0132  -16.3210   17.7441 H   0  0  0  0  0  0
  -30.2605  -16.5307   20.6750 H   0  0  0  0  0  0
  1 25  1  0  0  0
  1 30  2  0  0  0
  1 91  1  0  0  0
  2  3  1  0  0  0
  2 25  1  0  0  0
  2 92  1  0  0  0
  2 93  1  0  0  0
  3  4  1  0  0  0
  3 94  1  0  0  0
  3 95  1  0  0  0
  4  5  1  0  0  0
  4 96  1  0  0  0
  4 97  1  0  0  0
  5  6  1  0  0  0
  5 26  1  0  0  0
  5 98  1  0  0  0
  6 25  1  0  0  0
  6 99  1  0  0  0
  6100  1  0  0  0
  7  8  2  0  0  0
  7 26  1  0  0  0
  7 29  1  0  0  0
  8  9  1  0  0  0
  8 22  1  0  0  0
  9 10  1  0  0  0
  9 27  2  0  0  0
 10 11  2  0  0  0
 10 15  1  0  0  0
 11 12  1  0  0  0
 11101  1  0  0  0
 12 13  2  0  0  0
 12102  1  0  0  0
 13 14  1  0  0  0
 13 31  1  0  0  0
 14 15  2  0  0  0
 14103  1  0  0  0
 15104  1  0  0  0
 16 17  2  0  0  0
 16 21  1  0  0  0
 16 31  1  0  0  0
 17 18  1  0  0  0
 17105  1  0  0  0
 18 19  2  0  0  0
 18106  1  0  0  0
 19 20  1  0  0  0
 19 24  1  0  0  0
 20 21  2  0  0  0
 20107  1  0  0  0
 21 23  1  0  0  0
 22 28  1  0  0  0
 22 32  2  0  0  0
 26 27  1  0  0  0
 28108  1  0  0  0
 28109  1  0  0  0
 29110  1  0  0  0
 29111  1  0  0  0
 33 34  1  0  0  0
 33 66  1  0  0  0
 33 70  2  0  0  0
 34 36  1  0  0  0
 34 59  1  0  0  0
 34112  1  0  0  0
 35 44  2  0  0  0
 35 45  1  0  0  0
 35 68  1  0  0  0
 36 56  1  0  0  0
 36113  1  0  0  0
 37 39  1  0  0  0
 37 47  1  0  0  0
 37 66  1  0  0  0
 37114  1  0  0  0
 38 43  2  0  0  0
 38 46  1  0  0  0
 38 47  1  0  0  0
 39 64  1  0  0  0
 39 67  2  0  0  0
 40 52  1  0  0  0
 40 53  2  0  0  0
 40 58  1  0  0  0
 41115  1  0  0  0
 41116  1  0  0  0
 41117  1  0  0  0
 41 48  1  0  0  0
 42 43  1  0  0  0
 42 66  1  0  0  0
 42118  1  0  0  0
 42119  1  0  0  0
 43 44  1  0  0  0
 44120  1  0  0  0
 45 46  2  0  0  0
 45121  1  0  0  0
 46122  1  0  0  0
 47123  1  0  0  0
 47124  1  0  0  0
 48 56  1  0  0  0
 48 65  1  0  0  0
 48125  1  0  0  0
 49 50  1  0  0  0
 49 53  1  0  0  0
 49 64  1  0  0  0
 49126  1  0  0  0
 50 51  1  0  0  0
 50127  1  0  0  0
 50128  1  0  0  0
 51 52  1  0  0  0
 51129  1  0  0  0
 51130  1  0  0  0
 52131  1  0  0  0
 52132  1  0  0  0
 53 54  1  0  0  0
 54 55  2  0  0  0
 54133  1  0  0  0
 55 57  1  0  0  0
 55134  1  0  0  0
 56 69  2  0  0  0
 57 58  2  0  0  0
 57135  1  0  0  0
 58136  1  0  0  0
 59 60  1  0  0  0
 59 61  1  0  0  0
 59 62  1  0  0  0
 60137  1  0  0  0
 60138  1  0  0  0
 60139  1  0  0  0
 61140  1  0  0  0
 61141  1  0  0  0
 61142  1  0  0  0
 62143  1  0  0  0
 62144  1  0  0  0
 62145  1  0  0  0
 63 65  1  0  0  0
 63146  1  0  0  0
 63147  1  0  0  0
 63148  1  0  0  0
 64149  1  0  0  0
 65150  1  0  0  0
 68 83  1  0  0  0
 71 73  2  0  0  0
 71 90  1  0  0  0
 71151  1  0  0  0
 72 73  1  0  0  0
 72 74  2  0  0  0
 72 81  1  0  0  0
 73 89  1  0  0  0
 74 86  1  0  0  0
 74 90  1  0  0  0
 75 76  1  0  0  0
 75 81  1  0  0  0
 75152  1  0  0  0
 75153  1  0  0  0
 76 81  1  0  0  0
 76154  1  0  0  0
 76155  1  0  0  0
 77 79  1  0  0  0
 77 82  1  0  0  0
 77156  1  0  0  0
 77157  1  0  0  0
 78 80  1  0  0  0
 78 82  1  0  0  0
 78158  1  0  0  0
 78159  1  0  0  0
 79 83  1  0  0  0
 79160  1  0  0  0
 79161  1  0  0  0
 80 83  1  0  0  0
 80162  1  0  0  0
 80163  1  0  0  0
 81164  1  0  0  0
 82 87  1  0  0  0
 82165  1  0  0  0
 83166  1  0  0  0
 84167  1  0  0  0
 84168  1  0  0  0
 84169  1  0  0  0
 84 89  1  0  0  0
 85 89  1  0  0  0
 85170  1  0  0  0
 85171  1  0  0  0
 85172  1  0  0  0
 86 91  1  0  0  0
 86173  1  0  0  0
 86174  1  0  0  0
 87 88  1  0  0  0
 87175  1  0  0  0
 87176  1  0  0  0
 88 90  1  0  0  0
 88177  1  0  0  0
 88178  1  0  0  0
 89179  1  0  0  0
 91180  1  0  0  0
M  ISO  4   1 100  68 101  83 101  91 100
M  END
> <chiral flag>
0

> <version>
0

> <s_m_source_file>
/data/baiqing/PycharmProjects/Reinvent-master-3.2/result/LINK_invent/BTK/process_docking_weight1_custom_sum_contain_oxygen_bond_distance_aromatic_linkinvent_7_9_3/rearranged_h_0146.sdf

> <i_m_source_file_index>
43

> <r_mmod_Potential_Energy-OPLS-2005>
377.528900146484

> <r_mmod_Stretch_Energy-OPLS-2005>
59.7615089416504

> <r_mmod_Bend_Energy-OPLS-2005>
250.069290161133

> <r_mmod_Torsional_Energy-OPLS-2005>
423.847473144531

> <r_mmod_Improper_Torsional_Energy-OPLS-2005>
14.6432838439941

> <r_mmod_Van_der_Waal_Energy-OPLS-2005>
167.624206542969

> <r_mmod_Electrostatic_Energy-OPLS-2005>
-485.994781494141

> <r_mmod_Solvation_Energy-OPLS-2005>
-176.336227416992

> <b_mmod_Minimization_Converged-OPLS-2005>
0

> <r_mmod_RMS_Derivative-OPLS-2005>
12.8962821960449

$$$$
43
                    3D
 Structure written by MMmdl.
178187  0  0  1  0            999 V2000
  -30.7956  -14.4489   20.6190 C   0  0  0  0  0  0
  -30.3866  -12.3075   19.4559 C   0  0  0  0  0  0
  -29.4868  -12.5411   18.2255 C   0  0  0  0  0  0
  -28.0059  -12.3914   18.6173 C   0  0  0  0  0  0
  -27.6548  -13.2095   19.8885 C   0  0  2  0  0  0
  -28.6997  -13.0087   21.0190 C   0  0  0  0  0  0
  -25.2475  -13.8068   20.5656 C   0  0  0  0  0  0
  -24.1762  -13.0346   20.9193 C   0  0  0  0  0  0
  -24.6375  -11.6840   20.8775 C   0  0  0  0  0  0
  -23.9066  -10.4243   21.0420 C   0  0  0  0  0  0
  -24.3654   -9.4180   21.9198 C   0  0  0  0  0  0
  -23.6330   -8.2228   22.0790 C   0  0  0  0  0  0
  -22.4286   -8.0288   21.3601 C   0  0  0  0  0  0
  -21.9936   -9.0218   20.4665 C   0  0  0  0  0  0
  -22.7261  -10.2086   20.3058 C   0  0  0  0  0  0
  -21.6850   -6.0770   22.5306 C   0  0  0  0  0  0
  -21.3995   -6.5661   23.8247 C   0  0  0  0  0  0
  -21.3667   -5.6803   24.9196 C   0  0  0  0  0  0
  -21.6053   -4.3067   24.7216 C   0  0  0  0  0  0
  -21.8815   -3.8177   23.4327 C   0  0  0  0  0  0
  -21.9187   -4.7009   22.3400 C   0  0  0  0  0  0
  -22.7796  -13.5166   21.1868 C   0  0  0  0  0  0
  -22.1647   -4.2208   21.0972 F   0  0  0  0  0  0
  -21.5657   -3.4540   25.7715 F   0  0  0  0  0  0
  -30.0350  -13.3131   20.4803 N   0  0  0  0  0  0
  -26.2976  -12.9295   20.3452 N   0  0  0  0  0  0
  -25.9313  -11.6448   20.5823 N   0  0  0  0  0  0
  -22.0420  -12.8118   22.0368 N   0  0  0  0  0  0
  -25.3999  -15.1742   20.3836 N   0  0  0  0  0  0
  -31.8456  -14.5585   19.9775 O   0  0  0  0  0  0
  -21.6648   -6.8895   21.4270 O   0  0  0  0  0  0
  -22.3503  -14.5530   20.6788 O   0  0  0  0  0  0
  -24.6108  -31.8730   23.2106 C   0  0  0  0  0  0
  -25.9015  -32.4848   23.8387 C   0  0  1  0  0  0
  -27.2399  -27.4967   20.0755 C   0  0  0  0  0  0
  -25.5910  -33.8654   24.2351 N   0  0  0  0  0  0
  -23.3939  -30.4951   21.5499 C   0  0  2  0  0  0
  -24.8373  -28.9590   20.1221 C   0  0  0  0  0  0
  -22.7342  -29.4732   22.5011 C   0  0  0  0  0  0
  -18.0276  -28.1409   22.8531 C   0  0  0  0  0  0
  -24.1464  -36.7333   23.2636 C   0  0  0  0  0  0
  -25.9141  -30.8546   21.3530 C   0  0  0  0  0  0
  -25.9936  -29.4849   20.7147 C   0  0  0  0  0  0
  -27.1968  -28.7586   20.7014 C   0  0  0  0  0  0
  -26.0776  -26.9732   19.4739 C   0  0  0  0  0  0
  -24.8689  -27.6945   19.5045 C   0  0  0  0  0  0
  -23.5990  -29.8235   20.1669 C   0  0  0  0  0  0
  -25.4106  -36.3174   24.0338 C   0  0  1  0  0  0
  -20.5859  -28.3695   23.1365 C   0  0  2  0  0  0
  -20.6781  -26.9425   22.5455 C   0  0  0  0  0  0
  -19.5747  -26.6441   21.5242 C   0  0  0  0  0  0
  -18.1919  -26.7972   22.1636 C   0  0  0  0  0  0
  -19.1534  -28.8864   23.2947 C   0  0  0  0  0  0
  -18.9470  -30.1469   23.8951 C   0  0  0  0  0  0
  -17.6470  -30.6611   24.0625 C   0  0  0  0  0  0
  -25.9026  -34.9524   23.5155 C   0  0  0  0  0  0
  -16.5353  -29.9140   23.6357 C   0  0  0  0  0  0
  -16.7276  -28.6576   23.0361 C   0  0  0  0  0  0
  -26.4457  -31.6577   25.0670 C   0  0  0  0  0  0
  -25.3759  -31.3609   26.1427 C   0  0  0  0  0  0
  -27.0283  -30.3060   24.5967 C   0  0  0  0  0  0
  -27.6049  -32.4263   25.7424 C   0  0  0  0  0  0
  -27.5584  -37.1833   24.8480 C   0  0  0  0  0  0
  -21.4091  -29.3061   22.3736 N   0  0  0  0  0  0
  -26.4310  -37.3860   23.9405 N   0  0  0  0  0  0
  -24.6570  -31.0872   22.0973 N   0  0  0  0  0  0
  -23.4143  -28.8293   23.3059 O   0  0  0  0  0  0
  -28.4041  -26.7828   20.0127 O   0  0  0  0  0  0
  -26.5558  -34.8979   22.4709 O   0  0  0  0  0  0
  -23.5344  -32.1455   23.7550 O   0  0  0  0  0  0
  -29.2731  -20.3104   21.0339 C   0  0  0  0  0  0
  -29.1720  -17.6026   21.5332 C   0  0  0  0  0  0
  -28.0174  -19.7440   21.3258 C   0  0  0  0  0  0
  -27.9679  -18.3540   21.5987 C   0  0  0  0  0  0
  -30.3746  -18.3065   21.3167 C   0  0  0  0  0  0
  -29.1873  -16.0701   21.6911 C   0  0  0  0  0  0
  -31.7212  -17.6118   21.3791 C   0  0  1  0  0  0
  -31.6097  -16.2336   22.0967 C   0  0  1  0  0  0
  -26.6435  -17.7075   21.9664 C   0  0  0  0  0  0
  -32.3580  -17.5811   19.9754 C   0  0  0  0  0  0
  -31.4874  -15.2623   25.6930 C   0  0  0  0  0  0
  -26.7354  -20.5918   21.3185 C   0  0  0  0  0  0
  -31.4984  -16.3957   23.6291 C   0  0  0  0  0  0
  -26.9255  -22.1211   21.2588 C   0  0  0  0  0  0
  -27.5504  -22.7321   22.5421 C   0  0  0  0  0  0
  -27.7960  -25.0163   21.5438 C   0  0  0  0  0  0
  -28.7782  -26.1624   21.2366 C   0  0  0  0  0  0
  -30.4260  -19.6266   21.0693 N   0  0  0  0  0  0
  -30.4995  -15.4025   21.5532 N   0  0  0  0  0  0
  -28.4278  -23.8995   22.2855 N   0  3  0  0  0  0
  -31.4826  -15.1305   24.2759 O   0  0  0  0  0  0
  -31.4391  -12.3283   19.1668 H   0  0  0  0  0  0
  -30.2296  -11.3036   19.8555 H   0  0  0  0  0  0
  -29.7407  -11.8382   17.4304 H   0  0  0  0  0  0
  -29.6619  -13.5439   17.8280 H   0  0  0  0  0  0
  -27.8051  -11.3313   18.7751 H   0  0  0  0  0  0
  -27.3640  -12.6993   17.7887 H   0  0  0  0  0  0
  -27.6821  -14.2513   19.5779 H   0  0  0  0  0  0
  -28.6825  -11.9750   21.3644 H   0  0  0  0  0  0
  -28.4556  -13.5916   21.9037 H   0  0  0  0  0  0
  -25.2824   -9.5644   22.4738 H   0  0  0  0  0  0
  -24.0079   -7.4609   22.7480 H   0  0  0  0  0  0
  -21.0916   -8.8674   19.8933 H   0  0  0  0  0  0
  -22.3756  -10.9604   19.6139 H   0  0  0  0  0  0
  -21.1956   -7.6159   23.9771 H   0  0  0  0  0  0
  -21.1519   -6.0522   25.9107 H   0  0  0  0  0  0
  -22.0596   -2.7646   23.2788 H   0  0  0  0  0  0
  -22.4007  -11.9743   22.4729 H   0  0  0  0  0  0
  -21.1063  -13.1211   22.2612 H   0  0  0  0  0  0
  -24.5999  -15.7921   20.4559 H   0  0  0  0  0  0
  -26.2281  -15.6316   20.0320 H   0  0  0  0  0  0
  -26.7088  -32.5574   23.1148 H   0  0  0  0  0  0
  -25.0135  -33.9819   25.0565 H   0  0  0  0  0  0
  -22.6847  -31.3147   21.4116 H   0  0  0  0  0  0
  -23.3761  -35.9629   23.3331 H   0  0  0  0  0  0
  -24.3575  -36.8938   22.2052 H   0  0  0  0  0  0
  -23.7165  -37.6534   23.6616 H   0  0  0  0  0  0
  -26.0134  -31.6148   20.5765 H   0  0  0  0  0  0
  -26.8099  -30.9203   21.9583 H   0  0  0  0  0  0
  -28.0890  -29.1766   21.1474 H   0  0  0  0  0  0
  -26.1113  -26.0147   18.9727 H   0  0  0  0  0  0
  -23.9822  -27.2848   19.0378 H   0  0  0  0  0  0
  -23.6995  -30.5952   19.4021 H   0  0  0  0  0  0
  -22.7233  -29.2392   19.8797 H   0  0  0  0  0  0
  -25.1286  -36.2066   25.0832 H   0  0  0  0  0  0
  -20.9967  -28.3279   24.1477 H   0  0  0  0  0  0
  -20.5710  -26.2315   23.3663 H   0  0  0  0  0  0
  -21.6644  -26.7495   22.1224 H   0  0  0  0  0  0
  -19.6877  -25.6375   21.1235 H   0  0  0  0  0  0
  -19.6663  -27.3304   20.6820 H   0  0  0  0  0  0
  -17.4206  -26.6818   21.3998 H   0  0  0  0  0  0
  -18.0244  -26.0090   22.8977 H   0  0  0  0  0  0
  -19.7956  -30.7307   24.2275 H   0  0  0  0  0  0
  -17.5054  -31.6271   24.5286 H   0  0  0  0  0  0
  -15.5382  -30.3071   23.7700 H   0  0  0  0  0  0
  -15.8664  -28.0955   22.6992 H   0  0  0  0  0  0
  -24.6003  -30.6850   25.7782 H   0  0  0  0  0  0
  -24.8820  -32.2718   26.4831 H   0  0  0  0  0  0
  -25.8180  -30.8841   27.0193 H   0  0  0  0  0  0
  -26.2792  -29.6805   24.1082 H   0  0  0  0  0  0
  -27.4210  -29.7285   25.4351 H   0  0  0  0  0  0
  -27.8561  -30.4458   23.9006 H   0  0  0  0  0  0
  -27.2731  -33.3652   26.1883 H   0  0  0  0  0  0
  -28.3913  -32.6668   25.0244 H   0  0  0  0  0  0
  -28.0615  -31.8396   26.5417 H   0  0  0  0  0  0
  -28.2643  -38.0087   24.7562 H   0  0  0  0  0  0
  -28.1033  -36.2651   24.6284 H   0  0  0  0  0  0
  -27.2284  -37.1467   25.8870 H   0  0  0  0  0  0
  -20.9187  -29.8840   21.7045 H   0  0  0  0  0  0
  -26.0214  -38.2953   24.1394 H   0  0  0  0  0  0
  -29.3895  -21.3561   20.7995 H   0  0  0  0  0  0
  -28.4935  -15.6952   20.9458 H   0  0  0  0  0  0
  -28.7919  -15.8115   22.6727 H   0  0  0  0  0  0
  -32.3763  -18.2407   21.9849 H   0  0  0  0  0  0
  -32.5662  -15.7264   21.9650 H   0  0  0  0  0  0
  -26.7389  -16.6683   22.2707 H   0  0  0  0  0  0
  -25.9560  -17.7660   21.1239 H   0  0  0  0  0  0
  -26.1950  -18.2268   22.8118 H   0  0  0  0  0  0
  -31.7327  -17.0569   19.2540 H   0  0  0  0  0  0
  -33.3405  -17.1140   19.9847 H   0  0  0  0  0  0
  -32.4930  -18.5932   19.5924 H   0  0  0  0  0  0
  -31.4777  -14.2778   26.1613 H   0  0  0  0  0  0
  -30.6091  -15.8083   26.0438 H   0  0  0  0  0  0
  -32.3807  -15.7859   26.0415 H   0  0  0  0  0  0
  -26.1403  -20.3711   22.2039 H   0  0  0  0  0  0
  -26.1391  -20.2845   20.4577 H   0  0  0  0  0  0
  -30.6146  -16.9682   23.9063 H   0  0  0  0  0  0
  -32.3537  -16.9709   23.9853 H   0  0  0  0  0  0
  -25.9496  -22.5826   21.1031 H   0  0  0  0  0  0
  -27.4925  -22.3732   20.3658 H   0  0  0  0  0  0
  -28.1503  -21.9860   23.0606 H   0  0  0  0  0  0
  -26.7597  -23.0141   23.2384 H   0  0  0  0  0  0
  -27.4365  -24.6360   20.5882 H   0  0  0  0  0  0
  -26.9244  -25.3917   22.0830 H   0  0  0  0  0  0
  -29.7870  -25.7784   21.0927 H   0  0  0  0  0  0
  -28.8290  -26.8806   22.0568 H   0  0  0  0  0  0
  -29.2385  -23.5896   21.7732 H   0  0  0  0  0  0
  -28.7687  -24.2399   23.1725 H   0  0  0  0  0  0
  1 25  1  0  0  0
  1 30  2  0  0  0
  1 89  1  0  0  0
  2  3  1  0  0  0
  2 25  1  0  0  0
  2 92  1  0  0  0
  2 93  1  0  0  0
  3  4  1  0  0  0
  3 94  1  0  0  0
  3 95  1  0  0  0
  4  5  1  0  0  0
  4 96  1  0  0  0
  4 97  1  0  0  0
  5  6  1  0  0  0
  5 26  1  0  0  0
  5 98  1  0  0  0
  6 25  1  0  0  0
  6 99  1  0  0  0
  6100  1  0  0  0
  7  8  2  0  0  0
  7 26  1  0  0  0
  7 29  1  0  0  0
  8  9  1  0  0  0
  8 22  1  0  0  0
  9 10  1  0  0  0
  9 27  2  0  0  0
 10 11  2  0  0  0
 10 15  1  0  0  0
 11 12  1  0  0  0
 11101  1  0  0  0
 12 13  2  0  0  0
 12102  1  0  0  0
 13 14  1  0  0  0
 13 31  1  0  0  0
 14 15  2  0  0  0
 14103  1  0  0  0
 15104  1  0  0  0
 16 17  2  0  0  0
 16 21  1  0  0  0
 16 31  1  0  0  0
 17 18  1  0  0  0
 17105  1  0  0  0
 18 19  2  0  0  0
 18106  1  0  0  0
 19 20  1  0  0  0
 19 24  1  0  0  0
 20 21  2  0  0  0
 20107  1  0  0  0
 21 23  1  0  0  0
 22 28  1  0  0  0
 22 32  2  0  0  0
 26 27  1  0  0  0
 28108  1  0  0  0
 28109  1  0  0  0
 29110  1  0  0  0
 29111  1  0  0  0
 33 34  1  0  0  0
 33 66  1  0  0  0
 33 70  2  0  0  0
 34 36  1  0  0  0
 34 59  1  0  0  0
 34112  1  0  0  0
 35 44  2  0  0  0
 35 45  1  0  0  0
 35 68  1  0  0  0
 36 56  1  0  0  0
 36113  1  0  0  0
 37 39  1  0  0  0
 37 47  1  0  0  0
 37 66  1  0  0  0
 37114  1  0  0  0
 38 43  2  0  0  0
 38 46  1  0  0  0
 38 47  1  0  0  0
 39 64  1  0  0  0
 39 67  2  0  0  0
 40 52  1  0  0  0
 40 53  2  0  0  0
 40 58  1  0  0  0
 41115  1  0  0  0
 41116  1  0  0  0
 41117  1  0  0  0
 41 48  1  0  0  0
 42 43  1  0  0  0
 42 66  1  0  0  0
 42118  1  0  0  0
 42119  1  0  0  0
 43 44  1  0  0  0
 44120  1  0  0  0
 45 46  2  0  0  0
 45121  1  0  0  0
 46122  1  0  0  0
 47123  1  0  0  0
 47124  1  0  0  0
 48 56  1  0  0  0
 48 65  1  0  0  0
 48125  1  0  0  0
 49 50  1  0  0  0
 49 53  1  0  0  0
 49 64  1  0  0  0
 49126  1  0  0  0
 50 51  1  0  0  0
 50127  1  0  0  0
 50128  1  0  0  0
 51 52  1  0  0  0
 51129  1  0  0  0
 51130  1  0  0  0
 52131  1  0  0  0
 52132  1  0  0  0
 53 54  1  0  0  0
 54 55  2  0  0  0
 54133  1  0  0  0
 55 57  1  0  0  0
 55134  1  0  0  0
 56 69  2  0  0  0
 57 58  2  0  0  0
 57135  1  0  0  0
 58136  1  0  0  0
 59 60  1  0  0  0
 59 61  1  0  0  0
 59 62  1  0  0  0
 60137  1  0  0  0
 60138  1  0  0  0
 60139  1  0  0  0
 61140  1  0  0  0
 61141  1  0  0  0
 61142  1  0  0  0
 62143  1  0  0  0
 62144  1  0  0  0
 62145  1  0  0  0
 63 65  1  0  0  0
 63146  1  0  0  0
 63147  1  0  0  0
 63148  1  0  0  0
 64149  1  0  0  0
 65150  1  0  0  0
 68 87  1  0  0  0
 71 73  2  0  0  0
 71 88  1  0  0  0
 71151  1  0  0  0
 72 74  2  0  0  0
 72 75  1  0  0  0
 72 76  1  0  0  0
 73 74  1  0  0  0
 73 82  1  0  0  0
 74 79  1  0  0  0
 75 77  1  0  0  0
 75 88  2  0  0  0
 76 89  1  0  0  0
 76152  1  0  0  0
 76153  1  0  0  0
 77 78  1  0  0  0
 77 80  1  0  0  0
 77154  1  0  0  0
 78 83  1  0  0  0
 78 89  1  0  0  0
 78155  1  0  0  0
 79156  1  0  0  0
 79157  1  0  0  0
 79158  1  0  0  0
 80159  1  0  0  0
 80160  1  0  0  0
 80161  1  0  0  0
 81 91  1  0  0  0
 81162  1  0  0  0
 81163  1  0  0  0
 81164  1  0  0  0
 82 84  1  0  0  0
 82165  1  0  0  0
 82166  1  0  0  0
 83 91  1  0  0  0
 83167  1  0  0  0
 83168  1  0  0  0
 84 85  1  0  0  0
 84169  1  0  0  0
 84170  1  0  0  0
 85 90  1  0  0  0
 85171  1  0  0  0
 85172  1  0  0  0
 86 87  1  0  0  0
 86 90  1  0  0  0
 86173  1  0  0  0
 86174  1  0  0  0
 87175  1  0  0  0
 87176  1  0  0  0
 90177  1  0  0  0
 90178  1  0  0  0
M  CHG  1  90   1
M  ISO  4   1 100  68 101  87 101  89 100
M  END
> <chiral flag>
0

> <version>
0

> <s_m_source_file>
/data/baiqing/PycharmProjects/Reinvent-master-3.2/result/LINK_invent/BTK/process_docking_weight1_custom_sum_contain_oxygen_bond_distance_aromatic_linkinvent_7_9_3/rearranged_h_0146.sdf

> <i_m_source_file_index>
44

> <r_mmod_Potential_Energy-OPLS-2005>
-134.144332885742

> <r_mmod_Stretch_Energy-OPLS-2005>
43.2391204833984

> <r_mmod_Bend_Energy-OPLS-2005>
121.827331542969

> <r_mmod_Torsional_Energy-OPLS-2005>
320.967895507812

> <r_mmod_Improper_Torsional_Energy-OPLS-2005>
5.00573635101318

> <r_mmod_Van_der_Waal_Energy-OPLS-2005>
178.063034057617

> <r_mmod_Electrostatic_Energy-OPLS-2005>
-378.134002685547

> <r_mmod_Solvation_Energy-OPLS-2005>
-437.127868652344

> <b_mmod_Minimization_Converged-OPLS-2005>
0

> <r_mmod_RMS_Derivative-OPLS-2005>
4.94604682922363

$$$$
44
                    3D
 Structure written by MMmdl.
164174  0  0  1  0            999 V2000
  -30.7113  -14.6003   20.4647 C   0  0  0  0  0  0
  -30.4070  -12.3625   19.4657 C   0  0  0  0  0  0
  -29.4848  -12.4790   18.2318 C   0  0  0  0  0  0
  -28.0114  -12.3395   18.6480 C   0  0  0  0  0  0
  -27.6443  -13.2295   19.8608 C   0  0  2  0  0  0
  -28.6931  -13.1194   20.9892 C   0  0  0  0  0  0
  -25.2421  -13.8135   20.5432 C   0  0  0  0  0  0
  -24.1781  -13.0410   20.9245 C   0  0  0  0  0  0
  -24.6414  -11.6902   20.8855 C   0  0  0  0  0  0
  -23.9112  -10.4254   21.0463 C   0  0  0  0  0  0
  -24.3623   -9.4165   21.9263 C   0  0  0  0  0  0
  -23.6251   -8.2208   22.0808 C   0  0  0  0  0  0
  -22.4251   -8.0272   21.3553 C   0  0  0  0  0  0
  -21.9951   -9.0278   20.4658 C   0  0  0  0  0  0
  -22.7302  -10.2130   20.3059 C   0  0  0  0  0  0
  -21.6852   -6.0688   22.5266 C   0  0  0  0  0  0
  -21.4026   -6.5595   23.8207 C   0  0  0  0  0  0
  -21.3685   -5.6755   24.9189 C   0  0  0  0  0  0
  -21.6034   -4.3004   24.7245 C   0  0  0  0  0  0
  -21.8790   -3.8097   23.4379 C   0  0  0  0  0  0
  -21.9203   -4.6907   22.3399 C   0  0  0  0  0  0
  -22.7796  -13.5213   21.1874 C   0  0  0  0  0  0
  -22.1606   -4.2066   21.0978 F   0  0  0  0  0  0
  -21.5669   -3.4502   25.7783 F   0  0  0  0  0  0
  -29.9984  -13.4347   20.3961 N   0  0  0  0  0  0
  -26.2928  -12.9377   20.3334 N   0  0  0  0  0  0
  -25.9350  -11.6525   20.5876 N   0  0  0  0  0  0
  -22.0442  -12.8205   22.0460 N   0  0  0  0  0  0
  -25.3952  -15.1757   20.3212 N   0  0  0  0  0  0
  -31.9014  -14.6265   20.1646 O   0  0  0  0  0  0
  -21.6624   -6.8848   21.4220 O   0  0  0  0  0  0
  -22.3462  -14.5505   20.6762 O   0  0  0  0  0  0
  -24.6232  -31.8606   23.2061 C   0  0  0  0  0  0
  -25.9080  -32.4795   23.8380 C   0  0  1  0  0  0
  -27.2076  -27.3229   20.1281 C   0  0  0  0  0  0
  -25.5878  -33.8599   24.2291 N   0  0  0  0  0  0
  -23.4202  -30.4852   21.5470 C   0  0  2  0  0  0
  -24.8663  -28.9429   20.1099 C   0  0  0  0  0  0
  -22.7484  -29.4624   22.4929 C   0  0  0  0  0  0
  -18.0289  -28.1361   22.8504 C   0  0  0  0  0  0
  -24.1506  -36.7329   23.2646 C   0  0  0  0  0  0
  -25.9625  -30.7927   21.3773 C   0  0  0  0  0  0
  -26.0345  -29.4197   20.7178 C   0  0  0  0  0  0
  -27.2153  -28.6192   20.7208 C   0  0  0  0  0  0
  -26.0303  -26.9049   19.4743 C   0  0  0  0  0  0
  -24.8620  -27.6875   19.4832 C   0  0  0  0  0  0
  -23.6352  -29.8225   20.1606 C   0  0  0  0  0  0
  -25.4124  -36.3101   24.0331 C   0  0  1  0  0  0
  -20.5902  -28.3665   23.1302 C   0  0  2  0  0  0
  -20.6772  -26.9375   22.5434 C   0  0  0  0  0  0
  -19.5729  -26.6367   21.5225 C   0  0  0  0  0  0
  -18.1919  -26.7914   22.1652 C   0  0  0  0  0  0
  -19.1552  -28.8826   23.2909 C   0  0  0  0  0  0
  -18.9459  -30.1434   23.8900 C   0  0  0  0  0  0
  -17.6455  -30.6562   24.0565 C   0  0  0  0  0  0
  -25.9039  -34.9457   23.5134 C   0  0  0  0  0  0
  -16.5343  -29.9063   23.6317 C   0  0  0  0  0  0
  -16.7285  -28.6491   23.0334 C   0  0  0  0  0  0
  -26.4453  -31.6611   25.0755 C   0  0  0  0  0  0
  -25.3711  -31.3731   26.1507 C   0  0  0  0  0  0
  -27.0300  -30.3036   24.6216 C   0  0  0  0  0  0
  -27.6034  -32.4340   25.7494 C   0  0  0  0  0  0
  -27.5590  -37.1837   24.8458 C   0  0  0  0  0  0
  -21.4197  -29.3026   22.3698 N   0  0  0  0  0  0
  -26.4310  -37.3779   23.9386 N   0  0  0  0  0  0
  -24.6881  -31.0632   22.0993 N   0  0  0  0  0  0
  -23.4248  -28.8115   23.2958 O   0  0  0  0  0  0
  -28.2790  -26.4291   20.1941 O   0  0  0  0  0  0
  -26.5626  -34.8919   22.4707 O   0  0  0  0  0  0
  -23.5409  -32.1364   23.7400 O   0  0  0  0  0  0
  -25.7919  -20.4714   21.2207 C   0  0  0  0  0  0
  -24.8520  -19.6121   21.7704 C   0  0  0  0  0  0
  -27.4908  -18.7295   21.5177 C   0  0  0  0  0  0
  -27.1589  -20.0976   21.1152 C   0  0  0  0  0  0
  -26.4648  -18.0201   22.2475 C   0  0  0  0  0  0
  -25.7638  -16.5348   24.3360 C   0  0  0  0  0  0
  -27.2418  -16.7420   24.4671 C   0  0  0  0  0  0
  -29.7079  -17.3748   22.2150 C   0  0  0  0  0  0
  -28.8433  -18.0295   21.1621 C   0  0  1  0  0  0
  -26.6033  -16.7500   23.0804 C   0  0  0  0  0  0
  -29.1132  -16.4743   21.1524 C   0  0  1  0  0  0
  -28.5150  -23.7393   20.2802 C   0  0  0  0  0  0
  -27.9576  -25.1282   20.8281 C   0  0  0  0  0  0
  -27.6286  -22.4903   20.6967 C   0  0  0  0  0  0
  -25.1877  -18.4391   22.3022 N   0  0  0  0  0  0
  -30.0735  -15.7976   20.3076 N   0  0  0  0  0  0
  -28.0712  -21.0734   20.6423 O   0  0  0  0  0  0
  -31.4468  -12.4379   19.1499 H   0  0  0  0  0  0
  -30.3100  -11.3870   19.9458 H   0  0  0  0  0  0
  -29.7243  -11.7040   17.5029 H   0  0  0  0  0  0
  -29.6414  -13.4404   17.7407 H   0  0  0  0  0  0
  -27.8427  -11.2905   18.9024 H   0  0  0  0  0  0
  -27.3481  -12.5628   17.8126 H   0  0  0  0  0  0
  -27.6526  -14.2561   19.4988 H   0  0  0  0  0  0
  -28.6972  -12.1130   21.4126 H   0  0  0  0  0  0
  -28.4638  -13.7838   21.8221 H   0  0  0  0  0  0
  -25.2739   -9.5643   22.4914 H   0  0  0  0  0  0
  -23.9917   -7.4591   22.7542 H   0  0  0  0  0  0
  -21.0922   -8.8834   19.8893 H   0  0  0  0  0  0
  -22.3794  -10.9725   19.6181 H   0  0  0  0  0  0
  -21.1966   -7.6086   23.9678 H   0  0  0  0  0  0
  -21.1561   -6.0507   25.9096 H   0  0  0  0  0  0
  -22.0581   -2.7570   23.2915 H   0  0  0  0  0  0
  -22.4106  -11.9874   22.4820 H   0  0  0  0  0  0
  -21.1116  -13.1343   22.2754 H   0  0  0  0  0  0
  -24.6131  -15.8169   20.3861 H   0  0  0  0  0  0
  -26.2223  -15.5975   19.9170 H   0  0  0  0  0  0
  -26.7174  -32.5448   23.1159 H   0  0  0  0  0  0
  -24.9965  -33.9738   25.0393 H   0  0  0  0  0  0
  -22.7115  -31.3032   21.4012 H   0  0  0  0  0  0
  -23.3748  -35.9684   23.3315 H   0  0  0  0  0  0
  -24.3618  -36.8938   22.2065 H   0  0  0  0  0  0
  -23.7279  -37.6548   23.6658 H   0  0  0  0  0  0
  -26.0982  -31.5565   20.6092 H   0  0  0  0  0  0
  -26.8437  -30.8426   22.0071 H   0  0  0  0  0  0
  -28.1112  -28.9696   21.2158 H   0  0  0  0  0  0
  -26.0026  -25.9407   18.9871 H   0  0  0  0  0  0
  -23.9634  -27.3147   19.0067 H   0  0  0  0  0  0
  -23.7604  -30.5964   19.4026 H   0  0  0  0  0  0
  -22.7559  -29.2520   19.8546 H   0  0  0  0  0  0
  -25.1316  -36.1986   25.0826 H   0  0  0  0  0  0
  -21.0014  -28.3220   24.1413 H   0  0  0  0  0  0
  -20.5650  -26.2242   23.3635 H   0  0  0  0  0  0
  -21.6638  -26.7368   22.1218 H   0  0  0  0  0  0
  -19.6872  -25.6275   21.1233 H   0  0  0  0  0  0
  -19.6669  -27.3196   20.6769 H   0  0  0  0  0  0
  -17.4194  -26.6671   21.4054 H   0  0  0  0  0  0
  -18.0310  -26.0044   22.9037 H   0  0  0  0  0  0
  -19.7922  -30.7263   24.2275 H   0  0  0  0  0  0
  -17.4989  -31.6234   24.5165 H   0  0  0  0  0  0
  -15.5337  -30.2959   23.7616 H   0  0  0  0  0  0
  -15.8696  -28.0810   22.7024 H   0  0  0  0  0  0
  -24.5876  -30.7075   25.7852 H   0  0  0  0  0  0
  -24.8903  -32.2892   26.4967 H   0  0  0  0  0  0
  -25.8063  -30.8894   27.0268 H   0  0  0  0  0  0
  -26.2879  -29.6799   24.1222 H   0  0  0  0  0  0
  -27.3974  -29.7270   25.4717 H   0  0  0  0  0  0
  -27.8752  -30.4318   23.9449 H   0  0  0  0  0  0
  -27.2661  -33.3631   26.2097 H   0  0  0  0  0  0
  -28.3810  -32.6933   25.0296 H   0  0  0  0  0  0
  -28.0755  -31.8466   26.5382 H   0  0  0  0  0  0
  -28.2626  -38.0112   24.7473 H   0  0  0  0  0  0
  -28.1069  -36.2655   24.6325 H   0  0  0  0  0  0
  -27.2312  -37.1527   25.8857 H   0  0  0  0  0  0
  -20.9346  -29.8810   21.6966 H   0  0  0  0  0  0
  -26.0212  -38.2874   24.1323 H   0  0  0  0  0  0
  -25.3769  -21.4127   20.8964 H   0  0  0  0  0  0
  -23.8116  -19.8975   21.8377 H   0  0  0  0  0  0
  -25.1214  -17.3380   24.6983 H   0  0  0  0  0  0
  -25.3666  -15.5292   24.4768 H   0  0  0  0  0  0
  -27.8506  -15.8809   24.7414 H   0  0  0  0  0  0
  -27.5739  -17.6935   24.8883 H   0  0  0  0  0  0
  -29.3471  -17.2371   23.2247 H   0  0  0  0  0  0
  -30.7823  -17.5502   22.1586 H   0  0  0  0  0  0
  -29.3535  -18.6149   20.3989 H   0  0  0  0  0  0
  -26.5778  -15.8526   22.4723 H   0  0  0  0  0  0
  -28.2361  -15.8854   21.3460 H   0  0  0  0  0  0
  -29.5399  -23.5993   20.6245 H   0  0  0  0  0  0
  -28.5577  -23.7727   19.1920 H   0  0  0  0  0  0
  -28.3026  -25.2107   21.8598 H   0  0  0  0  0  0
  -26.8794  -25.0148   20.9300 H   0  0  0  0  0  0
  -26.7631  -22.6037   20.0487 H   0  0  0  0  0  0
  -27.2796  -22.6694   21.7133 H   0  0  0  0  0  0
  -30.6668  -16.4447   19.8079 H   0  0  0  0  0  0
  1 25  1  0  0  0
  1 30  2  0  0  0
  1 86  1  0  0  0
  2  3  1  0  0  0
  2 25  1  0  0  0
  2 88  1  0  0  0
  2 89  1  0  0  0
  3  4  1  0  0  0
  3 90  1  0  0  0
  3 91  1  0  0  0
  4  5  1  0  0  0
  4 92  1  0  0  0
  4 93  1  0  0  0
  5  6  1  0  0  0
  5 26  1  0  0  0
  5 94  1  0  0  0
  6 25  1  0  0  0
  6 95  1  0  0  0
  6 96  1  0  0  0
  7  8  2  0  0  0
  7 26  1  0  0  0
  7 29  1  0  0  0
  8  9  1  0  0  0
  8 22  1  0  0  0
  9 10  1  0  0  0
  9 27  2  0  0  0
 10 11  2  0  0  0
 10 15  1  0  0  0
 11 12  1  0  0  0
 11 97  1  0  0  0
 12 13  2  0  0  0
 12 98  1  0  0  0
 13 14  1  0  0  0
 13 31  1  0  0  0
 14 15  2  0  0  0
 14 99  1  0  0  0
 15100  1  0  0  0
 16 17  2  0  0  0
 16 21  1  0  0  0
 16 31  1  0  0  0
 17 18  1  0  0  0
 17101  1  0  0  0
 18 19  2  0  0  0
 18102  1  0  0  0
 19 20  1  0  0  0
 19 24  1  0  0  0
 20 21  2  0  0  0
 20103  1  0  0  0
 21 23  1  0  0  0
 22 28  1  0  0  0
 22 32  2  0  0  0
 26 27  1  0  0  0
 28104  1  0  0  0
 28105  1  0  0  0
 29106  1  0  0  0
 29107  1  0  0  0
 33 34  1  0  0  0
 33 66  1  0  0  0
 33 70  2  0  0  0
 34 36  1  0  0  0
 34 59  1  0  0  0
 34108  1  0  0  0
 35 44  2  0  0  0
 35 45  1  0  0  0
 35 68  1  0  0  0
 36 56  1  0  0  0
 36109  1  0  0  0
 37 39  1  0  0  0
 37 47  1  0  0  0
 37 66  1  0  0  0
 37110  1  0  0  0
 38 43  2  0  0  0
 38 46  1  0  0  0
 38 47  1  0  0  0
 39 64  1  0  0  0
 39 67  2  0  0  0
 40 52  1  0  0  0
 40 53  2  0  0  0
 40 58  1  0  0  0
 41111  1  0  0  0
 41112  1  0  0  0
 41113  1  0  0  0
 41 48  1  0  0  0
 42 43  1  0  0  0
 42 66  1  0  0  0
 42114  1  0  0  0
 42115  1  0  0  0
 43 44  1  0  0  0
 44116  1  0  0  0
 45 46  2  0  0  0
 45117  1  0  0  0
 46118  1  0  0  0
 47119  1  0  0  0
 47120  1  0  0  0
 48 56  1  0  0  0
 48 65  1  0  0  0
 48121  1  0  0  0
 49 50  1  0  0  0
 49 53  1  0  0  0
 49 64  1  0  0  0
 49122  1  0  0  0
 50 51  1  0  0  0
 50123  1  0  0  0
 50124  1  0  0  0
 51 52  1  0  0  0
 51125  1  0  0  0
 51126  1  0  0  0
 52127  1  0  0  0
 52128  1  0  0  0
 53 54  1  0  0  0
 54 55  2  0  0  0
 54129  1  0  0  0
 55 57  1  0  0  0
 55130  1  0  0  0
 56 69  2  0  0  0
 57 58  2  0  0  0
 57131  1  0  0  0
 58132  1  0  0  0
 59 60  1  0  0  0
 59 61  1  0  0  0
 59 62  1  0  0  0
 60133  1  0  0  0
 60134  1  0  0  0
 60135  1  0  0  0
 61136  1  0  0  0
 61137  1  0  0  0
 61138  1  0  0  0
 62139  1  0  0  0
 62140  1  0  0  0
 62141  1  0  0  0
 63 65  1  0  0  0
 63142  1  0  0  0
 63143  1  0  0  0
 63144  1  0  0  0
 64145  1  0  0  0
 65146  1  0  0  0
 68 83  1  0  0  0
 71 72  2  0  0  0
 71 74  1  0  0  0
 71147  1  0  0  0
 72 85  1  0  0  0
 72148  1  0  0  0
 73 74  2  0  0  0
 73 75  1  0  0  0
 73 79  1  0  0  0
 74 87  1  0  0  0
 75 85  2  0  0  0
 75 80  1  0  0  0
 76 77  1  0  0  0
 76 80  1  0  0  0
 76149  1  0  0  0
 76150  1  0  0  0
 77 80  1  0  0  0
 77151  1  0  0  0
 77152  1  0  0  0
 78 79  1  0  0  0
 78 81  1  0  0  0
 78153  1  0  0  0
 78154  1  0  0  0
 79 81  1  0  0  0
 79155  1  0  0  0
 80156  1  0  0  0
 81 86  1  0  0  0
 81157  1  0  0  0
 82 83  1  0  0  0
 82 84  1  0  0  0
 82158  1  0  0  0
 82159  1  0  0  0
 83160  1  0  0  0
 83161  1  0  0  0
 84 87  1  0  0  0
 84162  1  0  0  0
 84163  1  0  0  0
 86164  1  0  0  0
M  ISO  4   1 100  68 101  83 101  86 100
M  END
> <chiral flag>
0

> <version>
0

> <s_m_source_file>
/data/baiqing/PycharmProjects/Reinvent-master-3.2/result/LINK_invent/BTK/process_docking_weight1_custom_sum_contain_oxygen_bond_distance_aromatic_linkinvent_7_9_3/rearranged_h_0146.sdf

> <i_m_source_file_index>
45

> <r_mmod_Potential_Energy-OPLS-2005>
105.745742797852

> <r_mmod_Stretch_Energy-OPLS-2005>
94.4296340942383

> <r_mmod_Bend_Energy-OPLS-2005>
183.495880126953

> <r_mmod_Torsional_Energy-OPLS-2005>
386.320373535156

> <r_mmod_Improper_Torsional_Energy-OPLS-2005>
21.3185214996338

> <r_mmod_Van_der_Waal_Energy-OPLS-2005>
161.194320678711

> <r_mmod_Electrostatic_Energy-OPLS-2005>
-582.023742675781

> <r_mmod_Solvation_Energy-OPLS-2005>
-213.660263061523

> <b_mmod_Minimization_Converged-OPLS-2005>
0

> <r_mmod_RMS_Derivative-OPLS-2005>
6.23435163497925

$$$$
45
                    3D
 Structure written by MMmdl.
160168  0  0  1  0            999 V2000
  -30.6531  -14.5561   20.4628 C   0  0  0  0  0  0
  -30.4243  -12.3287   19.4500 C   0  0  0  0  0  0
  -29.5014  -12.5005   18.2210 C   0  0  0  0  0  0
  -28.0198  -12.3672   18.6244 C   0  0  0  0  0  0
  -27.6572  -13.2165   19.8747 C   0  0  2  0  0  0
  -28.7039  -13.0456   21.0034 C   0  0  0  0  0  0
  -25.2551  -13.8180   20.5690 C   0  0  0  0  0  0
  -24.1818  -13.0446   20.9200 C   0  0  0  0  0  0
  -24.6399  -11.6921   20.8765 C   0  0  0  0  0  0
  -23.9084  -10.4303   21.0434 C   0  0  0  0  0  0
  -24.3622   -9.4207   21.9198 C   0  0  0  0  0  0
  -23.6293   -8.2248   22.0750 C   0  0  0  0  0  0
  -22.4283   -8.0291   21.3531 C   0  0  0  0  0  0
  -21.9930   -9.0287   20.4654 C   0  0  0  0  0  0
  -22.7266  -10.2156   20.3075 C   0  0  0  0  0  0
  -21.6859   -6.0756   22.5269 C   0  0  0  0  0  0
  -21.4048   -6.5648   23.8214 C   0  0  0  0  0  0
  -21.3657   -5.6786   24.9165 C   0  0  0  0  0  0
  -21.6049   -4.3049   24.7219 C   0  0  0  0  0  0
  -21.8814   -3.8151   23.4332 C   0  0  0  0  0  0
  -21.9192   -4.6980   22.3394 C   0  0  0  0  0  0
  -22.7830  -13.5253   21.1815 C   0  0  0  0  0  0
  -22.1650   -4.2160   21.0974 F   0  0  0  0  0  0
  -21.5599   -3.4524   25.7731 F   0  0  0  0  0  0
  -30.0309  -13.3441   20.4400 N   0  0  0  0  0  0
  -26.3007  -12.9373   20.3381 N   0  0  0  0  0  0
  -25.9336  -11.6533   20.5806 N   0  0  0  0  0  0
  -22.0440  -12.8307   22.0388 N   0  0  0  0  0  0
  -25.4239  -15.1890   20.4053 N   0  0  0  0  0  0
  -31.8146  -14.7075   20.0755 O   0  0  0  0  0  0
  -21.6639   -6.8889   21.4227 O   0  0  0  0  0  0
  -22.3536  -14.5540   20.6598 O   0  0  0  0  0  0
  -24.6147  -31.8654   23.2054 C   0  0  0  0  0  0
  -25.9002  -32.4823   23.8395 C   0  0  1  0  0  0
  -27.2407  -27.4137   20.1165 C   0  0  0  0  0  0
  -25.5837  -33.8618   24.2307 N   0  0  0  0  0  0
  -23.4063  -30.4868   21.5475 C   0  0  2  0  0  0
  -24.8587  -28.9455   20.1199 C   0  0  0  0  0  0
  -22.7441  -29.4632   22.4994 C   0  0  0  0  0  0
  -18.0272  -28.1401   22.8501 C   0  0  0  0  0  0
  -24.1478  -36.7345   23.2645 C   0  0  0  0  0  0
  -25.9363  -30.8287   21.3586 C   0  0  0  0  0  0
  -26.0173  -29.4584   20.7143 C   0  0  0  0  0  0
  -27.2160  -28.7025   20.7023 C   0  0  0  0  0  0
  -26.0660  -26.9149   19.5207 C   0  0  0  0  0  0
  -24.8790  -27.6772   19.5129 C   0  0  0  0  0  0
  -23.6196  -29.8131   20.1647 C   0  0  0  0  0  0
  -25.4091  -36.3116   24.0339 C   0  0  1  0  0  0
  -20.5868  -28.3684   23.1338 C   0  0  2  0  0  0
  -20.6745  -26.9421   22.5436 C   0  0  0  0  0  0
  -19.5706  -26.6404   21.5240 C   0  0  0  0  0  0
  -18.1901  -26.7950   22.1647 C   0  0  0  0  0  0
  -19.1525  -28.8858   23.2915 C   0  0  0  0  0  0
  -18.9447  -30.1466   23.8922 C   0  0  0  0  0  0
  -17.6450  -30.6605   24.0597 C   0  0  0  0  0  0
  -25.9019  -34.9474   23.5131 C   0  0  0  0  0  0
  -16.5342  -29.9110   23.6331 C   0  0  0  0  0  0
  -16.7265  -28.6526   23.0352 C   0  0  0  0  0  0
  -26.4433  -31.6601   25.0719 C   0  0  0  0  0  0
  -25.3687  -31.3717   26.1465 C   0  0  0  0  0  0
  -27.0257  -30.3038   24.6079 C   0  0  0  0  0  0
  -27.6018  -32.4335   25.7460 C   0  0  0  0  0  0
  -27.5583  -37.1831   24.8459 C   0  0  0  0  0  0
  -21.4155  -29.3034   22.3738 N   0  0  0  0  0  0
  -26.4277  -37.3795   23.9428 N   0  0  0  0  0  0
  -24.6711  -31.0757   22.0964 N   0  0  0  0  0  0
  -23.4207  -28.8166   23.3033 O   0  0  0  0  0  0
  -28.3999  -26.6601   20.0857 O   0  0  0  0  0  0
  -26.5627  -34.8912   22.4730 O   0  0  0  0  0  0
  -23.5326  -32.1404   23.7432 O   0  0  0  0  0  0
  -31.0235  -19.4487   22.6240 C   0  0  0  0  0  0
  -30.4118  -20.6096   22.1222 C   0  0  0  0  0  0
  -30.8915  -18.2231   21.9297 C   0  0  0  0  0  0
  -30.0816  -18.2037   20.7679 C   0  0  0  0  0  0
  -29.6935  -20.5412   20.9155 C   0  0  0  0  0  0
  -28.6528  -16.9805   19.0053 C   0  0  0  0  0  0
  -32.8224  -17.2165   22.9230 C   0  0  0  0  0  0
  -28.6720  -24.1340   20.0615 C   0  0  0  0  0  0
  -28.4043  -25.4442   20.8680 C   0  0  0  0  0  0
  -29.1520  -22.9309   20.9376 C   0  0  0  0  0  0
  -29.9050  -16.9143   19.9119 C   0  0  2  0  0  0
  -29.5390  -19.3561   20.2664 N   0  0  0  0  0  0
  -29.8275  -15.6152   20.6354 N   0  0  0  0  0  0
  -31.5366  -17.0742   22.3321 O   0  0  0  0  0  0
  -29.1264  -21.6446   20.2757 O   0  0  0  0  0  0
  -31.4721  -12.4149   19.1543 H   0  0  0  0  0  0
  -30.3140  -11.3327   19.8800 H   0  0  0  0  0  0
  -29.7501  -11.7611   17.4572 H   0  0  0  0  0  0
  -29.6653  -13.4782   17.7624 H   0  0  0  0  0  0
  -27.8219  -11.3135   18.8201 H   0  0  0  0  0  0
  -27.3781  -12.6423   17.7863 H   0  0  0  0  0  0
  -27.6793  -14.2556   19.5554 H   0  0  0  0  0  0
  -28.6879  -12.0262   21.3892 H   0  0  0  0  0  0
  -28.4729  -13.6916   21.8528 H   0  0  0  0  0  0
  -25.2764   -9.5671   22.4779 H   0  0  0  0  0  0
  -23.9985   -7.4655   22.7488 H   0  0  0  0  0  0
  -21.0851   -8.8848   19.8988 H   0  0  0  0  0  0
  -22.3742  -10.9704   19.6183 H   0  0  0  0  0  0
  -21.2079   -7.6155   23.9717 H   0  0  0  0  0  0
  -21.1463   -6.0514   25.9057 H   0  0  0  0  0  0
  -22.0598   -2.7616   23.2822 H   0  0  0  0  0  0
  -22.4050  -12.0030   22.4889 H   0  0  0  0  0  0
  -21.1039  -13.1347   22.2509 H   0  0  0  0  0  0
  -24.6520  -15.8409   20.5007 H   0  0  0  0  0  0
  -26.2630  -15.6223   20.0458 H   0  0  0  0  0  0
  -26.7094  -32.5550   23.1191 H   0  0  0  0  0  0
  -24.9880  -33.9764   25.0374 H   0  0  0  0  0  0
  -22.6914  -31.2994   21.4033 H   0  0  0  0  0  0
  -23.3696  -35.9726   23.3312 H   0  0  0  0  0  0
  -24.3562  -36.8959   22.2057 H   0  0  0  0  0  0
  -23.7259  -37.6562   23.6670 H   0  0  0  0  0  0
  -26.0388  -31.5873   20.5808 H   0  0  0  0  0  0
  -26.8264  -30.8966   21.9695 H   0  0  0  0  0  0
  -28.1162  -29.0976   21.1522 H   0  0  0  0  0  0
  -26.0717  -25.9411   19.0545 H   0  0  0  0  0  0
  -23.9912  -27.2769   19.0432 H   0  0  0  0  0  0
  -23.7312  -30.5852   19.4018 H   0  0  0  0  0  0
  -22.7434  -29.2342   19.8735 H   0  0  0  0  0  0
  -25.1260  -36.1994   25.0829 H   0  0  0  0  0  0
  -20.9982  -28.3270   24.1445 H   0  0  0  0  0  0
  -20.5656  -26.2286   23.3623 H   0  0  0  0  0  0
  -21.6614  -26.7454   22.1221 H   0  0  0  0  0  0
  -19.6855  -25.6318   21.1259 H   0  0  0  0  0  0
  -19.6650  -27.3221   20.6780 H   0  0  0  0  0  0
  -17.4171  -26.6725   21.4064 H   0  0  0  0  0  0
  -18.0281  -26.0090   22.9038 H   0  0  0  0  0  0
  -19.7915  -30.7306   24.2294 H   0  0  0  0  0  0
  -17.4987  -31.6283   24.5224 H   0  0  0  0  0  0
  -15.5328  -30.3043   23.7621 H   0  0  0  0  0  0
  -15.8654  -28.0878   22.7048 H   0  0  0  0  0  0
  -24.5832  -30.7090   25.7816 H   0  0  0  0  0  0
  -24.8868  -32.2862   26.4950 H   0  0  0  0  0  0
  -25.8007  -30.8864   27.0219 H   0  0  0  0  0  0
  -26.2802  -29.6813   24.1106 H   0  0  0  0  0  0
  -27.4000  -29.7264   25.4544 H   0  0  0  0  0  0
  -27.8652  -30.4347   23.9235 H   0  0  0  0  0  0
  -27.2651  -33.3630   26.2071 H   0  0  0  0  0  0
  -28.3802  -32.6921   25.0269 H   0  0  0  0  0  0
  -28.0719  -31.8432   26.5333 H   0  0  0  0  0  0
  -28.2617  -38.0115   24.7494 H   0  0  0  0  0  0
  -28.1060  -36.2648   24.6295 H   0  0  0  0  0  0
  -27.2311  -37.1509   25.8862 H   0  0  0  0  0  0
  -20.9303  -29.8764   21.6978 H   0  0  0  0  0  0
  -26.0165  -38.2885   24.1385 H   0  0  0  0  0  0
  -31.6029  -19.5136   23.5331 H   0  0  0  0  0  0
  -30.5370  -21.5343   22.6660 H   0  0  0  0  0  0
  -28.6824  -17.8413   18.3346 H   0  0  0  0  0  0
  -27.7413  -17.0494   19.5970 H   0  0  0  0  0  0
  -28.5716  -16.1004   18.3681 H   0  0  0  0  0  0
  -33.4171  -16.3383   22.6768 H   0  0  0  0  0  0
  -32.7496  -17.2758   24.0085 H   0  0  0  0  0  0
  -33.3762  -18.0809   22.5506 H   0  0  0  0  0  0
  -29.4306  -24.3286   19.3029 H   0  0  0  0  0  0
  -27.7690  -23.8645   19.5157 H   0  0  0  0  0  0
  -29.1918  -25.5609   21.6125 H   0  0  0  0  0  0
  -27.4853  -25.3379   21.4468 H   0  0  0  0  0  0
  -28.5338  -22.8620   21.8326 H   0  0  0  0  0  0
  -30.1676  -23.1602   21.2609 H   0  0  0  0  0  0
  -30.7755  -16.8952   19.2540 H   0  0  0  0  0  0
  -28.9357  -15.4077   21.0523 H   0  0  0  0  0  0
  1 25  1  0  0  0
  1 30  2  0  0  0
  1 83  1  0  0  0
  2  3  1  0  0  0
  2 25  1  0  0  0
  2 86  1  0  0  0
  2 87  1  0  0  0
  3  4  1  0  0  0
  3 88  1  0  0  0
  3 89  1  0  0  0
  4  5  1  0  0  0
  4 90  1  0  0  0
  4 91  1  0  0  0
  5  6  1  0  0  0
  5 26  1  0  0  0
  5 92  1  0  0  0
  6 25  1  0  0  0
  6 93  1  0  0  0
  6 94  1  0  0  0
  7  8  2  0  0  0
  7 26  1  0  0  0
  7 29  1  0  0  0
  8  9  1  0  0  0
  8 22  1  0  0  0
  9 10  1  0  0  0
  9 27  2  0  0  0
 10 11  2  0  0  0
 10 15  1  0  0  0
 11 12  1  0  0  0
 11 95  1  0  0  0
 12 13  2  0  0  0
 12 96  1  0  0  0
 13 14  1  0  0  0
 13 31  1  0  0  0
 14 15  2  0  0  0
 14 97  1  0  0  0
 15 98  1  0  0  0
 16 17  2  0  0  0
 16 21  1  0  0  0
 16 31  1  0  0  0
 17 18  1  0  0  0
 17 99  1  0  0  0
 18 19  2  0  0  0
 18100  1  0  0  0
 19 20  1  0  0  0
 19 24  1  0  0  0
 20 21  2  0  0  0
 20101  1  0  0  0
 21 23  1  0  0  0
 22 28  1  0  0  0
 22 32  2  0  0  0
 26 27  1  0  0  0
 28102  1  0  0  0
 28103  1  0  0  0
 29104  1  0  0  0
 29105  1  0  0  0
 33 34  1  0  0  0
 33 66  1  0  0  0
 33 70  2  0  0  0
 34 36  1  0  0  0
 34 59  1  0  0  0
 34106  1  0  0  0
 35 44  2  0  0  0
 35 45  1  0  0  0
 35 68  1  0  0  0
 36 56  1  0  0  0
 36107  1  0  0  0
 37 39  1  0  0  0
 37 47  1  0  0  0
 37 66  1  0  0  0
 37108  1  0  0  0
 38 43  2  0  0  0
 38 46  1  0  0  0
 38 47  1  0  0  0
 39 64  1  0  0  0
 39 67  2  0  0  0
 40 52  1  0  0  0
 40 53  2  0  0  0
 40 58  1  0  0  0
 41109  1  0  0  0
 41110  1  0  0  0
 41111  1  0  0  0
 41 48  1  0  0  0
 42 43  1  0  0  0
 42 66  1  0  0  0
 42112  1  0  0  0
 42113  1  0  0  0
 43 44  1  0  0  0
 44114  1  0  0  0
 45 46  2  0  0  0
 45115  1  0  0  0
 46116  1  0  0  0
 47117  1  0  0  0
 47118  1  0  0  0
 48 56  1  0  0  0
 48 65  1  0  0  0
 48119  1  0  0  0
 49 50  1  0  0  0
 49 53  1  0  0  0
 49 64  1  0  0  0
 49120  1  0  0  0
 50 51  1  0  0  0
 50121  1  0  0  0
 50122  1  0  0  0
 51 52  1  0  0  0
 51123  1  0  0  0
 51124  1  0  0  0
 52125  1  0  0  0
 52126  1  0  0  0
 53 54  1  0  0  0
 54 55  2  0  0  0
 54127  1  0  0  0
 55 57  1  0  0  0
 55128  1  0  0  0
 56 69  2  0  0  0
 57 58  2  0  0  0
 57129  1  0  0  0
 58130  1  0  0  0
 59 60  1  0  0  0
 59 61  1  0  0  0
 59 62  1  0  0  0
 60131  1  0  0  0
 60132  1  0  0  0
 60133  1  0  0  0
 61134  1  0  0  0
 61135  1  0  0  0
 61136  1  0  0  0
 62137  1  0  0  0
 62138  1  0  0  0
 62139  1  0  0  0
 63 65  1  0  0  0
 63140  1  0  0  0
 63141  1  0  0  0
 63142  1  0  0  0
 64143  1  0  0  0
 65144  1  0  0  0
 68 79  1  0  0  0
 71 72  2  0  0  0
 71 73  1  0  0  0
 71145  1  0  0  0
 72 75  1  0  0  0
 72146  1  0  0  0
 73 74  2  0  0  0
 73 84  1  0  0  0
 74 81  1  0  0  0
 74 82  1  0  0  0
 75 82  2  0  0  0
 75 85  1  0  0  0
 76147  1  0  0  0
 76148  1  0  0  0
 76149  1  0  0  0
 76 81  1  0  0  0
 77 84  1  0  0  0
 77150  1  0  0  0
 77151  1  0  0  0
 77152  1  0  0  0
 78 79  1  0  0  0
 78 80  1  0  0  0
 78153  1  0  0  0
 78154  1  0  0  0
 79155  1  0  0  0
 79156  1  0  0  0
 80 85  1  0  0  0
 80157  1  0  0  0
 80158  1  0  0  0
 81 83  1  0  0  0
 81159  1  0  0  0
 83160  1  0  0  0
M  ISO  4   1 100  68 101  79 101  83 100
M  END
> <chiral flag>
0

> <version>
0

> <s_m_source_file>
/data/baiqing/PycharmProjects/Reinvent-master-3.2/result/LINK_invent/BTK/process_docking_weight1_custom_sum_contain_oxygen_bond_distance_aromatic_linkinvent_7_9_3/rearranged_h_0146.sdf

> <i_m_source_file_index>
46

> <r_mmod_Potential_Energy-OPLS-2005>
-222.050064086914

> <r_mmod_Stretch_Energy-OPLS-2005>
49.7078437805176

> <r_mmod_Bend_Energy-OPLS-2005>
112.622215270996

> <r_mmod_Torsional_Energy-OPLS-2005>
252.077407836914

> <r_mmod_Improper_Torsional_Energy-OPLS-2005>
9.73817729949951

> <r_mmod_Van_der_Waal_Energy-OPLS-2005>
154.501708984375

> <r_mmod_Electrostatic_Energy-OPLS-2005>
-599.583557128906

> <r_mmod_Solvation_Energy-OPLS-2005>
-223.638931274414

> <b_mmod_Minimization_Converged-OPLS-2005>
0

> <r_mmod_RMS_Derivative-OPLS-2005>
4.08136653900146

$$$$
46
                    3D
 Structure written by MMmdl.
172181  0  0  1  0            999 V2000
  -30.7015  -14.4286   20.5930 C   0  0  0  0  0  0
  -30.4272  -12.2901   19.4019 C   0  0  0  0  0  0
  -29.4878  -12.5078   18.1972 C   0  0  0  0  0  0
  -28.0069  -12.3842   18.6087 C   0  0  0  0  0  0
  -27.6658  -13.2012   19.8832 C   0  0  2  0  0  0
  -28.7092  -12.9374   20.9923 C   0  0  0  0  0  0
  -25.2599  -13.8160   20.5699 C   0  0  0  0  0  0
  -24.1844  -13.0437   20.9172 C   0  0  0  0  0  0
  -24.6394  -11.6900   20.8731 C   0  0  0  0  0  0
  -23.9052  -10.4289   21.0395 C   0  0  0  0  0  0
  -24.3613   -9.4206   21.9171 C   0  0  0  0  0  0
  -23.6292   -8.2241   22.0760 C   0  0  0  0  0  0
  -22.4281   -8.0279   21.3548 C   0  0  0  0  0  0
  -21.9907   -9.0243   20.4641 C   0  0  0  0  0  0
  -22.7229  -10.2127   20.3041 C   0  0  0  0  0  0
  -21.6852   -6.0735   22.5279 C   0  0  0  0  0  0
  -21.4003   -6.5636   23.8211 C   0  0  0  0  0  0
  -21.3664   -5.6803   24.9177 C   0  0  0  0  0  0
  -21.6047   -4.3064   24.7230 C   0  0  0  0  0  0
  -21.8817   -3.8147   23.4349 C   0  0  0  0  0  0
  -21.9192   -4.6959   22.3407 C   0  0  0  0  0  0
  -22.7855  -13.5217   21.1823 C   0  0  0  0  0  0
  -22.1663   -4.2138   21.0986 F   0  0  0  0  0  0
  -21.5627   -3.4555   25.7744 F   0  0  0  0  0  0
  -30.0435  -13.2492   20.4463 N   0  0  0  0  0  0
  -26.3046  -12.9322   20.3414 N   0  0  0  0  0  0
  -25.9325  -11.6484   20.5780 N   0  0  0  0  0  0
  -22.0516  -12.8208   22.0386 N   0  0  0  0  0  0
  -25.4341  -15.1876   20.4101 N   0  0  0  0  0  0
  -31.8058  -14.6640   20.0952 O   0  0  0  0  0  0
  -21.6642   -6.8878   21.4249 O   0  0  0  0  0  0
  -22.3519  -14.5524   20.6674 O   0  0  0  0  0  0
  -24.6155  -31.8691   23.2083 C   0  0  0  0  0  0
  -25.9053  -32.4826   23.8386 C   0  0  1  0  0  0
  -27.2426  -27.4525   20.0612 C   0  0  0  0  0  0
  -25.5908  -33.8619   24.2330 N   0  0  0  0  0  0
  -23.4030  -30.4934   21.5492 C   0  0  2  0  0  0
  -24.8484  -28.9630   20.1116 C   0  0  0  0  0  0
  -22.7421  -29.4675   22.4982 C   0  0  0  0  0  0
  -18.0275  -28.1377   22.8492 C   0  0  0  0  0  0
  -24.1502  -36.7310   23.2631 C   0  0  0  0  0  0
  -25.9326  -30.8357   21.3625 C   0  0  0  0  0  0
  -26.0095  -29.4735   20.7040 C   0  0  0  0  0  0
  -27.2063  -28.7216   20.6833 C   0  0  0  0  0  0
  -26.0514  -26.9399   19.5035 C   0  0  0  0  0  0
  -24.8613  -27.6908   19.5152 C   0  0  0  0  0  0
  -23.6105  -29.8283   20.1634 C   0  0  0  0  0  0
  -25.4116  -36.3110   24.0342 C   0  0  1  0  0  0
  -20.5868  -28.3671   23.1313 C   0  0  2  0  0  0
  -20.6777  -26.9412   22.5415 C   0  0  0  0  0  0
  -19.5754  -26.6384   21.5213 C   0  0  0  0  0  0
  -18.1924  -26.7925   22.1616 C   0  0  0  0  0  0
  -19.1527  -28.8840   23.2896 C   0  0  0  0  0  0
  -18.9456  -30.1451   23.8907 C   0  0  0  0  0  0
  -17.6457  -30.6590   24.0562 C   0  0  0  0  0  0
  -25.9055  -34.9476   23.5132 C   0  0  0  0  0  0
  -16.5347  -29.9091   23.6326 C   0  0  0  0  0  0
  -16.7268  -28.6507   23.0349 C   0  0  0  0  0  0
  -26.4474  -31.6586   25.0711 C   0  0  0  0  0  0
  -25.3736  -31.3676   26.1453 C   0  0  0  0  0  0
  -27.0305  -30.3029   24.6069 C   0  0  0  0  0  0
  -27.6051  -32.4296   25.7490 C   0  0  0  0  0  0
  -27.5610  -37.1787   24.8444 C   0  0  0  0  0  0
  -21.4152  -29.3036   22.3717 N   0  0  0  0  0  0
  -26.4285  -37.3809   23.9447 N   0  0  0  0  0  0
  -24.6682  -31.0809   22.0973 N   0  0  0  0  0  0
  -23.4201  -28.8232   23.3037 O   0  0  0  0  0  0
  -28.4057  -26.7127   20.0965 O   0  0  0  0  0  0
  -26.5626  -34.8928   22.4699 O   0  0  0  0  0  0
  -23.5345  -32.1444   23.7466 O   0  0  0  0  0  0
  -28.4276  -20.7434   20.1873 C   0  0  0  0  0  0
  -28.4147  -19.3934   19.9996 C   0  0  0  0  0  0
  -29.7901  -21.1264   20.2996 C   0  0  0  0  0  0
  -30.5879  -20.0085   20.2237 C   0  0  0  0  0  0
  -30.7028  -24.8010   20.1168 C   0  0  0  0  0  0
  -28.5689  -23.7726   19.2331 C   0  0  0  0  0  0
  -30.4948  -26.0140   19.1795 C   0  0  0  0  0  0
  -28.4321  -24.9668   18.2732 C   0  0  0  0  0  0
  -30.0471  -23.4991   19.5951 C   0  0  2  0  0  0
  -29.0055  -26.2689   18.8710 C   0  0  1  0  0  0
  -32.5678  -20.0661   21.7835 C   0  0  0  0  0  0
  -32.8711  -20.6899   19.3491 C   0  0  0  0  0  0
  -30.0573  -17.5096   19.8824 C   0  0  0  0  0  0
  -30.3053  -16.8157   21.2410 C   0  0  0  0  0  0
  -32.0830  -19.8295   20.3479 C   0  0  0  0  0  0
  -29.7215  -18.9256   20.0271 N   0  0  0  0  0  0
  -30.2370  -22.4267   20.5788 N   0  0  0  0  0  0
  -29.9905  -15.3869   21.1999 N   0  0  0  0  0  0
  -31.4673  -12.4062   19.0907 H   0  0  0  0  0  0
  -30.3412  -11.2703   19.7806 H   0  0  0  0  0  0
  -29.7134  -11.7895   17.4081 H   0  0  0  0  0  0
  -29.6635  -13.4968   17.7705 H   0  0  0  0  0  0
  -27.7907  -11.3279   18.7724 H   0  0  0  0  0  0
  -27.3639  -12.6968   17.7843 H   0  0  0  0  0  0
  -27.7215  -14.2556   19.6123 H   0  0  0  0  0  0
  -28.6794  -11.8890   21.2941 H   0  0  0  0  0  0
  -28.4730  -13.4994   21.8958 H   0  0  0  0  0  0
  -25.2762   -9.5686   22.4727 H   0  0  0  0  0  0
  -24.0003   -7.4640   22.7490 H   0  0  0  0  0  0
  -21.0840   -8.8762   19.8938 H   0  0  0  0  0  0
  -22.3695  -10.9663   19.6144 H   0  0  0  0  0  0
  -21.2003   -7.6149   23.9697 H   0  0  0  0  0  0
  -21.1482   -6.0544   25.9077 H   0  0  0  0  0  0
  -22.0594   -2.7604   23.2864 H   0  0  0  0  0  0
  -22.4168  -11.9875   22.4755 H   0  0  0  0  0  0
  -21.1121  -13.1194   22.2602 H   0  0  0  0  0  0
  -24.6715  -15.8485   20.5153 H   0  0  0  0  0  0
  -26.2908  -15.6208   20.0905 H   0  0  0  0  0  0
  -26.7128  -32.5554   23.1162 H   0  0  0  0  0  0
  -25.0049  -33.9791   25.0463 H   0  0  0  0  0  0
  -22.6891  -31.3079   21.4119 H   0  0  0  0  0  0
  -23.3798  -35.9605   23.3201 H   0  0  0  0  0  0
  -24.3629  -36.9020   22.2065 H   0  0  0  0  0  0
  -23.7195  -37.6456   23.6712 H   0  0  0  0  0  0
  -26.0484  -31.6036   20.5965 H   0  0  0  0  0  0
  -26.8187  -30.8838   21.9830 H   0  0  0  0  0  0
  -28.1035  -29.1119   21.1427 H   0  0  0  0  0  0
  -26.0054  -25.9465   19.0957 H   0  0  0  0  0  0
  -23.9612  -27.2777   19.0812 H   0  0  0  0  0  0
  -23.7186  -30.6047   19.4047 H   0  0  0  0  0  0
  -22.7339  -29.2479   19.8702 H   0  0  0  0  0  0
  -25.1266  -36.1958   25.0830 H   0  0  0  0  0  0
  -20.9953  -28.3248   24.1438 H   0  0  0  0  0  0
  -20.5698  -26.2284   23.3596 H   0  0  0  0  0  0
  -21.6651  -26.7470   22.1209 H   0  0  0  0  0  0
  -19.6927  -25.6302   21.1228 H   0  0  0  0  0  0
  -19.6690  -27.3207   20.6751 H   0  0  0  0  0  0
  -17.4205  -26.6687   21.4008 H   0  0  0  0  0  0
  -18.0315  -26.0063   22.9003 H   0  0  0  0  0  0
  -19.7931  -30.7256   24.2289 H   0  0  0  0  0  0
  -17.5016  -31.6279   24.5149 H   0  0  0  0  0  0
  -15.5350  -30.2997   23.7641 H   0  0  0  0  0  0
  -15.8667  -28.0825   22.7052 H   0  0  0  0  0  0
  -24.5904  -30.7036   25.7777 H   0  0  0  0  0  0
  -24.8934  -32.2820   26.4940 H   0  0  0  0  0  0
  -25.8084  -30.8808   27.0191 H   0  0  0  0  0  0
  -26.2847  -29.6789   24.1127 H   0  0  0  0  0  0
  -27.4083  -29.7256   25.4517 H   0  0  0  0  0  0
  -27.8683  -30.4346   23.9218 H   0  0  0  0  0  0
  -27.2673  -33.3580   26.2114 H   0  0  0  0  0  0
  -28.3858  -32.6873   25.0321 H   0  0  0  0  0  0
  -28.0732  -31.8383   26.5372 H   0  0  0  0  0  0
  -28.2517  -38.0187   24.7658 H   0  0  0  0  0  0
  -28.1216  -36.2734   24.6063 H   0  0  0  0  0  0
  -27.2367  -37.1187   25.8844 H   0  0  0  0  0  0
  -20.9309  -29.8756   21.6936 H   0  0  0  0  0  0
  -26.0158  -38.2869   24.1529 H   0  0  0  0  0  0
  -27.5470  -21.3662   20.2538 H   0  0  0  0  0  0
  -27.5810  -18.7147   19.8724 H   0  0  0  0  0  0
  -30.2957  -25.0499   21.0980 H   0  0  0  0  0  0
  -31.7728  -24.6472   20.2632 H   0  0  0  0  0  0
  -28.1308  -22.9110   18.7321 H   0  0  0  0  0  0
  -27.9831  -23.9564   20.1351 H   0  0  0  0  0  0
  -31.0323  -25.8436   18.2455 H   0  0  0  0  0  0
  -30.9384  -26.9082   19.6216 H   0  0  0  0  0  0
  -27.4092  -25.0751   17.9302 H   0  0  0  0  0  0
  -28.9850  -24.7341   17.3606 H   0  0  0  0  0  0
  -30.5714  -23.2001   18.6845 H   0  0  0  0  0  0
  -28.9271  -27.0684   18.1322 H   0  0  0  0  0  0
  -32.0501  -19.4073   22.4808 H   0  0  0  0  0  0
  -32.3909  -21.0922   22.1064 H   0  0  0  0  0  0
  -33.6358  -19.8671   21.8750 H   0  0  0  0  0  0
  -32.5825  -20.4572   18.3237 H   0  0  0  0  0  0
  -33.9426  -20.5084   19.4357 H   0  0  0  0  0  0
  -32.7074  -21.7557   19.5063 H   0  0  0  0  0  0
  -29.2272  -17.0252   19.3662 H   0  0  0  0  0  0
  -30.9130  -17.3954   19.2170 H   0  0  0  0  0  0
  -29.6631  -17.2629   22.0003 H   0  0  0  0  0  0
  -31.3323  -16.9739   21.5734 H   0  0  0  0  0  0
  -32.3478  -18.8000   20.1158 H   0  0  0  0  0  0
  -31.1884  -22.4169   20.9312 H   0  0  0  0  0  0
  -29.0915  -15.1084   21.5636 H   0  0  0  0  0  0
  1 25  1  0  0  0
  1 30  2  0  0  0
  1 88  1  0  0  0
  2  3  1  0  0  0
  2 25  1  0  0  0
  2 89  1  0  0  0
  2 90  1  0  0  0
  3  4  1  0  0  0
  3 91  1  0  0  0
  3 92  1  0  0  0
  4  5  1  0  0  0
  4 93  1  0  0  0
  4 94  1  0  0  0
  5  6  1  0  0  0
  5 26  1  0  0  0
  5 95  1  0  0  0
  6 25  1  0  0  0
  6 96  1  0  0  0
  6 97  1  0  0  0
  7  8  2  0  0  0
  7 26  1  0  0  0
  7 29  1  0  0  0
  8  9  1  0  0  0
  8 22  1  0  0  0
  9 10  1  0  0  0
  9 27  2  0  0  0
 10 11  2  0  0  0
 10 15  1  0  0  0
 11 12  1  0  0  0
 11 98  1  0  0  0
 12 13  2  0  0  0
 12 99  1  0  0  0
 13 14  1  0  0  0
 13 31  1  0  0  0
 14 15  2  0  0  0
 14100  1  0  0  0
 15101  1  0  0  0
 16 17  2  0  0  0
 16 21  1  0  0  0
 16 31  1  0  0  0
 17 18  1  0  0  0
 17102  1  0  0  0
 18 19  2  0  0  0
 18103  1  0  0  0
 19 20  1  0  0  0
 19 24  1  0  0  0
 20 21  2  0  0  0
 20104  1  0  0  0
 21 23  1  0  0  0
 22 28  1  0  0  0
 22 32  2  0  0  0
 26 27  1  0  0  0
 28105  1  0  0  0
 28106  1  0  0  0
 29107  1  0  0  0
 29108  1  0  0  0
 33 34  1  0  0  0
 33 66  1  0  0  0
 33 70  2  0  0  0
 34 36  1  0  0  0
 34 59  1  0  0  0
 34109  1  0  0  0
 35 44  2  0  0  0
 35 45  1  0  0  0
 35 68  1  0  0  0
 36 56  1  0  0  0
 36110  1  0  0  0
 37 39  1  0  0  0
 37 47  1  0  0  0
 37 66  1  0  0  0
 37111  1  0  0  0
 38 43  2  0  0  0
 38 46  1  0  0  0
 38 47  1  0  0  0
 39 64  1  0  0  0
 39 67  2  0  0  0
 40 52  1  0  0  0
 40 53  2  0  0  0
 40 58  1  0  0  0
 41112  1  0  0  0
 41113  1  0  0  0
 41114  1  0  0  0
 41 48  1  0  0  0
 42 43  1  0  0  0
 42 66  1  0  0  0
 42115  1  0  0  0
 42116  1  0  0  0
 43 44  1  0  0  0
 44117  1  0  0  0
 45 46  2  0  0  0
 45118  1  0  0  0
 46119  1  0  0  0
 47120  1  0  0  0
 47121  1  0  0  0
 48 56  1  0  0  0
 48 65  1  0  0  0
 48122  1  0  0  0
 49 50  1  0  0  0
 49 53  1  0  0  0
 49 64  1  0  0  0
 49123  1  0  0  0
 50 51  1  0  0  0
 50124  1  0  0  0
 50125  1  0  0  0
 51 52  1  0  0  0
 51126  1  0  0  0
 51127  1  0  0  0
 52128  1  0  0  0
 52129  1  0  0  0
 53 54  1  0  0  0
 54 55  2  0  0  0
 54130  1  0  0  0
 55 57  1  0  0  0
 55131  1  0  0  0
 56 69  2  0  0  0
 57 58  2  0  0  0
 57132  1  0  0  0
 58133  1  0  0  0
 59 60  1  0  0  0
 59 61  1  0  0  0
 59 62  1  0  0  0
 60134  1  0  0  0
 60135  1  0  0  0
 60136  1  0  0  0
 61137  1  0  0  0
 61138  1  0  0  0
 61139  1  0  0  0
 62140  1  0  0  0
 62141  1  0  0  0
 62142  1  0  0  0
 63 65  1  0  0  0
 63143  1  0  0  0
 63144  1  0  0  0
 63145  1  0  0  0
 64146  1  0  0  0
 65147  1  0  0  0
 68 80  1  0  0  0
 71 72  2  0  0  0
 71 73  1  0  0  0
 71148  1  0  0  0
 72 86  1  0  0  0
 72149  1  0  0  0
 73 74  2  0  0  0
 73 87  1  0  0  0
 74 85  1  0  0  0
 74 86  1  0  0  0
 75 77  1  0  0  0
 75 79  1  0  0  0
 75150  1  0  0  0
 75151  1  0  0  0
 76 78  1  0  0  0
 76 79  1  0  0  0
 76152  1  0  0  0
 76153  1  0  0  0
 77 80  1  0  0  0
 77154  1  0  0  0
 77155  1  0  0  0
 78 80  1  0  0  0
 78156  1  0  0  0
 78157  1  0  0  0
 79 87  1  0  0  0
 79158  1  0  0  0
 80159  1  0  0  0
 81160  1  0  0  0
 81161  1  0  0  0
 81162  1  0  0  0
 81 85  1  0  0  0
 82 85  1  0  0  0
 82163  1  0  0  0
 82164  1  0  0  0
 82165  1  0  0  0
 83 84  1  0  0  0
 83 86  1  0  0  0
 83166  1  0  0  0
 83167  1  0  0  0
 84 88  1  0  0  0
 84168  1  0  0  0
 84169  1  0  0  0
 85170  1  0  0  0
 87171  1  0  0  0
 88172  1  0  0  0
M  ISO  4   1 100  68 101  80 101  88 100
M  END
> <chiral flag>
0

> <version>
0

> <s_m_source_file>
/data/baiqing/PycharmProjects/Reinvent-master-3.2/result/LINK_invent/BTK/process_docking_weight1_custom_sum_contain_oxygen_bond_distance_aromatic_linkinvent_7_9_3/rearranged_h_0146.sdf

> <i_m_source_file_index>
47

> <r_mmod_Potential_Energy-OPLS-2005>
-120.750091552734

> <r_mmod_Stretch_Energy-OPLS-2005>
35.6057472229004

> <r_mmod_Bend_Energy-OPLS-2005>
116.69945526123

> <r_mmod_Torsional_Energy-OPLS-2005>
268.427185058594

> <r_mmod_Improper_Torsional_Energy-OPLS-2005>
8.84946918487549

> <r_mmod_Van_der_Waal_Energy-OPLS-2005>
127.676933288574

> <r_mmod_Electrostatic_Energy-OPLS-2005>
-472.242248535156

> <r_mmod_Solvation_Energy-OPLS-2005>
-215.73161315918

> <b_mmod_Minimization_Converged-OPLS-2005>
0

> <r_mmod_RMS_Derivative-OPLS-2005>
1.96737456321716

$$$$
47
                    3D
 Structure written by MMmdl.
177187  0  0  1  0            999 V2000
  -30.6798  -14.4917   20.6143 C   0  0  0  0  0  0
  -30.4332  -12.3331   19.4204 C   0  0  0  0  0  0
  -29.4990  -12.5230   18.2063 C   0  0  0  0  0  0
  -28.0197  -12.3726   18.6164 C   0  0  0  0  0  0
  -27.6629  -13.2036   19.8775 C   0  0  2  0  0  0
  -28.7020  -12.9661   20.9938 C   0  0  0  0  0  0
  -25.2606  -13.8155   20.5684 C   0  0  0  0  0  0
  -24.1847  -13.0439   20.9168 C   0  0  0  0  0  0
  -24.6395  -11.6901   20.8726 C   0  0  0  0  0  0
  -23.9062  -10.4292   21.0403 C   0  0  0  0  0  0
  -24.3617   -9.4209   21.9180 C   0  0  0  0  0  0
  -23.6292   -8.2246   22.0755 C   0  0  0  0  0  0
  -22.4273   -8.0283   21.3548 C   0  0  0  0  0  0
  -21.9908   -9.0255   20.4647 C   0  0  0  0  0  0
  -22.7238  -10.2134   20.3050 C   0  0  0  0  0  0
  -21.6850   -6.0742   22.5284 C   0  0  0  0  0  0
  -21.4012   -6.5646   23.8220 C   0  0  0  0  0  0
  -21.3657   -5.6796   24.9180 C   0  0  0  0  0  0
  -21.6041   -4.3059   24.7229 C   0  0  0  0  0  0
  -21.8818   -3.8153   23.4350 C   0  0  0  0  0  0
  -21.9192   -4.6969   22.3407 C   0  0  0  0  0  0
  -22.7871  -13.5242   21.1831 C   0  0  0  0  0  0
  -22.1660   -4.2159   21.0983 F   0  0  0  0  0  0
  -21.5627   -3.4541   25.7742 F   0  0  0  0  0  0
  -30.0296  -13.3036   20.4515 N   0  0  0  0  0  0
  -26.3034  -12.9311   20.3366 N   0  0  0  0  0  0
  -25.9317  -11.6476   20.5743 N   0  0  0  0  0  0
  -22.0504  -12.8237   22.0383 N   0  0  0  0  0  0
  -25.4348  -15.1871   20.4121 N   0  0  0  0  0  0
  -31.7809  -14.7223   20.1037 O   0  0  0  0  0  0
  -21.6635   -6.8883   21.4246 O   0  0  0  0  0  0
  -22.3560  -14.5547   20.6677 O   0  0  0  0  0  0
  -24.6153  -31.8664   23.2086 C   0  0  0  0  0  0
  -25.9037  -32.4817   23.8379 C   0  0  1  0  0  0
  -27.2312  -27.4158   20.1066 C   0  0  0  0  0  0
  -25.5895  -33.8618   24.2315 N   0  0  0  0  0  0
  -23.4054  -30.4895   21.5498 C   0  0  2  0  0  0
  -24.8527  -28.9538   20.1149 C   0  0  0  0  0  0
  -22.7416  -29.4650   22.4982 C   0  0  0  0  0  0
  -18.0275  -28.1388   22.8487 C   0  0  0  0  0  0
  -24.1488  -36.7312   23.2639 C   0  0  0  0  0  0
  -25.9353  -30.8279   21.3633 C   0  0  0  0  0  0
  -26.0143  -29.4607   20.7114 C   0  0  0  0  0  0
  -27.2103  -28.7025   20.6993 C   0  0  0  0  0  0
  -26.0548  -26.9304   19.4958 C   0  0  0  0  0  0
  -24.8689  -27.6891   19.5020 C   0  0  0  0  0  0
  -23.6145  -29.8218   20.1642 C   0  0  0  0  0  0
  -25.4113  -36.3105   24.0334 C   0  0  1  0  0  0
  -20.5866  -28.3674   23.1311 C   0  0  2  0  0  0
  -20.6776  -26.9410   22.5421 C   0  0  0  0  0  0
  -19.5753  -26.6391   21.5220 C   0  0  0  0  0  0
  -18.1921  -26.7935   22.1620 C   0  0  0  0  0  0
  -19.1526  -28.8846   23.2896 C   0  0  0  0  0  0
  -18.9453  -30.1448   23.8904 C   0  0  0  0  0  0
  -17.6460  -30.6592   24.0561 C   0  0  0  0  0  0
  -25.9038  -34.9472   23.5124 C   0  0  0  0  0  0
  -16.5345  -29.9091   23.6334 C   0  0  0  0  0  0
  -16.7266  -28.6512   23.0345 C   0  0  0  0  0  0
  -26.4466  -31.6603   25.0708 C   0  0  0  0  0  0
  -25.3727  -31.3707   26.1454 C   0  0  0  0  0  0
  -27.0305  -30.3047   24.6091 C   0  0  0  0  0  0
  -27.6044  -32.4327   25.7467 C   0  0  0  0  0  0
  -27.5586  -37.1803   24.8466 C   0  0  0  0  0  0
  -21.4146  -29.3031   22.3710 N   0  0  0  0  0  0
  -26.4299  -37.3789   23.9406 N   0  0  0  0  0  0
  -24.6704  -31.0754   22.0995 N   0  0  0  0  0  0
  -23.4178  -28.8188   23.3035 O   0  0  0  0  0  0
  -28.3824  -26.6538   20.0966 O   0  0  0  0  0  0
  -26.5607  -34.8920   22.4689 O   0  0  0  0  0  0
  -23.5342  -32.1426   23.7475 O   0  0  0  0  0  0
  -29.7975  -20.3382   24.4039 C   0  0  0  0  0  0
  -29.9947  -19.5070   23.2759 C   0  0  0  0  0  0
  -30.3870  -18.1407   23.5255 C   0  0  0  0  0  0
  -30.6584  -17.7955   24.8938 C   0  0  0  0  0  0
  -30.4254  -18.7484   25.9069 C   0  0  0  0  0  0
  -28.4211  -20.8696   21.7443 C   0  0  0  0  0  0
  -30.9473  -21.3126   21.7563 C   0  0  0  0  0  0
  -29.8211  -15.6866   22.6164 C   0  0  0  0  0  0
  -30.0577  -16.9518   21.0087 C   0  0  0  0  0  0
  -28.3060  -22.0017   20.6863 C   0  0  0  0  0  0
  -30.6885  -22.3853   20.6720 C   0  0  0  0  0  0
  -29.8389  -20.2265   21.9078 C   0  0  1  0  0  0
  -30.5665  -17.0255   22.4554 C   0  0  0  0  0  0
  -30.2319  -15.4899   25.9468 C   0  0  0  0  0  0
  -31.2578  -16.4462   25.3132 C   0  0  0  0  0  0
  -29.1769  -24.2815   20.0442 C   0  0  0  0  0  0
  -28.2832  -25.3556   20.7270 C   0  0  0  0  0  0
  -29.9849  -19.9791   25.6791 N   0  0  0  0  0  0
  -29.9390  -15.4845   21.1733 N   0  0  0  0  0  0
  -30.6623  -18.4892   27.2475 N   0  0  0  0  0  0
  -29.3642  -23.0329   20.8616 N   0  3  1  0  0  0
  -31.4755  -12.4562   19.1209 H   0  0  0  0  0  0
  -30.3544  -11.3175   19.8114 H   0  0  0  0  0  0
  -29.7459  -11.8049   17.4234 H   0  0  0  0  0  0
  -29.6587  -13.5123   17.7734 H   0  0  0  0  0  0
  -27.8323  -11.3148   18.8052 H   0  0  0  0  0  0
  -27.3696  -12.6513   17.7863 H   0  0  0  0  0  0
  -27.7122  -14.2547   19.5923 H   0  0  0  0  0  0
  -28.6892  -11.9219   21.3087 H   0  0  0  0  0  0
  -28.4444  -13.5364   21.8854 H   0  0  0  0  0  0
  -25.2766   -9.5686   22.4749 H   0  0  0  0  0  0
  -24.0006   -7.4638   22.7475 H   0  0  0  0  0  0
  -21.0841   -8.8775   19.8951 H   0  0  0  0  0  0
  -22.3703  -10.9672   19.6155 H   0  0  0  0  0  0
  -21.2001   -7.6154   23.9727 H   0  0  0  0  0  0
  -21.1477   -6.0526   25.9085 H   0  0  0  0  0  0
  -22.0594   -2.7616   23.2849 H   0  0  0  0  0  0
  -22.4113  -11.9905   22.4787 H   0  0  0  0  0  0
  -21.1114  -13.1263   22.2562 H   0  0  0  0  0  0
  -24.6758  -15.8490   20.5315 H   0  0  0  0  0  0
  -26.3003  -15.6242   20.1200 H   0  0  0  0  0  0
  -26.7105  -32.5526   23.1136 H   0  0  0  0  0  0
  -25.0040  -33.9790   25.0455 H   0  0  0  0  0  0
  -22.6949  -31.3075   21.4093 H   0  0  0  0  0  0
  -23.3748  -35.9647   23.3313 H   0  0  0  0  0  0
  -24.3565  -36.8924   22.2050 H   0  0  0  0  0  0
  -23.7249  -37.6522   23.6652 H   0  0  0  0  0  0
  -26.0473  -31.5931   20.5938 H   0  0  0  0  0  0
  -26.8223  -30.8822   21.9823 H   0  0  0  0  0  0
  -28.1087  -29.0901   21.1593 H   0  0  0  0  0  0
  -26.0508  -25.9643   19.0104 H   0  0  0  0  0  0
  -23.9785  -27.2983   19.0292 H   0  0  0  0  0  0
  -23.7204  -30.5967   19.4037 H   0  0  0  0  0  0
  -22.7375  -29.2425   19.8703 H   0  0  0  0  0  0
  -25.1286  -36.1974   25.0827 H   0  0  0  0  0  0
  -20.9954  -28.3259   24.1436 H   0  0  0  0  0  0
  -20.5714  -26.2275   23.3607 H   0  0  0  0  0  0
  -21.6641  -26.7484   22.1187 H   0  0  0  0  0  0
  -19.6925  -25.6306   21.1239 H   0  0  0  0  0  0
  -19.6703  -27.3210   20.6753 H   0  0  0  0  0  0
  -17.4203  -26.6685   21.4009 H   0  0  0  0  0  0
  -18.0310  -26.0079   22.9017 H   0  0  0  0  0  0
  -19.7932  -30.7256   24.2281 H   0  0  0  0  0  0
  -17.5017  -31.6273   24.5160 H   0  0  0  0  0  0
  -15.5344  -30.2988   23.7672 H   0  0  0  0  0  0
  -15.8663  -28.0836   22.7054 H   0  0  0  0  0  0
  -24.5904  -30.7051   25.7780 H   0  0  0  0  0  0
  -24.8899  -32.2857   26.4904 H   0  0  0  0  0  0
  -25.8064  -30.8872   27.0217 H   0  0  0  0  0  0
  -26.2842  -29.6786   24.1189 H   0  0  0  0  0  0
  -27.4122  -29.7305   25.4545 H   0  0  0  0  0  0
  -27.8652  -30.4363   23.9200 H   0  0  0  0  0  0
  -27.2677  -33.3631   26.2062 H   0  0  0  0  0  0
  -28.3844  -32.6900   25.0282 H   0  0  0  0  0  0
  -28.0728  -31.8445   26.5373 H   0  0  0  0  0  0
  -28.2607  -38.0097   24.7514 H   0  0  0  0  0  0
  -28.1077  -36.2628   24.6296 H   0  0  0  0  0  0
  -27.2291  -37.1467   25.8865 H   0  0  0  0  0  0
  -20.9315  -29.8743   21.6916 H   0  0  0  0  0  0
  -26.0195  -38.2867   24.1407 H   0  0  0  0  0  0
  -29.5130  -21.3732   24.2900 H   0  0  0  0  0  0
  -27.6951  -20.0864   21.5212 H   0  0  0  0  0  0
  -28.0758  -21.3037   22.6804 H   0  0  0  0  0  0
  -31.0872  -21.8545   22.6917 H   0  0  0  0  0  0
  -31.9056  -20.8272   21.5669 H   0  0  0  0  0  0
  -28.7887  -15.8075   22.9490 H   0  0  0  0  0  0
  -30.3336  -14.9334   23.2142 H   0  0  0  0  0  0
  -30.7821  -17.2894   20.2657 H   0  0  0  0  0  0
  -29.0888  -17.4319   20.8608 H   0  0  0  0  0  0
  -27.3208  -22.4635   20.7647 H   0  0  0  0  0  0
  -28.3697  -21.5831   19.6802 H   0  0  0  0  0  0
  -30.7517  -21.9491   19.6740 H   0  0  0  0  0  0
  -31.4809  -23.1326   20.7305 H   0  0  0  0  0  0
  -29.9804  -19.5260   21.0893 H   0  0  0  0  0  0
  -31.6425  -16.8407   22.4145 H   0  0  0  0  0  0
  -30.6884  -14.5242   26.1667 H   0  0  0  0  0  0
  -29.3788  -15.3111   25.2960 H   0  0  0  0  0  0
  -29.8379  -15.8803   26.8846 H   0  0  0  0  0  0
  -32.0550  -16.6320   26.0346 H   0  0  0  0  0  0
  -31.7865  -15.9628   24.4957 H   0  0  0  0  0  0
  -30.1496  -24.7443   19.8762 H   0  0  0  0  0  0
  -28.7902  -24.0333   19.0551 H   0  0  0  0  0  0
  -28.6066  -25.4899   21.7596 H   0  0  0  0  0  0
  -27.2573  -24.9905   20.7851 H   0  0  0  0  0  0
  -30.7667  -17.5293   27.5493 H   0  0  0  0  0  0
  -30.2700  -19.1106   27.9438 H   0  0  0  0  0  0
  -29.3388  -23.3336   21.8254 H   0  0  0  0  0  0
  1 25  1  0  0  0
  1 30  2  0  0  0
  1 89  1  0  0  0
  2  3  1  0  0  0
  2 25  1  0  0  0
  2 92  1  0  0  0
  2 93  1  0  0  0
  3  4  1  0  0  0
  3 94  1  0  0  0
  3 95  1  0  0  0
  4  5  1  0  0  0
  4 96  1  0  0  0
  4 97  1  0  0  0
  5  6  1  0  0  0
  5 26  1  0  0  0
  5 98  1  0  0  0
  6 25  1  0  0  0
  6 99  1  0  0  0
  6100  1  0  0  0
  7  8  2  0  0  0
  7 26  1  0  0  0
  7 29  1  0  0  0
  8  9  1  0  0  0
  8 22  1  0  0  0
  9 10  1  0  0  0
  9 27  2  0  0  0
 10 11  2  0  0  0
 10 15  1  0  0  0
 11 12  1  0  0  0
 11101  1  0  0  0
 12 13  2  0  0  0
 12102  1  0  0  0
 13 14  1  0  0  0
 13 31  1  0  0  0
 14 15  2  0  0  0
 14103  1  0  0  0
 15104  1  0  0  0
 16 17  2  0  0  0
 16 21  1  0  0  0
 16 31  1  0  0  0
 17 18  1  0  0  0
 17105  1  0  0  0
 18 19  2  0  0  0
 18106  1  0  0  0
 19 20  1  0  0  0
 19 24  1  0  0  0
 20 21  2  0  0  0
 20107  1  0  0  0
 21 23  1  0  0  0
 22 28  1  0  0  0
 22 32  2  0  0  0
 26 27  1  0  0  0
 28108  1  0  0  0
 28109  1  0  0  0
 29110  1  0  0  0
 29111  1  0  0  0
 33 34  1  0  0  0
 33 66  1  0  0  0
 33 70  2  0  0  0
 34 36  1  0  0  0
 34 59  1  0  0  0
 34112  1  0  0  0
 35 44  2  0  0  0
 35 45  1  0  0  0
 35 68  1  0  0  0
 36 56  1  0  0  0
 36113  1  0  0  0
 37 39  1  0  0  0
 37 47  1  0  0  0
 37 66  1  0  0  0
 37114  1  0  0  0
 38 43  2  0  0  0
 38 46  1  0  0  0
 38 47  1  0  0  0
 39 64  1  0  0  0
 39 67  2  0  0  0
 40 52  1  0  0  0
 40 53  2  0  0  0
 40 58  1  0  0  0
 41115  1  0  0  0
 41116  1  0  0  0
 41117  1  0  0  0
 41 48  1  0  0  0
 42 43  1  0  0  0
 42 66  1  0  0  0
 42118  1  0  0  0
 42119  1  0  0  0
 43 44  1  0  0  0
 44120  1  0  0  0
 45 46  2  0  0  0
 45121  1  0  0  0
 46122  1  0  0  0
 47123  1  0  0  0
 47124  1  0  0  0
 48 56  1  0  0  0
 48 65  1  0  0  0
 48125  1  0  0  0
 49 50  1  0  0  0
 49 53  1  0  0  0
 49 64  1  0  0  0
 49126  1  0  0  0
 50 51  1  0  0  0
 50127  1  0  0  0
 50128  1  0  0  0
 51 52  1  0  0  0
 51129  1  0  0  0
 51130  1  0  0  0
 52131  1  0  0  0
 52132  1  0  0  0
 53 54  1  0  0  0
 54 55  2  0  0  0
 54133  1  0  0  0
 55 57  1  0  0  0
 55134  1  0  0  0
 56 69  2  0  0  0
 57 58  2  0  0  0
 57135  1  0  0  0
 58136  1  0  0  0
 59 60  1  0  0  0
 59 61  1  0  0  0
 59 62  1  0  0  0
 60137  1  0  0  0
 60138  1  0  0  0
 60139  1  0  0  0
 61140  1  0  0  0
 61141  1  0  0  0
 61142  1  0  0  0
 62143  1  0  0  0
 62144  1  0  0  0
 62145  1  0  0  0
 63 65  1  0  0  0
 63146  1  0  0  0
 63147  1  0  0  0
 63148  1  0  0  0
 64149  1  0  0  0
 65150  1  0  0  0
 68 87  1  0  0  0
 71 72  2  0  0  0
 71 88  1  0  0  0
 71151  1  0  0  0
 72 73  1  0  0  0
 72 82  1  0  0  0
 73 74  2  0  0  0
 73 83  1  0  0  0
 74 75  1  0  0  0
 74 85  1  0  0  0
 75 88  2  0  0  0
 75 90  1  0  0  0
 76 80  1  0  0  0
 76 82  1  0  0  0
 76152  1  0  0  0
 76153  1  0  0  0
 77 81  1  0  0  0
 77 82  1  0  0  0
 77154  1  0  0  0
 77155  1  0  0  0
 78 83  1  0  0  0
 78 89  1  0  0  0
 78156  1  0  0  0
 78157  1  0  0  0
 79 83  1  0  0  0
 79 89  1  0  0  0
 79158  1  0  0  0
 79159  1  0  0  0
 80 91  1  0  0  0
 80160  1  0  0  0
 80161  1  0  0  0
 81 91  1  0  0  0
 81162  1  0  0  0
 81163  1  0  0  0
 82164  1  0  0  0
 83165  1  0  0  0
 84 85  1  0  0  0
 84166  1  0  0  0
 84167  1  0  0  0
 84168  1  0  0  0
 85169  1  0  0  0
 85170  1  0  0  0
 86 87  1  0  0  0
 86171  1  0  0  0
 86172  1  0  0  0
 86 91  1  0  0  0
 87173  1  0  0  0
 87174  1  0  0  0
 90175  1  0  0  0
 90176  1  0  0  0
 91177  1  0  0  0
M  CHG  1  91   1
M  ISO  4   1 100  68 101  87 101  89 100
M  END
> <chiral flag>
0

> <version>
0

> <s_m_source_file>
/data/baiqing/PycharmProjects/Reinvent-master-3.2/result/LINK_invent/BTK/process_docking_weight1_custom_sum_contain_oxygen_bond_distance_aromatic_linkinvent_7_9_3/rearranged_h_0146.sdf

> <i_m_source_file_index>
48

> <r_mmod_Potential_Energy-OPLS-2005>
-173.833038330078

> <r_mmod_Stretch_Energy-OPLS-2005>
55.8379325866699

> <r_mmod_Bend_Energy-OPLS-2005>
142.041702270508

> <r_mmod_Torsional_Energy-OPLS-2005>
328.224304199219

> <r_mmod_Improper_Torsional_Energy-OPLS-2005>
13.7470512390137

> <r_mmod_Van_der_Waal_Energy-OPLS-2005>
170.179824829102

> <r_mmod_Electrostatic_Energy-OPLS-2005>
-449.666320800781

> <r_mmod_Solvation_Energy-OPLS-2005>
-448.450439453125

> <b_mmod_Minimization_Converged-OPLS-2005>
0

> <r_mmod_RMS_Derivative-OPLS-2005>
1.35959935188293

$$$$
48
                    3D
 Structure written by MMmdl.
181191  0  0  1  0            999 V2000
  -30.6880  -14.5223   20.5113 C   0  0  0  0  0  0
  -30.4221  -12.3227   19.4370 C   0  0  0  0  0  0
  -29.4993  -12.4802   18.2134 C   0  0  0  0  0  0
  -28.0186  -12.3542   18.6232 C   0  0  0  0  0  0
  -27.6556  -13.2159   19.8636 C   0  0  2  0  0  0
  -28.6967  -13.0511   20.9904 C   0  0  0  0  0  0
  -25.2586  -13.8198   20.5668 C   0  0  0  0  0  0
  -24.1844  -13.0453   20.9171 C   0  0  0  0  0  0
  -24.6421  -11.6921   20.8743 C   0  0  0  0  0  0
  -23.9092  -10.4305   21.0411 C   0  0  0  0  0  0
  -24.3646   -9.4214   21.9179 C   0  0  0  0  0  0
  -23.6314   -8.2247   22.0747 C   0  0  0  0  0  0
  -22.4287   -8.0304   21.3554 C   0  0  0  0  0  0
  -21.9944   -9.0273   20.4645 C   0  0  0  0  0  0
  -22.7274  -10.2147   20.3053 C   0  0  0  0  0  0
  -21.6866   -6.0756   22.5278 C   0  0  0  0  0  0
  -21.4013   -6.5651   23.8215 C   0  0  0  0  0  0
  -21.3644   -5.6797   24.9173 C   0  0  0  0  0  0
  -21.6048   -4.3068   24.7221 C   0  0  0  0  0  0
  -21.8820   -3.8165   23.4344 C   0  0  0  0  0  0
  -21.9193   -4.6981   22.3401 C   0  0  0  0  0  0
  -22.7868  -13.5244   21.1838 C   0  0  0  0  0  0
  -22.1665   -4.2180   21.0978 F   0  0  0  0  0  0
  -21.5622   -3.4539   25.7726 F   0  0  0  0  0  0
  -30.0167  -13.3424   20.4175 N   0  0  0  0  0  0
  -26.3010  -12.9362   20.3319 N   0  0  0  0  0  0
  -25.9346  -11.6523   20.5761 N   0  0  0  0  0  0
  -22.0530  -12.8212   22.0403 N   0  0  0  0  0  0
  -25.4332  -15.1908   20.4103 N   0  0  0  0  0  0
  -31.8717  -14.6243   20.1693 O   0  0  0  0  0  0
  -21.6646   -6.8906   21.4248 O   0  0  0  0  0  0
  -22.3536  -14.5543   20.6704 O   0  0  0  0  0  0
  -24.6116  -31.8691   23.2089 C   0  0  0  0  0  0
  -25.9001  -32.4812   23.8379 C   0  0  1  0  0  0
  -27.2284  -27.4148   20.1066 C   0  0  0  0  0  0
  -25.5860  -33.8617   24.2329 N   0  0  0  0  0  0
  -23.4034  -30.4896   21.5490 C   0  0  2  0  0  0
  -24.8523  -28.9500   20.1275 C   0  0  0  0  0  0
  -22.7427  -29.4651   22.4981 C   0  0  0  0  0  0
  -18.0268  -28.1385   22.8486 C   0  0  0  0  0  0
  -24.1521  -36.7323   23.2650 C   0  0  0  0  0  0
  -25.9361  -30.8212   21.3767 C   0  0  0  0  0  0
  -26.0130  -29.4498   20.7343 C   0  0  0  0  0  0
  -27.2046  -28.6858   20.7373 C   0  0  0  0  0  0
  -26.0597  -26.9397   19.4857 C   0  0  0  0  0  0
  -24.8697  -27.6905   19.5059 C   0  0  0  0  0  0
  -23.6159  -29.8177   20.1683 C   0  0  0  0  0  0
  -25.4142  -36.3143   24.0366 C   0  0  1  0  0  0
  -20.5878  -28.3657   23.1312 C   0  0  2  0  0  0
  -20.6771  -26.9383   22.5432 C   0  0  0  0  0  0
  -19.5749  -26.6368   21.5235 C   0  0  0  0  0  0
  -18.1910  -26.7929   22.1618 C   0  0  0  0  0  0
  -19.1534  -28.8831   23.2891 C   0  0  0  0  0  0
  -18.9456  -30.1434   23.8889 C   0  0  0  0  0  0
  -17.6459  -30.6574   24.0542 C   0  0  0  0  0  0
  -25.9066  -34.9471   23.5161 C   0  0  0  0  0  0
  -16.5340  -29.9070   23.6323 C   0  0  0  0  0  0
  -16.7265  -28.6494   23.0344 C   0  0  0  0  0  0
  -26.4428  -31.6567   25.0697 C   0  0  0  0  0  0
  -25.3644  -31.3636   26.1400 C   0  0  0  0  0  0
  -27.0284  -30.3007   24.6089 C   0  0  0  0  0  0
  -27.6048  -32.4263   25.7403 C   0  0  0  0  0  0
  -27.5621  -37.1815   24.8467 C   0  0  0  0  0  0
  -21.4153  -29.3024   22.3722 N   0  0  0  0  0  0
  -26.4349  -37.3817   23.9398 N   0  0  0  0  0  0
  -24.6674  -31.0779   22.0995 N   0  0  0  0  0  0
  -23.4180  -28.8194   23.3027 O   0  0  0  0  0  0
  -28.3573  -26.6427   19.9671 O   0  0  0  0  0  0
  -26.5655  -34.8918   22.4741 O   0  0  0  0  0  0
  -23.5301  -32.1472   23.7448 O   0  0  0  0  0  0
  -28.3024  -22.1463   22.6874 C   0  0  0  0  0  0
  -28.7917  -23.6055   20.8147 C   0  0  0  0  0  0
  -28.0280  -23.2615   23.4957 C   0  0  0  0  0  0
  -28.1128  -24.5664   22.9635 C   0  0  0  0  0  0
  -28.5805  -24.7566   21.6326 C   0  0  0  0  0  0
  -28.6318  -22.2816   21.3234 C   0  0  0  0  0  0
  -27.7014  -23.0109   24.9648 C   0  0  0  0  0  0
  -27.7010  -25.7212   23.8596 C   0  0  0  0  0  0
  -26.5536  -25.3086   24.7993 C   0  0  0  0  0  0
  -29.1084  -17.8107   19.4584 C   0  0  0  0  0  0
  -28.7526  -17.5114   21.8543 C   0  0  0  0  0  0
  -30.1029  -16.6199   19.4686 C   0  0  0  0  0  0
  -29.7650  -16.3298   21.8819 C   0  0  0  0  0  0
  -26.9144  -24.1137   25.7187 C   0  0  1  0  0  0
  -29.1246  -18.5749   20.7950 C   0  0  0  0  0  0
  -26.0551  -22.4277   27.4984 C   0  0  0  0  0  0
  -24.8623  -24.5765   27.2147 C   0  0  0  0  0  0
  -29.0123  -26.1568   21.1377 C   0  0  0  0  0  0
  -28.1908  -19.8381   20.8178 C   0  0  0  0  0  0
  -25.6832  -23.5160   26.4670 C   0  0  0  0  0  0
  -29.9170  -15.6498   20.5784 N   0  0  0  0  0  0
  -28.8439  -21.1349   20.5115 N   0  0  0  0  0  0
  -31.4646  -12.4241   19.1313 H   0  0  0  0  0  0
  -30.3349  -11.3264   19.8697 H   0  0  0  0  0  0
  -29.7440  -11.7298   17.4621 H   0  0  0  0  0  0
  -29.6695  -13.4478   17.7427 H   0  0  0  0  0  0
  -27.8256  -11.3022   18.8310 H   0  0  0  0  0  0
  -27.3756  -12.6180   17.7836 H   0  0  0  0  0  0
  -27.6830  -14.2543   19.5358 H   0  0  0  0  0  0
  -28.6786  -12.0388   21.3944 H   0  0  0  0  0  0
  -28.4626  -13.7139   21.8230 H   0  0  0  0  0  0
  -25.2805   -9.5674   22.4745 H   0  0  0  0  0  0
  -24.0027   -7.4641   22.7463 H   0  0  0  0  0  0
  -21.0879   -8.8810   19.8949 H   0  0  0  0  0  0
  -22.3763  -10.9689   19.6158 H   0  0  0  0  0  0
  -21.2014   -7.6160   23.9732 H   0  0  0  0  0  0
  -21.1455   -6.0524   25.9079 H   0  0  0  0  0  0
  -22.0616   -2.7633   23.2829 H   0  0  0  0  0  0
  -22.4160  -11.9864   22.4745 H   0  0  0  0  0  0
  -21.1159  -13.1228   22.2647 H   0  0  0  0  0  0
  -24.6764  -15.8558   20.5306 H   0  0  0  0  0  0
  -26.3031  -15.6254   20.1267 H   0  0  0  0  0  0
  -26.7037  -32.5542   23.1122 H   0  0  0  0  0  0
  -24.9916  -33.9749   25.0401 H   0  0  0  0  0  0
  -22.6938  -31.3052   21.4011 H   0  0  0  0  0  0
  -23.3812  -35.9629   23.3333 H   0  0  0  0  0  0
  -24.3627  -36.8928   22.2069 H   0  0  0  0  0  0
  -23.7238  -37.6518   23.6637 H   0  0  0  0  0  0
  -26.0714  -31.5860   20.6115 H   0  0  0  0  0  0
  -26.8149  -30.8642   22.0071 H   0  0  0  0  0  0
  -28.1005  -29.0766   21.1984 H   0  0  0  0  0  0
  -26.0726  -25.9801   18.9874 H   0  0  0  0  0  0
  -23.9801  -27.3019   19.0305 H   0  0  0  0  0  0
  -23.7158  -30.5816   19.3959 H   0  0  0  0  0  0
  -22.7419  -29.2317   19.8828 H   0  0  0  0  0  0
  -25.1320  -36.2038   25.0872 H   0  0  0  0  0  0
  -20.9942  -28.3201   24.1447 H   0  0  0  0  0  0
  -20.5712  -26.2244   23.3615 H   0  0  0  0  0  0
  -21.6625  -26.7458   22.1171 H   0  0  0  0  0  0
  -19.6922  -25.6294   21.1237 H   0  0  0  0  0  0
  -19.6695  -27.3193   20.6779 H   0  0  0  0  0  0
  -17.4196  -26.6688   21.3992 H   0  0  0  0  0  0
  -18.0259  -26.0092   22.9032 H   0  0  0  0  0  0
  -19.7938  -30.7253   24.2254 H   0  0  0  0  0  0
  -17.5011  -31.6255   24.5166 H   0  0  0  0  0  0
  -15.5334  -30.2953   23.7702 H   0  0  0  0  0  0
  -15.8673  -28.0811   22.7074 H   0  0  0  0  0  0
  -24.5845  -30.7006   25.7644 H   0  0  0  0  0  0
  -24.8775  -32.2765   26.4829 H   0  0  0  0  0  0
  -25.7924  -30.8739   27.0151 H   0  0  0  0  0  0
  -26.2846  -29.6714   24.1196 H   0  0  0  0  0  0
  -27.4135  -29.7292   25.4535 H   0  0  0  0  0  0
  -27.8636  -30.4373   23.9218 H   0  0  0  0  0  0
  -27.2762  -33.3584   26.1988 H   0  0  0  0  0  0
  -28.3787  -32.6779   25.0143 H   0  0  0  0  0  0
  -28.0777  -31.8350   26.5251 H   0  0  0  0  0  0
  -28.2640  -38.0115   24.7563 H   0  0  0  0  0  0
  -28.1126  -36.2657   24.6269 H   0  0  0  0  0  0
  -27.2315  -37.1440   25.8859 H   0  0  0  0  0  0
  -20.9342  -29.8756   21.6953 H   0  0  0  0  0  0
  -26.0268  -38.2923   24.1342 H   0  0  0  0  0  0
  -28.2603  -21.1760   23.1558 H   0  0  0  0  0  0
  -29.1077  -23.7604   19.7909 H   0  0  0  0  0  0
  -28.6500  -22.8562   25.4815 H   0  0  0  0  0  0
  -27.1787  -22.0555   25.0150 H   0  0  0  0  0  0
  -27.3472  -26.5636   23.2641 H   0  0  0  0  0  0
  -28.5728  -26.0574   24.4230 H   0  0  0  0  0  0
  -25.6836  -25.0589   24.1902 H   0  0  0  0  0  0
  -26.2729  -26.1766   25.3977 H   0  0  0  0  0  0
  -28.1014  -17.4382   19.2558 H   0  0  0  0  0  0
  -29.3509  -18.4871   18.6366 H   0  0  0  0  0  0
  -28.6961  -17.9708   22.8437 H   0  0  0  0  0  0
  -27.7527  -17.1226   21.6474 H   0  0  0  0  0  0
  -31.1191  -17.0157   19.5143 H   0  0  0  0  0  0
  -30.0257  -16.0879   18.5165 H   0  0  0  0  0  0
  -29.4571  -15.6142   22.6447 H   0  0  0  0  0  0
  -30.7412  -16.7042   22.1975 H   0  0  0  0  0  0
  -27.5835  -24.5171   26.4816 H   0  0  0  0  0  0
  -30.1494  -18.8916   20.9987 H   0  0  0  0  0  0
  -26.6145  -21.5934   27.0769 H   0  0  0  0  0  0
  -25.1550  -22.0014   27.9450 H   0  0  0  0  0  0
  -26.6485  -22.8420   28.3136 H   0  0  0  0  0  0
  -24.4490  -25.3287   26.5435 H   0  0  0  0  0  0
  -25.4688  -25.0816   27.9675 H   0  0  0  0  0  0
  -24.0206  -24.1100   27.7284 H   0  0  0  0  0  0
  -30.0622  -26.0571   20.8580 H   0  0  0  0  0  0
  -29.0301  -26.9106   21.9224 H   0  0  0  0  0  0
  -27.6593  -19.8613   21.7654 H   0  0  0  0  0  0
  -27.3948  -19.7065   20.0847 H   0  0  0  0  0  0
  -25.0299  -23.0575   25.7220 H   0  0  0  0  0  0
  -28.9495  -21.3286   19.5185 H   0  0  0  0  0  0
  1 25  1  0  0  0
  1 30  2  0  0  0
  1 91  1  0  0  0
  2  3  1  0  0  0
  2 25  1  0  0  0
  2 93  1  0  0  0
  2 94  1  0  0  0
  3  4  1  0  0  0
  3 95  1  0  0  0
  3 96  1  0  0  0
  4  5  1  0  0  0
  4 97  1  0  0  0
  4 98  1  0  0  0
  5  6  1  0  0  0
  5 26  1  0  0  0
  5 99  1  0  0  0
  6 25  1  0  0  0
  6100  1  0  0  0
  6101  1  0  0  0
  7  8  2  0  0  0
  7 26  1  0  0  0
  7 29  1  0  0  0
  8  9  1  0  0  0
  8 22  1  0  0  0
  9 10  1  0  0  0
  9 27  2  0  0  0
 10 11  2  0  0  0
 10 15  1  0  0  0
 11 12  1  0  0  0
 11102  1  0  0  0
 12 13  2  0  0  0
 12103  1  0  0  0
 13 14  1  0  0  0
 13 31  1  0  0  0
 14 15  2  0  0  0
 14104  1  0  0  0
 15105  1  0  0  0
 16 17  2  0  0  0
 16 21  1  0  0  0
 16 31  1  0  0  0
 17 18  1  0  0  0
 17106  1  0  0  0
 18 19  2  0  0  0
 18107  1  0  0  0
 19 20  1  0  0  0
 19 24  1  0  0  0
 20 21  2  0  0  0
 20108  1  0  0  0
 21 23  1  0  0  0
 22 28  1  0  0  0
 22 32  2  0  0  0
 26 27  1  0  0  0
 28109  1  0  0  0
 28110  1  0  0  0
 29111  1  0  0  0
 29112  1  0  0  0
 33 34  1  0  0  0
 33 66  1  0  0  0
 33 70  2  0  0  0
 34 36  1  0  0  0
 34 59  1  0  0  0
 34113  1  0  0  0
 35 44  2  0  0  0
 35 45  1  0  0  0
 35 68  1  0  0  0
 36 56  1  0  0  0
 36114  1  0  0  0
 37 39  1  0  0  0
 37 47  1  0  0  0
 37 66  1  0  0  0
 37115  1  0  0  0
 38 43  2  0  0  0
 38 46  1  0  0  0
 38 47  1  0  0  0
 39 64  1  0  0  0
 39 67  2  0  0  0
 40 52  1  0  0  0
 40 53  2  0  0  0
 40 58  1  0  0  0
 41116  1  0  0  0
 41117  1  0  0  0
 41118  1  0  0  0
 41 48  1  0  0  0
 42 43  1  0  0  0
 42 66  1  0  0  0
 42119  1  0  0  0
 42120  1  0  0  0
 43 44  1  0  0  0
 44121  1  0  0  0
 45 46  2  0  0  0
 45122  1  0  0  0
 46123  1  0  0  0
 47124  1  0  0  0
 47125  1  0  0  0
 48 56  1  0  0  0
 48 65  1  0  0  0
 48126  1  0  0  0
 49 50  1  0  0  0
 49 53  1  0  0  0
 49 64  1  0  0  0
 49127  1  0  0  0
 50 51  1  0  0  0
 50128  1  0  0  0
 50129  1  0  0  0
 51 52  1  0  0  0
 51130  1  0  0  0
 51131  1  0  0  0
 52132  1  0  0  0
 52133  1  0  0  0
 53 54  1  0  0  0
 54 55  2  0  0  0
 54134  1  0  0  0
 55 57  1  0  0  0
 55135  1  0  0  0
 56 69  2  0  0  0
 57 58  2  0  0  0
 57136  1  0  0  0
 58137  1  0  0  0
 59 60  1  0  0  0
 59 61  1  0  0  0
 59 62  1  0  0  0
 60138  1  0  0  0
 60139  1  0  0  0
 60140  1  0  0  0
 61141  1  0  0  0
 61142  1  0  0  0
 61143  1  0  0  0
 62144  1  0  0  0
 62145  1  0  0  0
 62146  1  0  0  0
 63 65  1  0  0  0
 63147  1  0  0  0
 63148  1  0  0  0
 63149  1  0  0  0
 64150  1  0  0  0
 65151  1  0  0  0
 68 88  1  0  0  0
 71 73  2  0  0  0
 71 76  1  0  0  0
 71152  1  0  0  0
 72 75  1  0  0  0
 72 76  2  0  0  0
 72153  1  0  0  0
 73 74  1  0  0  0
 73 77  1  0  0  0
 74 75  2  0  0  0
 74 78  1  0  0  0
 75 88  1  0  0  0
 76 92  1  0  0  0
 77154  1  0  0  0
 77155  1  0  0  0
 77 84  1  0  0  0
 78 79  1  0  0  0
 78156  1  0  0  0
 78157  1  0  0  0
 79 84  1  0  0  0
 79158  1  0  0  0
 79159  1  0  0  0
 80 82  1  0  0  0
 80 85  1  0  0  0
 80160  1  0  0  0
 80161  1  0  0  0
 81 83  1  0  0  0
 81 85  1  0  0  0
 81162  1  0  0  0
 81163  1  0  0  0
 82 91  1  0  0  0
 82164  1  0  0  0
 82165  1  0  0  0
 83 91  1  0  0  0
 83166  1  0  0  0
 83167  1  0  0  0
 84 90  1  0  0  0
 84168  1  0  0  0
 85 89  1  0  0  0
 85169  1  0  0  0
 86170  1  0  0  0
 86171  1  0  0  0
 86172  1  0  0  0
 86 90  1  0  0  0
 87 90  1  0  0  0
 87173  1  0  0  0
 87174  1  0  0  0
 87175  1  0  0  0
 88176  1  0  0  0
 88177  1  0  0  0
 89 92  1  0  0  0
 89178  1  0  0  0
 89179  1  0  0  0
 90180  1  0  0  0
 92181  1  0  0  0
M  ISO  4   1 100  68 101  88 101  91 100
M  END
> <chiral flag>
0

> <version>
0

> <s_m_source_file>
/data/baiqing/PycharmProjects/Reinvent-master-3.2/result/LINK_invent/BTK/process_docking_weight1_custom_sum_contain_oxygen_bond_distance_aromatic_linkinvent_7_9_3/rearranged_h_0146.sdf

> <i_m_source_file_index>
49

> <r_mmod_Potential_Energy-OPLS-2005>
267.771057128906

> <r_mmod_Stretch_Energy-OPLS-2005>
51.7778244018555

> <r_mmod_Bend_Energy-OPLS-2005>
136.201400756836

> <r_mmod_Torsional_Energy-OPLS-2005>
385.454254150391

> <r_mmod_Improper_Torsional_Energy-OPLS-2005>
19.4860877990723

> <r_mmod_Van_der_Waal_Energy-OPLS-2005>
155.982467651367

> <r_mmod_Electrostatic_Energy-OPLS-2005>
-308.163421630859

> <r_mmod_Solvation_Energy-OPLS-2005>
-194.256210327148

> <b_mmod_Minimization_Converged-OPLS-2005>
0

> <r_mmod_RMS_Derivative-OPLS-2005>
4.63044738769531

$$$$
49
                    3D
 Structure written by MMmdl.
168177  0  0  1  0            999 V2000
  -30.6178  -14.8802   20.4619 C   0  0  0  0  0  0
  -30.4277  -12.5504   19.4896 C   0  0  0  0  0  0
  -29.5048  -12.5308   18.2487 C   0  0  0  0  0  0
  -28.0425  -12.3210   18.6715 C   0  0  0  0  0  0
  -27.6330  -13.2519   19.8415 C   0  0  2  0  0  0
  -28.6785  -13.2703   20.9798 C   0  0  0  0  0  0
  -25.2506  -13.8234   20.5768 C   0  0  0  0  0  0
  -24.1799  -13.0474   20.9242 C   0  0  0  0  0  0
  -24.6414  -11.6946   20.8758 C   0  0  0  0  0  0
  -23.9097  -10.4307   21.0403 C   0  0  0  0  0  0
  -24.3646   -9.4227   21.9185 C   0  0  0  0  0  0
  -23.6322   -8.2261   22.0743 C   0  0  0  0  0  0
  -22.4311   -8.0308   21.3508 C   0  0  0  0  0  0
  -21.9946   -9.0292   20.4624 C   0  0  0  0  0  0
  -22.7272  -10.2172   20.3042 C   0  0  0  0  0  0
  -21.6871   -6.0775   22.5286 C   0  0  0  0  0  0
  -21.4006   -6.5667   23.8215 C   0  0  0  0  0  0
  -21.3657   -5.6819   24.9175 C   0  0  0  0  0  0
  -21.6050   -4.3086   24.7228 C   0  0  0  0  0  0
  -21.8823   -3.8182   23.4340 C   0  0  0  0  0  0
  -21.9195   -4.6999   22.3396 C   0  0  0  0  0  0
  -22.7828  -13.5258   21.1925 C   0  0  0  0  0  0
  -22.1663   -4.2183   21.0972 F   0  0  0  0  0  0
  -21.5643   -3.4568   25.7728 F   0  0  0  0  0  0
  -29.9735  -13.6465   20.3956 N   0  0  0  0  0  0
  -26.2929  -12.9458   20.3294 N   0  0  0  0  0  0
  -25.9341  -11.6597   20.5762 N   0  0  0  0  0  0
  -22.0462  -12.8178   22.0447 N   0  0  0  0  0  0
  -25.4249  -15.1947   20.4162 N   0  0  0  0  0  0
  -31.7746  -14.9444   20.0389 O   0  0  0  0  0  0
  -21.6672   -6.8908   21.4226 O   0  0  0  0  0  0
  -22.3477  -14.5572   20.6816 O   0  0  0  0  0  0
  -24.6404  -31.8487   23.1937 C   0  0  0  0  0  0
  -25.9202  -32.4715   23.8315 C   0  0  1  0  0  0
  -27.2143  -27.1500   20.1544 C   0  0  0  0  0  0
  -25.5931  -33.8524   24.2187 N   0  0  0  0  0  0
  -23.4416  -30.4678   21.5400 C   0  0  2  0  0  0
  -24.8929  -28.9072   20.1103 C   0  0  0  0  0  0
  -22.7541  -29.4567   22.4921 C   0  0  0  0  0  0
  -18.0297  -28.1434   22.8471 C   0  0  0  0  0  0
  -24.1495  -36.7240   23.2632 C   0  0  0  0  0  0
  -25.9995  -30.7264   21.3894 C   0  0  0  0  0  0
  -26.0695  -29.3378   20.7359 C   0  0  0  0  0  0
  -27.2299  -28.4767   20.7447 C   0  0  0  0  0  0
  -26.0166  -26.8361   19.4646 C   0  0  0  0  0  0
  -24.8803  -27.6697   19.4572 C   0  0  0  0  0  0
  -23.6657  -29.8042   20.1575 C   0  0  0  0  0  0
  -25.4128  -36.3018   24.0311 C   0  0  1  0  0  0
  -20.5892  -28.3748   23.1238 C   0  0  2  0  0  0
  -20.6804  -26.9458   22.5421 C   0  0  0  0  0  0
  -19.5795  -26.6417   21.5212 C   0  0  0  0  0  0
  -18.1944  -26.7988   22.1594 C   0  0  0  0  0  0
  -19.1541  -28.8908   23.2861 C   0  0  0  0  0  0
  -18.9486  -30.1491   23.8912 C   0  0  0  0  0  0
  -17.6481  -30.6622   24.0572 C   0  0  0  0  0  0
  -25.9111  -34.9406   23.5052 C   0  0  0  0  0  0
  -16.5376  -29.9111   23.6374 C   0  0  0  0  0  0
  -16.7284  -28.6532   23.0376 C   0  0  0  0  0  0
  -26.4558  -31.6595   25.0765 C   0  0  0  0  0  0
  -25.3694  -31.3709   26.1407 C   0  0  0  0  0  0
  -27.0448  -30.3008   24.6302 C   0  0  0  0  0  0
  -27.6157  -32.4303   25.7473 C   0  0  0  0  0  0
  -27.5585  -37.1746   24.8459 C   0  0  0  0  0  0
  -21.4247  -29.3054   22.3630 N   0  0  0  0  0  0
  -26.4266  -37.3748   23.9437 N   0  0  0  0  0  0
  -24.7142  -31.0349   22.0974 N   0  0  0  0  0  0
  -23.4184  -28.8112   23.3062 O   0  0  0  0  0  0
  -28.2536  -26.1469   20.2073 O   0  0  0  0  0  0
  -26.5714  -34.8855   22.4630 O   0  0  0  0  0  0
  -23.5534  -32.1355   23.7180 O   0  0  0  0  0  0
  -30.1847  -21.4040   21.2019 C   0  0  0  0  0  0
  -29.7174  -22.7820   21.1783 C   0  0  0  0  0  0
  -28.0931  -22.1568   19.5970 C   0  0  0  0  0  0
  -29.6355  -20.3091   20.4349 C   0  0  0  0  0  0
  -28.6345  -23.2468   20.3655 C   0  0  0  0  0  0
  -28.5506  -20.7721   19.6210 C   0  0  0  0  0  0
  -32.6238  -19.0413   21.1776 C   0  0  0  0  0  0
  -31.0658  -17.6349   22.5348 C   0  0  0  0  0  0
  -30.0612  -16.4679   22.2816 C   0  0  0  0  0  0
  -29.5062  -17.3528   20.1413 C   0  0  0  0  0  0
  -30.2802  -18.7807   20.4121 C   0  0  2  0  0  0
  -33.6950  -18.9332   22.2675 C   0  0  0  0  0  0
  -26.0691  -18.5653   18.0732 C   0  0  0  0  0  0
  -27.8365  -24.6837   20.5048 C   0  0  0  0  0  0
  -26.5560  -19.6785   19.0053 C   0  0  0  0  0  0
  -31.3752  -18.5299   21.3859 N   0  0  0  0  0  0
  -29.9441  -16.0588   20.8783 N   0  0  0  0  0  0
  -32.9429  -19.6453   20.1479 O   0  0  0  0  0  0
  -27.9535  -19.8387   18.8112 O   0  0  0  0  0  0
  -31.4662  -12.6700   19.1721 H   0  0  0  0  0  0
  -30.3926  -11.5896   20.0078 H   0  0  0  0  0  0
  -29.8150  -11.7454   17.5570 H   0  0  0  0  0  0
  -29.5998  -13.4708   17.7030 H   0  0  0  0  0  0
  -27.9396  -11.2766   18.9768 H   0  0  0  0  0  0
  -27.3766  -12.4554   17.8156 H   0  0  0  0  0  0
  -27.5997  -14.2585   19.4223 H   0  0  0  0  0  0
  -28.7439  -12.3004   21.4718 H   0  0  0  0  0  0
  -28.3767  -13.9854   21.7472 H   0  0  0  0  0  0
  -25.2759   -9.5757   22.4808 H   0  0  0  0  0  0
  -24.0050   -7.4665   22.7456 H   0  0  0  0  0  0
  -21.0892   -8.8808   19.8935 H   0  0  0  0  0  0
  -22.3699  -10.9738   19.6203 H   0  0  0  0  0  0
  -21.1967   -7.6174   23.9733 H   0  0  0  0  0  0
  -21.1491   -6.0543   25.9081 H   0  0  0  0  0  0
  -22.0598   -2.7651   23.2843 H   0  0  0  0  0  0
  -22.4070  -11.9796   22.4747 H   0  0  0  0  0  0
  -21.1074  -13.1159   22.2661 H   0  0  0  0  0  0
  -24.6663  -15.8600   20.5155 H   0  0  0  0  0  0
  -26.2941  -15.6257   20.1330 H   0  0  0  0  0  0
  -26.7266  -32.5311   23.1027 H   0  0  0  0  0  0
  -25.0056  -33.9685   25.0314 H   0  0  0  0  0  0
  -22.7442  -31.2934   21.3875 H   0  0  0  0  0  0
  -23.3776  -35.9551   23.3232 H   0  0  0  0  0  0
  -24.3597  -36.8967   22.2067 H   0  0  0  0  0  0
  -23.7223  -37.6389   23.6740 H   0  0  0  0  0  0
  -26.1473  -31.4757   20.6135 H   0  0  0  0  0  0
  -26.8737  -30.7794   22.0290 H   0  0  0  0  0  0
  -28.1203  -28.8013   21.2692 H   0  0  0  0  0  0
  -25.9152  -25.9126   18.9178 H   0  0  0  0  0  0
  -23.9920  -27.3493   18.9340 H   0  0  0  0  0  0
  -23.7807  -30.5816   19.4017 H   0  0  0  0  0  0
  -22.7830  -29.2415   19.8561 H   0  0  0  0  0  0
  -25.1295  -36.1864   25.0803 H   0  0  0  0  0  0
  -20.9976  -28.3376   24.1364 H   0  0  0  0  0  0
  -20.5798  -26.2354   23.3647 H   0  0  0  0  0  0
  -21.6644  -26.7594   22.1135 H   0  0  0  0  0  0
  -19.7029  -25.6333   21.1246 H   0  0  0  0  0  0
  -19.6748  -27.3214   20.6730 H   0  0  0  0  0  0
  -17.4247  -26.6735   21.3969 H   0  0  0  0  0  0
  -18.0358  -26.0122   22.8981 H   0  0  0  0  0  0
  -19.7956  -30.7293   24.2298 H   0  0  0  0  0  0
  -17.5024  -31.6307   24.5158 H   0  0  0  0  0  0
  -15.5370  -30.3009   23.7714 H   0  0  0  0  0  0
  -15.8672  -28.0854   22.7133 H   0  0  0  0  0  0
  -24.5964  -30.6986   25.7621 H   0  0  0  0  0  0
  -24.8751  -32.2837   26.4749 H   0  0  0  0  0  0
  -25.7908  -30.8920   27.0247 H   0  0  0  0  0  0
  -26.3092  -29.6663   24.1330 H   0  0  0  0  0  0
  -27.4133  -29.7372   25.4889 H   0  0  0  0  0  0
  -27.8940  -30.4285   23.9570 H   0  0  0  0  0  0
  -27.2921  -33.3685   26.1928 H   0  0  0  0  0  0
  -28.3974  -32.6687   25.0260 H   0  0  0  0  0  0
  -28.0760  -31.8464   26.5431 H   0  0  0  0  0  0
  -28.2533  -38.0110   24.7575 H   0  0  0  0  0  0
  -28.1135  -36.2639   24.6176 H   0  0  0  0  0  0
  -27.2295  -37.1247   25.8849 H   0  0  0  0  0  0
  -20.9526  -29.8678   21.6698 H   0  0  0  0  0  0
  -26.0133  -38.2803   24.1488 H   0  0  0  0  0  0
  -31.0223  -21.2022   21.8508 H   0  0  0  0  0  0
  -30.1930  -23.4864   21.8464 H   0  0  0  0  0  0
  -27.2559  -22.3957   18.9588 H   0  0  0  0  0  0
  -31.9771  -17.1604   22.9007 H   0  0  0  0  0  0
  -30.7111  -18.2465   23.3671 H   0  0  0  0  0  0
  -29.0680  -16.7863   22.6099 H   0  0  0  0  0  0
  -30.3122  -15.6208   22.9251 H   0  0  0  0  0  0
  -29.4970  -17.1572   19.0685 H   0  0  0  0  0  0
  -28.4541  -17.5003   20.3938 H   0  0  0  0  0  0
  -30.7838  -18.8477   19.4441 H   0  0  0  0  0  0
  -34.0742  -17.9154   22.3599 H   0  0  0  0  0  0
  -33.3039  -19.2605   23.2320 H   0  0  0  0  0  0
  -34.5483  -19.5736   22.0320 H   0  0  0  0  0  0
  -25.0306  -18.3126   18.2872 H   0  0  0  0  0  0
  -26.6671  -17.6607   18.1956 H   0  0  0  0  0  0
  -26.1338  -18.8680   17.0263 H   0  0  0  0  0  0
  -27.5122  -24.7051   21.5461 H   0  0  0  0  0  0
  -26.9293  -24.4693   19.9520 H   0  0  0  0  0  0
  -26.3608  -19.4059   20.0448 H   0  0  0  0  0  0
  -26.0050  -20.5946   18.8016 H   0  0  0  0  0  0
  1 25  1  0  0  0
  1 30  2  0  0  0
  1 87  1  0  0  0
  2  3  1  0  0  0
  2 25  1  0  0  0
  2 90  1  0  0  0
  2 91  1  0  0  0
  3  4  1  0  0  0
  3 92  1  0  0  0
  3 93  1  0  0  0
  4  5  1  0  0  0
  4 94  1  0  0  0
  4 95  1  0  0  0
  5  6  1  0  0  0
  5 26  1  0  0  0
  5 96  1  0  0  0
  6 25  1  0  0  0
  6 97  1  0  0  0
  6 98  1  0  0  0
  7  8  2  0  0  0
  7 26  1  0  0  0
  7 29  1  0  0  0
  8  9  1  0  0  0
  8 22  1  0  0  0
  9 10  1  0  0  0
  9 27  2  0  0  0
 10 11  2  0  0  0
 10 15  1  0  0  0
 11 12  1  0  0  0
 11 99  1  0  0  0
 12 13  2  0  0  0
 12100  1  0  0  0
 13 14  1  0  0  0
 13 31  1  0  0  0
 14 15  2  0  0  0
 14101  1  0  0  0
 15102  1  0  0  0
 16 17  2  0  0  0
 16 21  1  0  0  0
 16 31  1  0  0  0
 17 18  1  0  0  0
 17103  1  0  0  0
 18 19  2  0  0  0
 18104  1  0  0  0
 19 20  1  0  0  0
 19 24  1  0  0  0
 20 21  2  0  0  0
 20105  1  0  0  0
 21 23  1  0  0  0
 22 28  1  0  0  0
 22 32  2  0  0  0
 26 27  1  0  0  0
 28106  1  0  0  0
 28107  1  0  0  0
 29108  1  0  0  0
 29109  1  0  0  0
 33 34  1  0  0  0
 33 66  1  0  0  0
 33 70  2  0  0  0
 34 36  1  0  0  0
 34 59  1  0  0  0
 34110  1  0  0  0
 35 44  2  0  0  0
 35 45  1  0  0  0
 35 68  1  0  0  0
 36 56  1  0  0  0
 36111  1  0  0  0
 37 39  1  0  0  0
 37 47  1  0  0  0
 37 66  1  0  0  0
 37112  1  0  0  0
 38 43  2  0  0  0
 38 46  1  0  0  0
 38 47  1  0  0  0
 39 64  1  0  0  0
 39 67  2  0  0  0
 40 52  1  0  0  0
 40 53  2  0  0  0
 40 58  1  0  0  0
 41113  1  0  0  0
 41114  1  0  0  0
 41115  1  0  0  0
 41 48  1  0  0  0
 42 43  1  0  0  0
 42 66  1  0  0  0
 42116  1  0  0  0
 42117  1  0  0  0
 43 44  1  0  0  0
 44118  1  0  0  0
 45 46  2  0  0  0
 45119  1  0  0  0
 46120  1  0  0  0
 47121  1  0  0  0
 47122  1  0  0  0
 48 56  1  0  0  0
 48 65  1  0  0  0
 48123  1  0  0  0
 49 50  1  0  0  0
 49 53  1  0  0  0
 49 64  1  0  0  0
 49124  1  0  0  0
 50 51  1  0  0  0
 50125  1  0  0  0
 50126  1  0  0  0
 51 52  1  0  0  0
 51127  1  0  0  0
 51128  1  0  0  0
 52129  1  0  0  0
 52130  1  0  0  0
 53 54  1  0  0  0
 54 55  2  0  0  0
 54131  1  0  0  0
 55 57  1  0  0  0
 55132  1  0  0  0
 56 69  2  0  0  0
 57 58  2  0  0  0
 57133  1  0  0  0
 58134  1  0  0  0
 59 60  1  0  0  0
 59 61  1  0  0  0
 59 62  1  0  0  0
 60135  1  0  0  0
 60136  1  0  0  0
 60137  1  0  0  0
 61138  1  0  0  0
 61139  1  0  0  0
 61140  1  0  0  0
 62141  1  0  0  0
 62142  1  0  0  0
 62143  1  0  0  0
 63 65  1  0  0  0
 63144  1  0  0  0
 63145  1  0  0  0
 63146  1  0  0  0
 64147  1  0  0  0
 65148  1  0  0  0
 68 84  1  0  0  0
 71 72  2  0  0  0
 71 74  1  0  0  0
 71149  1  0  0  0
 72 75  1  0  0  0
 72150  1  0  0  0
 73 75  2  0  0  0
 73 76  1  0  0  0
 73151  1  0  0  0
 74 76  2  0  0  0
 74 81  1  0  0  0
 75 84  1  0  0  0
 76 89  1  0  0  0
 77 82  1  0  0  0
 77 86  1  0  0  0
 77 88  2  0  0  0
 78 79  1  0  0  0
 78 86  1  0  0  0
 78152  1  0  0  0
 78153  1  0  0  0
 79 87  1  0  0  0
 79154  1  0  0  0
 79155  1  0  0  0
 80 81  1  0  0  0
 80 87  1  0  0  0
 80156  1  0  0  0
 80157  1  0  0  0
 81 86  1  0  0  0
 81158  1  0  0  0
 82159  1  0  0  0
 82160  1  0  0  0
 82161  1  0  0  0
 83 85  1  0  0  0
 83162  1  0  0  0
 83163  1  0  0  0
 83164  1  0  0  0
 84165  1  0  0  0
 84166  1  0  0  0
 85 89  1  0  0  0
 85167  1  0  0  0
 85168  1  0  0  0
M  ISO  4   1 100  68 101  84 101  87 100
M  END
> <chiral flag>
0

> <version>
0

> <s_m_source_file>
/data/baiqing/PycharmProjects/Reinvent-master-3.2/result/LINK_invent/BTK/process_docking_weight1_custom_sum_contain_oxygen_bond_distance_aromatic_linkinvent_7_9_3/rearranged_h_0146.sdf

> <i_m_source_file_index>
50

> <r_mmod_Potential_Energy-OPLS-2005>
709.9287109375

> <r_mmod_Stretch_Energy-OPLS-2005>
221.277862548828

> <r_mmod_Bend_Energy-OPLS-2005>
286.71142578125

> <r_mmod_Torsional_Energy-OPLS-2005>
439.839660644531

> <r_mmod_Improper_Torsional_Energy-OPLS-2005>
7.21943092346191

> <r_mmod_Van_der_Waal_Energy-OPLS-2005>
144.183624267578

> <r_mmod_Electrostatic_Energy-OPLS-2005>
-334.681640625

> <r_mmod_Solvation_Energy-OPLS-2005>
-218.283752441406

> <b_mmod_Minimization_Converged-OPLS-2005>
0

> <r_mmod_RMS_Derivative-OPLS-2005>
5.9006519317627

$$$$
50
                    3D
 Structure written by MMmdl.
167176  0  0  1  0            999 V2000
  -30.4479  -13.7451   21.4172 C   0  0  0  0  0  0
  -30.4831  -12.4386   19.2623 C   0  0  0  0  0  0
  -29.4942  -12.6771   18.0815 C   0  0  0  0  0  0
  -27.9598  -12.5161   18.3712 C   0  0  0  0  0  0
  -27.5965  -13.3000   19.6721 C   0  0  2  0  0  0
  -28.5680  -12.5165   20.6230 C   0  0  0  0  0  0
  -24.9461  -14.7031   21.4113 C   0  0  0  0  0  0
  -24.3177  -14.2581   21.6124 C   0  0  0  0  0  0
  -25.2295  -12.4445   20.4860 C   0  0  0  0  0  0
  -24.6069  -10.6666   20.5414 C   0  0  0  0  0  0
  -24.7681   -9.6626   21.6200 C   0  0  0  0  0  0
  -23.9434   -8.4848   21.9113 C   0  0  0  0  0  0
  -22.7288   -8.1784   21.2328 C   0  0  0  0  0  0
  -22.4312   -9.1535   20.2511 C   0  0  0  0  0  0
  -23.3330  -10.2407   19.9097 C   0  0  0  0  0  0
  -21.8247   -6.1886   22.5047 C   0  0  0  0  0  0
  -21.5079   -6.6348   23.8073 C   0  0  0  0  0  0
  -21.3921   -5.7236   24.8918 C   0  0  0  0  0  0
  -21.6047   -4.3477   24.6817 C   0  0  0  0  0  0
  -21.8809   -3.8748   23.3895 C   0  0  0  0  0  0
  -21.9690   -4.7865   22.3050 C   0  0  0  0  0  0
  -22.6971  -14.7855   21.8377 C   0  0  0  0  0  0
  -22.1889   -4.2878   21.0668 F   0  0  0  0  0  0
  -21.5367   -3.4705   25.7201 F   0  0  0  0  0  0
  -29.9193  -12.9190   20.5214 N   0  0  0  0  0  0
  -26.0572  -13.4204   20.2762 N   0  0  0  0  0  0
  -26.1846  -12.1677   20.1700 N   0  0  0  0  0  0
  -21.7867  -14.0964   22.6073 N   0  0  0  0  0  0
  -24.9265  -16.0837   21.9141 N   0  0  0  0  0  0
  -31.3380  -14.5557   21.0325 O   0  0  0  0  0  0
  -21.8562   -7.0762   21.4166 O   0  0  0  0  0  0
  -22.1736  -15.4664   20.9636 O   0  0  0  0  0  0
  -24.7310  -31.7263   23.1123 C   0  0  0  0  0  0
  -25.9644  -32.4108   23.7811 C   0  0  1  0  0  0
  -26.5806  -25.9407   20.1019 C   0  0  0  0  0  0
  -25.6084  -33.7967   24.1705 N   0  0  0  0  0  0
  -23.5373  -30.3643   21.4999 C   0  0  2  0  0  0
  -24.8595  -28.6101   20.0579 C   0  0  0  0  0  0
  -22.7909  -29.3900   22.4472 C   0  0  0  0  0  0
  -18.0369  -28.1416   22.8514 C   0  0  0  0  0  0
  -24.1455  -36.6984   23.2662 C   0  0  0  0  0  0
  -26.1226  -30.1650   21.4603 C   0  0  0  0  0  0
  -26.0421  -28.6743   20.7900 C   0  0  0  0  0  0
  -26.8921  -27.3620   20.7869 C   0  0  0  0  0  0
  -25.4965  -26.2951   19.2726 C   0  0  0  0  0  0
  -24.6858  -27.4792   19.2571 C   0  0  0  0  0  0
  -23.7685  -29.7085   20.1097 C   0  0  0  0  0  0
  -25.4105  -36.2693   24.0273 C   0  0  1  0  0  0
  -20.6050  -28.3716   23.1165 C   0  0  2  0  0  0
  -20.6811  -26.9328   22.5458 C   0  0  0  0  0  0
  -19.5749  -26.6326   21.5293 C   0  0  0  0  0  0
  -18.1932  -26.7957   22.1698 C   0  0  0  0  0  0
  -19.1655  -28.8903   23.2826 C   0  0  0  0  0  0
  -18.9552  -30.1512   23.8811 C   0  0  0  0  0  0
  -17.6532  -30.6603   24.0519 C   0  0  0  0  0  0
  -25.9155  -34.9087   23.4847 C   0  0  0  0  0  0
  -16.5413  -29.9055   23.6359 C   0  0  0  0  0  0
  -16.7354  -28.6479   23.0395 C   0  0  0  0  0  0
  -26.4609  -31.6431   25.0688 C   0  0  0  0  0  0
  -25.3643  -31.3923   26.1333 C   0  0  0  0  0  0
  -27.0434  -30.2750   24.6719 C   0  0  0  0  0  0
  -27.5977  -32.4287   25.7663 C   0  0  0  0  0  0
  -27.5508  -37.1671   24.8474 C   0  0  0  0  0  0
  -21.4534  -29.2886   22.3412 N   0  0  0  0  0  0
  -26.4166  -37.3550   23.9482 N   0  0  0  0  0  0
  -24.8453  -30.8114   22.0697 N   0  0  0  0  0  0
  -23.4254  -28.7402   23.2797 O   0  0  0  0  0  0
  -27.0058  -24.2732   20.1079 O   0  0  0  0  0  0
  -26.5778  -34.8742   22.4452 O   0  0  0  0  0  0
  -23.6292  -32.0615   23.5895 O   0  0  0  0  0  0
  -23.8089  -14.0378   19.4729 C   0  0  0  0  0  0
  -27.0138  -15.3928   20.9417 C   0  0  0  0  0  0
  -23.2573  -12.4385   21.3410 C   0  0  0  0  0  0
  -26.7900  -13.9669   22.4343 C   0  0  0  0  0  0
  -25.5257  -15.6627   19.4956 C   0  0  0  0  0  0
  -25.2520  -12.5919   22.7403 C   0  0  0  0  0  0
  -24.0996  -17.9129   18.5550 C   0  0  0  0  0  0
  -25.2816  -17.9599   17.6555 C   0  0  0  0  0  0
  -25.5313  -17.8488   19.1582 C   0  0  0  0  0  0
  -24.4478  -20.1789   21.7047 C   0  0  0  0  0  0
  -29.2022  -12.2088   23.4049 C   0  0  0  0  0  0
  -27.5729  -12.0540   24.0621 C   0  0  0  0  0  0
  -26.4249  -22.3112   19.6018 C   0  0  0  0  0  0
  -26.0795  -19.9896   19.8181 C   0  0  2  0  0  0
  -29.9361  -13.4743   22.7235 N   0  0  0  0  0  0
  -24.6943  -20.1879   20.2564 N   0  3  0  0  0  0
  -26.0941  -11.7045   23.5396 O   0  0  0  0  0  0
  -31.4286  -12.9327   19.0484 H   0  0  0  0  0  0
  -30.7525  -11.3884   19.3551 H   0  0  0  0  0  0
  -29.7954  -12.0756   17.2242 H   0  0  0  0  0  0
  -29.6540  -13.7179   17.7905 H   0  0  0  0  0  0
  -27.7374  -11.4447   18.4507 H   0  0  0  0  0  0
  -27.3501  -12.9194   17.5650 H   0  0  0  0  0  0
  -28.0607  -14.2449   19.3762 H   0  0  0  0  0  0
  -28.6394  -11.4581   20.3556 H   0  0  0  0  0  0
  -28.0718  -12.2713   21.5240 H   0  0  0  0  0  0
  -25.6026   -9.8197   22.2836 H   0  0  0  0  0  0
  -24.2599   -7.8502   22.7085 H   0  0  0  0  0  0
  -21.4876   -9.0943   19.7396 H   0  0  0  0  0  0
  -22.9512  -10.9539   19.1972 H   0  0  0  0  0  0
  -21.3622   -7.6861   23.9986 H   0  0  0  0  0  0
  -21.1486   -6.0757   25.8893 H   0  0  0  0  0  0
  -22.0203   -2.8118   23.2214 H   0  0  0  0  0  0
  -20.7642  -14.2457   22.4977 H   0  0  0  0  0  0
  -22.0660  -13.5394   23.4042 H   0  0  0  0  0  0
  -24.1462  -16.5739   22.3187 H   0  0  0  0  0  0
  -25.6628  -16.6632   21.5165 H   0  0  0  0  0  0
  -26.7732  -32.4358   23.0485 H   0  0  0  0  0  0
  -25.0411  -33.8931   25.0006 H   0  0  0  0  0  0
  -22.8889  -31.2273   21.3352 H   0  0  0  0  0  0
  -23.3790  -35.9271   23.3217 H   0  0  0  0  0  0
  -24.3523  -36.8776   22.2122 H   0  0  0  0  0  0
  -23.7174  -37.6061   23.6870 H   0  0  0  0  0  0
  -26.3975  -30.8171   20.6317 H   0  0  0  0  0  0
  -26.9847  -30.2097   22.1053 H   0  0  0  0  0  0
  -27.7313  -27.3596   21.4642 H   0  0  0  0  0  0
  -25.0710  -25.5033   18.6642 H   0  0  0  0  0  0
  -23.8280  -27.4773   18.5906 H   0  0  0  0  0  0
  -24.0262  -30.4790   19.3787 H   0  0  0  0  0  0
  -22.8234  -29.3001   19.7458 H   0  0  0  0  0  0
  -25.1340  -36.1371   25.0783 H   0  0  0  0  0  0
  -21.0146  -28.3327   24.1308 H   0  0  0  0  0  0
  -20.5756  -26.2247   23.3697 H   0  0  0  0  0  0
  -21.6623  -26.7257   22.1170 H   0  0  0  0  0  0
  -19.6830  -25.6230   21.1293 H   0  0  0  0  0  0
  -19.6718  -27.3175   20.6850 H   0  0  0  0  0  0
  -17.4223  -26.6794   21.4051 H   0  0  0  0  0  0
  -18.0234  -26.0115   22.9111 H   0  0  0  0  0  0
  -19.8004  -30.7386   24.2110 H   0  0  0  0  0  0
  -17.5042  -31.6290   24.5122 H   0  0  0  0  0  0
  -15.5383  -30.2908   23.7716 H   0  0  0  0  0  0
  -15.8775  -28.0721   22.7188 H   0  0  0  0  0  0
  -24.5806  -30.7240   25.7758 H   0  0  0  0  0  0
  -24.8859  -32.3212   26.4506 H   0  0  0  0  0  0
  -25.7804  -30.9307   27.0325 H   0  0  0  0  0  0
  -26.2982  -29.6351   24.1963 H   0  0  0  0  0  0
  -27.4085  -29.7239   25.5400 H   0  0  0  0  0  0
  -27.8956  -30.3907   24.0015 H   0  0  0  0  0  0
  -27.2447  -33.3631   26.2061 H   0  0  0  0  0  0
  -28.4037  -32.6770   25.0749 H   0  0  0  0  0  0
  -28.0379  -31.8523   26.5844 H   0  0  0  0  0  0
  -28.2413  -38.0048   24.7510 H   0  0  0  0  0  0
  -28.1078  -36.2555   24.6294 H   0  0  0  0  0  0
  -27.2212  -37.1298   25.8856 H   0  0  0  0  0  0
  -20.9857  -29.8589   21.6506 H   0  0  0  0  0  0
  -25.9895  -38.2523   24.1650 H   0  0  0  0  0  0
  -22.9728  -14.2678   18.8230 H   0  0  0  0  0  0
  -27.7960  -16.1618   21.0679 H   0  0  0  0  0  0
  -22.3980  -11.8000   21.5132 H   0  0  0  0  0  0
  -27.5465  -14.1387   23.1560 H   0  0  0  0  0  0
  -23.5018  -17.0161   18.3888 H   0  0  0  0  0  0
  -23.4831  -18.8022   18.6000 H   0  0  0  0  0  0
  -25.4273  -18.8894   17.1103 H   0  0  0  0  0  0
  -25.4369  -17.0608   17.0555 H   0  0  0  0  0  0
  -25.2122  -19.6146   22.2445 H   0  0  0  0  0  0
  -23.4629  -19.7265   21.8602 H   0  0  0  0  0  0
  -24.4185  -21.2049   22.0658 H   0  0  0  0  0  0
  -29.4208  -11.3903   22.7109 H   0  0  0  0  0  0
  -29.9244  -11.8899   24.1831 H   0  0  0  0  0  0
  -27.4020  -12.8516   24.7871 H   0  0  0  0  0  0
  -27.7409  -11.2685   24.8034 H   0  0  0  0  0  0
  -25.5217  -22.5517   19.0404 H   0  0  0  0  0  0
  -27.1928  -22.2078   18.8369 H   0  0  0  0  0  0
  -26.3973  -20.0578   18.7750 H   0  0  0  0  0  0
  -30.3427  -14.1161   23.3963 H   0  0  0  0  0  0
  -24.3749  -21.0577   19.8739 H   0  0  0  0  0  0
  -24.1502  -19.4452   19.8408 H   0  0  0  0  0  0
  1 25  1  0  0  0
  1 30  2  0  0  0
  1 85  1  0  0  0
  2  3  1  0  0  0
  2 25  1  0  0  0
  2 88  1  0  0  0
  2 89  1  0  0  0
  3  4  1  0  0  0
  3 90  1  0  0  0
  3 91  1  0  0  0
  4  5  1  0  0  0
  4 92  1  0  0  0
  4 93  1  0  0  0
  5  6  1  0  0  0
  5 26  1  0  0  0
  5 94  1  0  0  0
  6 25  1  0  0  0
  6 95  1  0  0  0
  6 96  1  0  0  0
  7  8  2  0  0  0
  7 26  1  0  0  0
  7 29  1  0  0  0
  8  9  1  0  0  0
  8 22  1  0  0  0
  9 10  1  0  0  0
  9 27  2  0  0  0
 10 11  2  0  0  0
 10 15  1  0  0  0
 11 12  1  0  0  0
 11 97  1  0  0  0
 12 13  2  0  0  0
 12 98  1  0  0  0
 13 14  1  0  0  0
 13 31  1  0  0  0
 14 15  2  0  0  0
 14 99  1  0  0  0
 15100  1  0  0  0
 16 17  2  0  0  0
 16 21  1  0  0  0
 16 31  1  0  0  0
 17 18  1  0  0  0
 17101  1  0  0  0
 18 19  2  0  0  0
 18102  1  0  0  0
 19 20  1  0  0  0
 19 24  1  0  0  0
 20 21  2  0  0  0
 20103  1  0  0  0
 21 23  1  0  0  0
 22 28  1  0  0  0
 22 32  2  0  0  0
 26 27  1  0  0  0
 28104  1  0  0  0
 28105  1  0  0  0
 29106  1  0  0  0
 29107  1  0  0  0
 33 34  1  0  0  0
 33 66  1  0  0  0
 33 70  2  0  0  0
 34 36  1  0  0  0
 34 59  1  0  0  0
 34108  1  0  0  0
 35 44  2  0  0  0
 35 45  1  0  0  0
 35 68  1  0  0  0
 36 56  1  0  0  0
 36109  1  0  0  0
 37 39  1  0  0  0
 37 47  1  0  0  0
 37 66  1  0  0  0
 37110  1  0  0  0
 38 43  2  0  0  0
 38 46  1  0  0  0
 38 47  1  0  0  0
 39 64  1  0  0  0
 39 67  2  0  0  0
 40 52  1  0  0  0
 40 53  2  0  0  0
 40 58  1  0  0  0
 41111  1  0  0  0
 41112  1  0  0  0
 41113  1  0  0  0
 41 48  1  0  0  0
 42 43  1  0  0  0
 42 66  1  0  0  0
 42114  1  0  0  0
 42115  1  0  0  0
 43 44  1  0  0  0
 44116  1  0  0  0
 45 46  2  0  0  0
 45117  1  0  0  0
 46118  1  0  0  0
 47119  1  0  0  0
 47120  1  0  0  0
 48 56  1  0  0  0
 48 65  1  0  0  0
 48121  1  0  0  0
 49 50  1  0  0  0
 49 53  1  0  0  0
 49 64  1  0  0  0
 49122  1  0  0  0
 50 51  1  0  0  0
 50123  1  0  0  0
 50124  1  0  0  0
 51 52  1  0  0  0
 51125  1  0  0  0
 51126  1  0  0  0
 52127  1  0  0  0
 52128  1  0  0  0
 53 54  1  0  0  0
 54 55  2  0  0  0
 54129  1  0  0  0
 55 57  1  0  0  0
 55130  1  0  0  0
 56 69  2  0  0  0
 57 58  2  0  0  0
 57131  1  0  0  0
 58132  1  0  0  0
 59 60  1  0  0  0
 59 61  1  0  0  0
 59 62  1  0  0  0
 60133  1  0  0  0
 60134  1  0  0  0
 60135  1  0  0  0
 61136  1  0  0  0
 61137  1  0  0  0
 61138  1  0  0  0
 62139  1  0  0  0
 62140  1  0  0  0
 62141  1  0  0  0
 63 65  1  0  0  0
 63142  1  0  0  0
 63143  1  0  0  0
 63144  1  0  0  0
 64145  1  0  0  0
 65146  1  0  0  0
 68 83  1  0  0  0
 71 73  2  0  0  0
 71 75  1  0  0  0
 71147  1  0  0  0
 72 74  1  0  0  0
 72 75  2  0  0  0
 72148  1  0  0  0
 73 76  1  0  0  0
 73149  1  0  0  0
 74 76  2  0  0  0
 74150  1  0  0  0
 75 79  1  0  0  0
 76 87  1  0  0  0
 77 78  1  0  0  0
 77 79  1  0  0  0
 77151  1  0  0  0
 77152  1  0  0  0
 78 79  1  0  0  0
 78153  1  0  0  0
 78154  1  0  0  0
 79 84  1  0  0  0
 80 86  1  0  0  0
 80155  1  0  0  0
 80156  1  0  0  0
 80157  1  0  0  0
 81 82  1  0  0  0
 81 85  1  0  0  0
 81158  1  0  0  0
 81159  1  0  0  0
 82 87  1  0  0  0
 82160  1  0  0  0
 82161  1  0  0  0
 83162  1  0  0  0
 83163  1  0  0  0
 83 84  1  0  0  0
 84 86  1  0  0  0
 84164  1  0  0  0
 85165  1  0  0  0
 86166  1  0  0  0
 86167  1  0  0  0
M  CHG  1  86   1
M  ISO  4   1 100  68 101  83 101  85 100
M  END
> <chiral flag>
0

> <version>
0

> <s_m_source_file>
/data/baiqing/PycharmProjects/Reinvent-master-3.2/result/LINK_invent/BTK/process_docking_weight1_custom_sum_contain_oxygen_bond_distance_aromatic_linkinvent_7_9_3/rearranged_h_0146.sdf

> <i_m_source_file_index>
51

> <r_mmod_Potential_Energy-OPLS-2005>
26658.9140625

> <r_mmod_Stretch_Energy-OPLS-2005>
16335.427734375

> <r_mmod_Bend_Energy-OPLS-2005>
2231.93725585938

> <r_mmod_Torsional_Energy-OPLS-2005>
572.528747558594

> <r_mmod_Improper_Torsional_Energy-OPLS-2005>
75.9050979614258

> <r_mmod_Van_der_Waal_Energy-OPLS-2005>
4756.64013671875

> <r_mmod_Electrostatic_Energy-OPLS-2005>
-323.146789550781

> <r_mmod_Solvation_Energy-OPLS-2005>
-477.903747558594

> <b_mmod_Minimization_Converged-OPLS-2005>
0

> <r_mmod_RMS_Derivative-OPLS-2005>
43.5409965515137

$$$$
51
                    3D
 Structure written by MMmdl.
165174  0  0  1  0            999 V2000
  -30.7102  -14.4358   20.5830 C   0  0  0  0  0  0
  -30.4215  -12.2849   19.4157 C   0  0  0  0  0  0
  -29.4949  -12.4945   18.2019 C   0  0  0  0  0  0
  -28.0138  -12.3700   18.6114 C   0  0  0  0  0  0
  -27.6644  -13.2019   19.8750 C   0  0  2  0  0  0
  -28.7033  -12.9639   20.9935 C   0  0  0  0  0  0
  -25.2597  -13.8130   20.5652 C   0  0  0  0  0  0
  -24.1842  -13.0409   20.9150 C   0  0  0  0  0  0
  -24.6392  -11.6879   20.8716 C   0  0  0  0  0  0
  -23.9055  -10.4267   21.0393 C   0  0  0  0  0  0
  -24.3594   -9.4190   21.9181 C   0  0  0  0  0  0
  -23.6258   -8.2236   22.0765 C   0  0  0  0  0  0
  -22.4246   -8.0266   21.3550 C   0  0  0  0  0  0
  -21.9887   -9.0239   20.4649 C   0  0  0  0  0  0
  -22.7219  -10.2115   20.3054 C   0  0  0  0  0  0
  -21.6844   -6.0722   22.5287 C   0  0  0  0  0  0
  -21.4009   -6.5636   23.8215 C   0  0  0  0  0  0
  -21.3671   -5.6800   24.9184 C   0  0  0  0  0  0
  -21.6058   -4.3062   24.7244 C   0  0  0  0  0  0
  -21.8823   -3.8146   23.4366 C   0  0  0  0  0  0
  -21.9193   -4.6951   22.3412 C   0  0  0  0  0  0
  -22.7879  -13.5231   21.1838 C   0  0  0  0  0  0
  -22.1650   -4.2142   21.0986 F   0  0  0  0  0  0
  -21.5636   -3.4548   25.7756 F   0  0  0  0  0  0
  -30.0385  -13.2619   20.4461 N   0  0  0  0  0  0
  -26.3039  -12.9300   20.3353 N   0  0  0  0  0  0
  -25.9320  -11.6464   20.5741 N   0  0  0  0  0  0
  -22.0500  -12.8241   22.0396 N   0  0  0  0  0  0
  -25.4312  -15.1835   20.4054 N   0  0  0  0  0  0
  -31.8267  -14.6347   20.0937 O   0  0  0  0  0  0
  -21.6618   -6.8860   21.4244 O   0  0  0  0  0  0
  -22.3585  -14.5555   20.6702 O   0  0  0  0  0  0
  -24.6115  -31.8711   23.2132 C   0  0  0  0  0  0
  -25.9024  -32.4841   23.8420 C   0  0  1  0  0  0
  -27.2525  -27.4648   20.0915 C   0  0  0  0  0  0
  -25.5889  -33.8637   24.2352 N   0  0  0  0  0  0
  -23.3996  -30.4944   21.5517 C   0  0  2  0  0  0
  -24.8516  -28.9618   20.1212 C   0  0  0  0  0  0
  -22.7395  -29.4680   22.4998 C   0  0  0  0  0  0
  -18.0269  -28.1382   22.8494 C   0  0  0  0  0  0
  -24.1482  -36.7320   23.2632 C   0  0  0  0  0  0
  -25.9253  -30.8449   21.3637 C   0  0  0  0  0  0
  -26.0086  -29.4781   20.7192 C   0  0  0  0  0  0
  -27.2115  -28.7372   20.7128 C   0  0  0  0  0  0
  -26.0784  -26.9603   19.4970 C   0  0  0  0  0  0
  -24.8786  -27.6958   19.5120 C   0  0  0  0  0  0
  -23.6107  -29.8253   20.1672 C   0  0  0  0  0  0
  -25.4096  -36.3122   24.0344 C   0  0  1  0  0  0
  -20.5858  -28.3666   23.1321 C   0  0  2  0  0  0
  -20.6760  -26.9404   22.5417 C   0  0  0  0  0  0
  -19.5738  -26.6395   21.5208 C   0  0  0  0  0  0
  -18.1917  -26.7928   22.1624 C   0  0  0  0  0  0
  -19.1520  -28.8841   23.2905 C   0  0  0  0  0  0
  -18.9452  -30.1446   23.8917 C   0  0  0  0  0  0
  -17.6455  -30.6585   24.0575 C   0  0  0  0  0  0
  -25.9029  -34.9487   23.5146 C   0  0  0  0  0  0
  -16.5344  -29.9092   23.6326 C   0  0  0  0  0  0
  -16.7259  -28.6511   23.0343 C   0  0  0  0  0  0
  -26.4470  -31.6601   25.0728 C   0  0  0  0  0  0
  -25.3752  -31.3701   26.1490 C   0  0  0  0  0  0
  -27.0282  -30.3043   24.6075 C   0  0  0  0  0  0
  -27.6069  -32.4298   25.7473 C   0  0  0  0  0  0
  -27.5588  -37.1795   24.8452 C   0  0  0  0  0  0
  -21.4126  -29.3040   22.3730 N   0  0  0  0  0  0
  -26.4282  -37.3808   23.9432 N   0  0  0  0  0  0
  -24.6634  -31.0837   22.1018 N   0  0  0  0  0  0
  -23.4177  -28.8220   23.3034 O   0  0  0  0  0  0
  -28.3669  -26.6596   19.9997 O   0  0  0  0  0  0
  -26.5589  -34.8934   22.4705 O   0  0  0  0  0  0
  -23.5316  -32.1453   23.7539 O   0  0  0  0  0  0
  -31.0790  -17.4921   21.8557 C   0  0  0  0  0  0
  -30.1269  -18.8376   20.3198 C   0  0  0  0  0  0
  -31.0016  -18.8355   21.3789 C   0  0  0  0  0  0
  -30.2663  -16.7413   21.0537 C   0  0  0  0  0  0
  -29.1877  -16.3085   17.9731 C   0  0  0  0  0  0
  -28.8895  -17.7707   17.7340 C   0  0  0  0  0  0
  -28.6753  -17.1671   19.1059 C   0  0  0  0  0  0
  -30.8212  -22.1508   21.3712 C   0  0  0  0  0  0
  -31.1611  -23.4851   20.6663 C   0  0  0  0  0  0
  -30.5877  -25.8970   20.4222 C   0  0  0  0  0  0
  -31.8793  -21.0571   21.1097 C   0  0  0  0  0  0
  -29.5472  -26.9953   20.7177 C   0  0  0  0  0  0
  -29.6683  -17.5478   20.0992 N   0  0  0  0  0  0
  -30.0261  -15.4123   21.2023 N   0  0  0  0  0  0
  -30.1945  -24.5709   20.9658 N   0  3  0  0  0  0
  -31.6733  -19.9036   21.9295 O   0  0  0  0  0  0
  -31.4666  -12.3789   19.1164 H   0  0  0  0  0  0
  -30.3144  -11.2723   19.8071 H   0  0  0  0  0  0
  -29.7267  -11.7676   17.4224 H   0  0  0  0  0  0
  -29.6803  -13.4747   17.7643 H   0  0  0  0  0  0
  -27.8105  -11.3148   18.7980 H   0  0  0  0  0  0
  -27.3687  -12.6580   17.7801 H   0  0  0  0  0  0
  -27.7155  -14.2526   19.5913 H   0  0  0  0  0  0
  -28.6712  -11.9247   21.3241 H   0  0  0  0  0  0
  -28.4620  -13.5529   21.8793 H   0  0  0  0  0  0
  -25.2729   -9.5656   22.4769 H   0  0  0  0  0  0
  -23.9959   -7.4634   22.7495 H   0  0  0  0  0  0
  -21.0825   -8.8750   19.8948 H   0  0  0  0  0  0
  -22.3667  -10.9651   19.6169 H   0  0  0  0  0  0
  -21.1992   -7.6140   23.9714 H   0  0  0  0  0  0
  -21.1485   -6.0527   25.9086 H   0  0  0  0  0  0
  -22.0593   -2.7606   23.2876 H   0  0  0  0  0  0
  -22.4050  -11.9884   22.4798 H   0  0  0  0  0  0
  -21.1152  -13.1357   22.2612 H   0  0  0  0  0  0
  -24.6583  -15.8350   20.4886 H   0  0  0  0  0  0
  -26.2864  -15.6219   20.0919 H   0  0  0  0  0  0
  -26.7103  -32.5586   23.1200 H   0  0  0  0  0  0
  -25.0039  -33.9806   25.0497 H   0  0  0  0  0  0
  -22.6862  -31.3094   21.4124 H   0  0  0  0  0  0
  -23.3752  -35.9642   23.3271 H   0  0  0  0  0  0
  -24.3596  -36.8955   22.2053 H   0  0  0  0  0  0
  -23.7218  -37.6513   23.6658 H   0  0  0  0  0  0
  -26.0300  -31.6077   20.5908 H   0  0  0  0  0  0
  -26.8154  -30.9077   21.9775 H   0  0  0  0  0  0
  -28.0915  -29.1609   21.1751 H   0  0  0  0  0  0
  -26.0969  -25.9911   19.0187 H   0  0  0  0  0  0
  -23.9902  -27.2873   19.0499 H   0  0  0  0  0  0
  -23.7182  -30.6004   19.4076 H   0  0  0  0  0  0
  -22.7360  -29.2440   19.8702 H   0  0  0  0  0  0
  -25.1258  -36.1986   25.0833 H   0  0  0  0  0  0
  -20.9953  -28.3241   24.1441 H   0  0  0  0  0  0
  -20.5662  -26.2276   23.3606 H   0  0  0  0  0  0
  -21.6635  -26.7453   22.1212 H   0  0  0  0  0  0
  -19.6899  -25.6311   21.1226 H   0  0  0  0  0  0
  -19.6673  -27.3221   20.6749 H   0  0  0  0  0  0
  -17.4183  -26.6680   21.4027 H   0  0  0  0  0  0
  -18.0319  -26.0065   22.9019 H   0  0  0  0  0  0
  -19.7930  -30.7254   24.2300 H   0  0  0  0  0  0
  -17.5013  -31.6266   24.5176 H   0  0  0  0  0  0
  -15.5347  -30.3005   23.7636 H   0  0  0  0  0  0
  -15.8659  -28.0840   22.7045 H   0  0  0  0  0  0
  -24.5907  -30.7062   25.7840 H   0  0  0  0  0  0
  -24.8962  -32.2854   26.4974 H   0  0  0  0  0  0
  -25.8117  -30.8849   27.0227 H   0  0  0  0  0  0
  -26.2807  -29.6810   24.1154 H   0  0  0  0  0  0
  -27.4083  -29.7273   25.4516 H   0  0  0  0  0  0
  -27.8634  -30.4364   23.9193 H   0  0  0  0  0  0
  -27.2717  -33.3595   26.2085 H   0  0  0  0  0  0
  -28.3856  -32.6856   25.0274 H   0  0  0  0  0  0
  -28.0759  -31.8391   26.5353 H   0  0  0  0  0  0
  -28.2566  -38.0132   24.7574 H   0  0  0  0  0  0
  -28.1121  -36.2672   24.6169 H   0  0  0  0  0  0
  -27.2327  -37.1319   25.8857 H   0  0  0  0  0  0
  -20.9278  -29.8769   21.6965 H   0  0  0  0  0  0
  -26.0168  -38.2876   24.1478 H   0  0  0  0  0  0
  -31.6595  -17.1238   22.6901 H   0  0  0  0  0  0
  -29.7742  -19.6464   19.6959 H   0  0  0  0  0  0
  -30.2341  -16.0076   17.9815 H   0  0  0  0  0  0
  -28.4991  -15.5888   17.5342 H   0  0  0  0  0  0
  -28.0026  -18.0101   17.1503 H   0  0  0  0  0  0
  -29.7447  -18.4218   17.5644 H   0  0  0  0  0  0
  -27.6715  -17.0521   19.5082 H   0  0  0  0  0  0
  -29.8402  -21.7964   21.0533 H   0  0  0  0  0  0
  -30.7542  -22.3217   22.4456 H   0  0  0  0  0  0
  -31.2104  -23.3334   19.5865 H   0  0  0  0  0  0
  -32.1550  -23.8088   20.9779 H   0  0  0  0  0  0
  -31.5484  -26.1879   20.8487 H   0  0  0  0  0  0
  -30.7345  -25.8196   19.3439 H   0  0  0  0  0  0
  -32.8655  -21.4481   21.3643 H   0  0  0  0  0  0
  -31.9306  -20.8023   20.0496 H   0  0  0  0  0  0
  -29.9293  -27.9588   20.3773 H   0  0  0  0  0  0
  -29.3476  -27.0719   21.7875 H   0  0  0  0  0  0
  -29.1134  -15.1492   21.5389 H   0  0  0  0  0  0
  -30.0898  -24.6475   21.9658 H   0  0  0  0  0  0
  -29.2932  -24.3255   20.5839 H   0  0  0  0  0  0
  1 25  1  0  0  0
  1 30  2  0  0  0
  1 84  1  0  0  0
  2  3  1  0  0  0
  2 25  1  0  0  0
  2 87  1  0  0  0
  2 88  1  0  0  0
  3  4  1  0  0  0
  3 89  1  0  0  0
  3 90  1  0  0  0
  4  5  1  0  0  0
  4 91  1  0  0  0
  4 92  1  0  0  0
  5  6  1  0  0  0
  5 26  1  0  0  0
  5 93  1  0  0  0
  6 25  1  0  0  0
  6 94  1  0  0  0
  6 95  1  0  0  0
  7  8  2  0  0  0
  7 26  1  0  0  0
  7 29  1  0  0  0
  8  9  1  0  0  0
  8 22  1  0  0  0
  9 10  1  0  0  0
  9 27  2  0  0  0
 10 11  2  0  0  0
 10 15  1  0  0  0
 11 12  1  0  0  0
 11 96  1  0  0  0
 12 13  2  0  0  0
 12 97  1  0  0  0
 13 14  1  0  0  0
 13 31  1  0  0  0
 14 15  2  0  0  0
 14 98  1  0  0  0
 15 99  1  0  0  0
 16 17  2  0  0  0
 16 21  1  0  0  0
 16 31  1  0  0  0
 17 18  1  0  0  0
 17100  1  0  0  0
 18 19  2  0  0  0
 18101  1  0  0  0
 19 20  1  0  0  0
 19 24  1  0  0  0
 20 21  2  0  0  0
 20102  1  0  0  0
 21 23  1  0  0  0
 22 28  1  0  0  0
 22 32  2  0  0  0
 26 27  1  0  0  0
 28103  1  0  0  0
 28104  1  0  0  0
 29105  1  0  0  0
 29106  1  0  0  0
 33 34  1  0  0  0
 33 66  1  0  0  0
 33 70  2  0  0  0
 34 36  1  0  0  0
 34 59  1  0  0  0
 34107  1  0  0  0
 35 44  2  0  0  0
 35 45  1  0  0  0
 35 68  1  0  0  0
 36 56  1  0  0  0
 36108  1  0  0  0
 37 39  1  0  0  0
 37 47  1  0  0  0
 37 66  1  0  0  0
 37109  1  0  0  0
 38 43  2  0  0  0
 38 46  1  0  0  0
 38 47  1  0  0  0
 39 64  1  0  0  0
 39 67  2  0  0  0
 40 52  1  0  0  0
 40 53  2  0  0  0
 40 58  1  0  0  0
 41110  1  0  0  0
 41111  1  0  0  0
 41112  1  0  0  0
 41 48  1  0  0  0
 42 43  1  0  0  0
 42 66  1  0  0  0
 42113  1  0  0  0
 42114  1  0  0  0
 43 44  1  0  0  0
 44115  1  0  0  0
 45 46  2  0  0  0
 45116  1  0  0  0
 46117  1  0  0  0
 47118  1  0  0  0
 47119  1  0  0  0
 48 56  1  0  0  0
 48 65  1  0  0  0
 48120  1  0  0  0
 49 50  1  0  0  0
 49 53  1  0  0  0
 49 64  1  0  0  0
 49121  1  0  0  0
 50 51  1  0  0  0
 50122  1  0  0  0
 50123  1  0  0  0
 51 52  1  0  0  0
 51124  1  0  0  0
 51125  1  0  0  0
 52126  1  0  0  0
 52127  1  0  0  0
 53 54  1  0  0  0
 54 55  2  0  0  0
 54128  1  0  0  0
 55 57  1  0  0  0
 55129  1  0  0  0
 56 69  2  0  0  0
 57 58  2  0  0  0
 57130  1  0  0  0
 58131  1  0  0  0
 59 60  1  0  0  0
 59 61  1  0  0  0
 59 62  1  0  0  0
 60132  1  0  0  0
 60133  1  0  0  0
 60134  1  0  0  0
 61135  1  0  0  0
 61136  1  0  0  0
 61137  1  0  0  0
 62138  1  0  0  0
 62139  1  0  0  0
 62140  1  0  0  0
 63 65  1  0  0  0
 63141  1  0  0  0
 63142  1  0  0  0
 63143  1  0  0  0
 64144  1  0  0  0
 65145  1  0  0  0
 68 82  1  0  0  0
 71 73  1  0  0  0
 71 74  2  0  0  0
 71146  1  0  0  0
 72 73  2  0  0  0
 72 83  1  0  0  0
 72147  1  0  0  0
 73 86  1  0  0  0
 74 83  1  0  0  0
 74 84  1  0  0  0
 75 76  1  0  0  0
 75 77  1  0  0  0
 75148  1  0  0  0
 75149  1  0  0  0
 76 77  1  0  0  0
 76150  1  0  0  0
 76151  1  0  0  0
 77 83  1  0  0  0
 77152  1  0  0  0
 78 79  1  0  0  0
 78 81  1  0  0  0
 78153  1  0  0  0
 78154  1  0  0  0
 79 85  1  0  0  0
 79155  1  0  0  0
 79156  1  0  0  0
 80 82  1  0  0  0
 80 85  1  0  0  0
 80157  1  0  0  0
 80158  1  0  0  0
 81 86  1  0  0  0
 81159  1  0  0  0
 81160  1  0  0  0
 82161  1  0  0  0
 82162  1  0  0  0
 84163  1  0  0  0
 85164  1  0  0  0
 85165  1  0  0  0
M  CHG  1  85   1
M  ISO  4   1 100  68 101  82 101  84 100
M  END
> <chiral flag>
0

> <version>
0

> <s_m_source_file>
/data/baiqing/PycharmProjects/Reinvent-master-3.2/result/LINK_invent/BTK/process_docking_weight1_custom_sum_contain_oxygen_bond_distance_aromatic_linkinvent_7_9_3/rearranged_h_0146.sdf

> <i_m_source_file_index>
52

> <r_mmod_Potential_Energy-OPLS-2005>
-171.765701293945

> <r_mmod_Stretch_Energy-OPLS-2005>
32.3918380737305

> <r_mmod_Bend_Energy-OPLS-2005>
115.067321777344

> <r_mmod_Torsional_Energy-OPLS-2005>
285.594299316406

> <r_mmod_Improper_Torsional_Energy-OPLS-2005>
4.06371021270752

> <r_mmod_Van_der_Waal_Energy-OPLS-2005>
119.485778808594

> <r_mmod_Electrostatic_Energy-OPLS-2005>
-278.505950927734

> <r_mmod_Solvation_Energy-OPLS-2005>
-459.082489013672

> <b_mmod_Minimization_Converged-OPLS-2005>
0

> <r_mmod_RMS_Derivative-OPLS-2005>
1.47068953514099

$$$$
52
                    3D
 Structure written by MMmdl.
159168  0  0  1  0            999 V2000
  -30.6751  -14.5100   20.5453 C   0  0  0  0  0  0
  -30.4292  -12.3214   19.4265 C   0  0  0  0  0  0
  -29.4986  -12.5071   18.2090 C   0  0  0  0  0  0
  -28.0194  -12.3606   18.6209 C   0  0  0  0  0  0
  -27.6609  -13.2060   19.8729 C   0  0  2  0  0  0
  -28.7058  -12.9979   20.9936 C   0  0  0  0  0  0
  -25.2600  -13.8152   20.5688 C   0  0  0  0  0  0
  -24.1851  -13.0431   20.9185 C   0  0  0  0  0  0
  -24.6406  -11.6896   20.8745 C   0  0  0  0  0  0
  -23.9070  -10.4287   21.0406 C   0  0  0  0  0  0
  -24.3619   -9.4203   21.9184 C   0  0  0  0  0  0
  -23.6292   -8.2242   22.0757 C   0  0  0  0  0  0
  -22.4274   -8.0281   21.3546 C   0  0  0  0  0  0
  -21.9910   -9.0253   20.4648 C   0  0  0  0  0  0
  -22.7246  -10.2132   20.3052 C   0  0  0  0  0  0
  -21.6852   -6.0735   22.5286 C   0  0  0  0  0  0
  -21.4018   -6.5642   23.8218 C   0  0  0  0  0  0
  -21.3656   -5.6796   24.9181 C   0  0  0  0  0  0
  -21.6045   -4.3054   24.7232 C   0  0  0  0  0  0
  -21.8819   -3.8149   23.4348 C   0  0  0  0  0  0
  -21.9195   -4.6967   22.3407 C   0  0  0  0  0  0
  -22.7874  -13.5228   21.1850 C   0  0  0  0  0  0
  -22.1658   -4.2150   21.0981 F   0  0  0  0  0  0
  -21.5625   -3.4535   25.7734 F   0  0  0  0  0  0
  -30.0338  -13.3129   20.4380 N   0  0  0  0  0  0
  -26.3024  -12.9321   20.3361 N   0  0  0  0  0  0
  -25.9334  -11.6481   20.5770 N   0  0  0  0  0  0
  -22.0519  -12.8217   22.0407 N   0  0  0  0  0  0
  -25.4329  -15.1879   20.4099 N   0  0  0  0  0  0
  -31.8097  -14.7088   20.1041 O   0  0  0  0  0  0
  -21.6643   -6.8878   21.4240 O   0  0  0  0  0  0
  -22.3558  -14.5534   20.6707 O   0  0  0  0  0  0
  -24.6178  -31.8645   23.2099 C   0  0  0  0  0  0
  -25.9070  -32.4786   23.8385 C   0  0  1  0  0  0
  -27.2323  -27.3961   20.0833 C   0  0  0  0  0  0
  -25.5937  -33.8591   24.2300 N   0  0  0  0  0  0
  -23.4063  -30.4886   21.5514 C   0  0  2  0  0  0
  -24.8510  -28.9545   20.1130 C   0  0  0  0  0  0
  -22.7425  -29.4636   22.4992 C   0  0  0  0  0  0
  -18.0267  -28.1372   22.8490 C   0  0  0  0  0  0
  -24.1491  -36.7298   23.2642 C   0  0  0  0  0  0
  -25.9403  -30.8135   21.3725 C   0  0  0  0  0  0
  -26.0144  -29.4463   20.7166 C   0  0  0  0  0  0
  -27.2027  -28.6717   20.7068 C   0  0  0  0  0  0
  -26.0426  -26.9357   19.4684 C   0  0  0  0  0  0
  -24.8615  -27.6985   19.4884 C   0  0  0  0  0  0
  -23.6142  -29.8246   20.1654 C   0  0  0  0  0  0
  -25.4116  -36.3077   24.0325 C   0  0  1  0  0  0
  -20.5853  -28.3661   23.1316 C   0  0  2  0  0  0
  -20.6751  -26.9396   22.5422 C   0  0  0  0  0  0
  -19.5737  -26.6380   21.5211 C   0  0  0  0  0  0
  -18.1917  -26.7921   22.1614 C   0  0  0  0  0  0
  -19.1519  -28.8840   23.2886 C   0  0  0  0  0  0
  -18.9451  -30.1453   23.8880 C   0  0  0  0  0  0
  -17.6451  -30.6574   24.0564 C   0  0  0  0  0  0
  -25.9065  -34.9453   23.5105 C   0  0  0  0  0  0
  -16.5343  -29.9075   23.6339 C   0  0  0  0  0  0
  -16.7257  -28.6500   23.0350 C   0  0  0  0  0  0
  -26.4494  -31.6577   25.0731 C   0  0  0  0  0  0
  -25.3759  -31.3694   26.1485 C   0  0  0  0  0  0
  -27.0345  -30.3011   24.6155 C   0  0  0  0  0  0
  -27.6060  -32.4310   25.7490 C   0  0  0  0  0  0
  -27.5576  -37.1800   24.8470 C   0  0  0  0  0  0
  -21.4151  -29.3022   22.3725 N   0  0  0  0  0  0
  -26.4287  -37.3774   23.9418 N   0  0  0  0  0  0
  -24.6725  -31.0722   22.1017 N   0  0  0  0  0  0
  -23.4186  -28.8182   23.3045 O   0  0  0  0  0  0
  -28.3980  -26.6368   20.1032 O   0  0  0  0  0  0
  -26.5622  -34.8916   22.4663 O   0  0  0  0  0  0
  -23.5362  -32.1425   23.7480 O   0  0  0  0  0  0
  -30.4365  -20.1342   20.1668 C   0  0  0  0  0  0
  -30.1872  -21.5278   20.0285 C   0  0  0  0  0  0
  -28.3702  -19.6781   19.0236 C   0  0  0  0  0  0
  -29.5294  -19.1825   19.6513 C   0  0  0  0  0  0
  -28.1332  -21.0648   18.8750 C   0  0  0  0  0  0
  -29.0374  -22.0478   19.3731 C   0  0  0  0  0  0
  -29.7166  -24.5260   19.4342 C   0  0  0  0  0  0
  -27.7291  -24.1464   19.8273 C   0  0  0  0  0  0
  -28.4519  -25.4189   19.3169 C   0  0  0  0  0  0
  -26.8858  -21.4726   18.1037 C   0  0  0  0  0  0
  -29.7865  -17.6582   19.6527 C   0  0  0  0  0  0
  -30.1807  -16.9784   20.9948 C   0  0  0  0  0  0
  -28.7880  -23.4409   19.1076 N   0  0  0  0  0  0
  -29.9117  -15.5228   21.0045 N   0  0  0  0  0  0
  -31.4741  -12.4269   19.1302 H   0  0  0  0  0  0
  -30.3354  -11.3122   19.8309 H   0  0  0  0  0  0
  -29.7428  -11.7811   17.4326 H   0  0  0  0  0  0
  -29.6597  -13.4923   17.7677 H   0  0  0  0  0  0
  -27.8363  -11.3044   18.8233 H   0  0  0  0  0  0
  -27.3670  -12.6239   17.7873 H   0  0  0  0  0  0
  -27.6981  -14.2515   19.5658 H   0  0  0  0  0  0
  -28.6911  -11.9638   21.3405 H   0  0  0  0  0  0
  -28.4678  -13.5995   21.8724 H   0  0  0  0  0  0
  -25.2763   -9.5681   22.4759 H   0  0  0  0  0  0
  -24.0007   -7.4629   22.7471 H   0  0  0  0  0  0
  -21.0844   -8.8771   19.8953 H   0  0  0  0  0  0
  -22.3704  -10.9668   19.6163 H   0  0  0  0  0  0
  -21.2007   -7.6149   23.9721 H   0  0  0  0  0  0
  -21.1478   -6.0523   25.9083 H   0  0  0  0  0  0
  -22.0599   -2.7609   23.2848 H   0  0  0  0  0  0
  -22.4118  -11.9853   22.4757 H   0  0  0  0  0  0
  -21.1146  -13.1266   22.2629 H   0  0  0  0  0  0
  -24.6699  -15.8463   20.5218 H   0  0  0  0  0  0
  -26.2869  -15.6256   20.0878 H   0  0  0  0  0  0
  -26.7139  -32.5481   23.1139 H   0  0  0  0  0  0
  -25.0141  -33.9753   25.0480 H   0  0  0  0  0  0
  -22.6958  -31.3065   21.4145 H   0  0  0  0  0  0
  -23.3736  -35.9645   23.3306 H   0  0  0  0  0  0
  -24.3612  -36.8921   22.2064 H   0  0  0  0  0  0
  -23.7252  -37.6503   23.6670 H   0  0  0  0  0  0
  -26.0681  -31.5787   20.6055 H   0  0  0  0  0  0
  -26.8220  -30.8586   22.0003 H   0  0  0  0  0  0
  -28.0989  -29.0487   21.1800 H   0  0  0  0  0  0
  -25.9911  -25.9860   18.9616 H   0  0  0  0  0  0
  -23.9680  -27.3157   19.0150 H   0  0  0  0  0  0
  -23.7214  -30.6015   19.4080 H   0  0  0  0  0  0
  -22.7365  -29.2480   19.8656 H   0  0  0  0  0  0
  -25.1274  -36.1926   25.0808 H   0  0  0  0  0  0
  -20.9932  -28.3216   24.1444 H   0  0  0  0  0  0
  -20.5671  -26.2260   23.3610 H   0  0  0  0  0  0
  -21.6619  -26.7447   22.1204 H   0  0  0  0  0  0
  -19.6910  -25.6299   21.1236 H   0  0  0  0  0  0
  -19.6673  -27.3197   20.6750 H   0  0  0  0  0  0
  -17.4187  -26.6676   21.4016 H   0  0  0  0  0  0
  -18.0322  -26.0039   22.8985 H   0  0  0  0  0  0
  -19.7932  -30.7273   24.2224 H   0  0  0  0  0  0
  -17.5012  -31.6253   24.5173 H   0  0  0  0  0  0
  -15.5344  -30.2970   23.7686 H   0  0  0  0  0  0
  -15.8658  -28.0826   22.7048 H   0  0  0  0  0  0
  -24.5947  -30.7009   25.7852 H   0  0  0  0  0  0
  -24.8928  -32.2844   26.4915 H   0  0  0  0  0  0
  -25.8123  -30.8904   27.0260 H   0  0  0  0  0  0
  -26.2899  -29.6748   24.1227 H   0  0  0  0  0  0
  -27.4110  -29.7282   25.4641 H   0  0  0  0  0  0
  -27.8738  -30.4301   23.9317 H   0  0  0  0  0  0
  -27.2658  -33.3613   26.2045 H   0  0  0  0  0  0
  -28.3876  -32.6860   25.0322 H   0  0  0  0  0  0
  -28.0717  -31.8452   26.5424 H   0  0  0  0  0  0
  -28.2572  -38.0115   24.7521 H   0  0  0  0  0  0
  -28.1070  -36.2642   24.6249 H   0  0  0  0  0  0
  -27.2315  -37.1397   25.8878 H   0  0  0  0  0  0
  -20.9332  -29.8744   21.6933 H   0  0  0  0  0  0
  -26.0153  -38.2839   24.1420 H   0  0  0  0  0  0
  -31.3480  -19.8029   20.6444 H   0  0  0  0  0  0
  -30.9297  -22.2125   20.4141 H   0  0  0  0  0  0
  -27.6604  -18.9790   18.6025 H   0  0  0  0  0  0
  -30.1293  -24.4686   20.4427 H   0  0  0  0  0  0
  -30.4794  -24.7132   18.6769 H   0  0  0  0  0  0
  -26.7271  -23.9827   19.4320 H   0  0  0  0  0  0
  -27.7763  -24.0069   20.9097 H   0  0  0  0  0  0
  -28.2304  -25.6377   18.2677 H   0  0  0  0  0  0
  -26.5570  -20.6729   17.4403 H   0  0  0  0  0  0
  -27.0633  -22.3469   17.4767 H   0  0  0  0  0  0
  -26.0710  -21.6972   18.7916 H   0  0  0  0  0  0
  -30.5543  -17.4459   18.9070 H   0  0  0  0  0  0
  -28.8859  -17.1694   19.2792 H   0  0  0  0  0  0
  -29.5797  -17.4100   21.7957 H   0  0  0  0  0  0
  -31.2232  -17.1838   21.2432 H   0  0  0  0  0  0
  -28.9978  -15.2453   21.3308 H   0  0  0  0  0  0
  1 25  1  0  0  0
  1 30  2  0  0  0
  1 84  1  0  0  0
  2  3  1  0  0  0
  2 25  1  0  0  0
  2 85  1  0  0  0
  2 86  1  0  0  0
  3  4  1  0  0  0
  3 87  1  0  0  0
  3 88  1  0  0  0
  4  5  1  0  0  0
  4 89  1  0  0  0
  4 90  1  0  0  0
  5  6  1  0  0  0
  5 26  1  0  0  0
  5 91  1  0  0  0
  6 25  1  0  0  0
  6 92  1  0  0  0
  6 93  1  0  0  0
  7  8  2  0  0  0
  7 26  1  0  0  0
  7 29  1  0  0  0
  8  9  1  0  0  0
  8 22  1  0  0  0
  9 10  1  0  0  0
  9 27  2  0  0  0
 10 11  2  0  0  0
 10 15  1  0  0  0
 11 12  1  0  0  0
 11 94  1  0  0  0
 12 13  2  0  0  0
 12 95  1  0  0  0
 13 14  1  0  0  0
 13 31  1  0  0  0
 14 15  2  0  0  0
 14 96  1  0  0  0
 15 97  1  0  0  0
 16 17  2  0  0  0
 16 21  1  0  0  0
 16 31  1  0  0  0
 17 18  1  0  0  0
 17 98  1  0  0  0
 18 19  2  0  0  0
 18 99  1  0  0  0
 19 20  1  0  0  0
 19 24  1  0  0  0
 20 21  2  0  0  0
 20100  1  0  0  0
 21 23  1  0  0  0
 22 28  1  0  0  0
 22 32  2  0  0  0
 26 27  1  0  0  0
 28101  1  0  0  0
 28102  1  0  0  0
 29103  1  0  0  0
 29104  1  0  0  0
 33 34  1  0  0  0
 33 66  1  0  0  0
 33 70  2  0  0  0
 34 36  1  0  0  0
 34 59  1  0  0  0
 34105  1  0  0  0
 35 44  2  0  0  0
 35 45  1  0  0  0
 35 68  1  0  0  0
 36 56  1  0  0  0
 36106  1  0  0  0
 37 39  1  0  0  0
 37 47  1  0  0  0
 37 66  1  0  0  0
 37107  1  0  0  0
 38 43  2  0  0  0
 38 46  1  0  0  0
 38 47  1  0  0  0
 39 64  1  0  0  0
 39 67  2  0  0  0
 40 52  1  0  0  0
 40 53  2  0  0  0
 40 58  1  0  0  0
 41108  1  0  0  0
 41109  1  0  0  0
 41110  1  0  0  0
 41 48  1  0  0  0
 42 43  1  0  0  0
 42 66  1  0  0  0
 42111  1  0  0  0
 42112  1  0  0  0
 43 44  1  0  0  0
 44113  1  0  0  0
 45 46  2  0  0  0
 45114  1  0  0  0
 46115  1  0  0  0
 47116  1  0  0  0
 47117  1  0  0  0
 48 56  1  0  0  0
 48 65  1  0  0  0
 48118  1  0  0  0
 49 50  1  0  0  0
 49 53  1  0  0  0
 49 64  1  0  0  0
 49119  1  0  0  0
 50 51  1  0  0  0
 50120  1  0  0  0
 50121  1  0  0  0
 51 52  1  0  0  0
 51122  1  0  0  0
 51123  1  0  0  0
 52124  1  0  0  0
 52125  1  0  0  0
 53 54  1  0  0  0
 54 55  2  0  0  0
 54126  1  0  0  0
 55 57  1  0  0  0
 55127  1  0  0  0
 56 69  2  0  0  0
 57 58  2  0  0  0
 57128  1  0  0  0
 58129  1  0  0  0
 59 60  1  0  0  0
 59 61  1  0  0  0
 59 62  1  0  0  0
 60130  1  0  0  0
 60131  1  0  0  0
 60132  1  0  0  0
 61133  1  0  0  0
 61134  1  0  0  0
 61135  1  0  0  0
 62136  1  0  0  0
 62137  1  0  0  0
 62138  1  0  0  0
 63 65  1  0  0  0
 63139  1  0  0  0
 63140  1  0  0  0
 63141  1  0  0  0
 64142  1  0  0  0
 65143  1  0  0  0
 68 79  1  0  0  0
 71 72  2  0  0  0
 71 74  1  0  0  0
 71144  1  0  0  0
 72 76  1  0  0  0
 72145  1  0  0  0
 73 74  2  0  0  0
 73 75  1  0  0  0
 73146  1  0  0  0
 74 81  1  0  0  0
 75 76  2  0  0  0
 75 80  1  0  0  0
 76 83  1  0  0  0
 77 79  1  0  0  0
 77 83  1  0  0  0
 77147  1  0  0  0
 77148  1  0  0  0
 78 79  1  0  0  0
 78 83  1  0  0  0
 78149  1  0  0  0
 78150  1  0  0  0
 79151  1  0  0  0
 80152  1  0  0  0
 80153  1  0  0  0
 80154  1  0  0  0
 81 82  1  0  0  0
 81155  1  0  0  0
 81156  1  0  0  0
 82 84  1  0  0  0
 82157  1  0  0  0
 82158  1  0  0  0
 84159  1  0  0  0
M  ISO  4   1 100  68 101  79 101  84 100
M  END
> <chiral flag>
0

> <version>
0

> <s_m_source_file>
/data/baiqing/PycharmProjects/Reinvent-master-3.2/result/LINK_invent/BTK/process_docking_weight1_custom_sum_contain_oxygen_bond_distance_aromatic_linkinvent_7_9_3/rearranged_h_0146.sdf

> <i_m_source_file_index>
53

> <r_mmod_Potential_Energy-OPLS-2005>
-3.92335653305054

> <r_mmod_Stretch_Energy-OPLS-2005>
46.2379722595215

> <r_mmod_Bend_Energy-OPLS-2005>
166.69108581543

> <r_mmod_Torsional_Energy-OPLS-2005>
218.635803222656

> <r_mmod_Improper_Torsional_Energy-OPLS-2005>
11.6745529174805

> <r_mmod_Van_der_Waal_Energy-OPLS-2005>
155.473083496094

> <r_mmod_Electrostatic_Energy-OPLS-2005>
-395.179443359375

> <r_mmod_Solvation_Energy-OPLS-2005>
-225.983840942383

> <b_mmod_Minimization_Converged-OPLS-2005>
0

> <r_mmod_RMS_Derivative-OPLS-2005>
1.78582727909088

$$$$
53
                    3D
 Structure written by MMmdl.
184195  0  0  1  0            999 V2000
  -30.7844  -14.3470   20.7226 C   0  0  0  0  0  0
  -30.4224  -12.3001   19.3778 C   0  0  0  0  0  0
  -29.4844  -12.5531   18.1834 C   0  0  0  0  0  0
  -28.0096  -12.3963   18.6032 C   0  0  0  0  0  0
  -27.6724  -13.1966   19.8879 C   0  0  2  0  0  0
  -28.7175  -12.8823   20.9860 C   0  0  0  0  0  0
  -25.2621  -13.8123   20.5718 C   0  0  0  0  0  0
  -24.1868  -13.0409   20.9201 C   0  0  0  0  0  0
  -24.6397  -11.6879   20.8731 C   0  0  0  0  0  0
  -23.9053  -10.4255   21.0393 C   0  0  0  0  0  0
  -24.3583   -9.4188   21.9200 C   0  0  0  0  0  0
  -23.6250   -8.2221   22.0754 C   0  0  0  0  0  0
  -22.4238   -8.0257   21.3527 C   0  0  0  0  0  0
  -21.9883   -9.0236   20.4643 C   0  0  0  0  0  0
  -22.7235  -10.2102   20.3041 C   0  0  0  0  0  0
  -21.6840   -6.0714   22.5269 C   0  0  0  0  0  0
  -21.4011   -6.5605   23.8202 C   0  0  0  0  0  0
  -21.3643   -5.6755   24.9155 C   0  0  0  0  0  0
  -21.6047   -4.3020   24.7213 C   0  0  0  0  0  0
  -21.8828   -3.8121   23.4338 C   0  0  0  0  0  0
  -21.9191   -4.6942   22.3387 C   0  0  0  0  0  0
  -22.7888  -13.5230   21.1831 C   0  0  0  0  0  0
  -22.1645   -4.2126   21.0971 F   0  0  0  0  0  0
  -21.5624   -3.4500   25.7727 F   0  0  0  0  0  0
  -30.0548  -13.2217   20.4658 N   0  0  0  0  0  0
  -26.3069  -12.9296   20.3411 N   0  0  0  0  0  0
  -25.9324  -11.6450   20.5743 N   0  0  0  0  0  0
  -22.0476  -12.8260   22.0363 N   0  0  0  0  0  0
  -25.4267  -15.1858   20.4135 N   0  0  0  0  0  0
  -31.7895  -14.6399   20.0641 O   0  0  0  0  0  0
  -21.6618   -6.8852   21.4223 O   0  0  0  0  0  0
  -22.3604  -14.5526   20.6642 O   0  0  0  0  0  0
  -24.6083  -31.8722   23.2154 C   0  0  0  0  0  0
  -25.9007  -32.4843   23.8425 C   0  0  1  0  0  0
  -27.2411  -27.4990   20.0862 C   0  0  0  0  0  0
  -25.5910  -33.8632   24.2378 N   0  0  0  0  0  0
  -23.3910  -30.4956   21.5558 C   0  0  2  0  0  0
  -24.8364  -28.9630   20.1221 C   0  0  0  0  0  0
  -22.7346  -29.4697   22.5057 C   0  0  0  0  0  0
  -18.0263  -28.1359   22.8520 C   0  0  0  0  0  0
  -24.1475  -36.7279   23.2632 C   0  0  0  0  0  0
  -25.9115  -30.8575   21.3577 C   0  0  0  0  0  0
  -25.9906  -29.4945   20.7090 C   0  0  0  0  0  0
  -27.1954  -28.7677   20.6928 C   0  0  0  0  0  0
  -26.0738  -26.9585   19.5063 C   0  0  0  0  0  0
  -24.8692  -27.6902   19.5219 C   0  0  0  0  0  0
  -23.5922  -29.8202   20.1719 C   0  0  0  0  0  0
  -25.4100  -36.3115   24.0352 C   0  0  1  0  0  0
  -20.5849  -28.3627   23.1348 C   0  0  2  0  0  0
  -20.6750  -26.9371   22.5419 C   0  0  0  0  0  0
  -19.5717  -26.6380   21.5220 C   0  0  0  0  0  0
  -18.1891  -26.7920   22.1620 C   0  0  0  0  0  0
  -19.1512  -28.8817   23.2924 C   0  0  0  0  0  0
  -18.9443  -30.1440   23.8902 C   0  0  0  0  0  0
  -17.6442  -30.6575   24.0576 C   0  0  0  0  0  0
  -25.9032  -34.9485   23.5163 C   0  0  0  0  0  0
  -16.5330  -29.9064   23.6353 C   0  0  0  0  0  0
  -16.7254  -28.6473   23.0378 C   0  0  0  0  0  0
  -26.4478  -31.6583   25.0704 C   0  0  0  0  0  0
  -25.3789  -31.3584   26.1468 C   0  0  0  0  0  0
  -27.0306  -30.3058   24.5980 C   0  0  0  0  0  0
  -27.6058  -32.4295   25.7463 C   0  0  0  0  0  0
  -27.5606  -37.1763   24.8456 C   0  0  0  0  0  0
  -21.4096  -29.3013   22.3766 N   0  0  0  0  0  0
  -26.4274  -37.3819   23.9470 N   0  0  0  0  0  0
  -24.6544  -31.0886   22.1023 N   0  0  0  0  0  0
  -23.4143  -28.8269   23.3101 O   0  0  0  0  0  0
  -28.4449  -26.8542   20.0082 O   0  0  0  0  0  0
  -26.5569  -34.8925   22.4706 O   0  0  0  0  0  0
  -23.5299  -32.1459   23.7595 O   0  0  0  0  0  0
  -31.3471  -19.6462   21.2730 C   0  0  0  0  0  0
  -30.4015  -21.5882   23.0592 C   0  0  0  0  0  0
  -30.8843  -19.2556   22.5447 C   0  0  0  0  0  0
  -30.7384  -21.9590   21.7372 C   0  0  0  0  0  0
  -31.2749  -20.9843   20.8574 C   0  0  0  0  0  0
  -30.4680  -20.2372   23.4730 C   0  0  0  0  0  0
  -30.4228  -24.5159   22.1823 C   0  0  0  0  0  0
  -28.8927  -23.2132   20.6680 C   0  0  0  0  0  0
  -29.5428  -18.5679   27.1791 C   0  0  0  0  0  0
  -29.8836  -19.8401   27.9088 C   0  0  0  0  0  0
  -30.0049  -25.8177   21.4704 C   0  0  0  0  0  0
  -28.4705  -24.4808   19.9336 C   0  0  0  0  0  0
  -29.5464  -17.2547   21.9041 C   0  0  0  0  0  0
  -31.9345  -16.9087   22.6369 C   0  0  0  0  0  0
  -29.2893  -15.7594   22.0988 C   0  0  0  0  0  0
  -31.6106  -15.4061   22.7931 C   0  0  0  0  0  0
  -30.6719  -17.7699   22.8181 C   0  0  0  0  0  0
  -30.3318  -23.3279   21.2007 C   0  0  2  0  0  0
  -28.8695  -19.8730   26.7861 C   0  0  0  0  0  0
  -28.6029  -25.7162   20.8338 C   0  0  2  0  0  0
  -31.7022  -21.3080   19.4318 C   0  0  0  0  0  0
  -29.1875  -20.5926   25.4843 C   0  0  0  0  0  0
  -30.5213  -14.9811   21.8917 N   0  0  0  0  0  0
  -30.1098  -19.8158   24.7328 O   0  0  0  0  0  0
  -31.4645  -12.4062   19.0704 H   0  0  0  0  0  0
  -30.3233  -11.2680   19.7192 H   0  0  0  0  0  0
  -29.7178  -11.8626   17.3725 H   0  0  0  0  0  0
  -29.6497  -13.5568   17.7870 H   0  0  0  0  0  0
  -27.8266  -11.3350   18.7743 H   0  0  0  0  0  0
  -27.3508  -12.6964   17.7852 H   0  0  0  0  0  0
  -27.7379  -14.2559   19.6369 H   0  0  0  0  0  0
  -28.6966  -11.8157   21.2128 H   0  0  0  0  0  0
  -28.4728  -13.3542   21.9345 H   0  0  0  0  0  0
  -25.2702   -9.5668   22.4804 H   0  0  0  0  0  0
  -23.9942   -7.4617   22.7471 H   0  0  0  0  0  0
  -21.0811   -8.8782   19.8955 H   0  0  0  0  0  0
  -22.3716  -10.9635   19.6134 H   0  0  0  0  0  0
  -21.2005   -7.6115   23.9696 H   0  0  0  0  0  0
  -21.1439   -6.0480   25.9051 H   0  0  0  0  0  0
  -22.0625   -2.7584   23.2843 H   0  0  0  0  0  0
  -22.4055  -11.9953   22.4847 H   0  0  0  0  0  0
  -21.1061  -13.1285   22.2402 H   0  0  0  0  0  0
  -24.6537  -15.8268   20.5518 H   0  0  0  0  0  0
  -26.2611  -15.6400   20.0630 H   0  0  0  0  0  0
  -26.7075  -32.5578   23.1191 H   0  0  0  0  0  0
  -25.0144  -33.9812   25.0582 H   0  0  0  0  0  0
  -22.6784  -31.3110   21.4176 H   0  0  0  0  0  0
  -23.3807  -35.9537   23.3217 H   0  0  0  0  0  0
  -24.3605  -36.8958   22.2066 H   0  0  0  0  0  0
  -23.7120  -37.6417   23.6678 H   0  0  0  0  0  0
  -26.0196  -31.6299   20.5955 H   0  0  0  0  0  0
  -26.7998  -30.9072   21.9731 H   0  0  0  0  0  0
  -28.0921  -29.1853   21.1279 H   0  0  0  0  0  0
  -26.0953  -25.9959   19.0168 H   0  0  0  0  0  0
  -23.9806  -27.2754   19.0647 H   0  0  0  0  0  0
  -23.6825  -30.5892   19.4036 H   0  0  0  0  0  0
  -22.7210  -29.2257   19.8903 H   0  0  0  0  0  0
  -25.1269  -36.1974   25.0840 H   0  0  0  0  0  0
  -20.9946  -28.3163   24.1464 H   0  0  0  0  0  0
  -20.5666  -26.2217   23.3588 H   0  0  0  0  0  0
  -21.6621  -26.7415   22.1198 H   0  0  0  0  0  0
  -19.6863  -25.6297   21.1221 H   0  0  0  0  0  0
  -19.6676  -27.3225   20.6776 H   0  0  0  0  0  0
  -17.4185  -26.6736   21.3991 H   0  0  0  0  0  0
  -18.0240  -26.0031   22.8968 H   0  0  0  0  0  0
  -19.7917  -30.7279   24.2232 H   0  0  0  0  0  0
  -17.4986  -31.6257   24.5159 H   0  0  0  0  0  0
  -15.5330  -30.2954   23.7677 H   0  0  0  0  0  0
  -15.8651  -28.0787   22.7100 H   0  0  0  0  0  0
  -24.6004  -30.6884   25.7809 H   0  0  0  0  0  0
  -24.8932  -32.2671   26.5023 H   0  0  0  0  0  0
  -25.8212  -30.8706   27.0160 H   0  0  0  0  0  0
  -26.2780  -29.6788   24.1172 H   0  0  0  0  0  0
  -27.4292  -29.7318   25.4359 H   0  0  0  0  0  0
  -27.8522  -30.4453   23.8945 H   0  0  0  0  0  0
  -27.2698  -33.3622   26.2004 H   0  0  0  0  0  0
  -28.3873  -32.6798   25.0278 H   0  0  0  0  0  0
  -28.0687  -31.8415   26.5397 H   0  0  0  0  0  0
  -28.2520  -38.0173   24.7740 H   0  0  0  0  0  0
  -28.1212  -36.2735   24.5996 H   0  0  0  0  0  0
  -27.2342  -37.1033   25.8843 H   0  0  0  0  0  0
  -20.9230  -29.8693   21.6972 H   0  0  0  0  0  0
  -26.0160  -38.2859   24.1620 H   0  0  0  0  0  0
  -31.6743  -18.8935   20.5695 H   0  0  0  0  0  0
  -30.0249  -22.3396   23.7341 H   0  0  0  0  0  0
  -29.7734  -24.3702   23.0449 H   0  0  0  0  0  0
  -31.4387  -24.6159   22.5651 H   0  0  0  0  0  0
  -28.8005  -22.3642   19.9906 H   0  0  0  0  0  0
  -28.2046  -23.0177   21.4913 H   0  0  0  0  0  0
  -28.9320  -17.8315   27.6963 H   0  0  0  0  0  0
  -30.3221  -18.1526   26.5423 H   0  0  0  0  0  0
  -30.8598  -20.2806   27.7180 H   0  0  0  0  0  0
  -29.5117  -19.9497   28.9256 H   0  0  0  0  0  0
  -30.7360  -26.0484   20.6942 H   0  0  0  0  0  0
  -30.0314  -26.6531   22.1711 H   0  0  0  0  0  0
  -27.4453  -24.3655   19.5874 H   0  0  0  0  0  0
  -29.0884  -24.6033   19.0433 H   0  0  0  0  0  0
  -28.6298  -17.8158   22.0910 H   0  0  0  0  0  0
  -29.7987  -17.4318   20.8572 H   0  0  0  0  0  0
  -32.3706  -17.0639   21.6500 H   0  0  0  0  0  0
  -32.6927  -17.2131   23.3594 H   0  0  0  0  0  0
  -28.5090  -15.4865   21.3915 H   0  0  0  0  0  0
  -28.8911  -15.5615   23.0943 H   0  0  0  0  0  0
  -31.3119  -15.1907   23.8195 H   0  0  0  0  0  0
  -32.5152  -14.8206   22.6157 H   0  0  0  0  0  0
  -30.3341  -17.6316   23.8457 H   0  0  0  0  0  0
  -30.9955  -23.5803   20.3743 H   0  0  0  0  0  0
  -27.8402  -20.0069   27.1113 H   0  0  0  0  0  0
  -27.8527  -25.6796   21.6274 H   0  0  0  0  0  0
  -31.8578  -20.4015   18.8449 H   0  0  0  0  0  0
  -32.6437  -21.8566   19.4391 H   0  0  0  0  0  0
  -30.9533  -21.9008   18.9074 H   0  0  0  0  0  0
  -29.5818  -21.5816   25.7200 H   0  0  0  0  0  0
  -28.2640  -20.7200   24.9154 H   0  0  0  0  0  0
  1 25  1  0  0  0
  1 30  2  0  0  0
  1 93  1  0  0  0
  2  3  1  0  0  0
  2 25  1  0  0  0
  2 95  1  0  0  0
  2 96  1  0  0  0
  3  4  1  0  0  0
  3 97  1  0  0  0
  3 98  1  0  0  0
  4  5  1  0  0  0
  4 99  1  0  0  0
  4100  1  0  0  0
  5  6  1  0  0  0
  5 26  1  0  0  0
  5101  1  0  0  0
  6 25  1  0  0  0
  6102  1  0  0  0
  6103  1  0  0  0
  7  8  2  0  0  0
  7 26  1  0  0  0
  7 29  1  0  0  0
  8  9  1  0  0  0
  8 22  1  0  0  0
  9 10  1  0  0  0
  9 27  2  0  0  0
 10 11  2  0  0  0
 10 15  1  0  0  0
 11 12  1  0  0  0
 11104  1  0  0  0
 12 13  2  0  0  0
 12105  1  0  0  0
 13 14  1  0  0  0
 13 31  1  0  0  0
 14 15  2  0  0  0
 14106  1  0  0  0
 15107  1  0  0  0
 16 17  2  0  0  0
 16 21  1  0  0  0
 16 31  1  0  0  0
 17 18  1  0  0  0
 17108  1  0  0  0
 18 19  2  0  0  0
 18109  1  0  0  0
 19 20  1  0  0  0
 19 24  1  0  0  0
 20 21  2  0  0  0
 20110  1  0  0  0
 21 23  1  0  0  0
 22 28  1  0  0  0
 22 32  2  0  0  0
 26 27  1  0  0  0
 28111  1  0  0  0
 28112  1  0  0  0
 29113  1  0  0  0
 29114  1  0  0  0
 33 34  1  0  0  0
 33 66  1  0  0  0
 33 70  2  0  0  0
 34 36  1  0  0  0
 34 59  1  0  0  0
 34115  1  0  0  0
 35 44  2  0  0  0
 35 45  1  0  0  0
 35 68  1  0  0  0
 36 56  1  0  0  0
 36116  1  0  0  0
 37 39  1  0  0  0
 37 47  1  0  0  0
 37 66  1  0  0  0
 37117  1  0  0  0
 38 43  2  0  0  0
 38 46  1  0  0  0
 38 47  1  0  0  0
 39 64  1  0  0  0
 39 67  2  0  0  0
 40 52  1  0  0  0
 40 53  2  0  0  0
 40 58  1  0  0  0
 41118  1  0  0  0
 41119  1  0  0  0
 41120  1  0  0  0
 41 48  1  0  0  0
 42 43  1  0  0  0
 42 66  1  0  0  0
 42121  1  0  0  0
 42122  1  0  0  0
 43 44  1  0  0  0
 44123  1  0  0  0
 45 46  2  0  0  0
 45124  1  0  0  0
 46125  1  0  0  0
 47126  1  0  0  0
 47127  1  0  0  0
 48 56  1  0  0  0
 48 65  1  0  0  0
 48128  1  0  0  0
 49 50  1  0  0  0
 49 53  1  0  0  0
 49 64  1  0  0  0
 49129  1  0  0  0
 50 51  1  0  0  0
 50130  1  0  0  0
 50131  1  0  0  0
 51 52  1  0  0  0
 51132  1  0  0  0
 51133  1  0  0  0
 52134  1  0  0  0
 52135  1  0  0  0
 53 54  1  0  0  0
 54 55  2  0  0  0
 54136  1  0  0  0
 55 57  1  0  0  0
 55137  1  0  0  0
 56 69  2  0  0  0
 57 58  2  0  0  0
 57138  1  0  0  0
 58139  1  0  0  0
 59 60  1  0  0  0
 59 61  1  0  0  0
 59 62  1  0  0  0
 60140  1  0  0  0
 60141  1  0  0  0
 60142  1  0  0  0
 61143  1  0  0  0
 61144  1  0  0  0
 61145  1  0  0  0
 62146  1  0  0  0
 62147  1  0  0  0
 62148  1  0  0  0
 63 65  1  0  0  0
 63149  1  0  0  0
 63150  1  0  0  0
 63151  1  0  0  0
 64152  1  0  0  0
 65153  1  0  0  0
 68 90  1  0  0  0
 71 73  2  0  0  0
 71 75  1  0  0  0
 71154  1  0  0  0
 72 74  1  0  0  0
 72 76  2  0  0  0
 72155  1  0  0  0
 73 76  1  0  0  0
 73 87  1  0  0  0
 74 75  2  0  0  0
 74 88  1  0  0  0
 75 91  1  0  0  0
 76 94  1  0  0  0
 77 81  1  0  0  0
 77 88  1  0  0  0
 77156  1  0  0  0
 77157  1  0  0  0
 78 82  1  0  0  0
 78 88  1  0  0  0
 78158  1  0  0  0
 78159  1  0  0  0
 79 80  1  0  0  0
 79 89  1  0  0  0
 79160  1  0  0  0
 79161  1  0  0  0
 80 89  1  0  0  0
 80162  1  0  0  0
 80163  1  0  0  0
 81 90  1  0  0  0
 81164  1  0  0  0
 81165  1  0  0  0
 82 90  1  0  0  0
 82166  1  0  0  0
 82167  1  0  0  0
 83 85  1  0  0  0
 83 87  1  0  0  0
 83168  1  0  0  0
 83169  1  0  0  0
 84 86  1  0  0  0
 84 87  1  0  0  0
 84170  1  0  0  0
 84171  1  0  0  0
 85 93  1  0  0  0
 85172  1  0  0  0
 85173  1  0  0  0
 86 93  1  0  0  0
 86174  1  0  0  0
 86175  1  0  0  0
 87176  1  0  0  0
 88177  1  0  0  0
 89 92  1  0  0  0
 89178  1  0  0  0
 90179  1  0  0  0
 91180  1  0  0  0
 91181  1  0  0  0
 91182  1  0  0  0
 92 94  1  0  0  0
 92183  1  0  0  0
 92184  1  0  0  0
M  ISO  4   1 100  68 101  90 101  93 100
M  END
> <chiral flag>
0

> <version>
0

> <s_m_source_file>
/data/baiqing/PycharmProjects/Reinvent-master-3.2/result/LINK_invent/BTK/process_docking_weight1_custom_sum_contain_oxygen_bond_distance_aromatic_linkinvent_7_9_3/rearranged_h_0146.sdf

> <i_m_source_file_index>
54

> <r_mmod_Potential_Energy-OPLS-2005>
242.009094238281

> <r_mmod_Stretch_Energy-OPLS-2005>
36.5530586242676

> <r_mmod_Bend_Energy-OPLS-2005>
112.745330810547

> <r_mmod_Torsional_Energy-OPLS-2005>
400.466888427734

> <r_mmod_Improper_Torsional_Energy-OPLS-2005>
9.50146770477295

> <r_mmod_Van_der_Waal_Energy-OPLS-2005>
172.839630126953

> <r_mmod_Electrostatic_Energy-OPLS-2005>
-309.118011474609

> <r_mmod_Solvation_Energy-OPLS-2005>
-189.4755859375

> <b_mmod_Minimization_Converged-OPLS-2005>
0

> <r_mmod_RMS_Derivative-OPLS-2005>
3.08426880836487

$$$$
54
                    3D
 Structure written by MMmdl.
168177  0  0  1  0            999 V2000
  -30.6627  -14.5853   20.4955 C   0  0  0  0  0  0
  -30.4274  -12.3581   19.4443 C   0  0  0  0  0  0
  -29.4996  -12.4927   18.2174 C   0  0  0  0  0  0
  -28.0233  -12.3408   18.6330 C   0  0  0  0  0  0
  -27.6509  -13.2142   19.8609 C   0  0  2  0  0  0
  -28.6973  -13.0782   20.9908 C   0  0  0  0  0  0
  -25.2560  -13.8171   20.5690 C   0  0  0  0  0  0
  -24.1823  -13.0438   20.9191 C   0  0  0  0  0  0
  -24.6389  -11.6908   20.8746 C   0  0  0  0  0  0
  -23.9064  -10.4289   21.0397 C   0  0  0  0  0  0
  -24.3620   -9.4203   21.9174 C   0  0  0  0  0  0
  -23.6297   -8.2238   22.0746 C   0  0  0  0  0  0
  -22.4276   -8.0273   21.3539 C   0  0  0  0  0  0
  -21.9913   -9.0245   20.4638 C   0  0  0  0  0  0
  -22.7242  -10.2124   20.3042 C   0  0  0  0  0  0
  -21.6851   -6.0731   22.5276 C   0  0  0  0  0  0
  -21.4005   -6.5634   23.8208 C   0  0  0  0  0  0
  -21.3665   -5.6790   24.9172 C   0  0  0  0  0  0
  -21.6050   -4.3054   24.7223 C   0  0  0  0  0  0
  -21.8820   -3.8140   23.4345 C   0  0  0  0  0  0
  -21.9192   -4.6956   22.3401 C   0  0  0  0  0  0
  -22.7842  -13.5229   21.1853 C   0  0  0  0  0  0
  -22.1661   -4.2141   21.0978 F   0  0  0  0  0  0
  -21.5643   -3.4538   25.7736 F   0  0  0  0  0  0
  -30.0150  -13.3850   20.4177 N   0  0  0  0  0  0
  -26.2981  -12.9346   20.3326 N   0  0  0  0  0  0
  -25.9314  -11.6508   20.5761 N   0  0  0  0  0  0
  -22.0490  -12.8211   22.0401 N   0  0  0  0  0  0
  -25.4305  -15.1886   20.4116 N   0  0  0  0  0  0
  -31.8385  -14.7141   20.1440 O   0  0  0  0  0  0
  -21.6644   -6.8869   21.4236 O   0  0  0  0  0  0
  -22.3528  -14.5540   20.6707 O   0  0  0  0  0  0
  -24.6200  -31.8643   23.2058 C   0  0  0  0  0  0
  -25.9071  -32.4805   23.8376 C   0  0  1  0  0  0
  -27.2277  -27.3799   20.1158 C   0  0  0  0  0  0
  -25.5910  -33.8605   24.2307 N   0  0  0  0  0  0
  -23.4123  -30.4859   21.5468 C   0  0  2  0  0  0
  -24.8626  -28.9491   20.1087 C   0  0  0  0  0  0
  -22.7452  -29.4633   22.4961 C   0  0  0  0  0  0
  -18.0279  -28.1376   22.8492 C   0  0  0  0  0  0
  -24.1489  -36.7300   23.2637 C   0  0  0  0  0  0
  -25.9468  -30.8141   21.3673 C   0  0  0  0  0  0
  -26.0265  -29.4456   20.7121 C   0  0  0  0  0  0
  -27.2168  -28.6695   20.7114 C   0  0  0  0  0  0
  -26.0517  -26.9180   19.4909 C   0  0  0  0  0  0
  -24.8736  -27.6880   19.4895 C   0  0  0  0  0  0
  -23.6246  -29.8193   20.1612 C   0  0  0  0  0  0
  -25.4109  -36.3103   24.0338 C   0  0  1  0  0  0
  -20.5877  -28.3670   23.1304 C   0  0  2  0  0  0
  -20.6766  -26.9400   22.5415 C   0  0  0  0  0  0
  -19.5746  -26.6381   21.5212 C   0  0  0  0  0  0
  -18.1925  -26.7925   22.1618 C   0  0  0  0  0  0
  -19.1532  -28.8838   23.2894 C   0  0  0  0  0  0
  -18.9455  -30.1444   23.8906 C   0  0  0  0  0  0
  -17.6457  -30.6583   24.0554 C   0  0  0  0  0  0
  -25.9041  -34.9468   23.5120 C   0  0  0  0  0  0
  -16.5347  -29.9077   23.6331 C   0  0  0  0  0  0
  -16.7266  -28.6491   23.0360 C   0  0  0  0  0  0
  -26.4481  -31.6597   25.0724 C   0  0  0  0  0  0
  -25.3731  -31.3710   26.1461 C   0  0  0  0  0  0
  -27.0309  -30.3035   24.6123 C   0  0  0  0  0  0
  -27.6061  -32.4310   25.7487 C   0  0  0  0  0  0
  -27.5588  -37.1796   24.8459 C   0  0  0  0  0  0
  -21.4172  -29.3032   22.3709 N   0  0  0  0  0  0
  -26.4288  -37.3797   23.9423 N   0  0  0  0  0  0
  -24.6783  -31.0696   22.0979 N   0  0  0  0  0  0
  -23.4200  -28.8177   23.3023 O   0  0  0  0  0  0
  -28.3152  -26.5193   20.1680 O   0  0  0  0  0  0
  -26.5607  -34.8927   22.4685 O   0  0  0  0  0  0
  -23.5379  -32.1409   23.7417 O   0  0  0  0  0  0
  -29.4461  -21.8868   21.9108 C   0  0  0  0  0  0
  -29.1040  -23.5536   19.6845 C   0  0  0  0  0  0
  -29.8358  -21.3911   20.6459 C   0  0  0  0  0  0
  -28.7576  -24.0604   20.9587 C   0  0  0  0  0  0
  -29.6393  -22.2354   19.5163 C   0  0  0  0  0  0
  -28.9041  -23.1958   22.0775 C   0  0  0  0  0  0
  -29.5589  -16.4633   21.7562 C   0  0  0  0  0  0
  -29.6082  -16.4963   19.3223 C   0  0  0  0  0  0
  -30.1722  -17.9062   21.7765 C   0  0  0  0  0  0
  -30.2656  -17.9064   19.3415 C   0  0  0  0  0  0
  -29.8789  -22.5586   17.1432 C   0  0  0  0  0  0
  -28.5663  -22.8366   24.4415 C   0  0  0  0  0  0
  -30.6415  -20.0573   20.5503 C   0  0  0  0  0  0
  -28.1402  -25.4755   21.1707 C   0  0  0  0  0  0
  -29.8554  -15.6918   20.5351 N   0  0  0  0  0  0
  -29.9262  -18.7218   20.5443 N   0  3  0  0  0  0
  -30.0149  -21.7281   18.2904 O   0  0  0  0  0  0
  -28.5097  -23.6906   23.3048 O   0  0  0  0  0  0
  -31.4708  -12.4652   19.1413 H   0  0  0  0  0  0
  -30.3425  -11.3638   19.8857 H   0  0  0  0  0  0
  -29.7550  -11.7424   17.4683 H   0  0  0  0  0  0
  -29.6499  -13.4631   17.7408 H   0  0  0  0  0  0
  -27.8556  -11.2884   18.8661 H   0  0  0  0  0  0
  -27.3672  -12.5708   17.7923 H   0  0  0  0  0  0
  -27.6650  -14.2473   19.5158 H   0  0  0  0  0  0
  -28.6935  -12.0684   21.4030 H   0  0  0  0  0  0
  -28.4578  -13.7482   21.8186 H   0  0  0  0  0  0
  -25.2762   -9.5684   22.4753 H   0  0  0  0  0  0
  -24.0011   -7.4624   22.7459 H   0  0  0  0  0  0
  -21.0845   -8.8751   19.8941 H   0  0  0  0  0  0
  -22.3693  -10.9658   19.6146 H   0  0  0  0  0  0
  -21.1983   -7.6140   23.9707 H   0  0  0  0  0  0
  -21.1497   -6.0520   25.9080 H   0  0  0  0  0  0
  -22.0599   -2.7601   23.2843 H   0  0  0  0  0  0
  -22.4103  -11.9870   22.4786 H   0  0  0  0  0  0
  -21.1103  -13.1220   22.2605 H   0  0  0  0  0  0
  -24.6679  -15.8489   20.5198 H   0  0  0  0  0  0
  -26.2905  -15.6224   20.1038 H   0  0  0  0  0  0
  -26.7142  -32.5507   23.1137 H   0  0  0  0  0  0
  -25.0073  -33.9758   25.0462 H   0  0  0  0  0  0
  -22.7031  -31.3043   21.4057 H   0  0  0  0  0  0
  -23.3767  -35.9615   23.3279 H   0  0  0  0  0  0
  -24.3601  -36.8935   22.2058 H   0  0  0  0  0  0
  -23.7212  -37.6486   23.6665 H   0  0  0  0  0  0
  -26.0667  -31.5798   20.5993 H   0  0  0  0  0  0
  -26.8306  -30.8660   21.9913 H   0  0  0  0  0  0
  -28.1091  -29.0395   21.1971 H   0  0  0  0  0  0
  -26.0402  -25.9401   19.0304 H   0  0  0  0  0  0
  -23.9809  -27.3006   19.0180 H   0  0  0  0  0  0
  -23.7317  -30.5945   19.4014 H   0  0  0  0  0  0
  -22.7482  -29.2392   19.8659 H   0  0  0  0  0  0
  -25.1283  -36.1958   25.0828 H   0  0  0  0  0  0
  -20.9962  -28.3225   24.1425 H   0  0  0  0  0  0
  -20.5661  -26.2274   23.3603 H   0  0  0  0  0  0
  -21.6636  -26.7432   22.1211 H   0  0  0  0  0  0
  -19.6904  -25.6293   21.1238 H   0  0  0  0  0  0
  -19.6691  -27.3190   20.6743 H   0  0  0  0  0  0
  -17.4200  -26.6684   21.4016 H   0  0  0  0  0  0
  -18.0317  -26.0058   22.9003 H   0  0  0  0  0  0
  -19.7932  -30.7258   24.2278 H   0  0  0  0  0  0
  -17.5012  -31.6270   24.5143 H   0  0  0  0  0  0
  -15.5349  -30.2976   23.7659 H   0  0  0  0  0  0
  -15.8666  -28.0806   22.7080 H   0  0  0  0  0  0
  -24.5915  -30.7046   25.7795 H   0  0  0  0  0  0
  -24.8905  -32.2860   26.4904 H   0  0  0  0  0  0
  -25.8071  -30.8888   27.0228 H   0  0  0  0  0  0
  -26.2856  -29.6802   24.1163 H   0  0  0  0  0  0
  -27.4055  -29.7274   25.4595 H   0  0  0  0  0  0
  -27.8708  -30.4354   23.9296 H   0  0  0  0  0  0
  -27.2696  -33.3612   26.2075 H   0  0  0  0  0  0
  -28.3865  -32.6856   25.0303 H   0  0  0  0  0  0
  -28.0729  -31.8417   26.5388 H   0  0  0  0  0  0
  -28.2578  -38.0123   24.7563 H   0  0  0  0  0  0
  -28.1112  -36.2661   24.6210 H   0  0  0  0  0  0
  -27.2323  -37.1345   25.8864 H   0  0  0  0  0  0
  -20.9337  -29.8762   21.6937 H   0  0  0  0  0  0
  -26.0175  -38.2870   24.1451 H   0  0  0  0  0  0
  -29.6136  -21.2481   22.7651 H   0  0  0  0  0  0
  -28.9517  -24.2120   18.8426 H   0  0  0  0  0  0
  -28.4741  -16.5315   21.8505 H   0  0  0  0  0  0
  -29.8970  -15.9156   22.6378 H   0  0  0  0  0  0
  -29.9475  -15.9599   18.4339 H   0  0  0  0  0  0
  -28.5297  -16.6024   19.2012 H   0  0  0  0  0  0
  -31.2495  -17.8129   21.9240 H   0  0  0  0  0  0
  -29.7962  -18.4501   22.6442 H   0  0  0  0  0  0
  -29.9754  -18.4554   18.4439 H   0  0  0  0  0  0
  -31.3489  -17.7848   19.2878 H   0  0  0  0  0  0
  -30.2172  -22.0148   16.2617 H   0  0  0  0  0  0
  -30.4889  -23.4593   17.2269 H   0  0  0  0  0  0
  -28.8391  -22.8417   16.9742 H   0  0  0  0  0  0
  -28.1664  -23.3631   25.3082 H   0  0  0  0  0  0
  -29.5924  -22.5523   24.6780 H   0  0  0  0  0  0
  -27.9638  -21.9381   24.3009 H   0  0  0  0  0  0
  -31.3609  -20.0699   21.3698 H   0  0  0  0  0  0
  -31.2798  -20.1260   19.6686 H   0  0  0  0  0  0
  -28.5536  -25.8856   22.0931 H   0  0  0  0  0  0
  -27.0821  -25.3079   21.3822 H   0  0  0  0  0  0
  -28.9388  -18.9253   20.4989 H   0  0  0  0  0  0
  1 25  1  0  0  0
  1 30  2  0  0  0
  1 85  1  0  0  0
  2  3  1  0  0  0
  2 25  1  0  0  0
  2 89  1  0  0  0
  2 90  1  0  0  0
  3  4  1  0  0  0
  3 91  1  0  0  0
  3 92  1  0  0  0
  4  5  1  0  0  0
  4 93  1  0  0  0
  4 94  1  0  0  0
  5  6  1  0  0  0
  5 26  1  0  0  0
  5 95  1  0  0  0
  6 25  1  0  0  0
  6 96  1  0  0  0
  6 97  1  0  0  0
  7  8  2  0  0  0
  7 26  1  0  0  0
  7 29  1  0  0  0
  8  9  1  0  0  0
  8 22  1  0  0  0
  9 10  1  0  0  0
  9 27  2  0  0  0
 10 11  2  0  0  0
 10 15  1  0  0  0
 11 12  1  0  0  0
 11 98  1  0  0  0
 12 13  2  0  0  0
 12 99  1  0  0  0
 13 14  1  0  0  0
 13 31  1  0  0  0
 14 15  2  0  0  0
 14100  1  0  0  0
 15101  1  0  0  0
 16 17  2  0  0  0
 16 21  1  0  0  0
 16 31  1  0  0  0
 17 18  1  0  0  0
 17102  1  0  0  0
 18 19  2  0  0  0
 18103  1  0  0  0
 19 20  1  0  0  0
 19 24  1  0  0  0
 20 21  2  0  0  0
 20104  1  0  0  0
 21 23  1  0  0  0
 22 28  1  0  0  0
 22 32  2  0  0  0
 26 27  1  0  0  0
 28105  1  0  0  0
 28106  1  0  0  0
 29107  1  0  0  0
 29108  1  0  0  0
 33 34  1  0  0  0
 33 66  1  0  0  0
 33 70  2  0  0  0
 34 36  1  0  0  0
 34 59  1  0  0  0
 34109  1  0  0  0
 35 44  2  0  0  0
 35 45  1  0  0  0
 35 68  1  0  0  0
 36 56  1  0  0  0
 36110  1  0  0  0
 37 39  1  0  0  0
 37 47  1  0  0  0
 37 66  1  0  0  0
 37111  1  0  0  0
 38 43  2  0  0  0
 38 46  1  0  0  0
 38 47  1  0  0  0
 39 64  1  0  0  0
 39 67  2  0  0  0
 40 52  1  0  0  0
 40 53  2  0  0  0
 40 58  1  0  0  0
 41112  1  0  0  0
 41113  1  0  0  0
 41114  1  0  0  0
 41 48  1  0  0  0
 42 43  1  0  0  0
 42 66  1  0  0  0
 42115  1  0  0  0
 42116  1  0  0  0
 43 44  1  0  0  0
 44117  1  0  0  0
 45 46  2  0  0  0
 45118  1  0  0  0
 46119  1  0  0  0
 47120  1  0  0  0
 47121  1  0  0  0
 48 56  1  0  0  0
 48 65  1  0  0  0
 48122  1  0  0  0
 49 50  1  0  0  0
 49 53  1  0  0  0
 49 64  1  0  0  0
 49123  1  0  0  0
 50 51  1  0  0  0
 50124  1  0  0  0
 50125  1  0  0  0
 51 52  1  0  0  0
 51126  1  0  0  0
 51127  1  0  0  0
 52128  1  0  0  0
 52129  1  0  0  0
 53 54  1  0  0  0
 54 55  2  0  0  0
 54130  1  0  0  0
 55 57  1  0  0  0
 55131  1  0  0  0
 56 69  2  0  0  0
 57 58  2  0  0  0
 57132  1  0  0  0
 58133  1  0  0  0
 59 60  1  0  0  0
 59 61  1  0  0  0
 59 62  1  0  0  0
 60134  1  0  0  0
 60135  1  0  0  0
 60136  1  0  0  0
 61137  1  0  0  0
 61138  1  0  0  0
 61139  1  0  0  0
 62140  1  0  0  0
 62141  1  0  0  0
 62142  1  0  0  0
 63 65  1  0  0  0
 63143  1  0  0  0
 63144  1  0  0  0
 63145  1  0  0  0
 64146  1  0  0  0
 65147  1  0  0  0
 68 84  1  0  0  0
 71 73  2  0  0  0
 71 76  1  0  0  0
 71148  1  0  0  0
 72 74  1  0  0  0
 72 75  2  0  0  0
 72149  1  0  0  0
 73 75  1  0  0  0
 73 83  1  0  0  0
 74 76  2  0  0  0
 74 84  1  0  0  0
 75 87  1  0  0  0
 76 88  1  0  0  0
 77 79  1  0  0  0
 77 85  1  0  0  0
 77150  1  0  0  0
 77151  1  0  0  0
 78 80  1  0  0  0
 78 85  1  0  0  0
 78152  1  0  0  0
 78153  1  0  0  0
 79 86  1  0  0  0
 79154  1  0  0  0
 79155  1  0  0  0
 80 86  1  0  0  0
 80156  1  0  0  0
 80157  1  0  0  0
 81 87  1  0  0  0
 81158  1  0  0  0
 81159  1  0  0  0
 81160  1  0  0  0
 82 88  1  0  0  0
 82161  1  0  0  0
 82162  1  0  0  0
 82163  1  0  0  0
 83164  1  0  0  0
 83165  1  0  0  0
 83 86  1  0  0  0
 84166  1  0  0  0
 84167  1  0  0  0
 86168  1  0  0  0
M  CHG  1  86   1
M  ISO  4   1 100  68 101  84 101  85 100
M  END
> <chiral flag>
0

> <version>
0

> <s_m_source_file>
/data/baiqing/PycharmProjects/Reinvent-master-3.2/result/LINK_invent/BTK/process_docking_weight1_custom_sum_contain_oxygen_bond_distance_aromatic_linkinvent_7_9_3/rearranged_h_0146.sdf

> <i_m_source_file_index>
55

> <r_mmod_Potential_Energy-OPLS-2005>
122.615112304688

> <r_mmod_Stretch_Energy-OPLS-2005>
61.4344177246094

> <r_mmod_Bend_Energy-OPLS-2005>
132.263458251953

> <r_mmod_Torsional_Energy-OPLS-2005>
425.554412841797

> <r_mmod_Improper_Torsional_Energy-OPLS-2005>
15.4116497039795

> <r_mmod_Van_der_Waal_Energy-OPLS-2005>
154.148849487305

> <r_mmod_Electrostatic_Energy-OPLS-2005>
-267.338500976562

> <r_mmod_Solvation_Energy-OPLS-2005>
-434.070220947266

> <b_mmod_Minimization_Converged-OPLS-2005>
0

> <r_mmod_RMS_Derivative-OPLS-2005>
1.07737767696381

$$$$
55
                    3D
 Structure written by MMmdl.
173182  0  0  1  0            999 V2000
  -30.6854  -14.5755   20.4408 C   0  0  0  0  0  0
  -30.4206  -12.3249   19.4632 C   0  0  0  0  0  0
  -29.4983  -12.4306   18.2291 C   0  0  0  0  0  0
  -28.0235  -12.2907   18.6479 C   0  0  0  0  0  0
  -27.6474  -13.1985   19.8512 C   0  0  2  0  0  0
  -28.6970  -13.1096   20.9825 C   0  0  0  0  0  0
  -25.2553  -13.8098   20.5713 C   0  0  0  0  0  0
  -24.1813  -13.0398   20.9180 C   0  0  0  0  0  0
  -24.6361  -11.6866   20.8743 C   0  0  0  0  0  0
  -23.9035  -10.4270   21.0420 C   0  0  0  0  0  0
  -24.3597   -9.4196   21.9200 C   0  0  0  0  0  0
  -23.6285   -8.2231   22.0768 C   0  0  0  0  0  0
  -22.4270   -8.0276   21.3558 C   0  0  0  0  0  0
  -21.9894   -9.0235   20.4659 C   0  0  0  0  0  0
  -22.7205  -10.2118   20.3079 C   0  0  0  0  0  0
  -21.6831   -6.0741   22.5278 C   0  0  0  0  0  0
  -21.4004   -6.5656   23.8212 C   0  0  0  0  0  0
  -21.3658   -5.6817   24.9176 C   0  0  0  0  0  0
  -21.6051   -4.3077   24.7232 C   0  0  0  0  0  0
  -21.8813   -3.8156   23.4354 C   0  0  0  0  0  0
  -21.9178   -4.6967   22.3408 C   0  0  0  0  0  0
  -22.7848  -13.5221   21.1859 C   0  0  0  0  0  0
  -22.1651   -4.2155   21.0984 F   0  0  0  0  0  0
  -21.5626   -3.4564   25.7743 F   0  0  0  0  0  0
  -30.0120  -13.3889   20.3953 N   0  0  0  0  0  0
  -26.2966  -12.9263   20.3319 N   0  0  0  0  0  0
  -25.9282  -11.6444   20.5783 N   0  0  0  0  0  0
  -22.0512  -12.8208   22.0415 N   0  0  0  0  0  0
  -25.4258  -15.1817   20.4206 N   0  0  0  0  0  0
  -31.9006  -14.6235   20.2363 O   0  0  0  0  0  0
  -21.6643   -6.8877   21.4241 O   0  0  0  0  0  0
  -22.3531  -14.5538   20.6708 O   0  0  0  0  0  0
  -24.6163  -31.8684   23.2119 C   0  0  0  0  0  0
  -25.9056  -32.4820   23.8404 C   0  0  1  0  0  0
  -27.2152  -27.3991   20.1103 C   0  0  0  0  0  0
  -25.5918  -33.8616   24.2332 N   0  0  0  0  0  0
  -23.4047  -30.4971   21.5524 C   0  0  2  0  0  0
  -24.8459  -28.9680   20.1098 C   0  0  0  0  0  0
  -22.7417  -29.4680   22.4974 C   0  0  0  0  0  0
  -18.0245  -28.1387   22.8486 C   0  0  0  0  0  0
  -24.1480  -36.7304   23.2635 C   0  0  0  0  0  0
  -25.9366  -30.8285   21.3686 C   0  0  0  0  0  0
  -26.0103  -29.4624   20.7111 C   0  0  0  0  0  0
  -27.1980  -28.6886   20.7028 C   0  0  0  0  0  0
  -26.0364  -26.9448   19.4730 C   0  0  0  0  0  0
  -24.8592  -27.7129   19.4819 C   0  0  0  0  0  0
  -23.6107  -29.8407   20.1615 C   0  0  0  0  0  0
  -25.4107  -36.3108   24.0336 C   0  0  1  0  0  0
  -20.5836  -28.3683   23.1285 C   0  0  2  0  0  0
  -20.6730  -26.9420   22.5351 C   0  0  0  0  0  0
  -19.5672  -26.6324   21.5221 C   0  0  0  0  0  0
  -18.1861  -26.7901   22.1669 C   0  0  0  0  0  0
  -19.1491  -28.8863   23.2878 C   0  0  0  0  0  0
  -18.9404  -30.1476   23.8889 C   0  0  0  0  0  0
  -17.6398  -30.6578   24.0563 C   0  0  0  0  0  0
  -25.9044  -34.9468   23.5137 C   0  0  0  0  0  0
  -16.5291  -29.9075   23.6345 C   0  0  0  0  0  0
  -16.7232  -28.6513   23.0339 C   0  0  0  0  0  0
  -26.4467  -31.6590   25.0725 C   0  0  0  0  0  0
  -25.3730  -31.3682   26.1472 C   0  0  0  0  0  0
  -27.0288  -30.3016   24.6134 C   0  0  0  0  0  0
  -27.6049  -32.4312   25.7465 C   0  0  0  0  0  0
  -27.5579  -37.1810   24.8477 C   0  0  0  0  0  0
  -21.4139  -29.3038   22.3707 N   0  0  0  0  0  0
  -26.4287  -37.3801   23.9427 N   0  0  0  0  0  0
  -24.6709  -31.0796   22.1014 N   0  0  0  0  0  0
  -23.4196  -28.8225   23.3011 O   0  0  0  0  0  0
  -28.3741  -26.6368   20.1546 O   0  0  0  0  0  0
  -26.5619  -34.8916   22.4699 O   0  0  0  0  0  0
  -23.5356  -32.1434   23.7518 O   0  0  0  0  0  0
  -30.1057  -22.3536   21.2664 C   0  0  0  0  0  0
  -28.8522  -22.9743   21.4596 C   0  0  0  0  0  0
  -30.2683  -20.9571   21.4249 C   0  0  0  0  0  0
  -27.7596  -22.1074   21.7648 C   0  0  0  0  0  0
  -29.1326  -20.1790   21.7500 C   0  0  0  0  0  0
  -29.1969  -17.3623   18.4728 C   0  0  0  0  0  0
  -28.2349  -17.2013   19.6390 C   0  0  0  0  0  0
  -30.2003  -16.2225   18.6735 C   0  0  0  0  0  0
  -29.1128  -16.6114   20.7540 C   0  0  1  0  0  0
  -31.6753  -20.3900   21.3162 C   0  0  0  0  0  0
  -25.4952  -22.4060   20.6298 C   0  0  0  0  0  0
  -25.9885  -23.8086   22.7130 C   0  0  0  0  0  0
  -28.8135  -24.5241   21.4166 C   0  0  0  0  0  0
  -29.9435  -17.7614   21.4156 C   0  0  0  0  0  0
  -28.2872  -25.1850   20.1181 C   0  0  0  0  0  0
  -26.2825  -22.5059   21.9489 C   0  0  0  0  0  0
  -27.9315  -20.7647   21.8970 N   0  0  0  0  0  0
  -29.9542  -15.6471   20.0075 N   0  0  0  0  0  0
  -29.1067  -18.7979   22.0434 N   0  0  0  0  0  0
  -31.4657  -12.4102   19.1610 H   0  0  0  0  0  0
  -30.3198  -11.3479   19.9435 H   0  0  0  0  0  0
  -29.7542  -11.6555   17.5071 H   0  0  0  0  0  0
  -29.6500  -13.3750   17.7135 H   0  0  0  0  0  0
  -27.8597  -11.2441   18.9063 H   0  0  0  0  0  0
  -27.3668  -12.4927   17.8012 H   0  0  0  0  0  0
  -27.6501  -14.2156   19.4653 H   0  0  0  0  0  0
  -28.6942  -12.1198   21.4414 H   0  0  0  0  0  0
  -28.4654  -13.8126   21.7808 H   0  0  0  0  0  0
  -25.2751   -9.5674   22.4771 H   0  0  0  0  0  0
  -23.9990   -7.4624   22.7493 H   0  0  0  0  0  0
  -21.0826   -8.8754   19.8969 H   0  0  0  0  0  0
  -22.3668  -10.9664   19.6205 H   0  0  0  0  0  0
  -21.2011   -7.6171   23.9709 H   0  0  0  0  0  0
  -21.1489   -6.0560   25.9080 H   0  0  0  0  0  0
  -22.0594   -2.7619   23.2850 H   0  0  0  0  0  0
  -22.4106  -11.9802   22.4703 H   0  0  0  0  0  0
  -21.1164  -13.1274   22.2722 H   0  0  0  0  0  0
  -24.6617  -15.8389   20.5307 H   0  0  0  0  0  0
  -26.2919  -15.6198   20.1386 H   0  0  0  0  0  0
  -26.7130  -32.5520   23.1165 H   0  0  0  0  0  0
  -25.0041  -33.9785   25.0456 H   0  0  0  0  0  0
  -22.6923  -31.3152   21.4217 H   0  0  0  0  0  0
  -23.3742  -35.9638   23.3319 H   0  0  0  0  0  0
  -24.3572  -36.8899   22.2046 H   0  0  0  0  0  0
  -23.7227  -37.6505   23.6640 H   0  0  0  0  0  0
  -26.0618  -31.6043   20.6115 H   0  0  0  0  0  0
  -26.8190  -30.8715   21.9945 H   0  0  0  0  0  0
  -28.0945  -29.0691   21.1714 H   0  0  0  0  0  0
  -25.9958  -26.0073   18.9422 H   0  0  0  0  0  0
  -23.9726  -27.3372   18.9899 H   0  0  0  0  0  0
  -23.7202  -30.6222   19.4087 H   0  0  0  0  0  0
  -22.7291  -29.2704   19.8612 H   0  0  0  0  0  0
  -25.1274  -36.1961   25.0827 H   0  0  0  0  0  0
  -20.9906  -28.3230   24.1415 H   0  0  0  0  0  0
  -20.5733  -26.2262   23.3529 H   0  0  0  0  0  0
  -21.6578  -26.7479   22.1064 H   0  0  0  0  0  0
  -19.6828  -25.6205   21.1315 H   0  0  0  0  0  0
  -19.6542  -27.3072   20.6708 H   0  0  0  0  0  0
  -17.4079  -26.6627   21.4125 H   0  0  0  0  0  0
  -18.0259  -26.0099   22.9132 H   0  0  0  0  0  0
  -19.7860  -30.7327   24.2242 H   0  0  0  0  0  0
  -17.4918  -31.6253   24.5161 H   0  0  0  0  0  0
  -15.5289  -30.2963   23.7688 H   0  0  0  0  0  0
  -15.8635  -28.0854   22.7037 H   0  0  0  0  0  0
  -24.5911  -30.7025   25.7804 H   0  0  0  0  0  0
  -24.8893  -32.2807   26.4955 H   0  0  0  0  0  0
  -25.8076  -30.8817   27.0217 H   0  0  0  0  0  0
  -26.2829  -29.6793   24.1172 H   0  0  0  0  0  0
  -27.3999  -29.7253   25.4626 H   0  0  0  0  0  0
  -27.8702  -30.4305   23.9325 H   0  0  0  0  0  0
  -27.2684  -33.3618   26.2060 H   0  0  0  0  0  0
  -28.3823  -32.6891   25.0253 H   0  0  0  0  0  0
  -28.0765  -31.8432   26.5352 H   0  0  0  0  0  0
  -28.2614  -38.0094   24.7512 H   0  0  0  0  0  0
  -28.1060  -36.2626   24.6311 H   0  0  0  0  0  0
  -27.2307  -37.1467   25.8884 H   0  0  0  0  0  0
  -20.9323  -29.8705   21.6869 H   0  0  0  0  0  0
  -26.0174  -38.2877   24.1429 H   0  0  0  0  0  0
  -30.9693  -22.9629   21.0419 H   0  0  0  0  0  0
  -28.6880  -17.3079   17.5094 H   0  0  0  0  0  0
  -29.6989  -18.3324   18.5210 H   0  0  0  0  0  0
  -27.7262  -18.1293   19.8984 H   0  0  0  0  0  0
  -27.4664  -16.4874   19.3511 H   0  0  0  0  0  0
  -31.2264  -16.5836   18.5839 H   0  0  0  0  0  0
  -30.0589  -15.4718   17.8992 H   0  0  0  0  0  0
  -28.5031  -16.1014   21.5016 H   0  0  0  0  0  0
  -31.8428  -19.9634   20.3265 H   0  0  0  0  0  0
  -31.8538  -19.6273   22.0711 H   0  0  0  0  0  0
  -32.4216  -21.1697   21.4695 H   0  0  0  0  0  0
  -25.5901  -21.4065   20.2004 H   0  0  0  0  0  0
  -25.8402  -23.1223   19.8857 H   0  0  0  0  0  0
  -24.4312  -22.5805   20.7863 H   0  0  0  0  0  0
  -26.1797  -24.6968   22.1173 H   0  0  0  0  0  0
  -26.5616  -23.8675   23.6385 H   0  0  0  0  0  0
  -24.9352  -23.8500   22.9950 H   0  0  0  0  0  0
  -29.8308  -24.8862   21.5675 H   0  0  0  0  0  0
  -28.2925  -24.9122   22.2851 H   0  0  0  0  0  0
  -30.5823  -18.2048   20.6585 H   0  0  0  0  0  0
  -30.6136  -17.3515   22.1739 H   0  0  0  0  0  0
  -27.2898  -24.7991   19.9490 H   0  0  0  0  0  0
  -28.8880  -24.8410   19.2770 H   0  0  0  0  0  0
  -25.8552  -21.7348   22.5925 H   0  0  0  0  0  0
  -28.2015  -18.4703   22.3598 H   0  0  0  0  0  0
  1 25  1  0  0  0
  1 30  2  0  0  0
  1 88  1  0  0  0
  2  3  1  0  0  0
  2 25  1  0  0  0
  2 90  1  0  0  0
  2 91  1  0  0  0
  3  4  1  0  0  0
  3 92  1  0  0  0
  3 93  1  0  0  0
  4  5  1  0  0  0
  4 94  1  0  0  0
  4 95  1  0  0  0
  5  6  1  0  0  0
  5 26  1  0  0  0
  5 96  1  0  0  0
  6 25  1  0  0  0
  6 97  1  0  0  0
  6 98  1  0  0  0
  7  8  2  0  0  0
  7 26  1  0  0  0
  7 29  1  0  0  0
  8  9  1  0  0  0
  8 22  1  0  0  0
  9 10  1  0  0  0
  9 27  2  0  0  0
 10 11  2  0  0  0
 10 15  1  0  0  0
 11 12  1  0  0  0
 11 99  1  0  0  0
 12 13  2  0  0  0
 12100  1  0  0  0
 13 14  1  0  0  0
 13 31  1  0  0  0
 14 15  2  0  0  0
 14101  1  0  0  0
 15102  1  0  0  0
 16 17  2  0  0  0
 16 21  1  0  0  0
 16 31  1  0  0  0
 17 18  1  0  0  0
 17103  1  0  0  0
 18 19  2  0  0  0
 18104  1  0  0  0
 19 20  1  0  0  0
 19 24  1  0  0  0
 20 21  2  0  0  0
 20105  1  0  0  0
 21 23  1  0  0  0
 22 28  1  0  0  0
 22 32  2  0  0  0
 26 27  1  0  0  0
 28106  1  0  0  0
 28107  1  0  0  0
 29108  1  0  0  0
 29109  1  0  0  0
 33 34  1  0  0  0
 33 66  1  0  0  0
 33 70  2  0  0  0
 34 36  1  0  0  0
 34 59  1  0  0  0
 34110  1  0  0  0
 35 44  2  0  0  0
 35 45  1  0  0  0
 35 68  1  0  0  0
 36 56  1  0  0  0
 36111  1  0  0  0
 37 39  1  0  0  0
 37 47  1  0  0  0
 37 66  1  0  0  0
 37112  1  0  0  0
 38 43  2  0  0  0
 38 46  1  0  0  0
 38 47  1  0  0  0
 39 64  1  0  0  0
 39 67  2  0  0  0
 40 52  1  0  0  0
 40 53  2  0  0  0
 40 58  1  0  0  0
 41113  1  0  0  0
 41114  1  0  0  0
 41115  1  0  0  0
 41 48  1  0  0  0
 42 43  1  0  0  0
 42 66  1  0  0  0
 42116  1  0  0  0
 42117  1  0  0  0
 43 44  1  0  0  0
 44118  1  0  0  0
 45 46  2  0  0  0
 45119  1  0  0  0
 46120  1  0  0  0
 47121  1  0  0  0
 47122  1  0  0  0
 48 56  1  0  0  0
 48 65  1  0  0  0
 48123  1  0  0  0
 49 50  1  0  0  0
 49 53  1  0  0  0
 49 64  1  0  0  0
 49124  1  0  0  0
 50 51  1  0  0  0
 50125  1  0  0  0
 50126  1  0  0  0
 51 52  1  0  0  0
 51127  1  0  0  0
 51128  1  0  0  0
 52129  1  0  0  0
 52130  1  0  0  0
 53 54  1  0  0  0
 54 55  2  0  0  0
 54131  1  0  0  0
 55 57  1  0  0  0
 55132  1  0  0  0
 56 69  2  0  0  0
 57 58  2  0  0  0
 57133  1  0  0  0
 58134  1  0  0  0
 59 60  1  0  0  0
 59 61  1  0  0  0
 59 62  1  0  0  0
 60135  1  0  0  0
 60136  1  0  0  0
 60137  1  0  0  0
 61138  1  0  0  0
 61139  1  0  0  0
 61140  1  0  0  0
 62141  1  0  0  0
 62142  1  0  0  0
 62143  1  0  0  0
 63 65  1  0  0  0
 63144  1  0  0  0
 63145  1  0  0  0
 63146  1  0  0  0
 64147  1  0  0  0
 65148  1  0  0  0
 68 85  1  0  0  0
 71 72  2  0  0  0
 71 73  1  0  0  0
 71149  1  0  0  0
 72 74  1  0  0  0
 72 83  1  0  0  0
 73 75  2  0  0  0
 73 80  1  0  0  0
 74 86  1  0  0  0
 74 87  2  0  0  0
 75 87  1  0  0  0
 75 89  1  0  0  0
 76 77  1  0  0  0
 76 78  1  0  0  0
 76150  1  0  0  0
 76151  1  0  0  0
 77 79  1  0  0  0
 77152  1  0  0  0
 77153  1  0  0  0
 78 88  1  0  0  0
 78154  1  0  0  0
 78155  1  0  0  0
 79 84  1  0  0  0
 79 88  1  0  0  0
 79156  1  0  0  0
 80157  1  0  0  0
 80158  1  0  0  0
 80159  1  0  0  0
 81160  1  0  0  0
 81161  1  0  0  0
 81162  1  0  0  0
 81 86  1  0  0  0
 82 86  1  0  0  0
 82163  1  0  0  0
 82164  1  0  0  0
 82165  1  0  0  0
 83 85  1  0  0  0
 83166  1  0  0  0
 83167  1  0  0  0
 84 89  1  0  0  0
 84168  1  0  0  0
 84169  1  0  0  0
 85170  1  0  0  0
 85171  1  0  0  0
 86172  1  0  0  0
 89173  1  0  0  0
M  ISO  4   1 100  68 101  85 101  88 100
M  END
> <chiral flag>
0

> <version>
0

> <s_m_source_file>
/data/baiqing/PycharmProjects/Reinvent-master-3.2/result/LINK_invent/BTK/process_docking_weight1_custom_sum_contain_oxygen_bond_distance_aromatic_linkinvent_7_9_3/rearranged_h_0146.sdf

> <i_m_source_file_index>
56

> <r_mmod_Potential_Energy-OPLS-2005>
-1.69579446315765

> <r_mmod_Stretch_Energy-OPLS-2005>
49.5898933410645

> <r_mmod_Bend_Energy-OPLS-2005>
182.799240112305

> <r_mmod_Torsional_Energy-OPLS-2005>
360.910339355469

> <r_mmod_Improper_Torsional_Energy-OPLS-2005>
29.4330997467041

> <r_mmod_Van_der_Waal_Energy-OPLS-2005>
144.478958129883

> <r_mmod_Electrostatic_Energy-OPLS-2005>
-598.005249023438

> <r_mmod_Solvation_Energy-OPLS-2005>
-208.182723999023

> <b_mmod_Minimization_Converged-OPLS-2005>
0

> <r_mmod_RMS_Derivative-OPLS-2005>
3.674968957901

$$$$
56
                    3D
 Structure written by MMmdl.
173182  0  0  1  0            999 V2000
  -30.6981  -14.4526   20.5654 C   0  0  0  0  0  0
  -30.4254  -12.2915   19.4200 C   0  0  0  0  0  0
  -29.4954  -12.4995   18.2062 C   0  0  0  0  0  0
  -28.0158  -12.3645   18.6183 C   0  0  0  0  0  0
  -27.6650  -13.2012   19.8779 C   0  0  2  0  0  0
  -28.7064  -12.9706   20.9976 C   0  0  0  0  0  0
  -25.2606  -13.8156   20.5677 C   0  0  0  0  0  0
  -24.1852  -13.0443   20.9177 C   0  0  0  0  0  0
  -24.6395  -11.6901   20.8737 C   0  0  0  0  0  0
  -23.9058  -10.4294   21.0409 C   0  0  0  0  0  0
  -24.3606   -9.4209   21.9188 C   0  0  0  0  0  0
  -23.6285   -8.2245   22.0757 C   0  0  0  0  0  0
  -22.4268   -8.0282   21.3543 C   0  0  0  0  0  0
  -21.9908   -9.0254   20.4645 C   0  0  0  0  0  0
  -22.7235  -10.2137   20.3056 C   0  0  0  0  0  0
  -21.6852   -6.0737   22.5279 C   0  0  0  0  0  0
  -21.4014   -6.5637   23.8214 C   0  0  0  0  0  0
  -21.3660   -5.6791   24.9173 C   0  0  0  0  0  0
  -21.6042   -4.3056   24.7225 C   0  0  0  0  0  0
  -21.8820   -3.8148   23.4347 C   0  0  0  0  0  0
  -21.9194   -4.6964   22.3400 C   0  0  0  0  0  0
  -22.7877  -13.5248   21.1836 C   0  0  0  0  0  0
  -22.1661   -4.2150   21.0979 F   0  0  0  0  0  0
  -21.5629   -3.4540   25.7741 F   0  0  0  0  0  0
  -30.0402  -13.2690   20.4484 N   0  0  0  0  0  0
  -26.3042  -12.9312   20.3378 N   0  0  0  0  0  0
  -25.9320  -11.6479   20.5766 N   0  0  0  0  0  0
  -22.0500  -12.8244   22.0382 N   0  0  0  0  0  0
  -25.4343  -15.1871   20.4074 N   0  0  0  0  0  0
  -31.8209  -14.6516   20.0936 O   0  0  0  0  0  0
  -21.6634   -6.8877   21.4239 O   0  0  0  0  0  0
  -22.3577  -14.5559   20.6684 O   0  0  0  0  0  0
  -24.6121  -31.8693   23.2127 C   0  0  0  0  0  0
  -25.9022  -32.4823   23.8411 C   0  0  1  0  0  0
  -27.2231  -27.4327   20.0843 C   0  0  0  0  0  0
  -25.5894  -33.8627   24.2334 N   0  0  0  0  0  0
  -23.3982  -30.4950   21.5551 C   0  0  2  0  0  0
  -24.8400  -28.9672   20.1130 C   0  0  0  0  0  0
  -22.7391  -29.4661   22.5011 C   0  0  0  0  0  0
  -18.0265  -28.1363   22.8481 C   0  0  0  0  0  0
  -24.1494  -36.7318   23.2637 C   0  0  0  0  0  0
  -25.9298  -30.8301   21.3717 C   0  0  0  0  0  0
  -26.0008  -29.4679   20.7127 C   0  0  0  0  0  0
  -27.1912  -28.7057   20.6996 C   0  0  0  0  0  0
  -26.0448  -26.9622   19.4559 C   0  0  0  0  0  0
  -24.8562  -27.7125   19.4854 C   0  0  0  0  0  0
  -23.6027  -29.8331   20.1680 C   0  0  0  0  0  0
  -25.4116  -36.3124   24.0343 C   0  0  1  0  0  0
  -20.5849  -28.3651   23.1325 C   0  0  2  0  0  0
  -20.6770  -26.9393   22.5415 C   0  0  0  0  0  0
  -19.5755  -26.6370   21.5207 C   0  0  0  0  0  0
  -18.1923  -26.7906   22.1608 C   0  0  0  0  0  0
  -19.1510  -28.8823   23.2892 C   0  0  0  0  0  0
  -18.9446  -30.1427   23.8901 C   0  0  0  0  0  0
  -17.6451  -30.6579   24.0551 C   0  0  0  0  0  0
  -25.9042  -34.9481   23.5139 C   0  0  0  0  0  0
  -16.5341  -29.9076   23.6328 C   0  0  0  0  0  0
  -16.7256  -28.6487   23.0354 C   0  0  0  0  0  0
  -26.4454  -31.6595   25.0730 C   0  0  0  0  0  0
  -25.3722  -31.3672   26.1476 C   0  0  0  0  0  0
  -27.0287  -30.3042   24.6097 C   0  0  0  0  0  0
  -27.6031  -32.4314   25.7484 C   0  0  0  0  0  0
  -27.5592  -37.1815   24.8458 C   0  0  0  0  0  0
  -21.4123  -29.3026   22.3745 N   0  0  0  0  0  0
  -26.4304  -37.3807   23.9405 N   0  0  0  0  0  0
  -24.6645  -31.0791   22.1036 N   0  0  0  0  0  0
  -23.4174  -28.8197   23.3032 O   0  0  0  0  0  0
  -28.4043  -26.7150   20.1208 O   0  0  0  0  0  0
  -26.5604  -34.8922   22.4703 O   0  0  0  0  0  0
  -23.5317  -32.1459   23.7524 O   0  0  0  0  0  0
  -28.3641  -21.8604   22.2800 C   0  0  0  0  0  0
  -25.5697  -22.0556   22.1272 C   0  0  0  0  0  0
  -27.5806  -20.6865   22.4284 C   0  0  0  0  0  0
  -26.1710  -20.7972   22.3192 C   0  0  0  0  0  0
  -26.3495  -23.2226   22.0458 C   0  0  0  0  0  0
  -27.7594  -23.1293   22.0915 C   0  0  0  0  0  0
  -28.3329  -19.0752   24.2732 C   0  0  0  0  0  0
  -28.1807  -19.3426   22.7911 C   0  0  2  0  0  0
  -29.5539  -19.0716   23.3897 C   0  0  2  0  0  0
  -25.2741  -19.5747   22.4458 C   0  0  0  0  0  0
  -25.6362  -24.5577   21.9276 C   0  0  0  0  0  0
  -31.2756  -17.5872   24.4505 C   0  0  0  0  0  0
  -31.0432  -17.5690   21.9226 C   0  0  0  0  0  0
  -30.2095  -16.8925   20.8164 C   0  0  0  0  0  0
  -28.4025  -25.3087   19.8194 C   0  0  0  0  0  0
  -29.2439  -24.5165   20.8420 C   0  0  0  0  0  0
  -30.3061  -17.7436   23.2678 C   0  0  2  0  0  0
  -29.9603  -15.4632   21.0537 N   0  0  0  0  0  0
  -28.5190  -24.2770   22.0510 O   0  0  0  0  0  0
  -31.4699  -12.3913   19.1187 H   0  0  0  0  0  0
  -30.3243  -11.2780   19.8113 H   0  0  0  0  0  0
  -29.7309  -11.7763   17.4238 H   0  0  0  0  0  0
  -29.6676  -13.4863   17.7724 H   0  0  0  0  0  0
  -27.8228  -11.3084   18.8109 H   0  0  0  0  0  0
  -27.3667  -12.6447   17.7877 H   0  0  0  0  0  0
  -27.7132  -14.2495   19.5831 H   0  0  0  0  0  0
  -28.6774  -11.9333   21.3336 H   0  0  0  0  0  0
  -28.4737  -13.5673   21.8808 H   0  0  0  0  0  0
  -25.2751   -9.5692   22.4760 H   0  0  0  0  0  0
  -23.9997   -7.4643   22.7485 H   0  0  0  0  0  0
  -21.0842   -8.8774   19.8949 H   0  0  0  0  0  0
  -22.3698  -10.9672   19.6163 H   0  0  0  0  0  0
  -21.2002   -7.6146   23.9718 H   0  0  0  0  0  0
  -21.1479   -6.0519   25.9078 H   0  0  0  0  0  0
  -22.0598   -2.7612   23.2847 H   0  0  0  0  0  0
  -22.4094  -11.9891   22.4755 H   0  0  0  0  0  0
  -21.1120  -13.1284   22.2573 H   0  0  0  0  0  0
  -24.6664  -15.8418   20.5076 H   0  0  0  0  0  0
  -26.2844  -15.6231   20.0729 H   0  0  0  0  0  0
  -26.7084  -32.5519   23.1166 H   0  0  0  0  0  0
  -25.0035  -33.9799   25.0473 H   0  0  0  0  0  0
  -22.6857  -31.3118   21.4204 H   0  0  0  0  0  0
  -23.3764  -35.9642   23.3300 H   0  0  0  0  0  0
  -24.3586  -36.8940   22.2050 H   0  0  0  0  0  0
  -23.7240  -37.6523   23.6654 H   0  0  0  0  0  0
  -26.0535  -31.5998   20.6092 H   0  0  0  0  0  0
  -26.8141  -30.8728   21.9962 H   0  0  0  0  0  0
  -28.0857  -29.0864   21.1717 H   0  0  0  0  0  0
  -26.0072  -26.0262   18.9221 H   0  0  0  0  0  0
  -23.9648  -27.3262   19.0104 H   0  0  0  0  0  0
  -23.7060  -30.6110   19.4099 H   0  0  0  0  0  0
  -22.7265  -29.2524   19.8748 H   0  0  0  0  0  0
  -25.1292  -36.2008   25.0838 H   0  0  0  0  0  0
  -20.9928  -28.3212   24.1452 H   0  0  0  0  0  0
  -20.5699  -26.2243   23.3590 H   0  0  0  0  0  0
  -21.6639  -26.7455   22.1197 H   0  0  0  0  0  0
  -19.6925  -25.6282   21.1239 H   0  0  0  0  0  0
  -19.6715  -27.3172   20.6732 H   0  0  0  0  0  0
  -17.4206  -26.6663   21.3993 H   0  0  0  0  0  0
  -18.0312  -26.0029   22.8980 H   0  0  0  0  0  0
  -19.7926  -30.7225   24.2281 H   0  0  0  0  0  0
  -17.5019  -31.6273   24.5126 H   0  0  0  0  0  0
  -15.5344  -30.2991   23.7649 H   0  0  0  0  0  0
  -15.8649  -28.0816   22.7081 H   0  0  0  0  0  0
  -24.5905  -30.7016   25.7794 H   0  0  0  0  0  0
  -24.8891  -32.2808   26.4951 H   0  0  0  0  0  0
  -25.8076  -30.8814   27.0217 H   0  0  0  0  0  0
  -26.2829  -29.6809   24.1147 H   0  0  0  0  0  0
  -27.4066  -29.7269   25.4546 H   0  0  0  0  0  0
  -27.8663  -30.4368   23.9244 H   0  0  0  0  0  0
  -27.2659  -33.3608   26.2087 H   0  0  0  0  0  0
  -28.3819  -32.6889   25.0293 H   0  0  0  0  0  0
  -28.0722  -31.8421   26.5378 H   0  0  0  0  0  0
  -28.2602  -38.0117   24.7539 H   0  0  0  0  0  0
  -28.1112  -36.2661   24.6269 H   0  0  0  0  0  0
  -27.2311  -37.1442   25.8858 H   0  0  0  0  0  0
  -20.9277  -29.8752   21.6978 H   0  0  0  0  0  0
  -26.0208  -38.2896   24.1395 H   0  0  0  0  0  0
  -29.4395  -21.8006   22.3630 H   0  0  0  0  0  0
  -24.4922  -22.1359   22.0742 H   0  0  0  0  0  0
  -27.9644  -18.1223   24.6482 H   0  0  0  0  0  0
  -28.2405  -19.9116   24.9637 H   0  0  0  0  0  0
  -27.7738  -18.5502   22.1664 H   0  0  0  0  0  0
  -30.2116  -19.9347   23.4697 H   0  0  0  0  0  0
  -24.2188  -19.8347   22.3560 H   0  0  0  0  0  0
  -25.4145  -19.0919   23.4131 H   0  0  0  0  0  0
  -25.4982  -18.8512   21.6618 H   0  0  0  0  0  0
  -24.8657  -24.6470   22.6939 H   0  0  0  0  0  0
  -25.1515  -24.6376   20.9548 H   0  0  0  0  0  0
  -26.3118  -25.4038   22.0466 H   0  0  0  0  0  0
  -30.7513  -17.6704   25.4033 H   0  0  0  0  0  0
  -32.0545  -18.3506   24.4326 H   0  0  0  0  0  0
  -31.7639  -16.6119   24.4374 H   0  0  0  0  0  0
  -31.3893  -18.5435   21.5743 H   0  0  0  0  0  0
  -31.9514  -16.9805   22.0644 H   0  0  0  0  0  0
  -30.7152  -17.0199   19.8571 H   0  0  0  0  0  0
  -29.2511  -17.4000   20.7058 H   0  0  0  0  0  0
  -27.4262  -24.8352   19.7747 H   0  0  0  0  0  0
  -28.8417  -25.1965   18.8278 H   0  0  0  0  0  0
  -30.1578  -25.0630   21.0748 H   0  0  0  0  0  0
  -29.5589  -23.5707   20.3992 H   0  0  0  0  0  0
  -29.5773  -16.9363   23.3588 H   0  0  0  0  0  0
  -29.0497  -15.2115   21.4086 H   0  0  0  0  0  0
  1 25  1  0  0  0
  1 30  2  0  0  0
  1 88  1  0  0  0
  2  3  1  0  0  0
  2 25  1  0  0  0
  2 90  1  0  0  0
  2 91  1  0  0  0
  3  4  1  0  0  0
  3 92  1  0  0  0
  3 93  1  0  0  0
  4  5  1  0  0  0
  4 94  1  0  0  0
  4 95  1  0  0  0
  5  6  1  0  0  0
  5 26  1  0  0  0
  5 96  1  0  0  0
  6 25  1  0  0  0
  6 97  1  0  0  0
  6 98  1  0  0  0
  7  8  2  0  0  0
  7 26  1  0  0  0
  7 29  1  0  0  0
  8  9  1  0  0  0
  8 22  1  0  0  0
  9 10  1  0  0  0
  9 27  2  0  0  0
 10 11  2  0  0  0
 10 15  1  0  0  0
 11 12  1  0  0  0
 11 99  1  0  0  0
 12 13  2  0  0  0
 12100  1  0  0  0
 13 14  1  0  0  0
 13 31  1  0  0  0
 14 15  2  0  0  0
 14101  1  0  0  0
 15102  1  0  0  0
 16 17  2  0  0  0
 16 21  1  0  0  0
 16 31  1  0  0  0
 17 18  1  0  0  0
 17103  1  0  0  0
 18 19  2  0  0  0
 18104  1  0  0  0
 19 20  1  0  0  0
 19 24  1  0  0  0
 20 21  2  0  0  0
 20105  1  0  0  0
 21 23  1  0  0  0
 22 28  1  0  0  0
 22 32  2  0  0  0
 26 27  1  0  0  0
 28106  1  0  0  0
 28107  1  0  0  0
 29108  1  0  0  0
 29109  1  0  0  0
 33 34  1  0  0  0
 33 66  1  0  0  0
 33 70  2  0  0  0
 34 36  1  0  0  0
 34 59  1  0  0  0
 34110  1  0  0  0
 35 44  2  0  0  0
 35 45  1  0  0  0
 35 68  1  0  0  0
 36 56  1  0  0  0
 36111  1  0  0  0
 37 39  1  0  0  0
 37 47  1  0  0  0
 37 66  1  0  0  0
 37112  1  0  0  0
 38 43  2  0  0  0
 38 46  1  0  0  0
 38 47  1  0  0  0
 39 64  1  0  0  0
 39 67  2  0  0  0
 40 52  1  0  0  0
 40 53  2  0  0  0
 40 58  1  0  0  0
 41113  1  0  0  0
 41114  1  0  0  0
 41115  1  0  0  0
 41 48  1  0  0  0
 42 43  1  0  0  0
 42 66  1  0  0  0
 42116  1  0  0  0
 42117  1  0  0  0
 43 44  1  0  0  0
 44118  1  0  0  0
 45 46  2  0  0  0
 45119  1  0  0  0
 46120  1  0  0  0
 47121  1  0  0  0
 47122  1  0  0  0
 48 56  1  0  0  0
 48 65  1  0  0  0
 48123  1  0  0  0
 49 50  1  0  0  0
 49 53  1  0  0  0
 49 64  1  0  0  0
 49124  1  0  0  0
 50 51  1  0  0  0
 50125  1  0  0  0
 50126  1  0  0  0
 51 52  1  0  0  0
 51127  1  0  0  0
 51128  1  0  0  0
 52129  1  0  0  0
 52130  1  0  0  0
 53 54  1  0  0  0
 54 55  2  0  0  0
 54131  1  0  0  0
 55 57  1  0  0  0
 55132  1  0  0  0
 56 69  2  0  0  0
 57 58  2  0  0  0
 57133  1  0  0  0
 58134  1  0  0  0
 59 60  1  0  0  0
 59 61  1  0  0  0
 59 62  1  0  0  0
 60135  1  0  0  0
 60136  1  0  0  0
 60137  1  0  0  0
 61138  1  0  0  0
 61139  1  0  0  0
 61140  1  0  0  0
 62141  1  0  0  0
 62142  1  0  0  0
 62143  1  0  0  0
 63 65  1  0  0  0
 63144  1  0  0  0
 63145  1  0  0  0
 63146  1  0  0  0
 64147  1  0  0  0
 65148  1  0  0  0
 68 85  1  0  0  0
 71 73  2  0  0  0
 71 76  1  0  0  0
 71149  1  0  0  0
 72 74  2  0  0  0
 72 75  1  0  0  0
 72150  1  0  0  0
 73 74  1  0  0  0
 73 78  1  0  0  0
 74 80  1  0  0  0
 75 76  2  0  0  0
 75 81  1  0  0  0
 76 89  1  0  0  0
 77 78  1  0  0  0
 77151  1  0  0  0
 77152  1  0  0  0
 77 79  1  0  0  0
 78 79  1  0  0  0
 78153  1  0  0  0
 79 87  1  0  0  0
 79154  1  0  0  0
 80155  1  0  0  0
 80156  1  0  0  0
 80157  1  0  0  0
 81158  1  0  0  0
 81159  1  0  0  0
 81160  1  0  0  0
 82161  1  0  0  0
 82162  1  0  0  0
 82163  1  0  0  0
 82 87  1  0  0  0
 83 84  1  0  0  0
 83 87  1  0  0  0
 83164  1  0  0  0
 83165  1  0  0  0
 84 88  1  0  0  0
 84166  1  0  0  0
 84167  1  0  0  0
 85 86  1  0  0  0
 85168  1  0  0  0
 85169  1  0  0  0
 86 89  1  0  0  0
 86170  1  0  0  0
 86171  1  0  0  0
 87172  1  0  0  0
 88173  1  0  0  0
M  ISO  4   1 100  68 101  85 101  88 100
M  END
> <chiral flag>
0

> <version>
0

> <s_m_source_file>
/data/baiqing/PycharmProjects/Reinvent-master-3.2/result/LINK_invent/BTK/process_docking_weight1_custom_sum_contain_oxygen_bond_distance_aromatic_linkinvent_7_9_3/rearranged_h_0146.sdf

> <i_m_source_file_index>
57

> <r_mmod_Potential_Energy-OPLS-2005>
-10.6094417572021

> <r_mmod_Stretch_Energy-OPLS-2005>
37.114673614502

> <r_mmod_Bend_Energy-OPLS-2005>
110.726173400879

> <r_mmod_Torsional_Energy-OPLS-2005>
280.668060302734

> <r_mmod_Improper_Torsional_Energy-OPLS-2005>
5.64211845397949

> <r_mmod_Van_der_Waal_Energy-OPLS-2005>
144.679016113281

> <r_mmod_Electrostatic_Energy-OPLS-2005>
-395.894317626953

> <r_mmod_Solvation_Energy-OPLS-2005>
-206.096054077148

> <b_mmod_Minimization_Converged-OPLS-2005>
0

> <r_mmod_RMS_Derivative-OPLS-2005>
1.17697739601135

$$$$
57
                    3D
 Structure written by MMmdl.
160169  0  0  1  0            999 V2000
  -30.5350  -14.9511   20.4156 C   0  0  0  0  0  0
  -30.4377  -12.5897   19.4963 C   0  0  0  0  0  0
  -29.5195  -12.5224   18.2543 C   0  0  0  0  0  0
  -28.0535  -12.3074   18.6766 C   0  0  0  0  0  0
  -27.6269  -13.2461   19.8354 C   0  0  2  0  0  0
  -28.6684  -13.2796   20.9731 C   0  0  0  0  0  0
  -25.2451  -13.8213   20.5711 C   0  0  0  0  0  0
  -24.1773  -13.0437   20.9236 C   0  0  0  0  0  0
  -24.6386  -11.6923   20.8752 C   0  0  0  0  0  0
  -23.9077  -10.4291   21.0415 C   0  0  0  0  0  0
  -24.3624   -9.4203   21.9192 C   0  0  0  0  0  0
  -23.6297   -8.2239   22.0759 C   0  0  0  0  0  0
  -22.4279   -8.0279   21.3548 C   0  0  0  0  0  0
  -21.9918   -9.0254   20.4651 C   0  0  0  0  0  0
  -22.7250  -10.2132   20.3063 C   0  0  0  0  0  0
  -21.6853   -6.0736   22.5284 C   0  0  0  0  0  0
  -21.4013   -6.5641   23.8217 C   0  0  0  0  0  0
  -21.3657   -5.6793   24.9178 C   0  0  0  0  0  0
  -21.6043   -4.3057   24.7229 C   0  0  0  0  0  0
  -21.8815   -3.8149   23.4352 C   0  0  0  0  0  0
  -21.9195   -4.6964   22.3407 C   0  0  0  0  0  0
  -22.7794  -13.5206   21.1888 C   0  0  0  0  0  0
  -22.1659   -4.2149   21.0984 F   0  0  0  0  0  0
  -21.5631   -3.4540   25.7742 F   0  0  0  0  0  0
  -29.9406  -13.6919   20.3694 N   0  0  0  0  0  0
  -26.2865  -12.9442   20.3226 N   0  0  0  0  0  0
  -25.9314  -11.6574   20.5731 N   0  0  0  0  0  0
  -22.0445  -12.8192   22.0441 N   0  0  0  0  0  0
  -25.4115  -15.1941   20.4131 N   0  0  0  0  0  0
  -31.7414  -15.0139   20.1622 O   0  0  0  0  0  0
  -21.6642   -6.8876   21.4247 O   0  0  0  0  0  0
  -22.3477  -14.5513   20.6740 O   0  0  0  0  0  0
  -24.6401  -31.8420   23.1856 C   0  0  0  0  0  0
  -25.9181  -32.4681   23.8245 C   0  0  1  0  0  0
  -27.2224  -27.1298   20.1660 C   0  0  0  0  0  0
  -25.5939  -33.8488   24.2172 N   0  0  0  0  0  0
  -23.4435  -30.4584   21.5300 C   0  0  2  0  0  0
  -24.8921  -28.8678   20.1178 C   0  0  0  0  0  0
  -22.7538  -29.4550   22.4868 C   0  0  0  0  0  0
  -18.0303  -28.1401   22.8489 C   0  0  0  0  0  0
  -24.1490  -36.7235   23.2645 C   0  0  0  0  0  0
  -25.9953  -30.7120   21.3836 C   0  0  0  0  0  0
  -26.0631  -29.3161   20.7396 C   0  0  0  0  0  0
  -27.2243  -28.4609   20.7477 C   0  0  0  0  0  0
  -26.0305  -26.7749   19.5032 C   0  0  0  0  0  0
  -24.8862  -27.6094   19.4890 C   0  0  0  0  0  0
  -23.6700  -29.7742   20.1528 C   0  0  0  0  0  0
  -25.4129  -36.3022   24.0313 C   0  0  1  0  0  0
  -20.5908  -28.3717   23.1248 C   0  0  2  0  0  0
  -20.6781  -26.9422   22.5413 C   0  0  0  0  0  0
  -19.5757  -26.6389   21.5218 C   0  0  0  0  0  0
  -18.1939  -26.7947   22.1630 C   0  0  0  0  0  0
  -19.1561  -28.8878   23.2868 C   0  0  0  0  0  0
  -18.9478  -30.1477   23.8891 C   0  0  0  0  0  0
  -17.6476  -30.6600   24.0565 C   0  0  0  0  0  0
  -25.9076  -34.9398   23.5057 C   0  0  0  0  0  0
  -16.5370  -29.9099   23.6337 C   0  0  0  0  0  0
  -16.7283  -28.6517   23.0360 C   0  0  0  0  0  0
  -26.4522  -31.6544   25.0680 C   0  0  0  0  0  0
  -25.3716  -31.3720   26.1380 C   0  0  0  0  0  0
  -27.0375  -30.2949   24.6230 C   0  0  0  0  0  0
  -27.6060  -32.4294   25.7464 C   0  0  0  0  0  0
  -27.5578  -37.1777   24.8474 C   0  0  0  0  0  0
  -21.4235  -29.3045   22.3613 N   0  0  0  0  0  0
  -26.4293  -37.3739   23.9412 N   0  0  0  0  0  0
  -24.7130  -31.0274   22.0883 N   0  0  0  0  0  0
  -23.4184  -28.8109   23.3034 O   0  0  0  0  0  0
  -28.3552  -26.2466   20.1566 O   0  0  0  0  0  0
  -26.5669  -34.8894   22.4644 O   0  0  0  0  0  0
  -23.5531  -32.1307   23.7091 O   0  0  0  0  0  0
  -29.8440  -24.2988   20.4854 C   0  0  0  0  0  0
  -27.6423  -23.6380   20.1125 C   0  0  0  0  0  0
  -30.2336  -22.9070   20.5216 C   0  0  0  0  0  0
  -28.5249  -24.7822   20.2572 C   0  0  0  0  0  0
  -29.2850  -21.8437   20.3825 C   0  0  0  0  0  0
  -31.8905  -21.2635   22.9833 C   0  0  0  0  0  0
  -33.2875  -21.6890   22.6076 C   0  0  0  0  0  0
  -32.1022  -22.5150   22.1597 C   0  0  0  0  0  0
  -32.6565  -23.5004   19.9096 C   0  0  0  0  0  0
  -30.1651  -17.6758   20.4941 C   0  0  0  0  0  0
  -29.1536  -19.0393   20.3884 C   0  0  0  0  0  0
  -31.7174  -22.5628   20.6906 C   0  0  2  0  0  0
  -27.9860  -22.2649   20.1809 N   0  0  0  0  0  0
  -29.7622  -16.1420   20.5355 N   0  0  0  0  0  0
  -29.7648  -20.4506   20.4428 O   0  0  0  0  0  0
  -31.4708  -12.7495   19.1845 H   0  0  0  0  0  0
  -30.4329  -11.6406   20.0338 H   0  0  0  0  0  0
  -29.8397  -11.7191   17.5889 H   0  0  0  0  0  0
  -29.6065  -13.4483   17.6829 H   0  0  0  0  0  0
  -27.9559  -11.2683   18.9936 H   0  0  0  0  0  0
  -27.3889  -12.4283   17.8204 H   0  0  0  0  0  0
  -27.5888  -14.2458   19.4018 H   0  0  0  0  0  0
  -28.7567  -12.3065   21.4581 H   0  0  0  0  0  0
  -28.3684  -13.9876   21.7467 H   0  0  0  0  0  0
  -25.2765   -9.5684   22.4771 H   0  0  0  0  0  0
  -24.0010   -7.4630   22.7477 H   0  0  0  0  0  0
  -21.0851   -8.8774   19.8951 H   0  0  0  0  0  0
  -22.3711  -10.9672   19.6171 H   0  0  0  0  0  0
  -21.2000   -7.6149   23.9720 H   0  0  0  0  0  0
  -21.1482   -6.0523   25.9080 H   0  0  0  0  0  0
  -22.0596   -2.7613   23.2855 H   0  0  0  0  0  0
  -22.4058  -11.9851   22.4828 H   0  0  0  0  0  0
  -21.1059  -13.1213   22.2641 H   0  0  0  0  0  0
  -24.6419  -15.8446   20.5268 H   0  0  0  0  0  0
  -26.2501  -15.6354   20.0595 H   0  0  0  0  0  0
  -26.7232  -32.5296   23.0956 H   0  0  0  0  0  0
  -25.0065  -33.9601   25.0310 H   0  0  0  0  0  0
  -22.7470  -31.2845   21.3709 H   0  0  0  0  0  0
  -23.3756  -35.9564   23.3304 H   0  0  0  0  0  0
  -24.3584  -36.8867   22.2063 H   0  0  0  0  0  0
  -23.7225  -37.6425   23.6679 H   0  0  0  0  0  0
  -26.1466  -31.4587   20.6024 H   0  0  0  0  0  0
  -26.8687  -30.7727   22.0208 H   0  0  0  0  0  0
  -28.1259  -28.8076   21.2342 H   0  0  0  0  0  0
  -25.9744  -25.8250   18.9931 H   0  0  0  0  0  0
  -23.9924  -27.2652   18.9881 H   0  0  0  0  0  0
  -23.8067  -30.5399   19.3880 H   0  0  0  0  0  0
  -22.7845  -29.2137   19.8471 H   0  0  0  0  0  0
  -25.1314  -36.1855   25.0804 H   0  0  0  0  0  0
  -21.0023  -28.3307   24.1365 H   0  0  0  0  0  0
  -20.5674  -26.2333   23.3628 H   0  0  0  0  0  0
  -21.6648  -26.7432   22.1221 H   0  0  0  0  0  0
  -19.6913  -25.6298   21.1253 H   0  0  0  0  0  0
  -19.6691  -27.3200   20.6743 H   0  0  0  0  0  0
  -17.4209  -26.6699   21.4029 H   0  0  0  0  0  0
  -18.0339  -26.0097   22.9033 H   0  0  0  0  0  0
  -19.7956  -30.7305   24.2252 H   0  0  0  0  0  0
  -17.5028  -31.6281   24.5179 H   0  0  0  0  0  0
  -15.5369  -30.3003   23.7661 H   0  0  0  0  0  0
  -15.8688  -28.0829   22.7087 H   0  0  0  0  0  0
  -24.5926  -30.7027   25.7702 H   0  0  0  0  0  0
  -24.8868  -32.2894   26.4728 H   0  0  0  0  0  0
  -25.8019  -30.8955   27.0196 H   0  0  0  0  0  0
  -26.2979  -29.6681   24.1239 H   0  0  0  0  0  0
  -27.4008  -29.7229   25.4774 H   0  0  0  0  0  0
  -27.8870  -30.4194   23.9515 H   0  0  0  0  0  0
  -27.2665  -33.3613   26.1992 H   0  0  0  0  0  0
  -28.3898  -32.6818   25.0308 H   0  0  0  0  0  0
  -28.0688  -31.8441   26.5416 H   0  0  0  0  0  0
  -28.2591  -38.0075   24.7528 H   0  0  0  0  0  0
  -28.1067  -36.2609   24.6293 H   0  0  0  0  0  0
  -27.2295  -37.1417   25.8874 H   0  0  0  0  0  0
  -20.9437  -29.8732   21.6772 H   0  0  0  0  0  0
  -26.0148  -38.2798   24.1425 H   0  0  0  0  0  0
  -30.6028  -25.0551   20.6150 H   0  0  0  0  0  0
  -26.5969  -23.8177   19.9116 H   0  0  0  0  0  0
  -31.5908  -21.3902   24.0220 H   0  0  0  0  0  0
  -31.4884  -20.3830   22.4853 H   0  0  0  0  0  0
  -33.8068  -21.1002   21.8542 H   0  0  0  0  0  0
  -33.9182  -22.0978   23.3959 H   0  0  0  0  0  0
  -31.9721  -23.4623   22.6815 H   0  0  0  0  0  0
  -32.3580  -23.5815   18.8643 H   0  0  0  0  0  0
  -33.6789  -23.1227   19.9249 H   0  0  0  0  0  0
  -32.6885  -24.5052   20.3316 H   0  0  0  0  0  0
  -30.7597  -17.8209   21.3968 H   0  0  0  0  0  0
  -30.8873  -17.7655   19.6815 H   0  0  0  0  0  0
  -28.4143  -18.9845   21.1875 H   0  0  0  0  0  0
  -28.5872  -18.9758   19.4591 H   0  0  0  0  0  0
  -31.8833  -21.5685   20.2730 H   0  0  0  0  0  0
  -28.7776  -15.9724   20.6810 H   0  0  0  0  0  0
  1 25  1  0  0  0
  1 30  2  0  0  0
  1 84  1  0  0  0
  2  3  1  0  0  0
  2 25  1  0  0  0
  2 86  1  0  0  0
  2 87  1  0  0  0
  3  4  1  0  0  0
  3 88  1  0  0  0
  3 89  1  0  0  0
  4  5  1  0  0  0
  4 90  1  0  0  0
  4 91  1  0  0  0
  5  6  1  0  0  0
  5 26  1  0  0  0
  5 92  1  0  0  0
  6 25  1  0  0  0
  6 93  1  0  0  0
  6 94  1  0  0  0
  7  8  2  0  0  0
  7 26  1  0  0  0
  7 29  1  0  0  0
  8  9  1  0  0  0
  8 22  1  0  0  0
  9 10  1  0  0  0
  9 27  2  0  0  0
 10 11  2  0  0  0
 10 15  1  0  0  0
 11 12  1  0  0  0
 11 95  1  0  0  0
 12 13  2  0  0  0
 12 96  1  0  0  0
 13 14  1  0  0  0
 13 31  1  0  0  0
 14 15  2  0  0  0
 14 97  1  0  0  0
 15 98  1  0  0  0
 16 17  2  0  0  0
 16 21  1  0  0  0
 16 31  1  0  0  0
 17 18  1  0  0  0
 17 99  1  0  0  0
 18 19  2  0  0  0
 18100  1  0  0  0
 19 20  1  0  0  0
 19 24  1  0  0  0
 20 21  2  0  0  0
 20101  1  0  0  0
 21 23  1  0  0  0
 22 28  1  0  0  0
 22 32  2  0  0  0
 26 27  1  0  0  0
 28102  1  0  0  0
 28103  1  0  0  0
 29104  1  0  0  0
 29105  1  0  0  0
 33 34  1  0  0  0
 33 66  1  0  0  0
 33 70  2  0  0  0
 34 36  1  0  0  0
 34 59  1  0  0  0
 34106  1  0  0  0
 35 44  2  0  0  0
 35 45  1  0  0  0
 35 68  1  0  0  0
 36 56  1  0  0  0
 36107  1  0  0  0
 37 39  1  0  0  0
 37 47  1  0  0  0
 37 66  1  0  0  0
 37108  1  0  0  0
 38 43  2  0  0  0
 38 46  1  0  0  0
 38 47  1  0  0  0
 39 64  1  0  0  0
 39 67  2  0  0  0
 40 52  1  0  0  0
 40 53  2  0  0  0
 40 58  1  0  0  0
 41109  1  0  0  0
 41110  1  0  0  0
 41111  1  0  0  0
 41 48  1  0  0  0
 42 43  1  0  0  0
 42 66  1  0  0  0
 42112  1  0  0  0
 42113  1  0  0  0
 43 44  1  0  0  0
 44114  1  0  0  0
 45 46  2  0  0  0
 45115  1  0  0  0
 46116  1  0  0  0
 47117  1  0  0  0
 47118  1  0  0  0
 48 56  1  0  0  0
 48 65  1  0  0  0
 48119  1  0  0  0
 49 50  1  0  0  0
 49 53  1  0  0  0
 49 64  1  0  0  0
 49120  1  0  0  0
 50 51  1  0  0  0
 50121  1  0  0  0
 50122  1  0  0  0
 51 52  1  0  0  0
 51123  1  0  0  0
 51124  1  0  0  0
 52125  1  0  0  0
 52126  1  0  0  0
 53 54  1  0  0  0
 54 55  2  0  0  0
 54127  1  0  0  0
 55 57  1  0  0  0
 55128  1  0  0  0
 56 69  2  0  0  0
 57 58  2  0  0  0
 57129  1  0  0  0
 58130  1  0  0  0
 59 60  1  0  0  0
 59 61  1  0  0  0
 59 62  1  0  0  0
 60131  1  0  0  0
 60132  1  0  0  0
 60133  1  0  0  0
 61134  1  0  0  0
 61135  1  0  0  0
 61136  1  0  0  0
 62137  1  0  0  0
 62138  1  0  0  0
 62139  1  0  0  0
 63 65  1  0  0  0
 63140  1  0  0  0
 63141  1  0  0  0
 63142  1  0  0  0
 64143  1  0  0  0
 65144  1  0  0  0
 68 74  1  0  0  0
 71 73  2  0  0  0
 71 74  1  0  0  0
 71145  1  0  0  0
 72 74  2  0  0  0
 72 83  1  0  0  0
 72146  1  0  0  0
 73 75  1  0  0  0
 73 82  1  0  0  0
 75 83  2  0  0  0
 75 85  1  0  0  0
 76 77  1  0  0  0
 76147  1  0  0  0
 76148  1  0  0  0
 76 78  1  0  0  0
 77 78  1  0  0  0
 77149  1  0  0  0
 77150  1  0  0  0
 78 82  1  0  0  0
 78151  1  0  0  0
 79152  1  0  0  0
 79153  1  0  0  0
 79154  1  0  0  0
 79 82  1  0  0  0
 80 81  1  0  0  0
 80 84  1  0  0  0
 80155  1  0  0  0
 80156  1  0  0  0
 81 85  1  0  0  0
 81157  1  0  0  0
 81158  1  0  0  0
 82159  1  0  0  0
 84160  1  0  0  0
M  ISO  4   1 100  68 101  74 101  84 100
M  END
> <chiral flag>
0

> <version>
0

> <s_m_source_file>
/data/baiqing/PycharmProjects/Reinvent-master-3.2/result/LINK_invent/BTK/process_docking_weight1_custom_sum_contain_oxygen_bond_distance_aromatic_linkinvent_7_9_3/rearranged_h_0146.sdf

> <i_m_source_file_index>
58

> <r_mmod_Potential_Energy-OPLS-2005>
320.667083740234

> <r_mmod_Stretch_Energy-OPLS-2005>
233.906555175781

> <r_mmod_Bend_Energy-OPLS-2005>
327.543487548828

> <r_mmod_Torsional_Energy-OPLS-2005>
227.059280395508

> <r_mmod_Improper_Torsional_Energy-OPLS-2005>
4.64611101150513

> <r_mmod_Van_der_Waal_Energy-OPLS-2005>
127.069702148438

> <r_mmod_Electrostatic_Energy-OPLS-2005>
-563.19580078125

> <r_mmod_Solvation_Energy-OPLS-2005>
-219.790908813477

> <b_mmod_Minimization_Converged-OPLS-2005>
0

> <r_mmod_RMS_Derivative-OPLS-2005>
1.73007774353027

$$$$
58
                    3D
 Structure written by MMmdl.
171181  0  0  1  0            999 V2000
  -30.7152  -14.4590   20.6371 C   0  0  0  0  0  0
  -30.4236  -12.3319   19.3992 C   0  0  0  0  0  0
  -29.4759  -12.5148   18.1953 C   0  0  0  0  0  0
  -28.0043  -12.3484   18.6190 C   0  0  0  0  0  0
  -27.6626  -13.1789   19.8806 C   0  0  2  0  0  0
  -28.7131  -12.9058   20.9892 C   0  0  0  0  0  0
  -25.2600  -13.8107   20.5647 C   0  0  0  0  0  0
  -24.1832  -13.0428   20.9184 C   0  0  0  0  0  0
  -24.6355  -11.6879   20.8760 C   0  0  0  0  0  0
  -23.9029  -10.4277   21.0411 C   0  0  0  0  0  0
  -24.3583   -9.4197   21.9188 C   0  0  0  0  0  0
  -23.6264   -8.2232   22.0750 C   0  0  0  0  0  0
  -22.4253   -8.0281   21.3531 C   0  0  0  0  0  0
  -21.9886   -9.0252   20.4635 C   0  0  0  0  0  0
  -22.7210  -10.2136   20.3050 C   0  0  0  0  0  0
  -21.6833   -6.0735   22.5279 C   0  0  0  0  0  0
  -21.4001   -6.5642   23.8219 C   0  0  0  0  0  0
  -21.3653   -5.6795   24.9178 C   0  0  0  0  0  0
  -21.6045   -4.3059   24.7227 C   0  0  0  0  0  0
  -21.8807   -3.8144   23.4347 C   0  0  0  0  0  0
  -21.9179   -4.6962   22.3407 C   0  0  0  0  0  0
  -22.7861  -13.5236   21.1862 C   0  0  0  0  0  0
  -22.1644   -4.2149   21.0979 F   0  0  0  0  0  0
  -21.5650   -3.4546   25.7737 F   0  0  0  0  0  0
  -30.0282  -13.2884   20.4538 N   0  0  0  0  0  0
  -26.3021  -12.9226   20.3417 N   0  0  0  0  0  0
  -25.9270  -11.6417   20.5798 N   0  0  0  0  0  0
  -22.0520  -12.8224   22.0425 N   0  0  0  0  0  0
  -25.4339  -15.1817   20.3943 N   0  0  0  0  0  0
  -31.7920  -14.6490   20.0569 O   0  0  0  0  0  0
  -21.6617   -6.8874   21.4237 O   0  0  0  0  0  0
  -22.3528  -14.5537   20.6701 O   0  0  0  0  0  0
  -24.6129  -31.8692   23.2120 C   0  0  0  0  0  0
  -25.9040  -32.4822   23.8398 C   0  0  1  0  0  0
  -27.2399  -27.4497   20.0694 C   0  0  0  0  0  0
  -25.5912  -33.8623   24.2328 N   0  0  0  0  0  0
  -23.3988  -30.4945   21.5518 C   0  0  2  0  0  0
  -24.8449  -28.9638   20.1134 C   0  0  0  0  0  0
  -22.7394  -29.4676   22.4995 C   0  0  0  0  0  0
  -18.0265  -28.1376   22.8499 C   0  0  0  0  0  0
  -24.1485  -36.7302   23.2631 C   0  0  0  0  0  0
  -25.9279  -30.8357   21.3663 C   0  0  0  0  0  0
  -26.0039  -29.4728   20.7105 C   0  0  0  0  0  0
  -27.1982  -28.7173   20.6958 C   0  0  0  0  0  0
  -26.0500  -26.9451   19.4931 C   0  0  0  0  0  0
  -24.8615  -27.6964   19.5092 C   0  0  0  0  0  0
  -23.6059  -29.8275   20.1659 C   0  0  0  0  0  0
  -25.4105  -36.3107   24.0332 C   0  0  1  0  0  0
  -20.5858  -28.3662   23.1323 C   0  0  2  0  0  0
  -20.6758  -26.9401   22.5413 C   0  0  0  0  0  0
  -19.5738  -26.6388   21.5208 C   0  0  0  0  0  0
  -18.1915  -26.7925   22.1622 C   0  0  0  0  0  0
  -19.1520  -28.8831   23.2906 C   0  0  0  0  0  0
  -18.9450  -30.1442   23.8909 C   0  0  0  0  0  0
  -17.6457  -30.6587   24.0567 C   0  0  0  0  0  0
  -25.9040  -34.9478   23.5124 C   0  0  0  0  0  0
  -16.5341  -29.9095   23.6324 C   0  0  0  0  0  0
  -16.7258  -28.6505   23.0354 C   0  0  0  0  0  0
  -26.4477  -31.6588   25.0712 C   0  0  0  0  0  0
  -25.3741  -31.3670   26.1448 C   0  0  0  0  0  0
  -27.0326  -30.3035   24.6089 C   0  0  0  0  0  0
  -27.6043  -32.4305   25.7489 C   0  0  0  0  0  0
  -27.5588  -37.1794   24.8454 C   0  0  0  0  0  0
  -21.4126  -29.3041   22.3731 N   0  0  0  0  0  0
  -26.4281  -37.3803   23.9428 N   0  0  0  0  0  0
  -24.6645  -31.0808   22.1011 N   0  0  0  0  0  0
  -23.4185  -28.8215   23.3026 O   0  0  0  0  0  0
  -28.4284  -26.7459   20.0910 O   0  0  0  0  0  0
  -26.5606  -34.8933   22.4689 O   0  0  0  0  0  0
  -23.5331  -32.1454   23.7524 O   0  0  0  0  0  0
  -29.6744  -21.5808   19.6865 C   0  0  0  0  0  0
  -29.9581  -20.2240   19.9795 C   0  0  0  0  0  0
  -29.6211  -19.7443   21.2842 C   0  0  0  0  0  0
  -29.0254  -20.6720   22.1872 C   0  0  0  0  0  0
  -29.0724  -22.4043   20.6512 C   0  0  0  0  0  0
  -32.0234  -19.5673   18.4943 C   0  0  0  0  0  0
  -30.9148  -19.7976   17.4960 C   0  0  0  0  0  0
  -28.7675  -17.3077   21.1528 C   0  0  0  0  0  0
  -31.2359  -17.6804   21.6256 C   0  0  0  0  0  0
  -28.9225  -15.9038   21.7639 C   0  0  0  0  0  0
  -31.2653  -16.2563   22.2339 C   0  0  0  0  0  0
  -30.5857  -19.3512   18.9097 C   0  0  0  0  0  0
  -29.8157  -18.2740   21.7305 C   0  0  0  0  0  0
  -28.6090  -20.3099   23.6045 C   0  0  0  0  0  0
  -29.5383  -24.6225   19.6394 C   0  0  0  0  0  0
  -28.7265  -25.7945   19.0607 C   0  0  0  0  0  0
  -28.7586  -21.9546   21.8687 N   0  0  0  0  0  0
  -30.2891  -15.3616   21.5750 N   0  0  0  0  0  0
  -28.6905  -23.7274   20.4209 N   0  0  0  0  0  0
  -31.4591  -12.4554   19.0767 H   0  0  0  0  0  0
  -30.3650  -11.3109   19.7798 H   0  0  0  0  0  0
  -29.7169  -11.7937   17.4129 H   0  0  0  0  0  0
  -29.6224  -13.5036   17.7572 H   0  0  0  0  0  0
  -27.8274  -11.2891   18.8144 H   0  0  0  0  0  0
  -27.3393  -12.6194   17.7986 H   0  0  0  0  0  0
  -27.7144  -14.2202   19.5659 H   0  0  0  0  0  0
  -28.7181  -11.8407   21.2241 H   0  0  0  0  0  0
  -28.4802  -13.3644   21.9486 H   0  0  0  0  0  0
  -25.2718   -9.5691   22.4764 H   0  0  0  0  0  0
  -23.9979   -7.4623   22.7462 H   0  0  0  0  0  0
  -21.0835   -8.8770   19.8912 H   0  0  0  0  0  0
  -22.3666  -10.9687   19.6177 H   0  0  0  0  0  0
  -21.1966   -7.6148   23.9712 H   0  0  0  0  0  0
  -21.1499   -6.0530   25.9085 H   0  0  0  0  0  0
  -22.0575   -2.7603   23.2850 H   0  0  0  0  0  0
  -22.4135  -11.9872   22.4784 H   0  0  0  0  0  0
  -21.1154  -13.1253   22.2670 H   0  0  0  0  0  0
  -24.6636  -15.8368   20.4665 H   0  0  0  0  0  0
  -26.2872  -15.6149   20.0674 H   0  0  0  0  0  0
  -26.7106  -32.5544   23.1162 H   0  0  0  0  0  0
  -25.0061  -33.9789   25.0470 H   0  0  0  0  0  0
  -22.6859  -31.3109   21.4147 H   0  0  0  0  0  0
  -23.3785  -35.9589   23.3225 H   0  0  0  0  0  0
  -24.3581  -36.9009   22.2059 H   0  0  0  0  0  0
  -23.7199  -37.6458   23.6711 H   0  0  0  0  0  0
  -26.0424  -31.6047   20.6013 H   0  0  0  0  0  0
  -26.8145  -30.8851   21.9863 H   0  0  0  0  0  0
  -28.0942  -29.1073   21.1591 H   0  0  0  0  0  0
  -25.9967  -25.9651   19.0470 H   0  0  0  0  0  0
  -23.9652  -27.2925   19.0591 H   0  0  0  0  0  0
  -23.7101  -30.6020   19.4052 H   0  0  0  0  0  0
  -22.7294  -29.2454   19.8744 H   0  0  0  0  0  0
  -25.1280  -36.1943   25.0820 H   0  0  0  0  0  0
  -20.9949  -28.3232   24.1447 H   0  0  0  0  0  0
  -20.5663  -26.2268   23.3600 H   0  0  0  0  0  0
  -21.6636  -26.7455   22.1210 H   0  0  0  0  0  0
  -19.6900  -25.6306   21.1227 H   0  0  0  0  0  0
  -19.6673  -27.3202   20.6742 H   0  0  0  0  0  0
  -17.4188  -26.6692   21.4014 H   0  0  0  0  0  0
  -18.0297  -26.0054   22.9001 H   0  0  0  0  0  0
  -19.7930  -30.7249   24.2292 H   0  0  0  0  0  0
  -17.5018  -31.6276   24.5166 H   0  0  0  0  0  0
  -15.5343  -30.3004   23.7645 H   0  0  0  0  0  0
  -15.8656  -28.0826   22.7071 H   0  0  0  0  0  0
  -24.5911  -30.7031   25.7769 H   0  0  0  0  0  0
  -24.8927  -32.2813   26.4923 H   0  0  0  0  0  0
  -25.8086  -30.8804   27.0190 H   0  0  0  0  0  0
  -26.2876  -29.6764   24.1172 H   0  0  0  0  0  0
  -27.4145  -29.7294   25.4545 H   0  0  0  0  0  0
  -27.8685  -30.4359   23.9214 H   0  0  0  0  0  0
  -27.2664  -33.3615   26.2056 H   0  0  0  0  0  0
  -28.3865  -32.6845   25.0321 H   0  0  0  0  0  0
  -28.0687  -31.8423   26.5419 H   0  0  0  0  0  0
  -28.2549  -38.0153   24.7622 H   0  0  0  0  0  0
  -28.1159  -36.2701   24.6146 H   0  0  0  0  0  0
  -27.2317  -37.1262   25.8854 H   0  0  0  0  0  0
  -20.9267  -29.8766   21.6962 H   0  0  0  0  0  0
  -26.0163  -38.2857   24.1517 H   0  0  0  0  0  0
  -29.8857  -21.9802   18.7086 H   0  0  0  0  0  0
  -32.5403  -20.4536   18.8592 H   0  0  0  0  0  0
  -32.6457  -18.6851   18.3551 H   0  0  0  0  0  0
  -30.8188  -19.0569   16.7041 H   0  0  0  0  0  0
  -30.7387  -20.8216   17.1786 H   0  0  0  0  0  0
  -27.7657  -17.6811   21.3723 H   0  0  0  0  0  0
  -28.8215  -17.2289   20.0691 H   0  0  0  0  0  0
  -31.5915  -17.6284   20.6000 H   0  0  0  0  0  0
  -31.9375  -18.3179   22.1650 H   0  0  0  0  0  0
  -28.1289  -15.3161   21.3328 H   0  0  0  0  0  0
  -28.7036  -15.9341   22.8328 H   0  0  0  0  0  0
  -31.0297  -16.3048   23.2978 H   0  0  0  0  0  0
  -32.2801  -15.8563   22.1904 H   0  0  0  0  0  0
  -30.2271  -18.3306   18.9652 H   0  0  0  0  0  0
  -29.6362  -18.2376   22.8018 H   0  0  0  0  0  0
  -27.8990  -19.4826   23.6045 H   0  0  0  0  0  0
  -28.1284  -21.1470   24.1115 H   0  0  0  0  0  0
  -29.4783  -20.0279   24.1987 H   0  0  0  0  0  0
  -30.3438  -24.9984   20.2720 H   0  0  0  0  0  0
  -30.0155  -24.0902   18.8183 H   0  0  0  0  0  0
  -27.8765  -25.3948   18.5152 H   0  0  0  0  0  0
  -29.3316  -26.3099   18.3147 H   0  0  0  0  0  0
  -28.2177  -24.1720   21.1995 H   0  0  0  0  0  0
  1 25  1  0  0  0
  1 30  2  0  0  0
  1 88  1  0  0  0
  2  3  1  0  0  0
  2 25  1  0  0  0
  2 90  1  0  0  0
  2 91  1  0  0  0
  3  4  1  0  0  0
  3 92  1  0  0  0
  3 93  1  0  0  0
  4  5  1  0  0  0
  4 94  1  0  0  0
  4 95  1  0  0  0
  5  6  1  0  0  0
  5 26  1  0  0  0
  5 96  1  0  0  0
  6 25  1  0  0  0
  6 97  1  0  0  0
  6 98  1  0  0  0
  7  8  2  0  0  0
  7 26  1  0  0  0
  7 29  1  0  0  0
  8  9  1  0  0  0
  8 22  1  0  0  0
  9 10  1  0  0  0
  9 27  2  0  0  0
 10 11  2  0  0  0
 10 15  1  0  0  0
 11 12  1  0  0  0
 11 99  1  0  0  0
 12 13  2  0  0  0
 12100  1  0  0  0
 13 14  1  0  0  0
 13 31  1  0  0  0
 14 15  2  0  0  0
 14101  1  0  0  0
 15102  1  0  0  0
 16 17  2  0  0  0
 16 21  1  0  0  0
 16 31  1  0  0  0
 17 18  1  0  0  0
 17103  1  0  0  0
 18 19  2  0  0  0
 18104  1  0  0  0
 19 20  1  0  0  0
 19 24  1  0  0  0
 20 21  2  0  0  0
 20105  1  0  0  0
 21 23  1  0  0  0
 22 28  1  0  0  0
 22 32  2  0  0  0
 26 27  1  0  0  0
 28106  1  0  0  0
 28107  1  0  0  0
 29108  1  0  0  0
 29109  1  0  0  0
 33 34  1  0  0  0
 33 66  1  0  0  0
 33 70  2  0  0  0
 34 36  1  0  0  0
 34 59  1  0  0  0
 34110  1  0  0  0
 35 44  2  0  0  0
 35 45  1  0  0  0
 35 68  1  0  0  0
 36 56  1  0  0  0
 36111  1  0  0  0
 37 39  1  0  0  0
 37 47  1  0  0  0
 37 66  1  0  0  0
 37112  1  0  0  0
 38 43  2  0  0  0
 38 46  1  0  0  0
 38 47  1  0  0  0
 39 64  1  0  0  0
 39 67  2  0  0  0
 40 52  1  0  0  0
 40 53  2  0  0  0
 40 58  1  0  0  0
 41113  1  0  0  0
 41114  1  0  0  0
 41115  1  0  0  0
 41 48  1  0  0  0
 42 43  1  0  0  0
 42 66  1  0  0  0
 42116  1  0  0  0
 42117  1  0  0  0
 43 44  1  0  0  0
 44118  1  0  0  0
 45 46  2  0  0  0
 45119  1  0  0  0
 46120  1  0  0  0
 47121  1  0  0  0
 47122  1  0  0  0
 48 56  1  0  0  0
 48 65  1  0  0  0
 48123  1  0  0  0
 49 50  1  0  0  0
 49 53  1  0  0  0
 49 64  1  0  0  0
 49124  1  0  0  0
 50 51  1  0  0  0
 50125  1  0  0  0
 50126  1  0  0  0
 51 52  1  0  0  0
 51127  1  0  0  0
 51128  1  0  0  0
 52129  1  0  0  0
 52130  1  0  0  0
 53 54  1  0  0  0
 54 55  2  0  0  0
 54131  1  0  0  0
 55 57  1  0  0  0
 55132  1  0  0  0
 56 69  2  0  0  0
 57 58  2  0  0  0
 57133  1  0  0  0
 58134  1  0  0  0
 59 60  1  0  0  0
 59 61  1  0  0  0
 59 62  1  0  0  0
 60135  1  0  0  0
 60136  1  0  0  0
 60137  1  0  0  0
 61138  1  0  0  0
 61139  1  0  0  0
 61140  1  0  0  0
 62141  1  0  0  0
 62142  1  0  0  0
 62143  1  0  0  0
 63 65  1  0  0  0
 63144  1  0  0  0
 63145  1  0  0  0
 63146  1  0  0  0
 64147  1  0  0  0
 65148  1  0  0  0
 68 86  1  0  0  0
 71 72  2  0  0  0
 71 75  1  0  0  0
 71149  1  0  0  0
 72 73  1  0  0  0
 72 82  1  0  0  0
 73 74  2  0  0  0
 73 83  1  0  0  0
 74 84  1  0  0  0
 74 87  1  0  0  0
 75 87  2  0  0  0
 75 89  1  0  0  0
 76 77  1  0  0  0
 76 82  1  0  0  0
 76150  1  0  0  0
 76151  1  0  0  0
 77 82  1  0  0  0
 77152  1  0  0  0
 77153  1  0  0  0
 78 80  1  0  0  0
 78 83  1  0  0  0
 78154  1  0  0  0
 78155  1  0  0  0
 79 81  1  0  0  0
 79 83  1  0  0  0
 79156  1  0  0  0
 79157  1  0  0  0
 80 88  1  0  0  0
 80158  1  0  0  0
 80159  1  0  0  0
 81 88  1  0  0  0
 81160  1  0  0  0
 81161  1  0  0  0
 82162  1  0  0  0
 83163  1  0  0  0
 84164  1  0  0  0
 84165  1  0  0  0
 84166  1  0  0  0
 85 86  1  0  0  0
 85 89  1  0  0  0
 85167  1  0  0  0
 85168  1  0  0  0
 86169  1  0  0  0
 86170  1  0  0  0
 89171  1  0  0  0
M  ISO  4   1 100  68 101  86 101  88 100
M  END
> <chiral flag>
0

> <version>
0

> <s_m_source_file>
/data/baiqing/PycharmProjects/Reinvent-master-3.2/result/LINK_invent/BTK/process_docking_weight1_custom_sum_contain_oxygen_bond_distance_aromatic_linkinvent_7_9_3/rearranged_h_0146.sdf

> <i_m_source_file_index>
59

> <r_mmod_Potential_Energy-OPLS-2005>
-51.1308479309082

> <r_mmod_Stretch_Energy-OPLS-2005>
45.5047378540039

> <r_mmod_Bend_Energy-OPLS-2005>
146.51545715332

> <r_mmod_Torsional_Energy-OPLS-2005>
326.614685058594

> <r_mmod_Improper_Torsional_Energy-OPLS-2005>
7.47878837585449

> <r_mmod_Van_der_Waal_Energy-OPLS-2005>
182.096038818359

> <r_mmod_Electrostatic_Energy-OPLS-2005>
-552.041931152344

> <r_mmod_Solvation_Energy-OPLS-2005>
-218.461212158203

> <b_mmod_Minimization_Converged-OPLS-2005>
0

> <r_mmod_RMS_Derivative-OPLS-2005>
1.92015218734741

$$$$
59
                    3D
 Structure written by MMmdl.
165174  0  0  1  0            999 V2000
  -30.6752  -14.6406   20.4962 C   0  0  0  0  0  0
  -30.4258  -12.3941   19.4544 C   0  0  0  0  0  0
  -29.5012  -12.4865   18.2230 C   0  0  0  0  0  0
  -28.0281  -12.3254   18.6453 C   0  0  0  0  0  0
  -27.6484  -13.2246   19.8530 C   0  0  2  0  0  0
  -28.6951  -13.1302   20.9846 C   0  0  0  0  0  0
  -25.2539  -13.8192   20.5678 C   0  0  0  0  0  0
  -24.1817  -13.0444   20.9187 C   0  0  0  0  0  0
  -24.6406  -11.6927   20.8749 C   0  0  0  0  0  0
  -23.9081  -10.4300   21.0418 C   0  0  0  0  0  0
  -24.3625   -9.4209   21.9195 C   0  0  0  0  0  0
  -23.6292   -8.2249   22.0769 C   0  0  0  0  0  0
  -22.4277   -8.0292   21.3556 C   0  0  0  0  0  0
  -21.9920   -9.0267   20.4655 C   0  0  0  0  0  0
  -22.7258  -10.2137   20.3067 C   0  0  0  0  0  0
  -21.6848   -6.0741   22.5284 C   0  0  0  0  0  0
  -21.4009   -6.5637   23.8220 C   0  0  0  0  0  0
  -21.3651   -5.6786   24.9176 C   0  0  0  0  0  0
  -21.6045   -4.3055   24.7219 C   0  0  0  0  0  0
  -21.8819   -3.8153   23.4342 C   0  0  0  0  0  0
  -21.9187   -4.6972   22.3403 C   0  0  0  0  0  0
  -22.7842  -13.5236   21.1847 C   0  0  0  0  0  0
  -22.1659   -4.2162   21.0980 F   0  0  0  0  0  0
  -21.5625   -3.4537   25.7730 F   0  0  0  0  0  0
  -30.0063  -13.4470   20.4037 N   0  0  0  0  0  0
  -26.2984  -12.9396   20.3303 N   0  0  0  0  0  0
  -25.9336  -11.6547   20.5774 N   0  0  0  0  0  0
  -22.0482  -12.8244   22.0418 N   0  0  0  0  0  0
  -25.4208  -15.1909   20.4057 N   0  0  0  0  0  0
  -31.8522  -14.7309   20.1412 O   0  0  0  0  0  0
  -21.6638   -6.8889   21.4254 O   0  0  0  0  0  0
  -22.3535  -14.5553   20.6704 O   0  0  0  0  0  0
  -24.6236  -31.8594   23.2012 C   0  0  0  0  0  0
  -25.9090  -32.4766   23.8328 C   0  0  1  0  0  0
  -27.2184  -27.3275   20.1226 C   0  0  0  0  0  0
  -25.5910  -33.8567   24.2241 N   0  0  0  0  0  0
  -23.4177  -30.4834   21.5415 C   0  0  2  0  0  0
  -24.8675  -28.9435   20.1049 C   0  0  0  0  0  0
  -22.7473  -29.4624   22.4909 C   0  0  0  0  0  0
  -18.0290  -28.1392   22.8473 C   0  0  0  0  0  0
  -24.1493  -36.7278   23.2650 C   0  0  0  0  0  0
  -25.9614  -30.7884   21.3812 C   0  0  0  0  0  0
  -26.0353  -29.4209   20.7154 C   0  0  0  0  0  0
  -27.2178  -28.6241   20.7157 C   0  0  0  0  0  0
  -26.0381  -26.9060   19.4731 C   0  0  0  0  0  0
  -24.8701  -27.6907   19.4735 C   0  0  0  0  0  0
  -23.6338  -29.8216   20.1559 C   0  0  0  0  0  0
  -25.4130  -36.3064   24.0329 C   0  0  1  0  0  0
  -20.5890  -28.3691   23.1277 C   0  0  2  0  0  0
  -20.6788  -26.9418   22.5400 C   0  0  0  0  0  0
  -19.5762  -26.6376   21.5208 C   0  0  0  0  0  0
  -18.1933  -26.7935   22.1606 C   0  0  0  0  0  0
  -19.1545  -28.8858   23.2862 C   0  0  0  0  0  0
  -18.9482  -30.1464   23.8875 C   0  0  0  0  0  0
  -17.6488  -30.6588   24.0579 C   0  0  0  0  0  0
  -25.9069  -34.9443   23.5085 C   0  0  0  0  0  0
  -16.5373  -29.9094   23.6358 C   0  0  0  0  0  0
  -16.7280  -28.6522   23.0355 C   0  0  0  0  0  0
  -26.4503  -31.6597   25.0702 C   0  0  0  0  0  0
  -25.3730  -31.3719   26.1412 C   0  0  0  0  0  0
  -27.0406  -30.3031   24.6183 C   0  0  0  0  0  0
  -27.6014  -32.4415   25.7456 C   0  0  0  0  0  0
  -27.5588  -37.1782   24.8476 C   0  0  0  0  0  0
  -21.4183  -29.3029   22.3653 N   0  0  0  0  0  0
  -26.4298  -37.3754   23.9418 N   0  0  0  0  0  0
  -24.6845  -31.0605   22.0974 N   0  0  0  0  0  0
  -23.4192  -28.8170   23.3002 O   0  0  0  0  0  0
  -28.2858  -26.4244   20.1882 O   0  0  0  0  0  0
  -26.5646  -34.8922   22.4659 O   0  0  0  0  0  0
  -23.5401  -32.1410   23.7340 O   0  0  0  0  0  0
  -29.4295  -23.2914   21.8695 C   0  0  0  0  0  0
  -28.4583  -22.9512   19.7061 C   0  0  0  0  0  0
  -29.8769  -21.9371   21.9031 C   0  0  0  0  0  0
  -28.6940  -23.8361   20.7902 C   0  0  0  0  0  0
  -28.9283  -21.5959   19.7006 C   0  0  0  0  0  0
  -29.6444  -21.0479   20.8101 C   0  0  0  0  0  0
  -29.9562  -20.4205   24.0507 C   0  0  0  0  0  0
  -30.0697  -21.8468   24.5255 C   0  0  0  0  0  0
  -30.5781  -21.4654   23.1492 C   0  0  0  0  0  0
  -28.6636  -20.7554   18.4652 C   0  0  0  0  0  0
  -30.9916  -17.2773   22.4775 C   0  0  0  0  0  0
  -27.9531  -25.2121   20.9635 C   0  0  0  0  0  0
  -29.5729  -18.4051   20.6386 C   0  0  0  0  0  0
  -30.5097  -17.1621   21.0184 C   0  0  2  0  0  0
  -30.2266  -19.7324   20.8540 N   0  0  0  0  0  0
  -29.9648  -15.7678   20.8274 N   0  0  0  0  0  0
  -31.4686  -12.4951   19.1485 H   0  0  0  0  0  0
  -30.3477  -11.4113   19.9223 H   0  0  0  0  0  0
  -29.7651  -11.7163   17.4975 H   0  0  0  0  0  0
  -29.6417  -13.4444   17.7202 H   0  0  0  0  0  0
  -27.8812  -11.2771   18.9109 H   0  0  0  0  0  0
  -27.3654  -12.5194   17.8003 H   0  0  0  0  0  0
  -27.6541  -14.2503   19.4827 H   0  0  0  0  0  0
  -28.7059  -12.1305   21.4216 H   0  0  0  0  0  0
  -28.4458  -13.8128   21.7982 H   0  0  0  0  0  0
  -25.2766   -9.5678   22.4775 H   0  0  0  0  0  0
  -23.9987   -7.4647   22.7503 H   0  0  0  0  0  0
  -21.0844   -8.8800   19.8964 H   0  0  0  0  0  0
  -22.3730  -10.9683   19.6175 H   0  0  0  0  0  0
  -21.2006   -7.6143   23.9730 H   0  0  0  0  0  0
  -21.1468   -6.0509   25.9076 H   0  0  0  0  0  0
  -22.0602   -2.7616   23.2838 H   0  0  0  0  0  0
  -22.4063  -11.9868   22.4773 H   0  0  0  0  0  0
  -21.1130  -13.1330   22.2677 H   0  0  0  0  0  0
  -24.6447  -15.8371   20.4992 H   0  0  0  0  0  0
  -26.2639  -15.6366   20.0680 H   0  0  0  0  0  0
  -26.7137  -32.5422   23.1056 H   0  0  0  0  0  0
  -25.0061  -33.9731   25.0383 H   0  0  0  0  0  0
  -22.7093  -31.3025   21.3989 H   0  0  0  0  0  0
  -23.3764  -35.9600   23.3311 H   0  0  0  0  0  0
  -24.3570  -36.8908   22.2060 H   0  0  0  0  0  0
  -23.7259  -37.6477   23.6699 H   0  0  0  0  0  0
  -26.1124  -31.5555   20.6209 H   0  0  0  0  0  0
  -26.8331  -30.8183   22.0227 H   0  0  0  0  0  0
  -28.1103  -28.9770   21.2140 H   0  0  0  0  0  0
  -26.0096  -25.9391   18.9918 H   0  0  0  0  0  0
  -23.9767  -27.3207   18.9908 H   0  0  0  0  0  0
  -23.7518  -30.6012   19.4024 H   0  0  0  0  0  0
  -22.7545  -29.2500   19.8498 H   0  0  0  0  0  0
  -25.1312  -36.1886   25.0822 H   0  0  0  0  0  0
  -20.9991  -28.3279   24.1398 H   0  0  0  0  0  0
  -20.5713  -26.2302   23.3596 H   0  0  0  0  0  0
  -21.6659  -26.7456   22.1184 H   0  0  0  0  0  0
  -19.6942  -25.6282   21.1249 H   0  0  0  0  0  0
  -19.6726  -27.3181   20.6737 H   0  0  0  0  0  0
  -17.4214  -26.6698   21.3991 H   0  0  0  0  0  0
  -18.0333  -26.0061   22.8990 H   0  0  0  0  0  0
  -19.7961  -30.7284   24.2217 H   0  0  0  0  0  0
  -17.5047  -31.6269   24.5186 H   0  0  0  0  0  0
  -15.5381  -30.2997   23.7701 H   0  0  0  0  0  0
  -15.8677  -28.0851   22.7075 H   0  0  0  0  0  0
  -24.5902  -30.7087   25.7718 H   0  0  0  0  0  0
  -24.8938  -32.2880   26.4863 H   0  0  0  0  0  0
  -25.8038  -30.8856   27.0170 H   0  0  0  0  0  0
  -26.3006  -29.6708   24.1263 H   0  0  0  0  0  0
  -27.4186  -29.7350   25.4695 H   0  0  0  0  0  0
  -27.8818  -30.4340   23.9375 H   0  0  0  0  0  0
  -27.2561  -33.3723   26.1977 H   0  0  0  0  0  0
  -28.3809  -32.7001   25.0277 H   0  0  0  0  0  0
  -28.0703  -31.8616   26.5412 H   0  0  0  0  0  0
  -28.2590  -38.0087   24.7548 H   0  0  0  0  0  0
  -28.1102  -36.2627   24.6287 H   0  0  0  0  0  0
  -27.2302  -37.1406   25.8872 H   0  0  0  0  0  0
  -20.9366  -29.8724   21.6834 H   0  0  0  0  0  0
  -26.0173  -38.2819   24.1438 H   0  0  0  0  0  0
  -29.6033  -23.9159   22.7342 H   0  0  0  0  0  0
  -27.8719  -23.3131   18.8727 H   0  0  0  0  0  0
  -28.9635  -20.0534   23.7940 H   0  0  0  0  0  0
  -30.6167  -19.6942   24.5216 H   0  0  0  0  0  0
  -30.8041  -22.0490   25.3020 H   0  0  0  0  0  0
  -29.1432  -22.4127   24.6019 H   0  0  0  0  0  0
  -31.6554  -21.4183   22.9971 H   0  0  0  0  0  0
  -28.3349  -21.3707   17.6279 H   0  0  0  0  0  0
  -27.8876  -20.0189   18.6693 H   0  0  0  0  0  0
  -29.5687  -20.2338   18.1540 H   0  0  0  0  0  0
  -31.5147  -18.2140   22.6643 H   0  0  0  0  0  0
  -31.6893  -16.4779   22.7304 H   0  0  0  0  0  0
  -30.1544  -17.2218   23.1739 H   0  0  0  0  0  0
  -28.0537  -25.5023   22.0102 H   0  0  0  0  0  0
  -26.8972  -24.9583   20.8695 H   0  0  0  0  0  0
  -28.6528  -18.3765   21.2244 H   0  0  0  0  0  0
  -29.2797  -18.3176   19.5925 H   0  0  0  0  0  0
  -31.3924  -17.2468   20.3800 H   0  0  0  0  0  0
  -30.9435  -19.6621   21.5688 H   0  0  0  0  0  0
  -28.9858  -15.6301   21.0299 H   0  0  0  0  0  0
  1 25  1  0  0  0
  1 30  2  0  0  0
  1 86  1  0  0  0
  2  3  1  0  0  0
  2 25  1  0  0  0
  2 87  1  0  0  0
  2 88  1  0  0  0
  3  4  1  0  0  0
  3 89  1  0  0  0
  3 90  1  0  0  0
  4  5  1  0  0  0
  4 91  1  0  0  0
  4 92  1  0  0  0
  5  6  1  0  0  0
  5 26  1  0  0  0
  5 93  1  0  0  0
  6 25  1  0  0  0
  6 94  1  0  0  0
  6 95  1  0  0  0
  7  8  2  0  0  0
  7 26  1  0  0  0
  7 29  1  0  0  0
  8  9  1  0  0  0
  8 22  1  0  0  0
  9 10  1  0  0  0
  9 27  2  0  0  0
 10 11  2  0  0  0
 10 15  1  0  0  0
 11 12  1  0  0  0
 11 96  1  0  0  0
 12 13  2  0  0  0
 12 97  1  0  0  0
 13 14  1  0  0  0
 13 31  1  0  0  0
 14 15  2  0  0  0
 14 98  1  0  0  0
 15 99  1  0  0  0
 16 17  2  0  0  0
 16 21  1  0  0  0
 16 31  1  0  0  0
 17 18  1  0  0  0
 17100  1  0  0  0
 18 19  2  0  0  0
 18101  1  0  0  0
 19 20  1  0  0  0
 19 24  1  0  0  0
 20 21  2  0  0  0
 20102  1  0  0  0
 21 23  1  0  0  0
 22 28  1  0  0  0
 22 32  2  0  0  0
 26 27  1  0  0  0
 28103  1  0  0  0
 28104  1  0  0  0
 29105  1  0  0  0
 29106  1  0  0  0
 33 34  1  0  0  0
 33 66  1  0  0  0
 33 70  2  0  0  0
 34 36  1  0  0  0
 34 59  1  0  0  0
 34107  1  0  0  0
 35 44  2  0  0  0
 35 45  1  0  0  0
 35 68  1  0  0  0
 36 56  1  0  0  0
 36108  1  0  0  0
 37 39  1  0  0  0
 37 47  1  0  0  0
 37 66  1  0  0  0
 37109  1  0  0  0
 38 43  2  0  0  0
 38 46  1  0  0  0
 38 47  1  0  0  0
 39 64  1  0  0  0
 39 67  2  0  0  0
 40 52  1  0  0  0
 40 53  2  0  0  0
 40 58  1  0  0  0
 41110  1  0  0  0
 41111  1  0  0  0
 41112  1  0  0  0
 41 48  1  0  0  0
 42 43  1  0  0  0
 42 66  1  0  0  0
 42113  1  0  0  0
 42114  1  0  0  0
 43 44  1  0  0  0
 44115  1  0  0  0
 45 46  2  0  0  0
 45116  1  0  0  0
 46117  1  0  0  0
 47118  1  0  0  0
 47119  1  0  0  0
 48 56  1  0  0  0
 48 65  1  0  0  0
 48120  1  0  0  0
 49 50  1  0  0  0
 49 53  1  0  0  0
 49 64  1  0  0  0
 49121  1  0  0  0
 50 51  1  0  0  0
 50122  1  0  0  0
 50123  1  0  0  0
 51 52  1  0  0  0
 51124  1  0  0  0
 51125  1  0  0  0
 52126  1  0  0  0
 52127  1  0  0  0
 53 54  1  0  0  0
 54 55  2  0  0  0
 54128  1  0  0  0
 55 57  1  0  0  0
 55129  1  0  0  0
 56 69  2  0  0  0
 57 58  2  0  0  0
 57130  1  0  0  0
 58131  1  0  0  0
 59 60  1  0  0  0
 59 61  1  0  0  0
 59 62  1  0  0  0
 60132  1  0  0  0
 60133  1  0  0  0
 60134  1  0  0  0
 61135  1  0  0  0
 61136  1  0  0  0
 61137  1  0  0  0
 62138  1  0  0  0
 62139  1  0  0  0
 62140  1  0  0  0
 63 65  1  0  0  0
 63141  1  0  0  0
 63142  1  0  0  0
 63143  1  0  0  0
 64144  1  0  0  0
 65145  1  0  0  0
 68 82  1  0  0  0
 71 73  2  0  0  0
 71 74  1  0  0  0
 71146  1  0  0  0
 72 74  2  0  0  0
 72 75  1  0  0  0
 72147  1  0  0  0
 73 76  1  0  0  0
 73 79  1  0  0  0
 74 82  1  0  0  0
 75 76  2  0  0  0
 75 80  1  0  0  0
 76 85  1  0  0  0
 77 78  1  0  0  0
 77 79  1  0  0  0
 77148  1  0  0  0
 77149  1  0  0  0
 78 79  1  0  0  0
 78150  1  0  0  0
 78151  1  0  0  0
 79152  1  0  0  0
 80153  1  0  0  0
 80154  1  0  0  0
 80155  1  0  0  0
 81156  1  0  0  0
 81157  1  0  0  0
 81158  1  0  0  0
 81 84  1  0  0  0
 82159  1  0  0  0
 82160  1  0  0  0
 83 84  1  0  0  0
 83 85  1  0  0  0
 83161  1  0  0  0
 83162  1  0  0  0
 84 86  1  0  0  0
 84163  1  0  0  0
 85164  1  0  0  0
 86165  1  0  0  0
M  ISO  4   1 100  68 101  82 101  86 100
M  END
> <chiral flag>
0

> <version>
0

> <s_m_source_file>
/data/baiqing/PycharmProjects/Reinvent-master-3.2/result/LINK_invent/BTK/process_docking_weight1_custom_sum_contain_oxygen_bond_distance_aromatic_linkinvent_7_9_3/rearranged_h_0146.sdf

> <i_m_source_file_index>
60

> <r_mmod_Potential_Energy-OPLS-2005>
46.8339653015137

> <r_mmod_Stretch_Energy-OPLS-2005>
77.5978469848633

> <r_mmod_Bend_Energy-OPLS-2005>
149.770095825195

> <r_mmod_Torsional_Energy-OPLS-2005>
277.919738769531

> <r_mmod_Improper_Torsional_Energy-OPLS-2005>
8.79084873199463

> <r_mmod_Van_der_Waal_Energy-OPLS-2005>
141.19140625

> <r_mmod_Electrostatic_Energy-OPLS-2005>
-454.272735595703

> <r_mmod_Solvation_Energy-OPLS-2005>
-209.159698486328

> <b_mmod_Minimization_Converged-OPLS-2005>
0

> <r_mmod_RMS_Derivative-OPLS-2005>
2.1826171875

$$$$
60
                    3D
 Structure written by MMmdl.
161170  0  0  1  0            999 V2000
  -30.5294  -14.8517   20.4436 C   0  0  0  0  0  0
  -30.4512  -12.5225   19.4797 C   0  0  0  0  0  0
  -29.5212  -12.5234   18.2432 C   0  0  0  0  0  0
  -28.0488  -12.3244   18.6569 C   0  0  0  0  0  0
  -27.6398  -13.2303   19.8472 C   0  0  2  0  0  0
  -28.6848  -13.1829   20.9833 C   0  0  0  0  0  0
  -25.2506  -13.8176   20.5681 C   0  0  0  0  0  0
  -24.1805  -13.0429   20.9226 C   0  0  0  0  0  0
  -24.6394  -11.6907   20.8755 C   0  0  0  0  0  0
  -23.9069  -10.4288   21.0411 C   0  0  0  0  0  0
  -24.3619   -9.4202   21.9186 C   0  0  0  0  0  0
  -23.6292   -8.2240   22.0755 C   0  0  0  0  0  0
  -22.4273   -8.0281   21.3546 C   0  0  0  0  0  0
  -21.9909   -9.0256   20.4649 C   0  0  0  0  0  0
  -22.7241  -10.2133   20.3059 C   0  0  0  0  0  0
  -21.6853   -6.0734   22.5278 C   0  0  0  0  0  0
  -21.4016   -6.5636   23.8211 C   0  0  0  0  0  0
  -21.3659   -5.6790   24.9173 C   0  0  0  0  0  0
  -21.6043   -4.3054   24.7224 C   0  0  0  0  0  0
  -21.8819   -3.8145   23.4344 C   0  0  0  0  0  0
  -21.9193   -4.6961   22.3400 C   0  0  0  0  0  0
  -22.7827  -13.5219   21.1877 C   0  0  0  0  0  0
  -22.1662   -4.2146   21.0976 F   0  0  0  0  0  0
  -21.5627   -3.4538   25.7737 F   0  0  0  0  0  0
  -29.9746  -13.5827   20.4027 N   0  0  0  0  0  0
  -26.2925  -12.9377   20.3249 N   0  0  0  0  0  0
  -25.9321  -11.6525   20.5740 N   0  0  0  0  0  0
  -22.0466  -12.8217   22.0431 N   0  0  0  0  0  0
  -25.4172  -15.1898   20.4038 N   0  0  0  0  0  0
  -31.7210  -14.9951   20.1483 O   0  0  0  0  0  0
  -21.6639   -6.8878   21.4241 O   0  0  0  0  0  0
  -22.3522  -14.5525   20.6716 O   0  0  0  0  0  0
  -24.6374  -31.8486   23.1916 C   0  0  0  0  0  0
  -25.9168  -32.4719   23.8290 C   0  0  1  0  0  0
  -27.2238  -27.1976   20.1522 C   0  0  0  0  0  0
  -25.5937  -33.8522   24.2212 N   0  0  0  0  0  0
  -23.4384  -30.4676   21.5361 C   0  0  2  0  0  0
  -24.8883  -28.8973   20.1160 C   0  0  0  0  0  0
  -22.7534  -29.4567   22.4886 C   0  0  0  0  0  0
  -18.0299  -28.1391   22.8481 C   0  0  0  0  0  0
  -24.1490  -36.7268   23.2643 C   0  0  0  0  0  0
  -25.9887  -30.7431   21.3792 C   0  0  0  0  0  0
  -26.0633  -29.3574   20.7255 C   0  0  0  0  0  0
  -27.2364  -28.5243   20.7226 C   0  0  0  0  0  0
  -26.0246  -26.8135   19.5183 C   0  0  0  0  0  0
  -24.8774  -27.6358   19.4985 C   0  0  0  0  0  0
  -23.6622  -29.7940   20.1561 C   0  0  0  0  0  0
  -25.4120  -36.3047   24.0320 C   0  0  1  0  0  0
  -20.5907  -28.3708   23.1255 C   0  0  2  0  0  0
  -20.6785  -26.9417   22.5409 C   0  0  0  0  0  0
  -19.5761  -26.6381   21.5214 C   0  0  0  0  0  0
  -18.1942  -26.7931   22.1625 C   0  0  0  0  0  0
  -19.1554  -28.8867   23.2861 C   0  0  0  0  0  0
  -18.9471  -30.1465   23.8884 C   0  0  0  0  0  0
  -17.6469  -30.6588   24.0562 C   0  0  0  0  0  0
  -25.9065  -34.9420   23.5076 C   0  0  0  0  0  0
  -16.5361  -29.9083   23.6333 C   0  0  0  0  0  0
  -16.7285  -28.6502   23.0353 C   0  0  0  0  0  0
  -26.4513  -31.6569   25.0709 C   0  0  0  0  0  0
  -25.3714  -31.3743   26.1416 C   0  0  0  0  0  0
  -27.0370  -30.2975   24.6245 C   0  0  0  0  0  0
  -27.6051  -32.4324   25.7491 C   0  0  0  0  0  0
  -27.5575  -37.1792   24.8467 C   0  0  0  0  0  0
  -21.4233  -29.3042   22.3630 N   0  0  0  0  0  0
  -26.4289  -37.3753   23.9405 N   0  0  0  0  0  0
  -24.7076  -31.0395   22.0918 N   0  0  0  0  0  0
  -23.4201  -28.8118   23.3018 O   0  0  0  0  0  0
  -28.3072  -26.2700   20.1490 O   0  0  0  0  0  0
  -26.5651  -34.8910   22.4654 O   0  0  0  0  0  0
  -23.5508  -32.1333   23.7175 O   0  0  0  0  0  0
  -30.7676  -18.3198   20.6141 C   0  0  0  0  0  0
  -28.4184  -18.1670   20.4143 C   0  0  0  0  0  0
  -29.4092  -20.4978   20.5221 C   0  0  0  0  0  0
  -30.6547  -19.7675   20.6334 C   0  0  0  0  0  0
  -29.6502  -17.4403   20.5273 C   0  0  0  0  0  0
  -28.2867  -19.6182   20.4032 C   0  0  0  0  0  0
  -29.2989  -22.1221   20.7173 C   0  0  2  0  0  0
  -28.5488  -23.4116   20.0184 C   0  0  2  0  0  0
  -29.9961  -23.0684   19.7529 C   0  0  2  0  0  0
  -31.9499  -20.5362   20.8437 C   0  0  0  0  0  0
  -25.8859  -19.4700   20.2367 C   0  0  0  0  0  0
  -28.1336  -24.8494   20.6956 C   0  0  0  0  0  0
  -29.6428  -15.9272   20.6167 N   0  0  0  0  0  0
  -30.2003  -22.5328   18.3902 N   0  3  0  0  0  0
  -27.0676  -20.2575   20.3155 O   0  0  0  0  0  0
  -31.4847  -12.6888   19.1717 H   0  0  0  0  0  0
  -30.4382  -11.5503   19.9745 H   0  0  0  0  0  0
  -29.8214  -11.7436   17.5420 H   0  0  0  0  0  0
  -29.6249  -13.4696   17.7098 H   0  0  0  0  0  0
  -27.9230  -11.2767   18.9324 H   0  0  0  0  0  0
  -27.3896  -12.4961   17.8051 H   0  0  0  0  0  0
  -27.6237  -14.2461   19.4525 H   0  0  0  0  0  0
  -28.7474  -12.1818   21.4127 H   0  0  0  0  0  0
  -28.4003  -13.8466   21.8015 H   0  0  0  0  0  0
  -25.2763   -9.5675   22.4763 H   0  0  0  0  0  0
  -23.9998   -7.4628   22.7473 H   0  0  0  0  0  0
  -21.0839   -8.8778   19.8955 H   0  0  0  0  0  0
  -22.3699  -10.9674   19.6172 H   0  0  0  0  0  0
  -21.2010   -7.6145   23.9713 H   0  0  0  0  0  0
  -21.1481   -6.0521   25.9076 H   0  0  0  0  0  0
  -22.0598   -2.7608   23.2845 H   0  0  0  0  0  0
  -22.4078  -11.9881   22.4825 H   0  0  0  0  0  0
  -21.1082  -13.1246   22.2626 H   0  0  0  0  0  0
  -24.6303  -15.8248   20.4799 H   0  0  0  0  0  0
  -26.2244  -15.6104   19.9652 H   0  0  0  0  0  0
  -26.7235  -32.5351   23.1025 H   0  0  0  0  0  0
  -25.0058  -33.9643   25.0342 H   0  0  0  0  0  0
  -22.7381  -31.2915   21.3828 H   0  0  0  0  0  0
  -23.3750  -35.9603   23.3306 H   0  0  0  0  0  0
  -24.3576  -36.8897   22.2058 H   0  0  0  0  0  0
  -23.7250  -37.6469   23.6676 H   0  0  0  0  0  0
  -26.1337  -31.4987   20.6059 H   0  0  0  0  0  0
  -26.8632  -30.7959   22.0162 H   0  0  0  0  0  0
  -28.1392  -28.8770   21.2014 H   0  0  0  0  0  0
  -25.9671  -25.8441   19.0435 H   0  0  0  0  0  0
  -23.9790  -27.2778   19.0146 H   0  0  0  0  0  0
  -23.7948  -30.5668   19.3980 H   0  0  0  0  0  0
  -22.7787  -29.2319   19.8484 H   0  0  0  0  0  0
  -25.1307  -36.1884   25.0812 H   0  0  0  0  0  0
  -21.0001  -28.3295   24.1375 H   0  0  0  0  0  0
  -20.5680  -26.2318   23.3620 H   0  0  0  0  0  0
  -21.6654  -26.7429   22.1207 H   0  0  0  0  0  0
  -19.6921  -25.6289   21.1250 H   0  0  0  0  0  0
  -19.6698  -27.3186   20.6739 H   0  0  0  0  0  0
  -17.4209  -26.6672   21.4031 H   0  0  0  0  0  0
  -18.0342  -26.0076   22.9025 H   0  0  0  0  0  0
  -19.7947  -30.7285   24.2248 H   0  0  0  0  0  0
  -17.5022  -31.6266   24.5165 H   0  0  0  0  0  0
  -15.5360  -30.2980   23.7664 H   0  0  0  0  0  0
  -15.8686  -28.0817   22.7075 H   0  0  0  0  0  0
  -24.5891  -30.7093   25.7740 H   0  0  0  0  0  0
  -24.8907  -32.2920   26.4810 H   0  0  0  0  0  0
  -25.8011  -30.8936   27.0214 H   0  0  0  0  0  0
  -26.2971  -29.6707   24.1254 H   0  0  0  0  0  0
  -27.4010  -29.7262   25.4795 H   0  0  0  0  0  0
  -27.8866  -30.4231   23.9529 H   0  0  0  0  0  0
  -27.2649  -33.3636   26.2034 H   0  0  0  0  0  0
  -28.3881  -32.6866   25.0332 H   0  0  0  0  0  0
  -28.0698  -31.8471   26.5437 H   0  0  0  0  0  0
  -28.2595  -38.0085   24.7498 H   0  0  0  0  0  0
  -28.1067  -36.2614   24.6311 H   0  0  0  0  0  0
  -27.2290  -37.1464   25.8870 H   0  0  0  0  0  0
  -20.9431  -29.8749   21.6814 H   0  0  0  0  0  0
  -26.0161  -38.2825   24.1398 H   0  0  0  0  0  0
  -31.7478  -17.8743   20.7175 H   0  0  0  0  0  0
  -27.5279  -17.5621   20.3519 H   0  0  0  0  0  0
  -29.4958  -22.2863   21.7754 H   0  0  0  0  0  0
  -27.8326  -23.1335   19.2473 H   0  0  0  0  0  0
  -30.7923  -23.7170   20.1140 H   0  0  0  0  0  0
  -32.6967  -19.9166   21.3419 H   0  0  0  0  0  0
  -31.8044  -21.4157   21.4703 H   0  0  0  0  0  0
  -32.3700  -20.8529   19.8898 H   0  0  0  0  0  0
  -25.0189  -20.1273   20.1715 H   0  0  0  0  0  0
  -25.7578  -18.8485   21.1242 H   0  0  0  0  0  0
  -25.8836  -18.8378   19.3477 H   0  0  0  0  0  0
  -28.6649  -24.8778   21.6471 H   0  0  0  0  0  0
  -27.0901  -24.7419   20.9928 H   0  0  0  0  0  0
  -28.7188  -15.5610   20.7853 H   0  0  0  0  0  0
  -29.4677  -21.8962   18.1342 H   0  0  0  0  0  0
  -31.0741  -22.0445   18.3242 H   0  0  0  0  0  0
  -30.2199  -23.2779   17.7172 H   0  0  0  0  0  0
  1 25  1  0  0  0
  1 30  2  0  0  0
  1 83  1  0  0  0
  2  3  1  0  0  0
  2 25  1  0  0  0
  2 86  1  0  0  0
  2 87  1  0  0  0
  3  4  1  0  0  0
  3 88  1  0  0  0
  3 89  1  0  0  0
  4  5  1  0  0  0
  4 90  1  0  0  0
  4 91  1  0  0  0
  5  6  1  0  0  0
  5 26  1  0  0  0
  5 92  1  0  0  0
  6 25  1  0  0  0
  6 93  1  0  0  0
  6 94  1  0  0  0
  7  8  2  0  0  0
  7 26  1  0  0  0
  7 29  1  0  0  0
  8  9  1  0  0  0
  8 22  1  0  0  0
  9 10  1  0  0  0
  9 27  2  0  0  0
 10 11  2  0  0  0
 10 15  1  0  0  0
 11 12  1  0  0  0
 11 95  1  0  0  0
 12 13  2  0  0  0
 12 96  1  0  0  0
 13 14  1  0  0  0
 13 31  1  0  0  0
 14 15  2  0  0  0
 14 97  1  0  0  0
 15 98  1  0  0  0
 16 17  2  0  0  0
 16 21  1  0  0  0
 16 31  1  0  0  0
 17 18  1  0  0  0
 17 99  1  0  0  0
 18 19  2  0  0  0
 18100  1  0  0  0
 19 20  1  0  0  0
 19 24  1  0  0  0
 20 21  2  0  0  0
 20101  1  0  0  0
 21 23  1  0  0  0
 22 28  1  0  0  0
 22 32  2  0  0  0
 26 27  1  0  0  0
 28102  1  0  0  0
 28103  1  0  0  0
 29104  1  0  0  0
 29105  1  0  0  0
 33 34  1  0  0  0
 33 66  1  0  0  0
 33 70  2  0  0  0
 34 36  1  0  0  0
 34 59  1  0  0  0
 34106  1  0  0  0
 35 44  2  0  0  0
 35 45  1  0  0  0
 35 68  1  0  0  0
 36 56  1  0  0  0
 36107  1  0  0  0
 37 39  1  0  0  0
 37 47  1  0  0  0
 37 66  1  0  0  0
 37108  1  0  0  0
 38 43  2  0  0  0
 38 46  1  0  0  0
 38 47  1  0  0  0
 39 64  1  0  0  0
 39 67  2  0  0  0
 40 52  1  0  0  0
 40 53  2  0  0  0
 40 58  1  0  0  0
 41109  1  0  0  0
 41110  1  0  0  0
 41111  1  0  0  0
 41 48  1  0  0  0
 42 43  1  0  0  0
 42 66  1  0  0  0
 42112  1  0  0  0
 42113  1  0  0  0
 43 44  1  0  0  0
 44114  1  0  0  0
 45 46  2  0  0  0
 45115  1  0  0  0
 46116  1  0  0  0
 47117  1  0  0  0
 47118  1  0  0  0
 48 56  1  0  0  0
 48 65  1  0  0  0
 48119  1  0  0  0
 49 50  1  0  0  0
 49 53  1  0  0  0
 49 64  1  0  0  0
 49120  1  0  0  0
 50 51  1  0  0  0
 50121  1  0  0  0
 50122  1  0  0  0
 51 52  1  0  0  0
 51123  1  0  0  0
 51124  1  0  0  0
 52125  1  0  0  0
 52126  1  0  0  0
 53 54  1  0  0  0
 54 55  2  0  0  0
 54127  1  0  0  0
 55 57  1  0  0  0
 55128  1  0  0  0
 56 69  2  0  0  0
 57 58  2  0  0  0
 57129  1  0  0  0
 58130  1  0  0  0
 59 60  1  0  0  0
 59 61  1  0  0  0
 59 62  1  0  0  0
 60131  1  0  0  0
 60132  1  0  0  0
 60133  1  0  0  0
 61134  1  0  0  0
 61135  1  0  0  0
 61136  1  0  0  0
 62137  1  0  0  0
 62138  1  0  0  0
 62139  1  0  0  0
 63 65  1  0  0  0
 63140  1  0  0  0
 63141  1  0  0  0
 63142  1  0  0  0
 64143  1  0  0  0
 65144  1  0  0  0
 68 82  1  0  0  0
 71 74  2  0  0  0
 71 75  1  0  0  0
 71145  1  0  0  0
 72 75  2  0  0  0
 72 76  1  0  0  0
 72146  1  0  0  0
 73 74  1  0  0  0
 73 76  2  0  0  0
 73 77  1  0  0  0
 74 80  1  0  0  0
 75 83  1  0  0  0
 76 85  1  0  0  0
 77 78  1  0  0  0
 77 79  1  0  0  0
 77147  1  0  0  0
 78 79  1  0  0  0
 78 82  1  0  0  0
 78148  1  0  0  0
 79 84  1  0  0  0
 79149  1  0  0  0
 80150  1  0  0  0
 80151  1  0  0  0
 80152  1  0  0  0
 81 85  1  0  0  0
 81153  1  0  0  0
 81154  1  0  0  0
 81155  1  0  0  0
 82156  1  0  0  0
 82157  1  0  0  0
 83158  1  0  0  0
 84159  1  0  0  0
 84160  1  0  0  0
 84161  1  0  0  0
M  CHG  1  84   1
M  ISO  4   1 100  68 101  82 101  83 100
M  END
> <chiral flag>
0

> <version>
0

> <s_m_source_file>
/data/baiqing/PycharmProjects/Reinvent-master-3.2/result/LINK_invent/BTK/process_docking_weight1_custom_sum_contain_oxygen_bond_distance_aromatic_linkinvent_7_9_3/rearranged_h_0146.sdf

> <i_m_source_file_index>
61

> <r_mmod_Potential_Energy-OPLS-2005>
135.032989501953

> <r_mmod_Stretch_Energy-OPLS-2005>
189.635543823242

> <r_mmod_Bend_Energy-OPLS-2005>
241.37321472168

> <r_mmod_Torsional_Energy-OPLS-2005>
297.135101318359

> <r_mmod_Improper_Torsional_Energy-OPLS-2005>
6.40449857711792

> <r_mmod_Van_der_Waal_Energy-OPLS-2005>
130.224227905273

> <r_mmod_Electrostatic_Energy-OPLS-2005>
-363.307800292969

> <r_mmod_Solvation_Energy-OPLS-2005>
-499.854522705078

> <b_mmod_Minimization_Converged-OPLS-2005>
0

> <r_mmod_RMS_Derivative-OPLS-2005>
0.484650075435638

$$$$
61
                    3D
 Structure written by MMmdl.
157166  0  0  1  0            999 V2000
  -30.5163  -14.9959   20.4243 C   0  0  0  0  0  0
  -30.4456  -12.6236   19.4921 C   0  0  0  0  0  0
  -29.5238  -12.5452   18.2529 C   0  0  0  0  0  0
  -28.0570  -12.3219   18.6726 C   0  0  0  0  0  0
  -27.6286  -13.2509   19.8384 C   0  0  2  0  0  0
  -28.6756  -13.2875   20.9719 C   0  0  0  0  0  0
  -25.2448  -13.8210   20.5731 C   0  0  0  0  0  0
  -24.1769  -13.0429   20.9238 C   0  0  0  0  0  0
  -24.6393  -11.6914   20.8745 C   0  0  0  0  0  0
  -23.9076  -10.4293   21.0400 C   0  0  0  0  0  0
  -24.3627   -9.4212   21.9182 C   0  0  0  0  0  0
  -23.6303   -8.2247   22.0754 C   0  0  0  0  0  0
  -22.4280   -8.0292   21.3548 C   0  0  0  0  0  0
  -21.9921   -9.0258   20.4642 C   0  0  0  0  0  0
  -22.7247  -10.2138   20.3052 C   0  0  0  0  0  0
  -21.6851   -6.0739   22.5278 C   0  0  0  0  0  0
  -21.4012   -6.5638   23.8213 C   0  0  0  0  0  0
  -21.3664   -5.6789   24.9172 C   0  0  0  0  0  0
  -21.6049   -4.3053   24.7218 C   0  0  0  0  0  0
  -21.8815   -3.8146   23.4336 C   0  0  0  0  0  0
  -21.9190   -4.6968   22.3394 C   0  0  0  0  0  0
  -22.7790  -13.5206   21.1886 C   0  0  0  0  0  0
  -22.1658   -4.2155   21.0970 F   0  0  0  0  0  0
  -21.5636   -3.4535   25.7731 F   0  0  0  0  0  0
  -29.9383  -13.7243   20.3621 N   0  0  0  0  0  0
  -26.2887  -12.9448   20.3265 N   0  0  0  0  0  0
  -25.9339  -11.6564   20.5745 N   0  0  0  0  0  0
  -22.0434  -12.8197   22.0434 N   0  0  0  0  0  0
  -25.4078  -15.1954   20.4178 N   0  0  0  0  0  0
  -31.7317  -15.0603   20.2089 O   0  0  0  0  0  0
  -21.6644   -6.8890   21.4244 O   0  0  0  0  0  0
  -22.3472  -14.5515   20.6742 O   0  0  0  0  0  0
  -24.6467  -31.8414   23.1859 C   0  0  0  0  0  0
  -25.9218  -32.4681   23.8260 C   0  0  1  0  0  0
  -27.2098  -27.0981   20.1638 C   0  0  0  0  0  0
  -25.5955  -33.8487   24.2174 N   0  0  0  0  0  0
  -23.4536  -30.4624   21.5299 C   0  0  2  0  0  0
  -24.9047  -28.8872   20.1105 C   0  0  0  0  0  0
  -22.7605  -29.4539   22.4807 C   0  0  0  0  0  0
  -18.0321  -28.1404   22.8479 C   0  0  0  0  0  0
  -24.1498  -36.7243   23.2654 C   0  0  0  0  0  0
  -26.0141  -30.7071   21.3903 C   0  0  0  0  0  0
  -26.0844  -29.3150   20.7311 C   0  0  0  0  0  0
  -27.2392  -28.4404   20.7342 C   0  0  0  0  0  0
  -26.0050  -26.7878   19.4932 C   0  0  0  0  0  0
  -24.8824  -27.6409   19.4707 C   0  0  0  0  0  0
  -23.6849  -29.7935   20.1495 C   0  0  0  0  0  0
  -25.4126  -36.3025   24.0327 C   0  0  1  0  0  0
  -20.5951  -28.3735   23.1222 C   0  0  2  0  0  0
  -20.6811  -26.9438   22.5398 C   0  0  0  0  0  0
  -19.5783  -26.6389   21.5217 C   0  0  0  0  0  0
  -18.1961  -26.7953   22.1619 C   0  0  0  0  0  0
  -19.1583  -28.8883   23.2853 C   0  0  0  0  0  0
  -18.9502  -30.1482   23.8879 C   0  0  0  0  0  0
  -17.6498  -30.6592   24.0561 C   0  0  0  0  0  0
  -25.9071  -34.9405   23.5053 C   0  0  0  0  0  0
  -16.5387  -29.9093   23.6337 C   0  0  0  0  0  0
  -16.7311  -28.6516   23.0352 C   0  0  0  0  0  0
  -26.4525  -31.6557   25.0701 C   0  0  0  0  0  0
  -25.3675  -31.3771   26.1369 C   0  0  0  0  0  0
  -27.0400  -30.2961   24.6288 C   0  0  0  0  0  0
  -27.6066  -32.4316   25.7471 C   0  0  0  0  0  0
  -27.5577  -37.1786   24.8467 C   0  0  0  0  0  0
  -21.4287  -29.3062   22.3588 N   0  0  0  0  0  0
  -26.4290  -37.3728   23.9410 N   0  0  0  0  0  0
  -24.7253  -31.0238   22.0912 N   0  0  0  0  0  0
  -23.4238  -28.8061   23.2946 O   0  0  0  0  0  0
  -28.2458  -26.0845   20.2299 O   0  0  0  0  0  0
  -26.5645  -34.8907   22.4631 O   0  0  0  0  0  0
  -23.5572  -32.1294   23.7045 O   0  0  0  0  0  0
  -31.2023  -19.5027   21.7746 C   0  0  0  0  0  0
  -31.0351  -18.1435   21.3813 C   0  0  0  0  0  0
  -29.0293  -18.8233   20.2273 C   0  0  0  0  0  0
  -30.2926  -20.5400   21.4270 C   0  0  0  0  0  0
  -29.2172  -20.2630   20.5751 C   0  0  0  0  0  0
  -29.9161  -17.6939   20.6373 C   0  0  0  0  0  0
  -28.3032  -21.5776   20.2542 C   0  0  0  0  0  0
  -30.3422  -21.9149   22.1278 C   0  0  0  0  0  0
  -28.9165  -23.1415   20.3345 C   0  0  1  0  0  0
  -30.0535  -24.3512   22.2367 C   0  0  0  0  0  0
  -27.9170  -24.5408   20.3014 C   0  0  0  0  0  0
  -29.6958  -16.1726   20.4495 N   0  0  0  0  0  0
  -30.0428  -23.1657   21.3427 N   0  3  1  0  0  0
  -31.4762  -12.7965   19.1780 H   0  0  0  0  0  0
  -30.4534  -11.6745   20.0330 H   0  0  0  0  0  0
  -29.8514  -11.7484   17.5840 H   0  0  0  0  0  0
  -29.6016  -13.4729   17.6833 H   0  0  0  0  0  0
  -27.9569  -11.2799   18.9770 H   0  0  0  0  0  0
  -27.3921  -12.4566   17.8181 H   0  0  0  0  0  0
  -27.5843  -14.2518   19.4084 H   0  0  0  0  0  0
  -28.7807  -12.3093   21.4436 H   0  0  0  0  0  0
  -28.3714  -13.9818   21.7586 H   0  0  0  0  0  0
  -25.2763   -9.5690   22.4768 H   0  0  0  0  0  0
  -24.0000   -7.4636   22.7486 H   0  0  0  0  0  0
  -21.0846   -8.8775   19.8955 H   0  0  0  0  0  0
  -22.3694  -10.9678   19.6172 H   0  0  0  0  0  0
  -21.1999   -7.6144   23.9719 H   0  0  0  0  0  0
  -21.1498   -6.0514   25.9076 H   0  0  0  0  0  0
  -22.0592   -2.7610   23.2825 H   0  0  0  0  0  0
  -22.4026  -11.9832   22.4784 H   0  0  0  0  0  0
  -21.1064  -13.1247   22.2675 H   0  0  0  0  0  0
  -24.6325  -15.8388   20.5379 H   0  0  0  0  0  0
  -26.2430  -15.6474   20.0724 H   0  0  0  0  0  0
  -26.7283  -32.5277   23.0981 H   0  0  0  0  0  0
  -25.0108  -33.9590   25.0333 H   0  0  0  0  0  0
  -22.7583  -31.2890   21.3700 H   0  0  0  0  0  0
  -23.3775  -35.9558   23.3282 H   0  0  0  0  0  0
  -24.3599  -36.8888   22.2078 H   0  0  0  0  0  0
  -23.7242  -37.6432   23.6682 H   0  0  0  0  0  0
  -26.1709  -31.4647   20.6218 H   0  0  0  0  0  0
  -26.8851  -30.7538   22.0333 H   0  0  0  0  0  0
  -28.1405  -28.7673   21.2352 H   0  0  0  0  0  0
  -25.8914  -25.8438   18.9845 H   0  0  0  0  0  0
  -23.9841  -27.3136   18.9653 H   0  0  0  0  0  0
  -23.8295  -30.5669   19.3947 H   0  0  0  0  0  0
  -22.8002  -29.2374   19.8347 H   0  0  0  0  0  0
  -25.1325  -36.1844   25.0820 H   0  0  0  0  0  0
  -21.0045  -28.3318   24.1347 H   0  0  0  0  0  0
  -20.5731  -26.2346   23.3614 H   0  0  0  0  0  0
  -21.6672  -26.7456   22.1178 H   0  0  0  0  0  0
  -19.6953  -25.6293   21.1260 H   0  0  0  0  0  0
  -19.6718  -27.3192   20.6745 H   0  0  0  0  0  0
  -17.4243  -26.6730   21.4009 H   0  0  0  0  0  0
  -18.0337  -26.0094   22.9019 H   0  0  0  0  0  0
  -19.7975  -30.7300   24.2246 H   0  0  0  0  0  0
  -17.5048  -31.6269   24.5166 H   0  0  0  0  0  0
  -15.5389  -30.2978   23.7664 H   0  0  0  0  0  0
  -15.8723  -28.0810   22.7079 H   0  0  0  0  0  0
  -24.5902  -30.7061   25.7677 H   0  0  0  0  0  0
  -24.8804  -32.2956   26.4651 H   0  0  0  0  0  0
  -25.7939  -30.9041   27.0232 H   0  0  0  0  0  0
  -26.3035  -29.6666   24.1282 H   0  0  0  0  0  0
  -27.4029  -29.7250   25.4848 H   0  0  0  0  0  0
  -27.8901  -30.4206   23.9589 H   0  0  0  0  0  0
  -27.2704  -33.3688   26.1908 H   0  0  0  0  0  0
  -28.3933  -32.6762   25.0324 H   0  0  0  0  0  0
  -28.0641  -31.8514   26.5483 H   0  0  0  0  0  0
  -28.2582  -38.0102   24.7516 H   0  0  0  0  0  0
  -28.1098  -36.2631   24.6286 H   0  0  0  0  0  0
  -27.2285  -37.1406   25.8869 H   0  0  0  0  0  0
  -20.9498  -29.8764   21.6752 H   0  0  0  0  0  0
  -26.0157  -38.2795   24.1421 H   0  0  0  0  0  0
  -32.0320  -19.7350   22.4285 H   0  0  0  0  0  0
  -31.7610  -17.4240   21.7363 H   0  0  0  0  0  0
  -28.1490  -18.5765   19.6515 H   0  0  0  0  0  0
  -27.4702  -21.5267   20.9571 H   0  0  0  0  0  0
  -27.8429  -21.4356   19.2748 H   0  0  0  0  0  0
  -31.3259  -22.0250   22.5863 H   0  0  0  0  0  0
  -29.6347  -21.8562   22.9568 H   0  0  0  0  0  0
  -29.4793  -23.2280   19.4047 H   0  0  0  0  0  0
  -29.1560  -24.3998   22.8540 H   0  0  0  0  0  0
  -30.1451  -25.2777   21.6712 H   0  0  0  0  0  0
  -30.9095  -24.3204   22.9126 H   0  0  0  0  0  0
  -27.2418  -24.4461   21.1517 H   0  0  0  0  0  0
  -27.2862  -24.3462   19.4366 H   0  0  0  0  0  0
  -28.7226  -15.9254   20.3702 H   0  0  0  0  0  0
  -30.8696  -23.2791   20.7746 H   0  0  0  0  0  0
  1 25  1  0  0  0
  1 30  2  0  0  0
  1 82  1  0  0  0
  2  3  1  0  0  0
  2 25  1  0  0  0
  2 84  1  0  0  0
  2 85  1  0  0  0
  3  4  1  0  0  0
  3 86  1  0  0  0
  3 87  1  0  0  0
  4  5  1  0  0  0
  4 88  1  0  0  0
  4 89  1  0  0  0
  5  6  1  0  0  0
  5 26  1  0  0  0
  5 90  1  0  0  0
  6 25  1  0  0  0
  6 91  1  0  0  0
  6 92  1  0  0  0
  7  8  2  0  0  0
  7 26  1  0  0  0
  7 29  1  0  0  0
  8  9  1  0  0  0
  8 22  1  0  0  0
  9 10  1  0  0  0
  9 27  2  0  0  0
 10 11  2  0  0  0
 10 15  1  0  0  0
 11 12  1  0  0  0
 11 93  1  0  0  0
 12 13  2  0  0  0
 12 94  1  0  0  0
 13 14  1  0  0  0
 13 31  1  0  0  0
 14 15  2  0  0  0
 14 95  1  0  0  0
 15 96  1  0  0  0
 16 17  2  0  0  0
 16 21  1  0  0  0
 16 31  1  0  0  0
 17 18  1  0  0  0
 17 97  1  0  0  0
 18 19  2  0  0  0
 18 98  1  0  0  0
 19 20  1  0  0  0
 19 24  1  0  0  0
 20 21  2  0  0  0
 20 99  1  0  0  0
 21 23  1  0  0  0
 22 28  1  0  0  0
 22 32  2  0  0  0
 26 27  1  0  0  0
 28100  1  0  0  0
 28101  1  0  0  0
 29102  1  0  0  0
 29103  1  0  0  0
 33 34  1  0  0  0
 33 66  1  0  0  0
 33 70  2  0  0  0
 34 36  1  0  0  0
 34 59  1  0  0  0
 34104  1  0  0  0
 35 44  2  0  0  0
 35 45  1  0  0  0
 35 68  1  0  0  0
 36 56  1  0  0  0
 36105  1  0  0  0
 37 39  1  0  0  0
 37 47  1  0  0  0
 37 66  1  0  0  0
 37106  1  0  0  0
 38 43  2  0  0  0
 38 46  1  0  0  0
 38 47  1  0  0  0
 39 64  1  0  0  0
 39 67  2  0  0  0
 40 52  1  0  0  0
 40 53  2  0  0  0
 40 58  1  0  0  0
 41107  1  0  0  0
 41108  1  0  0  0
 41109  1  0  0  0
 41 48  1  0  0  0
 42 43  1  0  0  0
 42 66  1  0  0  0
 42110  1  0  0  0
 42111  1  0  0  0
 43 44  1  0  0  0
 44112  1  0  0  0
 45 46  2  0  0  0
 45113  1  0  0  0
 46114  1  0  0  0
 47115  1  0  0  0
 47116  1  0  0  0
 48 56  1  0  0  0
 48 65  1  0  0  0
 48117  1  0  0  0
 49 50  1  0  0  0
 49 53  1  0  0  0
 49 64  1  0  0  0
 49118  1  0  0  0
 50 51  1  0  0  0
 50119  1  0  0  0
 50120  1  0  0  0
 51 52  1  0  0  0
 51121  1  0  0  0
 51122  1  0  0  0
 52123  1  0  0  0
 52124  1  0  0  0
 53 54  1  0  0  0
 54 55  2  0  0  0
 54125  1  0  0  0
 55 57  1  0  0  0
 55126  1  0  0  0
 56 69  2  0  0  0
 57 58  2  0  0  0
 57127  1  0  0  0
 58128  1  0  0  0
 59 60  1  0  0  0
 59 61  1  0  0  0
 59 62  1  0  0  0
 60129  1  0  0  0
 60130  1  0  0  0
 60131  1  0  0  0
 61132  1  0  0  0
 61133  1  0  0  0
 61134  1  0  0  0
 62135  1  0  0  0
 62136  1  0  0  0
 62137  1  0  0  0
 63 65  1  0  0  0
 63138  1  0  0  0
 63139  1  0  0  0
 63140  1  0  0  0
 64141  1  0  0  0
 65142  1  0  0  0
 68 81  1  0  0  0
 71 72  2  0  0  0
 71 74  1  0  0  0
 71143  1  0  0  0
 72 76  1  0  0  0
 72144  1  0  0  0
 73 75  1  0  0  0
 73 76  2  0  0  0
 73145  1  0  0  0
 74 75  2  0  0  0
 74 78  1  0  0  0
 75 77  1  0  0  0
 76 82  1  0  0  0
 77 79  1  0  0  0
 77146  1  0  0  0
 77147  1  0  0  0
 78 83  1  0  0  0
 78148  1  0  0  0
 78149  1  0  0  0
 79 81  1  0  0  0
 79 83  1  0  0  0
 79150  1  0  0  0
 80151  1  0  0  0
 80152  1  0  0  0
 80153  1  0  0  0
 80 83  1  0  0  0
 81154  1  0  0  0
 81155  1  0  0  0
 82156  1  0  0  0
 83157  1  0  0  0
M  CHG  1  83   1
M  ISO  4   1 100  68 101  81 101  82 100
M  END
> <chiral flag>
0

> <version>
0

> <s_m_source_file>
/data/baiqing/PycharmProjects/Reinvent-master-3.2/result/LINK_invent/BTK/process_docking_weight1_custom_sum_contain_oxygen_bond_distance_aromatic_linkinvent_7_9_3/rearranged_h_0146.sdf

> <i_m_source_file_index>
62

> <r_mmod_Potential_Energy-OPLS-2005>
511.152038574219

> <r_mmod_Stretch_Energy-OPLS-2005>
288.301055908203

> <r_mmod_Bend_Energy-OPLS-2005>
270.452453613281

> <r_mmod_Torsional_Energy-OPLS-2005>
273.263641357422

> <r_mmod_Improper_Torsional_Energy-OPLS-2005>
8.03625011444092

> <r_mmod_Van_der_Waal_Energy-OPLS-2005>
137.40315246582

> <r_mmod_Electrostatic_Energy-OPLS-2005>
-257.244903564453

> <r_mmod_Solvation_Energy-OPLS-2005>
-437.795043945312

> <b_mmod_Minimization_Converged-OPLS-2005>
0

> <r_mmod_RMS_Derivative-OPLS-2005>
2.74377346038818

$$$$
62
                    3D
 Structure written by MMmdl.
157166  0  0  1  0            999 V2000
  -30.5907  -14.8217   20.4462 C   0  0  0  0  0  0
  -30.4400  -12.5068   19.4773 C   0  0  0  0  0  0
  -29.5147  -12.5131   18.2397 C   0  0  0  0  0  0
  -28.0434  -12.3226   18.6574 C   0  0  0  0  0  0
  -27.6379  -13.2368   19.8437 C   0  0  2  0  0  0
  -28.6848  -13.2081   20.9782 C   0  0  0  0  0  0
  -25.2500  -13.8200   20.5700 C   0  0  0  0  0  0
  -24.1800  -13.0439   20.9219 C   0  0  0  0  0  0
  -24.6399  -11.6919   20.8752 C   0  0  0  0  0  0
  -23.9075  -10.4294   21.0409 C   0  0  0  0  0  0
  -24.3624   -9.4209   21.9185 C   0  0  0  0  0  0
  -23.6298   -8.2244   22.0755 C   0  0  0  0  0  0
  -22.4280   -8.0281   21.3545 C   0  0  0  0  0  0
  -21.9916   -9.0256   20.4648 C   0  0  0  0  0  0
  -22.7246  -10.2136   20.3058 C   0  0  0  0  0  0
  -21.6852   -6.0736   22.5279 C   0  0  0  0  0  0
  -21.4013   -6.5640   23.8213 C   0  0  0  0  0  0
  -21.3659   -5.6793   24.9175 C   0  0  0  0  0  0
  -21.6043   -4.3056   24.7225 C   0  0  0  0  0  0
  -21.8819   -3.8147   23.4347 C   0  0  0  0  0  0
  -21.9194   -4.6964   22.3403 C   0  0  0  0  0  0
  -22.7819  -13.5218   21.1873 C   0  0  0  0  0  0
  -22.1661   -4.2149   21.0980 F   0  0  0  0  0  0
  -21.5630   -3.4539   25.7738 F   0  0  0  0  0  0
  -29.9754  -13.5838   20.3866 N   0  0  0  0  0  0
  -26.2926  -12.9416   20.3262 N   0  0  0  0  0  0
  -25.9331  -11.6554   20.5745 N   0  0  0  0  0  0
  -22.0463  -12.8210   22.0429 N   0  0  0  0  0  0
  -25.4171  -15.1927   20.4111 N   0  0  0  0  0  0
  -31.7932  -14.9044   20.1816 O   0  0  0  0  0  0
  -21.6642   -6.8880   21.4241 O   0  0  0  0  0  0
  -22.3503  -14.5522   20.6716 O   0  0  0  0  0  0
  -24.6394  -31.8514   23.1970 C   0  0  0  0  0  0
  -25.9193  -32.4734   23.8326 C   0  0  1  0  0  0
  -27.2081  -27.1925   20.1257 C   0  0  0  0  0  0
  -25.5967  -33.8538   24.2241 N   0  0  0  0  0  0
  -23.4385  -30.4779   21.5429 C   0  0  2  0  0  0
  -24.8846  -28.9266   20.1087 C   0  0  0  0  0  0
  -22.7548  -29.4589   22.4886 C   0  0  0  0  0  0
  -18.0304  -28.1391   22.8477 C   0  0  0  0  0  0
  -24.1491  -36.7264   23.2636 C   0  0  0  0  0  0
  -25.9946  -30.7419   21.3905 C   0  0  0  0  0  0
  -26.0643  -29.3618   20.7261 C   0  0  0  0  0  0
  -27.2284  -28.5101   20.7239 C   0  0  0  0  0  0
  -25.9993  -26.8633   19.4618 C   0  0  0  0  0  0
  -24.8621  -27.6873   19.4637 C   0  0  0  0  0  0
  -23.6605  -29.8213   20.1578 C   0  0  0  0  0  0
  -25.4119  -36.3052   24.0322 C   0  0  1  0  0  0
  -20.5915  -28.3712   23.1245 C   0  0  2  0  0  0
  -20.6788  -26.9421   22.5401 C   0  0  0  0  0  0
  -19.5762  -26.6381   21.5209 C   0  0  0  0  0  0
  -18.1945  -26.7931   22.1620 C   0  0  0  0  0  0
  -19.1559  -28.8868   23.2854 C   0  0  0  0  0  0
  -18.9475  -30.1465   23.8878 C   0  0  0  0  0  0
  -17.6472  -30.6586   24.0561 C   0  0  0  0  0  0
  -25.9071  -34.9428   23.5082 C   0  0  0  0  0  0
  -16.5363  -29.9080   23.6336 C   0  0  0  0  0  0
  -16.7288  -28.6500   23.0355 C   0  0  0  0  0  0
  -26.4528  -31.6573   25.0737 C   0  0  0  0  0  0
  -25.3726  -31.3750   26.1441 C   0  0  0  0  0  0
  -27.0375  -30.2971   24.6278 C   0  0  0  0  0  0
  -27.6073  -32.4322   25.7514 C   0  0  0  0  0  0
  -27.5584  -37.1783   24.8460 C   0  0  0  0  0  0
  -21.4247  -29.3051   22.3628 N   0  0  0  0  0  0
  -26.4282  -37.3764   23.9421 N   0  0  0  0  0  0
  -24.7106  -31.0423   22.0987 N   0  0  0  0  0  0
  -23.4219  -28.8114   23.2996 O   0  0  0  0  0  0
  -28.2478  -26.2021   20.1997 O   0  0  0  0  0  0
  -26.5641  -34.8913   22.4650 O   0  0  0  0  0  0
  -23.5526  -32.1366   23.7223 O   0  0  0  0  0  0
  -29.1328  -22.6354   19.0163 C   0  0  0  0  0  0
  -28.5352  -22.5021   21.2952 C   0  0  0  0  0  0
  -29.2577  -20.3462   20.1362 C   0  0  0  0  0  0
  -28.6281  -23.3462   20.1430 C   0  0  0  0  0  0
  -29.4175  -21.2183   18.9974 C   0  0  0  0  0  0
  -28.8383  -21.0807   21.2989 C   0  0  0  0  0  0
  -30.4205  -18.0770   19.2391 C   0  0  0  0  0  0
  -29.2873  -18.7149   20.0210 C   0  0  1  0  0  0
  -30.1765  -17.4556   20.5810 C   0  0  1  0  0  0
  -29.8096  -20.6367   17.6484 C   0  0  0  0  0  0
  -28.5993  -20.3071   22.5818 C   0  0  0  0  0  0
  -27.8247  -24.7483   19.9684 C   0  0  0  0  0  0
  -29.8048  -15.9745   20.5751 N   0  0  0  0  0  0
  -31.4768  -12.6498   19.1678 H   0  0  0  0  0  0
  -30.4091  -11.5396   19.9810 H   0  0  0  0  0  0
  -29.8108  -11.7281   17.5423 H   0  0  0  0  0  0
  -29.6243  -13.4567   17.7031 H   0  0  0  0  0  0
  -27.9165  -11.2770   18.9392 H   0  0  0  0  0  0
  -27.3824  -12.4896   17.8062 H   0  0  0  0  0  0
  -27.6195  -14.2504   19.4428 H   0  0  0  0  0  0
  -28.7412  -12.2186   21.4340 H   0  0  0  0  0  0
  -28.4082  -13.8989   21.7763 H   0  0  0  0  0  0
  -25.2769   -9.5683   22.4762 H   0  0  0  0  0  0
  -24.0006   -7.4634   22.7475 H   0  0  0  0  0  0
  -21.0845   -8.8776   19.8955 H   0  0  0  0  0  0
  -22.3703  -10.9676   19.6169 H   0  0  0  0  0  0
  -21.2004   -7.6148   23.9716 H   0  0  0  0  0  0
  -21.1481   -6.0523   25.9078 H   0  0  0  0  0  0
  -22.0598   -2.7609   23.2846 H   0  0  0  0  0  0
  -22.4079  -11.9874   22.4821 H   0  0  0  0  0  0
  -21.1077  -13.1232   22.2629 H   0  0  0  0  0  0
  -24.6449  -15.8413   20.5197 H   0  0  0  0  0  0
  -26.2543  -15.6335   20.0535 H   0  0  0  0  0  0
  -26.7258  -32.5358   23.1058 H   0  0  0  0  0  0
  -25.0119  -33.9666   25.0391 H   0  0  0  0  0  0
  -22.7380  -31.3031   21.3983 H   0  0  0  0  0  0
  -23.3769  -35.9579   23.3267 H   0  0  0  0  0  0
  -24.3587  -36.8919   22.2057 H   0  0  0  0  0  0
  -23.7222  -37.6445   23.6683 H   0  0  0  0  0  0
  -26.1478  -31.5022   20.6233 H   0  0  0  0  0  0
  -26.8670  -30.7856   22.0307 H   0  0  0  0  0  0
  -28.1238  -28.8366   21.2340 H   0  0  0  0  0  0
  -25.8665  -25.9296   18.9408 H   0  0  0  0  0  0
  -23.9629  -27.3510   18.9657 H   0  0  0  0  0  0
  -23.7937  -30.6024   19.4084 H   0  0  0  0  0  0
  -22.7758  -29.2636   19.8453 H   0  0  0  0  0  0
  -25.1299  -36.1886   25.0812 H   0  0  0  0  0  0
  -21.0005  -28.3292   24.1366 H   0  0  0  0  0  0
  -20.5680  -26.2326   23.3614 H   0  0  0  0  0  0
  -21.6656  -26.7431   22.1199 H   0  0  0  0  0  0
  -19.6923  -25.6288   21.1251 H   0  0  0  0  0  0
  -19.6700  -27.3181   20.6730 H   0  0  0  0  0  0
  -17.4214  -26.6676   21.4025 H   0  0  0  0  0  0
  -18.0344  -26.0076   22.9019 H   0  0  0  0  0  0
  -19.7951  -30.7288   24.2238 H   0  0  0  0  0  0
  -17.5026  -31.6267   24.5161 H   0  0  0  0  0  0
  -15.5363  -30.2977   23.7668 H   0  0  0  0  0  0
  -15.8689  -28.0814   22.7080 H   0  0  0  0  0  0
  -24.5923  -30.7071   25.7771 H   0  0  0  0  0  0
  -24.8896  -32.2927   26.4806 H   0  0  0  0  0  0
  -25.8026  -30.8975   27.0254 H   0  0  0  0  0  0
  -26.2976  -29.6711   24.1275 H   0  0  0  0  0  0
  -27.3990  -29.7246   25.4829 H   0  0  0  0  0  0
  -27.8891  -30.4210   23.9584 H   0  0  0  0  0  0
  -27.2681  -33.3642   26.2047 H   0  0  0  0  0  0
  -28.3910  -32.6844   25.0357 H   0  0  0  0  0  0
  -28.0711  -31.8472   26.5466 H   0  0  0  0  0  0
  -28.2570  -38.0112   24.7547 H   0  0  0  0  0  0
  -28.1112  -36.2645   24.6230 H   0  0  0  0  0  0
  -27.2313  -37.1358   25.8863 H   0  0  0  0  0  0
  -20.9441  -29.8787   21.6838 H   0  0  0  0  0  0
  -26.0153  -38.2827   24.1450 H   0  0  0  0  0  0
  -29.1942  -23.1803   18.0842 H   0  0  0  0  0  0
  -28.1162  -22.9379   22.1918 H   0  0  0  0  0  0
  -31.3593  -18.6205   19.1535 H   0  0  0  0  0  0
  -30.1416  -17.5155   18.3497 H   0  0  0  0  0  0
  -28.2798  -18.4312   19.7224 H   0  0  0  0  0  0
  -30.8714  -17.7309   21.3724 H   0  0  0  0  0  0
  -29.6628  -21.3527   16.8395 H   0  0  0  0  0  0
  -29.2080  -19.7601   17.4084 H   0  0  0  0  0  0
  -30.8623  -20.3551   17.6447 H   0  0  0  0  0  0
  -28.4415  -20.9731   23.4306 H   0  0  0  0  0  0
  -29.4554  -19.6727   22.8125 H   0  0  0  0  0  0
  -27.7190  -19.6713   22.4839 H   0  0  0  0  0  0
  -26.9110  -24.5954   20.5453 H   0  0  0  0  0  0
  -27.5311  -24.7020   18.9200 H   0  0  0  0  0  0
  -28.8253  -15.7854   20.7252 H   0  0  0  0  0  0
  1 25  1  0  0  0
  1 30  2  0  0  0
  1 83  1  0  0  0
  2  3  1  0  0  0
  2 25  1  0  0  0
  2 84  1  0  0  0
  2 85  1  0  0  0
  3  4  1  0  0  0
  3 86  1  0  0  0
  3 87  1  0  0  0
  4  5  1  0  0  0
  4 88  1  0  0  0
  4 89  1  0  0  0
  5  6  1  0  0  0
  5 26  1  0  0  0
  5 90  1  0  0  0
  6 25  1  0  0  0
  6 91  1  0  0  0
  6 92  1  0  0  0
  7  8  2  0  0  0
  7 26  1  0  0  0
  7 29  1  0  0  0
  8  9  1  0  0  0
  8 22  1  0  0  0
  9 10  1  0  0  0
  9 27  2  0  0  0
 10 11  2  0  0  0
 10 15  1  0  0  0
 11 12  1  0  0  0
 11 93  1  0  0  0
 12 13  2  0  0  0
 12 94  1  0  0  0
 13 14  1  0  0  0
 13 31  1  0  0  0
 14 15  2  0  0  0
 14 95  1  0  0  0
 15 96  1  0  0  0
 16 17  2  0  0  0
 16 21  1  0  0  0
 16 31  1  0  0  0
 17 18  1  0  0  0
 17 97  1  0  0  0
 18 19  2  0  0  0
 18 98  1  0  0  0
 19 20  1  0  0  0
 19 24  1  0  0  0
 20 21  2  0  0  0
 20 99  1  0  0  0
 21 23  1  0  0  0
 22 28  1  0  0  0
 22 32  2  0  0  0
 26 27  1  0  0  0
 28100  1  0  0  0
 28101  1  0  0  0
 29102  1  0  0  0
 29103  1  0  0  0
 33 34  1  0  0  0
 33 66  1  0  0  0
 33 70  2  0  0  0
 34 36  1  0  0  0
 34 59  1  0  0  0
 34104  1  0  0  0
 35 44  2  0  0  0
 35 45  1  0  0  0
 35 68  1  0  0  0
 36 56  1  0  0  0
 36105  1  0  0  0
 37 39  1  0  0  0
 37 47  1  0  0  0
 37 66  1  0  0  0
 37106  1  0  0  0
 38 43  2  0  0  0
 38 46  1  0  0  0
 38 47  1  0  0  0
 39 64  1  0  0  0
 39 67  2  0  0  0
 40 52  1  0  0  0
 40 53  2  0  0  0
 40 58  1  0  0  0
 41107  1  0  0  0
 41108  1  0  0  0
 41109  1  0  0  0
 41 48  1  0  0  0
 42 43  1  0  0  0
 42 66  1  0  0  0
 42110  1  0  0  0
 42111  1  0  0  0
 43 44  1  0  0  0
 44112  1  0  0  0
 45 46  2  0  0  0
 45113  1  0  0  0
 46114  1  0  0  0
 47115  1  0  0  0
 47116  1  0  0  0
 48 56  1  0  0  0
 48 65  1  0  0  0
 48117  1  0  0  0
 49 50  1  0  0  0
 49 53  1  0  0  0
 49 64  1  0  0  0
 49118  1  0  0  0
 50 51  1  0  0  0
 50119  1  0  0  0
 50120  1  0  0  0
 51 52  1  0  0  0
 51121  1  0  0  0
 51122  1  0  0  0
 52123  1  0  0  0
 52124  1  0  0  0
 53 54  1  0  0  0
 54 55  2  0  0  0
 54125  1  0  0  0
 55 57  1  0  0  0
 55126  1  0  0  0
 56 69  2  0  0  0
 57 58  2  0  0  0
 57127  1  0  0  0
 58128  1  0  0  0
 59 60  1  0  0  0
 59 61  1  0  0  0
 59 62  1  0  0  0
 60129  1  0  0  0
 60130  1  0  0  0
 60131  1  0  0  0
 61132  1  0  0  0
 61133  1  0  0  0
 61134  1  0  0  0
 62135  1  0  0  0
 62136  1  0  0  0
 62137  1  0  0  0
 63 65  1  0  0  0
 63138  1  0  0  0
 63139  1  0  0  0
 63140  1  0  0  0
 64141  1  0  0  0
 65142  1  0  0  0
 68 82  1  0  0  0
 71 74  2  0  0  0
 71 75  1  0  0  0
 71143  1  0  0  0
 72 74  1  0  0  0
 72 76  2  0  0  0
 72144  1  0  0  0
 73 75  2  0  0  0
 73 76  1  0  0  0
 73 78  1  0  0  0
 74 82  1  0  0  0
 75 80  1  0  0  0
 76 81  1  0  0  0
 77 78  1  0  0  0
 77 79  1  0  0  0
 77145  1  0  0  0
 77146  1  0  0  0
 78 79  1  0  0  0
 78147  1  0  0  0
 79 83  1  0  0  0
 79148  1  0  0  0
 80149  1  0  0  0
 80150  1  0  0  0
 80151  1  0  0  0
 81152  1  0  0  0
 81153  1  0  0  0
 81154  1  0  0  0
 82155  1  0  0  0
 82156  1  0  0  0
 83157  1  0  0  0
M  ISO  4   1 100  68 101  82 101  83 100
M  END
> <chiral flag>
0

> <version>
0

> <s_m_source_file>
/data/baiqing/PycharmProjects/Reinvent-master-3.2/result/LINK_invent/BTK/process_docking_weight1_custom_sum_contain_oxygen_bond_distance_aromatic_linkinvent_7_9_3/rearranged_h_0146.sdf

> <i_m_source_file_index>
63

> <r_mmod_Potential_Energy-OPLS-2005>
410.098754882812

> <r_mmod_Stretch_Energy-OPLS-2005>
179.778274536133

> <r_mmod_Bend_Energy-OPLS-2005>
222.55339050293

> <r_mmod_Torsional_Energy-OPLS-2005>
295.532104492188

> <r_mmod_Improper_Torsional_Energy-OPLS-2005>
11.4413213729858

> <r_mmod_Van_der_Waal_Energy-OPLS-2005>
144.871658325195

> <r_mmod_Electrostatic_Energy-OPLS-2005>
-366.317077636719

> <r_mmod_Solvation_Energy-OPLS-2005>
-211.595153808594

> <b_mmod_Minimization_Converged-OPLS-2005>
0

> <r_mmod_RMS_Derivative-OPLS-2005>
0.390821933746338

$$$$
63
                    3D
 Structure written by MMmdl.
167176  0  0  1  0            999 V2000
  -30.6404  -14.5882   20.5259 C   0  0  0  0  0  0
  -30.4365  -12.3708   19.4293 C   0  0  0  0  0  0
  -29.5026  -12.5104   18.2079 C   0  0  0  0  0  0
  -28.0235  -12.3564   18.6212 C   0  0  0  0  0  0
  -27.6547  -13.2119   19.8628 C   0  0  2  0  0  0
  -28.7018  -13.0399   20.9855 C   0  0  0  0  0  0
  -25.2583  -13.8172   20.5673 C   0  0  0  0  0  0
  -24.1847  -13.0448   20.9188 C   0  0  0  0  0  0
  -24.6404  -11.6915   20.8733 C   0  0  0  0  0  0
  -23.9072  -10.4306   21.0398 C   0  0  0  0  0  0
  -24.3627   -9.4221   21.9174 C   0  0  0  0  0  0
  -23.6302   -8.2256   22.0748 C   0  0  0  0  0  0
  -22.4280   -8.0295   21.3547 C   0  0  0  0  0  0
  -21.9914   -9.0266   20.4646 C   0  0  0  0  0  0
  -22.7242  -10.2145   20.3050 C   0  0  0  0  0  0
  -21.6858   -6.0746   22.5280 C   0  0  0  0  0  0
  -21.4018   -6.5644   23.8217 C   0  0  0  0  0  0
  -21.3659   -5.6791   24.9175 C   0  0  0  0  0  0
  -21.6044   -4.3055   24.7221 C   0  0  0  0  0  0
  -21.8823   -3.8153   23.4340 C   0  0  0  0  0  0
  -21.9196   -4.6974   22.3399 C   0  0  0  0  0  0
  -22.7871  -13.5246   21.1853 C   0  0  0  0  0  0
  -22.1660   -4.2162   21.0974 F   0  0  0  0  0  0
  -21.5629   -3.4536   25.7733 F   0  0  0  0  0  0
  -30.0162  -13.3783   20.4177 N   0  0  0  0  0  0
  -26.3003  -12.9335   20.3316 N   0  0  0  0  0  0
  -25.9329  -11.6498   20.5750 N   0  0  0  0  0  0
  -22.0499  -12.8244   22.0406 N   0  0  0  0  0  0
  -25.4309  -15.1890   20.4071 N   0  0  0  0  0  0
  -31.8109  -14.7568   20.1750 O   0  0  0  0  0  0
  -21.6644   -6.8890   21.4245 O   0  0  0  0  0  0
  -22.3562  -14.5552   20.6697 O   0  0  0  0  0  0
  -24.6214  -31.8631   23.2021 C   0  0  0  0  0  0
  -25.9078  -32.4799   23.8350 C   0  0  1  0  0  0
  -27.2323  -27.3688   20.1151 C   0  0  0  0  0  0
  -25.5903  -33.8597   24.2291 N   0  0  0  0  0  0
  -23.4122  -30.4840   21.5453 C   0  0  2  0  0  0
  -24.8587  -28.9373   20.1152 C   0  0  0  0  0  0
  -22.7450  -29.4640   22.4967 C   0  0  0  0  0  0
  -18.0281  -28.1382   22.8487 C   0  0  0  0  0  0
  -24.1483  -36.7306   23.2637 C   0  0  0  0  0  0
  -25.9456  -30.8118   21.3594 C   0  0  0  0  0  0
  -26.0237  -29.4389   20.7104 C   0  0  0  0  0  0
  -27.2159  -28.6661   20.6974 C   0  0  0  0  0  0
  -26.0495  -26.8994   19.5048 C   0  0  0  0  0  0
  -24.8703  -27.6714   19.5041 C   0  0  0  0  0  0
  -23.6229  -29.8117   20.1626 C   0  0  0  0  0  0
  -25.4106  -36.3102   24.0331 C   0  0  1  0  0  0
  -20.5878  -28.3677   23.1308 C   0  0  2  0  0  0
  -20.6775  -26.9408   22.5420 C   0  0  0  0  0  0
  -19.5754  -26.6389   21.5217 C   0  0  0  0  0  0
  -18.1928  -26.7928   22.1622 C   0  0  0  0  0  0
  -19.1531  -28.8845   23.2895 C   0  0  0  0  0  0
  -18.9457  -30.1448   23.8906 C   0  0  0  0  0  0
  -17.6455  -30.6583   24.0565 C   0  0  0  0  0  0
  -25.9037  -34.9470   23.5115 C   0  0  0  0  0  0
  -16.5349  -29.9084   23.6326 C   0  0  0  0  0  0
  -16.7271  -28.6503   23.0345 C   0  0  0  0  0  0
  -26.4483  -31.6581   25.0693 C   0  0  0  0  0  0
  -25.3738  -31.3684   26.1432 C   0  0  0  0  0  0
  -27.0309  -30.3024   24.6071 C   0  0  0  0  0  0
  -27.6055  -32.4296   25.7463 C   0  0  0  0  0  0
  -27.5576  -37.1808   24.8464 C   0  0  0  0  0  0
  -21.4166  -29.3039   22.3710 N   0  0  0  0  0  0
  -26.4285  -37.3794   23.9410 N   0  0  0  0  0  0
  -24.6789  -31.0679   22.0946 N   0  0  0  0  0  0
  -23.4195  -28.8197   23.3040 O   0  0  0  0  0  0
  -28.3771  -26.5777   20.1164 O   0  0  0  0  0  0
  -26.5619  -34.8932   22.4687 O   0  0  0  0  0  0
  -23.5396  -32.1393   23.7392 O   0  0  0  0  0  0
  -27.2142  -19.4423   20.1565 C   0  0  0  0  0  0
  -25.9049  -19.8891   19.9240 C   0  0  0  0  0  0
  -26.7181  -22.1749   19.8571 C   0  0  0  0  0  0
  -28.3079  -20.3372   20.2221 C   0  0  0  0  0  0
  -25.6551  -21.2586   19.7623 C   0  0  0  0  0  0
  -28.0565  -21.7589   20.0919 C   0  0  0  0  0  0
  -30.7200  -19.9951   19.2905 C   0  0  0  0  0  0
  -29.6994  -19.6701   20.3845 C   0  0  2  0  0  0
  -31.3075  -18.5875   19.4175 C   0  0  1  0  0  0
  -30.0002  -18.1280   20.0941 C   0  0  1  0  0  0
  -24.2442  -21.7398   19.4882 C   0  0  0  0  0  0
  -31.8004  -17.8697   18.1688 C   0  0  0  0  0  0
  -30.1530  -17.0459   21.2219 C   0  0  0  0  0  0
  -28.2529  -25.1958   20.5900 C   0  0  0  0  0  0
  -28.8562  -24.0771   19.6565 C   0  0  0  0  0  0
  -29.8377  -15.6257   20.8844 N   0  0  0  0  0  0
  -29.0575  -22.7276   20.2003 O   0  0  0  0  0  0
  -31.4763  -12.5018   19.1249 H   0  0  0  0  0  0
  -30.3719  -11.3678   19.8541 H   0  0  0  0  0  0
  -29.7585  -11.7695   17.4493 H   0  0  0  0  0  0
  -29.6528  -13.4858   17.7427 H   0  0  0  0  0  0
  -27.8475  -11.3008   18.8328 H   0  0  0  0  0  0
  -27.3722  -12.6121   17.7846 H   0  0  0  0  0  0
  -27.6803  -14.2526   19.5389 H   0  0  0  0  0  0
  -28.7081  -12.0123   21.3521 H   0  0  0  0  0  0
  -28.4579  -13.6592   21.8504 H   0  0  0  0  0  0
  -25.2767   -9.5707   22.4756 H   0  0  0  0  0  0
  -24.0022   -7.4649   22.7459 H   0  0  0  0  0  0
  -21.0848   -8.8784   19.8949 H   0  0  0  0  0  0
  -22.3692  -10.9692   19.6171 H   0  0  0  0  0  0
  -21.2007   -7.6150   23.9731 H   0  0  0  0  0  0
  -21.1474   -6.0509   25.9080 H   0  0  0  0  0  0
  -22.0600   -2.7618   23.2828 H   0  0  0  0  0  0
  -22.4088  -11.9893   22.4793 H   0  0  0  0  0  0
  -21.1122  -13.1293   22.2598 H   0  0  0  0  0  0
  -24.6629  -15.8417   20.5173 H   0  0  0  0  0  0
  -26.2745  -15.6280   20.0604 H   0  0  0  0  0  0
  -26.7149  -32.5491   23.1110 H   0  0  0  0  0  0
  -25.0046  -33.9737   25.0437 H   0  0  0  0  0  0
  -22.7040  -31.3030   21.4027 H   0  0  0  0  0  0
  -23.3745  -35.9639   23.3299 H   0  0  0  0  0  0
  -24.3580  -36.8923   22.2052 H   0  0  0  0  0  0
  -23.7237  -37.6506   23.6661 H   0  0  0  0  0  0
  -26.0582  -31.5714   20.5841 H   0  0  0  0  0  0
  -26.8344  -30.8723   21.9764 H   0  0  0  0  0  0
  -28.1161  -29.0523   21.1549 H   0  0  0  0  0  0
  -26.0352  -25.9302   19.0264 H   0  0  0  0  0  0
  -23.9781  -27.2825   19.0326 H   0  0  0  0  0  0
  -23.7354  -30.5853   19.4025 H   0  0  0  0  0  0
  -22.7448  -29.2357   19.8654 H   0  0  0  0  0  0
  -25.1289  -36.1951   25.0824 H   0  0  0  0  0  0
  -20.9962  -28.3241   24.1432 H   0  0  0  0  0  0
  -20.5682  -26.2282   23.3612 H   0  0  0  0  0  0
  -21.6644  -26.7453   22.1210 H   0  0  0  0  0  0
  -19.6917  -25.6305   21.1234 H   0  0  0  0  0  0
  -19.6684  -27.3211   20.6757 H   0  0  0  0  0  0
  -17.4205  -26.6679   21.4018 H   0  0  0  0  0  0
  -18.0317  -26.0064   22.9011 H   0  0  0  0  0  0
  -19.7930  -30.7263   24.2273 H   0  0  0  0  0  0
  -17.5012  -31.6260   24.5171 H   0  0  0  0  0  0
  -15.5348  -30.2994   23.7636 H   0  0  0  0  0  0
  -15.8672  -28.0827   22.7054 H   0  0  0  0  0  0
  -24.5935  -30.7002   25.7765 H   0  0  0  0  0  0
  -24.8901  -32.2834   26.4863 H   0  0  0  0  0  0
  -25.8087  -30.8872   27.0202 H   0  0  0  0  0  0
  -26.2850  -29.6790   24.1127 H   0  0  0  0  0  0
  -27.4084  -29.7248   25.4517 H   0  0  0  0  0  0
  -27.8684  -30.4339   23.9217 H   0  0  0  0  0  0
  -27.2684  -33.3600   26.2042 H   0  0  0  0  0  0
  -28.3871  -32.6838   25.0293 H   0  0  0  0  0  0
  -28.0720  -31.8413   26.5375 H   0  0  0  0  0  0
  -28.2601  -38.0102   24.7525 H   0  0  0  0  0  0
  -28.1066  -36.2637   24.6274 H   0  0  0  0  0  0
  -27.2300  -37.1436   25.8869 H   0  0  0  0  0  0
  -20.9336  -29.8739   21.6907 H   0  0  0  0  0  0
  -26.0166  -38.2868   24.1416 H   0  0  0  0  0  0
  -27.3695  -18.3796   20.2699 H   0  0  0  0  0  0
  -25.0957  -19.1732   19.8611 H   0  0  0  0  0  0
  -26.4689  -23.2172   19.7434 H   0  0  0  0  0  0
  -31.4016  -20.8107   19.5346 H   0  0  0  0  0  0
  -30.2504  -20.1573   18.3186 H   0  0  0  0  0  0
  -30.1054  -19.9452   21.3599 H   0  0  0  0  0  0
  -32.1007  -18.6245   20.1670 H   0  0  0  0  0  0
  -29.3225  -17.7843   19.3105 H   0  0  0  0  0  0
  -23.8509  -21.2660   18.5879 H   0  0  0  0  0  0
  -24.2070  -22.8198   19.3417 H   0  0  0  0  0  0
  -23.5874  -21.4898   20.3218 H   0  0  0  0  0  0
  -31.0130  -17.7700   17.4220 H   0  0  0  0  0  0
  -32.1568  -16.8670   18.4062 H   0  0  0  0  0  0
  -32.6279  -18.4060   17.7036 H   0  0  0  0  0  0
  -29.4951  -17.3141   22.0493 H   0  0  0  0  0  0
  -31.1571  -17.0786   21.6470 H   0  0  0  0  0  0
  -28.7970  -25.1633   21.5336 H   0  0  0  0  0  0
  -27.2254  -24.9535   20.8606 H   0  0  0  0  0  0
  -29.8521  -24.4131   19.3685 H   0  0  0  0  0  0
  -28.3061  -24.0325   18.7159 H   0  0  0  0  0  0
  -28.8862  -15.3507   21.0754 H   0  0  0  0  0  0
  1 25  1  0  0  0
  1 30  2  0  0  0
  1 86  1  0  0  0
  2  3  1  0  0  0
  2 25  1  0  0  0
  2 88  1  0  0  0
  2 89  1  0  0  0
  3  4  1  0  0  0
  3 90  1  0  0  0
  3 91  1  0  0  0
  4  5  1  0  0  0
  4 92  1  0  0  0
  4 93  1  0  0  0
  5  6  1  0  0  0
  5 26  1  0  0  0
  5 94  1  0  0  0
  6 25  1  0  0  0
  6 95  1  0  0  0
  6 96  1  0  0  0
  7  8  2  0  0  0
  7 26  1  0  0  0
  7 29  1  0  0  0
  8  9  1  0  0  0
  8 22  1  0  0  0
  9 10  1  0  0  0
  9 27  2  0  0  0
 10 11  2  0  0  0
 10 15  1  0  0  0
 11 12  1  0  0  0
 11 97  1  0  0  0
 12 13  2  0  0  0
 12 98  1  0  0  0
 13 14  1  0  0  0
 13 31  1  0  0  0
 14 15  2  0  0  0
 14 99  1  0  0  0
 15100  1  0  0  0
 16 17  2  0  0  0
 16 21  1  0  0  0
 16 31  1  0  0  0
 17 18  1  0  0  0
 17101  1  0  0  0
 18 19  2  0  0  0
 18102  1  0  0  0
 19 20  1  0  0  0
 19 24  1  0  0  0
 20 21  2  0  0  0
 20103  1  0  0  0
 21 23  1  0  0  0
 22 28  1  0  0  0
 22 32  2  0  0  0
 26 27  1  0  0  0
 28104  1  0  0  0
 28105  1  0  0  0
 29106  1  0  0  0
 29107  1  0  0  0
 33 34  1  0  0  0
 33 66  1  0  0  0
 33 70  2  0  0  0
 34 36  1  0  0  0
 34 59  1  0  0  0
 34108  1  0  0  0
 35 44  2  0  0  0
 35 45  1  0  0  0
 35 68  1  0  0  0
 36 56  1  0  0  0
 36109  1  0  0  0
 37 39  1  0  0  0
 37 47  1  0  0  0
 37 66  1  0  0  0
 37110  1  0  0  0
 38 43  2  0  0  0
 38 46  1  0  0  0
 38 47  1  0  0  0
 39 64  1  0  0  0
 39 67  2  0  0  0
 40 52  1  0  0  0
 40 53  2  0  0  0
 40 58  1  0  0  0
 41111  1  0  0  0
 41112  1  0  0  0
 41113  1  0  0  0
 41 48  1  0  0  0
 42 43  1  0  0  0
 42 66  1  0  0  0
 42114  1  0  0  0
 42115  1  0  0  0
 43 44  1  0  0  0
 44116  1  0  0  0
 45 46  2  0  0  0
 45117  1  0  0  0
 46118  1  0  0  0
 47119  1  0  0  0
 47120  1  0  0  0
 48 56  1  0  0  0
 48 65  1  0  0  0
 48121  1  0  0  0
 49 50  1  0  0  0
 49 53  1  0  0  0
 49 64  1  0  0  0
 49122  1  0  0  0
 50 51  1  0  0  0
 50123  1  0  0  0
 50124  1  0  0  0
 51 52  1  0  0  0
 51125  1  0  0  0
 51126  1  0  0  0
 52127  1  0  0  0
 52128  1  0  0  0
 53 54  1  0  0  0
 54 55  2  0  0  0
 54129  1  0  0  0
 55 57  1  0  0  0
 55130  1  0  0  0
 56 69  2  0  0  0
 57 58  2  0  0  0
 57131  1  0  0  0
 58132  1  0  0  0
 59 60  1  0  0  0
 59 61  1  0  0  0
 59 62  1  0  0  0
 60133  1  0  0  0
 60134  1  0  0  0
 60135  1  0  0  0
 61136  1  0  0  0
 61137  1  0  0  0
 61138  1  0  0  0
 62139  1  0  0  0
 62140  1  0  0  0
 62141  1  0  0  0
 63 65  1  0  0  0
 63142  1  0  0  0
 63143  1  0  0  0
 63144  1  0  0  0
 64145  1  0  0  0
 65146  1  0  0  0
 68 84  1  0  0  0
 71 72  2  0  0  0
 71 74  1  0  0  0
 71147  1  0  0  0
 72 75  1  0  0  0
 72148  1  0  0  0
 73 75  2  0  0  0
 73 76  1  0  0  0
 73149  1  0  0  0
 74 76  2  0  0  0
 74 78  1  0  0  0
 75 81  1  0  0  0
 76 87  1  0  0  0
 77 78  1  0  0  0
 77 79  1  0  0  0
 77150  1  0  0  0
 77151  1  0  0  0
 78 80  1  0  0  0
 78152  1  0  0  0
 79 80  1  0  0  0
 79 82  1  0  0  0
 79153  1  0  0  0
 80 83  1  0  0  0
 80154  1  0  0  0
 81155  1  0  0  0
 81156  1  0  0  0
 81157  1  0  0  0
 82158  1  0  0  0
 82159  1  0  0  0
 82160  1  0  0  0
 83 86  1  0  0  0
 83161  1  0  0  0
 83162  1  0  0  0
 84 85  1  0  0  0
 84163  1  0  0  0
 84164  1  0  0  0
 85 87  1  0  0  0
 85165  1  0  0  0
 85166  1  0  0  0
 86167  1  0  0  0
M  ISO  4   1 100  68 101  84 101  86 100
M  END
> <chiral flag>
0

> <version>
0

> <s_m_source_file>
/data/baiqing/PycharmProjects/Reinvent-master-3.2/result/LINK_invent/BTK/process_docking_weight1_custom_sum_contain_oxygen_bond_distance_aromatic_linkinvent_7_9_3/rearranged_h_0146.sdf

> <i_m_source_file_index>
64

> <r_mmod_Potential_Energy-OPLS-2005>
44.6355247497559

> <r_mmod_Stretch_Energy-OPLS-2005>
67.5151062011719

> <r_mmod_Bend_Energy-OPLS-2005>
140.633361816406

> <r_mmod_Torsional_Energy-OPLS-2005>
244.537261962891

> <r_mmod_Improper_Torsional_Energy-OPLS-2005>
3.87766337394714

> <r_mmod_Van_der_Waal_Energy-OPLS-2005>
136.743286132812

> <r_mmod_Electrostatic_Energy-OPLS-2005>
-373.101959228516

> <r_mmod_Solvation_Energy-OPLS-2005>
-206.733856201172

> <b_mmod_Minimization_Converged-OPLS-2005>
0

> <r_mmod_RMS_Derivative-OPLS-2005>
1.23437213897705

$$$$
64
                    3D
 Structure written by MMmdl.
173182  0  0  1  0            999 V2000
  -30.7316  -14.5047   20.5302 C   0  0  0  0  0  0
  -30.4138  -12.3210   19.4333 C   0  0  0  0  0  0
  -29.4889  -12.4906   18.2123 C   0  0  0  0  0  0
  -28.0140  -12.3272   18.6297 C   0  0  0  0  0  0
  -27.6447  -13.1895   19.8652 C   0  0  2  0  0  0
  -28.6996  -13.0617   20.9902 C   0  0  0  0  0  0
  -25.2558  -13.8096   20.5712 C   0  0  0  0  0  0
  -24.1796  -13.0394   20.9190 C   0  0  0  0  0  0
  -24.6335  -11.6856   20.8763 C   0  0  0  0  0  0
  -23.9013  -10.4252   21.0417 C   0  0  0  0  0  0
  -24.3586   -9.4175   21.9182 C   0  0  0  0  0  0
  -23.6268   -8.2212   22.0746 C   0  0  0  0  0  0
  -22.4253   -8.0245   21.3531 C   0  0  0  0  0  0
  -21.9880   -9.0219   20.4643 C   0  0  0  0  0  0
  -22.7201  -10.2104   20.3059 C   0  0  0  0  0  0
  -21.6835   -6.0711   22.5280 C   0  0  0  0  0  0
  -21.3996   -6.5623   23.8207 C   0  0  0  0  0  0
  -21.3649   -5.6781   24.9174 C   0  0  0  0  0  0
  -21.6054   -4.3042   24.7231 C   0  0  0  0  0  0
  -21.8826   -3.8131   23.4353 C   0  0  0  0  0  0
  -21.9190   -4.6945   22.3414 C   0  0  0  0  0  0
  -22.7831  -13.5217   21.1851 C   0  0  0  0  0  0
  -22.1658   -4.2129   21.0993 F   0  0  0  0  0  0
  -21.5646   -3.4532   25.7745 F   0  0  0  0  0  0
  -30.0251  -13.3438   20.4163 N   0  0  0  0  0  0
  -26.2950  -12.9199   20.3396 N   0  0  0  0  0  0
  -25.9253  -11.6396   20.5821 N   0  0  0  0  0  0
  -22.0467  -12.8222   22.0417 N   0  0  0  0  0  0
  -25.4348  -15.1803   20.4121 N   0  0  0  0  0  0
  -31.9068  -14.5980   20.1669 O   0  0  0  0  0  0
  -21.6624   -6.8845   21.4228 O   0  0  0  0  0  0
  -22.3539  -14.5530   20.6688 O   0  0  0  0  0  0
  -24.6142  -31.8674   23.2103 C   0  0  0  0  0  0
  -25.9039  -32.4830   23.8403 C   0  0  1  0  0  0
  -27.2359  -27.4435   20.1084 C   0  0  0  0  0  0
  -25.5888  -33.8630   24.2328 N   0  0  0  0  0  0
  -23.4023  -30.4868   21.5501 C   0  0  2  0  0  0
  -24.8533  -28.9552   20.1112 C   0  0  0  0  0  0
  -22.7424  -29.4646   22.5024 C   0  0  0  0  0  0
  -18.0270  -28.1377   22.8499 C   0  0  0  0  0  0
  -24.1481  -36.7311   23.2635 C   0  0  0  0  0  0
  -25.9275  -30.8343   21.3646 C   0  0  0  0  0  0
  -26.0062  -29.4679   20.7184 C   0  0  0  0  0  0
  -27.2024  -28.7149   20.7227 C   0  0  0  0  0  0
  -26.0746  -26.9430   19.4877 C   0  0  0  0  0  0
  -24.8822  -27.6924   19.4916 C   0  0  0  0  0  0
  -23.6107  -29.8163   20.1640 C   0  0  0  0  0  0
  -25.4095  -36.3115   24.0332 C   0  0  1  0  0  0
  -20.5862  -28.3649   23.1351 C   0  0  2  0  0  0
  -20.6775  -26.9387   22.5446 C   0  0  0  0  0  0
  -19.5752  -26.6376   21.5250 C   0  0  0  0  0  0
  -18.1916  -26.7932   22.1623 C   0  0  0  0  0  0
  -19.1522  -28.8827   23.2924 C   0  0  0  0  0  0
  -18.9451  -30.1441   23.8924 C   0  0  0  0  0  0
  -17.6452  -30.6585   24.0565 C   0  0  0  0  0  0
  -25.9023  -34.9486   23.5126 C   0  0  0  0  0  0
  -16.5337  -29.9088   23.6328 C   0  0  0  0  0  0
  -16.7260  -28.6507   23.0345 C   0  0  0  0  0  0
  -26.4443  -31.6602   25.0732 C   0  0  0  0  0  0
  -25.3697  -31.3759   26.1483 C   0  0  0  0  0  0
  -27.0258  -30.3045   24.6098 C   0  0  0  0  0  0
  -27.6038  -32.4316   25.7489 C   0  0  0  0  0  0
  -27.5581  -37.1779   24.8444 C   0  0  0  0  0  0
  -21.4149  -29.3009   22.3760 N   0  0  0  0  0  0
  -26.4279  -37.3802   23.9424 N   0  0  0  0  0  0
  -24.6657  -31.0772   22.1011 N   0  0  0  0  0  0
  -23.4206  -28.8202   23.3071 O   0  0  0  0  0  0
  -28.3754  -26.6759   20.1116 O   0  0  0  0  0  0
  -26.5597  -34.8936   22.4697 O   0  0  0  0  0  0
  -23.5338  -32.1423   23.7495 O   0  0  0  0  0  0
  -30.8569  -22.6554   17.3201 C   0  0  0  0  0  0
  -30.5514  -22.9532   18.6561 C   0  0  0  0  0  0
  -30.8842  -20.2964   17.8777 C   0  0  0  0  0  0
  -31.0290  -21.3219   16.9272 C   0  0  0  0  0  0
  -30.3967  -21.9331   19.6341 C   0  0  0  0  0  0
  -30.5601  -20.5667   19.2372 C   0  0  0  0  0  0
  -31.5510  -17.6164   21.2615 C   0  0  0  0  0  0
  -30.2968  -17.3103   19.0570 C   0  0  0  0  0  0
  -30.5550  -16.5880   21.8712 C   0  0  0  0  0  0
  -29.3421  -16.3891   19.8346 C   0  0  0  0  0  0
  -31.0984  -18.2947   19.9409 C   0  0  0  0  0  0
  -31.3623  -20.9888   15.4858 C   0  0  0  0  0  0
  -31.1982  -21.8383   22.0560 C   0  0  0  0  0  0
  -28.5978  -24.3823   21.0432 C   0  0  0  0  0  0
  -28.5520  -25.9114   21.3143 C   0  0  0  0  0  0
  -30.0933  -22.3242   21.0986 C   0  0  1  0  0  0
  -30.0435  -15.6243   20.8782 N   0  0  0  0  0  0
  -29.9401  -23.7919   21.3078 N   0  3  0  0  0  0
  -30.4011  -19.5385   20.1656 O   0  0  0  0  0  0
  -31.4590  -12.4024   19.1309 H   0  0  0  0  0  0
  -30.3087  -11.3235   19.8615 H   0  0  0  0  0  0
  -29.7430  -11.7592   17.4444 H   0  0  0  0  0  0
  -29.6411  -13.4738   17.7637 H   0  0  0  0  0  0
  -27.8484  -11.2714   18.8498 H   0  0  0  0  0  0
  -27.3561  -12.5677   17.7946 H   0  0  0  0  0  0
  -27.6294  -14.2110   19.5143 H   0  0  0  0  0  0
  -28.6886  -12.0555   21.4112 H   0  0  0  0  0  0
  -28.4648  -13.7387   21.8131 H   0  0  0  0  0  0
  -25.2730   -9.5664   22.4751 H   0  0  0  0  0  0
  -23.9977   -7.4611   22.7461 H   0  0  0  0  0  0
  -21.0817   -8.8742   19.8948 H   0  0  0  0  0  0
  -22.3656  -10.9645   19.6175 H   0  0  0  0  0  0
  -21.1963   -7.6129   23.9706 H   0  0  0  0  0  0
  -21.1463   -6.0510   25.9076 H   0  0  0  0  0  0
  -22.0616   -2.7594   23.2873 H   0  0  0  0  0  0
  -22.4068  -11.9867   22.4798 H   0  0  0  0  0  0
  -21.1086  -13.1247   22.2620 H   0  0  0  0  0  0
  -24.6792  -15.8464   20.5281 H   0  0  0  0  0  0
  -26.3048  -15.6134   20.1290 H   0  0  0  0  0  0
  -26.7124  -32.5544   23.1181 H   0  0  0  0  0  0
  -25.0052  -33.9803   25.0483 H   0  0  0  0  0  0
  -22.6895  -31.3027   21.4097 H   0  0  0  0  0  0
  -23.3770  -35.9617   23.3262 H   0  0  0  0  0  0
  -24.3595  -36.8980   22.2063 H   0  0  0  0  0  0
  -23.7205  -37.6487   23.6676 H   0  0  0  0  0  0
  -26.0330  -31.5954   20.5907 H   0  0  0  0  0  0
  -26.8186  -30.8960   21.9769 H   0  0  0  0  0  0
  -28.0907  -29.1009   21.2021 H   0  0  0  0  0  0
  -26.0923  -25.9706   19.0142 H   0  0  0  0  0  0
  -23.9952  -27.2953   19.0180 H   0  0  0  0  0  0
  -23.7070  -30.5880   19.4000 H   0  0  0  0  0  0
  -22.7400  -29.2267   19.8727 H   0  0  0  0  0  0
  -25.1273  -36.1961   25.0821 H   0  0  0  0  0  0
  -20.9914  -28.3208   24.1494 H   0  0  0  0  0  0
  -20.5723  -26.2245   23.3628 H   0  0  0  0  0  0
  -21.6636  -26.7473   22.1198 H   0  0  0  0  0  0
  -19.6924  -25.6309   21.1241 H   0  0  0  0  0  0
  -19.6708  -27.3222   20.6825 H   0  0  0  0  0  0
  -17.4204  -26.6715   21.3997 H   0  0  0  0  0  0
  -18.0278  -26.0064   22.8997 H   0  0  0  0  0  0
  -19.7935  -30.7248   24.2291 H   0  0  0  0  0  0
  -17.5009  -31.6268   24.5161 H   0  0  0  0  0  0
  -15.5339  -30.2986   23.7667 H   0  0  0  0  0  0
  -15.8658  -28.0833   22.7046 H   0  0  0  0  0  0
  -24.5885  -30.7068   25.7851 H   0  0  0  0  0  0
  -24.8838  -32.2929   26.4835 H   0  0  0  0  0  0
  -25.8015  -30.9012   27.0300 H   0  0  0  0  0  0
  -26.2787  -29.6862   24.1098 H   0  0  0  0  0  0
  -27.3997  -29.7247   25.4548 H   0  0  0  0  0  0
  -27.8645  -30.4403   23.9273 H   0  0  0  0  0  0
  -27.2673  -33.3663   26.1999 H   0  0  0  0  0  0
  -28.3855  -32.6792   25.0295 H   0  0  0  0  0  0
  -28.0659  -31.8455   26.5441 H   0  0  0  0  0  0
  -28.2542  -38.0135   24.7563 H   0  0  0  0  0  0
  -28.1131  -36.2664   24.6151 H   0  0  0  0  0  0
  -27.2311  -37.1281   25.8850 H   0  0  0  0  0  0
  -20.9320  -29.8682   21.6932 H   0  0  0  0  0  0
  -26.0171  -38.2873   24.1489 H   0  0  0  0  0  0
  -30.9639  -23.4577   16.6019 H   0  0  0  0  0  0
  -30.4408  -24.0004   18.8903 H   0  0  0  0  0  0
  -31.0347  -19.2908   17.5203 H   0  0  0  0  0  0
  -32.4870  -17.0939   21.0575 H   0  0  0  0  0  0
  -31.8113  -18.3730   22.0013 H   0  0  0  0  0  0
  -29.7174  -17.8325   18.2983 H   0  0  0  0  0  0
  -31.0092  -16.6897   18.5126 H   0  0  0  0  0  0
  -29.7140  -17.1153   22.3235 H   0  0  0  0  0  0
  -31.0388  -16.0525   22.6905 H   0  0  0  0  0  0
  -28.8928  -15.7340   19.0949 H   0  0  0  0  0  0
  -28.5305  -16.9673   20.2778 H   0  0  0  0  0  0
  -32.0281  -18.5397   19.4240 H   0  0  0  0  0  0
  -31.6110  -21.8852   14.9161 H   0  0  0  0  0  0
  -30.5119  -20.5089   15.0013 H   0  0  0  0  0  0
  -32.2143  -20.3110   15.4311 H   0  0  0  0  0  0
  -31.3013  -20.7560   22.0584 H   0  0  0  0  0  0
  -30.9823  -22.1249   23.0855 H   0  0  0  0  0  0
  -32.1693  -22.2573   21.7902 H   0  0  0  0  0  0
  -28.2681  -24.1650   20.0274 H   0  0  0  0  0  0
  -27.8840  -23.8923   21.7070 H   0  0  0  0  0  0
  -29.4607  -26.2545   21.8099 H   0  0  0  0  0  0
  -27.7491  -26.1083   22.0288 H   0  0  0  0  0  0
  -29.1629  -21.8336   21.3867 H   0  0  0  0  0  0
  -30.1649  -23.9670   22.2747 H   0  0  0  0  0  0
  -30.6427  -24.2563   20.7530 H   0  0  0  0  0  0
  1 25  1  0  0  0
  1 30  2  0  0  0
  1 87  1  0  0  0
  2  3  1  0  0  0
  2 25  1  0  0  0
  2 90  1  0  0  0
  2 91  1  0  0  0
  3  4  1  0  0  0
  3 92  1  0  0  0
  3 93  1  0  0  0
  4  5  1  0  0  0
  4 94  1  0  0  0
  4 95  1  0  0  0
  5  6  1  0  0  0
  5 26  1  0  0  0
  5 96  1  0  0  0
  6 25  1  0  0  0
  6 97  1  0  0  0
  6 98  1  0  0  0
  7  8  2  0  0  0
  7 26  1  0  0  0
  7 29  1  0  0  0
  8  9  1  0  0  0
  8 22  1  0  0  0
  9 10  1  0  0  0
  9 27  2  0  0  0
 10 11  2  0  0  0
 10 15  1  0  0  0
 11 12  1  0  0  0
 11 99  1  0  0  0
 12 13  2  0  0  0
 12100  1  0  0  0
 13 14  1  0  0  0
 13 31  1  0  0  0
 14 15  2  0  0  0
 14101  1  0  0  0
 15102  1  0  0  0
 16 17  2  0  0  0
 16 21  1  0  0  0
 16 31  1  0  0  0
 17 18  1  0  0  0
 17103  1  0  0  0
 18 19  2  0  0  0
 18104  1  0  0  0
 19 20  1  0  0  0
 19 24  1  0  0  0
 20 21  2  0  0  0
 20105  1  0  0  0
 21 23  1  0  0  0
 22 28  1  0  0  0
 22 32  2  0  0  0
 26 27  1  0  0  0
 28106  1  0  0  0
 28107  1  0  0  0
 29108  1  0  0  0
 29109  1  0  0  0
 33 34  1  0  0  0
 33 66  1  0  0  0
 33 70  2  0  0  0
 34 36  1  0  0  0
 34 59  1  0  0  0
 34110  1  0  0  0
 35 44  2  0  0  0
 35 45  1  0  0  0
 35 68  1  0  0  0
 36 56  1  0  0  0
 36111  1  0  0  0
 37 39  1  0  0  0
 37 47  1  0  0  0
 37 66  1  0  0  0
 37112  1  0  0  0
 38 43  2  0  0  0
 38 46  1  0  0  0
 38 47  1  0  0  0
 39 64  1  0  0  0
 39 67  2  0  0  0
 40 52  1  0  0  0
 40 53  2  0  0  0
 40 58  1  0  0  0
 41113  1  0  0  0
 41114  1  0  0  0
 41115  1  0  0  0
 41 48  1  0  0  0
 42 43  1  0  0  0
 42 66  1  0  0  0
 42116  1  0  0  0
 42117  1  0  0  0
 43 44  1  0  0  0
 44118  1  0  0  0
 45 46  2  0  0  0
 45119  1  0  0  0
 46120  1  0  0  0
 47121  1  0  0  0
 47122  1  0  0  0
 48 56  1  0  0  0
 48 65  1  0  0  0
 48123  1  0  0  0
 49 50  1  0  0  0
 49 53  1  0  0  0
 49 64  1  0  0  0
 49124  1  0  0  0
 50 51  1  0  0  0
 50125  1  0  0  0
 50126  1  0  0  0
 51 52  1  0  0  0
 51127  1  0  0  0
 51128  1  0  0  0
 52129  1  0  0  0
 52130  1  0  0  0
 53 54  1  0  0  0
 54 55  2  0  0  0
 54131  1  0  0  0
 55 57  1  0  0  0
 55132  1  0  0  0
 56 69  2  0  0  0
 57 58  2  0  0  0
 57133  1  0  0  0
 58134  1  0  0  0
 59 60  1  0  0  0
 59 61  1  0  0  0
 59 62  1  0  0  0
 60135  1  0  0  0
 60136  1  0  0  0
 60137  1  0  0  0
 61138  1  0  0  0
 61139  1  0  0  0
 61140  1  0  0  0
 62141  1  0  0  0
 62142  1  0  0  0
 62143  1  0  0  0
 63 65  1  0  0  0
 63144  1  0  0  0
 63145  1  0  0  0
 63146  1  0  0  0
 64147  1  0  0  0
 65148  1  0  0  0
 68 85  1  0  0  0
 71 72  2  0  0  0
 71 74  1  0  0  0
 71149  1  0  0  0
 72 75  1  0  0  0
 72150  1  0  0  0
 73 74  2  0  0  0
 73 76  1  0  0  0
 73151  1  0  0  0
 74 82  1  0  0  0
 75 76  2  0  0  0
 75 86  1  0  0  0
 76 89  1  0  0  0
 77 79  1  0  0  0
 77 81  1  0  0  0
 77152  1  0  0  0
 77153  1  0  0  0
 78 80  1  0  0  0
 78 81  1  0  0  0
 78154  1  0  0  0
 78155  1  0  0  0
 79 87  1  0  0  0
 79156  1  0  0  0
 79157  1  0  0  0
 80 87  1  0  0  0
 80158  1  0  0  0
 80159  1  0  0  0
 81 89  1  0  0  0
 81160  1  0  0  0
 82161  1  0  0  0
 82162  1  0  0  0
 82163  1  0  0  0
 83164  1  0  0  0
 83165  1  0  0  0
 83166  1  0  0  0
 83 86  1  0  0  0
 84 85  1  0  0  0
 84 88  1  0  0  0
 84167  1  0  0  0
 84168  1  0  0  0
 85169  1  0  0  0
 85170  1  0  0  0
 86 88  1  0  0  0
 86171  1  0  0  0
 88172  1  0  0  0
 88173  1  0  0  0
M  CHG  1  88   1
M  ISO  4   1 100  68 101  85 101  87 100
M  END
> <chiral flag>
0

> <version>
0

> <s_m_source_file>
/data/baiqing/PycharmProjects/Reinvent-master-3.2/result/LINK_invent/BTK/process_docking_weight1_custom_sum_contain_oxygen_bond_distance_aromatic_linkinvent_7_9_3/rearranged_h_0146.sdf

> <i_m_source_file_index>
65

> <r_mmod_Potential_Energy-OPLS-2005>
81.5586853027344

> <r_mmod_Stretch_Energy-OPLS-2005>
45.7474746704102

> <r_mmod_Bend_Energy-OPLS-2005>
114.36092376709

> <r_mmod_Torsional_Energy-OPLS-2005>
371.400970458984

> <r_mmod_Improper_Torsional_Energy-OPLS-2005>
7.31471157073975

> <r_mmod_Van_der_Waal_Energy-OPLS-2005>
164.594635009766

> <r_mmod_Electrostatic_Energy-OPLS-2005>
-223.752990722656

> <r_mmod_Solvation_Energy-OPLS-2005>
-418.489379882812

> <b_mmod_Minimization_Converged-OPLS-2005>
0

> <r_mmod_RMS_Derivative-OPLS-2005>
2.72042965888977

$$$$
65
                    3D
 Structure written by MMmdl.
159168  0  0  1  0            999 V2000
  -30.5171  -14.9811   20.3922 C   0  0  0  0  0  0
  -30.4399  -12.5961   19.5440 C   0  0  0  0  0  0
  -29.5515  -12.5537   18.2799 C   0  0  0  0  0  0
  -28.0745  -12.3307   18.6686 C   0  0  0  0  0  0
  -27.6350  -13.2535   19.8410 C   0  0  2  0  0  0
  -28.6642  -13.2858   20.9916 C   0  0  0  0  0  0
  -25.2493  -13.8198   20.5647 C   0  0  0  0  0  0
  -24.1794  -13.0427   20.9176 C   0  0  0  0  0  0
  -24.6403  -11.6923   20.8667 C   0  0  0  0  0  0
  -23.9083  -10.4291   21.0307 C   0  0  0  0  0  0
  -24.3630   -9.4208   21.9096 C   0  0  0  0  0  0
  -23.6318   -8.2240   22.0710 C   0  0  0  0  0  0
  -22.4305   -8.0278   21.3507 C   0  0  0  0  0  0
  -21.9928   -9.0230   20.4611 C   0  0  0  0  0  0
  -22.7241  -10.2113   20.2985 C   0  0  0  0  0  0
  -21.6881   -6.0734   22.5265 C   0  0  0  0  0  0
  -21.4035   -6.5631   23.8205 C   0  0  0  0  0  0
  -21.3683   -5.6776   24.9164 C   0  0  0  0  0  0
  -21.6085   -4.3041   24.7210 C   0  0  0  0  0  0
  -21.8822   -3.8137   23.4321 C   0  0  0  0  0  0
  -21.9205   -4.6964   22.3379 C   0  0  0  0  0  0
  -22.7821  -13.5215   21.1856 C   0  0  0  0  0  0
  -22.1629   -4.2118   21.0956 F   0  0  0  0  0  0
  -21.5645   -3.4542   25.7726 F   0  0  0  0  0  0
  -29.9498  -13.7029   20.4168 N   0  0  0  0  0  0
  -26.2909  -12.9441   20.3171 N   0  0  0  0  0  0
  -25.9343  -11.6556   20.5643 N   0  0  0  0  0  0
  -22.0429  -12.8234   22.0399 N   0  0  0  0  0  0
  -25.4193  -15.1936   20.4076 N   0  0  0  0  0  0
  -31.6972  -15.0496   20.0253 O   0  0  0  0  0  0
  -21.6657   -6.8885   21.4239 O   0  0  0  0  0  0
  -22.3490  -14.5512   20.6684 O   0  0  0  0  0  0
  -24.6400  -31.8445   23.1852 C   0  0  0  0  0  0
  -25.9189  -32.4704   23.8250 C   0  0  1  0  0  0
  -27.2184  -27.1363   20.1663 C   0  0  0  0  0  0
  -25.5934  -33.8506   24.2159 N   0  0  0  0  0  0
  -23.4426  -30.4603   21.5353 C   0  0  2  0  0  0
  -24.8924  -28.8841   20.1148 C   0  0  0  0  0  0
  -22.7536  -29.4559   22.4895 C   0  0  0  0  0  0
  -18.0291  -28.1404   22.8478 C   0  0  0  0  0  0
  -24.1486  -36.7260   23.2640 C   0  0  0  0  0  0
  -25.9973  -30.7211   21.3802 C   0  0  0  0  0  0
  -26.0715  -29.3320   20.7232 C   0  0  0  0  0  0
  -27.2353  -28.4755   20.7298 C   0  0  0  0  0  0
  -26.0117  -26.7848   19.5222 C   0  0  0  0  0  0
  -24.8748  -27.6229   19.5002 C   0  0  0  0  0  0
  -23.6655  -29.7820   20.1581 C   0  0  0  0  0  0
  -25.4116  -36.3026   24.0306 C   0  0  1  0  0  0
  -20.5903  -28.3713   23.1252 C   0  0  2  0  0  0
  -20.6788  -26.9419   22.5416 C   0  0  0  0  0  0
  -19.5762  -26.6373   21.5229 C   0  0  0  0  0  0
  -18.1938  -26.7942   22.1626 C   0  0  0  0  0  0
  -19.1548  -28.8880   23.2848 C   0  0  0  0  0  0
  -18.9471  -30.1484   23.8852 C   0  0  0  0  0  0
  -17.6472  -30.6611   24.0546 C   0  0  0  0  0  0
  -25.9071  -34.9421   23.5044 C   0  0  0  0  0  0
  -16.5354  -29.9094   23.6353 C   0  0  0  0  0  0
  -16.7278  -28.6516   23.0357 C   0  0  0  0  0  0
  -26.4492  -31.6583   25.0716 C   0  0  0  0  0  0
  -25.3663  -31.3818   26.1417 C   0  0  0  0  0  0
  -27.0349  -30.2963   24.6322 C   0  0  0  0  0  0
  -27.6001  -32.4361   25.7519 C   0  0  0  0  0  0
  -27.5571  -37.1764   24.8446 C   0  0  0  0  0  0
  -21.4233  -29.3030   22.3633 N   0  0  0  0  0  0
  -26.4257  -37.3751   23.9420 N   0  0  0  0  0  0
  -24.7146  -31.0295   22.0899 N   0  0  0  0  0  0
  -23.4176  -28.8122   23.3068 O   0  0  0  0  0  0
  -28.2772  -26.1593   20.2562 O   0  0  0  0  0  0
  -26.5669  -34.8915   22.4629 O   0  0  0  0  0  0
  -23.5526  -32.1346   23.7064 O   0  0  0  0  0  0
  -28.7698  -19.9383   18.7269 C   0  0  0  0  0  0
  -29.0902  -20.1435   20.0809 C   0  0  0  0  0  0
  -29.5118  -18.8634   20.7364 C   0  0  0  0  0  0
  -28.8544  -18.6690   18.1136 C   0  0  0  0  0  0
  -29.5715  -17.5283   20.0648 C   0  0  0  0  0  0
  -29.7930  -22.5177   19.8418 C   0  0  0  0  0  0
  -28.8432  -21.6679   20.7141 C   0  0  1  0  0  0
  -28.9868  -23.3859   20.6761 C   0  0  1  0  0  0
  -29.9492  -18.9366   22.1899 C   0  0  0  0  0  0
  -28.4103  -18.5050   16.6670 C   0  0  0  0  0  0
  -29.6214  -23.9787   21.9308 C   0  0  0  0  0  0
  -28.0348  -24.6242   20.0915 C   0  0  0  0  0  0
  -29.2369  -17.5341   18.7537 N   0  0  0  0  0  0
  -29.7770  -16.1549   20.7228 N   0  0  0  0  0  0
  -31.4868  -12.7313   19.2648 H   0  0  0  0  0  0
  -30.3979  -11.6448   20.0774 H   0  0  0  0  0  0
  -29.8958  -11.7723   17.5988 H   0  0  0  0  0  0
  -29.6585  -13.4955   17.7368 H   0  0  0  0  0  0
  -27.9647  -11.2847   18.9584 H   0  0  0  0  0  0
  -27.4320  -12.4650   17.7985 H   0  0  0  0  0  0
  -27.5999  -14.2621   19.4229 H   0  0  0  0  0  0
  -28.7431  -12.3109   21.4736 H   0  0  0  0  0  0
  -28.3459  -13.9812   21.7703 H   0  0  0  0  0  0
  -25.2740   -9.5732   22.4692 H   0  0  0  0  0  0
  -24.0027   -7.4700   22.7476 H   0  0  0  0  0  0
  -21.0833   -8.8767   19.8977 H   0  0  0  0  0  0
  -22.3645  -10.9644   19.6124 H   0  0  0  0  0  0
  -21.1993   -7.6133   23.9705 H   0  0  0  0  0  0
  -21.1512   -6.0465   25.9067 H   0  0  0  0  0  0
  -22.0579   -2.7598   23.2791 H   0  0  0  0  0  0
  -22.4056  -11.9923   22.4887 H   0  0  0  0  0  0
  -21.1033  -13.1244   22.2559 H   0  0  0  0  0  0
  -24.6611  -15.8521   20.5388 H   0  0  0  0  0  0
  -26.2717  -15.6311   20.0786 H   0  0  0  0  0  0
  -26.7268  -32.5303   23.0984 H   0  0  0  0  0  0
  -24.9993  -33.9641   25.0239 H   0  0  0  0  0  0
  -22.7450  -31.2845   21.3790 H   0  0  0  0  0  0
  -23.3769  -35.9568   23.3242 H   0  0  0  0  0  0
  -24.3566  -36.8958   22.2065 H   0  0  0  0  0  0
  -23.7218  -37.6419   23.6725 H   0  0  0  0  0  0
  -26.1424  -31.4764   20.6069 H   0  0  0  0  0  0
  -26.8713  -30.7755   22.0171 H   0  0  0  0  0  0
  -28.1308  -28.8142   21.2320 H   0  0  0  0  0  0
  -25.9130  -25.8118   19.0631 H   0  0  0  0  0  0
  -23.9685  -27.2643   19.0303 H   0  0  0  0  0  0
  -23.7851  -30.5518   19.3950 H   0  0  0  0  0  0
  -22.7832  -29.2139   19.8589 H   0  0  0  0  0  0
  -25.1298  -36.1830   25.0793 H   0  0  0  0  0  0
  -20.9961  -28.3308   24.1379 H   0  0  0  0  0  0
  -20.5696  -26.2322   23.3624 H   0  0  0  0  0  0
  -21.6660  -26.7457   22.1199 H   0  0  0  0  0  0
  -19.6933  -25.6272   21.1285 H   0  0  0  0  0  0
  -19.6719  -27.3156   20.6737 H   0  0  0  0  0  0
  -17.4205  -26.6654   21.4027 H   0  0  0  0  0  0
  -18.0345  -26.0104   22.9044 H   0  0  0  0  0  0
  -19.7949  -30.7318   24.2169 H   0  0  0  0  0  0
  -17.5034  -31.6285   24.5153 H   0  0  0  0  0  0
  -15.5355  -30.2976   23.7745 H   0  0  0  0  0  0
  -15.8666  -28.0843   22.7081 H   0  0  0  0  0  0
  -24.5793  -30.7229   25.7727 H   0  0  0  0  0  0
  -24.8931  -32.3052   26.4782 H   0  0  0  0  0  0
  -25.7935  -30.9001   27.0226 H   0  0  0  0  0  0
  -26.2990  -29.6698   24.1284 H   0  0  0  0  0  0
  -27.3877  -29.7249   25.4917 H   0  0  0  0  0  0
  -27.8922  -30.4153   23.9693 H   0  0  0  0  0  0
  -27.2560  -33.3667   26.2028 H   0  0  0  0  0  0
  -28.3860  -32.6918   25.0408 H   0  0  0  0  0  0
  -28.0618  -31.8549   26.5502 H   0  0  0  0  0  0
  -28.2527  -38.0113   24.7555 H   0  0  0  0  0  0
  -28.1121  -36.2654   24.6187 H   0  0  0  0  0  0
  -27.2307  -37.1298   25.8843 H   0  0  0  0  0  0
  -20.9449  -29.8678   21.6762 H   0  0  0  0  0  0
  -26.0124  -38.2795   24.1480 H   0  0  0  0  0  0
  -28.4120  -20.7711   18.1354 H   0  0  0  0  0  0
  -29.5849  -22.5684   18.7759 H   0  0  0  0  0  0
  -30.8549  -22.4344   20.0652 H   0  0  0  0  0  0
  -29.0142  -21.4308   21.7598 H   0  0  0  0  0  0
  -30.6352  -19.7726   22.3364 H   0  0  0  0  0  0
  -30.4852  -18.0374   22.4981 H   0  0  0  0  0  0
  -29.1001  -19.0711   22.8605 H   0  0  0  0  0  0
  -28.6372  -19.3892   16.0663 H   0  0  0  0  0  0
  -27.3325  -18.3425   16.6196 H   0  0  0  0  0  0
  -28.8882  -17.6497   16.1900 H   0  0  0  0  0  0
  -30.1289  -23.2195   22.5298 H   0  0  0  0  0  0
  -28.8606  -24.4412   22.5607 H   0  0  0  0  0  0
  -30.3575  -24.7399   21.6648 H   0  0  0  0  0  0
  -27.0576  -24.4452   20.5391 H   0  0  0  0  0  0
  -27.8918  -24.4383   19.0280 H   0  0  0  0  0  0
  -29.0209  -15.9335   21.3486 H   0  0  0  0  0  0
  1 25  1  0  0  0
  1 30  2  0  0  0
  1 84  1  0  0  0
  2  3  1  0  0  0
  2 25  1  0  0  0
  2 85  1  0  0  0
  2 86  1  0  0  0
  3  4  1  0  0  0
  3 87  1  0  0  0
  3 88  1  0  0  0
  4  5  1  0  0  0
  4 89  1  0  0  0
  4 90  1  0  0  0
  5  6  1  0  0  0
  5 26  1  0  0  0
  5 91  1  0  0  0
  6 25  1  0  0  0
  6 92  1  0  0  0
  6 93  1  0  0  0
  7  8  2  0  0  0
  7 26  1  0  0  0
  7 29  1  0  0  0
  8  9  1  0  0  0
  8 22  1  0  0  0
  9 10  1  0  0  0
  9 27  2  0  0  0
 10 11  2  0  0  0
 10 15  1  0  0  0
 11 12  1  0  0  0
 11 94  1  0  0  0
 12 13  2  0  0  0
 12 95  1  0  0  0
 13 14  1  0  0  0
 13 31  1  0  0  0
 14 15  2  0  0  0
 14 96  1  0  0  0
 15 97  1  0  0  0
 16 17  2  0  0  0
 16 21  1  0  0  0
 16 31  1  0  0  0
 17 18  1  0  0  0
 17 98  1  0  0  0
 18 19  2  0  0  0
 18 99  1  0  0  0
 19 20  1  0  0  0
 19 24  1  0  0  0
 20 21  2  0  0  0
 20100  1  0  0  0
 21 23  1  0  0  0
 22 28  1  0  0  0
 22 32  2  0  0  0
 26 27  1  0  0  0
 28101  1  0  0  0
 28102  1  0  0  0
 29103  1  0  0  0
 29104  1  0  0  0
 33 34  1  0  0  0
 33 66  1  0  0  0
 33 70  2  0  0  0
 34 36  1  0  0  0
 34 59  1  0  0  0
 34105  1  0  0  0
 35 44  2  0  0  0
 35 45  1  0  0  0
 35 68  1  0  0  0
 36 56  1  0  0  0
 36106  1  0  0  0
 37 39  1  0  0  0
 37 47  1  0  0  0
 37 66  1  0  0  0
 37107  1  0  0  0
 38 43  2  0  0  0
 38 46  1  0  0  0
 38 47  1  0  0  0
 39 64  1  0  0  0
 39 67  2  0  0  0
 40 52  1  0  0  0
 40 53  2  0  0  0
 40 58  1  0  0  0
 41108  1  0  0  0
 41109  1  0  0  0
 41110  1  0  0  0
 41 48  1  0  0  0
 42 43  1  0  0  0
 42 66  1  0  0  0
 42111  1  0  0  0
 42112  1  0  0  0
 43 44  1  0  0  0
 44113  1  0  0  0
 45 46  2  0  0  0
 45114  1  0  0  0
 46115  1  0  0  0
 47116  1  0  0  0
 47117  1  0  0  0
 48 56  1  0  0  0
 48 65  1  0  0  0
 48118  1  0  0  0
 49 50  1  0  0  0
 49 53  1  0  0  0
 49 64  1  0  0  0
 49119  1  0  0  0
 50 51  1  0  0  0
 50120  1  0  0  0
 50121  1  0  0  0
 51 52  1  0  0  0
 51122  1  0  0  0
 51123  1  0  0  0
 52124  1  0  0  0
 52125  1  0  0  0
 53 54  1  0  0  0
 54 55  2  0  0  0
 54126  1  0  0  0
 55 57  1  0  0  0
 55127  1  0  0  0
 56 69  2  0  0  0
 57 58  2  0  0  0
 57128  1  0  0  0
 58129  1  0  0  0
 59 60  1  0  0  0
 59 61  1  0  0  0
 59 62  1  0  0  0
 60130  1  0  0  0
 60131  1  0  0  0
 60132  1  0  0  0
 61133  1  0  0  0
 61134  1  0  0  0
 61135  1  0  0  0
 62136  1  0  0  0
 62137  1  0  0  0
 62138  1  0  0  0
 63 65  1  0  0  0
 63139  1  0  0  0
 63140  1  0  0  0
 63141  1  0  0  0
 64142  1  0  0  0
 65143  1  0  0  0
 68 82  1  0  0  0
 71 72  2  0  0  0
 71 74  1  0  0  0
 71144  1  0  0  0
 72 73  1  0  0  0
 72 77  1  0  0  0
 73 75  2  0  0  0
 73 79  1  0  0  0
 74 80  1  0  0  0
 74 83  2  0  0  0
 75 83  1  0  0  0
 75 84  1  0  0  0
 76 77  1  0  0  0
 76 78  1  0  0  0
 76145  1  0  0  0
 76146  1  0  0  0
 77 78  1  0  0  0
 77147  1  0  0  0
 78 81  1  0  0  0
 78 82  1  0  0  0
 79148  1  0  0  0
 79149  1  0  0  0
 79150  1  0  0  0
 80151  1  0  0  0
 80152  1  0  0  0
 80153  1  0  0  0
 81154  1  0  0  0
 81155  1  0  0  0
 81156  1  0  0  0
 82157  1  0  0  0
 82158  1  0  0  0
 84159  1  0  0  0
M  ISO  4   1 100  68 101  82 101  84 100
M  END
> <chiral flag>
0

> <version>
0

> <s_m_source_file>
/data/baiqing/PycharmProjects/Reinvent-master-3.2/result/LINK_invent/BTK/process_docking_weight1_custom_sum_contain_oxygen_bond_distance_aromatic_linkinvent_7_9_3/rearranged_h_0146.sdf

> <i_m_source_file_index>
66

> <r_mmod_Potential_Energy-OPLS-2005>
537.403930664062

> <r_mmod_Stretch_Energy-OPLS-2005>
299.586090087891

> <r_mmod_Bend_Energy-OPLS-2005>
369.016418457031

> <r_mmod_Torsional_Energy-OPLS-2005>
282.812347412109

> <r_mmod_Improper_Torsional_Energy-OPLS-2005>
4.71069431304932

> <r_mmod_Van_der_Waal_Energy-OPLS-2005>
132.51416015625

> <r_mmod_Electrostatic_Energy-OPLS-2005>
-537.153015136719

> <r_mmod_Solvation_Energy-OPLS-2005>
-220.296463012695

> <b_mmod_Minimization_Converged-OPLS-2005>
0

> <r_mmod_RMS_Derivative-OPLS-2005>
5.53078603744507

$$$$
66
                    3D
 Structure written by MMmdl.
177186  0  0  1  0            999 V2000
  -30.6103  -14.7499   20.4728 C   0  0  0  0  0  0
  -30.4332  -12.4593   19.4772 C   0  0  0  0  0  0
  -29.5137  -12.5106   18.2382 C   0  0  0  0  0  0
  -28.0398  -12.3280   18.6508 C   0  0  0  0  0  0
  -27.6418  -13.2304   19.8498 C   0  0  2  0  0  0
  -28.6852  -13.1627   20.9862 C   0  0  0  0  0  0
  -25.2523  -13.8183   20.5696 C   0  0  0  0  0  0
  -24.1811  -13.0430   20.9211 C   0  0  0  0  0  0
  -24.6391  -11.6903   20.8733 C   0  0  0  0  0  0
  -23.9056  -10.4286   21.0388 C   0  0  0  0  0  0
  -24.3611   -9.4196   21.9159 C   0  0  0  0  0  0
  -23.6286   -8.2232   22.0729 C   0  0  0  0  0  0
  -22.4268   -8.0266   21.3522 C   0  0  0  0  0  0
  -21.9904   -9.0234   20.4622 C   0  0  0  0  0  0
  -22.7230  -10.2115   20.3026 C   0  0  0  0  0  0
  -21.6853   -6.0720   22.5267 C   0  0  0  0  0  0
  -21.4022   -6.5625   23.8200 C   0  0  0  0  0  0
  -21.3667   -5.6782   24.9159 C   0  0  0  0  0  0
  -21.6046   -4.3045   24.7220 C   0  0  0  0  0  0
  -21.8823   -3.8128   23.4340 C   0  0  0  0  0  0
  -21.9202   -4.6948   22.3391 C   0  0  0  0  0  0
  -22.7833  -13.5218   21.1857 C   0  0  0  0  0  0
  -22.1663   -4.2135   21.0975 F   0  0  0  0  0  0
  -21.5633   -3.4530   25.7730 F   0  0  0  0  0  0
  -29.9846  -13.5239   20.4053 N   0  0  0  0  0  0
  -26.2941  -12.9386   20.3259 N   0  0  0  0  0  0
  -25.9327  -11.6535   20.5738 N   0  0  0  0  0  0
  -22.0473  -12.8215   22.0414 N   0  0  0  0  0  0
  -25.4237  -15.1903   20.4105 N   0  0  0  0  0  0
  -31.7946  -14.8496   20.1396 O   0  0  0  0  0  0
  -21.6639   -6.8854   21.4218 O   0  0  0  0  0  0
  -22.3512  -14.5507   20.6670 O   0  0  0  0  0  0
  -24.6363  -31.8533   23.1987 C   0  0  0  0  0  0
  -25.9168  -32.4741   23.8333 C   0  0  1  0  0  0
  -27.2017  -27.2274   20.1223 C   0  0  0  0  0  0
  -25.5956  -33.8549   24.2250 N   0  0  0  0  0  0
  -23.4333  -30.4809   21.5421 C   0  0  2  0  0  0
  -24.8767  -28.9281   20.1126 C   0  0  0  0  0  0
  -22.7515  -29.4610   22.4882 C   0  0  0  0  0  0
  -18.0305  -28.1379   22.8477 C   0  0  0  0  0  0
  -24.1506  -36.7286   23.2642 C   0  0  0  0  0  0
  -25.9854  -30.7551   21.3866 C   0  0  0  0  0  0
  -26.0553  -29.3773   20.7226 C   0  0  0  0  0  0
  -27.2264  -28.5428   20.7116 C   0  0  0  0  0  0
  -25.9980  -26.8638   19.4868 C   0  0  0  0  0  0
  -24.8550  -27.6766   19.4845 C   0  0  0  0  0  0
  -23.6544  -29.8234   20.1572 C   0  0  0  0  0  0
  -25.4130  -36.3061   24.0319 C   0  0  1  0  0  0
  -20.5909  -28.3706   23.1250 C   0  0  2  0  0  0
  -20.6795  -26.9420   22.5397 C   0  0  0  0  0  0
  -19.5769  -26.6376   21.5206 C   0  0  0  0  0  0
  -18.1949  -26.7923   22.1614 C   0  0  0  0  0  0
  -19.1557  -28.8855   23.2863 C   0  0  0  0  0  0
  -18.9475  -30.1456   23.8884 C   0  0  0  0  0  0
  -17.6471  -30.6580   24.0563 C   0  0  0  0  0  0
  -25.9070  -34.9428   23.5080 C   0  0  0  0  0  0
  -16.5365  -29.9077   23.6324 C   0  0  0  0  0  0
  -16.7291  -28.6492   23.0349 C   0  0  0  0  0  0
  -26.4517  -31.6569   25.0731 C   0  0  0  0  0  0
  -25.3709  -31.3734   26.1429 C   0  0  0  0  0  0
  -27.0362  -30.2966   24.6258 C   0  0  0  0  0  0
  -27.6062  -32.4315   25.7501 C   0  0  0  0  0  0
  -27.5587  -37.1802   24.8465 C   0  0  0  0  0  0
  -21.4217  -29.3060   22.3625 N   0  0  0  0  0  0
  -26.4306  -37.3757   23.9403 N   0  0  0  0  0  0
  -24.7035  -31.0487   22.0974 N   0  0  0  0  0  0
  -23.4198  -28.8127   23.2982 O   0  0  0  0  0  0
  -28.2608  -26.2791   20.1217 O   0  0  0  0  0  0
  -26.5641  -34.8894   22.4654 O   0  0  0  0  0  0
  -23.5491  -32.1385   23.7239 O   0  0  0  0  0  0
  -29.1822  -22.2218   17.7948 C   0  0  0  0  0  0
  -28.6320  -23.3977   18.3607 C   0  0  0  0  0  0
  -29.4535  -21.0887   18.5942 C   0  0  0  0  0  0
  -28.5529  -23.5167   19.7789 C   0  0  0  0  0  0
  -29.2108  -21.1521   19.9841 C   0  0  0  0  0  0
  -29.4830  -22.1927   16.3048 C   0  0  0  0  0  0
  -29.8275  -23.5950   15.8092 C   0  0  0  0  0  0
  -27.9896  -24.4261   17.4146 C   0  0  1  0  0  0
  -28.6320  -24.5465   15.9888 C   0  0  1  0  0  0
  -26.5012  -24.0463   17.2622 C   0  0  0  0  0  0
  -29.6859  -26.1018   14.2253 C   0  0  0  0  0  0
  -27.6932  -26.8865   15.5036 C   0  0  0  0  0  0
  -30.9251  -17.6279   22.1400 C   0  0  0  0  0  0
  -27.9453  -24.8339   20.4983 C   0  0  0  0  0  0
  -29.1497  -18.5180   20.4786 C   0  0  0  0  0  0
  -28.9595  -26.0122   15.5820 C   0  0  0  0  0  0
  -30.2647  -17.3657   20.7738 C   0  0  2  0  0  0
  -28.8312  -22.3711   20.5437 N   0  0  0  0  0  0
  -29.4421  -19.9824   20.8118 N   0  0  0  0  0  0
  -29.8495  -15.8855   20.7315 N   0  0  0  0  0  0
  -29.9585  -19.9592   18.0077 O   0  0  0  0  0  0
  -31.4755  -12.5812   19.1808 H   0  0  0  0  0  0
  -30.3717  -11.4844   19.9618 H   0  0  0  0  0  0
  -29.7996  -11.7401   17.5208 H   0  0  0  0  0  0
  -29.6374  -13.4662   17.7270 H   0  0  0  0  0  0
  -27.9064  -11.2784   18.9182 H   0  0  0  0  0  0
  -27.3811  -12.5075   17.8004 H   0  0  0  0  0  0
  -27.6360  -14.2514   19.4678 H   0  0  0  0  0  0
  -28.7264  -12.1605   21.4157 H   0  0  0  0  0  0
  -28.4187  -13.8354   21.8025 H   0  0  0  0  0  0
  -25.2750   -9.5691   22.4733 H   0  0  0  0  0  0
  -24.0005   -7.4629   22.7442 H   0  0  0  0  0  0
  -21.0839   -8.8725   19.8933 H   0  0  0  0  0  0
  -22.3658  -10.9637   19.6134 H   0  0  0  0  0  0
  -21.2003   -7.6136   23.9698 H   0  0  0  0  0  0
  -21.1494   -6.0509   25.9068 H   0  0  0  0  0  0
  -22.0601   -2.7590   23.2838 H   0  0  0  0  0  0
  -22.4126  -11.9938   22.4879 H   0  0  0  0  0  0
  -21.1037  -13.1160   22.2514 H   0  0  0  0  0  0
  -24.6547  -15.8430   20.5157 H   0  0  0  0  0  0
  -26.2622  -15.6236   20.0463 H   0  0  0  0  0  0
  -26.7223  -32.5367   23.1055 H   0  0  0  0  0  0
  -25.0091  -33.9700   25.0383 H   0  0  0  0  0  0
  -22.7328  -31.3052   21.3979 H   0  0  0  0  0  0
  -23.3762  -35.9629   23.3298 H   0  0  0  0  0  0
  -24.3602  -36.8910   22.2059 H   0  0  0  0  0  0
  -23.7250  -37.6478   23.6679 H   0  0  0  0  0  0
  -26.1389  -31.5189   20.6230 H   0  0  0  0  0  0
  -26.8575  -30.7945   22.0274 H   0  0  0  0  0  0
  -28.1279  -28.8859   21.1996 H   0  0  0  0  0  0
  -25.9147  -25.9146   18.9920 H   0  0  0  0  0  0
  -23.9542  -27.3251   19.0015 H   0  0  0  0  0  0
  -23.7890  -30.6065   19.4104 H   0  0  0  0  0  0
  -22.7705  -29.2677   19.8402 H   0  0  0  0  0  0
  -25.1304  -36.1914   25.0807 H   0  0  0  0  0  0
  -21.0011  -28.3288   24.1368 H   0  0  0  0  0  0
  -20.5697  -26.2314   23.3599 H   0  0  0  0  0  0
  -21.6660  -26.7441   22.1187 H   0  0  0  0  0  0
  -19.6946  -25.6283   21.1241 H   0  0  0  0  0  0
  -19.6715  -27.3177   20.6726 H   0  0  0  0  0  0
  -17.4219  -26.6666   21.4019 H   0  0  0  0  0  0
  -18.0366  -26.0064   22.9005 H   0  0  0  0  0  0
  -19.7953  -30.7280   24.2241 H   0  0  0  0  0  0
  -17.5028  -31.6260   24.5165 H   0  0  0  0  0  0
  -15.5364  -30.2980   23.7658 H   0  0  0  0  0  0
  -15.8687  -28.0814   22.7068 H   0  0  0  0  0  0
  -24.5912  -30.7055   25.7750 H   0  0  0  0  0  0
  -24.8872  -32.2903   26.4804 H   0  0  0  0  0  0
  -25.7994  -30.8940   27.0236 H   0  0  0  0  0  0
  -26.2947  -29.6702   24.1284 H   0  0  0  0  0  0
  -27.4010  -29.7250   25.4805 H   0  0  0  0  0  0
  -27.8849  -30.4215   23.9528 H   0  0  0  0  0  0
  -27.2673  -33.3636   26.2035 H   0  0  0  0  0  0
  -28.3885  -32.6833   25.0328 H   0  0  0  0  0  0
  -28.0716  -31.8460   26.5443 H   0  0  0  0  0  0
  -28.2589  -38.0112   24.7498 H   0  0  0  0  0  0
  -28.1078  -36.2630   24.6292 H   0  0  0  0  0  0
  -27.2300  -37.1432   25.8865 H   0  0  0  0  0  0
  -20.9395  -29.8792   21.6839 H   0  0  0  0  0  0
  -26.0178  -38.2832   24.1378 H   0  0  0  0  0  0
  -28.6275  -21.7821   15.7665 H   0  0  0  0  0  0
  -30.3348  -21.5480   16.0890 H   0  0  0  0  0  0
  -30.1179  -23.5237   14.7613 H   0  0  0  0  0  0
  -30.6963  -23.9713   16.3522 H   0  0  0  0  0  0
  -28.0601  -25.3996   17.8886 H   0  0  0  0  0  0
  -27.8982  -24.1957   15.2605 H   0  0  0  0  0  0
  -26.3869  -23.1040   16.7244 H   0  0  0  0  0  0
  -25.9463  -24.8037   16.7094 H   0  0  0  0  0  0
  -26.0109  -23.9116   18.2249 H   0  0  0  0  0  0
  -30.6757  -25.6466   14.2580 H   0  0  0  0  0  0
  -29.8337  -27.1374   13.9194 H   0  0  0  0  0  0
  -29.1128  -25.6057   13.4405 H   0  0  0  0  0  0
  -27.1680  -26.9491   16.4562 H   0  0  0  0  0  0
  -26.9938  -26.4968   14.7625 H   0  0  0  0  0  0
  -27.9406  -27.9074   15.2111 H   0  0  0  0  0  0
  -31.3504  -18.6297   22.1904 H   0  0  0  0  0  0
  -31.7420  -16.9308   22.3289 H   0  0  0  0  0  0
  -30.2058  -17.5299   22.9534 H   0  0  0  0  0  0
  -28.2306  -24.7565   21.5475 H   0  0  0  0  0  0
  -26.8688  -24.6713   20.5199 H   0  0  0  0  0  0
  -28.2774  -18.2688   21.0842 H   0  0  0  0  0  0
  -28.7951  -18.4219   19.4532 H   0  0  0  0  0  0
  -29.6200  -26.4373   16.3398 H   0  0  0  0  0  0
  -31.0375  -17.4854   20.0114 H   0  0  0  0  0  0
  -29.4011  -20.1782   21.8037 H   0  0  0  0  0  0
  -28.8800  -15.7014   20.9427 H   0  0  0  0  0  0
  -30.0618  -20.0478   17.0674 H   0  0  0  0  0  0
  1 25  1  0  0  0
  1 30  2  0  0  0
  1 90  1  0  0  0
  2  3  1  0  0  0
  2 25  1  0  0  0
  2 92  1  0  0  0
  2 93  1  0  0  0
  3  4  1  0  0  0
  3 94  1  0  0  0
  3 95  1  0  0  0
  4  5  1  0  0  0
  4 96  1  0  0  0
  4 97  1  0  0  0
  5  6  1  0  0  0
  5 26  1  0  0  0
  5 98  1  0  0  0
  6 25  1  0  0  0
  6 99  1  0  0  0
  6100  1  0  0  0
  7  8  2  0  0  0
  7 26  1  0  0  0
  7 29  1  0  0  0
  8  9  1  0  0  0
  8 22  1  0  0  0
  9 10  1  0  0  0
  9 27  2  0  0  0
 10 11  2  0  0  0
 10 15  1  0  0  0
 11 12  1  0  0  0
 11101  1  0  0  0
 12 13  2  0  0  0
 12102  1  0  0  0
 13 14  1  0  0  0
 13 31  1  0  0  0
 14 15  2  0  0  0
 14103  1  0  0  0
 15104  1  0  0  0
 16 17  2  0  0  0
 16 21  1  0  0  0
 16 31  1  0  0  0
 17 18  1  0  0  0
 17105  1  0  0  0
 18 19  2  0  0  0
 18106  1  0  0  0
 19 20  1  0  0  0
 19 24  1  0  0  0
 20 21  2  0  0  0
 20107  1  0  0  0
 21 23  1  0  0  0
 22 28  1  0  0  0
 22 32  2  0  0  0
 26 27  1  0  0  0
 28108  1  0  0  0
 28109  1  0  0  0
 29110  1  0  0  0
 29111  1  0  0  0
 33 34  1  0  0  0
 33 66  1  0  0  0
 33 70  2  0  0  0
 34 36  1  0  0  0
 34 59  1  0  0  0
 34112  1  0  0  0
 35 44  2  0  0  0
 35 45  1  0  0  0
 35 68  1  0  0  0
 36 56  1  0  0  0
 36113  1  0  0  0
 37 39  1  0  0  0
 37 47  1  0  0  0
 37 66  1  0  0  0
 37114  1  0  0  0
 38 43  2  0  0  0
 38 46  1  0  0  0
 38 47  1  0  0  0
 39 64  1  0  0  0
 39 67  2  0  0  0
 40 52  1  0  0  0
 40 53  2  0  0  0
 40 58  1  0  0  0
 41115  1  0  0  0
 41116  1  0  0  0
 41117  1  0  0  0
 41 48  1  0  0  0
 42 43  1  0  0  0
 42 66  1  0  0  0
 42118  1  0  0  0
 42119  1  0  0  0
 43 44  1  0  0  0
 44120  1  0  0  0
 45 46  2  0  0  0
 45121  1  0  0  0
 46122  1  0  0  0
 47123  1  0  0  0
 47124  1  0  0  0
 48 56  1  0  0  0
 48 65  1  0  0  0
 48125  1  0  0  0
 49 50  1  0  0  0
 49 53  1  0  0  0
 49 64  1  0  0  0
 49126  1  0  0  0
 50 51  1  0  0  0
 50127  1  0  0  0
 50128  1  0  0  0
 51 52  1  0  0  0
 51129  1  0  0  0
 51130  1  0  0  0
 52131  1  0  0  0
 52132  1  0  0  0
 53 54  1  0  0  0
 54 55  2  0  0  0
 54133  1  0  0  0
 55 57  1  0  0  0
 55134  1  0  0  0
 56 69  2  0  0  0
 57 58  2  0  0  0
 57135  1  0  0  0
 58136  1  0  0  0
 59 60  1  0  0  0
 59 61  1  0  0  0
 59 62  1  0  0  0
 60137  1  0  0  0
 60138  1  0  0  0
 60139  1  0  0  0
 61140  1  0  0  0
 61141  1  0  0  0
 61142  1  0  0  0
 62143  1  0  0  0
 62144  1  0  0  0
 62145  1  0  0  0
 63 65  1  0  0  0
 63146  1  0  0  0
 63147  1  0  0  0
 63148  1  0  0  0
 64149  1  0  0  0
 65150  1  0  0  0
 68 84  1  0  0  0
 71 72  1  0  0  0
 71 73  2  0  0  0
 71 76  1  0  0  0
 72 74  2  0  0  0
 72 78  1  0  0  0
 73 75  1  0  0  0
 73 91  1  0  0  0
 74 84  1  0  0  0
 74 88  1  0  0  0
 75 88  2  0  0  0
 75 89  1  0  0  0
 76 77  1  0  0  0
 76151  1  0  0  0
 76152  1  0  0  0
 77153  1  0  0  0
 77154  1  0  0  0
 77 79  1  0  0  0
 78 79  1  0  0  0
 78 80  1  0  0  0
 78155  1  0  0  0
 79 86  1  0  0  0
 79156  1  0  0  0
 80157  1  0  0  0
 80158  1  0  0  0
 80159  1  0  0  0
 81160  1  0  0  0
 81161  1  0  0  0
 81162  1  0  0  0
 81 86  1  0  0  0
 82 86  1  0  0  0
 82163  1  0  0  0
 82164  1  0  0  0
 82165  1  0  0  0
 83166  1  0  0  0
 83167  1  0  0  0
 83168  1  0  0  0
 83 87  1  0  0  0
 84169  1  0  0  0
 84170  1  0  0  0
 85 87  1  0  0  0
 85 89  1  0  0  0
 85171  1  0  0  0
 85172  1  0  0  0
 86173  1  0  0  0
 87 90  1  0  0  0
 87174  1  0  0  0
 89175  1  0  0  0
 90176  1  0  0  0
 91177  1  0  0  0
M  ISO  4   1 100  68 101  84 101  90 100
M  END
> <chiral flag>
0

> <version>
0

> <s_m_source_file>
/data/baiqing/PycharmProjects/Reinvent-master-3.2/result/LINK_invent/BTK/process_docking_weight1_custom_sum_contain_oxygen_bond_distance_aromatic_linkinvent_7_9_3/rearranged_h_0146.sdf

> <i_m_source_file_index>
67

> <r_mmod_Potential_Energy-OPLS-2005>
24.56520652771

> <r_mmod_Stretch_Energy-OPLS-2005>
148.751373291016

> <r_mmod_Bend_Energy-OPLS-2005>
197.688232421875

> <r_mmod_Torsional_Energy-OPLS-2005>
262.065338134766

> <r_mmod_Improper_Torsional_Energy-OPLS-2005>
7.5266261100769

> <r_mmod_Van_der_Waal_Energy-OPLS-2005>
155.991836547852

> <r_mmod_Electrostatic_Energy-OPLS-2005>
-601.112548828125

> <r_mmod_Solvation_Energy-OPLS-2005>
-244.239852905273

> <b_mmod_Minimization_Converged-OPLS-2005>
0

> <r_mmod_RMS_Derivative-OPLS-2005>
2.34557890892029

$$$$
67
                    3D
 Structure written by MMmdl.
167177  0  0  1  0            999 V2000
  -30.5833  -14.8167   20.4368 C   0  0  0  0  0  0
  -30.4366  -12.4919   19.4960 C   0  0  0  0  0  0
  -29.5193  -12.5115   18.2517 C   0  0  0  0  0  0
  -28.0467  -12.3175   18.6604 C   0  0  0  0  0  0
  -27.6366  -13.2316   19.8440 C   0  0  2  0  0  0
  -28.6781  -13.2129   20.9836 C   0  0  0  0  0  0
  -25.2500  -13.8177   20.5705 C   0  0  0  0  0  0
  -24.1790  -13.0425   20.9206 C   0  0  0  0  0  0
  -24.6387  -11.6905   20.8744 C   0  0  0  0  0  0
  -23.9065  -10.4286   21.0411 C   0  0  0  0  0  0
  -24.3617   -9.4201   21.9188 C   0  0  0  0  0  0
  -23.6292   -8.2236   22.0755 C   0  0  0  0  0  0
  -22.4273   -8.0277   21.3545 C   0  0  0  0  0  0
  -21.9912   -9.0250   20.4646 C   0  0  0  0  0  0
  -22.7240  -10.2127   20.3058 C   0  0  0  0  0  0
  -21.6850   -6.0732   22.5280 C   0  0  0  0  0  0
  -21.4011   -6.5638   23.8212 C   0  0  0  0  0  0
  -21.3659   -5.6792   24.9175 C   0  0  0  0  0  0
  -21.6046   -4.3054   24.7227 C   0  0  0  0  0  0
  -21.8819   -3.8145   23.4347 C   0  0  0  0  0  0
  -21.9191   -4.6961   22.3403 C   0  0  0  0  0  0
  -22.7813  -13.5213   21.1869 C   0  0  0  0  0  0
  -22.1661   -4.2148   21.0980 F   0  0  0  0  0  0
  -21.5630   -3.4538   25.7738 F   0  0  0  0  0  0
  -29.9817  -13.5694   20.4119 N   0  0  0  0  0  0
  -26.2916  -12.9382   20.3257 N   0  0  0  0  0  0
  -25.9317  -11.6527   20.5742 N   0  0  0  0  0  0
  -22.0458  -12.8202   22.0424 N   0  0  0  0  0  0
  -25.4200  -15.1900   20.4156 N   0  0  0  0  0  0
  -31.7671  -14.8895   20.0924 O   0  0  0  0  0  0
  -21.6636   -6.8874   21.4242 O   0  0  0  0  0  0
  -22.3499  -14.5520   20.6720 O   0  0  0  0  0  0
  -24.6356  -31.8506   23.1935 C   0  0  0  0  0  0
  -25.9160  -32.4728   23.8299 C   0  0  1  0  0  0
  -27.2198  -27.2188   20.1391 C   0  0  0  0  0  0
  -25.5936  -33.8528   24.2227 N   0  0  0  0  0  0
  -23.4344  -30.4717   21.5375 C   0  0  2  0  0  0
  -24.8820  -28.9108   20.1081 C   0  0  0  0  0  0
  -22.7524  -29.4580   22.4889 C   0  0  0  0  0  0
  -18.0296  -28.1392   22.8480 C   0  0  0  0  0  0
  -24.1491  -36.7274   23.2642 C   0  0  0  0  0  0
  -25.9830  -30.7519   21.3767 C   0  0  0  0  0  0
  -26.0556  -29.3705   20.7190 C   0  0  0  0  0  0
  -27.2272  -28.5393   20.7172 C   0  0  0  0  0  0
  -26.0217  -26.8363   19.4966 C   0  0  0  0  0  0
  -24.8736  -27.6548   19.4825 C   0  0  0  0  0  0
  -23.6542  -29.8017   20.1553 C   0  0  0  0  0  0
  -25.4117  -36.3049   24.0324 C   0  0  1  0  0  0
  -20.5905  -28.3701   23.1260 C   0  0  2  0  0  0
  -20.6782  -26.9411   22.5409 C   0  0  0  0  0  0
  -19.5762  -26.6381   21.5210 C   0  0  0  0  0  0
  -18.1941  -26.7932   22.1620 C   0  0  0  0  0  0
  -19.1553  -28.8863   23.2865 C   0  0  0  0  0  0
  -18.9475  -30.1463   23.8882 C   0  0  0  0  0  0
  -17.6474  -30.6587   24.0558 C   0  0  0  0  0  0
  -25.9061  -34.9423   23.5084 C   0  0  0  0  0  0
  -16.5364  -29.9082   23.6336 C   0  0  0  0  0  0
  -16.7282  -28.6505   23.0354 C   0  0  0  0  0  0
  -26.4507  -31.6571   25.0713 C   0  0  0  0  0  0
  -25.3717  -31.3741   26.1431 C   0  0  0  0  0  0
  -27.0347  -30.2975   24.6222 C   0  0  0  0  0  0
  -27.6046  -32.4324   25.7495 C   0  0  0  0  0  0
  -27.5575  -37.1792   24.8464 C   0  0  0  0  0  0
  -21.4227  -29.3039   22.3640 N   0  0  0  0  0  0
  -26.4284  -37.3757   23.9408 N   0  0  0  0  0  0
  -24.7040  -31.0440   22.0925 N   0  0  0  0  0  0
  -23.4205  -28.8131   23.3012 O   0  0  0  0  0  0
  -28.3054  -26.2994   20.2098 O   0  0  0  0  0  0
  -26.5641  -34.8910   22.4656 O   0  0  0  0  0  0
  -23.5495  -32.1347   23.7209 O   0  0  0  0  0  0
  -28.7596  -21.3659   19.2338 C   0  0  0  0  0  0
  -29.5520  -19.1474   20.1553 C   0  0  0  0  0  0
  -28.9664  -19.9452   19.1029 C   0  0  0  0  0  0
  -29.8634  -19.9544   21.2978 C   0  0  0  0  0  0
  -29.1287  -22.0858   20.3942 C   0  0  0  0  0  0
  -31.8024  -19.9176   23.0673 C   0  0  0  0  0  0
  -31.8051  -18.5665   22.4064 C   0  0  0  0  0  0
  -28.8537  -16.6070   19.6496 C   0  0  0  0  0  0
  -29.9633  -17.5836   19.9557 C   0  0  2  0  0  0
  -30.5113  -19.3507   22.5115 C   0  0  0  0  0  0
  -29.7790  -16.1629   20.7516 C   0  0  2  0  0  0
  -28.2966  -20.8201   15.6730 C   0  0  0  0  0  0
  -28.5866  -19.3255   17.7573 C   0  0  0  0  0  0
  -29.2100  -23.7020   20.5174 C   0  0  0  0  0  0
  -29.2612  -19.9987   16.5434 C   0  0  0  0  0  0
  -28.0769  -24.7955   20.0699 C   0  0  0  0  0  0
  -29.6531  -21.3215   21.4040 N   0  0  0  0  0  0
  -31.4774  -12.6166   19.1931 H   0  0  0  0  0  0
  -30.3885  -11.5236   19.9965 H   0  0  0  0  0  0
  -29.8184  -11.7323   17.5495 H   0  0  0  0  0  0
  -29.6342  -13.4601   17.7249 H   0  0  0  0  0  0
  -27.9194  -11.2714   18.9424 H   0  0  0  0  0  0
  -27.3898  -12.4836   17.8059 H   0  0  0  0  0  0
  -27.6107  -14.2395   19.4365 H   0  0  0  0  0  0
  -28.7232  -12.2303   21.4557 H   0  0  0  0  0  0
  -28.3969  -13.9181   21.7668 H   0  0  0  0  0  0
  -25.2761   -9.5675   22.4762 H   0  0  0  0  0  0
  -23.9998   -7.4628   22.7475 H   0  0  0  0  0  0
  -21.0841   -8.8769   19.8950 H   0  0  0  0  0  0
  -22.3703  -10.9666   19.6164 H   0  0  0  0  0  0
  -21.2003   -7.6146   23.9715 H   0  0  0  0  0  0
  -21.1482   -6.0522   25.9077 H   0  0  0  0  0  0
  -22.0600   -2.7609   23.2847 H   0  0  0  0  0  0
  -22.4069  -11.9859   22.4806 H   0  0  0  0  0  0
  -21.1077  -13.1227   22.2635 H   0  0  0  0  0  0
  -24.6579  -15.8476   20.5390 H   0  0  0  0  0  0
  -26.2805  -15.6292   20.1168 H   0  0  0  0  0  0
  -26.7224  -32.5360   23.1034 H   0  0  0  0  0  0
  -25.0067  -33.9656   25.0361 H   0  0  0  0  0  0
  -22.7328  -31.2953   21.3870 H   0  0  0  0  0  0
  -23.3752  -35.9608   23.3296 H   0  0  0  0  0  0
  -24.3580  -36.8908   22.2059 H   0  0  0  0  0  0
  -23.7251  -37.6476   23.6672 H   0  0  0  0  0  0
  -26.1250  -31.5087   20.6042 H   0  0  0  0  0  0
  -26.8602  -30.8036   22.0104 H   0  0  0  0  0  0
  -28.1249  -28.8868   21.2089 H   0  0  0  0  0  0
  -25.9430  -25.8736   19.0144 H   0  0  0  0  0  0
  -23.9764  -27.2973   18.9961 H   0  0  0  0  0  0
  -23.7791  -30.5756   19.3974 H   0  0  0  0  0  0
  -22.7720  -29.2358   19.8520 H   0  0  0  0  0  0
  -25.1300  -36.1883   25.0816 H   0  0  0  0  0  0
  -21.0006  -28.3275   24.1378 H   0  0  0  0  0  0
  -20.5678  -26.2306   23.3613 H   0  0  0  0  0  0
  -21.6646  -26.7424   22.1204 H   0  0  0  0  0  0
  -19.6922  -25.6292   21.1244 H   0  0  0  0  0  0
  -19.6704  -27.3187   20.6737 H   0  0  0  0  0  0
  -17.4213  -26.6687   21.4021 H   0  0  0  0  0  0
  -18.0333  -26.0072   22.9016 H   0  0  0  0  0  0
  -19.7950  -30.7286   24.2244 H   0  0  0  0  0  0
  -17.5025  -31.6264   24.5163 H   0  0  0  0  0  0
  -15.5367  -30.2980   23.7663 H   0  0  0  0  0  0
  -15.8684  -28.0818   22.7076 H   0  0  0  0  0  0
  -24.5917  -30.7049   25.7777 H   0  0  0  0  0  0
  -24.8881  -32.2914   26.4796 H   0  0  0  0  0  0
  -25.8040  -30.8981   27.0242 H   0  0  0  0  0  0
  -26.2929  -29.6725   24.1237 H   0  0  0  0  0  0
  -27.3998  -29.7241   25.4753 H   0  0  0  0  0  0
  -27.8821  -30.4235   23.9480 H   0  0  0  0  0  0
  -27.2641  -33.3644   26.2020 H   0  0  0  0  0  0
  -28.3886  -32.6854   25.0343 H   0  0  0  0  0  0
  -28.0673  -31.8483   26.5459 H   0  0  0  0  0  0
  -28.2586  -38.0095   24.7502 H   0  0  0  0  0  0
  -28.1078  -36.2624   24.6293 H   0  0  0  0  0  0
  -27.2297  -37.1447   25.8869 H   0  0  0  0  0  0
  -20.9418  -29.8742   21.6828 H   0  0  0  0  0  0
  -26.0158  -38.2825   24.1412 H   0  0  0  0  0  0
  -28.3693  -21.9250   18.3960 H   0  0  0  0  0  0
  -32.2722  -20.7372   22.5263 H   0  0  0  0  0  0
  -31.9182  -19.9409   24.1487 H   0  0  0  0  0  0
  -31.9284  -17.7015   23.0544 H   0  0  0  0  0  0
  -32.2810  -18.4931   21.4305 H   0  0  0  0  0  0
  -28.9086  -16.0873   18.6942 H   0  0  0  0  0  0
  -27.8460  -16.8715   19.9607 H   0  0  0  0  0  0
  -30.8053  -17.5847   19.2655 H   0  0  0  0  0  0
  -29.7647  -18.9951   23.2192 H   0  0  0  0  0  0
  -29.4178  -16.2443   21.7745 H   0  0  0  0  0  0
  -28.8272  -21.2877   14.8428 H   0  0  0  0  0  0
  -27.8113  -21.6140   16.2397 H   0  0  0  0  0  0
  -27.5128  -20.1894   15.2512 H   0  0  0  0  0  0
  -27.5004  -19.3523   17.6603 H   0  0  0  0  0  0
  -28.8474  -18.2729   17.7227 H   0  0  0  0  0  0
  -30.1218  -23.9745   19.9860 H   0  0  0  0  0  0
  -29.4333  -23.9099   21.5634 H   0  0  0  0  0  0
  -30.1074  -20.6096   16.8622 H   0  0  0  0  0  0
  -29.6915  -19.2195   15.9128 H   0  0  0  0  0  0
  -27.1705  -24.5496   20.6243 H   0  0  0  0  0  0
  -27.8456  -24.6043   19.0215 H   0  0  0  0  0  0
  1 25  1  0  0  0
  1 30  2  0  0  0
  1 81  1  0  0  0
  2  3  1  0  0  0
  2 25  1  0  0  0
  2 88  1  0  0  0
  2 89  1  0  0  0
  3  4  1  0  0  0
  3 90  1  0  0  0
  3 91  1  0  0  0
  4  5  1  0  0  0
  4 92  1  0  0  0
  4 93  1  0  0  0
  5  6  1  0  0  0
  5 26  1  0  0  0
  5 94  1  0  0  0
  6 25  1  0  0  0
  6 95  1  0  0  0
  6 96  1  0  0  0
  7  8  2  0  0  0
  7 26  1  0  0  0
  7 29  1  0  0  0
  8  9  1  0  0  0
  8 22  1  0  0  0
  9 10  1  0  0  0
  9 27  2  0  0  0
 10 11  2  0  0  0
 10 15  1  0  0  0
 11 12  1  0  0  0
 11 97  1  0  0  0
 12 13  2  0  0  0
 12 98  1  0  0  0
 13 14  1  0  0  0
 13 31  1  0  0  0
 14 15  2  0  0  0
 14 99  1  0  0  0
 15100  1  0  0  0
 16 17  2  0  0  0
 16 21  1  0  0  0
 16 31  1  0  0  0
 17 18  1  0  0  0
 17101  1  0  0  0
 18 19  2  0  0  0
 18102  1  0  0  0
 19 20  1  0  0  0
 19 24  1  0  0  0
 20 21  2  0  0  0
 20103  1  0  0  0
 21 23  1  0  0  0
 22 28  1  0  0  0
 22 32  2  0  0  0
 26 27  1  0  0  0
 28104  1  0  0  0
 28105  1  0  0  0
 29106  1  0  0  0
 29107  1  0  0  0
 33 34  1  0  0  0
 33 66  1  0  0  0
 33 70  2  0  0  0
 34 36  1  0  0  0
 34 59  1  0  0  0
 34108  1  0  0  0
 35 44  2  0  0  0
 35 45  1  0  0  0
 35 68  1  0  0  0
 36 56  1  0  0  0
 36109  1  0  0  0
 37 39  1  0  0  0
 37 47  1  0  0  0
 37 66  1  0  0  0
 37110  1  0  0  0
 38 43  2  0  0  0
 38 46  1  0  0  0
 38 47  1  0  0  0
 39 64  1  0  0  0
 39 67  2  0  0  0
 40 52  1  0  0  0
 40 53  2  0  0  0
 40 58  1  0  0  0
 41111  1  0  0  0
 41112  1  0  0  0
 41113  1  0  0  0
 41 48  1  0  0  0
 42 43  1  0  0  0
 42 66  1  0  0  0
 42114  1  0  0  0
 42115  1  0  0  0
 43 44  1  0  0  0
 44116  1  0  0  0
 45 46  2  0  0  0
 45117  1  0  0  0
 46118  1  0  0  0
 47119  1  0  0  0
 47120  1  0  0  0
 48 56  1  0  0  0
 48 65  1  0  0  0
 48121  1  0  0  0
 49 50  1  0  0  0
 49 53  1  0  0  0
 49 64  1  0  0  0
 49122  1  0  0  0
 50 51  1  0  0  0
 50123  1  0  0  0
 50124  1  0  0  0
 51 52  1  0  0  0
 51125  1  0  0  0
 51126  1  0  0  0
 52127  1  0  0  0
 52128  1  0  0  0
 53 54  1  0  0  0
 54 55  2  0  0  0
 54129  1  0  0  0
 55 57  1  0  0  0
 55130  1  0  0  0
 56 69  2  0  0  0
 57 58  2  0  0  0
 57131  1  0  0  0
 58132  1  0  0  0
 59 60  1  0  0  0
 59 61  1  0  0  0
 59 62  1  0  0  0
 60133  1  0  0  0
 60134  1  0  0  0
 60135  1  0  0  0
 61136  1  0  0  0
 61137  1  0  0  0
 61138  1  0  0  0
 62139  1  0  0  0
 62140  1  0  0  0
 62141  1  0  0  0
 63 65  1  0  0  0
 63142  1  0  0  0
 63143  1  0  0  0
 63144  1  0  0  0
 64145  1  0  0  0
 65146  1  0  0  0
 68 86  1  0  0  0
 71 73  2  0  0  0
 71 75  1  0  0  0
 71147  1  0  0  0
 72 73  1  0  0  0
 72 74  2  0  0  0
 72 79  1  0  0  0
 73 83  1  0  0  0
 74 87  1  0  0  0
 74 80  1  0  0  0
 75 84  1  0  0  0
 75 87  2  0  0  0
 76 77  1  0  0  0
 76 80  1  0  0  0
 76148  1  0  0  0
 76149  1  0  0  0
 77 80  1  0  0  0
 77150  1  0  0  0
 77151  1  0  0  0
 78 79  1  0  0  0
 78 81  1  0  0  0
 78152  1  0  0  0
 78153  1  0  0  0
 79 81  1  0  0  0
 79154  1  0  0  0
 80155  1  0  0  0
 81156  1  0  0  0
 82 85  1  0  0  0
 82157  1  0  0  0
 82158  1  0  0  0
 82159  1  0  0  0
 83 85  1  0  0  0
 83160  1  0  0  0
 83161  1  0  0  0
 84 86  1  0  0  0
 84162  1  0  0  0
 84163  1  0  0  0
 85164  1  0  0  0
 85165  1  0  0  0
 86166  1  0  0  0
 86167  1  0  0  0
M  ISO  4   1 100  68 101  81 100  86 101
M  END
> <chiral flag>
0

> <version>
0

> <s_m_source_file>
/data/baiqing/PycharmProjects/Reinvent-master-3.2/result/LINK_invent/BTK/process_docking_weight1_custom_sum_contain_oxygen_bond_distance_aromatic_linkinvent_7_9_3/rearranged_h_0146.sdf

> <i_m_source_file_index>
68

> <r_mmod_Potential_Energy-OPLS-2005>
246.303833007812

> <r_mmod_Stretch_Energy-OPLS-2005>
173.338821411133

> <r_mmod_Bend_Energy-OPLS-2005>
206.031112670898

> <r_mmod_Torsional_Energy-OPLS-2005>
245.763565063477

> <r_mmod_Improper_Torsional_Energy-OPLS-2005>
4.64660263061523

> <r_mmod_Van_der_Waal_Energy-OPLS-2005>
128.641189575195

> <r_mmod_Electrostatic_Energy-OPLS-2005>
-422.691253662109

> <r_mmod_Solvation_Energy-OPLS-2005>
-205.467666625977

> <b_mmod_Minimization_Converged-OPLS-2005>
0

> <r_mmod_RMS_Derivative-OPLS-2005>
0.970697939395905

$$$$
68
                    3D
 Structure written by MMmdl.
161170  0  0  1  0            999 V2000
  -30.6258  -14.7397   20.3378 C   0  0  0  0  0  0
  -30.4479  -12.4041   19.4755 C   0  0  0  0  0  0
  -29.5075  -12.2673   18.2536 C   0  0  0  0  0  0
  -28.0137  -12.2809   18.6470 C   0  0  0  0  0  0
  -27.6388  -13.2143   19.8338 C   0  0  2  0  0  0
  -28.6995  -13.1980   20.9501 C   0  0  0  0  0  0
  -25.2515  -13.8122   20.5765 C   0  0  0  0  0  0
  -24.1781  -13.0390   20.9230 C   0  0  0  0  0  0
  -24.6368  -11.6880   20.8787 C   0  0  0  0  0  0
  -23.9047  -10.4264   21.0422 C   0  0  0  0  0  0
  -24.3605   -9.4179   21.9190 C   0  0  0  0  0  0
  -23.6286   -8.2215   22.0752 C   0  0  0  0  0  0
  -22.4265   -8.0260   21.3547 C   0  0  0  0  0  0
  -21.9903   -9.0228   20.4641 C   0  0  0  0  0  0
  -22.7227  -10.2111   20.3058 C   0  0  0  0  0  0
  -21.6842   -6.0722   22.5277 C   0  0  0  0  0  0
  -21.4002   -6.5627   23.8209 C   0  0  0  0  0  0
  -21.3663   -5.6783   24.9173 C   0  0  0  0  0  0
  -21.6056   -4.3047   24.7225 C   0  0  0  0  0  0
  -21.8822   -3.8136   23.4345 C   0  0  0  0  0  0
  -21.9192   -4.6952   22.3401 C   0  0  0  0  0  0
  -22.7808  -13.5189   21.1871 C   0  0  0  0  0  0
  -22.1662   -4.2140   21.0977 F   0  0  0  0  0  0
  -21.5640   -3.4533   25.7740 F   0  0  0  0  0  0
  -29.9832  -13.5227   20.3197 N   0  0  0  0  0  0
  -26.2946  -12.9328   20.3334 N   0  0  0  0  0  0
  -25.9304  -11.6495   20.5862 N   0  0  0  0  0  0
  -22.0457  -12.8180   22.0433 N   0  0  0  0  0  0
  -25.4190  -15.1826   20.4284 N   0  0  0  0  0  0
  -31.8570  -14.7779   20.2687 O   0  0  0  0  0  0
  -21.6624   -6.8863   21.4241 O   0  0  0  0  0  0
  -22.3494  -14.5492   20.6713 O   0  0  0  0  0  0
  -24.6237  -31.8601   23.2034 C   0  0  0  0  0  0
  -25.9096  -32.4776   23.8352 C   0  0  1  0  0  0
  -27.2269  -27.3275   20.1293 C   0  0  0  0  0  0
  -25.5923  -33.8577   24.2282 N   0  0  0  0  0  0
  -23.4167  -30.4840   21.5457 C   0  0  2  0  0  0
  -24.8650  -28.9405   20.1118 C   0  0  0  0  0  0
  -22.7453  -29.4636   22.4946 C   0  0  0  0  0  0
  -18.0293  -28.1371   22.8478 C   0  0  0  0  0  0
  -24.1488  -36.7290   23.2633 C   0  0  0  0  0  0
  -25.9556  -30.7948   21.3732 C   0  0  0  0  0  0
  -26.0310  -29.4220   20.7196 C   0  0  0  0  0  0
  -27.2132  -28.6268   20.7206 C   0  0  0  0  0  0
  -26.0409  -26.9024   19.4847 C   0  0  0  0  0  0
  -24.8712  -27.6852   19.4857 C   0  0  0  0  0  0
  -23.6314  -29.8179   20.1610 C   0  0  0  0  0  0
  -25.4111  -36.3082   24.0325 C   0  0  1  0  0  0
  -20.5885  -28.3687   23.1295 C   0  0  2  0  0  0
  -20.6794  -26.9416   22.5409 C   0  0  0  0  0  0
  -19.5780  -26.6378   21.5209 C   0  0  0  0  0  0
  -18.1951  -26.7918   22.1604 C   0  0  0  0  0  0
  -19.1541  -28.8839   23.2882 C   0  0  0  0  0  0
  -18.9466  -30.1438   23.8899 C   0  0  0  0  0  0
  -17.6470  -30.6573   24.0558 C   0  0  0  0  0  0
  -25.9051  -34.9449   23.5108 C   0  0  0  0  0  0
  -16.5364  -29.9070   23.6323 C   0  0  0  0  0  0
  -16.7280  -28.6486   23.0343 C   0  0  0  0  0  0
  -26.4491  -31.6584   25.0715 C   0  0  0  0  0  0
  -25.3730  -31.3717   26.1446 C   0  0  0  0  0  0
  -27.0345  -30.3015   24.6160 C   0  0  0  0  0  0
  -27.6046  -32.4316   25.7496 C   0  0  0  0  0  0
  -27.5576  -37.1808   24.8461 C   0  0  0  0  0  0
  -21.4167  -29.3063   22.3701 N   0  0  0  0  0  0
  -26.4288  -37.3777   23.9403 N   0  0  0  0  0  0
  -24.6840  -31.0628   22.0979 N   0  0  0  0  0  0
  -23.4188  -28.8176   23.3017 O   0  0  0  0  0  0
  -28.3471  -26.4853   20.2096 O   0  0  0  0  0  0
  -26.5618  -34.8916   22.4674 O   0  0  0  0  0  0
  -23.5407  -32.1390   23.7373 O   0  0  0  0  0  0
  -30.7493  -17.8429   21.2458 C   0  0  0  0  0  0
  -30.7231  -19.2570   21.4704 C   0  0  0  0  0  0
  -28.7887  -19.4870   20.0739 C   0  0  0  0  0  0
  -28.8189  -18.0852   19.8322 C   0  0  0  0  0  0
  -29.8133  -17.2161   20.3812 C   0  0  0  0  0  0
  -29.7653  -20.1247   20.8712 C   0  0  0  0  0  0
  -27.7749  -17.5057   18.9045 C   0  0  0  0  0  0
  -28.3584  -16.4649   17.9430 C   0  0  0  0  0  0
  -29.7206  -15.8699   18.3801 C   0  0  1  0  0  0
  -30.8878  -16.5984   17.6694 C   0  0  0  0  0  0
  -29.1898  -24.0060   20.6634 C   0  0  0  0  0  0
  -28.1366  -25.0289   20.0579 C   0  0  0  0  0  0
  -28.9121  -22.4529   20.4300 C   0  0  0  0  0  0
  -29.9012  -15.8358   19.8581 N   0  0  0  0  0  0
  -29.8383  -21.5189   21.0781 O   0  0  0  0  0  0
  -31.4772  -12.5411   19.1400 H   0  0  0  0  0  0
  -30.4456  -11.4843   20.0618 H   0  0  0  0  0  0
  -29.7173  -11.3086   17.7768 H   0  0  0  0  0  0
  -29.7253  -12.9712   17.4594 H   0  0  0  0  0  0
  -27.7689  -11.2517   18.9108 H   0  0  0  0  0  0
  -27.3963  -12.5113   17.7778 H   0  0  0  0  0  0
  -27.6169  -14.2233   19.4351 H   0  0  0  0  0  0
  -28.7410  -12.2250   21.4410 H   0  0  0  0  0  0
  -28.4575  -13.9327   21.7199 H   0  0  0  0  0  0
  -25.2752   -9.5654   22.4757 H   0  0  0  0  0  0
  -23.9998   -7.4601   22.7463 H   0  0  0  0  0  0
  -21.0840   -8.8740   19.8938 H   0  0  0  0  0  0
  -22.3688  -10.9647   19.6163 H   0  0  0  0  0  0
  -21.1978   -7.6130   23.9712 H   0  0  0  0  0  0
  -21.1490   -6.0509   25.9078 H   0  0  0  0  0  0
  -22.0600   -2.7595   23.2844 H   0  0  0  0  0  0
  -22.4078  -11.9845   22.4827 H   0  0  0  0  0  0
  -21.1074  -13.1203   22.2632 H   0  0  0  0  0  0
  -24.6617  -15.8424   20.5680 H   0  0  0  0  0  0
  -26.2961  -15.6209   20.1840 H   0  0  0  0  0  0
  -26.7159  -32.5449   23.1098 H   0  0  0  0  0  0
  -25.0061  -33.9713   25.0421 H   0  0  0  0  0  0
  -22.7106  -31.3046   21.4030 H   0  0  0  0  0  0
  -23.3744  -35.9631   23.3299 H   0  0  0  0  0  0
  -24.3583  -36.8906   22.2049 H   0  0  0  0  0  0
  -23.7248  -37.6497   23.6652 H   0  0  0  0  0  0
  -26.0825  -31.5566   20.6022 H   0  0  0  0  0  0
  -26.8372  -30.8452   22.0005 H   0  0  0  0  0  0
  -28.1043  -28.9889   21.2137 H   0  0  0  0  0  0
  -25.9876  -25.9470   18.9838 H   0  0  0  0  0  0
  -23.9789  -27.3109   19.0022 H   0  0  0  0  0  0
  -23.7476  -30.5944   19.4041 H   0  0  0  0  0  0
  -22.7526  -29.2447   19.8608 H   0  0  0  0  0  0
  -25.1290  -36.1937   25.0816 H   0  0  0  0  0  0
  -20.9964  -28.3266   24.1422 H   0  0  0  0  0  0
  -20.5702  -26.2303   23.3608 H   0  0  0  0  0  0
  -21.6668  -26.7460   22.1207 H   0  0  0  0  0  0
  -19.6954  -25.6289   21.1241 H   0  0  0  0  0  0
  -19.6722  -27.3191   20.6742 H   0  0  0  0  0  0
  -17.4226  -26.6662   21.3997 H   0  0  0  0  0  0
  -18.0352  -26.0050   22.8993 H   0  0  0  0  0  0
  -19.7949  -30.7244   24.2272 H   0  0  0  0  0  0
  -17.5027  -31.6255   24.5155 H   0  0  0  0  0  0
  -15.5365  -30.2976   23.7639 H   0  0  0  0  0  0
  -15.8678  -28.0812   22.7054 H   0  0  0  0  0  0
  -24.5891  -30.7081   25.7779 H   0  0  0  0  0  0
  -24.8931  -32.2885   26.4884 H   0  0  0  0  0  0
  -25.8048  -30.8884   27.0220 H   0  0  0  0  0  0
  -26.2925  -29.6758   24.1183 H   0  0  0  0  0  0
  -27.4067  -29.7270   25.4656 H   0  0  0  0  0  0
  -27.8782  -30.4318   23.9374 H   0  0  0  0  0  0
  -27.2649  -33.3603   26.2099 H   0  0  0  0  0  0
  -28.3853  -32.6900   25.0327 H   0  0  0  0  0  0
  -28.0727  -31.8429   26.5398 H   0  0  0  0  0  0
  -28.2594  -38.0102   24.7499 H   0  0  0  0  0  0
  -28.1068  -36.2632   24.6294 H   0  0  0  0  0  0
  -27.2295  -37.1469   25.8864 H   0  0  0  0  0  0
  -20.9331  -29.8775   21.6914 H   0  0  0  0  0  0
  -26.0169  -38.2854   24.1389 H   0  0  0  0  0  0
  -31.5489  -17.2629   21.6840 H   0  0  0  0  0  0
  -31.4898  -19.6918   22.0962 H   0  0  0  0  0  0
  -28.0151  -20.0753   19.6024 H   0  0  0  0  0  0
  -27.2656  -18.2901   18.3432 H   0  0  0  0  0  0
  -27.0165  -17.0486   19.5328 H   0  0  0  0  0  0
  -28.4795  -16.9301   16.9633 H   0  0  0  0  0  0
  -27.6194  -15.6824   17.7733 H   0  0  0  0  0  0
  -29.7416  -14.8750   17.9781 H   0  0  0  0  0  0
  -30.9328  -17.6590   17.9193 H   0  0  0  0  0  0
  -30.7881  -16.5281   16.5852 H   0  0  0  0  0  0
  -31.8516  -16.1586   17.9252 H   0  0  0  0  0  0
  -29.2546  -24.1832   21.7370 H   0  0  0  0  0  0
  -30.1763  -24.2446   20.2659 H   0  0  0  0  0  0
  -27.1782  -24.7620   20.5062 H   0  0  0  0  0  0
  -28.0417  -24.8263   18.9911 H   0  0  0  0  0  0
  -28.9212  -22.2632   19.3559 H   0  0  0  0  0  0
  -27.9047  -22.2197   20.7769 H   0  0  0  0  0  0
  1 25  1  0  0  0
  1 30  2  0  0  0
  1 84  1  0  0  0
  2  3  1  0  0  0
  2 25  1  0  0  0
  2 86  1  0  0  0
  2 87  1  0  0  0
  3  4  1  0  0  0
  3 88  1  0  0  0
  3 89  1  0  0  0
  4  5  1  0  0  0
  4 90  1  0  0  0
  4 91  1  0  0  0
  5  6  1  0  0  0
  5 26  1  0  0  0
  5 92  1  0  0  0
  6 25  1  0  0  0
  6 93  1  0  0  0
  6 94  1  0  0  0
  7  8  2  0  0  0
  7 26  1  0  0  0
  7 29  1  0  0  0
  8  9  1  0  0  0
  8 22  1  0  0  0
  9 10  1  0  0  0
  9 27  2  0  0  0
 10 11  2  0  0  0
 10 15  1  0  0  0
 11 12  1  0  0  0
 11 95  1  0  0  0
 12 13  2  0  0  0
 12 96  1  0  0  0
 13 14  1  0  0  0
 13 31  1  0  0  0
 14 15  2  0  0  0
 14 97  1  0  0  0
 15 98  1  0  0  0
 16 17  2  0  0  0
 16 21  1  0  0  0
 16 31  1  0  0  0
 17 18  1  0  0  0
 17 99  1  0  0  0
 18 19  2  0  0  0
 18100  1  0  0  0
 19 20  1  0  0  0
 19 24  1  0  0  0
 20 21  2  0  0  0
 20101  1  0  0  0
 21 23  1  0  0  0
 22 28  1  0  0  0
 22 32  2  0  0  0
 26 27  1  0  0  0
 28102  1  0  0  0
 28103  1  0  0  0
 29104  1  0  0  0
 29105  1  0  0  0
 33 34  1  0  0  0
 33 66  1  0  0  0
 33 70  2  0  0  0
 34 36  1  0  0  0
 34 59  1  0  0  0
 34106  1  0  0  0
 35 44  2  0  0  0
 35 45  1  0  0  0
 35 68  1  0  0  0
 36 56  1  0  0  0
 36107  1  0  0  0
 37 39  1  0  0  0
 37 47  1  0  0  0
 37 66  1  0  0  0
 37108  1  0  0  0
 38 43  2  0  0  0
 38 46  1  0  0  0
 38 47  1  0  0  0
 39 64  1  0  0  0
 39 67  2  0  0  0
 40 52  1  0  0  0
 40 53  2  0  0  0
 40 58  1  0  0  0
 41109  1  0  0  0
 41110  1  0  0  0
 41111  1  0  0  0
 41 48  1  0  0  0
 42 43  1  0  0  0
 42 66  1  0  0  0
 42112  1  0  0  0
 42113  1  0  0  0
 43 44  1  0  0  0
 44114  1  0  0  0
 45 46  2  0  0  0
 45115  1  0  0  0
 46116  1  0  0  0
 47117  1  0  0  0
 47118  1  0  0  0
 48 56  1  0  0  0
 48 65  1  0  0  0
 48119  1  0  0  0
 49 50  1  0  0  0
 49 53  1  0  0  0
 49 64  1  0  0  0
 49120  1  0  0  0
 50 51  1  0  0  0
 50121  1  0  0  0
 50122  1  0  0  0
 51 52  1  0  0  0
 51123  1  0  0  0
 51124  1  0  0  0
 52125  1  0  0  0
 52126  1  0  0  0
 53 54  1  0  0  0
 54 55  2  0  0  0
 54127  1  0  0  0
 55 57  1  0  0  0
 55128  1  0  0  0
 56 69  2  0  0  0
 57 58  2  0  0  0
 57129  1  0  0  0
 58130  1  0  0  0
 59 60  1  0  0  0
 59 61  1  0  0  0
 59 62  1  0  0  0
 60131  1  0  0  0
 60132  1  0  0  0
 60133  1  0  0  0
 61134  1  0  0  0
 61135  1  0  0  0
 61136  1  0  0  0
 62137  1  0  0  0
 62138  1  0  0  0
 62139  1  0  0  0
 63 65  1  0  0  0
 63140  1  0  0  0
 63141  1  0  0  0
 63142  1  0  0  0
 64143  1  0  0  0
 65144  1  0  0  0
 68 82  1  0  0  0
 71 72  2  0  0  0
 71 75  1  0  0  0
 71145  1  0  0  0
 72 76  1  0  0  0
 72146  1  0  0  0
 73 74  1  0  0  0
 73 76  2  0  0  0
 73147  1  0  0  0
 74 75  2  0  0  0
 74 77  1  0  0  0
 75 84  1  0  0  0
 76 85  1  0  0  0
 77 78  1  0  0  0
 77148  1  0  0  0
 77149  1  0  0  0
 78 79  1  0  0  0
 78150  1  0  0  0
 78151  1  0  0  0
 79 80  1  0  0  0
 79 84  1  0  0  0
 79152  1  0  0  0
 80153  1  0  0  0
 80154  1  0  0  0
 80155  1  0  0  0
 81 82  1  0  0  0
 81 83  1  0  0  0
 81156  1  0  0  0
 81157  1  0  0  0
 82158  1  0  0  0
 82159  1  0  0  0
 83 85  1  0  0  0
 83160  1  0  0  0
 83161  1  0  0  0
M  ISO  4   1 100  68 101  82 101  84 100
M  END
> <chiral flag>
0

> <version>
0

> <s_m_source_file>
/data/baiqing/PycharmProjects/Reinvent-master-3.2/result/LINK_invent/BTK/process_docking_weight1_custom_sum_contain_oxygen_bond_distance_aromatic_linkinvent_7_9_3/rearranged_h_0146.sdf

> <i_m_source_file_index>
69

> <r_mmod_Potential_Energy-OPLS-2005>
376.204010009766

> <r_mmod_Stretch_Energy-OPLS-2005>
88.5396194458008

> <r_mmod_Bend_Energy-OPLS-2005>
159.811111450195

> <r_mmod_Torsional_Energy-OPLS-2005>
334.203918457031

> <r_mmod_Improper_Torsional_Energy-OPLS-2005>
22.5475234985352

> <r_mmod_Van_der_Waal_Energy-OPLS-2005>
157.916076660156

> <r_mmod_Electrostatic_Energy-OPLS-2005>
-280.620574951172

> <r_mmod_Solvation_Energy-OPLS-2005>
-195.048782348633

> <b_mmod_Minimization_Converged-OPLS-2005>
0

> <r_mmod_RMS_Derivative-OPLS-2005>
1.21609890460968

$$$$
69
                    3D
 Structure written by MMmdl.
167176  0  0  1  0            999 V2000
  -30.6688  -14.5140   20.5622 C   0  0  0  0  0  0
  -30.4326  -12.3300   19.4268 C   0  0  0  0  0  0
  -29.4999  -12.5102   18.2098 C   0  0  0  0  0  0
  -28.0209  -12.3630   18.6218 C   0  0  0  0  0  0
  -27.6616  -13.2062   19.8748 C   0  0  2  0  0  0
  -28.7043  -12.9941   20.9960 C   0  0  0  0  0  0
  -25.2596  -13.8155   20.5682 C   0  0  0  0  0  0
  -24.1844  -13.0434   20.9176 C   0  0  0  0  0  0
  -24.6392  -11.6900   20.8738 C   0  0  0  0  0  0
  -23.9055  -10.4285   21.0401 C   0  0  0  0  0  0
  -24.3608   -9.4204   21.9182 C   0  0  0  0  0  0
  -23.6287   -8.2241   22.0753 C   0  0  0  0  0  0
  -22.4275   -8.0278   21.3541 C   0  0  0  0  0  0
  -21.9904   -9.0251   20.4646 C   0  0  0  0  0  0
  -22.7228  -10.2129   20.3048 C   0  0  0  0  0  0
  -21.6850   -6.0734   22.5279 C   0  0  0  0  0  0
  -21.4010   -6.5636   23.8214 C   0  0  0  0  0  0
  -21.3659   -5.6788   24.9178 C   0  0  0  0  0  0
  -21.6048   -4.3052   24.7226 C   0  0  0  0  0  0
  -21.8819   -3.8143   23.4347 C   0  0  0  0  0  0
  -21.9191   -4.6962   22.3404 C   0  0  0  0  0  0
  -22.7865  -13.5239   21.1844 C   0  0  0  0  0  0
  -22.1663   -4.2147   21.0983 F   0  0  0  0  0  0
  -21.5633   -3.4535   25.7738 F   0  0  0  0  0  0
  -30.0309  -13.3157   20.4426 N   0  0  0  0  0  0
  -26.3029  -12.9319   20.3364 N   0  0  0  0  0  0
  -25.9320  -11.6482   20.5765 N   0  0  0  0  0  0
  -22.0499  -12.8236   22.0401 N   0  0  0  0  0  0
  -25.4325  -15.1873   20.4100 N   0  0  0  0  0  0
  -31.8053  -14.7146   20.1246 O   0  0  0  0  0  0
  -21.6636   -6.8877   21.4241 O   0  0  0  0  0  0
  -22.3556  -14.5546   20.6693 O   0  0  0  0  0  0
  -24.6173  -31.8658   23.2093 C   0  0  0  0  0  0
  -25.9055  -32.4815   23.8397 C   0  0  1  0  0  0
  -27.2331  -27.4127   20.1036 C   0  0  0  0  0  0
  -25.5904  -33.8615   24.2336 N   0  0  0  0  0  0
  -23.4076  -30.4881   21.5493 C   0  0  2  0  0  0
  -24.8567  -28.9496   20.1160 C   0  0  0  0  0  0
  -22.7424  -29.4650   22.4985 C   0  0  0  0  0  0
  -18.0271  -28.1379   22.8489 C   0  0  0  0  0  0
  -24.1479  -36.7311   23.2641 C   0  0  0  0  0  0
  -25.9383  -30.8240   21.3668 C   0  0  0  0  0  0
  -26.0174  -29.4547   20.7174 C   0  0  0  0  0  0
  -27.2122  -28.6926   20.7113 C   0  0  0  0  0  0
  -26.0605  -26.9280   19.4931 C   0  0  0  0  0  0
  -24.8733  -27.6852   19.5009 C   0  0  0  0  0  0
  -23.6194  -29.8194   20.1646 C   0  0  0  0  0  0
  -25.4102  -36.3115   24.0345 C   0  0  1  0  0  0
  -20.5862  -28.3670   23.1312 C   0  0  2  0  0  0
  -20.6764  -26.9404   22.5417 C   0  0  0  0  0  0
  -19.5745  -26.6386   21.5213 C   0  0  0  0  0  0
  -18.1921  -26.7926   22.1620 C   0  0  0  0  0  0
  -19.1520  -28.8840   23.2897 C   0  0  0  0  0  0
  -18.9450  -30.1446   23.8908 C   0  0  0  0  0  0
  -17.6454  -30.6585   24.0562 C   0  0  0  0  0  0
  -25.9029  -34.9477   23.5138 C   0  0  0  0  0  0
  -16.5342  -29.9086   23.6325 C   0  0  0  0  0  0
  -16.7263  -28.6502   23.0348 C   0  0  0  0  0  0
  -26.4480  -31.6590   25.0724 C   0  0  0  0  0  0
  -25.3746  -31.3690   26.1471 C   0  0  0  0  0  0
  -27.0318  -30.3033   24.6104 C   0  0  0  0  0  0
  -27.6052  -32.4310   25.7486 C   0  0  0  0  0  0
  -27.5579  -37.1813   24.8471 C   0  0  0  0  0  0
  -21.4150  -29.3034   22.3716 N   0  0  0  0  0  0
  -26.4294  -37.3797   23.9414 N   0  0  0  0  0  0
  -24.6724  -31.0741   22.1004 N   0  0  0  0  0  0
  -23.4181  -28.8200   23.3044 O   0  0  0  0  0  0
  -28.3598  -26.6159   20.0813 O   0  0  0  0  0  0
  -26.5586  -34.8933   22.4697 O   0  0  0  0  0  0
  -23.5357  -32.1420   23.7470 O   0  0  0  0  0  0
  -27.7269  -23.4592   20.3289 C   0  0  0  0  0  0
  -29.8944  -23.5940   21.3802 C   0  0  0  0  0  0
  -29.0136  -21.3792   20.7314 C   0  0  0  0  0  0
  -28.7263  -24.2473   20.9301 C   0  0  0  0  0  0
  -27.8601  -22.0513   20.2202 C   0  0  0  0  0  0
  -30.0530  -22.1796   21.2876 C   0  0  0  0  0  0
  -29.2633  -19.1792   22.1283 C   0  0  0  0  0  0
  -30.1796  -19.2137   19.7922 C   0  0  0  0  0  0
  -29.1749  -17.6332   22.0837 C   0  0  0  0  0  0
  -30.0869  -17.6620   19.7239 C   0  0  0  0  0  0
  -29.1068  -19.8182   20.7272 C   0  0  2  0  0  0
  -30.1844  -16.9703   21.1115 C   0  0  2  0  0  0
  -26.7149  -21.2926   19.5652 C   0  0  0  0  0  0
  -32.1900  -22.2867   22.4034 C   0  0  0  0  0  0
  -28.4984  -25.7463   21.2223 C   0  0  0  0  0  0
  -29.9035  -15.5190   21.0411 N   0  0  0  0  0  0
  -31.1849  -21.5323   21.7381 O   0  0  0  0  0  0
  -31.4757  -12.4458   19.1265 H   0  0  0  0  0  0
  -30.3493  -11.3196   19.8301 H   0  0  0  0  0  0
  -29.7471  -11.7826   17.4359 H   0  0  0  0  0  0
  -29.6603  -13.4943   17.7664 H   0  0  0  0  0  0
  -27.8383  -11.3069   18.8239 H   0  0  0  0  0  0
  -27.3685  -12.6301   17.7894 H   0  0  0  0  0  0
  -27.7021  -14.2527   19.5723 H   0  0  0  0  0  0
  -28.6905  -11.9575   21.3362 H   0  0  0  0  0  0
  -28.4624  -13.5904   21.8769 H   0  0  0  0  0  0
  -25.2754   -9.5682   22.4758 H   0  0  0  0  0  0
  -23.9994   -7.4630   22.7469 H   0  0  0  0  0  0
  -21.0836   -8.8765   19.8954 H   0  0  0  0  0  0
  -22.3687  -10.9667   19.6156 H   0  0  0  0  0  0
  -21.1998   -7.6143   23.9718 H   0  0  0  0  0  0
  -21.1488   -6.0519   25.9081 H   0  0  0  0  0  0
  -22.0600   -2.7605   23.2845 H   0  0  0  0  0  0
  -22.4096  -11.9890   22.4788 H   0  0  0  0  0  0
  -21.1125  -13.1276   22.2603 H   0  0  0  0  0  0
  -24.6647  -15.8412   20.5160 H   0  0  0  0  0  0
  -26.2847  -15.6278   20.0874 H   0  0  0  0  0  0
  -26.7129  -32.5527   23.1161 H   0  0  0  0  0  0
  -25.0075  -33.9770   25.0499 H   0  0  0  0  0  0
  -22.6982  -31.3061   21.4079 H   0  0  0  0  0  0
  -23.3744  -35.9640   23.3311 H   0  0  0  0  0  0
  -24.3578  -36.8911   22.2053 H   0  0  0  0  0  0
  -23.7222  -37.6519   23.6641 H   0  0  0  0  0  0
  -26.0514  -31.5869   20.5956 H   0  0  0  0  0  0
  -26.8256  -30.8806   21.9854 H   0  0  0  0  0  0
  -28.1096  -29.0769   21.1757 H   0  0  0  0  0  0
  -26.0648  -25.9577   19.0173 H   0  0  0  0  0  0
  -23.9824  -27.2901   19.0320 H   0  0  0  0  0  0
  -23.7319  -30.5940   19.4055 H   0  0  0  0  0  0
  -22.7425  -29.2416   19.8662 H   0  0  0  0  0  0
  -25.1276  -36.1991   25.0839 H   0  0  0  0  0  0
  -20.9948  -28.3236   24.1435 H   0  0  0  0  0  0
  -20.5666  -26.2279   23.3604 H   0  0  0  0  0  0
  -21.6636  -26.7452   22.1205 H   0  0  0  0  0  0
  -19.6906  -25.6300   21.1235 H   0  0  0  0  0  0
  -19.6688  -27.3202   20.6746 H   0  0  0  0  0  0
  -17.4195  -26.6675   21.4016 H   0  0  0  0  0  0
  -18.0320  -26.0065   22.9010 H   0  0  0  0  0  0
  -19.7928  -30.7253   24.2281 H   0  0  0  0  0  0
  -17.5013  -31.6268   24.5161 H   0  0  0  0  0  0
  -15.5346  -30.2995   23.7646 H   0  0  0  0  0  0
  -15.8660  -28.0830   22.7057 H   0  0  0  0  0  0
  -24.5932  -30.7018   25.7810 H   0  0  0  0  0  0
  -24.8916  -32.2833   26.4922 H   0  0  0  0  0  0
  -25.8099  -30.8865   27.0231 H   0  0  0  0  0  0
  -26.2865  -29.6788   24.1160 H   0  0  0  0  0  0
  -27.4092  -29.7276   25.4566 H   0  0  0  0  0  0
  -27.8700  -30.4352   23.9258 H   0  0  0  0  0  0
  -27.2673  -33.3607   26.2079 H   0  0  0  0  0  0
  -28.3853  -32.6872   25.0303 H   0  0  0  0  0  0
  -28.0733  -31.8425   26.5389 H   0  0  0  0  0  0
  -28.2606  -38.0103   24.7517 H   0  0  0  0  0  0
  -28.1067  -36.2636   24.6297 H   0  0  0  0  0  0
  -27.2302  -37.1466   25.8877 H   0  0  0  0  0  0
  -20.9318  -29.8757   21.6932 H   0  0  0  0  0  0
  -26.0189  -38.2880   24.1410 H   0  0  0  0  0  0
  -26.8241  -23.9426   19.9830 H   0  0  0  0  0  0
  -30.6565  -24.2083   21.8358 H   0  0  0  0  0  0
  -30.2113  -19.4630   22.5830 H   0  0  0  0  0  0
  -28.4835  -19.5601   22.7890 H   0  0  0  0  0  0
  -30.0604  -19.6226   18.7886 H   0  0  0  0  0  0
  -31.1762  -19.5050   20.1241 H   0  0  0  0  0  0
  -28.1588  -17.3566   21.7966 H   0  0  0  0  0  0
  -29.3207  -17.2383   23.0903 H   0  0  0  0  0  0
  -30.8722  -17.2842   19.0679 H   0  0  0  0  0  0
  -29.1432  -17.3900   19.2495 H   0  0  0  0  0  0
  -28.1595  -19.4320   20.3600 H   0  0  0  0  0  0
  -31.1936  -17.1104   21.5039 H   0  0  0  0  0  0
  -25.9760  -21.9704   19.1364 H   0  0  0  0  0  0
  -26.2001  -20.6642   20.2930 H   0  0  0  0  0  0
  -27.0805  -20.6623   18.7534 H   0  0  0  0  0  0
  -32.9840  -21.6168   22.7331 H   0  0  0  0  0  0
  -31.7953  -22.7852   23.2900 H   0  0  0  0  0  0
  -32.6399  -23.0263   21.7401 H   0  0  0  0  0  0
  -29.3330  -26.1235   21.8140 H   0  0  0  0  0  0
  -27.6270  -25.8147   21.8774 H   0  0  0  0  0  0
  -28.9899  -15.2321   21.3591 H   0  0  0  0  0  0
  1 25  1  0  0  0
  1 30  2  0  0  0
  1 86  1  0  0  0
  2  3  1  0  0  0
  2 25  1  0  0  0
  2 88  1  0  0  0
  2 89  1  0  0  0
  3  4  1  0  0  0
  3 90  1  0  0  0
  3 91  1  0  0  0
  4  5  1  0  0  0
  4 92  1  0  0  0
  4 93  1  0  0  0
  5  6  1  0  0  0
  5 26  1  0  0  0
  5 94  1  0  0  0
  6 25  1  0  0  0
  6 95  1  0  0  0
  6 96  1  0  0  0
  7  8  2  0  0  0
  7 26  1  0  0  0
  7 29  1  0  0  0
  8  9  1  0  0  0
  8 22  1  0  0  0
  9 10  1  0  0  0
  9 27  2  0  0  0
 10 11  2  0  0  0
 10 15  1  0  0  0
 11 12  1  0  0  0
 11 97  1  0  0  0
 12 13  2  0  0  0
 12 98  1  0  0  0
 13 14  1  0  0  0
 13 31  1  0  0  0
 14 15  2  0  0  0
 14 99  1  0  0  0
 15100  1  0  0  0
 16 17  2  0  0  0
 16 21  1  0  0  0
 16 31  1  0  0  0
 17 18  1  0  0  0
 17101  1  0  0  0
 18 19  2  0  0  0
 18102  1  0  0  0
 19 20  1  0  0  0
 19 24  1  0  0  0
 20 21  2  0  0  0
 20103  1  0  0  0
 21 23  1  0  0  0
 22 28  1  0  0  0
 22 32  2  0  0  0
 26 27  1  0  0  0
 28104  1  0  0  0
 28105  1  0  0  0
 29106  1  0  0  0
 29107  1  0  0  0
 33 34  1  0  0  0
 33 66  1  0  0  0
 33 70  2  0  0  0
 34 36  1  0  0  0
 34 59  1  0  0  0
 34108  1  0  0  0
 35 44  2  0  0  0
 35 45  1  0  0  0
 35 68  1  0  0  0
 36 56  1  0  0  0
 36109  1  0  0  0
 37 39  1  0  0  0
 37 47  1  0  0  0
 37 66  1  0  0  0
 37110  1  0  0  0
 38 43  2  0  0  0
 38 46  1  0  0  0
 38 47  1  0  0  0
 39 64  1  0  0  0
 39 67  2  0  0  0
 40 52  1  0  0  0
 40 53  2  0  0  0
 40 58  1  0  0  0
 41111  1  0  0  0
 41112  1  0  0  0
 41113  1  0  0  0
 41 48  1  0  0  0
 42 43  1  0  0  0
 42 66  1  0  0  0
 42114  1  0  0  0
 42115  1  0  0  0
 43 44  1  0  0  0
 44116  1  0  0  0
 45 46  2  0  0  0
 45117  1  0  0  0
 46118  1  0  0  0
 47119  1  0  0  0
 47120  1  0  0  0
 48 56  1  0  0  0
 48 65  1  0  0  0
 48121  1  0  0  0
 49 50  1  0  0  0
 49 53  1  0  0  0
 49 64  1  0  0  0
 49122  1  0  0  0
 50 51  1  0  0  0
 50123  1  0  0  0
 50124  1  0  0  0
 51 52  1  0  0  0
 51125  1  0  0  0
 51126  1  0  0  0
 52127  1  0  0  0
 52128  1  0  0  0
 53 54  1  0  0  0
 54 55  2  0  0  0
 54129  1  0  0  0
 55 57  1  0  0  0
 55130  1  0  0  0
 56 69  2  0  0  0
 57 58  2  0  0  0
 57131  1  0  0  0
 58132  1  0  0  0
 59 60  1  0  0  0
 59 61  1  0  0  0
 59 62  1  0  0  0
 60133  1  0  0  0
 60134  1  0  0  0
 60135  1  0  0  0
 61136  1  0  0  0
 61137  1  0  0  0
 61138  1  0  0  0
 62139  1  0  0  0
 62140  1  0  0  0
 62141  1  0  0  0
 63 65  1  0  0  0
 63142  1  0  0  0
 63143  1  0  0  0
 63144  1  0  0  0
 64145  1  0  0  0
 65146  1  0  0  0
 68 85  1  0  0  0
 71 74  2  0  0  0
 71 75  1  0  0  0
 71147  1  0  0  0
 72 74  1  0  0  0
 72 76  2  0  0  0
 72148  1  0  0  0
 73 75  2  0  0  0
 73 76  1  0  0  0
 73 81  1  0  0  0
 74 85  1  0  0  0
 75 83  1  0  0  0
 76 87  1  0  0  0
 77 79  1  0  0  0
 77 81  1  0  0  0
 77149  1  0  0  0
 77150  1  0  0  0
 78 80  1  0  0  0
 78 81  1  0  0  0
 78151  1  0  0  0
 78152  1  0  0  0
 79 82  1  0  0  0
 79153  1  0  0  0
 79154  1  0  0  0
 80 82  1  0  0  0
 80155  1  0  0  0
 80156  1  0  0  0
 81157  1  0  0  0
 82 86  1  0  0  0
 82158  1  0  0  0
 83159  1  0  0  0
 83160  1  0  0  0
 83161  1  0  0  0
 84 87  1  0  0  0
 84162  1  0  0  0
 84163  1  0  0  0
 84164  1  0  0  0
 85165  1  0  0  0
 85166  1  0  0  0
 86167  1  0  0  0
M  ISO  4   1 100  68 101  85 101  86 100
M  END
> <chiral flag>
0

> <version>
0

> <s_m_source_file>
/data/baiqing/PycharmProjects/Reinvent-master-3.2/result/LINK_invent/BTK/process_docking_weight1_custom_sum_contain_oxygen_bond_distance_aromatic_linkinvent_7_9_3/rearranged_h_0146.sdf

> <i_m_source_file_index>
70

> <r_mmod_Potential_Energy-OPLS-2005>
1.91196262836456

> <r_mmod_Stretch_Energy-OPLS-2005>
48.3830947875977

> <r_mmod_Bend_Energy-OPLS-2005>
108.535034179688

> <r_mmod_Torsional_Energy-OPLS-2005>
256.108978271484

> <r_mmod_Improper_Torsional_Energy-OPLS-2005>
4.21058082580566

> <r_mmod_Van_der_Waal_Energy-OPLS-2005>
152.149917602539

> <r_mmod_Electrostatic_Energy-OPLS-2005>
-379.625915527344

> <r_mmod_Solvation_Energy-OPLS-2005>
-205.370819091797

> <b_mmod_Minimization_Converged-OPLS-2005>
0

> <r_mmod_RMS_Derivative-OPLS-2005>
0.804485976696014

$$$$
70
                    3D
 Structure written by MMmdl.
150159  0  0  1  0            999 V2000
  -30.4315  -15.1811   20.3702 C   0  0  0  0  0  0
  -30.4502  -12.7397   19.5223 C   0  0  0  0  0  0
  -29.5465  -12.5721   18.2776 C   0  0  0  0  0  0
  -28.0775  -12.3327   18.6824 C   0  0  0  0  0  0
  -27.6223  -13.2707   19.8311 C   0  0  2  0  0  0
  -28.6595  -13.3734   20.9665 C   0  0  0  0  0  0
  -25.2422  -13.8237   20.5703 C   0  0  0  0  0  0
  -24.1767  -13.0454   20.9256 C   0  0  0  0  0  0
  -24.6410  -11.6946   20.8762 C   0  0  0  0  0  0
  -23.9093  -10.4318   21.0407 C   0  0  0  0  0  0
  -24.3647   -9.4235   21.9189 C   0  0  0  0  0  0
  -23.6311   -8.2276   22.0747 C   0  0  0  0  0  0
  -22.4288   -8.0302   21.3549 C   0  0  0  0  0  0
  -21.9926   -9.0271   20.4648 C   0  0  0  0  0  0
  -22.7259  -10.2150   20.3055 C   0  0  0  0  0  0
  -21.6862   -6.0741   22.5281 C   0  0  0  0  0  0
  -21.4038   -6.5651   23.8213 C   0  0  0  0  0  0
  -21.3676   -5.6789   24.9167 C   0  0  0  0  0  0
  -21.6039   -4.3049   24.7209 C   0  0  0  0  0  0
  -21.8810   -3.8143   23.4333 C   0  0  0  0  0  0
  -21.9195   -4.6971   22.3399 C   0  0  0  0  0  0
  -22.7791  -13.5227   21.1899 C   0  0  0  0  0  0
  -22.1652   -4.2156   21.0973 F   0  0  0  0  0  0
  -21.5637   -3.4521   25.7719 F   0  0  0  0  0  0
  -29.9069  -13.8645   20.3586 N   0  0  0  0  0  0
  -26.2860  -12.9512   20.3218 N   0  0  0  0  0  0
  -25.9349  -11.6619   20.5725 N   0  0  0  0  0  0
  -22.0408  -12.8233   22.0450 N   0  0  0  0  0  0
  -25.4024  -15.1962   20.4068 N   0  0  0  0  0  0
  -31.6415  -15.2524   20.1102 O   0  0  0  0  0  0
  -21.6656   -6.8894   21.4243 O   0  0  0  0  0  0
  -22.3489  -14.5510   20.6705 O   0  0  0  0  0  0
  -24.6547  -31.8298   23.1732 C   0  0  0  0  0  0
  -25.9254  -32.4621   23.8189 C   0  0  1  0  0  0
  -27.2284  -26.9967   20.1691 C   0  0  0  0  0  0
  -25.5940  -33.8433   24.2106 N   0  0  0  0  0  0
  -23.4678  -30.4400   21.5222 C   0  0  2  0  0  0
  -24.9206  -28.8367   20.1105 C   0  0  0  0  0  0
  -22.7630  -29.4476   22.4814 C   0  0  0  0  0  0
  -18.0315  -28.1396   22.8465 C   0  0  0  0  0  0
  -24.1483  -36.7225   23.2638 C   0  0  0  0  0  0
  -26.0318  -30.6584   21.3927 C   0  0  0  0  0  0
  -26.1025  -29.2544   20.7355 C   0  0  0  0  0  0
  -27.2521  -28.3545   20.7374 C   0  0  0  0  0  0
  -26.0192  -26.7137   19.4972 C   0  0  0  0  0  0
  -24.9006  -27.5860   19.4696 C   0  0  0  0  0  0
  -23.7005  -29.7516   20.1488 C   0  0  0  0  0  0
  -25.4132  -36.3004   24.0296 C   0  0  1  0  0  0
  -20.5928  -28.3733   23.1189 C   0  0  2  0  0  0
  -20.6797  -26.9420   22.5395 C   0  0  0  0  0  0
  -19.5778  -26.6371   21.5205 C   0  0  0  0  0  0
  -18.1958  -26.7932   22.1612 C   0  0  0  0  0  0
  -19.1573  -28.8892   23.2816 C   0  0  0  0  0  0
  -18.9486  -30.1475   23.8864 C   0  0  0  0  0  0
  -17.6481  -30.6587   24.0542 C   0  0  0  0  0  0
  -25.9096  -34.9368   23.5034 C   0  0  0  0  0  0
  -16.5373  -29.9070   23.6332 C   0  0  0  0  0  0
  -16.7292  -28.6482   23.0369 C   0  0  0  0  0  0
  -26.4520  -31.6540   25.0698 C   0  0  0  0  0  0
  -25.3653  -31.3764   26.1347 C   0  0  0  0  0  0
  -27.0384  -30.2902   24.6393 C   0  0  0  0  0  0
  -27.6030  -32.4310   25.7507 C   0  0  0  0  0  0
  -27.5583  -37.1755   24.8457 C   0  0  0  0  0  0
  -21.4302  -29.3040   22.3554 N   0  0  0  0  0  0
  -26.4295  -37.3726   23.9399 N   0  0  0  0  0  0
  -24.7390  -31.0015   22.0838 N   0  0  0  0  0  0
  -23.4207  -28.8052   23.3038 O   0  0  0  0  0  0
  -28.2638  -25.9465   20.2452 O   0  0  0  0  0  0
  -26.5703  -34.8889   22.4626 O   0  0  0  0  0  0
  -23.5627  -32.1235   23.6861 O   0  0  0  0  0  0
  -30.4778  -18.9459   19.9062 C   0  0  0  0  0  0
  -28.3935  -18.7667   20.8271 C   0  0  0  0  0  0
  -30.2779  -20.4206   19.8842 C   0  0  0  0  0  0
  -29.5368  -17.9666   20.4120 C   0  0  0  0  0  0
  -29.0859  -21.1278   20.3516 C   0  0  0  0  0  0
  -29.5847  -23.9563   20.1034 C   0  0  0  0  0  0
  -28.8293  -22.8290   20.6714 C   0  0  1  0  0  0
  -28.0883  -24.3335   20.0819 C   0  0  2  0  0  0
  -31.4353  -21.2537   19.3552 C   0  0  0  0  0  0
  -28.1900  -20.1705   20.8100 N   0  0  0  0  0  0
  -29.5766  -16.3618   20.5029 N   0  0  0  0  0  0
  -31.4766  -12.9335   19.2084 H   0  0  0  0  0  0
  -30.4954  -11.8135   20.0967 H   0  0  0  0  0  0
  -29.9069  -11.7509   17.6564 H   0  0  0  0  0  0
  -29.6133  -13.4717   17.6644 H   0  0  0  0  0  0
  -27.9877  -11.2919   18.9963 H   0  0  0  0  0  0
  -27.4275  -12.4490   17.8143 H   0  0  0  0  0  0
  -27.5594  -14.2601   19.3779 H   0  0  0  0  0  0
  -28.8004  -12.4107   21.4585 H   0  0  0  0  0  0
  -28.3150  -14.0648   21.7373 H   0  0  0  0  0  0
  -25.2779   -9.5726   22.4777 H   0  0  0  0  0  0
  -24.0012   -7.4676   22.7457 H   0  0  0  0  0  0
  -21.0863   -8.8792   19.8950 H   0  0  0  0  0  0
  -22.3712  -10.9686   19.6174 H   0  0  0  0  0  0
  -21.2031   -7.6163   23.9723 H   0  0  0  0  0  0
  -21.1520   -6.0515   25.9070 H   0  0  0  0  0  0
  -22.0574   -2.7594   23.2816 H   0  0  0  0  0  0
  -22.4003  -11.9929   22.4917 H   0  0  0  0  0  0
  -21.1006  -13.1273   22.2566 H   0  0  0  0  0  0
  -24.6155  -15.8308   20.4924 H   0  0  0  0  0  0
  -26.2032  -15.6276   19.9663 H   0  0  0  0  0  0
  -26.7321  -32.5170   23.0910 H   0  0  0  0  0  0
  -25.0012  -33.9511   25.0199 H   0  0  0  0  0  0
  -22.7789  -31.2706   21.3546 H   0  0  0  0  0  0
  -23.3777  -35.9528   23.3286 H   0  0  0  0  0  0
  -24.3567  -36.8885   22.2061 H   0  0  0  0  0  0
  -23.7206  -37.6389   23.6708 H   0  0  0  0  0  0
  -26.2068  -31.4049   20.6163 H   0  0  0  0  0  0
  -26.8938  -30.7130   22.0466 H   0  0  0  0  0  0
  -28.1532  -28.6747   21.2419 H   0  0  0  0  0  0
  -25.9134  -25.7588   19.0031 H   0  0  0  0  0  0
  -24.0034  -27.2647   18.9572 H   0  0  0  0  0  0
  -23.8346  -30.5156   19.3822 H   0  0  0  0  0  0
  -22.8174  -29.1868   19.8460 H   0  0  0  0  0  0
  -25.1336  -36.1830   25.0793 H   0  0  0  0  0  0
  -21.0012  -28.3331   24.1307 H   0  0  0  0  0  0
  -20.5677  -26.2350   23.3623 H   0  0  0  0  0  0
  -21.6663  -26.7398   22.1205 H   0  0  0  0  0  0
  -19.6935  -25.6270   21.1265 H   0  0  0  0  0  0
  -19.6735  -27.3158   20.6716 H   0  0  0  0  0  0
  -17.4228  -26.6653   21.4014 H   0  0  0  0  0  0
  -18.0371  -26.0092   22.9028 H   0  0  0  0  0  0
  -19.7962  -30.7281   24.2237 H   0  0  0  0  0  0
  -17.5035  -31.6273   24.5140 H   0  0  0  0  0  0
  -15.5371  -30.2960   23.7685 H   0  0  0  0  0  0
  -15.8691  -28.0772   22.7130 H   0  0  0  0  0  0
  -24.5825  -30.7156   25.7604 H   0  0  0  0  0  0
  -24.8861  -32.2960   26.4696 H   0  0  0  0  0  0
  -25.7844  -30.8925   27.0175 H   0  0  0  0  0  0
  -26.2997  -29.6592   24.1435 H   0  0  0  0  0  0
  -27.3955  -29.7258   25.5016 H   0  0  0  0  0  0
  -27.8941  -30.4087   23.9755 H   0  0  0  0  0  0
  -27.2615  -33.3619   26.2041 H   0  0  0  0  0  0
  -28.3866  -32.6840   25.0362 H   0  0  0  0  0  0
  -28.0689  -31.8481   26.5460 H   0  0  0  0  0  0
  -28.2560  -38.0084   24.7545 H   0  0  0  0  0  0
  -28.1118  -36.2607   24.6261 H   0  0  0  0  0  0
  -27.2301  -37.1378   25.8856 H   0  0  0  0  0  0
  -20.9560  -29.8671   21.6624 H   0  0  0  0  0  0
  -26.0160  -38.2786   24.1422 H   0  0  0  0  0  0
  -31.4080  -18.5590   19.5164 H   0  0  0  0  0  0
  -27.5414  -18.2382   21.2293 H   0  0  0  0  0  0
  -30.0287  -23.8253   19.1183 H   0  0  0  0  0  0
  -30.2370  -24.4764   20.8047 H   0  0  0  0  0  0
  -28.7979  -22.8111   21.7595 H   0  0  0  0  0  0
  -27.2629  -24.2534   20.7861 H   0  0  0  0  0  0
  -32.3526  -20.6665   19.2830 H   0  0  0  0  0  0
  -31.6450  -22.1002   20.0095 H   0  0  0  0  0  0
  -31.2057  -21.6352   18.3593 H   0  0  0  0  0  0
  -28.6563  -16.0164   20.7342 H   0  0  0  0  0  0
  1 25  1  0  0  0
  1 30  2  0  0  0
  1 81  1  0  0  0
  2  3  1  0  0  0
  2 25  1  0  0  0
  2 82  1  0  0  0
  2 83  1  0  0  0
  3  4  1  0  0  0
  3 84  1  0  0  0
  3 85  1  0  0  0
  4  5  1  0  0  0
  4 86  1  0  0  0
  4 87  1  0  0  0
  5  6  1  0  0  0
  5 26  1  0  0  0
  5 88  1  0  0  0
  6 25  1  0  0  0
  6 89  1  0  0  0
  6 90  1  0  0  0
  7  8  2  0  0  0
  7 26  1  0  0  0
  7 29  1  0  0  0
  8  9  1  0  0  0
  8 22  1  0  0  0
  9 10  1  0  0  0
  9 27  2  0  0  0
 10 11  2  0  0  0
 10 15  1  0  0  0
 11 12  1  0  0  0
 11 91  1  0  0  0
 12 13  2  0  0  0
 12 92  1  0  0  0
 13 14  1  0  0  0
 13 31  1  0  0  0
 14 15  2  0  0  0
 14 93  1  0  0  0
 15 94  1  0  0  0
 16 17  2  0  0  0
 16 21  1  0  0  0
 16 31  1  0  0  0
 17 18  1  0  0  0
 17 95  1  0  0  0
 18 19  2  0  0  0
 18 96  1  0  0  0
 19 20  1  0  0  0
 19 24  1  0  0  0
 20 21  2  0  0  0
 20 97  1  0  0  0
 21 23  1  0  0  0
 22 28  1  0  0  0
 22 32  2  0  0  0
 26 27  1  0  0  0
 28 98  1  0  0  0
 28 99  1  0  0  0
 29100  1  0  0  0
 29101  1  0  0  0
 33 34  1  0  0  0
 33 66  1  0  0  0
 33 70  2  0  0  0
 34 36  1  0  0  0
 34 59  1  0  0  0
 34102  1  0  0  0
 35 44  2  0  0  0
 35 45  1  0  0  0
 35 68  1  0  0  0
 36 56  1  0  0  0
 36103  1  0  0  0
 37 39  1  0  0  0
 37 47  1  0  0  0
 37 66  1  0  0  0
 37104  1  0  0  0
 38 43  2  0  0  0
 38 46  1  0  0  0
 38 47  1  0  0  0
 39 64  1  0  0  0
 39 67  2  0  0  0
 40 52  1  0  0  0
 40 53  2  0  0  0
 40 58  1  0  0  0
 41105  1  0  0  0
 41106  1  0  0  0
 41107  1  0  0  0
 41 48  1  0  0  0
 42 43  1  0  0  0
 42 66  1  0  0  0
 42108  1  0  0  0
 42109  1  0  0  0
 43 44  1  0  0  0
 44110  1  0  0  0
 45 46  2  0  0  0
 45111  1  0  0  0
 46112  1  0  0  0
 47113  1  0  0  0
 47114  1  0  0  0
 48 56  1  0  0  0
 48 65  1  0  0  0
 48115  1  0  0  0
 49 50  1  0  0  0
 49 53  1  0  0  0
 49 64  1  0  0  0
 49116  1  0  0  0
 50 51  1  0  0  0
 50117  1  0  0  0
 50118  1  0  0  0
 51 52  1  0  0  0
 51119  1  0  0  0
 51120  1  0  0  0
 52121  1  0  0  0
 52122  1  0  0  0
 53 54  1  0  0  0
 54 55  2  0  0  0
 54123  1  0  0  0
 55 57  1  0  0  0
 55124  1  0  0  0
 56 69  2  0  0  0
 57 58  2  0  0  0
 57125  1  0  0  0
 58126  1  0  0  0
 59 60  1  0  0  0
 59 61  1  0  0  0
 59 62  1  0  0  0
 60127  1  0  0  0
 60128  1  0  0  0
 60129  1  0  0  0
 61130  1  0  0  0
 61131  1  0  0  0
 61132  1  0  0  0
 62133  1  0  0  0
 62134  1  0  0  0
 62135  1  0  0  0
 63 65  1  0  0  0
 63136  1  0  0  0
 63137  1  0  0  0
 63138  1  0  0  0
 64139  1  0  0  0
 65140  1  0  0  0
 68 78  1  0  0  0
 71 73  2  0  0  0
 71 74  1  0  0  0
 71141  1  0  0  0
 72 74  2  0  0  0
 72 80  1  0  0  0
 72142  1  0  0  0
 73 75  1  0  0  0
 73 79  1  0  0  0
 74 81  1  0  0  0
 75 80  2  0  0  0
 75 77  1  0  0  0
 76 77  1  0  0  0
 76 78  1  0  0  0
 76143  1  0  0  0
 76144  1  0  0  0
 77 78  1  0  0  0
 77145  1  0  0  0
 78146  1  0  0  0
 79147  1  0  0  0
 79148  1  0  0  0
 79149  1  0  0  0
 81150  1  0  0  0
M  ISO  4   1 100  68 101  78 101  81 100
M  END
> <chiral flag>
0

> <version>
0

> <s_m_source_file>
/data/baiqing/PycharmProjects/Reinvent-master-3.2/result/LINK_invent/BTK/process_docking_weight1_custom_sum_contain_oxygen_bond_distance_aromatic_linkinvent_7_9_3/rearranged_h_0146.sdf

> <i_m_source_file_index>
71

> <r_mmod_Potential_Energy-OPLS-2005>
943.636535644531

> <r_mmod_Stretch_Energy-OPLS-2005>
469.146148681641

> <r_mmod_Bend_Energy-OPLS-2005>
489.138946533203

> <r_mmod_Torsional_Energy-OPLS-2005>
226.920303344727

> <r_mmod_Improper_Torsional_Energy-OPLS-2005>
6.23213768005371

> <r_mmod_Van_der_Waal_Energy-OPLS-2005>
127.885284423828

> <r_mmod_Electrostatic_Energy-OPLS-2005>
-514.068786621094

> <r_mmod_Solvation_Energy-OPLS-2005>
-228.316940307617

> <b_mmod_Minimization_Converged-OPLS-2005>
0

> <r_mmod_RMS_Derivative-OPLS-2005>
2.98646545410156

$$$$
71
                    3D
 Structure written by MMmdl.
173182  0  0  1  0            999 V2000
  -30.6314  -14.6402   20.5709 C   0  0  0  0  0  0
  -30.4464  -12.4191   19.4470 C   0  0  0  0  0  0
  -29.5169  -12.5519   18.2192 C   0  0  0  0  0  0
  -28.0339  -12.3844   18.6182 C   0  0  0  0  0  0
  -27.6601  -13.2102   19.8801 C   0  0  2  0  0  0
  -28.7067  -12.9665   20.9884 C   0  0  0  0  0  0
  -25.2550  -13.8149   20.5625 C   0  0  0  0  0  0
  -24.1809  -13.0433   20.9111 C   0  0  0  0  0  0
  -24.6360  -11.6903   20.8662 C   0  0  0  0  0  0
  -23.9025  -10.4302   21.0353 C   0  0  0  0  0  0
  -24.3576   -9.4225   21.9123 C   0  0  0  0  0  0
  -23.6267   -8.2272   22.0733 C   0  0  0  0  0  0
  -22.4235   -8.0288   21.3547 C   0  0  0  0  0  0
  -21.9878   -9.0243   20.4645 C   0  0  0  0  0  0
  -22.7215  -10.2127   20.3015 C   0  0  0  0  0  0
  -21.6860   -6.0715   22.5257 C   0  0  0  0  0  0
  -21.4045   -6.5611   23.8185 C   0  0  0  0  0  0
  -21.3688   -5.6749   24.9140 C   0  0  0  0  0  0
  -21.6048   -4.3008   24.7199 C   0  0  0  0  0  0
  -21.8824   -3.8126   23.4319 C   0  0  0  0  0  0
  -21.9204   -4.6942   22.3374 C   0  0  0  0  0  0
  -22.7863  -13.5268   21.1771 C   0  0  0  0  0  0
  -22.1680   -4.2131   21.0958 F   0  0  0  0  0  0
  -21.5615   -3.4513   25.7729 F   0  0  0  0  0  0
  -30.0058  -13.4127   20.4542 N   0  0  0  0  0  0
  -26.3015  -12.9316   20.3346 N   0  0  0  0  0  0
  -25.9260  -11.6491   20.5651 N   0  0  0  0  0  0
  -22.0490  -12.8311   22.0347 N   0  0  0  0  0  0
  -25.4264  -15.1852   20.4040 N   0  0  0  0  0  0
  -31.7726  -14.7783   20.1185 O   0  0  0  0  0  0
  -21.6642   -6.8859   21.4225 O   0  0  0  0  0  0
  -22.3589  -14.5592   20.6617 O   0  0  0  0  0  0
  -24.6256  -31.8633   23.2062 C   0  0  0  0  0  0
  -25.9107  -32.4804   23.8374 C   0  0  1  0  0  0
  -27.2287  -27.3497   20.0788 C   0  0  0  0  0  0
  -25.5946  -33.8598   24.2329 N   0  0  0  0  0  0
  -23.4177  -30.4896   21.5485 C   0  0  2  0  0  0
  -24.8602  -28.9466   20.1186 C   0  0  0  0  0  0
  -22.7472  -29.4642   22.4940 C   0  0  0  0  0  0
  -18.0293  -28.1399   22.8483 C   0  0  0  0  0  0
  -24.1481  -36.7271   23.2636 C   0  0  0  0  0  0
  -25.9593  -30.8012   21.3753 C   0  0  0  0  0  0
  -26.0303  -29.4329   20.7116 C   0  0  0  0  0  0
  -27.2179  -28.6461   20.6802 C   0  0  0  0  0  0
  -26.0243  -26.9054   19.4814 C   0  0  0  0  0  0
  -24.8553  -27.6868   19.5058 C   0  0  0  0  0  0
  -23.6339  -29.8334   20.1616 C   0  0  0  0  0  0
  -25.4109  -36.3097   24.0344 C   0  0  1  0  0  0
  -20.5888  -28.3692   23.1301 C   0  0  2  0  0  0
  -20.6776  -26.9420   22.5420 C   0  0  0  0  0  0
  -19.5756  -26.6400   21.5210 C   0  0  0  0  0  0
  -18.1933  -26.7949   22.1623 C   0  0  0  0  0  0
  -19.1539  -28.8864   23.2899 C   0  0  0  0  0  0
  -18.9453  -30.1457   23.8930 C   0  0  0  0  0  0
  -17.6463  -30.6590   24.0582 C   0  0  0  0  0  0
  -25.9057  -34.9466   23.5144 C   0  0  0  0  0  0
  -16.5355  -29.9110   23.6322 C   0  0  0  0  0  0
  -16.7272  -28.6531   23.0325 C   0  0  0  0  0  0
  -26.4510  -31.6583   25.0718 C   0  0  0  0  0  0
  -25.3742  -31.3661   26.1431 C   0  0  0  0  0  0
  -27.0358  -30.3025   24.6140 C   0  0  0  0  0  0
  -27.6104  -32.4280   25.7475 C   0  0  0  0  0  0
  -27.5592  -37.1780   24.8471 C   0  0  0  0  0  0
  -21.4183  -29.3043   22.3688 N   0  0  0  0  0  0
  -26.4290  -37.3796   23.9437 N   0  0  0  0  0  0
  -24.6861  -31.0658   22.1019 N   0  0  0  0  0  0
  -23.4209  -28.8174   23.2994 O   0  0  0  0  0  0
  -28.3927  -26.5745   20.0526 O   0  0  0  0  0  0
  -26.5604  -34.8928   22.4692 O   0  0  0  0  0  0
  -23.5417  -32.1430   23.7397 O   0  0  0  0  0  0
  -30.2291  -20.8938   20.3786 C   0  0  0  0  0  0
  -30.0838  -23.2335   19.1730 C   0  0  0  0  0  0
  -28.7637  -22.8780   21.2989 C   0  0  0  0  0  0
  -29.2937  -24.5475   18.8285 C   0  0  0  0  0  0
  -28.7370  -24.4479   21.2926 C   0  0  0  0  0  0
  -28.7346  -17.2487   22.6137 C   0  0  0  0  0  0
  -28.9781  -15.8401   22.0466 C   0  0  0  0  0  0
  -30.0578  -17.1165   20.2069 C   0  0  0  0  0  0
  -29.3341  -22.1577   20.0318 C   0  0  2  0  0  0
  -30.0199  -18.0898   22.6042 C   0  0  1  0  0  0
  -30.3507  -18.4010   21.1101 C   0  0  2  0  0  0
  -28.3575  -25.1007   19.9467 C   0  0  1  0  0  0
  -29.4927  -18.9394   25.0104 C   0  0  0  0  0  0
  -31.4027  -19.9246   23.7470 C   0  0  0  0  0  0
  -30.0026  -19.3004   23.5932 C   0  0  0  0  0  0
  -29.8871  -15.7736   20.8854 N   0  0  0  0  0  0
  -29.6754  -19.6672   20.6211 N   0  0  0  0  0  0
  -31.4516  -21.0442   20.4140 O   0  0  0  0  0  0
  -31.4824  -12.5643   19.1394 H   0  0  0  0  0  0
  -30.4108  -11.4130   19.8654 H   0  0  0  0  0  0
  -29.7935  -11.8243   17.4536 H   0  0  0  0  0  0
  -29.6587  -13.5332   17.7627 H   0  0  0  0  0  0
  -27.8530  -11.3267   18.8096 H   0  0  0  0  0  0
  -27.3924  -12.6619   17.7820 H   0  0  0  0  0  0
  -27.7041  -14.2629   19.5945 H   0  0  0  0  0  0
  -28.7469  -11.8982   21.2175 H   0  0  0  0  0  0
  -28.4386  -13.3986   21.9432 H   0  0  0  0  0  0
  -25.2724   -9.5754   22.4682 H   0  0  0  0  0  0
  -23.9986   -7.4693   22.7458 H   0  0  0  0  0  0
  -21.0807   -8.8785   19.8951 H   0  0  0  0  0  0
  -22.3658  -10.9650   19.6123 H   0  0  0  0  0  0
  -21.2067   -7.6117   23.9714 H   0  0  0  0  0  0
  -21.1498   -6.0446   25.9030 H   0  0  0  0  0  0
  -22.0580   -2.7594   23.2799 H   0  0  0  0  0  0
  -22.4122  -12.0033   22.4829 H   0  0  0  0  0  0
  -21.1120  -13.1394   22.2490 H   0  0  0  0  0  0
  -24.6464  -15.8305   20.4715 H   0  0  0  0  0  0
  -26.2865  -15.6300   20.1128 H   0  0  0  0  0  0
  -26.7171  -32.5496   23.1110 H   0  0  0  0  0  0
  -25.0089  -33.9749   25.0475 H   0  0  0  0  0  0
  -22.7111  -31.3112   21.4093 H   0  0  0  0  0  0
  -23.3794  -35.9549   23.3270 H   0  0  0  0  0  0
  -24.3597  -36.8915   22.2062 H   0  0  0  0  0  0
  -23.7160  -37.6434   23.6670 H   0  0  0  0  0  0
  -26.0934  -31.5733   20.6161 H   0  0  0  0  0  0
  -26.8378  -30.8417   22.0065 H   0  0  0  0  0  0
  -28.1269  -29.0241   21.1282 H   0  0  0  0  0  0
  -25.9526  -25.9596   18.9686 H   0  0  0  0  0  0
  -23.9533  -27.3101   19.0422 H   0  0  0  0  0  0
  -23.7707  -30.6162   19.4134 H   0  0  0  0  0  0
  -22.7509  -29.2750   19.8481 H   0  0  0  0  0  0
  -25.1269  -36.1958   25.0835 H   0  0  0  0  0  0
  -20.9998  -28.3262   24.1412 H   0  0  0  0  0  0
  -20.5678  -26.2293   23.3605 H   0  0  0  0  0  0
  -21.6648  -26.7455   22.1215 H   0  0  0  0  0  0
  -19.6914  -25.6314   21.1227 H   0  0  0  0  0  0
  -19.6705  -27.3219   20.6747 H   0  0  0  0  0  0
  -17.4210  -26.6708   21.4018 H   0  0  0  0  0  0
  -18.0333  -26.0094   22.9026 H   0  0  0  0  0  0
  -19.7940  -30.7249   24.2342 H   0  0  0  0  0  0
  -17.5019  -31.6269   24.5203 H   0  0  0  0  0  0
  -15.5353  -30.3015   23.7624 H   0  0  0  0  0  0
  -15.8688  -28.0865   22.7001 H   0  0  0  0  0  0
  -24.5954  -30.6993   25.7714 H   0  0  0  0  0  0
  -24.8873  -32.2785   26.4878 H   0  0  0  0  0  0
  -25.8054  -30.8805   27.0192 H   0  0  0  0  0  0
  -26.2909  -29.6740   24.1251 H   0  0  0  0  0  0
  -27.4183  -29.7313   25.4609 H   0  0  0  0  0  0
  -27.8726  -30.4343   23.9277 H   0  0  0  0  0  0
  -27.2798  -33.3619   26.2026 H   0  0  0  0  0  0
  -28.3921  -32.6758   25.0284 H   0  0  0  0  0  0
  -28.0763  -31.8396   26.5389 H   0  0  0  0  0  0
  -28.2576  -38.0110   24.7605 H   0  0  0  0  0  0
  -28.1117  -36.2654   24.6190 H   0  0  0  0  0  0
  -27.2331  -37.1312   25.8873 H   0  0  0  0  0  0
  -20.9357  -29.8779   21.6921 H   0  0  0  0  0  0
  -26.0179  -38.2863   24.1486 H   0  0  0  0  0  0
  -30.9810  -23.5364   19.7130 H   0  0  0  0  0  0
  -30.4601  -22.7900   18.2496 H   0  0  0  0  0  0
  -27.7477  -22.5141   21.4607 H   0  0  0  0  0  0
  -29.3227  -22.5688   22.1828 H   0  0  0  0  0  0
  -28.7077  -24.3924   17.9207 H   0  0  0  0  0  0
  -30.0214  -25.3150   18.5533 H   0  0  0  0  0  0
  -29.7147  -24.8243   21.5925 H   0  0  0  0  0  0
  -28.0412  -24.7909   22.0600 H   0  0  0  0  0  0
  -28.3259  -17.1018   23.6085 H   0  0  0  0  0  0
  -27.9574  -17.7671   22.0479 H   0  0  0  0  0  0
  -28.0001  -15.4396   21.7884 H   0  0  0  0  0  0
  -29.3929  -15.2256   22.8488 H   0  0  0  0  0  0
  -30.8006  -17.0589   19.4099 H   0  0  0  0  0  0
  -29.1132  -17.2864   19.6902 H   0  0  0  0  0  0
  -28.4898  -21.8046   19.4376 H   0  0  0  0  0  0
  -30.8108  -17.4283   22.9600 H   0  0  0  0  0  0
  -31.4290  -18.5695   21.0710 H   0  0  0  0  0  0
  -27.3661  -24.7171   19.7263 H   0  0  0  0  0  0
  -28.4374  -18.6746   25.0220 H   0  0  0  0  0  0
  -29.5883  -19.7859   25.6902 H   0  0  0  0  0  0
  -30.0580  -18.1115   25.4445 H   0  0  0  0  0  0
  -31.8253  -20.2327   22.7943 H   0  0  0  0  0  0
  -32.1003  -19.2249   24.2079 H   0  0  0  0  0  0
  -31.3711  -20.8112   24.3808 H   0  0  0  0  0  0
  -29.3241  -20.0616   23.2078 H   0  0  0  0  0  0
  -28.6689  -19.6216   20.5489 H   0  0  0  0  0  0
  1 25  1  0  0  0
  1 30  2  0  0  0
  1 86  1  0  0  0
  2  3  1  0  0  0
  2 25  1  0  0  0
  2 89  1  0  0  0
  2 90  1  0  0  0
  3  4  1  0  0  0
  3 91  1  0  0  0
  3 92  1  0  0  0
  4  5  1  0  0  0
  4 93  1  0  0  0
  4 94  1  0  0  0
  5  6  1  0  0  0
  5 26  1  0  0  0
  5 95  1  0  0  0
  6 25  1  0  0  0
  6 96  1  0  0  0
  6 97  1  0  0  0
  7  8  2  0  0  0
  7 26  1  0  0  0
  7 29  1  0  0  0
  8  9  1  0  0  0
  8 22  1  0  0  0
  9 10  1  0  0  0
  9 27  2  0  0  0
 10 11  2  0  0  0
 10 15  1  0  0  0
 11 12  1  0  0  0
 11 98  1  0  0  0
 12 13  2  0  0  0
 12 99  1  0  0  0
 13 14  1  0  0  0
 13 31  1  0  0  0
 14 15  2  0  0  0
 14100  1  0  0  0
 15101  1  0  0  0
 16 17  2  0  0  0
 16 21  1  0  0  0
 16 31  1  0  0  0
 17 18  1  0  0  0
 17102  1  0  0  0
 18 19  2  0  0  0
 18103  1  0  0  0
 19 20  1  0  0  0
 19 24  1  0  0  0
 20 21  2  0  0  0
 20104  1  0  0  0
 21 23  1  0  0  0
 22 28  1  0  0  0
 22 32  2  0  0  0
 26 27  1  0  0  0
 28105  1  0  0  0
 28106  1  0  0  0
 29107  1  0  0  0
 29108  1  0  0  0
 33 34  1  0  0  0
 33 66  1  0  0  0
 33 70  2  0  0  0
 34 36  1  0  0  0
 34 59  1  0  0  0
 34109  1  0  0  0
 35 44  2  0  0  0
 35 45  1  0  0  0
 35 68  1  0  0  0
 36 56  1  0  0  0
 36110  1  0  0  0
 37 39  1  0  0  0
 37 47  1  0  0  0
 37 66  1  0  0  0
 37111  1  0  0  0
 38 43  2  0  0  0
 38 46  1  0  0  0
 38 47  1  0  0  0
 39 64  1  0  0  0
 39 67  2  0  0  0
 40 52  1  0  0  0
 40 53  2  0  0  0
 40 58  1  0  0  0
 41112  1  0  0  0
 41113  1  0  0  0
 41114  1  0  0  0
 41 48  1  0  0  0
 42 43  1  0  0  0
 42 66  1  0  0  0
 42115  1  0  0  0
 42116  1  0  0  0
 43 44  1  0  0  0
 44117  1  0  0  0
 45 46  2  0  0  0
 45118  1  0  0  0
 46119  1  0  0  0
 47120  1  0  0  0
 47121  1  0  0  0
 48 56  1  0  0  0
 48 65  1  0  0  0
 48122  1  0  0  0
 49 50  1  0  0  0
 49 53  1  0  0  0
 49 64  1  0  0  0
 49123  1  0  0  0
 50 51  1  0  0  0
 50124  1  0  0  0
 50125  1  0  0  0
 51 52  1  0  0  0
 51126  1  0  0  0
 51127  1  0  0  0
 52128  1  0  0  0
 52129  1  0  0  0
 53 54  1  0  0  0
 54 55  2  0  0  0
 54130  1  0  0  0
 55 57  1  0  0  0
 55131  1  0  0  0
 56 69  2  0  0  0
 57 58  2  0  0  0
 57132  1  0  0  0
 58133  1  0  0  0
 59 60  1  0  0  0
 59 61  1  0  0  0
 59 62  1  0  0  0
 60134  1  0  0  0
 60135  1  0  0  0
 60136  1  0  0  0
 61137  1  0  0  0
 61138  1  0  0  0
 61139  1  0  0  0
 62140  1  0  0  0
 62141  1  0  0  0
 62142  1  0  0  0
 63 65  1  0  0  0
 63143  1  0  0  0
 63144  1  0  0  0
 63145  1  0  0  0
 64146  1  0  0  0
 65147  1  0  0  0
 68 82  1  0  0  0
 71 87  1  0  0  0
 71 88  2  0  0  0
 71 79  1  0  0  0
 72 74  1  0  0  0
 72 79  1  0  0  0
 72148  1  0  0  0
 72149  1  0  0  0
 73 75  1  0  0  0
 73 79  1  0  0  0
 73150  1  0  0  0
 73151  1  0  0  0
 74 82  1  0  0  0
 74152  1  0  0  0
 74153  1  0  0  0
 75 82  1  0  0  0
 75154  1  0  0  0
 75155  1  0  0  0
 76 77  1  0  0  0
 76156  1  0  0  0
 76157  1  0  0  0
 76 80  1  0  0  0
 77 86  1  0  0  0
 77158  1  0  0  0
 77159  1  0  0  0
 78 81  1  0  0  0
 78 86  1  0  0  0
 78160  1  0  0  0
 78161  1  0  0  0
 79162  1  0  0  0
 80 81  1  0  0  0
 80 85  1  0  0  0
 80163  1  0  0  0
 81 87  1  0  0  0
 81164  1  0  0  0
 82165  1  0  0  0
 83166  1  0  0  0
 83167  1  0  0  0
 83168  1  0  0  0
 83 85  1  0  0  0
 84 85  1  0  0  0
 84169  1  0  0  0
 84170  1  0  0  0
 84171  1  0  0  0
 85172  1  0  0  0
 87173  1  0  0  0
M  ISO  4   1 100  68 101  82 101  86 100
M  END
> <chiral flag>
0

> <version>
0

> <s_m_source_file>
/data/baiqing/PycharmProjects/Reinvent-master-3.2/result/LINK_invent/BTK/process_docking_weight1_custom_sum_contain_oxygen_bond_distance_aromatic_linkinvent_7_9_3/rearranged_h_0146.sdf

> <i_m_source_file_index>
72

> <r_mmod_Potential_Energy-OPLS-2005>
246.348037719727

> <r_mmod_Stretch_Energy-OPLS-2005>
89.7448272705078

> <r_mmod_Bend_Energy-OPLS-2005>
166.042449951172

> <r_mmod_Torsional_Energy-OPLS-2005>
369.591217041016

> <r_mmod_Improper_Torsional_Energy-OPLS-2005>
8.52531719207764

> <r_mmod_Van_der_Waal_Energy-OPLS-2005>
151.920532226562

> <r_mmod_Electrostatic_Energy-OPLS-2005>
-362.975830078125

> <r_mmod_Solvation_Energy-OPLS-2005>
-212.809341430664

> <b_mmod_Minimization_Converged-OPLS-2005>
0

> <r_mmod_RMS_Derivative-OPLS-2005>
5.25981569290161

$$$$
72
                    3D
 Structure written by MMmdl.
174183  0  0  1  0            999 V2000
  -30.5489  -14.8274   20.4433 C   0  0  0  0  0  0
  -30.4426  -12.5078   19.4820 C   0  0  0  0  0  0
  -29.5204  -12.5282   18.2411 C   0  0  0  0  0  0
  -28.0467  -12.3326   18.6525 C   0  0  0  0  0  0
  -27.6380  -13.2334   19.8498 C   0  0  2  0  0  0
  -28.6813  -13.1854   20.9860 C   0  0  0  0  0  0
  -25.2491  -13.8182   20.5689 C   0  0  0  0  0  0
  -24.1783  -13.0431   20.9207 C   0  0  0  0  0  0
  -24.6377  -11.6909   20.8743 C   0  0  0  0  0  0
  -23.9061  -10.4291   21.0403 C   0  0  0  0  0  0
  -24.3615   -9.4216   21.9191 C   0  0  0  0  0  0
  -23.6291   -8.2250   22.0763 C   0  0  0  0  0  0
  -22.4286   -8.0265   21.3535 C   0  0  0  0  0  0
  -21.9914   -9.0244   20.4645 C   0  0  0  0  0  0
  -22.7234  -10.2126   20.3055 C   0  0  0  0  0  0
  -21.6854   -6.0730   22.5275 C   0  0  0  0  0  0
  -21.4003   -6.5634   23.8207 C   0  0  0  0  0  0
  -21.3663   -5.6790   24.9172 C   0  0  0  0  0  0
  -21.6051   -4.3057   24.7230 C   0  0  0  0  0  0
  -21.8816   -3.8139   23.4347 C   0  0  0  0  0  0
  -21.9194   -4.6958   22.3404 C   0  0  0  0  0  0
  -22.7806  -13.5228   21.1878 C   0  0  0  0  0  0
  -22.1662   -4.2148   21.0977 F   0  0  0  0  0  0
  -21.5639   -3.4537   25.7745 F   0  0  0  0  0  0
  -29.9724  -13.5721   20.4026 N   0  0  0  0  0  0
  -26.2908  -12.9388   20.3263 N   0  0  0  0  0  0
  -25.9311  -11.6526   20.5732 N   0  0  0  0  0  0
  -22.0432  -12.8224   22.0413 N   0  0  0  0  0  0
  -25.4164  -15.1902   20.4089 N   0  0  0  0  0  0
  -31.7380  -14.9556   20.1364 O   0  0  0  0  0  0
  -21.6633   -6.8869   21.4236 O   0  0  0  0  0  0
  -22.3528  -14.5550   20.6736 O   0  0  0  0  0  0
  -24.6385  -31.8484   23.1948 C   0  0  0  0  0  0
  -25.9196  -32.4701   23.8321 C   0  0  1  0  0  0
  -27.2182  -27.2111   20.1266 C   0  0  0  0  0  0
  -25.6002  -33.8514   24.2260 N   0  0  0  0  0  0
  -23.4365  -30.4656   21.5409 C   0  0  2  0  0  0
  -24.8809  -28.8994   20.1077 C   0  0  0  0  0  0
  -22.7515  -29.4565   22.4939 C   0  0  0  0  0  0
  -18.0282  -28.1387   22.8460 C   0  0  0  0  0  0
  -24.1474  -36.7202   23.2643 C   0  0  0  0  0  0
  -25.9841  -30.7393   21.3841 C   0  0  0  0  0  0
  -26.0516  -29.3595   20.7215 C   0  0  0  0  0  0
  -27.2181  -28.5253   20.7199 C   0  0  0  0  0  0
  -26.0227  -26.8203   19.4880 C   0  0  0  0  0  0
  -24.8731  -27.6408   19.4822 C   0  0  0  0  0  0
  -23.6539  -29.7927   20.1586 C   0  0  0  0  0  0
  -25.4114  -36.3025   24.0327 C   0  0  1  0  0  0
  -20.5885  -28.3688   23.1255 C   0  0  2  0  0  0
  -20.6785  -26.9406   22.5400 C   0  0  0  0  0  0
  -19.5766  -26.6369   21.5207 C   0  0  0  0  0  0
  -18.1934  -26.7933   22.1589 C   0  0  0  0  0  0
  -19.1539  -28.8866   23.2842 C   0  0  0  0  0  0
  -18.9464  -30.1478   23.8845 C   0  0  0  0  0  0
  -17.6463  -30.6590   24.0555 C   0  0  0  0  0  0
  -25.9062  -34.9404   23.5073 C   0  0  0  0  0  0
  -16.5351  -29.9066   23.6378 C   0  0  0  0  0  0
  -16.7272  -28.6493   23.0371 C   0  0  0  0  0  0
  -26.4565  -31.6553   25.0726 C   0  0  0  0  0  0
  -25.3793  -31.3688   26.1440 C   0  0  0  0  0  0
  -27.0469  -30.2975   24.6254 C   0  0  0  0  0  0
  -27.6105  -32.4321   25.7496 C   0  0  0  0  0  0
  -27.5576  -37.1746   24.8474 C   0  0  0  0  0  0
  -21.4226  -29.3016   22.3642 N   0  0  0  0  0  0
  -26.4275  -37.3744   23.9426 N   0  0  0  0  0  0
  -24.7050  -31.0392   22.0948 N   0  0  0  0  0  0
  -23.4169  -28.8139   23.3101 O   0  0  0  0  0  0
  -28.3233  -26.3249   20.2236 O   0  0  0  0  0  0
  -26.5592  -34.8879   22.4616 O   0  0  0  0  0  0
  -23.5523  -32.1361   23.7195 O   0  0  0  0  0  0
  -25.9055  -23.4804   23.4809 C   0  0  0  0  0  0
  -26.7686  -24.1147   24.3935 C   0  0  0  0  0  0
  -28.4636  -24.2965   22.6554 C   0  0  0  0  0  0
  -26.3147  -23.2464   22.1494 C   0  0  0  0  0  0
  -27.6109  -23.6540   21.7286 C   0  0  0  0  0  0
  -28.0478  -24.5258   23.9794 C   0  0  0  0  0  0
  -29.0691  -18.3438   21.5696 C   0  0  0  0  0  0
  -29.6939  -19.8574   19.2756 C   0  0  0  0  0  0
  -29.9243  -17.4949   20.5533 C   0  0  2  0  0  0
  -29.5442  -18.2547   19.2286 C   0  0  2  0  0  0
  -29.2217  -19.9493   21.5425 C   0  0  2  0  0  0
  -25.3426  -22.5552   21.2073 C   0  0  0  0  0  0
  -28.3683  -20.5361   22.6738 C   0  0  0  0  0  0
  -29.1712  -22.1796   20.1420 C   0  0  0  0  0  0
  -28.4417  -24.9305   19.6205 C   0  0  0  0  0  0
  -28.1117  -23.4561   20.2981 C   0  0  2  0  0  0
  -28.8822  -20.6502   20.2571 N   0  0  0  0  0  0
  -29.7165  -15.9458   20.5993 N   0  0  0  0  0  0
  -30.2885  -17.6942   18.0910 N   0  3  0  0  0  0
  -29.1031  -25.3157   25.0928 Cl  0  0  0  0  0  0
  -31.4818  -12.6577   19.1830 H   0  0  0  0  0  0
  -30.4087  -11.5344   19.9732 H   0  0  0  0  0  0
  -29.8219  -11.7543   17.5335 H   0  0  0  0  0  0
  -29.6313  -13.4786   17.7157 H   0  0  0  0  0  0
  -27.9161  -11.2819   18.9154 H   0  0  0  0  0  0
  -27.3907  -12.5152   17.8005 H   0  0  0  0  0  0
  -27.6235  -14.2533   19.4666 H   0  0  0  0  0  0
  -28.7356  -12.1873   21.4226 H   0  0  0  0  0  0
  -28.4027  -13.8597   21.7982 H   0  0  0  0  0  0
  -25.2747   -9.5703   22.4783 H   0  0  0  0  0  0
  -23.9998   -7.4643   22.7480 H   0  0  0  0  0  0
  -21.0849   -8.8745   19.8948 H   0  0  0  0  0  0
  -22.3677  -10.9664   19.6163 H   0  0  0  0  0  0
  -21.1981   -7.6143   23.9720 H   0  0  0  0  0  0
  -21.1492   -6.0515   25.9080 H   0  0  0  0  0  0
  -22.0599   -2.7604   23.2852 H   0  0  0  0  0  0
  -22.4033  -11.9888   22.4820 H   0  0  0  0  0  0
  -21.1036  -13.1256   22.2579 H   0  0  0  0  0  0
  -24.6429  -15.8366   20.5216 H   0  0  0  0  0  0
  -26.2473  -15.6302   20.0373 H   0  0  0  0  0  0
  -26.7247  -32.5321   23.1042 H   0  0  0  0  0  0
  -25.0344  -33.9671   25.0539 H   0  0  0  0  0  0
  -22.7400  -31.2917   21.3914 H   0  0  0  0  0  0
  -23.3779  -35.9489   23.3279 H   0  0  0  0  0  0
  -24.3585  -36.8849   22.2066 H   0  0  0  0  0  0
  -23.7148  -37.6352   23.6689 H   0  0  0  0  0  0
  -26.1402  -31.4980   20.6165 H   0  0  0  0  0  0
  -26.8558  -30.7806   22.0263 H   0  0  0  0  0  0
  -28.1138  -28.8644   21.2202 H   0  0  0  0  0  0
  -25.9465  -25.8491   19.0224 H   0  0  0  0  0  0
  -23.9710  -27.2829   19.0063 H   0  0  0  0  0  0
  -23.7755  -30.5671   19.4007 H   0  0  0  0  0  0
  -22.7693  -29.2275   19.8585 H   0  0  0  0  0  0
  -25.1296  -36.1859   25.0818 H   0  0  0  0  0  0
  -20.9963  -28.3249   24.1381 H   0  0  0  0  0  0
  -20.5695  -26.2294   23.3603 H   0  0  0  0  0  0
  -21.6653  -26.7451   22.1179 H   0  0  0  0  0  0
  -19.6926  -25.6269   21.1267 H   0  0  0  0  0  0
  -19.6715  -27.3159   20.6717 H   0  0  0  0  0  0
  -17.4222  -26.6702   21.3971 H   0  0  0  0  0  0
  -18.0299  -26.0078   22.8978 H   0  0  0  0  0  0
  -19.7942  -30.7323   24.2161 H   0  0  0  0  0  0
  -17.5011  -31.6277   24.5135 H   0  0  0  0  0  0
  -15.5346  -30.2938   23.7755 H   0  0  0  0  0  0
  -15.8666  -28.0801   22.7111 H   0  0  0  0  0  0
  -24.6002  -30.7003   25.7764 H   0  0  0  0  0  0
  -24.8964  -32.2850   26.4841 H   0  0  0  0  0  0
  -25.8131  -30.8896   27.0227 H   0  0  0  0  0  0
  -26.3091  -29.6642   24.1314 H   0  0  0  0  0  0
  -27.4205  -29.7300   25.4790 H   0  0  0  0  0  0
  -27.8935  -30.4262   23.9501 H   0  0  0  0  0  0
  -27.2726  -33.3664   26.1994 H   0  0  0  0  0  0
  -28.3959  -32.6811   25.0342 H   0  0  0  0  0  0
  -28.0732  -31.8504   26.5482 H   0  0  0  0  0  0
  -28.2551  -38.0085   24.7613 H   0  0  0  0  0  0
  -28.1121  -36.2628   24.6209 H   0  0  0  0  0  0
  -27.2316  -37.1257   25.8879 H   0  0  0  0  0  0
  -20.9442  -29.8681   21.6776 H   0  0  0  0  0  0
  -26.0139  -38.2795   24.1493 H   0  0  0  0  0  0
  -24.9231  -23.1746   23.8104 H   0  0  0  0  0  0
  -26.4475  -24.2888   25.4109 H   0  0  0  0  0  0
  -29.4456  -24.6261   22.3485 H   0  0  0  0  0  0
  -29.3148  -17.9924   22.5727 H   0  0  0  0  0  0
  -28.0141  -18.0965   21.4350 H   0  0  0  0  0  0
  -29.4507  -20.2434   18.2841 H   0  0  0  0  0  0
  -30.7482  -20.0966   19.4290 H   0  0  0  0  0  0
  -30.9778  -17.6825   20.7716 H   0  0  0  0  0  0
  -28.4931  -18.0452   19.0195 H   0  0  0  0  0  0
  -30.2663  -20.1684   21.7768 H   0  0  0  0  0  0
  -24.4449  -22.2227   21.7285 H   0  0  0  0  0  0
  -25.8034  -21.6752   20.7567 H   0  0  0  0  0  0
  -25.0300  -23.2328   20.4118 H   0  0  0  0  0  0
  -27.3122  -20.5645   22.4079 H   0  0  0  0  0  0
  -28.6888  -21.5433   22.9297 H   0  0  0  0  0  0
  -28.4551  -19.9492   23.5876 H   0  0  0  0  0  0
  -30.0462  -22.3930   20.7552 H   0  0  0  0  0  0
  -29.5340  -22.3050   19.1210 H   0  0  0  0  0  0
  -27.9821  -24.9551   18.6313 H   0  0  0  0  0  0
  -29.5040  -24.8773   19.3833 H   0  0  0  0  0  0
  -27.2625  -23.1319   19.7031 H   0  0  0  0  0  0
  -28.7689  -15.6733   20.8124 H   0  0  0  0  0  0
  -31.2752  -17.8519   18.1948 H   0  0  0  0  0  0
  -29.9828  -18.1148   17.2317 H   0  0  0  0  0  0
  -30.1309  -16.7066   18.0275 H   0  0  0  0  0  0
  1 25  1  0  0  0
  1 30  2  0  0  0
  1 88  1  0  0  0
  2  3  1  0  0  0
  2 25  1  0  0  0
  2 91  1  0  0  0
  2 92  1  0  0  0
  3  4  1  0  0  0
  3 93  1  0  0  0
  3 94  1  0  0  0
  4  5  1  0  0  0
  4 95  1  0  0  0
  4 96  1  0  0  0
  5  6  1  0  0  0
  5 26  1  0  0  0
  5 97  1  0  0  0
  6 25  1  0  0  0
  6 98  1  0  0  0
  6 99  1  0  0  0
  7  8  2  0  0  0
  7 26  1  0  0  0
  7 29  1  0  0  0
  8  9  1  0  0  0
  8 22  1  0  0  0
  9 10  1  0  0  0
  9 27  2  0  0  0
 10 11  2  0  0  0
 10 15  1  0  0  0
 11 12  1  0  0  0
 11100  1  0  0  0
 12 13  2  0  0  0
 12101  1  0  0  0
 13 14  1  0  0  0
 13 31  1  0  0  0
 14 15  2  0  0  0
 14102  1  0  0  0
 15103  1  0  0  0
 16 17  2  0  0  0
 16 21  1  0  0  0
 16 31  1  0  0  0
 17 18  1  0  0  0
 17104  1  0  0  0
 18 19  2  0  0  0
 18105  1  0  0  0
 19 20  1  0  0  0
 19 24  1  0  0  0
 20 21  2  0  0  0
 20106  1  0  0  0
 21 23  1  0  0  0
 22 28  1  0  0  0
 22 32  2  0  0  0
 26 27  1  0  0  0
 28107  1  0  0  0
 28108  1  0  0  0
 29109  1  0  0  0
 29110  1  0  0  0
 33 34  1  0  0  0
 33 66  1  0  0  0
 33 70  2  0  0  0
 34 36  1  0  0  0
 34 59  1  0  0  0
 34111  1  0  0  0
 35 44  2  0  0  0
 35 45  1  0  0  0
 35 68  1  0  0  0
 36 56  1  0  0  0
 36112  1  0  0  0
 37 39  1  0  0  0
 37 47  1  0  0  0
 37 66  1  0  0  0
 37113  1  0  0  0
 38 43  2  0  0  0
 38 46  1  0  0  0
 38 47  1  0  0  0
 39 64  1  0  0  0
 39 67  2  0  0  0
 40 52  1  0  0  0
 40 53  2  0  0  0
 40 58  1  0  0  0
 41114  1  0  0  0
 41115  1  0  0  0
 41116  1  0  0  0
 41 48  1  0  0  0
 42 43  1  0  0  0
 42 66  1  0  0  0
 42117  1  0  0  0
 42118  1  0  0  0
 43 44  1  0  0  0
 44119  1  0  0  0
 45 46  2  0  0  0
 45120  1  0  0  0
 46121  1  0  0  0
 47122  1  0  0  0
 47123  1  0  0  0
 48 56  1  0  0  0
 48 65  1  0  0  0
 48124  1  0  0  0
 49 50  1  0  0  0
 49 53  1  0  0  0
 49 64  1  0  0  0
 49125  1  0  0  0
 50 51  1  0  0  0
 50126  1  0  0  0
 50127  1  0  0  0
 51 52  1  0  0  0
 51128  1  0  0  0
 51129  1  0  0  0
 52130  1  0  0  0
 52131  1  0  0  0
 53 54  1  0  0  0
 54 55  2  0  0  0
 54132  1  0  0  0
 55 57  1  0  0  0
 55133  1  0  0  0
 56 69  2  0  0  0
 57 58  2  0  0  0
 57134  1  0  0  0
 58135  1  0  0  0
 59 60  1  0  0  0
 59 61  1  0  0  0
 59 62  1  0  0  0
 60136  1  0  0  0
 60137  1  0  0  0
 60138  1  0  0  0
 61139  1  0  0  0
 61140  1  0  0  0
 61141  1  0  0  0
 62142  1  0  0  0
 62143  1  0  0  0
 62144  1  0  0  0
 63 65  1  0  0  0
 63145  1  0  0  0
 63146  1  0  0  0
 63147  1  0  0  0
 64148  1  0  0  0
 65149  1  0  0  0
 68 85  1  0  0  0
 71 72  2  0  0  0
 71 74  1  0  0  0
 71150  1  0  0  0
 72 76  1  0  0  0
 72151  1  0  0  0
 73 75  1  0  0  0
 73 76  2  0  0  0
 73152  1  0  0  0
 74 75  2  0  0  0
 74 82  1  0  0  0
 75 86  1  0  0  0
 76 90  1  0  0  0
 77 79  1  0  0  0
 77 81  1  0  0  0
 77153  1  0  0  0
 77154  1  0  0  0
 78 80  1  0  0  0
 78 87  1  0  0  0
 78155  1  0  0  0
 78156  1  0  0  0
 79 80  1  0  0  0
 79 88  1  0  0  0
 79157  1  0  0  0
 80 89  1  0  0  0
 80158  1  0  0  0
 81 83  1  0  0  0
 81 87  1  0  0  0
 81159  1  0  0  0
 82160  1  0  0  0
 82161  1  0  0  0
 82162  1  0  0  0
 83163  1  0  0  0
 83164  1  0  0  0
 83165  1  0  0  0
 84 87  1  0  0  0
 84166  1  0  0  0
 84167  1  0  0  0
 84 86  1  0  0  0
 85 86  1  0  0  0
 85168  1  0  0  0
 85169  1  0  0  0
 86170  1  0  0  0
 88171  1  0  0  0
 89172  1  0  0  0
 89173  1  0  0  0
 89174  1  0  0  0
M  CHG  1  89   1
M  ISO  4   1 100  68 101  85 101  88 100
M  END
> <chiral flag>
0

> <version>
0

> <s_m_source_file>
/data/baiqing/PycharmProjects/Reinvent-master-3.2/result/LINK_invent/BTK/process_docking_weight1_custom_sum_contain_oxygen_bond_distance_aromatic_linkinvent_7_9_3/rearranged_h_0146.sdf

> <i_m_source_file_index>
73

> <r_mmod_Potential_Energy-OPLS-2005>
136.410873413086

> <r_mmod_Stretch_Energy-OPLS-2005>
183.878143310547

> <r_mmod_Bend_Energy-OPLS-2005>
267.274383544922

> <r_mmod_Torsional_Energy-OPLS-2005>
285.764343261719

> <r_mmod_Improper_Torsional_Energy-OPLS-2005>
5.4670934677124

> <r_mmod_Van_der_Waal_Energy-OPLS-2005>
125.104789733887

> <r_mmod_Electrostatic_Energy-OPLS-2005>
-348.008453369141

> <r_mmod_Solvation_Energy-OPLS-2005>
-505.093994140625

> <b_mmod_Minimization_Converged-OPLS-2005>
0

> <r_mmod_RMS_Derivative-OPLS-2005>
2.47277545928955

$$$$
73
                    3D
 Structure written by MMmdl.
162171  0  0  1  0            999 V2000
  -30.7108  -14.4782   20.5580 C   0  0  0  0  0  0
  -30.4232  -12.2835   19.4274 C   0  0  0  0  0  0
  -29.4991  -12.5004   18.2113 C   0  0  0  0  0  0
  -28.0178  -12.3646   18.6186 C   0  0  0  0  0  0
  -27.6608  -13.2080   19.8733 C   0  0  2  0  0  0
  -28.6929  -12.9940   21.0007 C   0  0  0  0  0  0
  -25.2587  -13.8172   20.5670 C   0  0  0  0  0  0
  -24.1834  -13.0448   20.9158 C   0  0  0  0  0  0
  -24.6384  -11.6917   20.8709 C   0  0  0  0  0  0
  -23.9049  -10.4305   21.0392 C   0  0  0  0  0  0
  -24.3610   -9.4226   21.9172 C   0  0  0  0  0  0
  -23.6297   -8.2255   22.0750 C   0  0  0  0  0  0
  -22.4279   -8.0286   21.3545 C   0  0  0  0  0  0
  -21.9903   -9.0250   20.4642 C   0  0  0  0  0  0
  -22.7217  -10.2138   20.3049 C   0  0  0  0  0  0
  -21.6859   -6.0734   22.5278 C   0  0  0  0  0  0
  -21.4014   -6.5636   23.8207 C   0  0  0  0  0  0
  -21.3663   -5.6792   24.9171 C   0  0  0  0  0  0
  -21.6049   -4.3054   24.7219 C   0  0  0  0  0  0
  -21.8823   -3.8145   23.4342 C   0  0  0  0  0  0
  -21.9198   -4.6962   22.3400 C   0  0  0  0  0  0
  -22.7861  -13.5247   21.1838 C   0  0  0  0  0  0
  -22.1669   -4.2146   21.0979 F   0  0  0  0  0  0
  -21.5633   -3.4539   25.7731 F   0  0  0  0  0  0
  -30.0306  -13.2547   20.4540 N   0  0  0  0  0  0
  -26.3015  -12.9342   20.3335 N   0  0  0  0  0  0
  -25.9303  -11.6498   20.5719 N   0  0  0  0  0  0
  -22.0516  -12.8228   22.0394 N   0  0  0  0  0  0
  -25.4340  -15.1891   20.4115 N   0  0  0  0  0  0
  -31.8407  -14.6872   20.1077 O   0  0  0  0  0  0
  -21.6654   -6.8874   21.4238 O   0  0  0  0  0  0
  -22.3539  -14.5553   20.6697 O   0  0  0  0  0  0
  -24.6152  -31.8682   23.2113 C   0  0  0  0  0  0
  -25.9051  -32.4817   23.8401 C   0  0  1  0  0  0
  -27.2276  -27.4225   20.0835 C   0  0  0  0  0  0
  -25.5909  -33.8614   24.2326 N   0  0  0  0  0  0
  -23.4022  -30.4951   21.5526 C   0  0  2  0  0  0
  -24.8448  -28.9630   20.1158 C   0  0  0  0  0  0
  -22.7409  -29.4669   22.4988 C   0  0  0  0  0  0
  -18.0273  -28.1376   22.8496 C   0  0  0  0  0  0
  -24.1490  -36.7320   23.2635 C   0  0  0  0  0  0
  -25.9335  -30.8291   21.3667 C   0  0  0  0  0  0
  -26.0080  -29.4633   20.7124 C   0  0  0  0  0  0
  -27.1999  -28.6996   20.6965 C   0  0  0  0  0  0
  -26.0347  -26.9406   19.4887 C   0  0  0  0  0  0
  -24.8530  -27.7005   19.5050 C   0  0  0  0  0  0
  -23.6099  -29.8328   20.1658 C   0  0  0  0  0  0
  -25.4110  -36.3106   24.0332 C   0  0  1  0  0  0
  -20.5861  -28.3664   23.1318 C   0  0  2  0  0  0
  -20.6759  -26.9400   22.5414 C   0  0  0  0  0  0
  -19.5739  -26.6385   21.5209 C   0  0  0  0  0  0
  -18.1919  -26.7926   22.1622 C   0  0  0  0  0  0
  -19.1520  -28.8837   23.2906 C   0  0  0  0  0  0
  -18.9446  -30.1443   23.8914 C   0  0  0  0  0  0
  -17.6448  -30.6582   24.0565 C   0  0  0  0  0  0
  -25.9039  -34.9468   23.5124 C   0  0  0  0  0  0
  -16.5341  -29.9083   23.6323 C   0  0  0  0  0  0
  -16.7262  -28.6499   23.0348 C   0  0  0  0  0  0
  -26.4475  -31.6593   25.0728 C   0  0  0  0  0  0
  -25.3744  -31.3708   26.1479 C   0  0  0  0  0  0
  -27.0298  -30.3028   24.6113 C   0  0  0  0  0  0
  -27.6052  -32.4309   25.7496 C   0  0  0  0  0  0
  -27.5582  -37.1813   24.8463 C   0  0  0  0  0  0
  -21.4136  -29.3040   22.3730 N   0  0  0  0  0  0
  -26.4296  -37.3789   23.9406 N   0  0  0  0  0  0
  -24.6688  -31.0782   22.1015 N   0  0  0  0  0  0
  -23.4180  -28.8197   23.3019 O   0  0  0  0  0  0
  -28.4044  -26.6898   20.0938 O   0  0  0  0  0  0
  -26.5598  -34.8919   22.4683 O   0  0  0  0  0  0
  -23.5344  -32.1436   23.7505 O   0  0  0  0  0  0
  -29.7977  -19.1130   21.7606 C   0  0  0  0  0  0
  -30.8776  -18.7765   19.6240 C   0  0  0  0  0  0
  -29.6440  -17.7125   21.8989 C   0  0  0  0  0  0
  -30.7071  -17.3821   19.7515 C   0  0  0  0  0  0
  -30.4232  -19.6688   20.6222 C   0  0  0  0  0  0
  -30.1025  -16.8192   20.9040 C   0  0  0  0  0  0
  -30.7548  -21.7641   19.1197 C   0  0  0  0  0  0
  -30.6707  -21.1630   20.5088 C   0  0  1  0  0  0
  -29.6539  -22.2169   20.0514 C   0  0  1  0  0  0
  -31.1214  -26.5326   18.2739 C   0  0  0  0  0  0
  -30.9879  -25.6427   19.5212 C   0  0  0  0  0  0
  -28.4043  -25.3995   19.4534 C   0  0  0  0  0  0
  -29.7802  -24.6770   19.4659 C   0  0  2  0  0  0
  -29.8794  -23.6182   20.5188 N   0  3  0  0  0  0
  -29.9013  -15.4557   21.0909 O   0  0  0  0  0  0
  -31.4688  -12.3910   19.1348 H   0  0  0  0  0  0
  -30.3189  -11.2687   19.8142 H   0  0  0  0  0  0
  -29.7380  -11.7846   17.4237 H   0  0  0  0  0  0
  -29.6742  -13.4903   17.7863 H   0  0  0  0  0  0
  -27.8248  -11.3092   18.8144 H   0  0  0  0  0  0
  -27.3723  -12.6406   17.7841 H   0  0  0  0  0  0
  -27.7071  -14.2555   19.5753 H   0  0  0  0  0  0
  -28.6484  -11.9672   21.3662 H   0  0  0  0  0  0
  -28.4638  -13.6229   21.8629 H   0  0  0  0  0  0
  -25.2761   -9.5711   22.4735 H   0  0  0  0  0  0
  -24.0020   -7.4647   22.7464 H   0  0  0  0  0  0
  -21.0842   -8.8758   19.8942 H   0  0  0  0  0  0
  -22.3674  -10.9672   19.6155 H   0  0  0  0  0  0
  -21.2004   -7.6144   23.9704 H   0  0  0  0  0  0
  -21.1483   -6.0524   25.9070 H   0  0  0  0  0  0
  -22.0600   -2.7607   23.2841 H   0  0  0  0  0  0
  -22.4151  -11.9893   22.4778 H   0  0  0  0  0  0
  -21.1128  -13.1234   22.2598 H   0  0  0  0  0  0
  -24.6763  -15.8526   20.5304 H   0  0  0  0  0  0
  -26.3030  -15.6254   20.1286 H   0  0  0  0  0  0
  -26.7118  -32.5529   23.1159 H   0  0  0  0  0  0
  -25.0056  -33.9782   25.0469 H   0  0  0  0  0  0
  -22.6906  -31.3119   21.4165 H   0  0  0  0  0  0
  -23.3740  -35.9665   23.3300 H   0  0  0  0  0  0
  -24.3586  -36.8936   22.2049 H   0  0  0  0  0  0
  -23.7251  -37.6529   23.6652 H   0  0  0  0  0  0
  -26.0479  -31.5961   20.5993 H   0  0  0  0  0  0
  -26.8207  -30.8796   21.9859 H   0  0  0  0  0  0
  -28.0987  -29.0852   21.1577 H   0  0  0  0  0  0
  -25.9768  -25.9777   19.0035 H   0  0  0  0  0  0
  -23.9561  -27.3095   19.0441 H   0  0  0  0  0  0
  -23.7200  -30.6093   19.4080 H   0  0  0  0  0  0
  -22.7324  -29.2561   19.8682 H   0  0  0  0  0  0
  -25.1281  -36.1971   25.0825 H   0  0  0  0  0  0
  -20.9958  -28.3224   24.1437 H   0  0  0  0  0  0
  -20.5658  -26.2269   23.3597 H   0  0  0  0  0  0
  -21.6631  -26.7439   22.1207 H   0  0  0  0  0  0
  -19.6898  -25.6299   21.1229 H   0  0  0  0  0  0
  -19.6678  -27.3203   20.6746 H   0  0  0  0  0  0
  -17.4187  -26.6677   21.4025 H   0  0  0  0  0  0
  -18.0325  -26.0062   22.9012 H   0  0  0  0  0  0
  -19.7920  -30.7256   24.2293 H   0  0  0  0  0  0
  -17.5001  -31.6266   24.5162 H   0  0  0  0  0  0
  -15.5341  -30.2988   23.7639 H   0  0  0  0  0  0
  -15.8663  -28.0825   22.7048 H   0  0  0  0  0  0
  -24.5910  -30.7061   25.7818 H   0  0  0  0  0  0
  -24.8942  -32.2869   26.4929 H   0  0  0  0  0  0
  -25.8097  -30.8870   27.0232 H   0  0  0  0  0  0
  -26.2839  -29.6801   24.1158 H   0  0  0  0  0  0
  -27.4044  -29.7257   25.4577 H   0  0  0  0  0  0
  -27.8688  -30.4330   23.9275 H   0  0  0  0  0  0
  -27.2667  -33.3596   26.2100 H   0  0  0  0  0  0
  -28.3852  -32.6886   25.0321 H   0  0  0  0  0  0
  -28.0729  -31.8414   26.5391 H   0  0  0  0  0  0
  -28.2596  -38.0111   24.7502 H   0  0  0  0  0  0
  -28.1079  -36.2641   24.6295 H   0  0  0  0  0  0
  -27.2305  -37.1471   25.8867 H   0  0  0  0  0  0
  -20.9288  -29.8778   21.6971 H   0  0  0  0  0  0
  -26.0184  -38.2870   24.1397 H   0  0  0  0  0  0
  -29.4465  -19.7616   22.5517 H   0  0  0  0  0  0
  -31.3781  -19.1520   18.7423 H   0  0  0  0  0  0
  -29.1670  -17.3220   22.7871 H   0  0  0  0  0  0
  -31.0569  -16.7545   18.9451 H   0  0  0  0  0  0
  -30.4256  -21.1778   18.2636 H   0  0  0  0  0  0
  -31.5911  -22.4321   18.9212 H   0  0  0  0  0  0
  -31.4331  -21.4646   21.2256 H   0  0  0  0  0  0
  -28.6223  -21.9469   19.8327 H   0  0  0  0  0  0
  -30.2522  -27.1777   18.1411 H   0  0  0  0  0  0
  -31.2343  -25.9337   17.3691 H   0  0  0  0  0  0
  -31.9957  -27.1797   18.3485 H   0  0  0  0  0  0
  -30.9312  -26.2703   20.4125 H   0  0  0  0  0  0
  -31.9107  -25.0683   19.6171 H   0  0  0  0  0  0
  -27.6400  -24.7512   19.8851 H   0  0  0  0  0  0
  -28.1311  -25.5549   18.4082 H   0  0  0  0  0  0
  -29.8503  -24.1608   18.5073 H   0  0  0  0  0  0
  -30.8019  -23.6641   20.9196 H   0  0  0  0  0  0
  -29.2389  -23.8249   21.2706 H   0  0  0  0  0  0
  1 25  1  0  0  0
  1 30  2  0  0  0
  1 85  1  0  0  0
  2  3  1  0  0  0
  2 25  1  0  0  0
  2 86  1  0  0  0
  2 87  1  0  0  0
  3  4  1  0  0  0
  3 88  1  0  0  0
  3 89  1  0  0  0
  4  5  1  0  0  0
  4 90  1  0  0  0
  4 91  1  0  0  0
  5  6  1  0  0  0
  5 26  1  0  0  0
  5 92  1  0  0  0
  6 25  1  0  0  0
  6 93  1  0  0  0
  6 94  1  0  0  0
  7  8  2  0  0  0
  7 26  1  0  0  0
  7 29  1  0  0  0
  8  9  1  0  0  0
  8 22  1  0  0  0
  9 10  1  0  0  0
  9 27  2  0  0  0
 10 11  2  0  0  0
 10 15  1  0  0  0
 11 12  1  0  0  0
 11 95  1  0  0  0
 12 13  2  0  0  0
 12 96  1  0  0  0
 13 14  1  0  0  0
 13 31  1  0  0  0
 14 15  2  0  0  0
 14 97  1  0  0  0
 15 98  1  0  0  0
 16 17  2  0  0  0
 16 21  1  0  0  0
 16 31  1  0  0  0
 17 18  1  0  0  0
 17 99  1  0  0  0
 18 19  2  0  0  0
 18100  1  0  0  0
 19 20  1  0  0  0
 19 24  1  0  0  0
 20 21  2  0  0  0
 20101  1  0  0  0
 21 23  1  0  0  0
 22 28  1  0  0  0
 22 32  2  0  0  0
 26 27  1  0  0  0
 28102  1  0  0  0
 28103  1  0  0  0
 29104  1  0  0  0
 29105  1  0  0  0
 33 34  1  0  0  0
 33 66  1  0  0  0
 33 70  2  0  0  0
 34 36  1  0  0  0
 34 59  1  0  0  0
 34106  1  0  0  0
 35 44  2  0  0  0
 35 45  1  0  0  0
 35 68  1  0  0  0
 36 56  1  0  0  0
 36107  1  0  0  0
 37 39  1  0  0  0
 37 47  1  0  0  0
 37 66  1  0  0  0
 37108  1  0  0  0
 38 43  2  0  0  0
 38 46  1  0  0  0
 38 47  1  0  0  0
 39 64  1  0  0  0
 39 67  2  0  0  0
 40 52  1  0  0  0
 40 53  2  0  0  0
 40 58  1  0  0  0
 41109  1  0  0  0
 41110  1  0  0  0
 41111  1  0  0  0
 41 48  1  0  0  0
 42 43  1  0  0  0
 42 66  1  0  0  0
 42112  1  0  0  0
 42113  1  0  0  0
 43 44  1  0  0  0
 44114  1  0  0  0
 45 46  2  0  0  0
 45115  1  0  0  0
 46116  1  0  0  0
 47117  1  0  0  0
 47118  1  0  0  0
 48 56  1  0  0  0
 48 65  1  0  0  0
 48119  1  0  0  0
 49 50  1  0  0  0
 49 53  1  0  0  0
 49 64  1  0  0  0
 49120  1  0  0  0
 50 51  1  0  0  0
 50121  1  0  0  0
 50122  1  0  0  0
 51 52  1  0  0  0
 51123  1  0  0  0
 51124  1  0  0  0
 52125  1  0  0  0
 52126  1  0  0  0
 53 54  1  0  0  0
 54 55  2  0  0  0
 54127  1  0  0  0
 55 57  1  0  0  0
 55128  1  0  0  0
 56 69  2  0  0  0
 57 58  2  0  0  0
 57129  1  0  0  0
 58130  1  0  0  0
 59 60  1  0  0  0
 59 61  1  0  0  0
 59 62  1  0  0  0
 60131  1  0  0  0
 60132  1  0  0  0
 60133  1  0  0  0
 61134  1  0  0  0
 61135  1  0  0  0
 61136  1  0  0  0
 62137  1  0  0  0
 62138  1  0  0  0
 62139  1  0  0  0
 63 65  1  0  0  0
 63140  1  0  0  0
 63141  1  0  0  0
 63142  1  0  0  0
 64143  1  0  0  0
 65144  1  0  0  0
 68 82  1  0  0  0
 71 73  2  0  0  0
 71 75  1  0  0  0
 71145  1  0  0  0
 72 74  1  0  0  0
 72 75  2  0  0  0
 72146  1  0  0  0
 73 76  1  0  0  0
 73147  1  0  0  0
 74 76  2  0  0  0
 74148  1  0  0  0
 75 78  1  0  0  0
 76 85  1  0  0  0
 77 78  1  0  0  0
 77 79  1  0  0  0
 77149  1  0  0  0
 77150  1  0  0  0
 78 79  1  0  0  0
 78151  1  0  0  0
 79 84  1  0  0  0
 79152  1  0  0  0
 80 81  1  0  0  0
 80153  1  0  0  0
 80154  1  0  0  0
 80155  1  0  0  0
 81156  1  0  0  0
 81157  1  0  0  0
 81 83  1  0  0  0
 82 83  1  0  0  0
 82158  1  0  0  0
 82159  1  0  0  0
 83 84  1  0  0  0
 83160  1  0  0  0
 84161  1  0  0  0
 84162  1  0  0  0
M  CHG  1  84   1
M  ISO  4   1 100  68 101  82 101  85 100
M  END
> <chiral flag>
0

> <version>
0

> <s_m_source_file>
/data/baiqing/PycharmProjects/Reinvent-master-3.2/result/LINK_invent/BTK/process_docking_weight1_custom_sum_contain_oxygen_bond_distance_aromatic_linkinvent_7_9_3/rearranged_h_0146.sdf

> <i_m_source_file_index>
74

> <r_mmod_Potential_Energy-OPLS-2005>
-69.4415740966797

> <r_mmod_Stretch_Energy-OPLS-2005>
41.4695701599121

> <r_mmod_Bend_Energy-OPLS-2005>
109.924362182617

> <r_mmod_Torsional_Energy-OPLS-2005>
228.884628295898

> <r_mmod_Improper_Torsional_Energy-OPLS-2005>
3.42025446891785

> <r_mmod_Van_der_Waal_Energy-OPLS-2005>
158.456848144531

> <r_mmod_Electrostatic_Energy-OPLS-2005>
-187.371612548828

> <r_mmod_Solvation_Energy-OPLS-2005>
-437.280120849609

> <b_mmod_Minimization_Converged-OPLS-2005>
0

> <r_mmod_RMS_Derivative-OPLS-2005>
0.926775991916656

$$$$
74
                    3D
 Structure written by MMmdl.
165175  0  0  1  0            999 V2000
  -30.6635  -14.5644   20.4864 C   0  0  0  0  0  0
  -30.4230  -12.3406   19.4475 C   0  0  0  0  0  0
  -29.5011  -12.4908   18.2187 C   0  0  0  0  0  0
  -28.0225  -12.3449   18.6285 C   0  0  0  0  0  0
  -27.6522  -13.2140   19.8604 C   0  0  2  0  0  0
  -28.6954  -13.0668   20.9917 C   0  0  0  0  0  0
  -25.2558  -13.8169   20.5672 C   0  0  0  0  0  0
  -24.1827  -13.0438   20.9191 C   0  0  0  0  0  0
  -24.6389  -11.6910   20.8737 C   0  0  0  0  0  0
  -23.9059  -10.4292   21.0402 C   0  0  0  0  0  0
  -24.3615   -9.4210   21.9180 C   0  0  0  0  0  0
  -23.6296   -8.2244   22.0750 C   0  0  0  0  0  0
  -22.4278   -8.0278   21.3541 C   0  0  0  0  0  0
  -21.9909   -9.0251   20.4644 C   0  0  0  0  0  0
  -22.7232  -10.2134   20.3051 C   0  0  0  0  0  0
  -21.6855   -6.0736   22.5278 C   0  0  0  0  0  0
  -21.4014   -6.5640   23.8212 C   0  0  0  0  0  0
  -21.3659   -5.6793   24.9175 C   0  0  0  0  0  0
  -21.6045   -4.3054   24.7225 C   0  0  0  0  0  0
  -21.8820   -3.8146   23.4346 C   0  0  0  0  0  0
  -21.9195   -4.6963   22.3403 C   0  0  0  0  0  0
  -22.7850  -13.5233   21.1858 C   0  0  0  0  0  0
  -22.1662   -4.2146   21.0980 F   0  0  0  0  0  0
  -21.5630   -3.4538   25.7739 F   0  0  0  0  0  0
  -30.0165  -13.3658   20.4242 N   0  0  0  0  0  0
  -26.2979  -12.9348   20.3300 N   0  0  0  0  0  0
  -25.9314  -11.6504   20.5750 N   0  0  0  0  0  0
  -22.0496  -12.8222   22.0415 N   0  0  0  0  0  0
  -25.4262  -15.1892   20.4077 N   0  0  0  0  0  0
  -31.8477  -14.6846   20.1620 O   0  0  0  0  0  0
  -21.6641   -6.8877   21.4238 O   0  0  0  0  0  0
  -22.3533  -14.5542   20.6709 O   0  0  0  0  0  0
  -24.6190  -31.8633   23.2054 C   0  0  0  0  0  0
  -25.9067  -32.4796   23.8367 C   0  0  1  0  0  0
  -27.2317  -27.3870   20.1153 C   0  0  0  0  0  0
  -25.5907  -33.8597   24.2303 N   0  0  0  0  0  0
  -23.4096  -30.4854   21.5463 C   0  0  2  0  0  0
  -24.8568  -28.9392   20.1184 C   0  0  0  0  0  0
  -22.7435  -29.4644   22.4978 C   0  0  0  0  0  0
  -18.0278  -28.1379   22.8491 C   0  0  0  0  0  0
  -24.1490  -36.7310   23.2642 C   0  0  0  0  0  0
  -25.9420  -30.8168   21.3628 C   0  0  0  0  0  0
  -26.0196  -29.4460   20.7131 C   0  0  0  0  0  0
  -27.2137  -28.6803   20.6993 C   0  0  0  0  0  0
  -26.0517  -26.9007   19.5180 C   0  0  0  0  0  0
  -24.8703  -27.6684   19.5155 C   0  0  0  0  0  0
  -23.6206  -29.8124   20.1634 C   0  0  0  0  0  0
  -25.4111  -36.3100   24.0334 C   0  0  1  0  0  0
  -20.5871  -28.3672   23.1311 C   0  0  2  0  0  0
  -20.6767  -26.9406   22.5419 C   0  0  0  0  0  0
  -19.5747  -26.6385   21.5217 C   0  0  0  0  0  0
  -18.1925  -26.7929   22.1622 C   0  0  0  0  0  0
  -19.1527  -28.8845   23.2892 C   0  0  0  0  0  0
  -18.9454  -30.1453   23.8903 C   0  0  0  0  0  0
  -17.6454  -30.6586   24.0567 C   0  0  0  0  0  0
  -25.9039  -34.9465   23.5118 C   0  0  0  0  0  0
  -16.5345  -29.9086   23.6329 C   0  0  0  0  0  0
  -16.7264  -28.6503   23.0348 C   0  0  0  0  0  0
  -26.4479  -31.6585   25.0711 C   0  0  0  0  0  0
  -25.3740  -31.3696   26.1456 C   0  0  0  0  0  0
  -27.0313  -30.3026   24.6109 C   0  0  0  0  0  0
  -27.6058  -32.4306   25.7466 C   0  0  0  0  0  0
  -27.5582  -37.1806   24.8468 C   0  0  0  0  0  0
  -21.4159  -29.3032   22.3714 N   0  0  0  0  0  0
  -26.4297  -37.3787   23.9410 N   0  0  0  0  0  0
  -24.6753  -31.0711   22.0962 N   0  0  0  0  0  0
  -23.4191  -28.8194   23.3037 O   0  0  0  0  0  0
  -28.3836  -26.6203   20.0846 O   0  0  0  0  0  0
  -26.5609  -34.8923   22.4685 O   0  0  0  0  0  0
  -23.5374  -32.1394   23.7430 O   0  0  0  0  0  0
  -29.7723  -21.1560   17.2439 C   0  0  0  0  0  0
  -29.1993  -20.5527   19.9019 C   0  0  0  0  0  0
  -29.6007  -19.8115   17.6182 C   0  0  0  0  0  0
  -29.4068  -19.4665   18.9888 C   0  0  0  0  0  0
  -29.6538  -22.2074   18.1650 C   0  0  0  0  0  0
  -29.2537  -21.9302   19.4974 C   0  0  0  0  0  0
  -28.8281  -18.9754   15.2493 C   0  0  0  0  0  0
  -28.4976  -17.8658   16.2148 C   0  0  0  0  0  0
  -30.5602  -17.1978   18.8258 C   0  0  0  0  0  0
  -29.6555  -18.7975   16.5040 C   0  0  0  0  0  0
  -29.3585  -17.9593   19.3579 C   0  0  1  0  0  0
  -30.2401  -17.0373   20.2715 C   0  0  1  0  0  0
  -30.0269  -23.5978   17.6729 C   0  0  0  0  0  0
  -28.3779  -25.3760   20.8374 C   0  0  0  0  0  0
  -28.0902  -24.0349   20.0758 C   0  0  0  0  0  0
  -29.8736  -15.6643   20.6255 N   0  0  0  0  0  0
  -29.0106  -22.9531   20.4161 O   0  0  0  0  0  0
  -31.4684  -12.4391   19.1494 H   0  0  0  0  0  0
  -30.3280  -11.3448   19.8832 H   0  0  0  0  0  0
  -29.7549  -11.7454   17.4638 H   0  0  0  0  0  0
  -29.6596  -13.4649   17.7530 H   0  0  0  0  0  0
  -27.8457  -11.2922   18.8520 H   0  0  0  0  0  0
  -27.3723  -12.5885   17.7873 H   0  0  0  0  0  0
  -27.6717  -14.2488   19.5190 H   0  0  0  0  0  0
  -28.6858  -12.0537   21.3963 H   0  0  0  0  0  0
  -28.4608  -13.7284   21.8275 H   0  0  0  0  0  0
  -25.2760   -9.5691   22.4755 H   0  0  0  0  0  0
  -24.0006   -7.4638   22.7471 H   0  0  0  0  0  0
  -21.0839   -8.8767   19.8953 H   0  0  0  0  0  0
  -22.3684  -10.9673   19.6161 H   0  0  0  0  0  0
  -21.2002   -7.6148   23.9713 H   0  0  0  0  0  0
  -21.1479   -6.0524   25.9079 H   0  0  0  0  0  0
  -22.0600   -2.7606   23.2847 H   0  0  0  0  0  0
  -22.4114  -11.9874   22.4786 H   0  0  0  0  0  0
  -21.1115  -13.1241   22.2631 H   0  0  0  0  0  0
  -24.6565  -15.8409   20.5155 H   0  0  0  0  0  0
  -26.2693  -15.6285   20.0617 H   0  0  0  0  0  0
  -26.7138  -32.5499   23.1126 H   0  0  0  0  0  0
  -25.0062  -33.9749   25.0452 H   0  0  0  0  0  0
  -22.7004  -31.3034   21.4027 H   0  0  0  0  0  0
  -23.3749  -35.9647   23.3311 H   0  0  0  0  0  0
  -24.3587  -36.8916   22.2057 H   0  0  0  0  0  0
  -23.7239  -37.6513   23.6657 H   0  0  0  0  0  0
  -26.0597  -31.5792   20.5915 H   0  0  0  0  0  0
  -26.8279  -30.8716   21.9838 H   0  0  0  0  0  0
  -28.1159  -29.0713   21.1487 H   0  0  0  0  0  0
  -26.0459  -25.9277   19.0482 H   0  0  0  0  0  0
  -23.9771  -27.2737   19.0509 H   0  0  0  0  0  0
  -23.7325  -30.5845   19.4010 H   0  0  0  0  0  0
  -22.7433  -29.2343   19.8668 H   0  0  0  0  0  0
  -25.1284  -36.1963   25.0825 H   0  0  0  0  0  0
  -20.9957  -28.3236   24.1433 H   0  0  0  0  0  0
  -20.5682  -26.2277   23.3605 H   0  0  0  0  0  0
  -21.6634  -26.7450   22.1203 H   0  0  0  0  0  0
  -19.6912  -25.6301   21.1235 H   0  0  0  0  0  0
  -19.6691  -27.3207   20.6758 H   0  0  0  0  0  0
  -17.4198  -26.6686   21.4019 H   0  0  0  0  0  0
  -18.0320  -26.0062   22.9008 H   0  0  0  0  0  0
  -19.7928  -30.7268   24.2273 H   0  0  0  0  0  0
  -17.5008  -31.6268   24.5164 H   0  0  0  0  0  0
  -15.5347  -30.2987   23.7656 H   0  0  0  0  0  0
  -15.8661  -28.0826   22.7056 H   0  0  0  0  0  0
  -24.5929  -30.7019   25.7801 H   0  0  0  0  0  0
  -24.8908  -32.2844   26.4897 H   0  0  0  0  0  0
  -25.8089  -30.8879   27.0220 H   0  0  0  0  0  0
  -26.2852  -29.6778   24.1185 H   0  0  0  0  0  0
  -27.4093  -29.7279   25.4572 H   0  0  0  0  0  0
  -27.8685  -30.4341   23.9251 H   0  0  0  0  0  0
  -27.2690  -33.3613   26.2043 H   0  0  0  0  0  0
  -28.3860  -32.6846   25.0279 H   0  0  0  0  0  0
  -28.0733  -31.8425   26.5370 H   0  0  0  0  0  0
  -28.2605  -38.0099   24.7503 H   0  0  0  0  0  0
  -28.1063  -36.2625   24.6298 H   0  0  0  0  0  0
  -27.2299  -37.1455   25.8872 H   0  0  0  0  0  0
  -20.9339  -29.8736   21.6907 H   0  0  0  0  0  0
  -26.0185  -38.2868   24.1397 H   0  0  0  0  0  0
  -30.0101  -21.3860   16.2141 H   0  0  0  0  0  0
  -28.9776  -20.3252   20.9348 H   0  0  0  0  0  0
  -28.1340  -19.8126   15.2021 H   0  0  0  0  0  0
  -29.2724  -18.6819   14.3003 H   0  0  0  0  0  0
  -28.7292  -16.8510   15.8968 H   0  0  0  0  0  0
  -27.5893  -17.9759   16.8042 H   0  0  0  0  0  0
  -31.4776  -17.7447   18.6142 H   0  0  0  0  0  0
  -30.3494  -16.3788   18.1399 H   0  0  0  0  0  0
  -30.6687  -18.4243   16.3631 H   0  0  0  0  0  0
  -28.3696  -17.5716   19.1203 H   0  0  0  0  0  0
  -30.8769  -17.5577   20.9850 H   0  0  0  0  0  0
  -30.8869  -23.5445   17.0047 H   0  0  0  0  0  0
  -30.3083  -24.2579   18.4931 H   0  0  0  0  0  0
  -29.2055  -24.0476   17.1145 H   0  0  0  0  0  0
  -29.3769  -25.3004   21.2670 H   0  0  0  0  0  0
  -27.7139  -25.4577   21.6998 H   0  0  0  0  0  0
  -28.0221  -24.2351   19.0117 H   0  0  0  0  0  0
  -27.0878  -23.6982   20.3412 H   0  0  0  0  0  0
  -28.9102  -15.4966   20.8727 H   0  0  0  0  0  0
  1 25  1  0  0  0
  1 30  2  0  0  0
  1 86  1  0  0  0
  2  3  1  0  0  0
  2 25  1  0  0  0
  2 88  1  0  0  0
  2 89  1  0  0  0
  3  4  1  0  0  0
  3 90  1  0  0  0
  3 91  1  0  0  0
  4  5  1  0  0  0
  4 92  1  0  0  0
  4 93  1  0  0  0
  5  6  1  0  0  0
  5 26  1  0  0  0
  5 94  1  0  0  0
  6 25  1  0  0  0
  6 95  1  0  0  0
  6 96  1  0  0  0
  7  8  2  0  0  0
  7 26  1  0  0  0
  7 29  1  0  0  0
  8  9  1  0  0  0
  8 22  1  0  0  0
  9 10  1  0  0  0
  9 27  2  0  0  0
 10 11  2  0  0  0
 10 15  1  0  0  0
 11 12  1  0  0  0
 11 97  1  0  0  0
 12 13  2  0  0  0
 12 98  1  0  0  0
 13 14  1  0  0  0
 13 31  1  0  0  0
 14 15  2  0  0  0
 14 99  1  0  0  0
 15100  1  0  0  0
 16 17  2  0  0  0
 16 21  1  0  0  0
 16 31  1  0  0  0
 17 18  1  0  0  0
 17101  1  0  0  0
 18 19  2  0  0  0
 18102  1  0  0  0
 19 20  1  0  0  0
 19 24  1  0  0  0
 20 21  2  0  0  0
 20103  1  0  0  0
 21 23  1  0  0  0
 22 28  1  0  0  0
 22 32  2  0  0  0
 26 27  1  0  0  0
 28104  1  0  0  0
 28105  1  0  0  0
 29106  1  0  0  0
 29107  1  0  0  0
 33 34  1  0  0  0
 33 66  1  0  0  0
 33 70  2  0  0  0
 34 36  1  0  0  0
 34 59  1  0  0  0
 34108  1  0  0  0
 35 44  2  0  0  0
 35 45  1  0  0  0
 35 68  1  0  0  0
 36 56  1  0  0  0
 36109  1  0  0  0
 37 39  1  0  0  0
 37 47  1  0  0  0
 37 66  1  0  0  0
 37110  1  0  0  0
 38 43  2  0  0  0
 38 46  1  0  0  0
 38 47  1  0  0  0
 39 64  1  0  0  0
 39 67  2  0  0  0
 40 52  1  0  0  0
 40 53  2  0  0  0
 40 58  1  0  0  0
 41111  1  0  0  0
 41112  1  0  0  0
 41113  1  0  0  0
 41 48  1  0  0  0
 42 43  1  0  0  0
 42 66  1  0  0  0
 42114  1  0  0  0
 42115  1  0  0  0
 43 44  1  0  0  0
 44116  1  0  0  0
 45 46  2  0  0  0
 45117  1  0  0  0
 46118  1  0  0  0
 47119  1  0  0  0
 47120  1  0  0  0
 48 56  1  0  0  0
 48 65  1  0  0  0
 48121  1  0  0  0
 49 50  1  0  0  0
 49 53  1  0  0  0
 49 64  1  0  0  0
 49122  1  0  0  0
 50 51  1  0  0  0
 50123  1  0  0  0
 50124  1  0  0  0
 51 52  1  0  0  0
 51125  1  0  0  0
 51126  1  0  0  0
 52127  1  0  0  0
 52128  1  0  0  0
 53 54  1  0  0  0
 54 55  2  0  0  0
 54129  1  0  0  0
 55 57  1  0  0  0
 55130  1  0  0  0
 56 69  2  0  0  0
 57 58  2  0  0  0
 57131  1  0  0  0
 58132  1  0  0  0
 59 60  1  0  0  0
 59 61  1  0  0  0
 59 62  1  0  0  0
 60133  1  0  0  0
 60134  1  0  0  0
 60135  1  0  0  0
 61136  1  0  0  0
 61137  1  0  0  0
 61138  1  0  0  0
 62139  1  0  0  0
 62140  1  0  0  0
 62141  1  0  0  0
 63 65  1  0  0  0
 63142  1  0  0  0
 63143  1  0  0  0
 63144  1  0  0  0
 64145  1  0  0  0
 65146  1  0  0  0
 68 84  1  0  0  0
 71 73  2  0  0  0
 71 75  1  0  0  0
 71147  1  0  0  0
 72 74  2  0  0  0
 72 76  1  0  0  0
 72148  1  0  0  0
 73 74  1  0  0  0
 73 80  1  0  0  0
 74 81  1  0  0  0
 75 76  2  0  0  0
 75 83  1  0  0  0
 76 87  1  0  0  0
 77 78  1  0  0  0
 77 80  1  0  0  0
 77149  1  0  0  0
 77150  1  0  0  0
 78 80  1  0  0  0
 78151  1  0  0  0
 78152  1  0  0  0
 79 81  1  0  0  0
 79 82  1  0  0  0
 79153  1  0  0  0
 79154  1  0  0  0
 80155  1  0  0  0
 81 82  1  0  0  0
 81156  1  0  0  0
 82 86  1  0  0  0
 82157  1  0  0  0
 83158  1  0  0  0
 83159  1  0  0  0
 83160  1  0  0  0
 84 85  1  0  0  0
 84161  1  0  0  0
 84162  1  0  0  0
 85 87  1  0  0  0
 85163  1  0  0  0
 85164  1  0  0  0
 86165  1  0  0  0
M  ISO  4   1 100  68 101  84 101  86 100
M  END
> <chiral flag>
0

> <version>
0

> <s_m_source_file>
/data/baiqing/PycharmProjects/Reinvent-master-3.2/result/LINK_invent/BTK/process_docking_weight1_custom_sum_contain_oxygen_bond_distance_aromatic_linkinvent_7_9_3/rearranged_h_0146.sdf

> <i_m_source_file_index>
75

> <r_mmod_Potential_Energy-OPLS-2005>
131.851913452148

> <r_mmod_Stretch_Energy-OPLS-2005>
61.9318618774414

> <r_mmod_Bend_Energy-OPLS-2005>
138.739410400391

> <r_mmod_Torsional_Energy-OPLS-2005>
355.153106689453

> <r_mmod_Improper_Torsional_Energy-OPLS-2005>
8.05130863189697

> <r_mmod_Van_der_Waal_Energy-OPLS-2005>
146.723999023438

> <r_mmod_Electrostatic_Energy-OPLS-2005>
-393.4765625

> <r_mmod_Solvation_Energy-OPLS-2005>
-212.447677612305

> <b_mmod_Minimization_Converged-OPLS-2005>
0

> <r_mmod_RMS_Derivative-OPLS-2005>
0.837257921695709

$$$$
75
                    3D
 Structure written by MMmdl.
179188  0  0  1  0            999 V2000
  -30.6681  -14.6042   20.4937 C   0  0  0  0  0  0
  -30.4207  -12.3701   19.4520 C   0  0  0  0  0  0
  -29.4983  -12.5001   18.2220 C   0  0  0  0  0  0
  -28.0210  -12.3390   18.6359 C   0  0  0  0  0  0
  -27.6454  -13.2127   19.8619 C   0  0  2  0  0  0
  -28.6934  -13.1046   20.9932 C   0  0  0  0  0  0
  -25.2539  -13.8155   20.5720 C   0  0  0  0  0  0
  -24.1791  -13.0443   20.9231 C   0  0  0  0  0  0
  -24.6344  -11.6913   20.8737 C   0  0  0  0  0  0
  -23.9009  -10.4298   21.0395 C   0  0  0  0  0  0
  -24.3581   -9.4221   21.9160 C   0  0  0  0  0  0
  -23.6264   -8.2254   22.0733 C   0  0  0  0  0  0
  -22.4256   -8.0269   21.3527 C   0  0  0  0  0  0
  -21.9873   -9.0242   20.4643 C   0  0  0  0  0  0
  -22.7179  -10.2130   20.3047 C   0  0  0  0  0  0
  -21.6852   -6.0708   22.5264 C   0  0  0  0  0  0
  -21.4005   -6.5608   23.8194 C   0  0  0  0  0  0
  -21.3662   -5.6767   24.9163 C   0  0  0  0  0  0
  -21.6058   -4.3032   24.7227 C   0  0  0  0  0  0
  -21.8804   -3.8112   23.4347 C   0  0  0  0  0  0
  -21.9183   -4.6932   22.3401 C   0  0  0  0  0  0
  -22.7822  -13.5243   21.1890 C   0  0  0  0  0  0
  -22.1660   -4.2110   21.0986 F   0  0  0  0  0  0
  -21.5665   -3.4516   25.7746 F   0  0  0  0  0  0
  -30.0072  -13.4091   20.4139 N   0  0  0  0  0  0
  -26.2946  -12.9324   20.3352 N   0  0  0  0  0  0
  -25.9276  -11.6486   20.5787 N   0  0  0  0  0  0
  -22.0449  -12.8254   22.0459 N   0  0  0  0  0  0
  -25.4262  -15.1854   20.4149 N   0  0  0  0  0  0
  -31.8585  -14.6954   20.1784 O   0  0  0  0  0  0
  -21.6628   -6.8858   21.4231 O   0  0  0  0  0  0
  -22.3496  -14.5524   20.6722 O   0  0  0  0  0  0
  -24.6201  -31.8639   23.2037 C   0  0  0  0  0  0
  -25.9069  -32.4801   23.8356 C   0  0  1  0  0  0
  -27.2325  -27.3820   20.1331 C   0  0  0  0  0  0
  -25.5897  -33.8597   24.2297 N   0  0  0  0  0  0
  -23.4108  -30.4879   21.5435 C   0  0  2  0  0  0
  -24.8617  -28.9415   20.1142 C   0  0  0  0  0  0
  -22.7444  -29.4662   22.4943 C   0  0  0  0  0  0
  -18.0299  -28.1365   22.8510 C   0  0  0  0  0  0
  -24.1487  -36.7304   23.2633 C   0  0  0  0  0  0
  -25.9429  -30.8199   21.3588 C   0  0  0  0  0  0
  -26.0240  -29.4478   20.7118 C   0  0  0  0  0  0
  -27.2181  -28.6791   20.7083 C   0  0  0  0  0  0
  -26.0574  -26.9032   19.5196 C   0  0  0  0  0  0
  -24.8762  -27.6716   19.5097 C   0  0  0  0  0  0
  -23.6237  -29.8129   20.1602 C   0  0  0  0  0  0
  -25.4109  -36.3101   24.0330 C   0  0  1  0  0  0
  -20.5889  -28.3700   23.1315 C   0  0  2  0  0  0
  -20.6806  -26.9422   22.5458 C   0  0  0  0  0  0
  -19.5805  -26.6385   21.5243 C   0  0  0  0  0  0
  -18.1984  -26.7904   22.1663 C   0  0  0  0  0  0
  -19.1538  -28.8849   23.2890 C   0  0  0  0  0  0
  -18.9457  -30.1461   23.8888 C   0  0  0  0  0  0
  -17.6455  -30.6590   24.0513 C   0  0  0  0  0  0
  -25.9030  -34.9464   23.5116 C   0  0  0  0  0  0
  -16.5349  -29.9076   23.6286 C   0  0  0  0  0  0
  -16.7284  -28.6473   23.0353 C   0  0  0  0  0  0
  -26.4475  -31.6598   25.0703 C   0  0  0  0  0  0
  -25.3715  -31.3729   26.1442 C   0  0  0  0  0  0
  -27.0301  -30.3040   24.6077 C   0  0  0  0  0  0
  -27.6064  -32.4295   25.7464 C   0  0  0  0  0  0
  -27.5578  -37.1810   24.8460 C   0  0  0  0  0  0
  -21.4170  -29.3072   22.3729 N   0  0  0  0  0  0
  -26.4294  -37.3785   23.9400 N   0  0  0  0  0  0
  -24.6766  -31.0724   22.0934 N   0  0  0  0  0  0
  -23.4208  -28.8192   23.2980 O   0  0  0  0  0  0
  -28.3628  -26.5799   20.1528 O   0  0  0  0  0  0
  -26.5596  -34.8937   22.4681 O   0  0  0  0  0  0
  -23.5383  -32.1409   23.7405 O   0  0  0  0  0  0
  -27.2336  -17.9211   21.8048 C   0  0  0  0  0  0
  -28.1775  -18.8190   21.2551 C   0  0  0  0  0  0
  -27.7393  -20.1768   20.9613 C   0  0  0  0  0  0
  -26.3435  -20.4836   21.1086 C   0  0  0  0  0  0
  -25.4560  -19.5670   21.7339 C   0  0  0  0  0  0
  -25.9270  -18.3010   22.1182 C   0  0  0  0  0  0
  -29.7475  -17.8982   19.4722 C   0  0  0  0  0  0
  -29.4665  -16.3930   19.3628 C   0  0  0  0  0  0
  -29.5946  -18.2320   20.9489 C   0  0  2  0  0  0
  -30.0318  -16.8504   21.6197 C   0  0  2  0  0  0
  -25.7447  -21.7847   20.5661 C   0  0  0  0  0  0
  -23.9916  -19.9010   22.0108 C   0  0  0  0  0  0
  -31.4451  -17.8433   23.5270 C   0  0  0  0  0  0
  -25.0906  -17.5664   24.1741 C   0  0  0  0  0  0
  -28.6793  -21.3017   20.4175 C   0  0  0  0  0  0
  -31.4347  -16.9574   22.2706 C   0  0  0  0  0  0
  -28.6390  -22.7151   21.1456 C   0  0  0  0  0  0
  -28.6198  -24.0119   20.2400 C   0  0  0  0  0  0
  -28.2750  -25.3667   20.9603 C   0  0  0  0  0  0
  -29.8979  -15.7410   20.6114 N   0  0  0  0  0  0
  -25.1229  -17.3963   22.7612 O   0  0  0  0  0  0
  -31.4672  -12.4643   19.1582 H   0  0  0  0  0  0
  -30.3277  -11.3795   19.9008 H   0  0  0  0  0  0
  -29.7587  -11.7540   17.4706 H   0  0  0  0  0  0
  -29.6443  -13.4748   17.7532 H   0  0  0  0  0  0
  -27.8564  -11.2856   18.8650 H   0  0  0  0  0  0
  -27.3667  -12.5738   17.7947 H   0  0  0  0  0  0
  -27.6482  -14.2361   19.5009 H   0  0  0  0  0  0
  -28.7006  -12.1056   21.4280 H   0  0  0  0  0  0
  -28.4546  -13.7937   21.8058 H   0  0  0  0  0  0
  -25.2727   -9.5720   22.4720 H   0  0  0  0  0  0
  -23.9959   -7.4662   22.7476 H   0  0  0  0  0  0
  -21.0782   -8.8767   19.8982 H   0  0  0  0  0  0
  -22.3616  -10.9668   19.6161 H   0  0  0  0  0  0
  -21.1979   -7.6106   23.9682 H   0  0  0  0  0  0
  -21.1514   -6.0514   25.9065 H   0  0  0  0  0  0
  -22.0579   -2.7569   23.2877 H   0  0  0  0  0  0
  -22.4036  -11.9905   22.4836 H   0  0  0  0  0  0
  -21.1065  -13.1298   22.2615 H   0  0  0  0  0  0
  -24.6957  -15.8513   20.6430 H   0  0  0  0  0  0
  -26.3029  -15.6304   20.1819 H   0  0  0  0  0  0
  -26.7143  -32.5518   23.1124 H   0  0  0  0  0  0
  -25.0079  -33.9740   25.0468 H   0  0  0  0  0  0
  -22.7010  -31.3057   21.3991 H   0  0  0  0  0  0
  -23.3733  -35.9645   23.3296 H   0  0  0  0  0  0
  -24.3587  -36.8925   22.2046 H   0  0  0  0  0  0
  -23.7246  -37.6513   23.6646 H   0  0  0  0  0  0
  -26.0527  -31.5797   20.5841 H   0  0  0  0  0  0
  -26.8296  -30.8838   21.9756 H   0  0  0  0  0  0
  -28.1173  -29.0624   21.1710 H   0  0  0  0  0  0
  -26.0540  -25.9229   19.0634 H   0  0  0  0  0  0
  -23.9847  -27.2793   19.0390 H   0  0  0  0  0  0
  -23.7323  -30.5828   19.3961 H   0  0  0  0  0  0
  -22.7484  -29.2309   19.8646 H   0  0  0  0  0  0
  -25.1284  -36.1963   25.0816 H   0  0  0  0  0  0
  -20.9982  -28.3292   24.1435 H   0  0  0  0  0  0
  -20.5700  -26.2311   23.3654 H   0  0  0  0  0  0
  -21.6671  -26.7484   22.1256 H   0  0  0  0  0  0
  -19.6984  -25.6295   21.1287 H   0  0  0  0  0  0
  -19.6743  -27.3187   20.6768 H   0  0  0  0  0  0
  -17.4251  -26.6609   21.4075 H   0  0  0  0  0  0
  -18.0439  -26.0058   22.9080 H   0  0  0  0  0  0
  -19.7920  -30.7265   24.2295 H   0  0  0  0  0  0
  -17.4997  -31.6277   24.5102 H   0  0  0  0  0  0
  -15.5344  -30.2975   23.7595 H   0  0  0  0  0  0
  -15.8690  -28.0776   22.7081 H   0  0  0  0  0  0
  -24.5885  -30.7080   25.7777 H   0  0  0  0  0  0
  -24.8898  -32.2893   26.4858 H   0  0  0  0  0  0
  -25.8047  -30.8924   27.0223 H   0  0  0  0  0  0
  -26.2860  -29.6813   24.1094 H   0  0  0  0  0  0
  -27.4047  -29.7267   25.4540 H   0  0  0  0  0  0
  -27.8699  -30.4356   23.9249 H   0  0  0  0  0  0
  -27.2705  -33.3589   26.2067 H   0  0  0  0  0  0
  -28.3864  -32.6856   25.0281 H   0  0  0  0  0  0
  -28.0722  -31.8383   26.5359 H   0  0  0  0  0  0
  -28.2604  -38.0097   24.7504 H   0  0  0  0  0  0
  -28.1070  -36.2639   24.6287 H   0  0  0  0  0  0
  -27.2304  -37.1466   25.8865 H   0  0  0  0  0  0
  -20.9321  -29.8861   21.7022 H   0  0  0  0  0  0
  -26.0183  -38.2861   24.1402 H   0  0  0  0  0  0
  -27.4747  -16.8942   22.0180 H   0  0  0  0  0  0
  -29.1162  -18.5054   18.8211 H   0  0  0  0  0  0
  -30.7835  -18.0819   19.1784 H   0  0  0  0  0  0
  -29.9484  -15.9760   18.4747 H   0  0  0  0  0  0
  -28.3942  -16.2449   19.2422 H   0  0  0  0  0  0
  -30.3123  -19.0080   21.2137 H   0  0  0  0  0  0
  -29.3991  -16.5848   22.4623 H   0  0  0  0  0  0
  -26.3796  -22.2899   19.8453 H   0  0  0  0  0  0
  -25.5101  -22.4758   21.3769 H   0  0  0  0  0  0
  -24.8328  -21.5948   20.0052 H   0  0  0  0  0  0
  -23.5225  -20.5257   21.2549 H   0  0  0  0  0  0
  -23.9045  -20.4031   22.9735 H   0  0  0  0  0  0
  -23.3846  -18.9966   22.0521 H   0  0  0  0  0  0
  -32.4453  -17.8893   23.9572 H   0  0  0  0  0  0
  -30.7773  -17.4437   24.2918 H   0  0  0  0  0  0
  -31.1336  -18.8671   23.3189 H   0  0  0  0  0  0
  -24.1050  -17.9152   24.4824 H   0  0  0  0  0  0
  -25.8290  -18.2825   24.5434 H   0  0  0  0  0  0
  -25.2778  -16.6110   24.6639 H   0  0  0  0  0  0
  -28.4273  -21.4338   19.3650 H   0  0  0  0  0  0
  -29.7112  -20.9566   20.3992 H   0  0  0  0  0  0
  -32.1581  -17.3327   21.5451 H   0  0  0  0  0  0
  -31.7895  -15.9743   22.5805 H   0  0  0  0  0  0
  -29.4850  -22.7711   21.8308 H   0  0  0  0  0  0
  -27.7801  -22.7634   21.8135 H   0  0  0  0  0  0
  -27.8982  -23.8800   19.4343 H   0  0  0  0  0  0
  -29.5911  -24.1089   19.7552 H   0  0  0  0  0  0
  -28.9594  -25.5046   21.7986 H   0  0  0  0  0  0
  -27.2879  -25.2792   21.4186 H   0  0  0  0  0  0
  1 25  1  0  0  0
  1 30  2  0  0  0
  1 90  1  0  0  0
  2  3  1  0  0  0
  2 25  1  0  0  0
  2 92  1  0  0  0
  2 93  1  0  0  0
  3  4  1  0  0  0
  3 94  1  0  0  0
  3 95  1  0  0  0
  4  5  1  0  0  0
  4 96  1  0  0  0
  4 97  1  0  0  0
  5  6  1  0  0  0
  5 26  1  0  0  0
  5 98  1  0  0  0
  6 25  1  0  0  0
  6 99  1  0  0  0
  6100  1  0  0  0
  7  8  2  0  0  0
  7 26  1  0  0  0
  7 29  1  0  0  0
  8  9  1  0  0  0
  8 22  1  0  0  0
  9 10  1  0  0  0
  9 27  2  0  0  0
 10 11  2  0  0  0
 10 15  1  0  0  0
 11 12  1  0  0  0
 11101  1  0  0  0
 12 13  2  0  0  0
 12102  1  0  0  0
 13 14  1  0  0  0
 13 31  1  0  0  0
 14 15  2  0  0  0
 14103  1  0  0  0
 15104  1  0  0  0
 16 17  2  0  0  0
 16 21  1  0  0  0
 16 31  1  0  0  0
 17 18  1  0  0  0
 17105  1  0  0  0
 18 19  2  0  0  0
 18106  1  0  0  0
 19 20  1  0  0  0
 19 24  1  0  0  0
 20 21  2  0  0  0
 20107  1  0  0  0
 21 23  1  0  0  0
 22 28  1  0  0  0
 22 32  2  0  0  0
 26 27  1  0  0  0
 28108  1  0  0  0
 28109  1  0  0  0
 29110  1  0  0  0
 29111  1  0  0  0
 33 34  1  0  0  0
 33 66  1  0  0  0
 33 70  2  0  0  0
 34 36  1  0  0  0
 34 59  1  0  0  0
 34112  1  0  0  0
 35 44  2  0  0  0
 35 45  1  0  0  0
 35 68  1  0  0  0
 36 56  1  0  0  0
 36113  1  0  0  0
 37 39  1  0  0  0
 37 47  1  0  0  0
 37 66  1  0  0  0
 37114  1  0  0  0
 38 43  2  0  0  0
 38 46  1  0  0  0
 38 47  1  0  0  0
 39 64  1  0  0  0
 39 67  2  0  0  0
 40 52  1  0  0  0
 40 53  2  0  0  0
 40 58  1  0  0  0
 41115  1  0  0  0
 41116  1  0  0  0
 41117  1  0  0  0
 41 48  1  0  0  0
 42 43  1  0  0  0
 42 66  1  0  0  0
 42118  1  0  0  0
 42119  1  0  0  0
 43 44  1  0  0  0
 44120  1  0  0  0
 45 46  2  0  0  0
 45121  1  0  0  0
 46122  1  0  0  0
 47123  1  0  0  0
 47124  1  0  0  0
 48 56  1  0  0  0
 48 65  1  0  0  0
 48125  1  0  0  0
 49 50  1  0  0  0
 49 53  1  0  0  0
 49 64  1  0  0  0
 49126  1  0  0  0
 50 51  1  0  0  0
 50127  1  0  0  0
 50128  1  0  0  0
 51 52  1  0  0  0
 51129  1  0  0  0
 51130  1  0  0  0
 52131  1  0  0  0
 52132  1  0  0  0
 53 54  1  0  0  0
 54 55  2  0  0  0
 54133  1  0  0  0
 55 57  1  0  0  0
 55134  1  0  0  0
 56 69  2  0  0  0
 57 58  2  0  0  0
 57135  1  0  0  0
 58136  1  0  0  0
 59 60  1  0  0  0
 59 61  1  0  0  0
 59 62  1  0  0  0
 60137  1  0  0  0
 60138  1  0  0  0
 60139  1  0  0  0
 61140  1  0  0  0
 61141  1  0  0  0
 61142  1  0  0  0
 62143  1  0  0  0
 62144  1  0  0  0
 62145  1  0  0  0
 63 65  1  0  0  0
 63146  1  0  0  0
 63147  1  0  0  0
 63148  1  0  0  0
 64149  1  0  0  0
 65150  1  0  0  0
 68 89  1  0  0  0
 71 72  2  0  0  0
 71 76  1  0  0  0
 71151  1  0  0  0
 72 73  1  0  0  0
 72 79  1  0  0  0
 73 74  2  0  0  0
 73 85  1  0  0  0
 74 75  1  0  0  0
 74 81  1  0  0  0
 75 76  2  0  0  0
 75 82  1  0  0  0
 76 91  1  0  0  0
 77 78  1  0  0  0
 77 79  1  0  0  0
 77152  1  0  0  0
 77153  1  0  0  0
 78 90  1  0  0  0
 78154  1  0  0  0
 78155  1  0  0  0
 79 80  1  0  0  0
 79156  1  0  0  0
 80 86  1  0  0  0
 80 90  1  0  0  0
 80157  1  0  0  0
 81158  1  0  0  0
 81159  1  0  0  0
 81160  1  0  0  0
 82161  1  0  0  0
 82162  1  0  0  0
 82163  1  0  0  0
 83 86  1  0  0  0
 83164  1  0  0  0
 83165  1  0  0  0
 83166  1  0  0  0
 84 91  1  0  0  0
 84167  1  0  0  0
 84168  1  0  0  0
 84169  1  0  0  0
 85 87  1  0  0  0
 85170  1  0  0  0
 85171  1  0  0  0
 86172  1  0  0  0
 86173  1  0  0  0
 87 88  1  0  0  0
 87174  1  0  0  0
 87175  1  0  0  0
 88 89  1  0  0  0
 88176  1  0  0  0
 88177  1  0  0  0
 89178  1  0  0  0
 89179  1  0  0  0
M  ISO  4   1 100  68 101  89 101  90 100
M  END
> <chiral flag>
0

> <version>
0

> <s_m_source_file>
/data/baiqing/PycharmProjects/Reinvent-master-3.2/result/LINK_invent/BTK/process_docking_weight1_custom_sum_contain_oxygen_bond_distance_aromatic_linkinvent_7_9_3/rearranged_h_0146.sdf

> <i_m_source_file_index>
76

> <r_mmod_Potential_Energy-OPLS-2005>
359.853546142578

> <r_mmod_Stretch_Energy-OPLS-2005>
79.0727157592773

> <r_mmod_Bend_Energy-OPLS-2005>
154.443740844727

> <r_mmod_Torsional_Energy-OPLS-2005>
437.020812988281

> <r_mmod_Improper_Torsional_Energy-OPLS-2005>
11.6525068283081

> <r_mmod_Van_der_Waal_Energy-OPLS-2005>
146.891708374023

> <r_mmod_Electrostatic_Energy-OPLS-2005>
-325.427368164062

> <r_mmod_Solvation_Energy-OPLS-2005>
-179.372451782227

> <b_mmod_Minimization_Converged-OPLS-2005>
0

> <r_mmod_RMS_Derivative-OPLS-2005>
3.08944082260132

$$$$
76
                    3D
 Structure written by MMmdl.
174184  0  0  1  0            999 V2000
  -30.7655  -14.3634   20.6727 C   0  0  0  0  0  0
  -30.4138  -12.2844   19.3931 C   0  0  0  0  0  0
  -29.4826  -12.5327   18.1920 C   0  0  0  0  0  0
  -28.0061  -12.3893   18.6059 C   0  0  0  0  0  0
  -27.6669  -13.2046   19.8811 C   0  0  2  0  0  0
  -28.7049  -12.9378   20.9942 C   0  0  0  0  0  0
  -25.2611  -13.8166   20.5656 C   0  0  0  0  0  0
  -24.1845  -13.0448   20.9154 C   0  0  0  0  0  0
  -24.6400  -11.6914   20.8738 C   0  0  0  0  0  0
  -23.9076  -10.4299   21.0435 C   0  0  0  0  0  0
  -24.3629   -9.4210   21.9216 C   0  0  0  0  0  0
  -23.6293   -8.2249   22.0775 C   0  0  0  0  0  0
  -22.4281   -8.0287   21.3556 C   0  0  0  0  0  0
  -21.9933   -9.0259   20.4651 C   0  0  0  0  0  0
  -22.7267  -10.2135   20.3062 C   0  0  0  0  0  0
  -21.6847   -6.0748   22.5288 C   0  0  0  0  0  0
  -21.3999   -6.5646   23.8219 C   0  0  0  0  0  0
  -21.3656   -5.6795   24.9179 C   0  0  0  0  0  0
  -21.6047   -4.3060   24.7227 C   0  0  0  0  0  0
  -21.8815   -3.8151   23.4348 C   0  0  0  0  0  0
  -21.9186   -4.6975   22.3413 C   0  0  0  0  0  0
  -22.7869  -13.5263   21.1821 C   0  0  0  0  0  0
  -22.1656   -4.2165   21.0991 F   0  0  0  0  0  0
  -21.5638   -3.4543   25.7739 F   0  0  0  0  0  0
  -30.0492  -13.2291   20.4600 N   0  0  0  0  0  0
  -26.3048  -12.9324   20.3385 N   0  0  0  0  0  0
  -25.9326  -11.6485   20.5767 N   0  0  0  0  0  0
  -22.0490  -12.8228   22.0347 N   0  0  0  0  0  0
  -25.4380  -15.1874   20.4062 N   0  0  0  0  0  0
  -31.8005  -14.6226   20.0531 O   0  0  0  0  0  0
  -21.6632   -6.8890   21.4252 O   0  0  0  0  0  0
  -22.3562  -14.5590   20.6709 O   0  0  0  0  0  0
  -24.6105  -31.8704   23.2131 C   0  0  0  0  0  0
  -25.9014  -32.4837   23.8411 C   0  0  1  0  0  0
  -27.2299  -27.4660   20.0948 C   0  0  0  0  0  0
  -25.5881  -33.8633   24.2346 N   0  0  0  0  0  0
  -23.3953  -30.4945   21.5539 C   0  0  2  0  0  0
  -24.8373  -28.9613   20.1178 C   0  0  0  0  0  0
  -22.7381  -29.4669   22.5017 C   0  0  0  0  0  0
  -18.0262  -28.1367   22.8503 C   0  0  0  0  0  0
  -24.1473  -36.7305   23.2640 C   0  0  0  0  0  0
  -25.9188  -30.8464   21.3575 C   0  0  0  0  0  0
  -25.9941  -29.4814   20.7105 C   0  0  0  0  0  0
  -27.1921  -28.7402   20.6957 C   0  0  0  0  0  0
  -26.0584  -26.9538   19.4911 C   0  0  0  0  0  0
  -24.8623  -27.6953   19.5067 C   0  0  0  0  0  0
  -23.5983  -29.8241   20.1683 C   0  0  0  0  0  0
  -25.4098  -36.3120   24.0342 C   0  0  1  0  0  0
  -20.5855  -28.3642   23.1328 C   0  0  2  0  0  0
  -20.6749  -26.9381   22.5407 C   0  0  0  0  0  0
  -19.5718  -26.6378   21.5205 C   0  0  0  0  0  0
  -18.1900  -26.7918   22.1623 C   0  0  0  0  0  0
  -19.1515  -28.8816   23.2920 C   0  0  0  0  0  0
  -18.9444  -30.1428   23.8921 C   0  0  0  0  0  0
  -17.6449  -30.6579   24.0562 C   0  0  0  0  0  0
  -25.9024  -34.9486   23.5142 C   0  0  0  0  0  0
  -16.5335  -29.9084   23.6327 C   0  0  0  0  0  0
  -16.7249  -28.6496   23.0357 C   0  0  0  0  0  0
  -26.4458  -31.6598   25.0719 C   0  0  0  0  0  0
  -25.3738  -31.3622   26.1455 C   0  0  0  0  0  0
  -27.0313  -30.3075   24.6024 C   0  0  0  0  0  0
  -27.5999  -32.4323   25.7531 C   0  0  0  0  0  0
  -27.5570  -37.1823   24.8468 C   0  0  0  0  0  0
  -21.4115  -29.3033   22.3752 N   0  0  0  0  0  0
  -26.4282  -37.3806   23.9411 N   0  0  0  0  0  0
  -24.6602  -31.0839   22.1007 N   0  0  0  0  0  0
  -23.4176  -28.8203   23.3032 O   0  0  0  0  0  0
  -28.4308  -26.7996   20.0764 O   0  0  0  0  0  0
  -26.5585  -34.8931   22.4704 O   0  0  0  0  0  0
  -23.5306  -32.1437   23.7551 O   0  0  0  0  0  0
  -31.9320  -21.1980   20.9796 C   0  0  0  0  0  0
  -31.1865  -18.8933   21.0374 C   0  0  0  0  0  0
  -32.2439  -19.8272   21.1000 C   0  0  0  0  0  0
  -30.5957  -21.5789   20.7857 C   0  0  0  0  0  0
  -29.8751  -19.3750   20.8439 C   0  0  0  0  0  0
  -29.3872  -23.5918   21.7812 C   0  0  0  0  0  0
  -29.5209  -23.3030   19.2609 C   0  0  0  0  0  0
  -29.1093  -25.0930   21.5958 C   0  0  0  0  0  0
  -29.2314  -24.7989   19.0643 C   0  0  0  0  0  0
  -32.1534  -16.7831   22.2870 C   0  0  0  0  0  0
  -31.4613  -17.4188   21.1002 C   0  0  1  0  0  0
  -30.2231  -23.0445   20.6085 C   0  0  2  0  0  0
  -30.6877  -16.4920   22.0287 C   0  0  1  0  0  0
  -28.4369  -25.3864   20.2427 C   0  0  2  0  0  0
  -35.9169  -19.5132   21.4120 C   0  0  0  0  0  0
  -27.5253  -18.9855   20.4942 C   0  0  0  0  0  0
  -34.5994  -20.2812   21.2897 C   0  0  0  0  0  0
  -29.5870  -20.6883   20.7313 N   0  0  0  0  0  0
  -30.2605  -15.1824   21.6098 N   0  0  0  0  0  0
  -33.5279  -19.3459   21.2560 O   0  0  0  0  0  0
  -28.8326  -18.4773   20.7434 O   0  0  0  0  0  0
  -31.4570  -12.3785   19.0865 H   0  0  0  0  0  0
  -30.3091  -11.2600   19.7541 H   0  0  0  0  0  0
  -29.7156  -11.8392   17.3842 H   0  0  0  0  0  0
  -29.6540  -13.5341   17.7933 H   0  0  0  0  0  0
  -27.8084  -11.3311   18.7783 H   0  0  0  0  0  0
  -27.3540  -12.6911   17.7849 H   0  0  0  0  0  0
  -27.7272  -14.2599   19.6118 H   0  0  0  0  0  0
  -28.6625  -11.8911   21.2992 H   0  0  0  0  0  0
  -28.4550  -13.5045   21.8911 H   0  0  0  0  0  0
  -25.2783   -9.5664   22.4792 H   0  0  0  0  0  0
  -23.9998   -7.4644   22.7500 H   0  0  0  0  0  0
  -21.0872   -8.8778   19.8943 H   0  0  0  0  0  0
  -22.3765  -10.9671   19.6143 H   0  0  0  0  0  0
  -21.1967   -7.6146   23.9723 H   0  0  0  0  0  0
  -21.1485   -6.0525   25.9083 H   0  0  0  0  0  0
  -22.0590   -2.7613   23.2843 H   0  0  0  0  0  0
  -22.4063  -11.9838   22.4668 H   0  0  0  0  0  0
  -21.1107  -13.1248   22.2556 H   0  0  0  0  0  0
  -24.6787  -15.8514   20.5068 H   0  0  0  0  0  0
  -26.3035  -15.6164   20.1034 H   0  0  0  0  0  0
  -26.7086  -32.5559   23.1180 H   0  0  0  0  0  0
  -25.0042  -33.9804   25.0495 H   0  0  0  0  0  0
  -22.6839  -31.3110   21.4160 H   0  0  0  0  0  0
  -23.3755  -35.9617   23.3292 H   0  0  0  0  0  0
  -24.3577  -36.8932   22.2060 H   0  0  0  0  0  0
  -23.7194  -37.6492   23.6659 H   0  0  0  0  0  0
  -26.0210  -31.6093   20.5846 H   0  0  0  0  0  0
  -26.8114  -30.9059   21.9686 H   0  0  0  0  0  0
  -28.0901  -29.1410   21.1459 H   0  0  0  0  0  0
  -26.0621  -25.9998   18.9841 H   0  0  0  0  0  0
  -23.9743  -27.2946   19.0375 H   0  0  0  0  0  0
  -23.7001  -30.5954   19.4039 H   0  0  0  0  0  0
  -22.7239  -29.2388   19.8779 H   0  0  0  0  0  0
  -25.1278  -36.1993   25.0838 H   0  0  0  0  0  0
  -20.9951  -28.3179   24.1447 H   0  0  0  0  0  0
  -20.5644  -26.2245   23.3589 H   0  0  0  0  0  0
  -21.6617  -26.7426   22.1189 H   0  0  0  0  0  0
  -19.6872  -25.6294   21.1217 H   0  0  0  0  0  0
  -19.6656  -27.3203   20.6751 H   0  0  0  0  0  0
  -17.4175  -26.6693   21.4018 H   0  0  0  0  0  0
  -18.0285  -26.0040   22.8995 H   0  0  0  0  0  0
  -19.7923  -30.7236   24.2304 H   0  0  0  0  0  0
  -17.5005  -31.6271   24.5134 H   0  0  0  0  0  0
  -15.5338  -30.2995   23.7630 H   0  0  0  0  0  0
  -15.8651  -28.0813   22.7076 H   0  0  0  0  0  0
  -24.5923  -30.6975   25.7751 H   0  0  0  0  0  0
  -24.8925  -32.2743   26.4993 H   0  0  0  0  0  0
  -25.8108  -30.8711   27.0158 H   0  0  0  0  0  0
  -26.2855  -29.6848   24.1068 H   0  0  0  0  0  0
  -27.4137  -29.7275   25.4431 H   0  0  0  0  0  0
  -27.8649  -30.4454   23.9133 H   0  0  0  0  0  0
  -27.2583  -33.3614   26.2111 H   0  0  0  0  0  0
  -28.3849  -32.6896   25.0408 H   0  0  0  0  0  0
  -28.0616  -31.8448   26.5477 H   0  0  0  0  0  0
  -28.2559  -38.0149   24.7559 H   0  0  0  0  0  0
  -28.1100  -36.2684   24.6250 H   0  0  0  0  0  0
  -27.2289  -37.1415   25.8870 H   0  0  0  0  0  0
  -20.9253  -29.8788   21.7016 H   0  0  0  0  0  0
  -26.0166  -38.2878   24.1433 H   0  0  0  0  0  0
  -32.6915  -21.9654   21.0155 H   0  0  0  0  0  0
  -28.4466  -23.0451   21.8555 H   0  0  0  0  0  0
  -29.9143  -23.4289   22.7219 H   0  0  0  0  0  0
  -30.1446  -22.9389   18.4434 H   0  0  0  0  0  0
  -28.5874  -22.7410   19.2118 H   0  0  0  0  0  0
  -30.0486  -25.6433   21.6657 H   0  0  0  0  0  0
  -28.4793  -25.4575   22.4083 H   0  0  0  0  0  0
  -28.6812  -24.9515   18.1345 H   0  0  0  0  0  0
  -30.1752  -25.3355   18.9566 H   0  0  0  0  0  0
  -32.3872  -17.4138   23.1427 H   0  0  0  0  0  0
  -32.8740  -15.9922   22.0888 H   0  0  0  0  0  0
  -31.7474  -17.0769   20.1095 H   0  0  0  0  0  0
  -31.1575  -23.6089   20.5923 H   0  0  0  0  0  0
  -30.0044  -16.9796   22.7217 H   0  0  0  0  0  0
  -27.4435  -24.9376   20.2670 H   0  0  0  0  0  0
  -36.7636  -20.1992   21.4479 H   0  0  0  0  0  0
  -36.0610  -18.8498   20.5588 H   0  0  0  0  0  0
  -35.9382  -18.9089   22.3191 H   0  0  0  0  0  0
  -26.8136  -18.1612   20.4800 H   0  0  0  0  0  0
  -27.4733  -19.4872   19.5264 H   0  0  0  0  0  0
  -27.2084  -19.6805   21.2732 H   0  0  0  0  0  0
  -34.6165  -20.8829   20.3794 H   0  0  0  0  0  0
  -34.4851  -20.9563   22.1392 H   0  0  0  0  0  0
  -29.4230  -14.8383   22.0562 H   0  0  0  0  0  0
  1 25  1  0  0  0
  1 30  2  0  0  0
  1 89  1  0  0  0
  2  3  1  0  0  0
  2 25  1  0  0  0
  2 92  1  0  0  0
  2 93  1  0  0  0
  3  4  1  0  0  0
  3 94  1  0  0  0
  3 95  1  0  0  0
  4  5  1  0  0  0
  4 96  1  0  0  0
  4 97  1  0  0  0
  5  6  1  0  0  0
  5 26  1  0  0  0
  5 98  1  0  0  0
  6 25  1  0  0  0
  6 99  1  0  0  0
  6100  1  0  0  0
  7  8  2  0  0  0
  7 26  1  0  0  0
  7 29  1  0  0  0
  8  9  1  0  0  0
  8 22  1  0  0  0
  9 10  1  0  0  0
  9 27  2  0  0  0
 10 11  2  0  0  0
 10 15  1  0  0  0
 11 12  1  0  0  0
 11101  1  0  0  0
 12 13  2  0  0  0
 12102  1  0  0  0
 13 14  1  0  0  0
 13 31  1  0  0  0
 14 15  2  0  0  0
 14103  1  0  0  0
 15104  1  0  0  0
 16 17  2  0  0  0
 16 21  1  0  0  0
 16 31  1  0  0  0
 17 18  1  0  0  0
 17105  1  0  0  0
 18 19  2  0  0  0
 18106  1  0  0  0
 19 20  1  0  0  0
 19 24  1  0  0  0
 20 21  2  0  0  0
 20107  1  0  0  0
 21 23  1  0  0  0
 22 28  1  0  0  0
 22 32  2  0  0  0
 26 27  1  0  0  0
 28108  1  0  0  0
 28109  1  0  0  0
 29110  1  0  0  0
 29111  1  0  0  0
 33 34  1  0  0  0
 33 66  1  0  0  0
 33 70  2  0  0  0
 34 36  1  0  0  0
 34 59  1  0  0  0
 34112  1  0  0  0
 35 44  2  0  0  0
 35 45  1  0  0  0
 35 68  1  0  0  0
 36 56  1  0  0  0
 36113  1  0  0  0
 37 39  1  0  0  0
 37 47  1  0  0  0
 37 66  1  0  0  0
 37114  1  0  0  0
 38 43  2  0  0  0
 38 46  1  0  0  0
 38 47  1  0  0  0
 39 64  1  0  0  0
 39 67  2  0  0  0
 40 52  1  0  0  0
 40 53  2  0  0  0
 40 58  1  0  0  0
 41115  1  0  0  0
 41116  1  0  0  0
 41117  1  0  0  0
 41 48  1  0  0  0
 42 43  1  0  0  0
 42 66  1  0  0  0
 42118  1  0  0  0
 42119  1  0  0  0
 43 44  1  0  0  0
 44120  1  0  0  0
 45 46  2  0  0  0
 45121  1  0  0  0
 46122  1  0  0  0
 47123  1  0  0  0
 47124  1  0  0  0
 48 56  1  0  0  0
 48 65  1  0  0  0
 48125  1  0  0  0
 49 50  1  0  0  0
 49 53  1  0  0  0
 49 64  1  0  0  0
 49126  1  0  0  0
 50 51  1  0  0  0
 50127  1  0  0  0
 50128  1  0  0  0
 51 52  1  0  0  0
 51129  1  0  0  0
 51130  1  0  0  0
 52131  1  0  0  0
 52132  1  0  0  0
 53 54  1  0  0  0
 54 55  2  0  0  0
 54133  1  0  0  0
 55 57  1  0  0  0
 55134  1  0  0  0
 56 69  2  0  0  0
 57 58  2  0  0  0
 57135  1  0  0  0
 58136  1  0  0  0
 59 60  1  0  0  0
 59 61  1  0  0  0
 59 62  1  0  0  0
 60137  1  0  0  0
 60138  1  0  0  0
 60139  1  0  0  0
 61140  1  0  0  0
 61141  1  0  0  0
 61142  1  0  0  0
 62143  1  0  0  0
 62144  1  0  0  0
 62145  1  0  0  0
 63 65  1  0  0  0
 63146  1  0  0  0
 63147  1  0  0  0
 63148  1  0  0  0
 64149  1  0  0  0
 65150  1  0  0  0
 68 84  1  0  0  0
 71 73  2  0  0  0
 71 74  1  0  0  0
 71151  1  0  0  0
 72 73  1  0  0  0
 72 75  2  0  0  0
 72 81  1  0  0  0
 73 90  1  0  0  0
 74 88  2  0  0  0
 74 82  1  0  0  0
 75 88  1  0  0  0
 75 91  1  0  0  0
 76 78  1  0  0  0
 76 82  1  0  0  0
 76152  1  0  0  0
 76153  1  0  0  0
 77 79  1  0  0  0
 77 82  1  0  0  0
 77154  1  0  0  0
 77155  1  0  0  0
 78 84  1  0  0  0
 78156  1  0  0  0
 78157  1  0  0  0
 79 84  1  0  0  0
 79158  1  0  0  0
 79159  1  0  0  0
 80 81  1  0  0  0
 80 83  1  0  0  0
 80160  1  0  0  0
 80161  1  0  0  0
 81 83  1  0  0  0
 81162  1  0  0  0
 82163  1  0  0  0
 83 89  1  0  0  0
 83164  1  0  0  0
 84165  1  0  0  0
 85 87  1  0  0  0
 85166  1  0  0  0
 85167  1  0  0  0
 85168  1  0  0  0
 86 91  1  0  0  0
 86169  1  0  0  0
 86170  1  0  0  0
 86171  1  0  0  0
 87 90  1  0  0  0
 87172  1  0  0  0
 87173  1  0  0  0
 89174  1  0  0  0
M  ISO  4   1 100  68 101  84 101  89 100
M  END
> <chiral flag>
0

> <version>
0

> <s_m_source_file>
/data/baiqing/PycharmProjects/Reinvent-master-3.2/result/LINK_invent/BTK/process_docking_weight1_custom_sum_contain_oxygen_bond_distance_aromatic_linkinvent_7_9_3/rearranged_h_0146.sdf

> <i_m_source_file_index>
77

> <r_mmod_Potential_Energy-OPLS-2005>
-216.571624755859

> <r_mmod_Stretch_Energy-OPLS-2005>
33.2271919250488

> <r_mmod_Bend_Energy-OPLS-2005>
113.237518310547

> <r_mmod_Torsional_Energy-OPLS-2005>
268.046783447266

> <r_mmod_Improper_Torsional_Energy-OPLS-2005>
1.95589172840118

> <r_mmod_Van_der_Waal_Energy-OPLS-2005>
175.55632019043

> <r_mmod_Electrostatic_Energy-OPLS-2005>
-606.097229003906

> <r_mmod_Solvation_Energy-OPLS-2005>
-209.688415527344

> <b_mmod_Minimization_Converged-OPLS-2005>
0

> <r_mmod_RMS_Derivative-OPLS-2005>
1.6313601732254

$$$$
77
                    3D
 Structure written by MMmdl.
159167  0  0  1  0            999 V2000
  -30.6961  -14.4550   20.5576 C   0  0  0  0  0  0
  -30.4139  -12.3220   19.3980 C   0  0  0  0  0  0
  -29.4796  -12.5671   18.1953 C   0  0  0  0  0  0
  -28.0126  -12.3749   18.6150 C   0  0  0  0  0  0
  -27.6584  -13.2067   19.8748 C   0  0  2  0  0  0
  -28.6985  -12.9896   20.9999 C   0  0  0  0  0  0
  -25.2558  -13.8175   20.5642 C   0  0  0  0  0  0
  -24.1797  -13.0454   20.9156 C   0  0  0  0  0  0
  -24.6364  -11.6925   20.8692 C   0  0  0  0  0  0
  -23.9039  -10.4308   21.0361 C   0  0  0  0  0  0
  -24.3597   -9.4214   21.9135 C   0  0  0  0  0  0
  -23.6275   -8.2241   22.0726 C   0  0  0  0  0  0
  -22.4236   -8.0275   21.3547 C   0  0  0  0  0  0
  -21.9865   -9.0255   20.4646 C   0  0  0  0  0  0
  -22.7198  -10.2135   20.3027 C   0  0  0  0  0  0
  -21.6859   -6.0719   22.5261 C   0  0  0  0  0  0
  -21.4025   -6.5618   23.8197 C   0  0  0  0  0  0
  -21.3661   -5.6767   24.9162 C   0  0  0  0  0  0
  -21.6040   -4.3026   24.7208 C   0  0  0  0  0  0
  -21.8830   -3.8126   23.4334 C   0  0  0  0  0  0
  -21.9202   -4.6948   22.3388 C   0  0  0  0  0  0
  -22.7812  -13.5216   21.1847 C   0  0  0  0  0  0
  -22.1653   -4.2148   21.0967 F   0  0  0  0  0  0
  -21.5638   -3.4501   25.7719 F   0  0  0  0  0  0
  -30.0372  -13.2749   20.4562 N   0  0  0  0  0  0
  -26.2973  -12.9325   20.3319 N   0  0  0  0  0  0
  -25.9278  -11.6503   20.5686 N   0  0  0  0  0  0
  -22.0475  -12.8204   22.0411 N   0  0  0  0  0  0
  -25.4361  -15.1903   20.4057 N   0  0  0  0  0  0
  -31.8406  -14.6259   20.1184 O   0  0  0  0  0  0
  -21.6637   -6.8845   21.4218 O   0  0  0  0  0  0
  -22.3480  -14.5534   20.6708 O   0  0  0  0  0  0
  -24.6103  -31.8726   23.2130 C   0  0  0  0  0  0
  -25.9017  -32.4845   23.8404 C   0  0  1  0  0  0
  -27.2325  -27.4672   20.0912 C   0  0  0  0  0  0
  -25.5912  -33.8623   24.2343 N   0  0  0  0  0  0
  -23.3979  -30.4949   21.5526 C   0  0  2  0  0  0
  -24.8454  -28.9623   20.1153 C   0  0  0  0  0  0
  -22.7391  -29.4662   22.5000 C   0  0  0  0  0  0
  -18.0278  -28.1369   22.8489 C   0  0  0  0  0  0
  -24.1483  -36.7277   23.2624 C   0  0  0  0  0  0
  -25.9219  -30.8446   21.3630 C   0  0  0  0  0  0
  -26.0008  -29.4780   20.7169 C   0  0  0  0  0  0
  -27.1983  -28.7339   20.7134 C   0  0  0  0  0  0
  -26.0731  -26.9638   19.4725 C   0  0  0  0  0  0
  -24.8742  -27.6999   19.4963 C   0  0  0  0  0  0
  -23.6077  -29.8316   20.1642 C   0  0  0  0  0  0
  -25.4089  -36.3097   24.0350 C   0  0  1  0  0  0
  -20.5867  -28.3627   23.1328 C   0  0  2  0  0  0
  -20.6749  -26.9366   22.5413 C   0  0  0  0  0  0
  -19.5731  -26.6397   21.5196 C   0  0  0  0  0  0
  -18.1907  -26.7923   22.1599 C   0  0  0  0  0  0
  -19.1518  -28.8809   23.2911 C   0  0  0  0  0  0
  -18.9455  -30.1431   23.8897 C   0  0  0  0  0  0
  -17.6453  -30.6562   24.0566 C   0  0  0  0  0  0
  -25.9031  -34.9479   23.5134 C   0  0  0  0  0  0
  -16.5343  -29.9063   23.6334 C   0  0  0  0  0  0
  -16.7274  -28.6492   23.0331 C   0  0  0  0  0  0
  -26.4469  -31.6595   25.0697 C   0  0  0  0  0  0
  -25.3772  -31.3705   26.1488 C   0  0  0  0  0  0
  -27.0267  -30.3041   24.6012 C   0  0  0  0  0  0
  -27.6067  -32.4292   25.7442 C   0  0  0  0  0  0
  -27.5603  -37.1750   24.8426 C   0  0  0  0  0  0
  -21.4107  -29.3018   22.3749 N   0  0  0  0  0  0
  -26.4250  -37.3812   23.9480 N   0  0  0  0  0  0
  -24.6618  -31.0839   22.1017 N   0  0  0  0  0  0
  -23.4185  -28.8195   23.3007 O   0  0  0  0  0  0
  -28.3720  -26.7077   20.0646 O   0  0  0  0  0  0
  -26.5584  -34.8924   22.4691 O   0  0  0  0  0  0
  -23.5306  -32.1457   23.7543 O   0  0  0  0  0  0
  -30.2140  -17.8666   18.0175 C   0  0  0  0  0  0
  -29.8992  -16.7094   18.8091 C   0  0  0  0  0  0
  -30.6243  -18.9700   18.6534 C   0  0  0  0  0  0
  -30.0443  -16.7212   20.1563 C   0  0  0  0  0  0
  -30.4270  -17.9600   20.8615 C   0  0  0  0  0  0
  -30.0311  -21.4049   20.5714 C   0  0  0  0  0  0
  -31.1503  -20.3390   20.5907 C   0  0  0  0  0  0
  -30.5685  -22.8327   20.7924 C   0  0  0  0  0  0
  -29.9061  -25.2054   21.1949 C   0  0  0  0  0  0
  -28.7075  -26.1628   21.3397 C   0  0  0  0  0  0
  -30.7023  -19.0423   20.0580 N   0  0  0  0  0  0
  -29.9306  -15.5150   20.8719 N   0  0  0  0  0  0
  -29.4928  -23.8510   20.7396 N   0  3  0  0  0  0
  -30.5012  -18.0225   22.0948 O   0  0  0  0  0  0
  -31.4546  -12.4267   19.0896 H   0  0  0  0  0  0
  -30.3124  -11.2973   19.7547 H   0  0  0  0  0  0
  -29.7296  -11.9157   17.3588 H   0  0  0  0  0  0
  -29.6134  -13.5851   17.8217 H   0  0  0  0  0  0
  -27.8525  -11.3111   18.8032 H   0  0  0  0  0  0
  -27.3492  -12.6427   17.7942 H   0  0  0  0  0  0
  -27.7033  -14.2545   19.5758 H   0  0  0  0  0  0
  -28.6703  -11.9582   21.3516 H   0  0  0  0  0  0
  -28.4647  -13.6063   21.8661 H   0  0  0  0  0  0
  -25.2757   -9.5693   22.4688 H   0  0  0  0  0  0
  -24.0017   -7.4612   22.7410 H   0  0  0  0  0  0
  -21.0806   -8.8758   19.8940 H   0  0  0  0  0  0
  -22.3641  -10.9657   19.6120 H   0  0  0  0  0  0
  -21.2020   -7.6121   23.9682 H   0  0  0  0  0  0
  -21.1465   -6.0504   25.9059 H   0  0  0  0  0  0
  -22.0621   -2.7592   23.2837 H   0  0  0  0  0  0
  -22.4057  -11.9828   22.4792 H   0  0  0  0  0  0
  -21.1091  -13.1224   22.2636 H   0  0  0  0  0  0
  -24.6876  -15.8613   20.5268 H   0  0  0  0  0  0
  -26.2911  -15.6143   20.0693 H   0  0  0  0  0  0
  -26.7082  -32.5579   23.1157 H   0  0  0  0  0  0
  -25.0142  -33.9805   25.0549 H   0  0  0  0  0  0
  -22.6818  -31.3079   21.4190 H   0  0  0  0  0  0
  -23.3804  -35.9546   23.3175 H   0  0  0  0  0  0
  -24.3629  -36.8994   22.2066 H   0  0  0  0  0  0
  -23.7135  -37.6406   23.6694 H   0  0  0  0  0  0
  -26.0317  -31.6089   20.5910 H   0  0  0  0  0  0
  -26.8089  -30.8993   21.9816 H   0  0  0  0  0  0
  -28.0895  -29.1334   21.1773 H   0  0  0  0  0  0
  -26.0986  -26.0018   18.9778 H   0  0  0  0  0  0
  -23.9857  -27.2952   19.0302 H   0  0  0  0  0  0
  -23.7235  -30.6115   19.4091 H   0  0  0  0  0  0
  -22.7274  -29.2597   19.8665 H   0  0  0  0  0  0
  -25.1244  -36.1939   25.0840 H   0  0  0  0  0  0
  -20.9975  -28.3185   24.1440 H   0  0  0  0  0  0
  -20.5630  -26.2221   23.3584 H   0  0  0  0  0  0
  -21.6632  -26.7391   22.1231 H   0  0  0  0  0  0
  -19.6865  -25.6326   21.1189 H   0  0  0  0  0  0
  -19.6666  -27.3241   20.6753 H   0  0  0  0  0  0
  -17.4186  -26.6713   21.3995 H   0  0  0  0  0  0
  -18.0263  -26.0062   22.8979 H   0  0  0  0  0  0
  -19.7931  -30.7269   24.2239 H   0  0  0  0  0  0
  -17.5005  -31.6245   24.5174 H   0  0  0  0  0  0
  -15.5334  -30.2944   23.7662 H   0  0  0  0  0  0
  -15.8683  -28.0823   22.6992 H   0  0  0  0  0  0
  -24.5933  -30.7044   25.7873 H   0  0  0  0  0  0
  -24.8986  -32.2869   26.4952 H   0  0  0  0  0  0
  -25.8184  -30.8894   27.0223 H   0  0  0  0  0  0
  -26.2769  -29.6835   24.1094 H   0  0  0  0  0  0
  -27.4096  -29.7241   25.4411 H   0  0  0  0  0  0
  -27.8588  -30.4372   23.9090 H   0  0  0  0  0  0
  -27.2704  -33.3572   26.2071 H   0  0  0  0  0  0
  -28.3839  -32.6880   25.0243 H   0  0  0  0  0  0
  -28.0771  -31.8392   26.5312 H   0  0  0  0  0  0
  -28.2468  -38.0197   24.7742 H   0  0  0  0  0  0
  -28.1249  -36.2758   24.5893 H   0  0  0  0  0  0
  -27.2392  -37.0981   25.8830 H   0  0  0  0  0  0
  -20.9211  -29.8779   21.7037 H   0  0  0  0  0  0
  -26.0119  -38.2853   24.1642 H   0  0  0  0  0  0
  -30.1912  -17.8196   16.9371 H   0  0  0  0  0  0
  -29.6261  -15.8026   18.2915 H   0  0  0  0  0  0
  -30.9458  -19.8568   18.1251 H   0  0  0  0  0  0
  -29.2924  -21.1607   21.3366 H   0  0  0  0  0  0
  -29.5074  -21.3701   19.6170 H   0  0  0  0  0  0
  -31.5742  -20.2457   21.5914 H   0  0  0  0  0  0
  -31.9761  -20.6800   19.9651 H   0  0  0  0  0  0
  -31.3154  -23.0697   20.0333 H   0  0  0  0  0  0
  -31.0735  -22.8799   21.7569 H   0  0  0  0  0  0
  -30.3747  -25.1142   22.1758 H   0  0  0  0  0  0
  -30.6619  -25.6290   20.5300 H   0  0  0  0  0  0
  -28.9622  -26.9706   22.0301 H   0  0  0  0  0  0
  -27.8471  -25.6418   21.7720 H   0  0  0  0  0  0
  -29.1040  -15.3807   21.4338 H   0  0  0  0  0  0
  -28.7386  -23.5398   21.3309 H   0  0  0  0  0  0
  -29.1369  -23.9065   19.7961 H   0  0  0  0  0  0
  1 25  1  0  0  0
  1 30  2  0  0  0
  1 82  1  0  0  0
  2  3  1  0  0  0
  2 25  1  0  0  0
  2 85  1  0  0  0
  2 86  1  0  0  0
  3  4  1  0  0  0
  3 87  1  0  0  0
  3 88  1  0  0  0
  4  5  1  0  0  0
  4 89  1  0  0  0
  4 90  1  0  0  0
  5  6  1  0  0  0
  5 26  1  0  0  0
  5 91  1  0  0  0
  6 25  1  0  0  0
  6 92  1  0  0  0
  6 93  1  0  0  0
  7  8  2  0  0  0
  7 26  1  0  0  0
  7 29  1  0  0  0
  8  9  1  0  0  0
  8 22  1  0  0  0
  9 10  1  0  0  0
  9 27  2  0  0  0
 10 11  2  0  0  0
 10 15  1  0  0  0
 11 12  1  0  0  0
 11 94  1  0  0  0
 12 13  2  0  0  0
 12 95  1  0  0  0
 13 14  1  0  0  0
 13 31  1  0  0  0
 14 15  2  0  0  0
 14 96  1  0  0  0
 15 97  1  0  0  0
 16 17  2  0  0  0
 16 21  1  0  0  0
 16 31  1  0  0  0
 17 18  1  0  0  0
 17 98  1  0  0  0
 18 19  2  0  0  0
 18 99  1  0  0  0
 19 20  1  0  0  0
 19 24  1  0  0  0
 20 21  2  0  0  0
 20100  1  0  0  0
 21 23  1  0  0  0
 22 28  1  0  0  0
 22 32  2  0  0  0
 26 27  1  0  0  0
 28101  1  0  0  0
 28102  1  0  0  0
 29103  1  0  0  0
 29104  1  0  0  0
 33 34  1  0  0  0
 33 66  1  0  0  0
 33 70  2  0  0  0
 34 36  1  0  0  0
 34 59  1  0  0  0
 34105  1  0  0  0
 35 44  2  0  0  0
 35 45  1  0  0  0
 35 68  1  0  0  0
 36 56  1  0  0  0
 36106  1  0  0  0
 37 39  1  0  0  0
 37 47  1  0  0  0
 37 66  1  0  0  0
 37107  1  0  0  0
 38 43  2  0  0  0
 38 46  1  0  0  0
 38 47  1  0  0  0
 39 64  1  0  0  0
 39 67  2  0  0  0
 40 52  1  0  0  0
 40 53  2  0  0  0
 40 58  1  0  0  0
 41108  1  0  0  0
 41109  1  0  0  0
 41110  1  0  0  0
 41 48  1  0  0  0
 42 43  1  0  0  0
 42 66  1  0  0  0
 42111  1  0  0  0
 42112  1  0  0  0
 43 44  1  0  0  0
 44113  1  0  0  0
 45 46  2  0  0  0
 45114  1  0  0  0
 46115  1  0  0  0
 47116  1  0  0  0
 47117  1  0  0  0
 48 56  1  0  0  0
 48 65  1  0  0  0
 48118  1  0  0  0
 49 50  1  0  0  0
 49 53  1  0  0  0
 49 64  1  0  0  0
 49119  1  0  0  0
 50 51  1  0  0  0
 50120  1  0  0  0
 50121  1  0  0  0
 51 52  1  0  0  0
 51122  1  0  0  0
 51123  1  0  0  0
 52124  1  0  0  0
 52125  1  0  0  0
 53 54  1  0  0  0
 54 55  2  0  0  0
 54126  1  0  0  0
 55 57  1  0  0  0
 55127  1  0  0  0
 56 69  2  0  0  0
 57 58  2  0  0  0
 57128  1  0  0  0
 58129  1  0  0  0
 59 60  1  0  0  0
 59 61  1  0  0  0
 59 62  1  0  0  0
 60130  1  0  0  0
 60131  1  0  0  0
 60132  1  0  0  0
 61133  1  0  0  0
 61134  1  0  0  0
 61135  1  0  0  0
 62136  1  0  0  0
 62137  1  0  0  0
 62138  1  0  0  0
 63 65  1  0  0  0
 63139  1  0  0  0
 63140  1  0  0  0
 63141  1  0  0  0
 64142  1  0  0  0
 65143  1  0  0  0
 68 80  1  0  0  0
 71 72  1  0  0  0
 71 73  2  0  0  0
 71144  1  0  0  0
 72 74  2  0  0  0
 72145  1  0  0  0
 73 81  1  0  0  0
 73146  1  0  0  0
 74 75  1  0  0  0
 74 82  1  0  0  0
 75 81  1  0  0  0
 75 84  2  0  0  0
 76 77  1  0  0  0
 76 78  1  0  0  0
 76147  1  0  0  0
 76148  1  0  0  0
 77 81  1  0  0  0
 77149  1  0  0  0
 77150  1  0  0  0
 78 83  1  0  0  0
 78151  1  0  0  0
 78152  1  0  0  0
 79 80  1  0  0  0
 79 83  1  0  0  0
 79153  1  0  0  0
 79154  1  0  0  0
 80155  1  0  0  0
 80156  1  0  0  0
 82157  1  0  0  0
 83158  1  0  0  0
 83159  1  0  0  0
M  CHG  1  83   1
M  ISO  4   1 100  68 101  80 101  82 100
M  END
> <chiral flag>
0

> <version>
0

> <s_m_source_file>
/data/baiqing/PycharmProjects/Reinvent-master-3.2/result/LINK_invent/BTK/process_docking_weight1_custom_sum_contain_oxygen_bond_distance_aromatic_linkinvent_7_9_3/rearranged_h_0146.sdf

> <i_m_source_file_index>
78

> <r_mmod_Potential_Energy-OPLS-2005>
-139.196899414062

> <r_mmod_Stretch_Energy-OPLS-2005>
38.4527320861816

> <r_mmod_Bend_Energy-OPLS-2005>
90.5531997680664

> <r_mmod_Torsional_Energy-OPLS-2005>
284.082366943359

> <r_mmod_Improper_Torsional_Energy-OPLS-2005>
8.98751258850098

> <r_mmod_Van_der_Waal_Energy-OPLS-2005>
163.165817260742

> <r_mmod_Electrostatic_Energy-OPLS-2005>
-271.828063964844

> <r_mmod_Solvation_Energy-OPLS-2005>
-464.060180664062

> <b_mmod_Minimization_Converged-OPLS-2005>
0

> <r_mmod_RMS_Derivative-OPLS-2005>
5.52079296112061

$$$$
78
                    3D
 Structure written by MMmdl.
177186  0  0  1  0            999 V2000
  -30.6752  -14.5622   20.5500 C   0  0  0  0  0  0
  -30.4337  -12.3596   19.4450 C   0  0  0  0  0  0
  -29.5056  -12.5073   18.2202 C   0  0  0  0  0  0
  -28.0284  -12.3530   18.6312 C   0  0  0  0  0  0
  -27.6589  -13.2128   19.8699 C   0  0  2  0  0  0
  -28.7015  -13.0451   20.9982 C   0  0  0  0  0  0
  -25.2585  -13.8161   20.5658 C   0  0  0  0  0  0
  -24.1844  -13.0436   20.9156 C   0  0  0  0  0  0
  -24.6408  -11.6907   20.8726 C   0  0  0  0  0  0
  -23.9075  -10.4296   21.0402 C   0  0  0  0  0  0
  -24.3631   -9.4215   21.9178 C   0  0  0  0  0  0
  -23.6299   -8.2255   22.0762 C   0  0  0  0  0  0
  -22.4280   -8.0291   21.3551 C   0  0  0  0  0  0
  -21.9917   -9.0263   20.4647 C   0  0  0  0  0  0
  -22.7254  -10.2139   20.3046 C   0  0  0  0  0  0
  -21.6857   -6.0740   22.5273 C   0  0  0  0  0  0
  -21.4026   -6.5644   23.8209 C   0  0  0  0  0  0
  -21.3651   -5.6791   24.9166 C   0  0  0  0  0  0
  -21.6039   -4.3053   24.7217 C   0  0  0  0  0  0
  -21.8822   -3.8151   23.4335 C   0  0  0  0  0  0
  -21.9201   -4.6969   22.3396 C   0  0  0  0  0  0
  -22.7864  -13.5247   21.1807 C   0  0  0  0  0  0
  -22.1661   -4.2162   21.0971 F   0  0  0  0  0  0
  -21.5624   -3.4532   25.7725 F   0  0  0  0  0  0
  -30.0235  -13.3668   20.4390 N   0  0  0  0  0  0
  -26.3019  -12.9337   20.3336 N   0  0  0  0  0  0
  -25.9341  -11.6494   20.5768 N   0  0  0  0  0  0
  -22.0504  -12.8243   22.0364 N   0  0  0  0  0  0
  -25.4306  -15.1882   20.4069 N   0  0  0  0  0  0
  -31.8141  -14.7279   20.1074 O   0  0  0  0  0  0
  -21.6640   -6.8890   21.4242 O   0  0  0  0  0  0
  -22.3553  -14.5552   20.6656 O   0  0  0  0  0  0
  -24.6207  -31.8618   23.2057 C   0  0  0  0  0  0
  -25.9064  -32.4797   23.8372 C   0  0  1  0  0  0
  -27.2455  -27.3911   20.1102 C   0  0  0  0  0  0
  -25.5890  -33.8590   24.2300 N   0  0  0  0  0  0
  -23.4137  -30.4841   21.5433 C   0  0  2  0  0  0
  -24.8646  -28.9420   20.1142 C   0  0  0  0  0  0
  -22.7466  -29.4607   22.4935 C   0  0  0  0  0  0
  -18.0285  -28.1368   22.8485 C   0  0  0  0  0  0
  -24.1477  -36.7311   23.2642 C   0  0  0  0  0  0
  -25.9453  -30.8191   21.3600 C   0  0  0  0  0  0
  -26.0269  -29.4490   20.7089 C   0  0  0  0  0  0
  -27.2248  -28.6861   20.6907 C   0  0  0  0  0  0
  -26.0653  -26.9114   19.5012 C   0  0  0  0  0  0
  -24.8824  -27.6761   19.5015 C   0  0  0  0  0  0
  -23.6279  -29.8141   20.1593 C   0  0  0  0  0  0
  -25.4090  -36.3098   24.0345 C   0  0  1  0  0  0
  -20.5878  -28.3661   23.1288 C   0  0  2  0  0  0
  -20.6756  -26.9387   22.5398 C   0  0  0  0  0  0
  -19.5733  -26.6362   21.5205 C   0  0  0  0  0  0
  -18.1919  -26.7919   22.1610 C   0  0  0  0  0  0
  -19.1536  -28.8838   23.2889 C   0  0  0  0  0  0
  -18.9465  -30.1449   23.8894 C   0  0  0  0  0  0
  -17.6469  -30.6578   24.0570 C   0  0  0  0  0  0
  -25.9021  -34.9463   23.5116 C   0  0  0  0  0  0
  -16.5364  -29.9080   23.6321 C   0  0  0  0  0  0
  -16.7273  -28.6494   23.0340 C   0  0  0  0  0  0
  -26.4474  -31.6606   25.0721 C   0  0  0  0  0  0
  -25.3733  -31.3717   26.1486 C   0  0  0  0  0  0
  -27.0318  -30.3056   24.6087 C   0  0  0  0  0  0
  -27.6044  -32.4334   25.7482 C   0  0  0  0  0  0
  -27.5584  -37.1809   24.8468 C   0  0  0  0  0  0
  -21.4179  -29.3035   22.3714 N   0  0  0  0  0  0
  -26.4276  -37.3787   23.9428 N   0  0  0  0  0  0
  -24.6789  -31.0700   22.0952 N   0  0  0  0  0  0
  -23.4241  -28.8122   23.2954 O   0  0  0  0  0  0
  -28.3975  -26.6171   20.0963 O   0  0  0  0  0  0
  -26.5582  -34.8934   22.4683 O   0  0  0  0  0  0
  -23.5386  -32.1341   23.7426 O   0  0  0  0  0  0
  -29.9076  -17.4154   25.0406 C   0  0  0  0  0  0
  -29.3641  -19.5393   24.0371 C   0  0  0  0  0  0
  -29.4340  -18.7210   25.1741 C   0  0  0  0  0  0
  -30.2633  -16.9089   23.7780 C   0  0  0  0  0  0
  -30.0853  -17.6886   22.5870 C   0  0  0  0  0  0
  -29.6888  -19.0785   22.7293 C   0  0  0  0  0  0
  -30.6139  -21.1663   21.9891 C   0  0  0  0  0  0
  -28.4523  -21.7157   20.1655 C   0  0  0  0  0  0
  -28.3599  -20.4873   21.1357 C   0  0  2  0  0  0
  -30.6212  -22.3706   20.9959 C   0  0  2  0  0  0
  -29.0367  -19.2542   26.5399 C   0  0  0  0  0  0
  -30.8989  -15.5248   23.7939 C   0  0  0  0  0  0
  -27.2657  -20.7666   22.1881 C   0  0  0  0  0  0
  -31.5561  -23.4588   21.5647 C   0  0  0  0  0  0
  -30.3843  -17.0244   21.2146 C   0  0  0  0  0  0
  -29.0858  -24.1567   19.9617 C   0  0  0  0  0  0
  -28.3251  -25.3021   20.7225 C   0  0  0  0  0  0
  -29.6766  -20.0609   21.6823 N   0  0  0  0  0  0
  -29.9588  -15.5993   21.0544 N   0  0  0  0  0  0
  -29.2290  -22.8559   20.7364 N   0  3  1  0  0  0
  -31.4772  -12.4729   19.1447 H   0  0  0  0  0  0
  -30.3559  -11.3591   19.8732 H   0  0  0  0  0  0
  -29.7628  -11.7667   17.4619 H   0  0  0  0  0  0
  -29.6578  -13.4843   17.7579 H   0  0  0  0  0  0
  -27.8565  -11.2980   18.8480 H   0  0  0  0  0  0
  -27.3764  -12.6003   17.7928 H   0  0  0  0  0  0
  -27.6876  -14.2528   19.5443 H   0  0  0  0  0  0
  -28.6998  -12.0202   21.3732 H   0  0  0  0  0  0
  -28.4495  -13.6718   21.8553 H   0  0  0  0  0  0
  -25.2787   -9.5678   22.4736 H   0  0  0  0  0  0
  -24.0001   -7.4649   22.7487 H   0  0  0  0  0  0
  -21.0848   -8.8794   19.8945 H   0  0  0  0  0  0
  -22.3736  -10.9675   19.6142 H   0  0  0  0  0  0
  -21.2026   -7.6156   23.9723 H   0  0  0  0  0  0
  -21.1457   -6.0514   25.9071 H   0  0  0  0  0  0
  -22.0610   -2.7617   23.2827 H   0  0  0  0  0  0
  -22.4129  -11.9914   22.4763 H   0  0  0  0  0  0
  -21.1111  -13.1263   22.2547 H   0  0  0  0  0  0
  -24.6634  -15.8425   20.5129 H   0  0  0  0  0  0
  -26.2850  -15.6287   20.0912 H   0  0  0  0  0  0
  -26.7131  -32.5499   23.1140 H   0  0  0  0  0  0
  -25.0120  -33.9739   25.0501 H   0  0  0  0  0  0
  -22.7041  -31.3003   21.3957 H   0  0  0  0  0  0
  -23.3750  -35.9638   23.3283 H   0  0  0  0  0  0
  -24.3579  -36.8935   22.2064 H   0  0  0  0  0  0
  -23.7222  -37.6508   23.6661 H   0  0  0  0  0  0
  -26.0543  -31.5799   20.5863 H   0  0  0  0  0  0
  -26.8352  -30.8766   21.9753 H   0  0  0  0  0  0
  -28.1273  -29.0840   21.1337 H   0  0  0  0  0  0
  -26.0621  -25.9438   19.0190 H   0  0  0  0  0  0
  -23.9942  -27.2841   19.0249 H   0  0  0  0  0  0
  -23.7450  -30.5878   19.3991 H   0  0  0  0  0  0
  -22.7516  -29.2373   19.8578 H   0  0  0  0  0  0
  -25.1260  -36.1962   25.0834 H   0  0  0  0  0  0
  -20.9971  -28.3202   24.1402 H   0  0  0  0  0  0
  -20.5624  -26.2259   23.3585 H   0  0  0  0  0  0
  -21.6622  -26.7369   22.1211 H   0  0  0  0  0  0
  -19.6882  -25.6272   21.1235 H   0  0  0  0  0  0
  -19.6693  -27.3174   20.6750 H   0  0  0  0  0  0
  -17.4191  -26.6697   21.4019 H   0  0  0  0  0  0
  -18.0291  -26.0055   22.8983 H   0  0  0  0  0  0
  -19.7948  -30.7260   24.2251 H   0  0  0  0  0  0
  -17.5028  -31.6259   24.5156 H   0  0  0  0  0  0
  -15.5365  -30.2981   23.7659 H   0  0  0  0  0  0
  -15.8663  -28.0834   22.7031 H   0  0  0  0  0  0
  -24.5925  -30.7020   25.7874 H   0  0  0  0  0  0
  -24.8907  -32.2863   26.4938 H   0  0  0  0  0  0
  -25.8106  -30.8934   27.0258 H   0  0  0  0  0  0
  -26.2860  -29.6829   24.1132 H   0  0  0  0  0  0
  -27.4109  -29.7287   25.4533 H   0  0  0  0  0  0
  -27.8674  -30.4418   23.9210 H   0  0  0  0  0  0
  -27.2669  -33.3643   26.2056 H   0  0  0  0  0  0
  -28.3869  -32.6884   25.0321 H   0  0  0  0  0  0
  -28.0694  -31.8456   26.5413 H   0  0  0  0  0  0
  -28.2587  -38.0130   24.7521 H   0  0  0  0  0  0
  -28.1084  -36.2648   24.6249 H   0  0  0  0  0  0
  -27.2295  -37.1403   25.8873 H   0  0  0  0  0  0
  -20.9340  -29.8846   21.7024 H   0  0  0  0  0  0
  -26.0169  -38.2862   24.1449 H   0  0  0  0  0  0
  -30.0198  -16.8009   25.9246 H   0  0  0  0  0  0
  -29.0457  -20.5575   24.1986 H   0  0  0  0  0  0
  -30.4293  -21.5752   22.9813 H   0  0  0  0  0  0
  -31.6205  -20.7453   22.0347 H   0  0  0  0  0  0
  -27.4513  -22.0547   19.8962 H   0  0  0  0  0  0
  -28.9183  -21.4054   19.2285 H   0  0  0  0  0  0
  -28.0005  -19.6496   20.5358 H   0  0  0  0  0  0
  -31.0416  -22.0290   20.0469 H   0  0  0  0  0  0
  -28.8621  -18.4398   27.2443 H   0  0  0  0  0  0
  -28.1173  -19.8382   26.4756 H   0  0  0  0  0  0
  -29.8207  -19.8917   26.9492 H   0  0  0  0  0  0
  -31.2991  -15.2774   24.7778 H   0  0  0  0  0  0
  -31.7398  -15.4775   23.1026 H   0  0  0  0  0  0
  -30.1716  -14.7535   23.5433 H   0  0  0  0  0  0
  -27.5336  -21.5722   22.8708 H   0  0  0  0  0  0
  -27.0315  -19.8763   22.7731 H   0  0  0  0  0  0
  -26.3340  -21.0557   21.7011 H   0  0  0  0  0  0
  -31.1148  -23.9615   22.4255 H   0  0  0  0  0  0
  -31.8234  -24.2171   20.8310 H   0  0  0  0  0  0
  -32.4975  -23.0155   21.8916 H   0  0  0  0  0  0
  -31.4582  -17.1155   21.0489 H   0  0  0  0  0  0
  -29.9076  -17.6073   20.4260 H   0  0  0  0  0  0
  -30.0585  -24.5388   19.6598 H   0  0  0  0  0  0
  -28.5729  -23.9691   19.0175 H   0  0  0  0  0  0
  -28.7656  -25.4188   21.7142 H   0  0  0  0  0  0
  -27.2925  -24.9946   20.8974 H   0  0  0  0  0  0
  -29.0258  -15.3830   21.3663 H   0  0  0  0  0  0
  -28.8280  -23.0242   21.6463 H   0  0  0  0  0  0
  1 25  1  0  0  0
  1 30  2  0  0  0
  1 89  1  0  0  0
  2  3  1  0  0  0
  2 25  1  0  0  0
  2 91  1  0  0  0
  2 92  1  0  0  0
  3  4  1  0  0  0
  3 93  1  0  0  0
  3 94  1  0  0  0
  4  5  1  0  0  0
  4 95  1  0  0  0
  4 96  1  0  0  0
  5  6  1  0  0  0
  5 26  1  0  0  0
  5 97  1  0  0  0
  6 25  1  0  0  0
  6 98  1  0  0  0
  6 99  1  0  0  0
  7  8  2  0  0  0
  7 26  1  0  0  0
  7 29  1  0  0  0
  8  9  1  0  0  0
  8 22  1  0  0  0
  9 10  1  0  0  0
  9 27  2  0  0  0
 10 11  2  0  0  0
 10 15  1  0  0  0
 11 12  1  0  0  0
 11100  1  0  0  0
 12 13  2  0  0  0
 12101  1  0  0  0
 13 14  1  0  0  0
 13 31  1  0  0  0
 14 15  2  0  0  0
 14102  1  0  0  0
 15103  1  0  0  0
 16 17  2  0  0  0
 16 21  1  0  0  0
 16 31  1  0  0  0
 17 18  1  0  0  0
 17104  1  0  0  0
 18 19  2  0  0  0
 18105  1  0  0  0
 19 20  1  0  0  0
 19 24  1  0  0  0
 20 21  2  0  0  0
 20106  1  0  0  0
 21 23  1  0  0  0
 22 28  1  0  0  0
 22 32  2  0  0  0
 26 27  1  0  0  0
 28107  1  0  0  0
 28108  1  0  0  0
 29109  1  0  0  0
 29110  1  0  0  0
 33 34  1  0  0  0
 33 66  1  0  0  0
 33 70  2  0  0  0
 34 36  1  0  0  0
 34 59  1  0  0  0
 34111  1  0  0  0
 35 44  2  0  0  0
 35 45  1  0  0  0
 35 68  1  0  0  0
 36 56  1  0  0  0
 36112  1  0  0  0
 37 39  1  0  0  0
 37 47  1  0  0  0
 37 66  1  0  0  0
 37113  1  0  0  0
 38 43  2  0  0  0
 38 46  1  0  0  0
 38 47  1  0  0  0
 39 64  1  0  0  0
 39 67  2  0  0  0
 40 52  1  0  0  0
 40 53  2  0  0  0
 40 58  1  0  0  0
 41114  1  0  0  0
 41115  1  0  0  0
 41116  1  0  0  0
 41 48  1  0  0  0
 42 43  1  0  0  0
 42 66  1  0  0  0
 42117  1  0  0  0
 42118  1  0  0  0
 43 44  1  0  0  0
 44119  1  0  0  0
 45 46  2  0  0  0
 45120  1  0  0  0
 46121  1  0  0  0
 47122  1  0  0  0
 47123  1  0  0  0
 48 56  1  0  0  0
 48 65  1  0  0  0
 48124  1  0  0  0
 49 50  1  0  0  0
 49 53  1  0  0  0
 49 64  1  0  0  0
 49125  1  0  0  0
 50 51  1  0  0  0
 50126  1  0  0  0
 50127  1  0  0  0
 51 52  1  0  0  0
 51128  1  0  0  0
 51129  1  0  0  0
 52130  1  0  0  0
 52131  1  0  0  0
 53 54  1  0  0  0
 54 55  2  0  0  0
 54132  1  0  0  0
 55 57  1  0  0  0
 55133  1  0  0  0
 56 69  2  0  0  0
 57 58  2  0  0  0
 57134  1  0  0  0
 58135  1  0  0  0
 59 60  1  0  0  0
 59 61  1  0  0  0
 59 62  1  0  0  0
 60136  1  0  0  0
 60137  1  0  0  0
 60138  1  0  0  0
 61139  1  0  0  0
 61140  1  0  0  0
 61141  1  0  0  0
 62142  1  0  0  0
 62143  1  0  0  0
 62144  1  0  0  0
 63 65  1  0  0  0
 63145  1  0  0  0
 63146  1  0  0  0
 63147  1  0  0  0
 64148  1  0  0  0
 65149  1  0  0  0
 68 87  1  0  0  0
 71 73  2  0  0  0
 71 74  1  0  0  0
 71150  1  0  0  0
 72 73  1  0  0  0
 72 76  2  0  0  0
 72151  1  0  0  0
 73 81  1  0  0  0
 74 75  2  0  0  0
 74 82  1  0  0  0
 75 76  1  0  0  0
 75 85  1  0  0  0
 76 88  1  0  0  0
 77 80  1  0  0  0
 77 88  1  0  0  0
 77152  1  0  0  0
 77153  1  0  0  0
 78 79  1  0  0  0
 78 90  1  0  0  0
 78154  1  0  0  0
 78155  1  0  0  0
 79 83  1  0  0  0
 79 88  1  0  0  0
 79156  1  0  0  0
 80 84  1  0  0  0
 80 90  1  0  0  0
 80157  1  0  0  0
 81158  1  0  0  0
 81159  1  0  0  0
 81160  1  0  0  0
 82161  1  0  0  0
 82162  1  0  0  0
 82163  1  0  0  0
 83164  1  0  0  0
 83165  1  0  0  0
 83166  1  0  0  0
 84167  1  0  0  0
 84168  1  0  0  0
 84169  1  0  0  0
 85 89  1  0  0  0
 85170  1  0  0  0
 85171  1  0  0  0
 86 87  1  0  0  0
 86172  1  0  0  0
 86173  1  0  0  0
 86 90  1  0  0  0
 87174  1  0  0  0
 87175  1  0  0  0
 89176  1  0  0  0
 90177  1  0  0  0
M  CHG  1  90   1
M  ISO  4   1 100  68 101  87 101  89 100
M  END
> <chiral flag>
0

> <version>
0

> <s_m_source_file>
/data/baiqing/PycharmProjects/Reinvent-master-3.2/result/LINK_invent/BTK/process_docking_weight1_custom_sum_contain_oxygen_bond_distance_aromatic_linkinvent_7_9_3/rearranged_h_0146.sdf

> <i_m_source_file_index>
79

> <r_mmod_Potential_Energy-OPLS-2005>
37.1290817260742

> <r_mmod_Stretch_Energy-OPLS-2005>
70.7214736938477

> <r_mmod_Bend_Energy-OPLS-2005>
130.608459472656

> <r_mmod_Torsional_Energy-OPLS-2005>
330.34716796875

> <r_mmod_Improper_Torsional_Energy-OPLS-2005>
7.32844400405884

> <r_mmod_Van_der_Waal_Energy-OPLS-2005>
167.48583984375

> <r_mmod_Electrostatic_Energy-OPLS-2005>
-283.700317382812

> <r_mmod_Solvation_Energy-OPLS-2005>
-409.437133789062

> <b_mmod_Minimization_Converged-OPLS-2005>
0

> <r_mmod_RMS_Derivative-OPLS-2005>
2.80552744865417

$$$$
80
                    3D
 Structure written by MMmdl.
163173  0  0  1  0            999 V2000
  -27.8585  -17.3053   20.9811 C   0  0  0  0  0  0
  -29.5377  -14.7494   19.8089 C   0  0  0  0  0  0
  -29.3687  -13.4916   18.7336 C   0  0  0  0  0  0
  -28.2545  -12.5179   19.0983 C   0  0  0  0  0  0
  -27.3581  -13.4215   19.9233 C   0  0  2  0  0  0
  -27.9508  -14.2487   21.1159 C   0  0  0  0  0  0
  -25.0702  -13.8120   20.5544 C   0  0  0  0  0  0
  -24.0603  -13.0081   20.9347 C   0  0  0  0  0  0
  -24.5703  -11.6717   20.8859 C   0  0  0  0  0  0
  -23.8725  -10.4064   21.0485 C   0  0  0  0  0  0
  -24.3438   -9.4051   21.9227 C   0  0  0  0  0  0
  -23.6186   -8.2060   22.0760 C   0  0  0  0  0  0
  -22.4173   -8.0095   21.3535 C   0  0  0  0  0  0
  -21.9729   -9.0014   20.4634 C   0  0  0  0  0  0
  -22.6975  -10.1905   20.3066 C   0  0  0  0  0  0
  -21.6796   -6.0639   22.5299 C   0  0  0  0  0  0
  -21.3968   -6.5582   23.8219 C   0  0  0  0  0  0
  -21.3643   -5.6756   24.9194 C   0  0  0  0  0  0
  -21.6048   -4.3020   24.7258 C   0  0  0  0  0  0
  -21.8826   -3.8089   23.4388 C   0  0  0  0  0  0
  -21.9177   -4.6884   22.3433 C   0  0  0  0  0  0
  -22.6758  -13.4808   21.2096 C   0  0  0  0  0  0
  -22.1657   -4.2077   21.1010 F   0  0  0  0  0  0
  -21.5638   -3.4519   25.7780 F   0  0  0  0  0  0
  -28.2658  -15.6503   20.5701 N   0  0  0  0  0  0
  -26.1099  -12.9529   20.3170 N   0  0  0  0  0  0
  -25.8579  -11.6558   20.5688 N   0  0  0  0  0  0
  -21.9612  -12.7853   22.0810 N   0  0  0  0  0  0
  -25.1867  -15.1912   20.3696 N   0  0  0  0  0  0
  -29.2036  -17.3049   20.8946 O   0  0  0  0  0  0
  -21.6550   -6.8716   21.4238 O   0  0  0  0  0  0
  -22.2494  -14.5152   20.6963 O   0  0  0  0  0  0
  -24.6331  -31.9287   23.2346 C   0  0  0  0  0  0
  -25.9274  -32.5085   23.8662 C   0  0  1  0  0  0
  -27.0785  -27.4560   19.9955 C   0  0  0  0  0  0
  -25.6159  -33.8847   24.2582 N   0  0  0  0  0  0
  -23.4383  -30.5126   21.6410 C   0  0  2  0  0  0
  -24.8442  -29.1216   20.0570 C   0  0  0  0  0  0
  -23.1030  -29.3567   22.5995 C   0  0  0  0  0  0
  -18.8015  -25.7337   23.4894 C   0  0  0  0  0  0
  -24.1501  -36.7390   23.2613 C   0  0  0  0  0  0
  -25.9698  -30.8380   21.4463 C   0  0  0  0  0  0
  -26.0008  -29.4920   20.7596 C   0  0  0  0  0  0
  -27.1198  -28.6142   20.8100 C   0  0  0  0  0  0
  -26.1258  -27.4323   18.9883 C   0  0  0  0  0  0
  -24.9008  -28.0711   19.1518 C   0  0  0  0  0  0
  -23.6030  -29.9662   20.2016 C   0  0  0  0  0  0
  -25.4117  -36.3243   24.0344 C   0  0  1  0  0  0
  -21.8424  -27.2618   22.9403 C   0  0  2  0  0  0
  -21.4707  -26.7724   21.2652 C   0  0  0  0  0  0
  -19.9752  -25.9270   20.7326 C   0  0  0  0  0  0
  -18.7481  -25.2908   21.8399 C   0  0  0  0  0  0
  -20.6459  -26.9205   24.2229 C   0  0  0  0  0  0
  -20.2767  -28.8450   24.1328 C   0  0  0  0  0  0
  -18.8901  -29.6085   23.2650 C   0  0  0  0  0  0
  -25.9077  -34.9615   23.5190 C   0  0  0  0  0  0
  -17.5249  -28.6924   22.6573 C   0  0  0  0  0  0
  -17.3823  -26.9040   22.8523 C   0  0  0  0  0  0
  -26.4540  -31.6724   25.0957 C   0  0  0  0  0  0
  -25.3721  -31.3801   26.1604 C   0  0  0  0  0  0
  -27.0440  -30.3153   24.6452 C   0  0  0  0  0  0
  -27.6088  -32.4403   25.7760 C   0  0  0  0  0  0
  -27.5591  -37.1896   24.8475 C   0  0  0  0  0  0
  -22.0014  -28.6867   22.4339 N   0  0  0  0  0  0
  -26.4323  -37.3897   23.9391 N   0  0  0  0  0  0
  -24.6912  -31.1532   22.1229 N   0  0  0  0  0  0
  -23.8618  -28.9737   23.4740 O   0  0  0  0  0  0
  -27.7997  -26.2935   20.1254 O   0  0  0  0  0  0
  -26.5513  -34.8996   22.4674 O   0  0  0  0  0  0
  -23.5501  -32.1949   23.7771 O   0  0  0  0  0  0
  -20.7108  -23.5419   22.0334 C   0  0  0  0  0  0
  -20.8189  -23.1296   20.6702 C   0  0  0  0  0  0
  -21.5027  -24.6367   22.4242 C   0  0  0  0  0  0
  -23.0539  -22.9178   22.1093 C   0  0  0  0  0  0
  -22.1218  -22.9862   20.1594 C   0  0  0  0  0  0
  -25.9934  -19.3919   23.7018 C   0  0  0  0  0  0
  -18.6237  -27.2915   25.0929 C   0  0  0  0  0  0
  -18.1800  -27.9789   24.7395 C   0  0  0  0  0  0
  -19.5663  -27.4184   22.5016 C   0  0  0  0  0  0
  -25.0837  -20.8678   21.6675 C   0  0  1  0  0  0
  -26.2938  -19.9703   22.3126 C   0  0  2  0  0  0
  -25.3998  -24.9450   19.6292 C   0  0  0  0  0  0
  -26.9203  -25.0558   20.2262 C   0  0  0  0  0  0
  -24.4714  -23.7185   19.6801 C   0  0  0  0  0  0
  -22.7155  -22.2260   21.0155 N   0  0  0  0  0  0
  -26.3427  -18.7760   21.3119 N   0  0  0  0  0  0
  -26.0296  -18.1531   23.8825 O   0  5  0  0  0  0
  -25.7844  -20.1876   24.6378 O   0  0  0  0  0  0
  -23.0010  -23.9928   19.6987 O   0  0  0  0  0  0
  -30.0685  -15.5105   19.2355 H   0  0  0  0  0  0
  -30.2985  -14.4842   20.5481 H   0  0  0  0  0  0
  -30.3142  -12.9679   18.5913 H   0  0  0  0  0  0
  -29.1268  -13.9272   17.7633 H   0  0  0  0  0  0
  -28.6309  -11.6951   19.7070 H   0  0  0  0  0  0
  -27.7576  -12.1034   18.2202 H   0  0  0  0  0  0
  -27.0789  -14.1414   19.1478 H   0  0  0  0  0  0
  -28.7224  -13.7160   21.6799 H   0  0  0  0  0  0
  -27.2146  -14.4262   21.9006 H   0  0  0  0  0  0
  -25.2557   -9.5613   22.4820 H   0  0  0  0  0  0
  -23.9918   -7.4449   22.7466 H   0  0  0  0  0  0
  -21.0663   -8.8473   19.8952 H   0  0  0  0  0  0
  -22.3386  -10.9447   19.6205 H   0  0  0  0  0  0
  -21.1940   -7.6090   23.9696 H   0  0  0  0  0  0
  -21.1469   -6.0499   25.9093 H   0  0  0  0  0  0
  -22.0628   -2.7552   23.2910 H   0  0  0  0  0  0
  -22.3337  -11.9547   22.5175 H   0  0  0  0  0  0
  -21.0269  -13.0884   22.3200 H   0  0  0  0  0  0
  -24.3757  -15.7977   20.4226 H   0  0  0  0  0  0
  -25.9614  -15.5905   19.8598 H   0  0  0  0  0  0
  -26.7374  -32.5732   23.1442 H   0  0  0  0  0  0
  -25.0416  -34.0046   25.0797 H   0  0  0  0  0  0
  -22.6118  -31.2248   21.6496 H   0  0  0  0  0  0
  -23.3768  -35.9726   23.3327 H   0  0  0  0  0  0
  -24.3602  -36.8933   22.2020 H   0  0  0  0  0  0
  -23.7247  -37.6617   23.6560 H   0  0  0  0  0  0
  -26.1743  -31.6210   20.7135 H   0  0  0  0  0  0
  -26.8250  -30.8177   22.1075 H   0  0  0  0  0  0
  -27.9351  -28.7937   21.4961 H   0  0  0  0  0  0
  -26.2734  -26.7920   18.1364 H   0  0  0  0  0  0
  -24.0855  -27.8891   18.4657 H   0  0  0  0  0  0
  -23.6745  -30.8046   19.5085 H   0  0  0  0  0  0
  -22.7209  -29.4092   19.8876 H   0  0  0  0  0  0
  -25.1276  -36.2157   25.0840 H   0  0  0  0  0  0
  -22.7954  -26.8180   23.2426 H   0  0  0  0  0  0
  -22.3468  -26.2520   20.8717 H   0  0  0  0  0  0
  -21.5097  -27.5985   20.5549 H   0  0  0  0  0  0
  -20.1789  -25.2743   19.8921 H   0  0  0  0  0  0
  -19.4346  -26.6622   20.1334 H   0  0  0  0  0  0
  -17.8624  -25.5384   21.2543 H   0  0  0  0  0  0
  -18.4808  -24.2430   21.7266 H   0  0  0  0  0  0
  -21.0334  -29.5188   24.5133 H   0  0  0  0  0  0
  -18.8637  -30.6858   23.1772 H   0  0  0  0  0  0
  -16.6954  -29.2258   22.2093 H   0  0  0  0  0  0
  -16.4729  -26.4512   22.4756 H   0  0  0  0  0  0
  -24.5972  -30.7081   25.7886 H   0  0  0  0  0  0
  -24.8813  -32.2933   26.4983 H   0  0  0  0  0  0
  -25.8014  -30.9025   27.0423 H   0  0  0  0  0  0
  -26.3138  -29.6920   24.1300 H   0  0  0  0  0  0
  -27.3922  -29.7365   25.5022 H   0  0  0  0  0  0
  -27.9071  -30.4437   23.9912 H   0  0  0  0  0  0
  -27.2709  -33.3689   26.2373 H   0  0  0  0  0  0
  -28.3910  -32.6986   25.0606 H   0  0  0  0  0  0
  -28.0742  -31.8497   26.5661 H   0  0  0  0  0  0
  -28.2674  -38.0133   24.7465 H   0  0  0  0  0  0
  -28.1026  -36.2667   24.6383 H   0  0  0  0  0  0
  -27.2296  -37.1656   25.8880 H   0  0  0  0  0  0
  -21.3378  -29.0089   21.7490 H   0  0  0  0  0  0
  -26.0238  -38.2996   24.1347 H   0  0  0  0  0  0
  -19.8706  -23.2327   22.6355 H   0  0  0  0  0  0
  -20.1186  -22.3495   20.4066 H   0  0  0  0  0  0
  -18.0105  -26.4605   25.4925 H   0  0  0  0  0  0
  -19.2624  -27.4986   25.9763 H   0  0  0  0  0  0
  -18.2651  -28.9060   25.3521 H   0  0  0  0  0  0
  -17.0793  -27.9128   24.8651 H   0  0  0  0  0  0
  -19.5523  -28.1303   21.6556 H   0  0  0  0  0  0
  -25.4368  -21.4043   20.8015 H   0  0  0  0  0  0
  -27.2280  -20.5270   22.3507 H   0  0  0  0  0  0
  -25.3850  -25.1160   18.5564 H   0  0  0  0  0  0
  -24.8031  -25.6931   20.1464 H   0  0  0  0  0  0
  -27.5026  -24.2206   19.8372 H   0  0  0  0  0  0
  -26.8453  -24.8538   21.2955 H   0  0  0  0  0  0
  -24.8556  -23.2879   20.5853 H   0  0  0  0  0  0
  -24.6961  -23.0314   18.8627 H   0  0  0  0  0  0
  1 25  1  0  0  0
  1 30  2  0  0  0
  1 86  1  0  0  0
  2  3  1  0  0  0
  2 25  1  0  0  0
  2 90  1  0  0  0
  2 91  1  0  0  0
  3  4  1  0  0  0
  3 92  1  0  0  0
  3 93  1  0  0  0
  4  5  1  0  0  0
  4 94  1  0  0  0
  4 95  1  0  0  0
  5  6  1  0  0  0
  5 26  1  0  0  0
  5 96  1  0  0  0
  6 25  1  0  0  0
  6 97  1  0  0  0
  6 98  1  0  0  0
  7  8  2  0  0  0
  7 26  1  0  0  0
  7 29  1  0  0  0
  8  9  1  0  0  0
  8 22  1  0  0  0
  9 10  1  0  0  0
  9 27  2  0  0  0
 10 11  2  0  0  0
 10 15  1  0  0  0
 11 12  1  0  0  0
 11 99  1  0  0  0
 12 13  2  0  0  0
 12100  1  0  0  0
 13 14  1  0  0  0
 13 31  1  0  0  0
 14 15  2  0  0  0
 14101  1  0  0  0
 15102  1  0  0  0
 16 17  2  0  0  0
 16 21  1  0  0  0
 16 31  1  0  0  0
 17 18  1  0  0  0
 17103  1  0  0  0
 18 19  2  0  0  0
 18104  1  0  0  0
 19 20  1  0  0  0
 19 24  1  0  0  0
 20 21  2  0  0  0
 20105  1  0  0  0
 21 23  1  0  0  0
 22 28  1  0  0  0
 22 32  2  0  0  0
 26 27  1  0  0  0
 28106  1  0  0  0
 28107  1  0  0  0
 29108  1  0  0  0
 29109  1  0  0  0
 33 34  1  0  0  0
 33 66  1  0  0  0
 33 70  2  0  0  0
 34 36  1  0  0  0
 34 59  1  0  0  0
 34110  1  0  0  0
 35 44  2  0  0  0
 35 45  1  0  0  0
 35 68  1  0  0  0
 36 56  1  0  0  0
 36111  1  0  0  0
 37 39  1  0  0  0
 37 47  1  0  0  0
 37 66  1  0  0  0
 37112  1  0  0  0
 38 43  2  0  0  0
 38 46  1  0  0  0
 38 47  1  0  0  0
 39 64  1  0  0  0
 39 67  2  0  0  0
 40 52  1  0  0  0
 40 53  2  0  0  0
 40 58  1  0  0  0
 41113  1  0  0  0
 41114  1  0  0  0
 41115  1  0  0  0
 41 48  1  0  0  0
 42 43  1  0  0  0
 42 66  1  0  0  0
 42116  1  0  0  0
 42117  1  0  0  0
 43 44  1  0  0  0
 44118  1  0  0  0
 45 46  2  0  0  0
 45119  1  0  0  0
 46120  1  0  0  0
 47121  1  0  0  0
 47122  1  0  0  0
 48 56  1  0  0  0
 48 65  1  0  0  0
 48123  1  0  0  0
 49 50  1  0  0  0
 49 53  1  0  0  0
 49 64  1  0  0  0
 49124  1  0  0  0
 50 51  1  0  0  0
 50125  1  0  0  0
 50126  1  0  0  0
 51 52  1  0  0  0
 51127  1  0  0  0
 51128  1  0  0  0
 52129  1  0  0  0
 52130  1  0  0  0
 53 54  1  0  0  0
 54 55  2  0  0  0
 54131  1  0  0  0
 55 57  1  0  0  0
 55132  1  0  0  0
 56 69  2  0  0  0
 57 58  2  0  0  0
 57133  1  0  0  0
 58134  1  0  0  0
 59 60  1  0  0  0
 59 61  1  0  0  0
 59 62  1  0  0  0
 60135  1  0  0  0
 60136  1  0  0  0
 60137  1  0  0  0
 61138  1  0  0  0
 61139  1  0  0  0
 61140  1  0  0  0
 62141  1  0  0  0
 62142  1  0  0  0
 62143  1  0  0  0
 63 65  1  0  0  0
 63144  1  0  0  0
 63145  1  0  0  0
 63146  1  0  0  0
 64147  1  0  0  0
 65148  1  0  0  0
 68 83  1  0  0  0
 71 72  2  0  0  0
 71 73  1  0  0  0
 71149  1  0  0  0
 72 75  1  0  0  0
 72150  1  0  0  0
 73 74  2  0  0  0
 73 79  1  0  0  0
 74 85  1  0  0  0
 74 80  1  0  0  0
 75 85  2  0  0  0
 75 89  1  0  0  0
 76 87  1  0  0  0
 76 88  2  0  0  0
 76 81  1  0  0  0
 77 78  1  0  0  0
 77 79  1  0  0  0
 77151  1  0  0  0
 77152  1  0  0  0
 78 79  1  0  0  0
 78153  1  0  0  0
 78154  1  0  0  0
 79155  1  0  0  0
 80 81  1  0  0  0
 80 86  1  0  0  0
 80156  1  0  0  0
 81 86  1  0  0  0
 81157  1  0  0  0
 82 83  1  0  0  0
 82 84  1  0  0  0
 82158  1  0  0  0
 82159  1  0  0  0
 83160  1  0  0  0
 83161  1  0  0  0
 84 89  1  0  0  0
 84162  1  0  0  0
 84163  1  0  0  0
M  CHG  1  87  -1
M  ISO  4   1 100  68 101  83 101  86 100
M  END
> <chiral flag>
0

> <version>
0

> <s_m_source_file>
/data/baiqing/PycharmProjects/Reinvent-master-3.2/result/LINK_invent/BTK/process_docking_weight1_custom_sum_contain_oxygen_bond_distance_aromatic_linkinvent_7_9_3/rearranged_h_0146.sdf

> <i_m_source_file_index>
80

> <r_mmod_Potential_Energy-OPLS-2005>
35645.984375

> <r_mmod_Stretch_Energy-OPLS-2005>
19706.771484375

> <r_mmod_Bend_Energy-OPLS-2005>
2768.54516601562

> <r_mmod_Torsional_Energy-OPLS-2005>
872.286743164062

> <r_mmod_Improper_Torsional_Energy-OPLS-2005>
110.263496398926

> <r_mmod_Van_der_Waal_Energy-OPLS-2005>
4257.0390625

> <r_mmod_Electrostatic_Energy-OPLS-2005>
-675.329956054688

> <r_mmod_Solvation_Energy-OPLS-2005>
-523.742492675781

> <b_mmod_Minimization_Converged-OPLS-2005>
0

> <r_mmod_RMS_Derivative-OPLS-2005>
11.7131910324097

$$$$
81
                    3D
 Structure written by MMmdl.
164173  0  0  1  0            999 V2000
  -30.6661  -14.5465   20.5544 C   0  0  0  0  0  0
  -30.4266  -12.3440   19.4415 C   0  0  0  0  0  0
  -29.5009  -12.5086   18.2171 C   0  0  0  0  0  0
  -28.0205  -12.3621   18.6240 C   0  0  0  0  0  0
  -27.6566  -13.2123   19.8706 C   0  0  2  0  0  0
  -28.6975  -13.0218   20.9974 C   0  0  0  0  0  0
  -25.2556  -13.8163   20.5676 C   0  0  0  0  0  0
  -24.1814  -13.0437   20.9184 C   0  0  0  0  0  0
  -24.6376  -11.6902   20.8728 C   0  0  0  0  0  0
  -23.9041  -10.4290   21.0399 C   0  0  0  0  0  0
  -24.3601   -9.4207   21.9181 C   0  0  0  0  0  0
  -23.6283   -8.2239   22.0750 C   0  0  0  0  0  0
  -22.4258   -8.0281   21.3551 C   0  0  0  0  0  0
  -21.9889   -9.0246   20.4649 C   0  0  0  0  0  0
  -22.7213  -10.2130   20.3051 C   0  0  0  0  0  0
  -21.6849   -6.0731   22.5278 C   0  0  0  0  0  0
  -21.4018   -6.5633   23.8213 C   0  0  0  0  0  0
  -21.3660   -5.6787   24.9173 C   0  0  0  0  0  0
  -21.6041   -4.3053   24.7224 C   0  0  0  0  0  0
  -21.8815   -3.8144   23.4346 C   0  0  0  0  0  0
  -21.9191   -4.6958   22.3405 C   0  0  0  0  0  0
  -22.7834  -13.5241   21.1849 C   0  0  0  0  0  0
  -22.1660   -4.2145   21.0978 F   0  0  0  0  0  0
  -21.5633   -3.4538   25.7745 F   0  0  0  0  0  0
  -30.0205  -13.3480   20.4415 N   0  0  0  0  0  0
  -26.2986  -12.9343   20.3332 N   0  0  0  0  0  0
  -25.9305  -11.6499   20.5749 N   0  0  0  0  0  0
  -22.0462  -12.8248   22.0405 N   0  0  0  0  0  0
  -25.4288  -15.1883   20.4097 N   0  0  0  0  0  0
  -31.7989  -14.7063   20.0945 O   0  0  0  0  0  0
  -21.6637   -6.8869   21.4237 O   0  0  0  0  0  0
  -22.3521  -14.5544   20.6690 O   0  0  0  0  0  0
  -24.6222  -31.8644   23.2079 C   0  0  0  0  0  0
  -25.9090  -32.4804   23.8397 C   0  0  1  0  0  0
  -27.2235  -27.3663   20.1090 C   0  0  0  0  0  0
  -25.5922  -33.8602   24.2318 N   0  0  0  0  0  0
  -23.4127  -30.4910   21.5492 C   0  0  2  0  0  0
  -24.8577  -28.9547   20.1135 C   0  0  0  0  0  0
  -22.7451  -29.4652   22.4953 C   0  0  0  0  0  0
  -18.0281  -28.1384   22.8483 C   0  0  0  0  0  0
  -24.1483  -36.7299   23.2641 C   0  0  0  0  0  0
  -25.9507  -30.8099   21.3736 C   0  0  0  0  0  0
  -26.0245  -29.4418   20.7153 C   0  0  0  0  0  0
  -27.2112  -28.6582   20.7053 C   0  0  0  0  0  0
  -26.0360  -26.9248   19.4792 C   0  0  0  0  0  0
  -24.8632  -27.6988   19.4891 C   0  0  0  0  0  0
  -23.6247  -29.8301   20.1626 C   0  0  0  0  0  0
  -25.4102  -36.3093   24.0337 C   0  0  1  0  0  0
  -20.5880  -28.3681   23.1287 C   0  0  2  0  0  0
  -20.6769  -26.9409   22.5409 C   0  0  0  0  0  0
  -19.5743  -26.6385   21.5208 C   0  0  0  0  0  0
  -18.1921  -26.7930   22.1621 C   0  0  0  0  0  0
  -19.1531  -28.8848   23.2883 C   0  0  0  0  0  0
  -18.9458  -30.1449   23.8895 C   0  0  0  0  0  0
  -17.6457  -30.6588   24.0559 C   0  0  0  0  0  0
  -25.9038  -34.9462   23.5117 C   0  0  0  0  0  0
  -16.5349  -29.9085   23.6328 C   0  0  0  0  0  0
  -16.7268  -28.6507   23.0344 C   0  0  0  0  0  0
  -26.4494  -31.6600   25.0746 C   0  0  0  0  0  0
  -25.3744  -31.3726   26.1486 C   0  0  0  0  0  0
  -27.0345  -30.3034   24.6182 C   0  0  0  0  0  0
  -27.6063  -32.4331   25.7506 C   0  0  0  0  0  0
  -27.5571  -37.1802   24.8460 C   0  0  0  0  0  0
  -21.4171  -29.3046   22.3692 N   0  0  0  0  0  0
  -26.4284  -37.3780   23.9410 N   0  0  0  0  0  0
  -24.6803  -31.0708   22.1005 N   0  0  0  0  0  0
  -23.4200  -28.8177   23.3007 O   0  0  0  0  0  0
  -28.3614  -26.5605   20.1273 O   0  0  0  0  0  0
  -26.5595  -34.8923   22.4678 O   0  0  0  0  0  0
  -23.5395  -32.1422   23.7435 O   0  0  0  0  0  0
  -32.3144  -21.2815   19.0938 C   0  0  0  0  0  0
  -31.3602  -22.2306   19.4808 C   0  0  0  0  0  0
  -29.9516  -20.4323   20.3212 C   0  0  0  0  0  0
  -30.9234  -19.4434   19.9441 C   0  0  0  0  0  0
  -32.1117  -19.9028   19.3001 C   0  0  0  0  0  0
  -30.1453  -21.8375   20.0848 C   0  0  0  0  0  0
  -31.6491  -17.4509   21.3300 C   0  0  0  0  0  0
  -30.7997  -17.9178   20.1593 C   0  0  1  0  0  0
  -30.2160  -17.0044   21.2678 C   0  0  1  0  0  0
  -34.5436  -19.1712   19.5166 C   0  0  0  0  0  0
  -33.3639  -19.0493   17.2637 C   0  0  0  0  0  0
  -28.1645  -25.1300   20.3847 C   0  0  0  0  0  0
  -29.4052  -24.2023   20.1619 C   0  0  0  0  0  0
  -33.2082  -18.9511   18.7893 C   0  0  0  0  0  0
  -29.9308  -15.5709   21.0708 N   0  0  0  0  0  0
  -29.1700  -22.7828   20.4315 O   0  0  0  0  0  0
  -31.4728  -12.4434   19.1468 H   0  0  0  0  0  0
  -30.3355  -11.3403   19.8589 H   0  0  0  0  0  0
  -29.7526  -11.7750   17.4502 H   0  0  0  0  0  0
  -29.6610  -13.4881   17.7649 H   0  0  0  0  0  0
  -27.8395  -11.3063   18.8315 H   0  0  0  0  0  0
  -27.3723  -12.6254   17.7869 H   0  0  0  0  0  0
  -27.6926  -14.2558   19.5562 H   0  0  0  0  0  0
  -28.6898  -11.9890   21.3506 H   0  0  0  0  0  0
  -28.4520  -13.6293   21.8684 H   0  0  0  0  0  0
  -25.2742   -9.5706   22.4750 H   0  0  0  0  0  0
  -24.0010   -7.4628   22.7462 H   0  0  0  0  0  0
  -21.0827   -8.8752   19.8945 H   0  0  0  0  0  0
  -22.3666  -10.9663   19.6158 H   0  0  0  0  0  0
  -21.2010   -7.6142   23.9721 H   0  0  0  0  0  0
  -21.1487   -6.0516   25.9080 H   0  0  0  0  0  0
  -22.0596   -2.7607   23.2843 H   0  0  0  0  0  0
  -22.4074  -11.9923   22.4811 H   0  0  0  0  0  0
  -21.1072  -13.1279   22.2585 H   0  0  0  0  0  0
  -24.6640  -15.8459   20.5208 H   0  0  0  0  0  0
  -26.2799  -15.6264   20.0802 H   0  0  0  0  0  0
  -26.7164  -32.5491   23.1155 H   0  0  0  0  0  0
  -25.0079  -33.9764   25.0471 H   0  0  0  0  0  0
  -22.7039  -31.3101   21.4105 H   0  0  0  0  0  0
  -23.3744  -35.9631   23.3299 H   0  0  0  0  0  0
  -24.3574  -36.8923   22.2056 H   0  0  0  0  0  0
  -23.7245  -37.6506   23.6660 H   0  0  0  0  0  0
  -26.0795  -31.5771   20.6088 H   0  0  0  0  0  0
  -26.8321  -30.8560   22.0013 H   0  0  0  0  0  0
  -28.1085  -29.0288   21.1813 H   0  0  0  0  0  0
  -25.9881  -25.9822   18.9568 H   0  0  0  0  0  0
  -23.9711  -27.3232   19.0075 H   0  0  0  0  0  0
  -23.7423  -30.6090   19.4080 H   0  0  0  0  0  0
  -22.7456  -29.2586   19.8593 H   0  0  0  0  0  0
  -25.1283  -36.1944   25.0831 H   0  0  0  0  0  0
  -20.9973  -28.3253   24.1406 H   0  0  0  0  0  0
  -20.5665  -26.2291   23.3605 H   0  0  0  0  0  0
  -21.6640  -26.7439   22.1204 H   0  0  0  0  0  0
  -19.6900  -25.6294   21.1237 H   0  0  0  0  0  0
  -19.6681  -27.3196   20.6735 H   0  0  0  0  0  0
  -17.4194  -26.6677   21.4020 H   0  0  0  0  0  0
  -18.0316  -26.0075   22.9018 H   0  0  0  0  0  0
  -19.7932  -30.7265   24.2269 H   0  0  0  0  0  0
  -17.5013  -31.6269   24.5155 H   0  0  0  0  0  0
  -15.5346  -30.2982   23.7658 H   0  0  0  0  0  0
  -15.8671  -28.0827   22.7054 H   0  0  0  0  0  0
  -24.5898  -30.7101   25.7816 H   0  0  0  0  0  0
  -24.8963  -32.2890   26.4952 H   0  0  0  0  0  0
  -25.8083  -30.8869   27.0235 H   0  0  0  0  0  0
  -26.2919  -29.6775   24.1218 H   0  0  0  0  0  0
  -27.4075  -29.7301   25.4680 H   0  0  0  0  0  0
  -27.8772  -30.4344   23.9388 H   0  0  0  0  0  0
  -27.2686  -33.3631   26.2092 H   0  0  0  0  0  0
  -28.3862  -32.6891   25.0321 H   0  0  0  0  0  0
  -28.0743  -31.8452   26.5412 H   0  0  0  0  0  0
  -28.2589  -38.0099   24.7506 H   0  0  0  0  0  0
  -28.1067  -36.2630   24.6275 H   0  0  0  0  0  0
  -27.2291  -37.1447   25.8866 H   0  0  0  0  0  0
  -20.9330  -29.8785   21.6927 H   0  0  0  0  0  0
  -26.0162  -38.2858   24.1407 H   0  0  0  0  0  0
  -33.2200  -21.6276   18.6165 H   0  0  0  0  0  0
  -31.5977  -23.2652   19.2831 H   0  0  0  0  0  0
  -29.0373  -20.1076   20.7971 H   0  0  0  0  0  0
  -31.8769  -18.1760   22.1095 H   0  0  0  0  0  0
  -32.4738  -16.7835   21.1006 H   0  0  0  0  0  0
  -30.8694  -17.4177   19.1951 H   0  0  0  0  0  0
  -29.5300  -17.5057   21.9483 H   0  0  0  0  0  0
  -34.4235  -19.0451   20.5928 H   0  0  0  0  0  0
  -34.9538  -20.1651   19.3396 H   0  0  0  0  0  0
  -35.2873  -18.4442   19.1878 H   0  0  0  0  0  0
  -32.4174  -18.8398   16.7636 H   0  0  0  0  0  0
  -34.0935  -18.3269   16.8966 H   0  0  0  0  0  0
  -33.6949  -20.0381   16.9475 H   0  0  0  0  0  0
  -27.8211  -25.0230   21.4146 H   0  0  0  0  0  0
  -27.3801  -24.7099   19.7615 H   0  0  0  0  0  0
  -30.2278  -24.5549   20.7858 H   0  0  0  0  0  0
  -29.7060  -24.3275   19.1213 H   0  0  0  0  0  0
  -32.9575  -17.9113   18.9766 H   0  0  0  0  0  0
  -29.0100  -15.2861   21.3706 H   0  0  0  0  0  0
  1 25  1  0  0  0
  1 30  2  0  0  0
  1 85  1  0  0  0
  2  3  1  0  0  0
  2 25  1  0  0  0
  2 87  1  0  0  0
  2 88  1  0  0  0
  3  4  1  0  0  0
  3 89  1  0  0  0
  3 90  1  0  0  0
  4  5  1  0  0  0
  4 91  1  0  0  0
  4 92  1  0  0  0
  5  6  1  0  0  0
  5 26  1  0  0  0
  5 93  1  0  0  0
  6 25  1  0  0  0
  6 94  1  0  0  0
  6 95  1  0  0  0
  7  8  2  0  0  0
  7 26  1  0  0  0
  7 29  1  0  0  0
  8  9  1  0  0  0
  8 22  1  0  0  0
  9 10  1  0  0  0
  9 27  2  0  0  0
 10 11  2  0  0  0
 10 15  1  0  0  0
 11 12  1  0  0  0
 11 96  1  0  0  0
 12 13  2  0  0  0
 12 97  1  0  0  0
 13 14  1  0  0  0
 13 31  1  0  0  0
 14 15  2  0  0  0
 14 98  1  0  0  0
 15 99  1  0  0  0
 16 17  2  0  0  0
 16 21  1  0  0  0
 16 31  1  0  0  0
 17 18  1  0  0  0
 17100  1  0  0  0
 18 19  2  0  0  0
 18101  1  0  0  0
 19 20  1  0  0  0
 19 24  1  0  0  0
 20 21  2  0  0  0
 20102  1  0  0  0
 21 23  1  0  0  0
 22 28  1  0  0  0
 22 32  2  0  0  0
 26 27  1  0  0  0
 28103  1  0  0  0
 28104  1  0  0  0
 29105  1  0  0  0
 29106  1  0  0  0
 33 34  1  0  0  0
 33 66  1  0  0  0
 33 70  2  0  0  0
 34 36  1  0  0  0
 34 59  1  0  0  0
 34107  1  0  0  0
 35 44  2  0  0  0
 35 45  1  0  0  0
 35 68  1  0  0  0
 36 56  1  0  0  0
 36108  1  0  0  0
 37 39  1  0  0  0
 37 47  1  0  0  0
 37 66  1  0  0  0
 37109  1  0  0  0
 38 43  2  0  0  0
 38 46  1  0  0  0
 38 47  1  0  0  0
 39 64  1  0  0  0
 39 67  2  0  0  0
 40 52  1  0  0  0
 40 53  2  0  0  0
 40 58  1  0  0  0
 41110  1  0  0  0
 41111  1  0  0  0
 41112  1  0  0  0
 41 48  1  0  0  0
 42 43  1  0  0  0
 42 66  1  0  0  0
 42113  1  0  0  0
 42114  1  0  0  0
 43 44  1  0  0  0
 44115  1  0  0  0
 45 46  2  0  0  0
 45116  1  0  0  0
 46117  1  0  0  0
 47118  1  0  0  0
 47119  1  0  0  0
 48 56  1  0  0  0
 48 65  1  0  0  0
 48120  1  0  0  0
 49 50  1  0  0  0
 49 53  1  0  0  0
 49 64  1  0  0  0
 49121  1  0  0  0
 50 51  1  0  0  0
 50122  1  0  0  0
 50123  1  0  0  0
 51 52  1  0  0  0
 51124  1  0  0  0
 51125  1  0  0  0
 52126  1  0  0  0
 52127  1  0  0  0
 53 54  1  0  0  0
 54 55  2  0  0  0
 54128  1  0  0  0
 55 57  1  0  0  0
 55129  1  0  0  0
 56 69  2  0  0  0
 57 58  2  0  0  0
 57130  1  0  0  0
 58131  1  0  0  0
 59 60  1  0  0  0
 59 61  1  0  0  0
 59 62  1  0  0  0
 60132  1  0  0  0
 60133  1  0  0  0
 60134  1  0  0  0
 61135  1  0  0  0
 61136  1  0  0  0
 61137  1  0  0  0
 62138  1  0  0  0
 62139  1  0  0  0
 62140  1  0  0  0
 63 65  1  0  0  0
 63141  1  0  0  0
 63142  1  0  0  0
 63143  1  0  0  0
 64144  1  0  0  0
 65145  1  0  0  0
 68 82  1  0  0  0
 71 72  2  0  0  0
 71 75  1  0  0  0
 71146  1  0  0  0
 72 76  1  0  0  0
 72147  1  0  0  0
 73 74  1  0  0  0
 73 76  2  0  0  0
 73148  1  0  0  0
 74 75  2  0  0  0
 74 78  1  0  0  0
 75 84  1  0  0  0
 76 86  1  0  0  0
 77 78  1  0  0  0
 77 79  1  0  0  0
 77149  1  0  0  0
 77150  1  0  0  0
 78 79  1  0  0  0
 78151  1  0  0  0
 79 85  1  0  0  0
 79152  1  0  0  0
 80153  1  0  0  0
 80154  1  0  0  0
 80155  1  0  0  0
 80 84  1  0  0  0
 81 84  1  0  0  0
 81156  1  0  0  0
 81157  1  0  0  0
 81158  1  0  0  0
 82 83  1  0  0  0
 82159  1  0  0  0
 82160  1  0  0  0
 83 86  1  0  0  0
 83161  1  0  0  0
 83162  1  0  0  0
 84163  1  0  0  0
 85164  1  0  0  0
M  ISO  4   1 100  68 101  82 101  85 100
M  END
> <chiral flag>
0

> <version>
0

> <s_m_source_file>
/data/baiqing/PycharmProjects/Reinvent-master-3.2/result/LINK_invent/BTK/process_docking_weight1_custom_sum_contain_oxygen_bond_distance_aromatic_linkinvent_7_9_3/rearranged_h_0146.sdf

> <i_m_source_file_index>
81

> <r_mmod_Potential_Energy-OPLS-2005>
83.6249771118164

> <r_mmod_Stretch_Energy-OPLS-2005>
66.0414199829102

> <r_mmod_Bend_Energy-OPLS-2005>
152.069427490234

> <r_mmod_Torsional_Energy-OPLS-2005>
273.820709228516

> <r_mmod_Improper_Torsional_Energy-OPLS-2005>
3.11860966682434

> <r_mmod_Van_der_Waal_Energy-OPLS-2005>
164.480041503906

> <r_mmod_Electrostatic_Energy-OPLS-2005>
-395.460784912109

> <r_mmod_Solvation_Energy-OPLS-2005>
-206.114532470703

> <b_mmod_Minimization_Converged-OPLS-2005>
0

> <r_mmod_RMS_Derivative-OPLS-2005>
1.71288883686066

$$$$
82
                    3D
 Structure written by MMmdl.
151160  0  0  1  0            999 V2000
  -30.5308  -14.9432   20.4258 C   0  0  0  0  0  0
  -30.4491  -12.5821   19.4921 C   0  0  0  0  0  0
  -29.5259  -12.5340   18.2505 C   0  0  0  0  0  0
  -28.0587  -12.3181   18.6700 C   0  0  0  0  0  0
  -27.6353  -13.2443   19.8401 C   0  0  2  0  0  0
  -28.6808  -13.2537   20.9779 C   0  0  0  0  0  0
  -25.2498  -13.8209   20.5699 C   0  0  0  0  0  0
  -24.1807  -13.0440   20.9227 C   0  0  0  0  0  0
  -24.6410  -11.6931   20.8743 C   0  0  0  0  0  0
  -23.9099  -10.4300   21.0398 C   0  0  0  0  0  0
  -24.3639   -9.4205   21.9175 C   0  0  0  0  0  0
  -23.6306   -8.2243   22.0750 C   0  0  0  0  0  0
  -22.4288   -8.0289   21.3542 C   0  0  0  0  0  0
  -21.9934   -9.0271   20.4643 C   0  0  0  0  0  0
  -22.7273  -10.2145   20.3044 C   0  0  0  0  0  0
  -21.6860   -6.0745   22.5288 C   0  0  0  0  0  0
  -21.4012   -6.5638   23.8222 C   0  0  0  0  0  0
  -21.3660   -5.6782   24.9176 C   0  0  0  0  0  0
  -21.6044   -4.3048   24.7220 C   0  0  0  0  0  0
  -21.8819   -3.8151   23.4339 C   0  0  0  0  0  0
  -21.9190   -4.6972   22.3401 C   0  0  0  0  0  0
  -22.7830  -13.5218   21.1890 C   0  0  0  0  0  0
  -22.1663   -4.2166   21.0973 F   0  0  0  0  0  0
  -21.5629   -3.4520   25.7730 F   0  0  0  0  0  0
  -29.9595  -13.6712   20.3855 N   0  0  0  0  0  0
  -26.2925  -12.9429   20.3234 N   0  0  0  0  0  0
  -25.9339  -11.6572   20.5727 N   0  0  0  0  0  0
  -22.0468  -12.8214   22.0439 N   0  0  0  0  0  0
  -25.4159  -15.1948   20.4112 N   0  0  0  0  0  0
  -31.7280  -15.0402   20.1359 O   0  0  0  0  0  0
  -21.6635   -6.8900   21.4258 O   0  0  0  0  0  0
  -22.3525  -14.5532   20.6758 O   0  0  0  0  0  0
  -24.6409  -31.8448   23.1885 C   0  0  0  0  0  0
  -25.9204  -32.4702   23.8264 C   0  0  1  0  0  0
  -27.2268  -27.1441   20.1634 C   0  0  0  0  0  0
  -25.5958  -33.8502   24.2190 N   0  0  0  0  0  0
  -23.4436  -30.4625   21.5345 C   0  0  2  0  0  0
  -24.8978  -28.8904   20.1129 C   0  0  0  0  0  0
  -22.7565  -29.4533   22.4863 C   0  0  0  0  0  0
  -18.0313  -28.1379   22.8466 C   0  0  0  0  0  0
  -24.1497  -36.7258   23.2641 C   0  0  0  0  0  0
  -25.9977  -30.7236   21.3833 C   0  0  0  0  0  0
  -26.0726  -29.3339   20.7309 C   0  0  0  0  0  0
  -27.2364  -28.4788   20.7384 C   0  0  0  0  0  0
  -26.0227  -26.8000   19.5072 C   0  0  0  0  0  0
  -24.8858  -27.6363   19.4845 C   0  0  0  0  0  0
  -23.6719  -29.7898   20.1549 C   0  0  0  0  0  0
  -25.4131  -36.3028   24.0304 C   0  0  1  0  0  0
  -20.5923  -28.3710   23.1240 C   0  0  2  0  0  0
  -20.6802  -26.9406   22.5415 C   0  0  0  0  0  0
  -19.5780  -26.6357   21.5227 C   0  0  0  0  0  0
  -18.1953  -26.7912   22.1627 C   0  0  0  0  0  0
  -19.1563  -28.8856   23.2848 C   0  0  0  0  0  0
  -18.9476  -30.1450   23.8881 C   0  0  0  0  0  0
  -17.6474  -30.6568   24.0567 C   0  0  0  0  0  0
  -25.9078  -34.9402   23.5056 C   0  0  0  0  0  0
  -16.5362  -29.9069   23.6338 C   0  0  0  0  0  0
  -16.7292  -28.6487   23.0361 C   0  0  0  0  0  0
  -26.4527  -31.6567   25.0699 C   0  0  0  0  0  0
  -25.3716  -31.3749   26.1404 C   0  0  0  0  0  0
  -27.0382  -30.2963   24.6262 C   0  0  0  0  0  0
  -27.6060  -32.4323   25.7500 C   0  0  0  0  0  0
  -27.5573  -37.1791   24.8463 C   0  0  0  0  0  0
  -21.4264  -29.3058   22.3645 N   0  0  0  0  0  0
  -26.4293  -37.3742   23.9398 N   0  0  0  0  0  0
  -24.7136  -31.0300   22.0917 N   0  0  0  0  0  0
  -23.4211  -28.8063   23.3000 O   0  0  0  0  0  0
  -28.2969  -26.1792   20.2480 O   0  0  0  0  0  0
  -26.5653  -34.8900   22.4632 O   0  0  0  0  0  0
  -23.5531  -32.1319   23.7103 O   0  0  0  0  0  0
  -30.6368  -19.8240   20.2325 C   0  0  0  0  0  0
  -30.8990  -18.3722   20.3356 C   0  0  0  0  0  0
  -29.3174  -20.2607   20.2829 C   0  0  0  0  0  0
  -29.8141  -17.5179   20.4947 C   0  0  0  0  0  0
  -27.7006  -23.9636   21.2675 C   0  0  0  0  0  0
  -28.8216  -23.2544   20.5185 C   0  0  2  0  0  0
  -28.0904  -24.6603   19.9825 C   0  0  2  0  0  0
  -27.1539  -21.4747   19.5784 C   0  0  0  0  0  0
  -28.6424  -21.7162   19.8833 C   0  0  2  0  0  0
  -29.6977  -16.0812   20.6061 N   0  0  0  0  0  0
  -28.4174  -18.6931   20.5535 S   0  0  0  0  0  0
  -31.4839  -12.7391   19.1828 H   0  0  0  0  0  0
  -30.4371  -11.6246   20.0169 H   0  0  0  0  0  0
  -29.8445  -11.7412   17.5721 H   0  0  0  0  0  0
  -29.6161  -13.4652   17.6874 H   0  0  0  0  0  0
  -27.9575  -11.2767   18.9784 H   0  0  0  0  0  0
  -27.3956  -12.4471   17.8136 H   0  0  0  0  0  0
  -27.6039  -14.2490   19.4201 H   0  0  0  0  0  0
  -28.7674  -12.2693   21.4391 H   0  0  0  0  0  0
  -28.3804  -13.9391   21.7721 H   0  0  0  0  0  0
  -25.2786   -9.5666   22.4743 H   0  0  0  0  0  0
  -24.0013   -7.4622   22.7456 H   0  0  0  0  0  0
  -21.0872   -8.8801   19.8935 H   0  0  0  0  0  0
  -22.3750  -10.9685   19.6144 H   0  0  0  0  0  0
  -21.2001   -7.6144   23.9748 H   0  0  0  0  0  0
  -21.1482   -6.0488   25.9088 H   0  0  0  0  0  0
  -22.0598   -2.7618   23.2822 H   0  0  0  0  0  0
  -22.4094  -11.9869   22.4800 H   0  0  0  0  0  0
  -21.1089  -13.1255   22.2647 H   0  0  0  0  0  0
  -24.6405  -15.8408   20.5001 H   0  0  0  0  0  0
  -26.2466  -15.6311   20.0331 H   0  0  0  0  0  0
  -26.7259  -32.5310   23.0982 H   0  0  0  0  0  0
  -25.0103  -33.9616   25.0333 H   0  0  0  0  0  0
  -22.7439  -31.2874   21.3802 H   0  0  0  0  0  0
  -23.3746  -35.9605   23.3297 H   0  0  0  0  0  0
  -24.3570  -36.8902   22.2055 H   0  0  0  0  0  0
  -23.7274  -37.6459   23.6682 H   0  0  0  0  0  0
  -26.1446  -31.4731   20.6048 H   0  0  0  0  0  0
  -26.8693  -30.7793   22.0232 H   0  0  0  0  0  0
  -28.1300  -28.8154   21.2444 H   0  0  0  0  0  0
  -25.9140  -25.8422   19.0234 H   0  0  0  0  0  0
  -23.9885  -27.2898   18.9900 H   0  0  0  0  0  0
  -23.8091  -30.5625   19.3977 H   0  0  0  0  0  0
  -22.7889  -29.2306   19.8407 H   0  0  0  0  0  0
  -25.1318  -36.1858   25.0788 H   0  0  0  0  0  0
  -20.9993  -28.3305   24.1370 H   0  0  0  0  0  0
  -20.5706  -26.2318   23.3636 H   0  0  0  0  0  0
  -21.6663  -26.7397   22.1201 H   0  0  0  0  0  0
  -19.6938  -25.6265   21.1269 H   0  0  0  0  0  0
  -19.6745  -27.3134   20.6727 H   0  0  0  0  0  0
  -17.4235  -26.6641   21.4009 H   0  0  0  0  0  0
  -18.0353  -26.0079   22.9057 H   0  0  0  0  0  0
  -19.7954  -30.7277   24.2220 H   0  0  0  0  0  0
  -17.5019  -31.6257   24.5154 H   0  0  0  0  0  0
  -15.5356  -30.2974   23.7648 H   0  0  0  0  0  0
  -15.8683  -28.0816   22.7079 H   0  0  0  0  0  0
  -24.5917  -30.7075   25.7718 H   0  0  0  0  0  0
  -24.8883  -32.2921   26.4764 H   0  0  0  0  0  0
  -25.8003  -30.8971   27.0226 H   0  0  0  0  0  0
  -26.2981  -29.6704   24.1266 H   0  0  0  0  0  0
  -27.3985  -29.7248   25.4824 H   0  0  0  0  0  0
  -27.8893  -30.4179   23.9568 H   0  0  0  0  0  0
  -27.2660  -33.3645   26.2023 H   0  0  0  0  0  0
  -28.3917  -32.6853   25.0369 H   0  0  0  0  0  0
  -28.0685  -31.8491   26.5475 H   0  0  0  0  0  0
  -28.2582  -38.0096   24.7474 H   0  0  0  0  0  0
  -28.1070  -36.2603   24.6323 H   0  0  0  0  0  0
  -27.2268  -37.1489   25.8866 H   0  0  0  0  0  0
  -20.9479  -29.8793   21.6842 H   0  0  0  0  0  0
  -26.0148  -38.2804   24.1412 H   0  0  0  0  0  0
  -31.4650  -20.4974   20.0586 H   0  0  0  0  0  0
  -31.9165  -18.0119   20.2635 H   0  0  0  0  0  0
  -27.9779  -24.4562   22.1974 H   0  0  0  0  0  0
  -26.7134  -23.5090   21.2957 H   0  0  0  0  0  0
  -29.8337  -23.4218   20.8825 H   0  0  0  0  0  0
  -27.5174  -24.5055   19.0728 H   0  0  0  0  0  0
  -27.0323  -20.6803   18.8430 H   0  0  0  0  0  0
  -26.6637  -22.3575   19.1707 H   0  0  0  0  0  0
  -26.6136  -21.1768   20.4770 H   0  0  0  0  0  0
  -29.0751  -21.8892   18.8981 H   0  0  0  0  0  0
  -28.7553  -15.7859   20.8102 H   0  0  0  0  0  0
  1 25  1  0  0  0
  1 30  2  0  0  0
  1 80  1  0  0  0
  2  3  1  0  0  0
  2 25  1  0  0  0
  2 82  1  0  0  0
  2 83  1  0  0  0
  3  4  1  0  0  0
  3 84  1  0  0  0
  3 85  1  0  0  0
  4  5  1  0  0  0
  4 86  1  0  0  0
  4 87  1  0  0  0
  5  6  1  0  0  0
  5 26  1  0  0  0
  5 88  1  0  0  0
  6 25  1  0  0  0
  6 89  1  0  0  0
  6 90  1  0  0  0
  7  8  2  0  0  0
  7 26  1  0  0  0
  7 29  1  0  0  0
  8  9  1  0  0  0
  8 22  1  0  0  0
  9 10  1  0  0  0
  9 27  2  0  0  0
 10 11  2  0  0  0
 10 15  1  0  0  0
 11 12  1  0  0  0
 11 91  1  0  0  0
 12 13  2  0  0  0
 12 92  1  0  0  0
 13 14  1  0  0  0
 13 31  1  0  0  0
 14 15  2  0  0  0
 14 93  1  0  0  0
 15 94  1  0  0  0
 16 17  2  0  0  0
 16 21  1  0  0  0
 16 31  1  0  0  0
 17 18  1  0  0  0
 17 95  1  0  0  0
 18 19  2  0  0  0
 18 96  1  0  0  0
 19 20  1  0  0  0
 19 24  1  0  0  0
 20 21  2  0  0  0
 20 97  1  0  0  0
 21 23  1  0  0  0
 22 28  1  0  0  0
 22 32  2  0  0  0
 26 27  1  0  0  0
 28 98  1  0  0  0
 28 99  1  0  0  0
 29100  1  0  0  0
 29101  1  0  0  0
 33 34  1  0  0  0
 33 66  1  0  0  0
 33 70  2  0  0  0
 34 36  1  0  0  0
 34 59  1  0  0  0
 34102  1  0  0  0
 35 44  2  0  0  0
 35 45  1  0  0  0
 35 68  1  0  0  0
 36 56  1  0  0  0
 36103  1  0  0  0
 37 39  1  0  0  0
 37 47  1  0  0  0
 37 66  1  0  0  0
 37104  1  0  0  0
 38 43  2  0  0  0
 38 46  1  0  0  0
 38 47  1  0  0  0
 39 64  1  0  0  0
 39 67  2  0  0  0
 40 52  1  0  0  0
 40 53  2  0  0  0
 40 58  1  0  0  0
 41105  1  0  0  0
 41106  1  0  0  0
 41107  1  0  0  0
 41 48  1  0  0  0
 42 43  1  0  0  0
 42 66  1  0  0  0
 42108  1  0  0  0
 42109  1  0  0  0
 43 44  1  0  0  0
 44110  1  0  0  0
 45 46  2  0  0  0
 45111  1  0  0  0
 46112  1  0  0  0
 47113  1  0  0  0
 47114  1  0  0  0
 48 56  1  0  0  0
 48 65  1  0  0  0
 48115  1  0  0  0
 49 50  1  0  0  0
 49 53  1  0  0  0
 49 64  1  0  0  0
 49116  1  0  0  0
 50 51  1  0  0  0
 50117  1  0  0  0
 50118  1  0  0  0
 51 52  1  0  0  0
 51119  1  0  0  0
 51120  1  0  0  0
 52121  1  0  0  0
 52122  1  0  0  0
 53 54  1  0  0  0
 54 55  2  0  0  0
 54123  1  0  0  0
 55 57  1  0  0  0
 55124  1  0  0  0
 56 69  2  0  0  0
 57 58  2  0  0  0
 57125  1  0  0  0
 58126  1  0  0  0
 59 60  1  0  0  0
 59 61  1  0  0  0
 59 62  1  0  0  0
 60127  1  0  0  0
 60128  1  0  0  0
 60129  1  0  0  0
 61130  1  0  0  0
 61131  1  0  0  0
 61132  1  0  0  0
 62133  1  0  0  0
 62134  1  0  0  0
 62135  1  0  0  0
 63 65  1  0  0  0
 63136  1  0  0  0
 63137  1  0  0  0
 63138  1  0  0  0
 64139  1  0  0  0
 65140  1  0  0  0
 68 77  1  0  0  0
 71 72  1  0  0  0
 71 73  2  0  0  0
 71141  1  0  0  0
 72 74  2  0  0  0
 72142  1  0  0  0
 73 79  1  0  0  0
 73 81  1  0  0  0
 74 80  1  0  0  0
 74 81  1  0  0  0
 75 77  1  0  0  0
 75143  1  0  0  0
 75144  1  0  0  0
 75 76  1  0  0  0
 76 77  1  0  0  0
 76 79  1  0  0  0
 76145  1  0  0  0
 77146  1  0  0  0
 78147  1  0  0  0
 78148  1  0  0  0
 78149  1  0  0  0
 78 79  1  0  0  0
 79150  1  0  0  0
 80151  1  0  0  0
M  ISO  4   1 100  68 101  77 101  80 100
M  END
> <chiral flag>
0

> <version>
0

> <s_m_source_file>
/data/baiqing/PycharmProjects/Reinvent-master-3.2/result/LINK_invent/BTK/process_docking_weight1_custom_sum_contain_oxygen_bond_distance_aromatic_linkinvent_7_9_3/rearranged_h_0146.sdf

> <i_m_source_file_index>
82

> <r_mmod_Potential_Energy-OPLS-2005>
492.048858642578

> <r_mmod_Stretch_Energy-OPLS-2005>
241.282638549805

> <r_mmod_Bend_Energy-OPLS-2005>
282.430450439453

> <r_mmod_Torsional_Energy-OPLS-2005>
237.330688476562

> <r_mmod_Improper_Torsional_Energy-OPLS-2005>
5.66978740692139

> <r_mmod_Van_der_Waal_Energy-OPLS-2005>
113.472473144531

> <r_mmod_Electrostatic_Energy-OPLS-2005>
-370.399353027344

> <r_mmod_Solvation_Energy-OPLS-2005>
-203.085708618164

> <b_mmod_Minimization_Converged-OPLS-2005>
0

> <r_mmod_RMS_Derivative-OPLS-2005>
3.11013650894165

$$$$
83
                    3D
 Structure written by MMmdl.
162170  0  0  1  0            999 V2000
  -30.6974  -14.4659   20.6187 C   0  0  0  0  0  0
  -30.4266  -12.3255   19.4073 C   0  0  0  0  0  0
  -29.4930  -12.5215   18.1964 C   0  0  0  0  0  0
  -28.0133  -12.3812   18.6070 C   0  0  0  0  0  0
  -27.6619  -13.2062   19.8746 C   0  0  2  0  0  0
  -28.7033  -12.9674   20.9896 C   0  0  0  0  0  0
  -25.2592  -13.8159   20.5659 C   0  0  0  0  0  0
  -24.1843  -13.0436   20.9167 C   0  0  0  0  0  0
  -24.6392  -11.6905   20.8723 C   0  0  0  0  0  0
  -23.9051  -10.4287   21.0393 C   0  0  0  0  0  0
  -24.3608   -9.4215   21.9181 C   0  0  0  0  0  0
  -23.6288   -8.2249   22.0757 C   0  0  0  0  0  0
  -22.4273   -8.0277   21.3540 C   0  0  0  0  0  0
  -21.9899   -9.0248   20.4644 C   0  0  0  0  0  0
  -22.7217  -10.2129   20.3050 C   0  0  0  0  0  0
  -21.6862   -6.0734   22.5273 C   0  0  0  0  0  0
  -21.4018   -6.5644   23.8204 C   0  0  0  0  0  0
  -21.3657   -5.6795   24.9168 C   0  0  0  0  0  0
  -21.6046   -4.3058   24.7221 C   0  0  0  0  0  0
  -21.8823   -3.8147   23.4347 C   0  0  0  0  0  0
  -21.9192   -4.6960   22.3404 C   0  0  0  0  0  0
  -22.7867  -13.5237   21.1824 C   0  0  0  0  0  0
  -22.1658   -4.2153   21.0978 F   0  0  0  0  0  0
  -21.5627   -3.4542   25.7740 F   0  0  0  0  0  0
  -30.0282  -13.2948   20.4389 N   0  0  0  0  0  0
  -26.3028  -12.9322   20.3343 N   0  0  0  0  0  0
  -25.9318  -11.6487   20.5755 N   0  0  0  0  0  0
  -22.0495  -12.8241   22.0379 N   0  0  0  0  0  0
  -25.4336  -15.1877   20.4069 N   0  0  0  0  0  0
  -31.8019  -14.6938   20.1211 O   0  0  0  0  0  0
  -21.6643   -6.8873   21.4235 O   0  0  0  0  0  0
  -22.3551  -14.5532   20.6651 O   0  0  0  0  0  0
  -24.6158  -31.8674   23.2104 C   0  0  0  0  0  0
  -25.9055  -32.4809   23.8392 C   0  0  1  0  0  0
  -27.2288  -27.4204   20.1024 C   0  0  0  0  0  0
  -25.5916  -33.8611   24.2318 N   0  0  0  0  0  0
  -23.4024  -30.4930   21.5511 C   0  0  2  0  0  0
  -24.8473  -28.9547   20.1188 C   0  0  0  0  0  0
  -22.7402  -29.4663   22.4988 C   0  0  0  0  0  0
  -18.0277  -28.1376   22.8495 C   0  0  0  0  0  0
  -24.1481  -36.7321   23.2640 C   0  0  0  0  0  0
  -25.9322  -30.8312   21.3619 C   0  0  0  0  0  0
  -26.0086  -29.4630   20.7135 C   0  0  0  0  0  0
  -27.2023  -28.7041   20.6996 C   0  0  0  0  0  0
  -26.0504  -26.9340   19.4976 C   0  0  0  0  0  0
  -24.8633  -27.6895   19.5090 C   0  0  0  0  0  0
  -23.6107  -29.8231   20.1657 C   0  0  0  0  0  0
  -25.4108  -36.3110   24.0325 C   0  0  1  0  0  0
  -20.5862  -28.3651   23.1322 C   0  0  2  0  0  0
  -20.6758  -26.9384   22.5423 C   0  0  0  0  0  0
  -19.5741  -26.6376   21.5222 C   0  0  0  0  0  0
  -18.1919  -26.7922   22.1627 C   0  0  0  0  0  0
  -19.1523  -28.8832   23.2909 C   0  0  0  0  0  0
  -18.9453  -30.1439   23.8914 C   0  0  0  0  0  0
  -17.6453  -30.6584   24.0563 C   0  0  0  0  0  0
  -25.9046  -34.9473   23.5120 C   0  0  0  0  0  0
  -16.5344  -29.9084   23.6331 C   0  0  0  0  0  0
  -16.7264  -28.6502   23.0351 C   0  0  0  0  0  0
  -26.4497  -31.6585   25.0719 C   0  0  0  0  0  0
  -25.3763  -31.3661   26.1462 C   0  0  0  0  0  0
  -27.0321  -30.3026   24.6079 C   0  0  0  0  0  0
  -27.6078  -32.4293   25.7486 C   0  0  0  0  0  0
  -27.5572  -37.1815   24.8463 C   0  0  0  0  0  0
  -21.4133  -29.3029   22.3727 N   0  0  0  0  0  0
  -26.4287  -37.3802   23.9408 N   0  0  0  0  0  0
  -24.6694  -31.0776   22.1000 N   0  0  0  0  0  0
  -23.4181  -28.8196   23.3019 O   0  0  0  0  0  0
  -28.4019  -26.6916   20.0736 O   0  0  0  0  0  0
  -26.5606  -34.8921   22.4678 O   0  0  0  0  0  0
  -23.5356  -32.1412   23.7514 O   0  0  0  0  0  0
  -27.4197  -19.7282   17.6222 C   0  0  0  0  0  0
  -28.1418  -19.4311   18.7858 C   0  0  0  0  0  0
  -27.1294  -21.0666   17.3388 C   0  0  0  0  0  0
  -28.5540  -20.4779   19.6444 C   0  0  0  0  0  0
  -28.1996  -21.8131   19.2726 C   0  0  0  0  0  0
  -32.3755  -19.0428   20.0960 C   0  0  0  0  0  0
  -29.2994  -18.8597   21.4447 C   0  0  0  0  0  0
  -30.6158  -16.6365   21.8931 C   0  0  0  0  0  0
  -28.3813  -25.3609   20.6368 C   0  0  0  0  0  0
  -28.0839  -24.2163   19.6332 C   0  0  0  0  0  0
  -30.4817  -17.9288   21.0265 C   0  0  2  0  0  0
  -27.5088  -22.0807   18.1381 N   0  0  0  0  0  0
  -29.2911  -20.1990   20.8150 N   0  0  0  0  0  0
  -30.0443  -15.3984   21.3361 N   0  0  0  0  0  0
  -28.5342  -22.9092   20.0660 O   0  0  0  0  0  0
  -31.6747  -18.6687   21.2736 O   0  0  0  0  0  0
  -31.4690  -12.4448   19.1054 H   0  0  0  0  0  0
  -30.3430  -11.3097   19.7974 H   0  0  0  0  0  0
  -29.7356  -11.8010   17.4138 H   0  0  0  0  0  0
  -29.6614  -13.5092   17.7653 H   0  0  0  0  0  0
  -27.8148  -11.3240   18.7842 H   0  0  0  0  0  0
  -27.3664  -12.6756   17.7794 H   0  0  0  0  0  0
  -27.7098  -14.2588   19.5950 H   0  0  0  0  0  0
  -28.6902  -11.9225   21.3033 H   0  0  0  0  0  0
  -28.4556  -13.5381   21.8854 H   0  0  0  0  0  0
  -25.2752   -9.5710   22.4752 H   0  0  0  0  0  0
  -24.0006   -7.4656   22.7487 H   0  0  0  0  0  0
  -21.0827   -8.8751   19.8966 H   0  0  0  0  0  0
  -22.3655  -10.9665   19.6163 H   0  0  0  0  0  0
  -21.2012   -7.6151   23.9703 H   0  0  0  0  0  0
  -21.1477   -6.0531   25.9067 H   0  0  0  0  0  0
  -22.0604   -2.7611   23.2844 H   0  0  0  0  0  0
  -22.4092  -11.9896   22.4783 H   0  0  0  0  0  0
  -21.1112  -13.1278   22.2558 H   0  0  0  0  0  0
  -24.6719  -15.8481   20.5175 H   0  0  0  0  0  0
  -26.2879  -15.6201   20.0798 H   0  0  0  0  0  0
  -26.7122  -32.5527   23.1159 H   0  0  0  0  0  0
  -25.0062  -33.9770   25.0456 H   0  0  0  0  0  0
  -22.6926  -31.3115   21.4104 H   0  0  0  0  0  0
  -23.3737  -35.9666   23.3317 H   0  0  0  0  0  0
  -24.3583  -36.8936   22.2057 H   0  0  0  0  0  0
  -23.7240  -37.6528   23.6652 H   0  0  0  0  0  0
  -26.0392  -31.5936   20.5894 H   0  0  0  0  0  0
  -26.8228  -30.8897   21.9756 H   0  0  0  0  0  0
  -28.1019  -29.0938   21.1540 H   0  0  0  0  0  0
  -26.0346  -25.9840   18.9900 H   0  0  0  0  0  0
  -23.9716  -27.2958   19.0421 H   0  0  0  0  0  0
  -23.7187  -30.5958   19.4035 H   0  0  0  0  0  0
  -22.7329  -29.2432   19.8712 H   0  0  0  0  0  0
  -25.1282  -36.1985   25.0816 H   0  0  0  0  0  0
  -20.9961  -28.3216   24.1440 H   0  0  0  0  0  0
  -20.5664  -26.2255   23.3607 H   0  0  0  0  0  0
  -21.6627  -26.7432   22.1213 H   0  0  0  0  0  0
  -19.6897  -25.6297   21.1230 H   0  0  0  0  0  0
  -19.6682  -27.3206   20.6768 H   0  0  0  0  0  0
  -17.4186  -26.6680   21.4026 H   0  0  0  0  0  0
  -18.0311  -26.0065   22.9017 H   0  0  0  0  0  0
  -19.7930  -30.7254   24.2274 H   0  0  0  0  0  0
  -17.5014  -31.6267   24.5155 H   0  0  0  0  0  0
  -15.5348  -30.2990   23.7651 H   0  0  0  0  0  0
  -15.8664  -28.0832   22.7049 H   0  0  0  0  0  0
  -24.5967  -30.6980   25.7791 H   0  0  0  0  0  0
  -24.8924  -32.2789   26.4929 H   0  0  0  0  0  0
  -25.8130  -30.8825   27.0203 H   0  0  0  0  0  0
  -26.2850  -29.6794   24.1146 H   0  0  0  0  0  0
  -27.4107  -29.7268   25.4535 H   0  0  0  0  0  0
  -27.8681  -30.4353   23.9207 H   0  0  0  0  0  0
  -27.2713  -33.3589   26.2081 H   0  0  0  0  0  0
  -28.3883  -32.6847   25.0308 H   0  0  0  0  0  0
  -28.0735  -31.8388   26.5383 H   0  0  0  0  0  0
  -28.2591  -38.0114   24.7527 H   0  0  0  0  0  0
  -28.1054  -36.2644   24.6258 H   0  0  0  0  0  0
  -27.2283  -37.1443   25.8863 H   0  0  0  0  0  0
  -20.9282  -29.8768   21.6970 H   0  0  0  0  0  0
  -26.0169  -38.2868   24.1447 H   0  0  0  0  0  0
  -27.0972  -18.9411   16.9561 H   0  0  0  0  0  0
  -28.3728  -18.3979   18.9967 H   0  0  0  0  0  0
  -26.5787  -21.3329   16.4483 H   0  0  0  0  0  0
  -33.2406  -19.6515   20.3607 H   0  0  0  0  0  0
  -31.7460  -19.6319   19.4275 H   0  0  0  0  0  0
  -32.7337  -18.1641   19.5573 H   0  0  0  0  0  0
  -29.3517  -19.0208   22.5233 H   0  0  0  0  0  0
  -28.3494  -18.3487   21.2792 H   0  0  0  0  0  0
  -30.1769  -16.8033   22.8778 H   0  0  0  0  0  0
  -31.6726  -16.4452   22.0912 H   0  0  0  0  0  0
  -29.3810  -25.1967   21.0402 H   0  0  0  0  0  0
  -27.7045  -25.3081   21.4907 H   0  0  0  0  0  0
  -28.5631  -24.4530   18.6816 H   0  0  0  0  0  0
  -27.0093  -24.1801   19.4636 H   0  0  0  0  0  0
  -30.4004  -17.6550   19.9719 H   0  0  0  0  0  0
  -29.5664  -20.9900   21.3945 H   0  0  0  0  0  0
  -29.1208  -15.1425   21.6517 H   0  0  0  0  0  0
  1 25  1  0  0  0
  1 30  2  0  0  0
  1 84  1  0  0  0
  2  3  1  0  0  0
  2 25  1  0  0  0
  2 87  1  0  0  0
  2 88  1  0  0  0
  3  4  1  0  0  0
  3 89  1  0  0  0
  3 90  1  0  0  0
  4  5  1  0  0  0
  4 91  1  0  0  0
  4 92  1  0  0  0
  5  6  1  0  0  0
  5 26  1  0  0  0
  5 93  1  0  0  0
  6 25  1  0  0  0
  6 94  1  0  0  0
  6 95  1  0  0  0
  7  8  2  0  0  0
  7 26  1  0  0  0
  7 29  1  0  0  0
  8  9  1  0  0  0
  8 22  1  0  0  0
  9 10  1  0  0  0
  9 27  2  0  0  0
 10 11  2  0  0  0
 10 15  1  0  0  0
 11 12  1  0  0  0
 11 96  1  0  0  0
 12 13  2  0  0  0
 12 97  1  0  0  0
 13 14  1  0  0  0
 13 31  1  0  0  0
 14 15  2  0  0  0
 14 98  1  0  0  0
 15 99  1  0  0  0
 16 17  2  0  0  0
 16 21  1  0  0  0
 16 31  1  0  0  0
 17 18  1  0  0  0
 17100  1  0  0  0
 18 19  2  0  0  0
 18101  1  0  0  0
 19 20  1  0  0  0
 19 24  1  0  0  0
 20 21  2  0  0  0
 20102  1  0  0  0
 21 23  1  0  0  0
 22 28  1  0  0  0
 22 32  2  0  0  0
 26 27  1  0  0  0
 28103  1  0  0  0
 28104  1  0  0  0
 29105  1  0  0  0
 29106  1  0  0  0
 33 34  1  0  0  0
 33 66  1  0  0  0
 33 70  2  0  0  0
 34 36  1  0  0  0
 34 59  1  0  0  0
 34107  1  0  0  0
 35 44  2  0  0  0
 35 45  1  0  0  0
 35 68  1  0  0  0
 36 56  1  0  0  0
 36108  1  0  0  0
 37 39  1  0  0  0
 37 47  1  0  0  0
 37 66  1  0  0  0
 37109  1  0  0  0
 38 43  2  0  0  0
 38 46  1  0  0  0
 38 47  1  0  0  0
 39 64  1  0  0  0
 39 67  2  0  0  0
 40 52  1  0  0  0
 40 53  2  0  0  0
 40 58  1  0  0  0
 41110  1  0  0  0
 41111  1  0  0  0
 41112  1  0  0  0
 41 48  1  0  0  0
 42 43  1  0  0  0
 42 66  1  0  0  0
 42113  1  0  0  0
 42114  1  0  0  0
 43 44  1  0  0  0
 44115  1  0  0  0
 45 46  2  0  0  0
 45116  1  0  0  0
 46117  1  0  0  0
 47118  1  0  0  0
 47119  1  0  0  0
 48 56  1  0  0  0
 48 65  1  0  0  0
 48120  1  0  0  0
 49 50  1  0  0  0
 49 53  1  0  0  0
 49 64  1  0  0  0
 49121  1  0  0  0
 50 51  1  0  0  0
 50122  1  0  0  0
 50123  1  0  0  0
 51 52  1  0  0  0
 51124  1  0  0  0
 51125  1  0  0  0
 52126  1  0  0  0
 52127  1  0  0  0
 53 54  1  0  0  0
 54 55  2  0  0  0
 54128  1  0  0  0
 55 57  1  0  0  0
 55129  1  0  0  0
 56 69  2  0  0  0
 57 58  2  0  0  0
 57130  1  0  0  0
 58131  1  0  0  0
 59 60  1  0  0  0
 59 61  1  0  0  0
 59 62  1  0  0  0
 60132  1  0  0  0
 60133  1  0  0  0
 60134  1  0  0  0
 61135  1  0  0  0
 61136  1  0  0  0
 61137  1  0  0  0
 62138  1  0  0  0
 62139  1  0  0  0
 62140  1  0  0  0
 63 65  1  0  0  0
 63141  1  0  0  0
 63142  1  0  0  0
 63143  1  0  0  0
 64144  1  0  0  0
 65145  1  0  0  0
 68 79  1  0  0  0
 71 72  2  0  0  0
 71 73  1  0  0  0
 71146  1  0  0  0
 72 74  1  0  0  0
 72147  1  0  0  0
 73 82  2  0  0  0
 73148  1  0  0  0
 74 75  2  0  0  0
 74 83  1  0  0  0
 75 82  1  0  0  0
 75 85  1  0  0  0
 76 86  1  0  0  0
 76149  1  0  0  0
 76150  1  0  0  0
 76151  1  0  0  0
 77 83  1  0  0  0
 77152  1  0  0  0
 77153  1  0  0  0
 77 81  1  0  0  0
 78 81  1  0  0  0
 78 84  1  0  0  0
 78154  1  0  0  0
 78155  1  0  0  0
 79 80  1  0  0  0
 79156  1  0  0  0
 79157  1  0  0  0
 80 85  1  0  0  0
 80158  1  0  0  0
 80159  1  0  0  0
 81 86  1  0  0  0
 81160  1  0  0  0
 83161  1  0  0  0
 84162  1  0  0  0
M  ISO  4   1 100  68 101  79 101  84 100
M  END
> <chiral flag>
0

> <version>
0

> <s_m_source_file>
/data/baiqing/PycharmProjects/Reinvent-master-3.2/result/LINK_invent/BTK/process_docking_weight1_custom_sum_contain_oxygen_bond_distance_aromatic_linkinvent_7_9_3/rearranged_h_0146.sdf

> <i_m_source_file_index>
83

> <r_mmod_Potential_Energy-OPLS-2005>
-201.506744384766

> <r_mmod_Stretch_Energy-OPLS-2005>
45.0201377868652

> <r_mmod_Bend_Energy-OPLS-2005>
118.122825622559

> <r_mmod_Torsional_Energy-OPLS-2005>
220.116943359375

> <r_mmod_Improper_Torsional_Energy-OPLS-2005>
3.28421545028687

> <r_mmod_Van_der_Waal_Energy-OPLS-2005>
164.309097290039

> <r_mmod_Electrostatic_Energy-OPLS-2005>
-531.602966308594

> <r_mmod_Solvation_Energy-OPLS-2005>
-232.502960205078

> <b_mmod_Minimization_Converged-OPLS-2005>
0

> <r_mmod_RMS_Derivative-OPLS-2005>
1.95941698551178

$$$$
84
                    3D
 Structure written by MMmdl.
162171  0  0  1  0            999 V2000
  -30.7082  -14.5121   20.5866 C   0  0  0  0  0  0
  -30.4263  -12.3436   19.4269 C   0  0  0  0  0  0
  -29.4897  -12.4929   18.2101 C   0  0  0  0  0  0
  -28.0135  -12.3529   18.6302 C   0  0  0  0  0  0
  -27.6559  -13.2133   19.8709 C   0  0  2  0  0  0
  -28.7005  -13.0273   20.9933 C   0  0  0  0  0  0
  -25.2552  -13.8178   20.5701 C   0  0  0  0  0  0
  -24.1813  -13.0444   20.9202 C   0  0  0  0  0  0
  -24.6370  -11.6919   20.8750 C   0  0  0  0  0  0
  -23.9046  -10.4296   21.0407 C   0  0  0  0  0  0
  -24.3597   -9.4214   21.9182 C   0  0  0  0  0  0
  -23.6288   -8.2254   22.0743 C   0  0  0  0  0  0
  -22.4275   -8.0275   21.3540 C   0  0  0  0  0  0
  -21.9906   -9.0244   20.4635 C   0  0  0  0  0  0
  -22.7224  -10.2137   20.3049 C   0  0  0  0  0  0
  -21.6845   -6.0734   22.5263 C   0  0  0  0  0  0
  -21.4009   -6.5634   23.8199 C   0  0  0  0  0  0
  -21.3664   -5.6784   24.9162 C   0  0  0  0  0  0
  -21.6046   -4.3044   24.7214 C   0  0  0  0  0  0
  -21.8823   -3.8143   23.4329 C   0  0  0  0  0  0
  -21.9197   -4.6964   22.3387 C   0  0  0  0  0  0
  -22.7831  -13.5230   21.1877 C   0  0  0  0  0  0
  -22.1660   -4.2151   21.0966 F   0  0  0  0  0  0
  -21.5644   -3.4528   25.7731 F   0  0  0  0  0  0
  -30.0247  -13.3408   20.4334 N   0  0  0  0  0  0
  -26.2986  -12.9363   20.3371 N   0  0  0  0  0  0
  -25.9299  -11.6522   20.5789 N   0  0  0  0  0  0
  -22.0470  -12.8201   22.0415 N   0  0  0  0  0  0
  -25.4308  -15.1899   20.4126 N   0  0  0  0  0  0
  -31.8366  -14.6798   20.1180 O   0  0  0  0  0  0
  -21.6634   -6.8879   21.4226 O   0  0  0  0  0  0
  -22.3515  -14.5549   20.6734 O   0  0  0  0  0  0
  -24.6179  -31.8675   23.2069 C   0  0  0  0  0  0
  -25.9057  -32.4814   23.8402 C   0  0  1  0  0  0
  -27.2302  -27.4000   20.1026 C   0  0  0  0  0  0
  -25.5879  -33.8621   24.2313 N   0  0  0  0  0  0
  -23.4069  -30.4905   21.5493 C   0  0  2  0  0  0
  -24.8546  -28.9596   20.1074 C   0  0  0  0  0  0
  -22.7450  -29.4647   22.4986 C   0  0  0  0  0  0
  -18.0274  -28.1374   22.8482 C   0  0  0  0  0  0
  -24.1481  -36.7304   23.2635 C   0  0  0  0  0  0
  -25.9408  -30.8213   21.3686 C   0  0  0  0  0  0
  -26.0184  -29.4572   20.7073 C   0  0  0  0  0  0
  -27.2102  -28.6890   20.6948 C   0  0  0  0  0  0
  -26.0470  -26.9364   19.4789 C   0  0  0  0  0  0
  -24.8668  -27.7015   19.4854 C   0  0  0  0  0  0
  -23.6162  -29.8263   20.1639 C   0  0  0  0  0  0
  -25.4099  -36.3107   24.0329 C   0  0  1  0  0  0
  -20.5859  -28.3661   23.1310 C   0  0  2  0  0  0
  -20.6756  -26.9393   22.5413 C   0  0  0  0  0  0
  -19.5744  -26.6372   21.5206 C   0  0  0  0  0  0
  -18.1921  -26.7912   22.1617 C   0  0  0  0  0  0
  -19.1522  -28.8837   23.2886 C   0  0  0  0  0  0
  -18.9451  -30.1431   23.8906 C   0  0  0  0  0  0
  -17.6456  -30.6579   24.0571 C   0  0  0  0  0  0
  -25.9032  -34.9478   23.5123 C   0  0  0  0  0  0
  -16.5345  -29.9079   23.6330 C   0  0  0  0  0  0
  -16.7262  -28.6501   23.0342 C   0  0  0  0  0  0
  -26.4466  -31.6618   25.0752 C   0  0  0  0  0  0
  -25.3694  -31.3730   26.1478 C   0  0  0  0  0  0
  -27.0337  -30.3070   24.6150 C   0  0  0  0  0  0
  -27.6043  -32.4348   25.7509 C   0  0  0  0  0  0
  -27.5599  -37.1766   24.8444 C   0  0  0  0  0  0
  -21.4173  -29.3036   22.3751 N   0  0  0  0  0  0
  -26.4293  -37.3788   23.9417 N   0  0  0  0  0  0
  -24.6733  -31.0748   22.0989 N   0  0  0  0  0  0
  -23.4231  -28.8178   23.3007 O   0  0  0  0  0  0
  -28.3732  -26.6128   20.1553 O   0  0  0  0  0  0
  -26.5642  -34.8933   22.4712 O   0  0  0  0  0  0
  -23.5354  -32.1454   23.7422 O   0  0  0  0  0  0
  -29.5320  -18.2950   19.8722 C   0  0  0  0  0  0
  -29.7768  -20.5558   21.3876 C   0  0  0  0  0  0
  -30.1017  -18.1560   21.1659 C   0  0  0  0  0  0
  -30.2382  -19.3418   21.9517 C   0  0  0  0  0  0
  -29.2256  -20.5723   20.1203 C   0  0  0  0  0  0
  -29.7971  -21.9560   21.9737 C   0  0  0  0  0  0
  -28.7992  -21.9739   19.7107 C   0  0  0  0  0  0
  -28.8949  -22.8148   21.0275 C   0  0  2  0  0  0
  -30.8642  -19.3216   23.3404 C   0  0  0  0  0  0
  -29.5267  -24.9812   22.2736 C   0  0  0  0  0  0
  -30.6526  -16.7950   21.6752 C   0  0  0  0  0  0
  -28.1704  -25.1731   20.1577 C   0  0  0  0  0  0
  -29.2711  -24.3417   20.8909 C   0  0  2  0  0  0
  -29.0936  -19.4737   19.3485 N   0  0  0  0  0  0
  -30.0533  -15.5234   21.2017 N   0  0  0  0  0  0
  -31.4642  -12.4632   19.1102 H   0  0  0  0  0  0
  -30.3589  -11.3405   19.8496 H   0  0  0  0  0  0
  -29.7298  -11.7382   17.4594 H   0  0  0  0  0  0
  -29.6471  -13.4619   17.7348 H   0  0  0  0  0  0
  -27.8320  -11.3003   18.8477 H   0  0  0  0  0  0
  -27.3572  -12.6059   17.7966 H   0  0  0  0  0  0
  -27.6906  -14.2556   19.5532 H   0  0  0  0  0  0
  -28.6910  -11.9971   21.3527 H   0  0  0  0  0  0
  -28.4539  -13.6431   21.8600 H   0  0  0  0  0  0
  -25.2736   -9.5701   22.4762 H   0  0  0  0  0  0
  -23.9998   -7.4641   22.7448 H   0  0  0  0  0  0
  -21.0850   -8.8756   19.8922 H   0  0  0  0  0  0
  -22.3668  -10.9680   19.6162 H   0  0  0  0  0  0
  -21.1983   -7.6139   23.9703 H   0  0  0  0  0  0
  -21.1486   -6.0511   25.9069 H   0  0  0  0  0  0
  -22.0601   -2.7606   23.2819 H   0  0  0  0  0  0
  -22.4102  -11.9855   22.4797 H   0  0  0  0  0  0
  -21.1076  -13.1195   22.2621 H   0  0  0  0  0  0
  -24.6724  -15.8527   20.5333 H   0  0  0  0  0  0
  -26.2887  -15.6227   20.0943 H   0  0  0  0  0  0
  -26.7131  -32.5528   23.1174 H   0  0  0  0  0  0
  -24.9975  -33.9778   25.0423 H   0  0  0  0  0  0
  -22.6939  -31.3069   21.4120 H   0  0  0  0  0  0
  -23.3772  -35.9611   23.3251 H   0  0  0  0  0  0
  -24.3584  -36.8981   22.2062 H   0  0  0  0  0  0
  -23.7198  -37.6464   23.6700 H   0  0  0  0  0  0
  -26.0627  -31.5921   20.6067 H   0  0  0  0  0  0
  -26.8233  -30.8665   21.9952 H   0  0  0  0  0  0
  -28.1064  -29.0683   21.1683 H   0  0  0  0  0  0
  -26.0157  -25.9767   18.9844 H   0  0  0  0  0  0
  -23.9750  -27.3141   19.0105 H   0  0  0  0  0  0
  -23.7152  -30.6027   19.4053 H   0  0  0  0  0  0
  -22.7413  -29.2386   19.8770 H   0  0  0  0  0  0
  -25.1257  -36.1985   25.0818 H   0  0  0  0  0  0
  -20.9909  -28.3224   24.1445 H   0  0  0  0  0  0
  -20.5656  -26.2262   23.3595 H   0  0  0  0  0  0
  -21.6633  -26.7451   22.1203 H   0  0  0  0  0  0
  -19.6921  -25.6284   21.1232 H   0  0  0  0  0  0
  -19.6697  -27.3196   20.6746 H   0  0  0  0  0  0
  -17.4183  -26.6649   21.4026 H   0  0  0  0  0  0
  -18.0332  -26.0060   22.9018 H   0  0  0  0  0  0
  -19.7934  -30.7226   24.2297 H   0  0  0  0  0  0
  -17.5024  -31.6269   24.5172 H   0  0  0  0  0  0
  -15.5343  -30.2994   23.7640 H   0  0  0  0  0  0
  -15.8656  -28.0835   22.7032 H   0  0  0  0  0  0
  -24.5871  -30.7091   25.7780 H   0  0  0  0  0  0
  -24.8879  -32.2888   26.4920 H   0  0  0  0  0  0
  -25.8002  -30.8891   27.0255 H   0  0  0  0  0  0
  -26.2932  -29.6798   24.1172 H   0  0  0  0  0  0
  -27.4094  -29.7331   25.4630 H   0  0  0  0  0  0
  -27.8754  -30.4407   23.9351 H   0  0  0  0  0  0
  -27.2692  -33.3671   26.2074 H   0  0  0  0  0  0
  -28.3852  -32.6872   25.0321 H   0  0  0  0  0  0
  -28.0712  -31.8479   26.5427 H   0  0  0  0  0  0
  -28.2517  -38.0164   24.7627 H   0  0  0  0  0  0
  -28.1195  -36.2690   24.6100 H   0  0  0  0  0  0
  -27.2327  -37.1197   25.8847 H   0  0  0  0  0  0
  -20.9338  -29.8829   21.7031 H   0  0  0  0  0  0
  -26.0187  -38.2857   24.1498 H   0  0  0  0  0  0
  -29.4495  -17.4352   19.2230 H   0  0  0  0  0  0
  -30.8286  -22.3094   21.9591 H   0  0  0  0  0  0
  -29.4433  -21.9736   23.0055 H   0  0  0  0  0  0
  -27.7924  -21.9874   19.2875 H   0  0  0  0  0  0
  -29.4897  -22.3424   18.9506 H   0  0  0  0  0  0
  -27.9001  -22.7615   21.4737 H   0  0  0  0  0  0
  -31.1389  -20.3170   23.6857 H   0  0  0  0  0  0
  -31.7737  -18.7198   23.3587 H   0  0  0  0  0  0
  -30.1626  -18.9038   24.0640 H   0  0  0  0  0  0
  -30.2726  -24.4393   22.8528 H   0  0  0  0  0  0
  -28.6146  -25.0284   22.8695 H   0  0  0  0  0  0
  -29.8986  -26.0025   22.1717 H   0  0  0  0  0  0
  -30.5549  -16.7656   22.7603 H   0  0  0  0  0  0
  -31.7276  -16.8013   21.4844 H   0  0  0  0  0  0
  -27.2262  -24.9360   20.6514 H   0  0  0  0  0  0
  -28.0791  -24.8316   19.1262 H   0  0  0  0  0  0
  -30.1967  -24.4095   20.3181 H   0  0  0  0  0  0
  -29.1266  -15.3065   21.5377 H   0  0  0  0  0  0
  1 25  1  0  0  0
  1 30  2  0  0  0
  1 85  1  0  0  0
  2  3  1  0  0  0
  2 25  1  0  0  0
  2 86  1  0  0  0
  2 87  1  0  0  0
  3  4  1  0  0  0
  3 88  1  0  0  0
  3 89  1  0  0  0
  4  5  1  0  0  0
  4 90  1  0  0  0
  4 91  1  0  0  0
  5  6  1  0  0  0
  5 26  1  0  0  0
  5 92  1  0  0  0
  6 25  1  0  0  0
  6 93  1  0  0  0
  6 94  1  0  0  0
  7  8  2  0  0  0
  7 26  1  0  0  0
  7 29  1  0  0  0
  8  9  1  0  0  0
  8 22  1  0  0  0
  9 10  1  0  0  0
  9 27  2  0  0  0
 10 11  2  0  0  0
 10 15  1  0  0  0
 11 12  1  0  0  0
 11 95  1  0  0  0
 12 13  2  0  0  0
 12 96  1  0  0  0
 13 14  1  0  0  0
 13 31  1  0  0  0
 14 15  2  0  0  0
 14 97  1  0  0  0
 15 98  1  0  0  0
 16 17  2  0  0  0
 16 21  1  0  0  0
 16 31  1  0  0  0
 17 18  1  0  0  0
 17 99  1  0  0  0
 18 19  2  0  0  0
 18100  1  0  0  0
 19 20  1  0  0  0
 19 24  1  0  0  0
 20 21  2  0  0  0
 20101  1  0  0  0
 21 23  1  0  0  0
 22 28  1  0  0  0
 22 32  2  0  0  0
 26 27  1  0  0  0
 28102  1  0  0  0
 28103  1  0  0  0
 29104  1  0  0  0
 29105  1  0  0  0
 33 34  1  0  0  0
 33 66  1  0  0  0
 33 70  2  0  0  0
 34 36  1  0  0  0
 34 59  1  0  0  0
 34106  1  0  0  0
 35 44  2  0  0  0
 35 45  1  0  0  0
 35 68  1  0  0  0
 36 56  1  0  0  0
 36107  1  0  0  0
 37 39  1  0  0  0
 37 47  1  0  0  0
 37 66  1  0  0  0
 37108  1  0  0  0
 38 43  2  0  0  0
 38 46  1  0  0  0
 38 47  1  0  0  0
 39 64  1  0  0  0
 39 67  2  0  0  0
 40 52  1  0  0  0
 40 53  2  0  0  0
 40 58  1  0  0  0
 41109  1  0  0  0
 41110  1  0  0  0
 41111  1  0  0  0
 41 48  1  0  0  0
 42 43  1  0  0  0
 42 66  1  0  0  0
 42112  1  0  0  0
 42113  1  0  0  0
 43 44  1  0  0  0
 44114  1  0  0  0
 45 46  2  0  0  0
 45115  1  0  0  0
 46116  1  0  0  0
 47117  1  0  0  0
 47118  1  0  0  0
 48 56  1  0  0  0
 48 65  1  0  0  0
 48119  1  0  0  0
 49 50  1  0  0  0
 49 53  1  0  0  0
 49 64  1  0  0  0
 49120  1  0  0  0
 50 51  1  0  0  0
 50121  1  0  0  0
 50122  1  0  0  0
 51 52  1  0  0  0
 51123  1  0  0  0
 51124  1  0  0  0
 52125  1  0  0  0
 52126  1  0  0  0
 53 54  1  0  0  0
 54 55  2  0  0  0
 54127  1  0  0  0
 55 57  1  0  0  0
 55128  1  0  0  0
 56 69  2  0  0  0
 57 58  2  0  0  0
 57129  1  0  0  0
 58130  1  0  0  0
 59 60  1  0  0  0
 59 61  1  0  0  0
 59 62  1  0  0  0
 60131  1  0  0  0
 60132  1  0  0  0
 60133  1  0  0  0
 61134  1  0  0  0
 61135  1  0  0  0
 61136  1  0  0  0
 62137  1  0  0  0
 62138  1  0  0  0
 62139  1  0  0  0
 63 65  1  0  0  0
 63140  1  0  0  0
 63141  1  0  0  0
 63142  1  0  0  0
 64143  1  0  0  0
 65144  1  0  0  0
 68 82  1  0  0  0
 71 73  2  0  0  0
 71 84  1  0  0  0
 71145  1  0  0  0
 72 74  2  0  0  0
 72 75  1  0  0  0
 72 76  1  0  0  0
 73 74  1  0  0  0
 73 81  1  0  0  0
 74 79  1  0  0  0
 75 77  1  0  0  0
 75 84  2  0  0  0
 76146  1  0  0  0
 76147  1  0  0  0
 76 78  1  0  0  0
 77 78  1  0  0  0
 77148  1  0  0  0
 77149  1  0  0  0
 78 83  1  0  0  0
 78150  1  0  0  0
 79151  1  0  0  0
 79152  1  0  0  0
 79153  1  0  0  0
 80154  1  0  0  0
 80155  1  0  0  0
 80156  1  0  0  0
 80 83  1  0  0  0
 81 85  1  0  0  0
 81157  1  0  0  0
 81158  1  0  0  0
 82 83  1  0  0  0
 82159  1  0  0  0
 82160  1  0  0  0
 83161  1  0  0  0
 85162  1  0  0  0
M  ISO  4   1 100  68 101  82 101  85 100
M  END
> <chiral flag>
0

> <version>
0

> <s_m_source_file>
/data/baiqing/PycharmProjects/Reinvent-master-3.2/result/LINK_invent/BTK/process_docking_weight1_custom_sum_contain_oxygen_bond_distance_aromatic_linkinvent_7_9_3/rearranged_h_0146.sdf

> <i_m_source_file_index>
84

> <r_mmod_Potential_Energy-OPLS-2005>
-123.688735961914

> <r_mmod_Stretch_Energy-OPLS-2005>
51.6365127563477

> <r_mmod_Bend_Energy-OPLS-2005>
151.444122314453

> <r_mmod_Torsional_Energy-OPLS-2005>
208.373199462891

> <r_mmod_Improper_Torsional_Energy-OPLS-2005>
2.82410359382629

> <r_mmod_Van_der_Waal_Energy-OPLS-2005>
153.049865722656

> <r_mmod_Electrostatic_Energy-OPLS-2005>
-486.201019287109

> <r_mmod_Solvation_Energy-OPLS-2005>
-225.198104858398

> <b_mmod_Minimization_Converged-OPLS-2005>
0

> <r_mmod_RMS_Derivative-OPLS-2005>
2.55591797828674

$$$$
85
                    3D
 Structure written by MMmdl.
159168  0  0  1  0            999 V2000
  -30.6877  -14.4252   20.5266 C   0  0  0  0  0  0
  -30.4160  -12.2537   19.4379 C   0  0  0  0  0  0
  -29.5087  -12.4897   18.2117 C   0  0  0  0  0  0
  -28.0224  -12.3677   18.6065 C   0  0  0  0  0  0
  -27.6647  -13.2009   19.8701 C   0  0  2  0  0  0
  -28.6967  -12.9605   20.9967 C   0  0  0  0  0  0
  -25.2587  -13.8179   20.5654 C   0  0  0  0  0  0
  -24.1831  -13.0459   20.9164 C   0  0  0  0  0  0
  -24.6369  -11.6927   20.8695 C   0  0  0  0  0  0
  -23.9045  -10.4309   21.0366 C   0  0  0  0  0  0
  -24.3594   -9.4238   21.9165 C   0  0  0  0  0  0
  -23.6293   -8.2264   22.0760 C   0  0  0  0  0  0
  -22.4289   -8.0287   21.3541 C   0  0  0  0  0  0
  -21.9889   -9.0253   20.4655 C   0  0  0  0  0  0
  -22.7194  -10.2137   20.3042 C   0  0  0  0  0  0
  -21.6874   -6.0741   22.5273 C   0  0  0  0  0  0
  -21.4032   -6.5629   23.8207 C   0  0  0  0  0  0
  -21.3670   -5.6774   24.9160 C   0  0  0  0  0  0
  -21.6028   -4.3036   24.7218 C   0  0  0  0  0  0
  -21.8814   -3.8144   23.4342 C   0  0  0  0  0  0
  -21.9187   -4.6964   22.3401 C   0  0  0  0  0  0
  -22.7822  -13.5280   21.1764 C   0  0  0  0  0  0
  -22.1633   -4.2146   21.0984 F   0  0  0  0  0  0
  -21.5648   -3.4505   25.7735 F   0  0  0  0  0  0
  -30.0345  -13.2438   20.4516 N   0  0  0  0  0  0
  -26.3021  -12.9338   20.3271 N   0  0  0  0  0  0
  -25.9291  -11.6519   20.5666 N   0  0  0  0  0  0
  -22.0384  -12.8371   22.0323 N   0  0  0  0  0  0
  -25.4300  -15.1889   20.4088 N   0  0  0  0  0  0
  -31.8421  -14.5955   20.1218 O   0  0  0  0  0  0
  -21.6664   -6.8877   21.4236 O   0  0  0  0  0  0
  -22.3515  -14.5545   20.6535 O   0  0  0  0  0  0
  -24.6101  -31.8711   23.2136 C   0  0  0  0  0  0
  -25.9033  -32.4845   23.8415 C   0  0  1  0  0  0
  -27.2381  -27.4913   20.1023 C   0  0  0  0  0  0
  -25.5895  -33.8637   24.2342 N   0  0  0  0  0  0
  -23.3943  -30.4923   21.5536 C   0  0  2  0  0  0
  -24.8365  -28.9658   20.1140 C   0  0  0  0  0  0
  -22.7406  -29.4644   22.5049 C   0  0  0  0  0  0
  -18.0265  -28.1367   22.8508 C   0  0  0  0  0  0
  -24.1475  -36.7317   23.2634 C   0  0  0  0  0  0
  -25.9107  -30.8623   21.3475 C   0  0  0  0  0  0
  -25.9885  -29.4968   20.7057 C   0  0  0  0  0  0
  -27.1908  -28.7681   20.6890 C   0  0  0  0  0  0
  -26.0662  -26.9535   19.5175 C   0  0  0  0  0  0
  -24.8682  -27.6934   19.5135 C   0  0  0  0  0  0
  -23.5974  -29.8256   20.1648 C   0  0  0  0  0  0
  -25.4092  -36.3125   24.0338 C   0  0  1  0  0  0
  -20.5856  -28.3637   23.1356 C   0  0  2  0  0  0
  -20.6761  -26.9395   22.5429 C   0  0  0  0  0  0
  -19.5734  -26.6392   21.5219 C   0  0  0  0  0  0
  -18.1902  -26.7924   22.1623 C   0  0  0  0  0  0
  -19.1515  -28.8819   23.2924 C   0  0  0  0  0  0
  -18.9446  -30.1431   23.8924 C   0  0  0  0  0  0
  -17.6447  -30.6591   24.0562 C   0  0  0  0  0  0
  -25.9022  -34.9491   23.5140 C   0  0  0  0  0  0
  -16.5337  -29.9098   23.6315 C   0  0  0  0  0  0
  -16.7253  -28.6507   23.0353 C   0  0  0  0  0  0
  -26.4484  -31.6619   25.0715 C   0  0  0  0  0  0
  -25.3788  -31.3704   26.1495 C   0  0  0  0  0  0
  -27.0260  -30.3076   24.6001 C   0  0  0  0  0  0
  -27.6067  -32.4325   25.7483 C   0  0  0  0  0  0
  -27.5574  -37.1814   24.8475 C   0  0  0  0  0  0
  -21.4144  -29.2988   22.3783 N   0  0  0  0  0  0
  -26.4283  -37.3808   23.9415 N   0  0  0  0  0  0
  -24.6569  -31.0880   22.0985 N   0  0  0  0  0  0
  -23.4205  -28.8191   23.3073 O   0  0  0  0  0  0
  -28.4622  -26.8661   20.1165 O   0  0  0  0  0  0
  -26.5590  -34.8955   22.4706 O   0  0  0  0  0  0
  -23.5323  -32.1416   23.7584 O   0  0  0  0  0  0
  -29.1476  -23.1489   19.1293 C   0  0  0  0  0  0
  -29.0081  -20.1228   16.9362 C   0  0  0  0  0  0
  -30.3883  -20.5186   17.3916 C   0  0  0  0  0  0
  -29.3718  -25.5984   18.7669 C   0  0  0  0  0  0
  -28.4945  -24.4661   18.9108 C   0  0  2  0  0  0
  -28.5869  -25.4485   20.0946 C   0  0  1  0  0  0
  -29.1860  -20.8411   18.2615 C   0  0  0  0  0  0
  -28.8775  -20.0637   19.5444 C   0  0  0  0  0  0
  -30.2177  -16.8014   20.2615 C   0  0  0  0  0  0
  -29.0499  -17.8007   20.3647 C   0  0  0  0  0  0
  -28.7268  -22.1897   18.3007 N   0  0  0  0  0  0
  -29.9081  -15.4798   20.8002 N   0  0  0  0  0  0
  -30.0217  -22.9658   19.9821 O   0  0  0  0  0  0
  -29.3429  -18.7416   19.3512 O   0  0  0  0  0  0
  -31.4684  -12.3283   19.1596 H   0  0  0  0  0  0
  -30.2813  -11.2450   19.8302 H   0  0  0  0  0  0
  -29.7535  -11.7739   17.4256 H   0  0  0  0  0  0
  -29.6959  -13.4825   17.7975 H   0  0  0  0  0  0
  -27.8100  -11.3106   18.7784 H   0  0  0  0  0  0
  -27.3895  -12.6601   17.7672 H   0  0  0  0  0  0
  -27.7143  -14.2526   19.5845 H   0  0  0  0  0  0
  -28.6457  -11.9259   21.3379 H   0  0  0  0  0  0
  -28.4725  -13.5676   21.8740 H   0  0  0  0  0  0
  -25.2731   -9.5732   22.4737 H   0  0  0  0  0  0
  -23.9993   -7.4677   22.7517 H   0  0  0  0  0  0
  -21.0798   -8.8766   19.9003 H   0  0  0  0  0  0
  -22.3624  -10.9667   19.6155 H   0  0  0  0  0  0
  -21.2028   -7.6130   23.9704 H   0  0  0  0  0  0
  -21.1497   -6.0506   25.9059 H   0  0  0  0  0  0
  -22.0591   -2.7608   23.2832 H   0  0  0  0  0  0
  -22.3974  -12.0132   22.4907 H   0  0  0  0  0  0
  -21.0973  -13.1436   22.2443 H   0  0  0  0  0  0
  -24.6588  -15.8376   20.5242 H   0  0  0  0  0  0
  -26.2790  -15.6321   20.0853 H   0  0  0  0  0  0
  -26.7111  -32.5604   23.1197 H   0  0  0  0  0  0
  -25.0134  -33.9800   25.0546 H   0  0  0  0  0  0
  -22.6799  -31.3059   21.4201 H   0  0  0  0  0  0
  -23.3743  -35.9659   23.3329 H   0  0  0  0  0  0
  -24.3564  -36.8898   22.2045 H   0  0  0  0  0  0
  -23.7236  -37.6532   23.6621 H   0  0  0  0  0  0
  -26.0014  -31.6277   20.5739 H   0  0  0  0  0  0
  -26.8063  -30.9275   21.9525 H   0  0  0  0  0  0
  -28.0881  -29.1815   21.1312 H   0  0  0  0  0  0
  -26.0714  -25.9812   19.0505 H   0  0  0  0  0  0
  -23.9827  -27.2807   19.0447 H   0  0  0  0  0  0
  -23.7036  -30.5974   19.4013 H   0  0  0  0  0  0
  -22.7237  -29.2405   19.8753 H   0  0  0  0  0  0
  -25.1282  -36.1981   25.0835 H   0  0  0  0  0  0
  -20.9921  -28.3171   24.1488 H   0  0  0  0  0  0
  -20.5640  -26.2261   23.3604 H   0  0  0  0  0  0
  -21.6637  -26.7449   22.1223 H   0  0  0  0  0  0
  -19.6891  -25.6305   21.1234 H   0  0  0  0  0  0
  -19.6654  -27.3218   20.6750 H   0  0  0  0  0  0
  -17.4187  -26.6694   21.4009 H   0  0  0  0  0  0
  -18.0278  -26.0058   22.8998 H   0  0  0  0  0  0
  -19.7917  -30.7232   24.2327 H   0  0  0  0  0  0
  -17.5002  -31.6276   24.5164 H   0  0  0  0  0  0
  -15.5331  -30.3004   23.7618 H   0  0  0  0  0  0
  -15.8658  -28.0819   22.7068 H   0  0  0  0  0  0
  -24.5968  -30.7032   25.7870 H   0  0  0  0  0  0
  -24.8982  -32.2853   26.4968 H   0  0  0  0  0  0
  -25.8189  -30.8893   27.0234 H   0  0  0  0  0  0
  -26.2732  -29.6881   24.1114 H   0  0  0  0  0  0
  -27.4128  -29.7263   25.4372 H   0  0  0  0  0  0
  -27.8536  -30.4428   23.9034 H   0  0  0  0  0  0
  -27.2684  -33.3603   26.2117 H   0  0  0  0  0  0
  -28.3854  -32.6925   25.0297 H   0  0  0  0  0  0
  -28.0773  -31.8434   26.5363 H   0  0  0  0  0  0
  -28.2633  -38.0069   24.7502 H   0  0  0  0  0  0
  -28.1020  -36.2607   24.6319 H   0  0  0  0  0  0
  -27.2311  -37.1521   25.8886 H   0  0  0  0  0  0
  -20.9320  -29.8719   21.7006 H   0  0  0  0  0  0
  -26.0174  -38.2902   24.1400 H   0  0  0  0  0  0
  -28.7645  -19.0617   16.9508 H   0  0  0  0  0  0
  -28.5617  -20.6817   16.1146 H   0  0  0  0  0  0
  -30.8753  -21.3439   16.8753 H   0  0  0  0  0  0
  -31.0587  -19.7281   17.7289 H   0  0  0  0  0  0
  -29.0650  -26.3252   18.0121 H   0  0  0  0  0  0
  -30.4487  -25.4538   18.8259 H   0  0  0  0  0  0
  -27.5907  -24.4725   18.3012 H   0  0  0  0  0  0
  -27.6181  -25.1275   20.4793 H   0  0  0  0  0  0
  -27.8038  -20.0913   19.7434 H   0  0  0  0  0  0
  -29.3935  -20.4943   20.4032 H   0  0  0  0  0  0
  -31.1210  -17.2109   20.7242 H   0  0  0  0  0  0
  -30.4651  -16.6721   19.1988 H   0  0  0  0  0  0
  -28.9929  -18.2542   21.3607 H   0  0  0  0  0  0
  -28.0829  -17.3382   20.1474 H   0  0  0  0  0  0
  -28.0310  -22.4560   17.6158 H   0  0  0  0  0  0
  -28.9631  -15.3004   21.1056 H   0  0  0  0  0  0
  1 25  1  0  0  0
  1 30  2  0  0  0
  1 82  1  0  0  0
  2  3  1  0  0  0
  2 25  1  0  0  0
  2 85  1  0  0  0
  2 86  1  0  0  0
  3  4  1  0  0  0
  3 87  1  0  0  0
  3 88  1  0  0  0
  4  5  1  0  0  0
  4 89  1  0  0  0
  4 90  1  0  0  0
  5  6  1  0  0  0
  5 26  1  0  0  0
  5 91  1  0  0  0
  6 25  1  0  0  0
  6 92  1  0  0  0
  6 93  1  0  0  0
  7  8  2  0  0  0
  7 26  1  0  0  0
  7 29  1  0  0  0
  8  9  1  0  0  0
  8 22  1  0  0  0
  9 10  1  0  0  0
  9 27  2  0  0  0
 10 11  2  0  0  0
 10 15  1  0  0  0
 11 12  1  0  0  0
 11 94  1  0  0  0
 12 13  2  0  0  0
 12 95  1  0  0  0
 13 14  1  0  0  0
 13 31  1  0  0  0
 14 15  2  0  0  0
 14 96  1  0  0  0
 15 97  1  0  0  0
 16 17  2  0  0  0
 16 21  1  0  0  0
 16 31  1  0  0  0
 17 18  1  0  0  0
 17 98  1  0  0  0
 18 19  2  0  0  0
 18 99  1  0  0  0
 19 20  1  0  0  0
 19 24  1  0  0  0
 20 21  2  0  0  0
 20100  1  0  0  0
 21 23  1  0  0  0
 22 28  1  0  0  0
 22 32  2  0  0  0
 26 27  1  0  0  0
 28101  1  0  0  0
 28102  1  0  0  0
 29103  1  0  0  0
 29104  1  0  0  0
 33 34  1  0  0  0
 33 66  1  0  0  0
 33 70  2  0  0  0
 34 36  1  0  0  0
 34 59  1  0  0  0
 34105  1  0  0  0
 35 44  2  0  0  0
 35 45  1  0  0  0
 35 68  1  0  0  0
 36 56  1  0  0  0
 36106  1  0  0  0
 37 39  1  0  0  0
 37 47  1  0  0  0
 37 66  1  0  0  0
 37107  1  0  0  0
 38 43  2  0  0  0
 38 46  1  0  0  0
 38 47  1  0  0  0
 39 64  1  0  0  0
 39 67  2  0  0  0
 40 52  1  0  0  0
 40 53  2  0  0  0
 40 58  1  0  0  0
 41108  1  0  0  0
 41109  1  0  0  0
 41110  1  0  0  0
 41 48  1  0  0  0
 42 43  1  0  0  0
 42 66  1  0  0  0
 42111  1  0  0  0
 42112  1  0  0  0
 43 44  1  0  0  0
 44113  1  0  0  0
 45 46  2  0  0  0
 45114  1  0  0  0
 46115  1  0  0  0
 47116  1  0  0  0
 47117  1  0  0  0
 48 56  1  0  0  0
 48 65  1  0  0  0
 48118  1  0  0  0
 49 50  1  0  0  0
 49 53  1  0  0  0
 49 64  1  0  0  0
 49119  1  0  0  0
 50 51  1  0  0  0
 50120  1  0  0  0
 50121  1  0  0  0
 51 52  1  0  0  0
 51122  1  0  0  0
 51123  1  0  0  0
 52124  1  0  0  0
 52125  1  0  0  0
 53 54  1  0  0  0
 54 55  2  0  0  0
 54126  1  0  0  0
 55 57  1  0  0  0
 55127  1  0  0  0
 56 69  2  0  0  0
 57 58  2  0  0  0
 57128  1  0  0  0
 58129  1  0  0  0
 59 60  1  0  0  0
 59 61  1  0  0  0
 59 62  1  0  0  0
 60130  1  0  0  0
 60131  1  0  0  0
 60132  1  0  0  0
 61133  1  0  0  0
 61134  1  0  0  0
 61135  1  0  0  0
 62136  1  0  0  0
 62137  1  0  0  0
 62138  1  0  0  0
 63 65  1  0  0  0
 63139  1  0  0  0
 63140  1  0  0  0
 63141  1  0  0  0
 64142  1  0  0  0
 65143  1  0  0  0
 68 76  1  0  0  0
 71 81  1  0  0  0
 71 83  2  0  0  0
 71 75  1  0  0  0
 72 73  1  0  0  0
 72 77  1  0  0  0
 72144  1  0  0  0
 72145  1  0  0  0
 73 77  1  0  0  0
 73146  1  0  0  0
 73147  1  0  0  0
 74 75  1  0  0  0
 74 76  1  0  0  0
 74148  1  0  0  0
 74149  1  0  0  0
 75 76  1  0  0  0
 75150  1  0  0  0
 76151  1  0  0  0
 77 78  1  0  0  0
 77 81  1  0  0  0
 78 84  1  0  0  0
 78152  1  0  0  0
 78153  1  0  0  0
 79 80  1  0  0  0
 79 82  1  0  0  0
 79154  1  0  0  0
 79155  1  0  0  0
 80 84  1  0  0  0
 80156  1  0  0  0
 80157  1  0  0  0
 81158  1  0  0  0
 82159  1  0  0  0
M  ISO  4   1 100  68 101  76 101  82 100
M  END
> <chiral flag>
0

> <version>
0

> <s_m_source_file>
/data/baiqing/PycharmProjects/Reinvent-master-3.2/result/LINK_invent/BTK/process_docking_weight1_custom_sum_contain_oxygen_bond_distance_aromatic_linkinvent_7_9_3/rearranged_h_0146.sdf

> <i_m_source_file_index>
85

> <r_mmod_Potential_Energy-OPLS-2005>
8.74659824371338

> <r_mmod_Stretch_Energy-OPLS-2005>
37.8744697570801

> <r_mmod_Bend_Energy-OPLS-2005>
226.298477172852

> <r_mmod_Torsional_Energy-OPLS-2005>
280.438507080078

> <r_mmod_Improper_Torsional_Energy-OPLS-2005>
8.15281867980957

> <r_mmod_Van_der_Waal_Energy-OPLS-2005>
146.959243774414

> <r_mmod_Electrostatic_Energy-OPLS-2005>
-463.283020019531

> <r_mmod_Solvation_Energy-OPLS-2005>
-241.739440917969

> <b_mmod_Minimization_Converged-OPLS-2005>
0

> <r_mmod_RMS_Derivative-OPLS-2005>
5.37273836135864

$$$$
86
                    3D
 Structure written by MMmdl.
156166  0  0  1  0            999 V2000
  -30.4237  -15.3532   20.3790 C   0  0  0  0  0  0
  -30.4370  -12.8761   19.5350 C   0  0  0  0  0  0
  -29.5467  -12.5942   18.2966 C   0  0  0  0  0  0
  -28.0968  -12.3063   18.7205 C   0  0  0  0  0  0
  -27.6086  -13.2863   19.8147 C   0  0  2  0  0  0
  -28.6353  -13.5038   20.9486 C   0  0  0  0  0  0
  -25.2376  -13.8267   20.5718 C   0  0  0  0  0  0
  -24.1749  -13.0437   20.9255 C   0  0  0  0  0  0
  -24.6426  -11.6940   20.8756 C   0  0  0  0  0  0
  -23.9122  -10.4296   21.0404 C   0  0  0  0  0  0
  -24.3661   -9.4215   21.9189 C   0  0  0  0  0  0
  -23.6316   -8.2265   22.0773 C   0  0  0  0  0  0
  -22.4295   -8.0300   21.3557 C   0  0  0  0  0  0
  -21.9919   -9.0283   20.4674 C   0  0  0  0  0  0
  -22.7283  -10.2144   20.3063 C   0  0  0  0  0  0
  -21.6856   -6.0745   22.5289 C   0  0  0  0  0  0
  -21.4015   -6.5646   23.8227 C   0  0  0  0  0  0
  -21.3662   -5.6802   24.9191 C   0  0  0  0  0  0
  -21.6034   -4.3059   24.7240 C   0  0  0  0  0  0
  -21.8822   -3.8152   23.4357 C   0  0  0  0  0  0
  -21.9195   -4.6968   22.3417 C   0  0  0  0  0  0
  -22.7765  -13.5184   21.1895 C   0  0  0  0  0  0
  -22.1667   -4.2156   21.0991 F   0  0  0  0  0  0
  -21.5625   -3.4550   25.7755 F   0  0  0  0  0  0
  -29.8577  -14.0374   20.3201 N   0  0  0  0  0  0
  -26.2811  -12.9566   20.3162 N   0  0  0  0  0  0
  -25.9354  -11.6655   20.5693 N   0  0  0  0  0  0
  -22.0408  -12.8182   22.0444 N   0  0  0  0  0  0
  -25.3976  -15.2013   20.4142 N   0  0  0  0  0  0
  -31.6494  -15.3172   20.1799 O   0  0  0  0  0  0
  -21.6652   -6.8886   21.4248 O   0  0  0  0  0  0
  -22.3465  -14.5495   20.6738 O   0  0  0  0  0  0
  -24.6700  -31.8178   23.1632 C   0  0  0  0  0  0
  -25.9356  -32.4559   23.8128 C   0  0  1  0  0  0
  -27.2218  -26.8594   20.2141 C   0  0  0  0  0  0
  -25.5999  -33.8377   24.2064 N   0  0  0  0  0  0
  -23.4882  -30.4263   21.5168 C   0  0  2  0  0  0
  -24.9449  -28.8021   20.1189 C   0  0  0  0  0  0
  -22.7710  -29.4399   22.4748 C   0  0  0  0  0  0
  -18.0331  -28.1419   22.8487 C   0  0  0  0  0  0
  -24.1485  -36.7166   23.2635 C   0  0  0  0  0  0
  -26.0595  -30.6063   21.4023 C   0  0  0  0  0  0
  -26.1304  -29.1853   20.7563 C   0  0  0  0  0  0
  -27.2632  -28.2405   20.7739 C   0  0  0  0  0  0
  -26.0016  -26.6433   19.5277 C   0  0  0  0  0  0
  -24.9092  -27.5514   19.4839 C   0  0  0  0  0  0
  -23.7341  -29.7397   20.1465 C   0  0  0  0  0  0
  -25.4128  -36.2947   24.0302 C   0  0  1  0  0  0
  -20.5971  -28.3764   23.1193 C   0  0  2  0  0  0
  -20.6823  -26.9437   22.5421 C   0  0  0  0  0  0
  -19.5789  -26.6386   21.5246 C   0  0  0  0  0  0
  -18.1963  -26.7961   22.1638 C   0  0  0  0  0  0
  -19.1593  -28.8927   23.2818 C   0  0  0  0  0  0
  -18.9492  -30.1519   23.8838 C   0  0  0  0  0  0
  -17.6475  -30.6607   24.0584 C   0  0  0  0  0  0
  -25.9110  -34.9331   23.5015 C   0  0  0  0  0  0
  -16.5377  -29.9093   23.6347 C   0  0  0  0  0  0
  -16.7305  -28.6521   23.0357 C   0  0  0  0  0  0
  -26.4589  -31.6507   25.0668 C   0  0  0  0  0  0
  -25.3702  -31.3805   26.1328 C   0  0  0  0  0  0
  -27.0443  -30.2850   24.6412 C   0  0  0  0  0  0
  -27.6102  -32.4288   25.7449 C   0  0  0  0  0  0
  -27.5586  -37.1724   24.8447 C   0  0  0  0  0  0
  -21.4374  -29.3016   22.3512 N   0  0  0  0  0  0
  -26.4260  -37.3706   23.9440 N   0  0  0  0  0  0
  -24.7608  -30.9788   22.0804 N   0  0  0  0  0  0
  -23.4231  -28.7979   23.3021 O   0  0  0  0  0  0
  -28.2133  -25.7179   20.2484 O   0  0  0  0  0  0
  -26.5712  -34.8887   22.4612 O   0  0  0  0  0  0
  -23.5751  -32.1163   23.6695 O   0  0  0  0  0  0
  -29.3153  -21.9832   19.1345 C   0  0  0  0  0  0
  -28.7345  -21.1014   21.0065 C   0  0  0  0  0  0
  -28.6642  -22.4711   20.2650 C   0  0  0  0  0  0
  -29.3403  -19.9241   20.3599 C   0  0  0  0  0  0
  -28.9659  -21.6110   23.5774 C   0  0  0  0  0  0
  -28.8413  -20.1099   23.4749 C   0  0  0  0  0  0
  -30.8794  -18.4934   19.0305 C   0  0  0  0  0  0
  -30.3949  -19.7655   18.2621 C   0  0  0  0  0  0
  -28.2039  -20.9964   22.4223 C   0  0  0  0  0  0
  -30.0834  -18.3155   20.3569 C   0  0  2  0  0  0
  -27.8888  -24.0930   20.5255 C   0  0  0  0  0  0
  -29.6891  -20.5993   19.2111 N   0  0  0  0  0  0
  -29.6918  -16.6684   20.4627 N   0  0  0  0  0  0
  -31.4540  -13.0846   19.1995 H   0  0  0  0  0  0
  -30.5200  -11.9878   20.1613 H   0  0  0  0  0  0
  -29.9408  -11.7531   17.7252 H   0  0  0  0  0  0
  -29.5735  -13.4574   17.6284 H   0  0  0  0  0  0
  -28.0586  -11.2850   19.1037 H   0  0  0  0  0  0
  -27.4356  -12.3396   17.8533 H   0  0  0  0  0  0
  -27.5111  -14.2423   19.2996 H   0  0  0  0  0  0
  -28.8248  -12.5839   21.5047 H   0  0  0  0  0  0
  -28.2576  -14.2303   21.6682 H   0  0  0  0  0  0
  -25.2806   -9.5692   22.4764 H   0  0  0  0  0  0
  -24.0036   -7.4652   22.7488 H   0  0  0  0  0  0
  -21.0842   -8.8815   19.8983 H   0  0  0  0  0  0
  -22.3746  -10.9688   19.6184 H   0  0  0  0  0  0
  -21.2002   -7.6153   23.9722 H   0  0  0  0  0  0
  -21.1465   -6.0535   25.9093 H   0  0  0  0  0  0
  -22.0576   -2.7601   23.2872 H   0  0  0  0  0  0
  -22.4022  -11.9899   22.4922 H   0  0  0  0  0  0
  -21.1024  -13.1232   22.2612 H   0  0  0  0  0  0
  -24.6129  -15.8380   20.5091 H   0  0  0  0  0  0
  -26.2182  -15.6432   20.0201 H   0  0  0  0  0  0
  -26.7437  -32.5104   23.0844 H   0  0  0  0  0  0
  -25.0107  -33.9433   25.0189 H   0  0  0  0  0  0
  -22.8044  -31.2586   21.3465 H   0  0  0  0  0  0
  -23.3791  -35.9438   23.3183 H   0  0  0  0  0  0
  -24.3579  -36.8912   22.2068 H   0  0  0  0  0  0
  -23.7176  -37.6307   23.6739 H   0  0  0  0  0  0
  -26.2432  -31.3407   20.6174 H   0  0  0  0  0  0
  -26.9166  -30.6724   22.0577 H   0  0  0  0  0  0
  -28.1634  -28.5383   21.2936 H   0  0  0  0  0  0
  -25.8629  -25.6948   19.0300 H   0  0  0  0  0  0
  -24.0101  -27.2530   18.9631 H   0  0  0  0  0  0
  -23.8932  -30.5071   19.3886 H   0  0  0  0  0  0
  -22.8431  -29.1971   19.8285 H   0  0  0  0  0  0
  -25.1310  -36.1730   25.0783 H   0  0  0  0  0  0
  -21.0062  -28.3386   24.1318 H   0  0  0  0  0  0
  -20.5747  -26.2349   23.3646 H   0  0  0  0  0  0
  -21.6679  -26.7430   22.1199 H   0  0  0  0  0  0
  -19.6935  -25.6293   21.1283 H   0  0  0  0  0  0
  -19.6744  -27.3196   20.6785 H   0  0  0  0  0  0
  -17.4244  -26.6716   21.4026 H   0  0  0  0  0  0
  -18.0332  -26.0116   22.9041 H   0  0  0  0  0  0
  -19.7953  -30.7389   24.2137 H   0  0  0  0  0  0
  -17.5008  -31.6270   24.5213 H   0  0  0  0  0  0
  -15.5369  -30.2972   23.7688 H   0  0  0  0  0  0
  -15.8706  -28.0834   22.7067 H   0  0  0  0  0  0
  -24.5902  -30.7126   25.7659 H   0  0  0  0  0  0
  -24.8888  -32.3023   26.4600 H   0  0  0  0  0  0
  -25.7926  -30.9097   27.0210 H   0  0  0  0  0  0
  -26.3102  -29.6549   24.1377 H   0  0  0  0  0  0
  -27.3909  -29.7208   25.5081 H   0  0  0  0  0  0
  -27.9079  -30.3990   23.9851 H   0  0  0  0  0  0
  -27.2725  -33.3651   26.1890 H   0  0  0  0  0  0
  -28.3968  -32.6729   25.0295 H   0  0  0  0  0  0
  -28.0681  -31.8496   26.5476 H   0  0  0  0  0  0
  -28.2514  -38.0111   24.7620 H   0  0  0  0  0  0
  -28.1178  -36.2658   24.6089 H   0  0  0  0  0  0
  -27.2327  -37.1134   25.8849 H   0  0  0  0  0  0
  -20.9633  -29.8622   21.6570 H   0  0  0  0  0  0
  -26.0095  -38.2737   24.1555 H   0  0  0  0  0  0
  -29.5514  -22.5181   18.2229 H   0  0  0  0  0  0
  -29.9503  -22.0341   23.3826 H   0  0  0  0  0  0
  -28.4025  -22.0996   24.3721 H   0  0  0  0  0  0
  -28.1858  -19.6154   24.1904 H   0  0  0  0  0  0
  -29.7479  -19.5611   23.2288 H   0  0  0  0  0  0
  -31.9335  -18.6245   19.2760 H   0  0  0  0  0  0
  -30.8283  -17.6168   18.3851 H   0  0  0  0  0  0
  -29.6869  -19.4872   17.4793 H   0  0  0  0  0  0
  -31.2150  -20.3179   17.8031 H   0  0  0  0  0  0
  -27.1180  -21.0727   22.4330 H   0  0  0  0  0  0
  -30.8164  -18.3738   21.1625 H   0  0  0  0  0  0
  -27.6579  -24.0823   21.5912 H   0  0  0  0  0  0
  -26.9172  -23.9475   20.0590 H   0  0  0  0  0  0
  -28.7020  -16.5283   20.6078 H   0  0  0  0  0  0
  1 25  1  0  0  0
  1 30  2  0  0  0
  1 83  1  0  0  0
  2  3  1  0  0  0
  2 25  1  0  0  0
  2 84  1  0  0  0
  2 85  1  0  0  0
  3  4  1  0  0  0
  3 86  1  0  0  0
  3 87  1  0  0  0
  4  5  1  0  0  0
  4 88  1  0  0  0
  4 89  1  0  0  0
  5  6  1  0  0  0
  5 26  1  0  0  0
  5 90  1  0  0  0
  6 25  1  0  0  0
  6 91  1  0  0  0
  6 92  1  0  0  0
  7  8  2  0  0  0
  7 26  1  0  0  0
  7 29  1  0  0  0
  8  9  1  0  0  0
  8 22  1  0  0  0
  9 10  1  0  0  0
  9 27  2  0  0  0
 10 11  2  0  0  0
 10 15  1  0  0  0
 11 12  1  0  0  0
 11 93  1  0  0  0
 12 13  2  0  0  0
 12 94  1  0  0  0
 13 14  1  0  0  0
 13 31  1  0  0  0
 14 15  2  0  0  0
 14 95  1  0  0  0
 15 96  1  0  0  0
 16 17  2  0  0  0
 16 21  1  0  0  0
 16 31  1  0  0  0
 17 18  1  0  0  0
 17 97  1  0  0  0
 18 19  2  0  0  0
 18 98  1  0  0  0
 19 20  1  0  0  0
 19 24  1  0  0  0
 20 21  2  0  0  0
 20 99  1  0  0  0
 21 23  1  0  0  0
 22 28  1  0  0  0
 22 32  2  0  0  0
 26 27  1  0  0  0
 28100  1  0  0  0
 28101  1  0  0  0
 29102  1  0  0  0
 29103  1  0  0  0
 33 34  1  0  0  0
 33 66  1  0  0  0
 33 70  2  0  0  0
 34 36  1  0  0  0
 34 59  1  0  0  0
 34104  1  0  0  0
 35 44  2  0  0  0
 35 45  1  0  0  0
 35 68  1  0  0  0
 36 56  1  0  0  0
 36105  1  0  0  0
 37 39  1  0  0  0
 37 47  1  0  0  0
 37 66  1  0  0  0
 37106  1  0  0  0
 38 43  2  0  0  0
 38 46  1  0  0  0
 38 47  1  0  0  0
 39 64  1  0  0  0
 39 67  2  0  0  0
 40 52  1  0  0  0
 40 53  2  0  0  0
 40 58  1  0  0  0
 41107  1  0  0  0
 41108  1  0  0  0
 41109  1  0  0  0
 41 48  1  0  0  0
 42 43  1  0  0  0
 42 66  1  0  0  0
 42110  1  0  0  0
 42111  1  0  0  0
 43 44  1  0  0  0
 44112  1  0  0  0
 45 46  2  0  0  0
 45113  1  0  0  0
 46114  1  0  0  0
 47115  1  0  0  0
 47116  1  0  0  0
 48 56  1  0  0  0
 48 65  1  0  0  0
 48117  1  0  0  0
 49 50  1  0  0  0
 49 53  1  0  0  0
 49 64  1  0  0  0
 49118  1  0  0  0
 50 51  1  0  0  0
 50119  1  0  0  0
 50120  1  0  0  0
 51 52  1  0  0  0
 51121  1  0  0  0
 51122  1  0  0  0
 52123  1  0  0  0
 52124  1  0  0  0
 53 54  1  0  0  0
 54 55  2  0  0  0
 54125  1  0  0  0
 55 57  1  0  0  0
 55126  1  0  0  0
 56 69  2  0  0  0
 57 58  2  0  0  0
 57127  1  0  0  0
 58128  1  0  0  0
 59 60  1  0  0  0
 59 61  1  0  0  0
 59 62  1  0  0  0
 60129  1  0  0  0
 60130  1  0  0  0
 60131  1  0  0  0
 61132  1  0  0  0
 61133  1  0  0  0
 61134  1  0  0  0
 62135  1  0  0  0
 62136  1  0  0  0
 62137  1  0  0  0
 63 65  1  0  0  0
 63138  1  0  0  0
 63139  1  0  0  0
 63140  1  0  0  0
 64141  1  0  0  0
 65142  1  0  0  0
 68 81  1  0  0  0
 71 73  2  0  0  0
 71 82  1  0  0  0
 71143  1  0  0  0
 72 73  1  0  0  0
 72 74  2  0  0  0
 72 79  1  0  0  0
 73 81  1  0  0  0
 74 80  1  0  0  0
 74 82  1  0  0  0
 75 76  1  0  0  0
 75 79  1  0  0  0
 75144  1  0  0  0
 75145  1  0  0  0
 76 79  1  0  0  0
 76146  1  0  0  0
 76147  1  0  0  0
 77 78  1  0  0  0
 77 80  1  0  0  0
 77148  1  0  0  0
 77149  1  0  0  0
 78 82  1  0  0  0
 78150  1  0  0  0
 78151  1  0  0  0
 79152  1  0  0  0
 80 83  1  0  0  0
 80153  1  0  0  0
 81154  1  0  0  0
 81155  1  0  0  0
 83156  1  0  0  0
M  ISO  4   1 100  68 101  81 101  83 100
M  END
> <chiral flag>
0

> <version>
0

> <s_m_source_file>
/data/baiqing/PycharmProjects/Reinvent-master-3.2/result/LINK_invent/BTK/process_docking_weight1_custom_sum_contain_oxygen_bond_distance_aromatic_linkinvent_7_9_3/rearranged_h_0146.sdf

> <i_m_source_file_index>
86

> <r_mmod_Potential_Energy-OPLS-2005>
1539.83618164062

> <r_mmod_Stretch_Energy-OPLS-2005>
666.815734863281

> <r_mmod_Bend_Energy-OPLS-2005>
557.454528808594

> <r_mmod_Torsional_Energy-OPLS-2005>
277.712249755859

> <r_mmod_Improper_Torsional_Energy-OPLS-2005>
5.89857149124146

> <r_mmod_Van_der_Waal_Energy-OPLS-2005>
99.036506652832

> <r_mmod_Electrostatic_Energy-OPLS-2005>
-402.735412597656

> <r_mmod_Solvation_Energy-OPLS-2005>
-220.139053344727

> <b_mmod_Minimization_Converged-OPLS-2005>
0

> <r_mmod_RMS_Derivative-OPLS-2005>
4.12588739395142

$$$$
87
                    3D
 Structure written by MMmdl.
158167  0  0  1  0            999 V2000
  -30.7081  -14.3974   20.5640 C   0  0  0  0  0  0
  -30.4254  -12.2590   19.4034 C   0  0  0  0  0  0
  -29.4941  -12.5030   18.1960 C   0  0  0  0  0  0
  -28.0126  -12.3786   18.6066 C   0  0  0  0  0  0
  -27.6715  -13.1961   19.8810 C   0  0  2  0  0  0
  -28.7117  -12.9264   20.9939 C   0  0  0  0  0  0
  -25.2644  -13.8145   20.5644 C   0  0  0  0  0  0
  -24.1875  -13.0431   20.9128 C   0  0  0  0  0  0
  -24.6418  -11.6895   20.8712 C   0  0  0  0  0  0
  -23.9069  -10.4287   21.0392 C   0  0  0  0  0  0
  -24.3624   -9.4205   21.9169 C   0  0  0  0  0  0
  -23.6310   -8.2237   22.0743 C   0  0  0  0  0  0
  -22.4287   -8.0269   21.3535 C   0  0  0  0  0  0
  -21.9914   -9.0245   20.4641 C   0  0  0  0  0  0
  -22.7241  -10.2136   20.3044 C   0  0  0  0  0  0
  -21.6850   -6.0728   22.5276 C   0  0  0  0  0  0
  -21.4010   -6.5634   23.8211 C   0  0  0  0  0  0
  -21.3664   -5.6791   24.9180 C   0  0  0  0  0  0
  -21.6054   -4.3054   24.7233 C   0  0  0  0  0  0
  -21.8823   -3.8135   23.4353 C   0  0  0  0  0  0
  -21.9197   -4.6948   22.3411 C   0  0  0  0  0  0
  -22.7895  -13.5238   21.1816 C   0  0  0  0  0  0
  -22.1656   -4.2128   21.0985 F   0  0  0  0  0  0
  -21.5647   -3.4544   25.7750 F   0  0  0  0  0  0
  -30.0519  -13.2153   20.4534 N   0  0  0  0  0  0
  -26.3083  -12.9294   20.3379 N   0  0  0  0  0  0
  -25.9342  -11.6467   20.5757 N   0  0  0  0  0  0
  -22.0532  -12.8239   22.0379 N   0  0  0  0  0  0
  -25.4401  -15.1860   20.4071 N   0  0  0  0  0  0
  -31.8383  -14.6026   20.1102 O   0  0  0  0  0  0
  -21.6637   -6.8870   21.4238 O   0  0  0  0  0  0
  -22.3578  -14.5545   20.6672 O   0  0  0  0  0  0
  -24.6111  -31.8704   23.2142 C   0  0  0  0  0  0
  -25.9032  -32.4849   23.8394 C   0  0  1  0  0  0
  -27.2397  -27.4768   20.0699 C   0  0  0  0  0  0
  -25.5900  -33.8642   24.2318 N   0  0  0  0  0  0
  -23.3953  -30.4953   21.5540 C   0  0  2  0  0  0
  -24.8374  -28.9626   20.1150 C   0  0  0  0  0  0
  -22.7381  -29.4678   22.5020 C   0  0  0  0  0  0
  -18.0262  -28.1367   22.8497 C   0  0  0  0  0  0
  -24.1481  -36.7339   23.2636 C   0  0  0  0  0  0
  -25.9198  -30.8426   21.3634 C   0  0  0  0  0  0
  -25.9930  -29.4783   20.7145 C   0  0  0  0  0  0
  -27.1886  -28.7339   20.7055 C   0  0  0  0  0  0
  -26.0619  -26.9621   19.4766 C   0  0  0  0  0  0
  -24.8632  -27.6989   19.5016 C   0  0  0  0  0  0
  -23.5982  -29.8258   20.1670 C   0  0  0  0  0  0
  -25.4111  -36.3144   24.0333 C   0  0  1  0  0  0
  -20.5845  -28.3660   23.1329 C   0  0  2  0  0  0
  -20.6758  -26.9403   22.5421 C   0  0  0  0  0  0
  -19.5737  -26.6383   21.5216 C   0  0  0  0  0  0
  -18.1914  -26.7914   22.1622 C   0  0  0  0  0  0
  -19.1507  -28.8830   23.2904 C   0  0  0  0  0  0
  -18.9443  -30.1442   23.8915 C   0  0  0  0  0  0
  -17.6451  -30.6583   24.0569 C   0  0  0  0  0  0
  -25.9037  -34.9500   23.5127 C   0  0  0  0  0  0
  -16.5339  -29.9085   23.6319 C   0  0  0  0  0  0
  -16.7252  -28.6499   23.0352 C   0  0  0  0  0  0
  -26.4455  -31.6635   25.0725 C   0  0  0  0  0  0
  -25.3746  -31.3735   26.1502 C   0  0  0  0  0  0
  -27.0281  -30.3086   24.6100 C   0  0  0  0  0  0
  -27.6031  -32.4362   25.7483 C   0  0  0  0  0  0
  -27.5588  -37.1827   24.8454 C   0  0  0  0  0  0
  -21.4116  -29.3032   22.3754 N   0  0  0  0  0  0
  -26.4302  -37.3823   23.9393 N   0  0  0  0  0  0
  -24.6602  -31.0833   22.1024 N   0  0  0  0  0  0
  -23.4177  -28.8234   23.3056 O   0  0  0  0  0  0
  -28.4497  -26.8192   20.0636 O   0  0  0  0  0  0
  -26.5590  -34.8946   22.4686 O   0  0  0  0  0  0
  -23.5326  -32.1434   23.7583 O   0  0  0  0  0  0
  -29.5682  -17.9021   18.2611 C   0  0  0  0  0  0
  -28.3882  -18.6784   20.2409 C   0  0  0  0  0  0
  -30.0116  -16.7726   18.9683 C   0  0  0  0  0  0
  -28.8258  -17.5451   20.9536 C   0  0  0  0  0  0
  -28.7462  -18.8556   18.8884 C   0  0  0  0  0  0
  -29.6338  -16.5768   20.3208 C   0  0  0  0  0  0
  -28.3025  -24.4924   19.3855 C   0  0  0  0  0  0
  -29.2028  -21.0155   17.4603 C   0  0  0  0  0  0
  -28.2559  -20.0299   18.1095 C   0  0  2  0  0  0
  -28.3947  -21.4181   18.6708 C   0  0  2  0  0  0
  -28.7281  -25.9104   19.0015 C   0  0  0  0  0  0
  -27.2500  -22.4040   18.5693 C   0  0  0  0  0  0
  -29.9609  -15.3984   21.0463 N   0  0  0  0  0  0
  -27.6744  -23.7875   18.4394 N   0  0  0  0  0  0
  -28.5337  -24.0487   20.5133 O   0  0  0  0  0  0
  -31.4700  -12.3570   19.1002 H   0  0  0  0  0  0
  -30.3186  -11.2353   19.7669 H   0  0  0  0  0  0
  -29.7193  -11.7934   17.3982 H   0  0  0  0  0  0
  -29.6793  -13.4958   17.7809 H   0  0  0  0  0  0
  -27.8044  -11.3221   18.7781 H   0  0  0  0  0  0
  -27.3671  -12.6831   17.7816 H   0  0  0  0  0  0
  -27.7300  -14.2503   19.6099 H   0  0  0  0  0  0
  -28.6663  -11.8809   21.3038 H   0  0  0  0  0  0
  -28.4880  -13.5042   21.8913 H   0  0  0  0  0  0
  -25.2777   -9.5690   22.4740 H   0  0  0  0  0  0
  -24.0019   -7.4632   22.7474 H   0  0  0  0  0  0
  -21.0828   -8.8771   19.8966 H   0  0  0  0  0  0
  -22.3683  -10.9672   19.6153 H   0  0  0  0  0  0
  -21.1973   -7.6134   23.9719 H   0  0  0  0  0  0
  -21.1493   -6.0509   25.9094 H   0  0  0  0  0  0
  -22.0599   -2.7588   23.2863 H   0  0  0  0  0  0
  -22.4157  -11.9911   22.4786 H   0  0  0  0  0  0
  -21.1159  -13.1281   22.2586 H   0  0  0  0  0  0
  -24.6800  -15.8473   20.5259 H   0  0  0  0  0  0
  -26.3067  -15.6265   20.1224 H   0  0  0  0  0  0
  -26.7115  -32.5548   23.1158 H   0  0  0  0  0  0
  -25.0091  -33.9794   25.0499 H   0  0  0  0  0  0
  -22.6842  -31.3130   21.4182 H   0  0  0  0  0  0
  -23.3740  -35.9677   23.3320 H   0  0  0  0  0  0
  -24.3579  -36.8930   22.2046 H   0  0  0  0  0  0
  -23.7222  -37.6546   23.6640 H   0  0  0  0  0  0
  -26.0280  -31.6103   20.5962 H   0  0  0  0  0  0
  -26.8109  -30.8955   21.9771 H   0  0  0  0  0  0
  -28.0836  -29.1333   21.1604 H   0  0  0  0  0  0
  -26.0436  -25.9997   18.9900 H   0  0  0  0  0  0
  -23.9734  -27.2929   19.0388 H   0  0  0  0  0  0
  -23.7014  -30.5975   19.4028 H   0  0  0  0  0  0
  -22.7219  -29.2423   19.8769 H   0  0  0  0  0  0
  -25.1282  -36.2028   25.0827 H   0  0  0  0  0  0
  -20.9919  -28.3221   24.1455 H   0  0  0  0  0  0
  -20.5662  -26.2272   23.3610 H   0  0  0  0  0  0
  -21.6636  -26.7472   22.1221 H   0  0  0  0  0  0
  -19.6900  -25.6294   21.1249 H   0  0  0  0  0  0
  -19.6673  -27.3196   20.6748 H   0  0  0  0  0  0
  -17.4194  -26.6678   21.4012 H   0  0  0  0  0  0
  -18.0300  -26.0045   22.9001 H   0  0  0  0  0  0
  -19.7930  -30.7242   24.2284 H   0  0  0  0  0  0
  -17.5017  -31.6258   24.5177 H   0  0  0  0  0  0
  -15.5340  -30.2998   23.7643 H   0  0  0  0  0  0
  -15.8648  -28.0829   22.7047 H   0  0  0  0  0  0
  -24.5896  -30.7095   25.7845 H   0  0  0  0  0  0
  -24.8976  -32.2899   26.4992 H   0  0  0  0  0  0
  -25.8136  -30.8876   27.0228 H   0  0  0  0  0  0
  -26.2810  -29.6856   24.1172 H   0  0  0  0  0  0
  -27.4044  -29.7316   25.4550 H   0  0  0  0  0  0
  -27.8647  -30.4375   23.9233 H   0  0  0  0  0  0
  -27.2623  -33.3623   26.2116 H   0  0  0  0  0  0
  -28.3817  -32.6988   25.0311 H   0  0  0  0  0  0
  -28.0737  -31.8471   26.5360 H   0  0  0  0  0  0
  -28.2625  -38.0109   24.7530 H   0  0  0  0  0  0
  -28.1064  -36.2652   24.6260 H   0  0  0  0  0  0
  -27.2314  -37.1461   25.8858 H   0  0  0  0  0  0
  -20.9279  -29.8758   21.6982 H   0  0  0  0  0  0
  -26.0201  -38.2904   24.1402 H   0  0  0  0  0  0
  -29.8522  -18.0258   17.2253 H   0  0  0  0  0  0
  -27.7640  -19.4095   20.7365 H   0  0  0  0  0  0
  -30.6163  -16.0552   18.4325 H   0  0  0  0  0  0
  -28.5200  -17.4189   21.9830 H   0  0  0  0  0  0
  -28.9141  -21.4542   16.5062 H   0  0  0  0  0  0
  -30.2715  -20.8737   17.6051 H   0  0  0  0  0  0
  -27.3448  -19.7847   17.5668 H   0  0  0  0  0  0
  -28.9681  -21.5073   19.5917 H   0  0  0  0  0  0
  -28.2750  -26.2309   18.0616 H   0  0  0  0  0  0
  -29.8057  -25.8990   18.8327 H   0  0  0  0  0  0
  -26.6104  -22.2923   19.4467 H   0  0  0  0  0  0
  -26.6304  -22.1555   17.7070 H   0  0  0  0  0  0
  -29.2472  -15.1003   21.6935 H   0  0  0  0  0  0
  -27.5068  -24.2401   17.5483 H   0  0  0  0  0  0
  1 25  1  0  0  0
  1 30  2  0  0  0
  1 83  1  0  0  0
  2  3  1  0  0  0
  2 25  1  0  0  0
  2 86  1  0  0  0
  2 87  1  0  0  0
  3  4  1  0  0  0
  3 88  1  0  0  0
  3 89  1  0  0  0
  4  5  1  0  0  0
  4 90  1  0  0  0
  4 91  1  0  0  0
  5  6  1  0  0  0
  5 26  1  0  0  0
  5 92  1  0  0  0
  6 25  1  0  0  0
  6 93  1  0  0  0
  6 94  1  0  0  0
  7  8  2  0  0  0
  7 26  1  0  0  0
  7 29  1  0  0  0
  8  9  1  0  0  0
  8 22  1  0  0  0
  9 10  1  0  0  0
  9 27  2  0  0  0
 10 11  2  0  0  0
 10 15  1  0  0  0
 11 12  1  0  0  0
 11 95  1  0  0  0
 12 13  2  0  0  0
 12 96  1  0  0  0
 13 14  1  0  0  0
 13 31  1  0  0  0
 14 15  2  0  0  0
 14 97  1  0  0  0
 15 98  1  0  0  0
 16 17  2  0  0  0
 16 21  1  0  0  0
 16 31  1  0  0  0
 17 18  1  0  0  0
 17 99  1  0  0  0
 18 19  2  0  0  0
 18100  1  0  0  0
 19 20  1  0  0  0
 19 24  1  0  0  0
 20 21  2  0  0  0
 20101  1  0  0  0
 21 23  1  0  0  0
 22 28  1  0  0  0
 22 32  2  0  0  0
 26 27  1  0  0  0
 28102  1  0  0  0
 28103  1  0  0  0
 29104  1  0  0  0
 29105  1  0  0  0
 33 34  1  0  0  0
 33 66  1  0  0  0
 33 70  2  0  0  0
 34 36  1  0  0  0
 34 59  1  0  0  0
 34106  1  0  0  0
 35 44  2  0  0  0
 35 45  1  0  0  0
 35 68  1  0  0  0
 36 56  1  0  0  0
 36107  1  0  0  0
 37 39  1  0  0  0
 37 47  1  0  0  0
 37 66  1  0  0  0
 37108  1  0  0  0
 38 43  2  0  0  0
 38 46  1  0  0  0
 38 47  1  0  0  0
 39 64  1  0  0  0
 39 67  2  0  0  0
 40 52  1  0  0  0
 40 53  2  0  0  0
 40 58  1  0  0  0
 41109  1  0  0  0
 41110  1  0  0  0
 41111  1  0  0  0
 41 48  1  0  0  0
 42 43  1  0  0  0
 42 66  1  0  0  0
 42112  1  0  0  0
 42113  1  0  0  0
 43 44  1  0  0  0
 44114  1  0  0  0
 45 46  2  0  0  0
 45115  1  0  0  0
 46116  1  0  0  0
 47117  1  0  0  0
 47118  1  0  0  0
 48 56  1  0  0  0
 48 65  1  0  0  0
 48119  1  0  0  0
 49 50  1  0  0  0
 49 53  1  0  0  0
 49 64  1  0  0  0
 49120  1  0  0  0
 50 51  1  0  0  0
 50121  1  0  0  0
 50122  1  0  0  0
 51 52  1  0  0  0
 51123  1  0  0  0
 51124  1  0  0  0
 52125  1  0  0  0
 52126  1  0  0  0
 53 54  1  0  0  0
 54 55  2  0  0  0
 54127  1  0  0  0
 55 57  1  0  0  0
 55128  1  0  0  0
 56 69  2  0  0  0
 57 58  2  0  0  0
 57129  1  0  0  0
 58130  1  0  0  0
 59 60  1  0  0  0
 59 61  1  0  0  0
 59 62  1  0  0  0
 60131  1  0  0  0
 60132  1  0  0  0
 60133  1  0  0  0
 61134  1  0  0  0
 61135  1  0  0  0
 61136  1  0  0  0
 62137  1  0  0  0
 62138  1  0  0  0
 62139  1  0  0  0
 63 65  1  0  0  0
 63140  1  0  0  0
 63141  1  0  0  0
 63142  1  0  0  0
 64143  1  0  0  0
 65144  1  0  0  0
 68 81  1  0  0  0
 71 73  2  0  0  0
 71 75  1  0  0  0
 71145  1  0  0  0
 72 74  1  0  0  0
 72 75  2  0  0  0
 72146  1  0  0  0
 73 76  1  0  0  0
 73147  1  0  0  0
 74 76  2  0  0  0
 74148  1  0  0  0
 75 79  1  0  0  0
 76 83  1  0  0  0
 77 81  1  0  0  0
 77 84  1  0  0  0
 77 85  2  0  0  0
 78 79  1  0  0  0
 78 80  1  0  0  0
 78149  1  0  0  0
 78150  1  0  0  0
 79 80  1  0  0  0
 79151  1  0  0  0
 80 82  1  0  0  0
 80152  1  0  0  0
 81153  1  0  0  0
 81154  1  0  0  0
 82 84  1  0  0  0
 82155  1  0  0  0
 82156  1  0  0  0
 83157  1  0  0  0
 84158  1  0  0  0
M  ISO  4   1 100  68 101  81 101  83 100
M  END
> <chiral flag>
0

> <version>
0

> <s_m_source_file>
/data/baiqing/PycharmProjects/Reinvent-master-3.2/result/LINK_invent/BTK/process_docking_weight1_custom_sum_contain_oxygen_bond_distance_aromatic_linkinvent_7_9_3/rearranged_h_0146.sdf

> <i_m_source_file_index>
87

> <r_mmod_Potential_Energy-OPLS-2005>
-63.8822364807129

> <r_mmod_Stretch_Energy-OPLS-2005>
30.9957447052002

> <r_mmod_Bend_Energy-OPLS-2005>
92.083366394043

> <r_mmod_Torsional_Energy-OPLS-2005>
271.307220458984

> <r_mmod_Improper_Torsional_Energy-OPLS-2005>
6.67355585098267

> <r_mmod_Van_der_Waal_Energy-OPLS-2005>
154.122207641602

> <r_mmod_Electrostatic_Energy-OPLS-2005>
-386.256866455078

> <r_mmod_Solvation_Energy-OPLS-2005>
-243.080337524414

> <b_mmod_Minimization_Converged-OPLS-2005>
0

> <r_mmod_RMS_Derivative-OPLS-2005>
2.48739051818848

$$$$
88
                    3D
 Structure written by MMmdl.
164173  0  0  1  0            999 V2000
  -30.7372  -14.4382   20.5985 C   0  0  0  0  0  0
  -30.4136  -12.3005   19.4103 C   0  0  0  0  0  0
  -29.4852  -12.5165   18.1975 C   0  0  0  0  0  0
  -28.0046  -12.3886   18.6067 C   0  0  0  0  0  0
  -27.6619  -13.2074   19.8801 C   0  0  2  0  0  0
  -28.7043  -12.9436   20.9863 C   0  0  0  0  0  0
  -25.2585  -13.8168   20.5694 C   0  0  0  0  0  0
  -24.1835  -13.0446   20.9174 C   0  0  0  0  0  0
  -24.6390  -11.6911   20.8735 C   0  0  0  0  0  0
  -23.9060  -10.4297   21.0402 C   0  0  0  0  0  0
  -24.3613   -9.4216   21.9184 C   0  0  0  0  0  0
  -23.6291   -8.2251   22.0755 C   0  0  0  0  0  0
  -22.4274   -8.0285   21.3544 C   0  0  0  0  0  0
  -21.9908   -9.0259   20.4646 C   0  0  0  0  0  0
  -22.7233  -10.2138   20.3054 C   0  0  0  0  0  0
  -21.6851   -6.0740   22.5282 C   0  0  0  0  0  0
  -21.4014   -6.5644   23.8216 C   0  0  0  0  0  0
  -21.3657   -5.6794   24.9176 C   0  0  0  0  0  0
  -21.6044   -4.3057   24.7227 C   0  0  0  0  0  0
  -21.8816   -3.8151   23.4346 C   0  0  0  0  0  0
  -21.9191   -4.6968   22.3401 C   0  0  0  0  0  0
  -22.7856  -13.5243   21.1830 C   0  0  0  0  0  0
  -22.1660   -4.2154   21.0978 F   0  0  0  0  0  0
  -21.5627   -3.4539   25.7739 F   0  0  0  0  0  0
  -30.0304  -13.2796   20.4440 N   0  0  0  0  0  0
  -26.3025  -12.9343   20.3399 N   0  0  0  0  0  0
  -25.9317  -11.6497   20.5774 N   0  0  0  0  0  0
  -22.0492  -12.8243   22.0383 N   0  0  0  0  0  0
  -25.4312  -15.1890   20.4108 N   0  0  0  0  0  0
  -31.8566  -14.5715   20.0911 O   0  0  0  0  0  0
  -21.6637   -6.8885   21.4245 O   0  0  0  0  0  0
  -22.3544  -14.5547   20.6667 O   0  0  0  0  0  0
  -24.6146  -31.8698   23.2126 C   0  0  0  0  0  0
  -25.9052  -32.4824   23.8412 C   0  0  1  0  0  0
  -27.2345  -27.4460   20.0912 C   0  0  0  0  0  0
  -25.5920  -33.8623   24.2348 N   0  0  0  0  0  0
  -23.4009  -30.4940   21.5515 C   0  0  2  0  0  0
  -24.8457  -28.9616   20.1134 C   0  0  0  0  0  0
  -22.7411  -29.4661   22.4984 C   0  0  0  0  0  0
  -18.0275  -28.1372   22.8487 C   0  0  0  0  0  0
  -24.1485  -36.7301   23.2640 C   0  0  0  0  0  0
  -25.9298  -30.8368   21.3667 C   0  0  0  0  0  0
  -26.0052  -29.4745   20.7077 C   0  0  0  0  0  0
  -27.2025  -28.7262   20.6876 C   0  0  0  0  0  0
  -26.0550  -26.9426   19.4944 C   0  0  0  0  0  0
  -24.8648  -27.6944   19.5037 C   0  0  0  0  0  0
  -23.6090  -29.8296   20.1645 C   0  0  0  0  0  0
  -25.4107  -36.3106   24.0342 C   0  0  1  0  0  0
  -20.5865  -28.3658   23.1312 C   0  0  2  0  0  0
  -20.6770  -26.9397   22.5410 C   0  0  0  0  0  0
  -19.5752  -26.6385   21.5199 C   0  0  0  0  0  0
  -18.1924  -26.7919   22.1605 C   0  0  0  0  0  0
  -19.1524  -28.8832   23.2897 C   0  0  0  0  0  0
  -18.9462  -30.1441   23.8906 C   0  0  0  0  0  0
  -17.6465  -30.6582   24.0560 C   0  0  0  0  0  0
  -25.9032  -34.9473   23.5135 C   0  0  0  0  0  0
  -16.5356  -29.9086   23.6321 C   0  0  0  0  0  0
  -16.7265  -28.6501   23.0340 C   0  0  0  0  0  0
  -26.4475  -31.6613   25.0744 C   0  0  0  0  0  0
  -25.3733  -31.3743   26.1498 C   0  0  0  0  0  0
  -27.0321  -30.3056   24.6133 C   0  0  0  0  0  0
  -27.6065  -32.4332   25.7494 C   0  0  0  0  0  0
  -27.5586  -37.1802   24.8463 C   0  0  0  0  0  0
  -21.4143  -29.3023   22.3722 N   0  0  0  0  0  0
  -26.4297  -37.3792   23.9412 N   0  0  0  0  0  0
  -24.6661  -31.0804   22.1019 N   0  0  0  0  0  0
  -23.4187  -28.8207   23.3027 O   0  0  0  0  0  0
  -28.4166  -26.7369   20.1057 O   0  0  0  0  0  0
  -26.5580  -34.8928   22.4686 O   0  0  0  0  0  0
  -23.5343  -32.1456   23.7522 O   0  0  0  0  0  0
  -32.2536  -18.9565   22.0935 C   0  0  0  0  0  0
  -33.1137  -20.0580   22.2254 C   0  0  0  0  0  0
  -30.4507  -20.4420   21.3897 C   0  0  0  0  0  0
  -30.9143  -19.1351   21.6845 C   0  0  0  0  0  0
  -32.6471  -21.3555   21.9452 C   0  0  0  0  0  0
  -31.3161  -21.5613   21.5192 C   0  0  0  0  0  0
  -29.8720  -17.0970   22.8527 C   0  0  0  0  0  0
  -29.4872  -15.6988   22.3647 C   0  0  0  0  0  0
  -30.4503  -16.8817   20.5333 C   0  0  0  0  0  0
  -29.9941  -17.9169   21.5716 C   0  0  2  0  0  0
  -33.5868  -22.5368   22.1077 C   0  0  0  0  0  0
  -29.6456  -24.7276   20.6302 C   0  0  0  0  0  0
  -28.3359  -25.3078   20.0735 C   0  0  0  0  0  0
  -29.6691  -23.1922   20.7705 C   0  0  0  0  0  0
  -30.0659  -15.5426   21.0250 N   0  0  0  0  0  0
  -30.9622  -22.8698   21.2659 O   0  0  0  0  0  0
  -31.4565  -12.3891   19.1010 H   0  0  0  0  0  0
  -30.3128  -11.2840   19.7939 H   0  0  0  0  0  0
  -29.7172  -11.7980   17.4105 H   0  0  0  0  0  0
  -29.6623  -13.5049   17.7700 H   0  0  0  0  0  0
  -27.7968  -11.3317   18.7773 H   0  0  0  0  0  0
  -27.3592  -12.6935   17.7822 H   0  0  0  0  0  0
  -27.7176  -14.2631   19.6137 H   0  0  0  0  0  0
  -28.6866  -11.8889   21.2654 H   0  0  0  0  0  0
  -28.4515  -13.4646   21.9028 H   0  0  0  0  0  0
  -25.2760   -9.5689   22.4756 H   0  0  0  0  0  0
  -24.0000   -7.4640   22.7472 H   0  0  0  0  0  0
  -21.0842   -8.8775   19.8948 H   0  0  0  0  0  0
  -22.3697  -10.9676   19.6158 H   0  0  0  0  0  0
  -21.2007   -7.6154   23.9719 H   0  0  0  0  0  0
  -21.1482   -6.0526   25.9079 H   0  0  0  0  0  0
  -22.0594   -2.7614   23.2843 H   0  0  0  0  0  0
  -22.4105  -11.9917   22.4797 H   0  0  0  0  0  0
  -21.1101  -13.1263   22.2560 H   0  0  0  0  0  0
  -24.6675  -15.8469   20.5216 H   0  0  0  0  0  0
  -26.2937  -15.6293   20.1149 H   0  0  0  0  0  0
  -26.7129  -32.5521   23.1184 H   0  0  0  0  0  0
  -25.0131  -33.9791   25.0535 H   0  0  0  0  0  0
  -22.6888  -31.3103   21.4150 H   0  0  0  0  0  0
  -23.3750  -35.9629   23.3308 H   0  0  0  0  0  0
  -24.3586  -36.8903   22.2054 H   0  0  0  0  0  0
  -23.7233  -37.6506   23.6647 H   0  0  0  0  0  0
  -26.0512  -31.6100   20.6068 H   0  0  0  0  0  0
  -26.8138  -30.8776   21.9911 H   0  0  0  0  0  0
  -28.1003  -29.1209   21.1428 H   0  0  0  0  0  0
  -26.0422  -25.9759   19.0120 H   0  0  0  0  0  0
  -23.9737  -27.2945   19.0390 H   0  0  0  0  0  0
  -23.7200  -30.6080   19.4086 H   0  0  0  0  0  0
  -22.7319  -29.2526   19.8653 H   0  0  0  0  0  0
  -25.1280  -36.1972   25.0832 H   0  0  0  0  0  0
  -20.9953  -28.3232   24.1434 H   0  0  0  0  0  0
  -20.5672  -26.2270   23.3596 H   0  0  0  0  0  0
  -21.6644  -26.7448   22.1203 H   0  0  0  0  0  0
  -19.6914  -25.6299   21.1222 H   0  0  0  0  0  0
  -19.6700  -27.3202   20.6735 H   0  0  0  0  0  0
  -17.4198  -26.6675   21.4001 H   0  0  0  0  0  0
  -18.0320  -26.0057   22.8997 H   0  0  0  0  0  0
  -19.7948  -30.7243   24.2278 H   0  0  0  0  0  0
  -17.5030  -31.6261   24.5172 H   0  0  0  0  0  0
  -15.5356  -30.2990   23.7654 H   0  0  0  0  0  0
  -15.8663  -28.0834   22.7039 H   0  0  0  0  0  0
  -24.5910  -30.7070   25.7860 H   0  0  0  0  0  0
  -24.8914  -32.2909   26.4911 H   0  0  0  0  0  0
  -25.8087  -30.8960   27.0280 H   0  0  0  0  0  0
  -26.2886  -29.6809   24.1173 H   0  0  0  0  0  0
  -27.4080  -29.7301   25.4603 H   0  0  0  0  0  0
  -27.8719  -30.4382   23.9308 H   0  0  0  0  0  0
  -27.2696  -33.3625   26.2103 H   0  0  0  0  0  0
  -28.3854  -32.6910   25.0302 H   0  0  0  0  0  0
  -28.0754  -31.8434   26.5378 H   0  0  0  0  0  0
  -28.2607  -38.0102   24.7520 H   0  0  0  0  0  0
  -28.1083  -36.2634   24.6269 H   0  0  0  0  0  0
  -27.2309  -37.1426   25.8870 H   0  0  0  0  0  0
  -20.9302  -29.8757   21.6958 H   0  0  0  0  0  0
  -26.0183  -38.2863   24.1432 H   0  0  0  0  0  0
  -32.6338  -17.9679   22.3118 H   0  0  0  0  0  0
  -34.1338  -19.8995   22.5475 H   0  0  0  0  0  0
  -29.4268  -20.5728   21.0710 H   0  0  0  0  0  0
  -30.8314  -17.0256   23.3657 H   0  0  0  0  0  0
  -29.1581  -17.5209   23.5596 H   0  0  0  0  0  0
  -28.4012  -15.6351   22.2858 H   0  0  0  0  0  0
  -29.8259  -14.9313   23.0638 H   0  0  0  0  0  0
  -31.5323  -16.9465   20.4084 H   0  0  0  0  0  0
  -30.0130  -17.0797   19.5539 H   0  0  0  0  0  0
  -28.9929  -18.2513   21.2935 H   0  0  0  0  0  0
  -33.6343  -23.1209   21.1881 H   0  0  0  0  0  0
  -34.5991  -22.2162   22.3539 H   0  0  0  0  0  0
  -33.2351  -23.1872   22.9094 H   0  0  0  0  0  0
  -29.8359  -25.1671   21.6095 H   0  0  0  0  0  0
  -30.4714  -25.0435   19.9923 H   0  0  0  0  0  0
  -27.5015  -24.9519   20.6805 H   0  0  0  0  0  0
  -28.1784  -24.9649   19.0500 H   0  0  0  0  0  0
  -29.4944  -22.7105   19.8072 H   0  0  0  0  0  0
  -28.8960  -22.8619   21.4654 H   0  0  0  0  0  0
  1 25  1  0  0  0
  1 30  2  0  0  0
  1 85  1  0  0  0
  2  3  1  0  0  0
  2 25  1  0  0  0
  2 87  1  0  0  0
  2 88  1  0  0  0
  3  4  1  0  0  0
  3 89  1  0  0  0
  3 90  1  0  0  0
  4  5  1  0  0  0
  4 91  1  0  0  0
  4 92  1  0  0  0
  5  6  1  0  0  0
  5 26  1  0  0  0
  5 93  1  0  0  0
  6 25  1  0  0  0
  6 94  1  0  0  0
  6 95  1  0  0  0
  7  8  2  0  0  0
  7 26  1  0  0  0
  7 29  1  0  0  0
  8  9  1  0  0  0
  8 22  1  0  0  0
  9 10  1  0  0  0
  9 27  2  0  0  0
 10 11  2  0  0  0
 10 15  1  0  0  0
 11 12  1  0  0  0
 11 96  1  0  0  0
 12 13  2  0  0  0
 12 97  1  0  0  0
 13 14  1  0  0  0
 13 31  1  0  0  0
 14 15  2  0  0  0
 14 98  1  0  0  0
 15 99  1  0  0  0
 16 17  2  0  0  0
 16 21  1  0  0  0
 16 31  1  0  0  0
 17 18  1  0  0  0
 17100  1  0  0  0
 18 19  2  0  0  0
 18101  1  0  0  0
 19 20  1  0  0  0
 19 24  1  0  0  0
 20 21  2  0  0  0
 20102  1  0  0  0
 21 23  1  0  0  0
 22 28  1  0  0  0
 22 32  2  0  0  0
 26 27  1  0  0  0
 28103  1  0  0  0
 28104  1  0  0  0
 29105  1  0  0  0
 29106  1  0  0  0
 33 34  1  0  0  0
 33 66  1  0  0  0
 33 70  2  0  0  0
 34 36  1  0  0  0
 34 59  1  0  0  0
 34107  1  0  0  0
 35 44  2  0  0  0
 35 45  1  0  0  0
 35 68  1  0  0  0
 36 56  1  0  0  0
 36108  1  0  0  0
 37 39  1  0  0  0
 37 47  1  0  0  0
 37 66  1  0  0  0
 37109  1  0  0  0
 38 43  2  0  0  0
 38 46  1  0  0  0
 38 47  1  0  0  0
 39 64  1  0  0  0
 39 67  2  0  0  0
 40 52  1  0  0  0
 40 53  2  0  0  0
 40 58  1  0  0  0
 41110  1  0  0  0
 41111  1  0  0  0
 41112  1  0  0  0
 41 48  1  0  0  0
 42 43  1  0  0  0
 42 66  1  0  0  0
 42113  1  0  0  0
 42114  1  0  0  0
 43 44  1  0  0  0
 44115  1  0  0  0
 45 46  2  0  0  0
 45116  1  0  0  0
 46117  1  0  0  0
 47118  1  0  0  0
 47119  1  0  0  0
 48 56  1  0  0  0
 48 65  1  0  0  0
 48120  1  0  0  0
 49 50  1  0  0  0
 49 53  1  0  0  0
 49 64  1  0  0  0
 49121  1  0  0  0
 50 51  1  0  0  0
 50122  1  0  0  0
 50123  1  0  0  0
 51 52  1  0  0  0
 51124  1  0  0  0
 51125  1  0  0  0
 52126  1  0  0  0
 52127  1  0  0  0
 53 54  1  0  0  0
 54 55  2  0  0  0
 54128  1  0  0  0
 55 57  1  0  0  0
 55129  1  0  0  0
 56 69  2  0  0  0
 57 58  2  0  0  0
 57130  1  0  0  0
 58131  1  0  0  0
 59 60  1  0  0  0
 59 61  1  0  0  0
 59 62  1  0  0  0
 60132  1  0  0  0
 60133  1  0  0  0
 60134  1  0  0  0
 61135  1  0  0  0
 61136  1  0  0  0
 61137  1  0  0  0
 62138  1  0  0  0
 62139  1  0  0  0
 62140  1  0  0  0
 63 65  1  0  0  0
 63141  1  0  0  0
 63142  1  0  0  0
 63143  1  0  0  0
 64144  1  0  0  0
 65145  1  0  0  0
 68 83  1  0  0  0
 71 72  2  0  0  0
 71 74  1  0  0  0
 71146  1  0  0  0
 72 75  1  0  0  0
 72147  1  0  0  0
 73 74  2  0  0  0
 73 76  1  0  0  0
 73148  1  0  0  0
 74 80  1  0  0  0
 75 76  2  0  0  0
 75 81  1  0  0  0
 76 86  1  0  0  0
 77 78  1  0  0  0
 77 80  1  0  0  0
 77149  1  0  0  0
 77150  1  0  0  0
 78 85  1  0  0  0
 78151  1  0  0  0
 78152  1  0  0  0
 79 80  1  0  0  0
 79 85  1  0  0  0
 79153  1  0  0  0
 79154  1  0  0  0
 80155  1  0  0  0
 81156  1  0  0  0
 81157  1  0  0  0
 81158  1  0  0  0
 82 83  1  0  0  0
 82 84  1  0  0  0
 82159  1  0  0  0
 82160  1  0  0  0
 83161  1  0  0  0
 83162  1  0  0  0
 84 86  1  0  0  0
 84163  1  0  0  0
 84164  1  0  0  0
M  ISO  4   1 100  68 101  83 101  85 100
M  END
> <chiral flag>
0

> <version>
0

> <s_m_source_file>
/data/baiqing/PycharmProjects/Reinvent-master-3.2/result/LINK_invent/BTK/process_docking_weight1_custom_sum_contain_oxygen_bond_distance_aromatic_linkinvent_7_9_3/rearranged_h_0146.sdf

> <i_m_source_file_index>
88

> <r_mmod_Potential_Energy-OPLS-2005>
140.293197631836

> <r_mmod_Stretch_Energy-OPLS-2005>
37.562931060791

> <r_mmod_Bend_Energy-OPLS-2005>
130.486923217773

> <r_mmod_Torsional_Energy-OPLS-2005>
311.301361083984

> <r_mmod_Improper_Torsional_Energy-OPLS-2005>
10.6742858886719

> <r_mmod_Van_der_Waal_Energy-OPLS-2005>
160.675430297852

> <r_mmod_Electrostatic_Energy-OPLS-2005>
-321.779846191406

> <r_mmod_Solvation_Energy-OPLS-2005>
-200.197448730469

> <b_mmod_Minimization_Converged-OPLS-2005>
0

> <r_mmod_RMS_Derivative-OPLS-2005>
1.21316170692444

$$$$
89
                    3D
 Structure written by MMmdl.
167176  0  0  1  0            999 V2000
  -30.6764  -14.5939   20.5327 C   0  0  0  0  0  0
  -30.4279  -12.3752   19.4484 C   0  0  0  0  0  0
  -29.5027  -12.5039   18.2207 C   0  0  0  0  0  0
  -28.0270  -12.3454   18.6365 C   0  0  0  0  0  0
  -27.6535  -13.2204   19.8634 C   0  0  2  0  0  0
  -28.6975  -13.0812   20.9936 C   0  0  0  0  0  0
  -25.2557  -13.8187   20.5695 C   0  0  0  0  0  0
  -24.1824  -13.0447   20.9197 C   0  0  0  0  0  0
  -24.6396  -11.6916   20.8739 C   0  0  0  0  0  0
  -23.9062  -10.4297   21.0398 C   0  0  0  0  0  0
  -24.3612   -9.4212   21.9176 C   0  0  0  0  0  0
  -23.6285   -8.2248   22.0747 C   0  0  0  0  0  0
  -22.4267   -8.0283   21.3543 C   0  0  0  0  0  0
  -21.9902   -9.0259   20.4648 C   0  0  0  0  0  0
  -22.7231  -10.2138   20.3049 C   0  0  0  0  0  0
  -21.6856   -6.0727   22.5278 C   0  0  0  0  0  0
  -21.4017   -6.5626   23.8214 C   0  0  0  0  0  0
  -21.3661   -5.6779   24.9173 C   0  0  0  0  0  0
  -21.6046   -4.3044   24.7223 C   0  0  0  0  0  0
  -21.8818   -3.8138   23.4342 C   0  0  0  0  0  0
  -21.9195   -4.6954   22.3399 C   0  0  0  0  0  0
  -22.7844  -13.5239   21.1852 C   0  0  0  0  0  0
  -22.1662   -4.2137   21.0978 F   0  0  0  0  0  0
  -21.5626   -3.4531   25.7737 F   0  0  0  0  0  0
  -30.0145  -13.4024   20.4246 N   0  0  0  0  0  0
  -26.2991  -12.9376   20.3330 N   0  0  0  0  0  0
  -25.9325  -11.6528   20.5755 N   0  0  0  0  0  0
  -22.0471  -12.8236   22.0401 N   0  0  0  0  0  0
  -25.4262  -15.1903   20.4102 N   0  0  0  0  0  0
  -31.8352  -14.7248   20.1332 O   0  0  0  0  0  0
  -21.6636   -6.8871   21.4242 O   0  0  0  0  0  0
  -22.3536  -14.5546   20.6693 O   0  0  0  0  0  0
  -24.6268  -31.8640   23.2099 C   0  0  0  0  0  0
  -25.9130  -32.4799   23.8402 C   0  0  1  0  0  0
  -27.2011  -27.3198   20.0959 C   0  0  0  0  0  0
  -25.5964  -33.8600   24.2324 N   0  0  0  0  0  0
  -23.4181  -30.4958   21.5539 C   0  0  2  0  0  0
  -24.8601  -28.9736   20.1039 C   0  0  0  0  0  0
  -22.7483  -29.4649   22.4943 C   0  0  0  0  0  0
  -18.0289  -28.1382   22.8474 C   0  0  0  0  0  0
  -24.1498  -36.7296   23.2628 C   0  0  0  0  0  0
  -25.9646  -30.7922   21.3879 C   0  0  0  0  0  0
  -26.0333  -29.4247   20.7226 C   0  0  0  0  0  0
  -27.2054  -28.6054   20.7237 C   0  0  0  0  0  0
  -26.0109  -26.9668   19.4043 C   0  0  0  0  0  0
  -24.8515  -27.7478   19.4368 C   0  0  0  0  0  0
  -23.6307  -29.8513   20.1629 C   0  0  0  0  0  0
  -25.4115  -36.3093   24.0331 C   0  0  1  0  0  0
  -20.5892  -28.3688   23.1279 C   0  0  2  0  0  0
  -20.6782  -26.9413   22.5406 C   0  0  0  0  0  0
  -19.5763  -26.6387   21.5202 C   0  0  0  0  0  0
  -18.1938  -26.7927   22.1610 C   0  0  0  0  0  0
  -19.1543  -28.8850   23.2872 C   0  0  0  0  0  0
  -18.9462  -30.1451   23.8888 C   0  0  0  0  0  0
  -17.6462  -30.6583   24.0558 C   0  0  0  0  0  0
  -25.9051  -34.9463   23.5116 C   0  0  0  0  0  0
  -16.5352  -29.9079   23.6327 C   0  0  0  0  0  0
  -16.7277  -28.6502   23.0339 C   0  0  0  0  0  0
  -26.4506  -31.6585   25.0753 C   0  0  0  0  0  0
  -25.3743  -31.3748   26.1487 C   0  0  0  0  0  0
  -27.0301  -30.2987   24.6203 C   0  0  0  0  0  0
  -27.6090  -32.4290   25.7509 C   0  0  0  0  0  0
  -27.5581  -37.1812   24.8460 C   0  0  0  0  0  0
  -21.4197  -29.3046   22.3682 N   0  0  0  0  0  0
  -26.4295  -37.3783   23.9401 N   0  0  0  0  0  0
  -24.6887  -31.0659   22.1063 N   0  0  0  0  0  0
  -23.4216  -28.8155   23.2991 O   0  0  0  0  0  0
  -28.2657  -26.3935   20.1885 O   0  0  0  0  0  0
  -26.5600  -34.8917   22.4669 O   0  0  0  0  0  0
  -23.5436  -32.1446   23.7427 O   0  0  0  0  0  0
  -29.9759  -23.4462   20.3551 C   0  0  0  0  0  0
  -27.7604  -22.5400   20.4518 C   0  0  0  0  0  0
  -29.6572  -20.9759   20.7427 C   0  0  0  0  0  0
  -28.5870  -23.6799   20.2811 C   0  0  0  0  0  0
  -30.5004  -22.1334   20.5870 C   0  0  0  0  0  0
  -28.2563  -21.2295   20.6834 C   0  0  0  0  0  0
  -30.2069  -19.1291   22.5227 C   0  0  0  0  0  0
  -30.2685  -19.5423   21.0395 C   0  0  1  0  0  0
  -30.1731  -17.5792   22.5769 C   0  0  1  0  0  0
  -30.4737  -17.0695   21.1529 C   0  0  2  0  0  0
  -29.8454  -18.2186   20.2862 C   0  0  2  0  0  0
  -32.0142  -22.0092   20.6546 C   0  0  0  0  0  0
  -27.2226  -20.1265   20.8413 C   0  0  0  0  0  0
  -31.0858  -16.9769   23.6542 C   0  0  0  0  0  0
  -27.8837  -25.0048   19.8342 C   0  0  0  0  0  0
  -29.9629  -15.6748   20.9550 N   0  0  0  0  0  0
  -30.3802  -18.1666   18.9751 O   0  0  0  0  0  0
  -31.4711  -12.4816   19.1462 H   0  0  0  0  0  0
  -30.3456  -11.3806   19.8898 H   0  0  0  0  0  0
  -29.7628  -11.7553   17.4710 H   0  0  0  0  0  0
  -29.6513  -13.4760   17.7476 H   0  0  0  0  0  0
  -27.8640  -11.2934   18.8741 H   0  0  0  0  0  0
  -27.3703  -12.5720   17.7958 H   0  0  0  0  0  0
  -27.6738  -14.2549   19.5205 H   0  0  0  0  0  0
  -28.7013  -12.0655   21.3923 H   0  0  0  0  0  0
  -28.4502  -13.7309   21.8344 H   0  0  0  0  0  0
  -25.2755   -9.5686   22.4751 H   0  0  0  0  0  0
  -23.9993   -7.4639   22.7465 H   0  0  0  0  0  0
  -21.0828   -8.8780   19.8960 H   0  0  0  0  0  0
  -22.3684  -10.9673   19.6153 H   0  0  0  0  0  0
  -21.2013   -7.6132   23.9711 H   0  0  0  0  0  0
  -21.1482   -6.0508   25.9075 H   0  0  0  0  0  0
  -22.0595   -2.7600   23.2847 H   0  0  0  0  0  0
  -22.4058  -11.9889   22.4797 H   0  0  0  0  0  0
  -21.1091  -13.1277   22.2590 H   0  0  0  0  0  0
  -24.6574  -15.8433   20.5156 H   0  0  0  0  0  0
  -26.2718  -15.6281   20.0681 H   0  0  0  0  0  0
  -26.7190  -32.5464   23.1143 H   0  0  0  0  0  0
  -25.0157  -33.9762   25.0500 H   0  0  0  0  0  0
  -22.7109  -31.3174   21.4221 H   0  0  0  0  0  0
  -23.3753  -35.9638   23.3311 H   0  0  0  0  0  0
  -24.3592  -36.8881   22.2038 H   0  0  0  0  0  0
  -23.7264  -37.6516   23.6619 H   0  0  0  0  0  0
  -26.1020  -31.5602   20.6253 H   0  0  0  0  0  0
  -26.8437  -30.8337   22.0189 H   0  0  0  0  0  0
  -28.0936  -28.9356   21.2437 H   0  0  0  0  0  0
  -25.9122  -26.0584   18.8301 H   0  0  0  0  0  0
  -23.9615  -27.4080   18.9250 H   0  0  0  0  0  0
  -23.7504  -30.6375   19.4163 H   0  0  0  0  0  0
  -22.7491  -29.2858   19.8548 H   0  0  0  0  0  0
  -25.1295  -36.1957   25.0825 H   0  0  0  0  0  0
  -20.9983  -28.3257   24.1401 H   0  0  0  0  0  0
  -20.5676  -26.2297   23.3601 H   0  0  0  0  0  0
  -21.6654  -26.7444   22.1209 H   0  0  0  0  0  0
  -19.6930  -25.6300   21.1229 H   0  0  0  0  0  0
  -19.6706  -27.3195   20.6729 H   0  0  0  0  0  0
  -17.4216  -26.6674   21.4002 H   0  0  0  0  0  0
  -18.0338  -26.0065   22.9005 H   0  0  0  0  0  0
  -19.7940  -30.7264   24.2257 H   0  0  0  0  0  0
  -17.5019  -31.6261   24.5166 H   0  0  0  0  0  0
  -15.5348  -30.2974   23.7657 H   0  0  0  0  0  0
  -15.8682  -28.0818   22.7046 H   0  0  0  0  0  0
  -24.5961  -30.7023   25.7862 H   0  0  0  0  0  0
  -24.8876  -32.2912   26.4834 H   0  0  0  0  0  0
  -25.8089  -30.9026   27.0307 H   0  0  0  0  0  0
  -26.2851  -29.6781   24.1207 H   0  0  0  0  0  0
  -27.3944  -29.7211   25.4709 H   0  0  0  0  0  0
  -27.8770  -30.4234   23.9451 H   0  0  0  0  0  0
  -27.2740  -33.3613   26.2069 H   0  0  0  0  0  0
  -28.3913  -32.6798   25.0332 H   0  0  0  0  0  0
  -28.0737  -31.8408   26.5434 H   0  0  0  0  0  0
  -28.2618  -38.0090   24.7472 H   0  0  0  0  0  0
  -28.1054  -36.2618   24.6318 H   0  0  0  0  0  0
  -27.2302  -37.1519   25.8866 H   0  0  0  0  0  0
  -20.9366  -29.8797   21.6923 H   0  0  0  0  0  0
  -26.0182  -38.2865   24.1374 H   0  0  0  0  0  0
  -30.6467  -24.2805   20.2030 H   0  0  0  0  0  0
  -26.6890  -22.6663   20.3678 H   0  0  0  0  0  0
  -29.3144  -19.5249   23.0081 H   0  0  0  0  0  0
  -31.0587  -19.5441   23.0626 H   0  0  0  0  0  0
  -31.3331  -19.6093   20.8281 H   0  0  0  0  0  0
  -29.1461  -17.2986   22.8186 H   0  0  0  0  0  0
  -31.5576  -17.0870   21.0179 H   0  0  0  0  0  0
  -28.7661  -18.0897   20.2529 H   0  0  0  0  0  0
  -32.5030  -22.9803   20.5740 H   0  0  0  0  0  0
  -32.3849  -21.3903   19.8372 H   0  0  0  0  0  0
  -32.3254  -21.5671   21.6014 H   0  0  0  0  0  0
  -26.2467  -20.5376   21.1013 H   0  0  0  0  0  0
  -27.4837  -19.4225   21.6288 H   0  0  0  0  0  0
  -27.1036  -19.5852   19.9029 H   0  0  0  0  0  0
  -32.1292  -17.2443   23.4857 H   0  0  0  0  0  0
  -31.0182  -15.8885   23.6638 H   0  0  0  0  0  0
  -30.8062  -17.3326   24.6463 H   0  0  0  0  0  0
  -26.8903  -24.8419   20.2522 H   0  0  0  0  0  0
  -27.8012  -24.9430   18.7482 H   0  0  0  0  0  0
  -29.0023  -15.5021   21.2056 H   0  0  0  0  0  0
  -31.3287  -18.1995   19.0457 H   0  0  0  0  0  0
  1 25  1  0  0  0
  1 30  2  0  0  0
  1 86  1  0  0  0
  2  3  1  0  0  0
  2 25  1  0  0  0
  2 88  1  0  0  0
  2 89  1  0  0  0
  3  4  1  0  0  0
  3 90  1  0  0  0
  3 91  1  0  0  0
  4  5  1  0  0  0
  4 92  1  0  0  0
  4 93  1  0  0  0
  5  6  1  0  0  0
  5 26  1  0  0  0
  5 94  1  0  0  0
  6 25  1  0  0  0
  6 95  1  0  0  0
  6 96  1  0  0  0
  7  8  2  0  0  0
  7 26  1  0  0  0
  7 29  1  0  0  0
  8  9  1  0  0  0
  8 22  1  0  0  0
  9 10  1  0  0  0
  9 27  2  0  0  0
 10 11  2  0  0  0
 10 15  1  0  0  0
 11 12  1  0  0  0
 11 97  1  0  0  0
 12 13  2  0  0  0
 12 98  1  0  0  0
 13 14  1  0  0  0
 13 31  1  0  0  0
 14 15  2  0  0  0
 14 99  1  0  0  0
 15100  1  0  0  0
 16 17  2  0  0  0
 16 21  1  0  0  0
 16 31  1  0  0  0
 17 18  1  0  0  0
 17101  1  0  0  0
 18 19  2  0  0  0
 18102  1  0  0  0
 19 20  1  0  0  0
 19 24  1  0  0  0
 20 21  2  0  0  0
 20103  1  0  0  0
 21 23  1  0  0  0
 22 28  1  0  0  0
 22 32  2  0  0  0
 26 27  1  0  0  0
 28104  1  0  0  0
 28105  1  0  0  0
 29106  1  0  0  0
 29107  1  0  0  0
 33 34  1  0  0  0
 33 66  1  0  0  0
 33 70  2  0  0  0
 34 36  1  0  0  0
 34 59  1  0  0  0
 34108  1  0  0  0
 35 44  2  0  0  0
 35 45  1  0  0  0
 35 68  1  0  0  0
 36 56  1  0  0  0
 36109  1  0  0  0
 37 39  1  0  0  0
 37 47  1  0  0  0
 37 66  1  0  0  0
 37110  1  0  0  0
 38 43  2  0  0  0
 38 46  1  0  0  0
 38 47  1  0  0  0
 39 64  1  0  0  0
 39 67  2  0  0  0
 40 52  1  0  0  0
 40 53  2  0  0  0
 40 58  1  0  0  0
 41111  1  0  0  0
 41112  1  0  0  0
 41113  1  0  0  0
 41 48  1  0  0  0
 42 43  1  0  0  0
 42 66  1  0  0  0
 42114  1  0  0  0
 42115  1  0  0  0
 43 44  1  0  0  0
 44116  1  0  0  0
 45 46  2  0  0  0
 45117  1  0  0  0
 46118  1  0  0  0
 47119  1  0  0  0
 47120  1  0  0  0
 48 56  1  0  0  0
 48 65  1  0  0  0
 48121  1  0  0  0
 49 50  1  0  0  0
 49 53  1  0  0  0
 49 64  1  0  0  0
 49122  1  0  0  0
 50 51  1  0  0  0
 50123  1  0  0  0
 50124  1  0  0  0
 51 52  1  0  0  0
 51125  1  0  0  0
 51126  1  0  0  0
 52127  1  0  0  0
 52128  1  0  0  0
 53 54  1  0  0  0
 54 55  2  0  0  0
 54129  1  0  0  0
 55 57  1  0  0  0
 55130  1  0  0  0
 56 69  2  0  0  0
 57 58  2  0  0  0
 57131  1  0  0  0
 58132  1  0  0  0
 59 60  1  0  0  0
 59 61  1  0  0  0
 59 62  1  0  0  0
 60133  1  0  0  0
 60134  1  0  0  0
 60135  1  0  0  0
 61136  1  0  0  0
 61137  1  0  0  0
 61138  1  0  0  0
 62139  1  0  0  0
 62140  1  0  0  0
 62141  1  0  0  0
 63 65  1  0  0  0
 63142  1  0  0  0
 63143  1  0  0  0
 63144  1  0  0  0
 64145  1  0  0  0
 65146  1  0  0  0
 68 85  1  0  0  0
 71 74  2  0  0  0
 71 75  1  0  0  0
 71147  1  0  0  0
 72 74  1  0  0  0
 72 76  2  0  0  0
 72148  1  0  0  0
 73 75  2  0  0  0
 73 76  1  0  0  0
 73 78  1  0  0  0
 74 85  1  0  0  0
 75 82  1  0  0  0
 76 83  1  0  0  0
 77 78  1  0  0  0
 77 79  1  0  0  0
 77149  1  0  0  0
 77150  1  0  0  0
 78 81  1  0  0  0
 78151  1  0  0  0
 79 80  1  0  0  0
 79 84  1  0  0  0
 79152  1  0  0  0
 80 81  1  0  0  0
 80 86  1  0  0  0
 80153  1  0  0  0
 81 87  1  0  0  0
 81154  1  0  0  0
 82155  1  0  0  0
 82156  1  0  0  0
 82157  1  0  0  0
 83158  1  0  0  0
 83159  1  0  0  0
 83160  1  0  0  0
 84161  1  0  0  0
 84162  1  0  0  0
 84163  1  0  0  0
 85164  1  0  0  0
 85165  1  0  0  0
 86166  1  0  0  0
 87167  1  0  0  0
M  ISO  4   1 100  68 101  85 101  86 100
M  END
> <chiral flag>
0

> <version>
0

> <s_m_source_file>
/data/baiqing/PycharmProjects/Reinvent-master-3.2/result/LINK_invent/BTK/process_docking_weight1_custom_sum_contain_oxygen_bond_distance_aromatic_linkinvent_7_9_3/rearranged_h_0146.sdf

> <i_m_source_file_index>
89

> <r_mmod_Potential_Energy-OPLS-2005>
86.6002044677734

> <r_mmod_Stretch_Energy-OPLS-2005>
77.2381210327148

> <r_mmod_Bend_Energy-OPLS-2005>
189.41389465332

> <r_mmod_Torsional_Energy-OPLS-2005>
260.552551269531

> <r_mmod_Improper_Torsional_Energy-OPLS-2005>
4.41918897628784

> <r_mmod_Van_der_Waal_Energy-OPLS-2005>
162.558395385742

> <r_mmod_Electrostatic_Energy-OPLS-2005>
-440.150238037109

> <r_mmod_Solvation_Energy-OPLS-2005>
-219.110214233398

> <b_mmod_Minimization_Converged-OPLS-2005>
0

> <r_mmod_RMS_Derivative-OPLS-2005>
1.10534691810608

$$$$
90
                    3D
 Structure written by MMmdl.
174183  0  0  1  0            999 V2000
  -30.5540  -14.8803   20.4870 C   0  0  0  0  0  0
  -30.4505  -12.5489   19.4854 C   0  0  0  0  0  0
  -29.5187  -12.5498   18.2487 C   0  0  0  0  0  0
  -28.0468  -12.3378   18.6606 C   0  0  0  0  0  0
  -27.6474  -13.2213   19.8707 C   0  0  2  0  0  0
  -28.7063  -13.1222   20.9981 C   0  0  0  0  0  0
  -25.2442  -13.8119   20.5639 C   0  0  0  0  0  0
  -24.1762  -13.0370   20.9193 C   0  0  0  0  0  0
  -24.6389  -11.6868   20.8768 C   0  0  0  0  0  0
  -23.9068  -10.4255   21.0412 C   0  0  0  0  0  0
  -24.3619   -9.4175   21.9185 C   0  0  0  0  0  0
  -23.6285   -8.2219   22.0750 C   0  0  0  0  0  0
  -22.4267   -8.0267   21.3538 C   0  0  0  0  0  0
  -21.9909   -9.0244   20.4642 C   0  0  0  0  0  0
  -22.7246  -10.2115   20.3049 C   0  0  0  0  0  0
  -21.6844   -6.0728   22.5279 C   0  0  0  0  0  0
  -21.4014   -6.5628   23.8217 C   0  0  0  0  0  0
  -21.3660   -5.6774   24.9174 C   0  0  0  0  0  0
  -21.6041   -4.3039   24.7222 C   0  0  0  0  0  0
  -21.8822   -3.8141   23.4342 C   0  0  0  0  0  0
  -21.9186   -4.6958   22.3399 C   0  0  0  0  0  0
  -22.7782  -13.5159   21.1849 C   0  0  0  0  0  0
  -22.1650   -4.2144   21.0975 F   0  0  0  0  0  0
  -21.5645   -3.4523   25.7739 F   0  0  0  0  0  0
  -29.9751  -13.6057   20.4309 N   0  0  0  0  0  0
  -26.2955  -12.9344   20.3395 N   0  0  0  0  0  0
  -25.9335  -11.6494   20.5843 N   0  0  0  0  0  0
  -22.0432  -12.8173   22.0425 N   0  0  0  0  0  0
  -25.3916  -15.1837   20.3912 N   0  0  0  0  0  0
  -31.7015  -14.9241   20.0356 O   0  0  0  0  0  0
  -21.6623   -6.8869   21.4240 O   0  0  0  0  0  0
  -22.3459  -14.5464   20.6692 O   0  0  0  0  0  0
  -24.6368  -31.8494   23.1929 C   0  0  0  0  0  0
  -25.9168  -32.4722   23.8298 C   0  0  1  0  0  0
  -27.2246  -27.1989   20.1472 C   0  0  0  0  0  0
  -25.5943  -33.8525   24.2222 N   0  0  0  0  0  0
  -23.4372  -30.4690   21.5370 C   0  0  2  0  0  0
  -24.8864  -28.9034   20.1123 C   0  0  0  0  0  0
  -22.7528  -29.4576   22.4891 C   0  0  0  0  0  0
  -18.0296  -28.1392   22.8482 C   0  0  0  0  0  0
  -24.1491  -36.7270   23.2639 C   0  0  0  0  0  0
  -25.9871  -30.7427   21.3827 C   0  0  0  0  0  0
  -26.0587  -29.3586   20.7275 C   0  0  0  0  0  0
  -27.2273  -28.5209   20.7299 C   0  0  0  0  0  0
  -26.0299  -26.8325   19.4870 C   0  0  0  0  0  0
  -24.8812  -27.6516   19.4787 C   0  0  0  0  0  0
  -23.6601  -29.7976   20.1555 C   0  0  0  0  0  0
  -25.4120  -36.3048   24.0320 C   0  0  1  0  0  0
  -20.5903  -28.3715   23.1251 C   0  0  2  0  0  0
  -20.6781  -26.9423   22.5406 C   0  0  0  0  0  0
  -19.5755  -26.6384   21.5213 C   0  0  0  0  0  0
  -18.1936  -26.7934   22.1624 C   0  0  0  0  0  0
  -19.1550  -28.8871   23.2860 C   0  0  0  0  0  0
  -18.9472  -30.1471   23.8882 C   0  0  0  0  0  0
  -17.6470  -30.6592   24.0563 C   0  0  0  0  0  0
  -25.9066  -34.9421   23.5077 C   0  0  0  0  0  0
  -16.5360  -29.9087   23.6336 C   0  0  0  0  0  0
  -16.7281  -28.6504   23.0354 C   0  0  0  0  0  0
  -26.4512  -31.6568   25.0714 C   0  0  0  0  0  0
  -25.3721  -31.3741   26.1427 C   0  0  0  0  0  0
  -27.0367  -30.2971   24.6255 C   0  0  0  0  0  0
  -27.6051  -32.4324   25.7496 C   0  0  0  0  0  0
  -27.5582  -37.1784   24.8457 C   0  0  0  0  0  0
  -21.4231  -29.3045   22.3628 N   0  0  0  0  0  0
  -26.4284  -37.3760   23.9414 N   0  0  0  0  0  0
  -24.7062  -31.0406   22.0931 N   0  0  0  0  0  0
  -23.4197  -28.8124   23.3018 O   0  0  0  0  0  0
  -28.3267  -26.2903   20.2064 O   0  0  0  0  0  0
  -26.5646  -34.8910   22.4650 O   0  0  0  0  0  0
  -23.5504  -32.1344   23.7187 O   0  0  0  0  0  0
  -31.3367  -20.5576   20.2049 C   0  0  0  0  0  0
  -29.4927  -19.0422   20.5613 C   0  0  0  0  0  0
  -32.2191  -19.4644   20.3374 C   0  0  0  0  0  0
  -30.3665  -17.8449   20.6797 C   0  0  0  0  0  0
  -29.9467  -20.4231   20.3536 C   0  0  0  0  0  0
  -31.7526  -18.1561   20.6346 C   0  0  0  0  0  0
  -29.1452  -24.0409   19.1111 C   0  0  0  0  0  0
  -28.5311  -23.9339   21.4440 C   0  0  0  0  0  0
  -29.0482  -22.4488   19.0012 C   0  0  0  0  0  0
  -28.4375  -22.3296   21.3697 C   0  0  0  0  0  0
  -28.1975  -24.7584   20.1389 C   0  0  0  0  0  0
  -33.7062  -19.7325   20.1726 C   0  0  0  0  0  0
  -28.3290  -16.3500   21.0225 C   0  0  0  0  0  0
  -35.1634  -15.3284   20.5094 C   0  0  0  0  0  0
  -33.1774  -17.1989   22.2379 C   0  0  0  0  0  0
  -34.0090  -15.9318   22.5028 C   0  0  0  0  0  0
  -29.8680  -16.3117   21.0347 C   0  0  1  0  0  0
  -29.1833  -21.6783   20.2644 N   0  0  0  0  0  0
  -32.6807  -17.1898   20.9049 O   0  0  0  0  0  0
  -35.2437  -15.9404   21.7906 O   0  0  0  0  0  0
  -31.4822  -12.7012   19.1649 H   0  0  0  0  0  0
  -30.4492  -11.5692   19.9669 H   0  0  0  0  0  0
  -29.8259  -11.7779   17.5414 H   0  0  0  0  0  0
  -29.6184  -13.5010   17.7229 H   0  0  0  0  0  0
  -27.9203  -11.2858   18.9167 H   0  0  0  0  0  0
  -27.3817  -12.5257   17.8167 H   0  0  0  0  0  0
  -27.6413  -14.2397   19.4888 H   0  0  0  0  0  0
  -28.7966  -12.0816   21.3149 H   0  0  0  0  0  0
  -28.4438  -13.6346   21.9195 H   0  0  0  0  0  0
  -25.2764   -9.5664   22.4753 H   0  0  0  0  0  0
  -24.0001   -7.4612   22.7465 H   0  0  0  0  0  0
  -21.0844   -8.8775   19.8940 H   0  0  0  0  0  0
  -22.3711  -10.9663   19.6161 H   0  0  0  0  0  0
  -21.1997   -7.6132   23.9724 H   0  0  0  0  0  0
  -21.1481   -6.0499   25.9078 H   0  0  0  0  0  0
  -22.0598   -2.7599   23.2849 H   0  0  0  0  0  0
  -22.4062  -11.9864   22.4849 H   0  0  0  0  0  0
  -21.1049  -13.1205   22.2614 H   0  0  0  0  0  0
  -24.6135  -15.8249   20.4988 H   0  0  0  0  0  0
  -26.2402  -15.6381   20.0820 H   0  0  0  0  0  0
  -26.7233  -32.5350   23.1033 H   0  0  0  0  0  0
  -25.0075  -33.9653   25.0359 H   0  0  0  0  0  0
  -22.7369  -31.2930   21.3848 H   0  0  0  0  0  0
  -23.3758  -35.9596   23.3279 H   0  0  0  0  0  0
  -24.3583  -36.8921   22.2057 H   0  0  0  0  0  0
  -23.7239  -37.6459   23.6684 H   0  0  0  0  0  0
  -26.1328  -31.4991   20.6100 H   0  0  0  0  0  0
  -26.8611  -30.7935   22.0195 H   0  0  0  0  0  0
  -28.1236  -28.8665   21.2265 H   0  0  0  0  0  0
  -25.9539  -25.8904   18.9673 H   0  0  0  0  0  0
  -23.9881  -27.3024   18.9795 H   0  0  0  0  0  0
  -23.7901  -30.5714   19.3982 H   0  0  0  0  0  0
  -22.7775  -29.2343   19.8481 H   0  0  0  0  0  0
  -25.1304  -36.1879   25.0811 H   0  0  0  0  0  0
  -20.9995  -28.3300   24.1372 H   0  0  0  0  0  0
  -20.5678  -26.2327   23.3622 H   0  0  0  0  0  0
  -21.6650  -26.7434   22.1205 H   0  0  0  0  0  0
  -19.6917  -25.6289   21.1255 H   0  0  0  0  0  0
  -19.6693  -27.3186   20.6735 H   0  0  0  0  0  0
  -17.4205  -26.6682   21.4022 H   0  0  0  0  0  0
  -18.0333  -26.0077   22.9020 H   0  0  0  0  0  0
  -19.7946  -30.7292   24.2240 H   0  0  0  0  0  0
  -17.5020  -31.6267   24.5169 H   0  0  0  0  0  0
  -15.5359  -30.2983   23.7666 H   0  0  0  0  0  0
  -15.8683  -28.0820   22.7077 H   0  0  0  0  0  0
  -24.5895  -30.7091   25.7755 H   0  0  0  0  0  0
  -24.8917  -32.2919   26.4828 H   0  0  0  0  0  0
  -25.8025  -30.8931   27.0222 H   0  0  0  0  0  0
  -26.2966  -29.6704   24.1269 H   0  0  0  0  0  0
  -27.4001  -29.7256   25.4806 H   0  0  0  0  0  0
  -27.8865  -30.4215   23.9542 H   0  0  0  0  0  0
  -27.2647  -33.3637   26.2040 H   0  0  0  0  0  0
  -28.3883  -32.6871   25.0340 H   0  0  0  0  0  0
  -28.0700  -31.8475   26.5445 H   0  0  0  0  0  0
  -28.2570  -38.0111   24.7541 H   0  0  0  0  0  0
  -28.1110  -36.2642   24.6235 H   0  0  0  0  0  0
  -27.2306  -37.1374   25.8861 H   0  0  0  0  0  0
  -20.9431  -29.8759   21.6818 H   0  0  0  0  0  0
  -26.0153  -38.2823   24.1440 H   0  0  0  0  0  0
  -31.7458  -21.5398   20.0161 H   0  0  0  0  0  0
  -28.4245  -18.9231   20.6425 H   0  0  0  0  0  0
  -28.9608  -24.4624   18.1224 H   0  0  0  0  0  0
  -30.1757  -24.3066   19.3479 H   0  0  0  0  0  0
  -29.5374  -24.2016   21.7680 H   0  0  0  0  0  0
  -27.8751  -24.2779   22.2449 H   0  0  0  0  0  0
  -29.7955  -22.0964   18.2884 H   0  0  0  0  0  0
  -28.0814  -22.1902   18.5660 H   0  0  0  0  0  0
  -27.3896  -22.0412   21.2776 H   0  0  0  0  0  0
  -28.7809  -21.9081   22.3155 H   0  0  0  0  0  0
  -27.1774  -24.4874   19.8777 H   0  0  0  0  0  0
  -33.8796  -20.5557   19.4794 H   0  0  0  0  0  0
  -34.2273  -18.8597   19.7774 H   0  0  0  0  0  0
  -34.1568  -20.0045   21.1273 H   0  0  0  0  0  0
  -27.9612  -17.1268   21.6917 H   0  0  0  0  0  0
  -27.8426  -15.4726   21.4096 H   0  0  0  0  0  0
  -27.9447  -16.5538   20.0235 H   0  0  0  0  0  0
  -34.4667  -15.8394   19.8468 H   0  0  0  0  0  0
  -34.8529  -14.2855   20.5946 H   0  0  0  0  0  0
  -36.1430  -15.3420   20.0303 H   0  0  0  0  0  0
  -33.7757  -18.0884   22.4308 H   0  0  0  0  0  0
  -32.3400  -17.2262   22.9376 H   0  0  0  0  0  0
  -33.4328  -15.0238   22.3155 H   0  0  0  0  0  0
  -34.2610  -15.9123   23.5633 H   0  0  0  0  0  0
  -30.1216  -16.2414   22.0926 H   0  0  0  0  0  0
  1 25  1  0  0  0
  1 30  2  0  0  0
  1 87  1  0  0  0
  2  3  1  0  0  0
  2 25  1  0  0  0
  2 91  1  0  0  0
  2 92  1  0  0  0
  3  4  1  0  0  0
  3 93  1  0  0  0
  3 94  1  0  0  0
  4  5  1  0  0  0
  4 95  1  0  0  0
  4 96  1  0  0  0
  5  6  1  0  0  0
  5 26  1  0  0  0
  5 97  1  0  0  0
  6 25  1  0  0  0
  6 98  1  0  0  0
  6 99  1  0  0  0
  7  8  2  0  0  0
  7 26  1  0  0  0
  7 29  1  0  0  0
  8  9  1  0  0  0
  8 22  1  0  0  0
  9 10  1  0  0  0
  9 27  2  0  0  0
 10 11  2  0  0  0
 10 15  1  0  0  0
 11 12  1  0  0  0
 11100  1  0  0  0
 12 13  2  0  0  0
 12101  1  0  0  0
 13 14  1  0  0  0
 13 31  1  0  0  0
 14 15  2  0  0  0
 14102  1  0  0  0
 15103  1  0  0  0
 16 17  2  0  0  0
 16 21  1  0  0  0
 16 31  1  0  0  0
 17 18  1  0  0  0
 17104  1  0  0  0
 18 19  2  0  0  0
 18105  1  0  0  0
 19 20  1  0  0  0
 19 24  1  0  0  0
 20 21  2  0  0  0
 20106  1  0  0  0
 21 23  1  0  0  0
 22 28  1  0  0  0
 22 32  2  0  0  0
 26 27  1  0  0  0
 28107  1  0  0  0
 28108  1  0  0  0
 29109  1  0  0  0
 29110  1  0  0  0
 33 34  1  0  0  0
 33 66  1  0  0  0
 33 70  2  0  0  0
 34 36  1  0  0  0
 34 59  1  0  0  0
 34111  1  0  0  0
 35 44  2  0  0  0
 35 45  1  0  0  0
 35 68  1  0  0  0
 36 56  1  0  0  0
 36112  1  0  0  0
 37 39  1  0  0  0
 37 47  1  0  0  0
 37 66  1  0  0  0
 37113  1  0  0  0
 38 43  2  0  0  0
 38 46  1  0  0  0
 38 47  1  0  0  0
 39 64  1  0  0  0
 39 67  2  0  0  0
 40 52  1  0  0  0
 40 53  2  0  0  0
 40 58  1  0  0  0
 41114  1  0  0  0
 41115  1  0  0  0
 41116  1  0  0  0
 41 48  1  0  0  0
 42 43  1  0  0  0
 42 66  1  0  0  0
 42117  1  0  0  0
 42118  1  0  0  0
 43 44  1  0  0  0
 44119  1  0  0  0
 45 46  2  0  0  0
 45120  1  0  0  0
 46121  1  0  0  0
 47122  1  0  0  0
 47123  1  0  0  0
 48 56  1  0  0  0
 48 65  1  0  0  0
 48124  1  0  0  0
 49 50  1  0  0  0
 49 53  1  0  0  0
 49 64  1  0  0  0
 49125  1  0  0  0
 50 51  1  0  0  0
 50126  1  0  0  0
 50127  1  0  0  0
 51 52  1  0  0  0
 51128  1  0  0  0
 51129  1  0  0  0
 52130  1  0  0  0
 52131  1  0  0  0
 53 54  1  0  0  0
 54 55  2  0  0  0
 54132  1  0  0  0
 55 57  1  0  0  0
 55133  1  0  0  0
 56 69  2  0  0  0
 57 58  2  0  0  0
 57134  1  0  0  0
 58135  1  0  0  0
 59 60  1  0  0  0
 59 61  1  0  0  0
 59 62  1  0  0  0
 60136  1  0  0  0
 60137  1  0  0  0
 60138  1  0  0  0
 61139  1  0  0  0
 61140  1  0  0  0
 61141  1  0  0  0
 62142  1  0  0  0
 62143  1  0  0  0
 62144  1  0  0  0
 63 65  1  0  0  0
 63145  1  0  0  0
 63146  1  0  0  0
 63147  1  0  0  0
 64148  1  0  0  0
 65149  1  0  0  0
 68 81  1  0  0  0
 71 73  2  0  0  0
 71 75  1  0  0  0
 71150  1  0  0  0
 72 74  1  0  0  0
 72 75  2  0  0  0
 72151  1  0  0  0
 73 76  1  0  0  0
 73 82  1  0  0  0
 74 76  2  0  0  0
 74 87  1  0  0  0
 75 88  1  0  0  0
 76 89  1  0  0  0
 77 79  1  0  0  0
 77 81  1  0  0  0
 77152  1  0  0  0
 77153  1  0  0  0
 78 80  1  0  0  0
 78 81  1  0  0  0
 78154  1  0  0  0
 78155  1  0  0  0
 79 88  1  0  0  0
 79156  1  0  0  0
 79157  1  0  0  0
 80 88  1  0  0  0
 80158  1  0  0  0
 80159  1  0  0  0
 81160  1  0  0  0
 82161  1  0  0  0
 82162  1  0  0  0
 82163  1  0  0  0
 83164  1  0  0  0
 83165  1  0  0  0
 83166  1  0  0  0
 83 87  1  0  0  0
 84 90  1  0  0  0
 84167  1  0  0  0
 84168  1  0  0  0
 84169  1  0  0  0
 85 86  1  0  0  0
 85 89  1  0  0  0
 85170  1  0  0  0
 85171  1  0  0  0
 86 90  1  0  0  0
 86172  1  0  0  0
 86173  1  0  0  0
 87174  1  0  0  0
M  ISO  4   1 100  68 101  81 101  87 100
M  END
> <chiral flag>
0

> <version>
0

> <s_m_source_file>
/data/baiqing/PycharmProjects/Reinvent-master-3.2/result/LINK_invent/BTK/process_docking_weight1_custom_sum_contain_oxygen_bond_distance_aromatic_linkinvent_7_9_3/rearranged_h_0146.sdf

> <i_m_source_file_index>
90

> <r_mmod_Potential_Energy-OPLS-2005>
476.818756103516

> <r_mmod_Stretch_Energy-OPLS-2005>
199.423370361328

> <r_mmod_Bend_Energy-OPLS-2005>
268.930023193359

> <r_mmod_Torsional_Energy-OPLS-2005>
275.939727783203

> <r_mmod_Improper_Torsional_Energy-OPLS-2005>
2.61337661743164

> <r_mmod_Van_der_Waal_Energy-OPLS-2005>
151.854278564453

> <r_mmod_Electrostatic_Energy-OPLS-2005>
-335.743713378906

> <r_mmod_Solvation_Energy-OPLS-2005>
-214.709686279297

> <b_mmod_Minimization_Converged-OPLS-2005>
0

> <r_mmod_RMS_Derivative-OPLS-2005>
1.4441202878952

$$$$
91
                    3D
 Structure written by MMmdl.
166175  0  0  1  0            999 V2000
  -30.7097  -14.5074   20.5868 C   0  0  0  0  0  0
  -30.4237  -12.3410   19.4184 C   0  0  0  0  0  0
  -29.4912  -12.5046   18.2000 C   0  0  0  0  0  0
  -28.0167  -12.3286   18.6154 C   0  0  0  0  0  0
  -27.6515  -13.1790   19.8589 C   0  0  2  0  0  0
  -28.7017  -12.9897   20.9834 C   0  0  0  0  0  0
  -25.2564  -13.8091   20.5614 C   0  0  0  0  0  0
  -24.1816  -13.0405   20.9179 C   0  0  0  0  0  0
  -24.6353  -11.6876   20.8749 C   0  0  0  0  0  0
  -23.9018  -10.4282   21.0419 C   0  0  0  0  0  0
  -24.3598   -9.4207   21.9188 C   0  0  0  0  0  0
  -23.6292   -8.2232   22.0748 C   0  0  0  0  0  0
  -22.4270   -8.0272   21.3541 C   0  0  0  0  0  0
  -21.9892   -9.0230   20.4637 C   0  0  0  0  0  0
  -22.7199  -10.2119   20.3059 C   0  0  0  0  0  0
  -21.6841   -6.0745   22.5292 C   0  0  0  0  0  0
  -21.3993   -6.5645   23.8225 C   0  0  0  0  0  0
  -21.3657   -5.6794   24.9187 C   0  0  0  0  0  0
  -21.6055   -4.3057   24.7232 C   0  0  0  0  0  0
  -21.8820   -3.8154   23.4347 C   0  0  0  0  0  0
  -21.9188   -4.6977   22.3409 C   0  0  0  0  0  0
  -22.7850  -13.5237   21.1852 C   0  0  0  0  0  0
  -22.1663   -4.2170   21.0986 F   0  0  0  0  0  0
  -21.5637   -3.4539   25.7740 F   0  0  0  0  0  0
  -30.0201  -13.3360   20.4308 N   0  0  0  0  0  0
  -26.2961  -12.9194   20.3283 N   0  0  0  0  0  0
  -25.9265  -11.6397   20.5768 N   0  0  0  0  0  0
  -22.0468  -12.8239   22.0407 N   0  0  0  0  0  0
  -25.4244  -15.1804   20.3945 N   0  0  0  0  0  0
  -31.8529  -14.6372   20.1350 O   0  0  0  0  0  0
  -21.6629   -6.8877   21.4249 O   0  0  0  0  0  0
  -22.3547  -14.5550   20.6702 O   0  0  0  0  0  0
  -24.6132  -31.8682   23.2093 C   0  0  0  0  0  0
  -25.9033  -32.4824   23.8372 C   0  0  1  0  0  0
  -27.2362  -27.4307   20.0890 C   0  0  0  0  0  0
  -25.5897  -33.8624   24.2303 N   0  0  0  0  0  0
  -23.3999  -30.4915   21.5496 C   0  0  2  0  0  0
  -24.8437  -28.9527   20.1184 C   0  0  0  0  0  0
  -22.7394  -29.4654   22.4980 C   0  0  0  0  0  0
  -18.0270  -28.1380   22.8474 C   0  0  0  0  0  0
  -24.1493  -36.7320   23.2637 C   0  0  0  0  0  0
  -25.9287  -30.8318   21.3615 C   0  0  0  0  0  0
  -26.0034  -29.4649   20.7102 C   0  0  0  0  0  0
  -27.1974  -28.7100   20.6927 C   0  0  0  0  0  0
  -26.0518  -26.9291   19.5018 C   0  0  0  0  0  0
  -24.8619  -27.6833   19.5151 C   0  0  0  0  0  0
  -23.6076  -29.8220   20.1653 C   0  0  0  0  0  0
  -25.4117  -36.3110   24.0327 C   0  0  1  0  0  0
  -20.5855  -28.3656   23.1325 C   0  0  2  0  0  0
  -20.6763  -26.9396   22.5425 C   0  0  0  0  0  0
  -19.5743  -26.6381   21.5219 C   0  0  0  0  0  0
  -18.1913  -26.7924   22.1617 C   0  0  0  0  0  0
  -19.1520  -28.8836   23.2890 C   0  0  0  0  0  0
  -18.9453  -30.1443   23.8898 C   0  0  0  0  0  0
  -17.6459  -30.6581   24.0568 C   0  0  0  0  0  0
  -25.9042  -34.9479   23.5121 C   0  0  0  0  0  0
  -16.5342  -29.9089   23.6338 C   0  0  0  0  0  0
  -16.7263  -28.6516   23.0336 C   0  0  0  0  0  0
  -26.4457  -31.6615   25.0716 C   0  0  0  0  0  0
  -25.3728  -31.3749   26.1479 C   0  0  0  0  0  0
  -27.0290  -30.3053   24.6095 C   0  0  0  0  0  0
  -27.6011  -32.4350   25.7487 C   0  0  0  0  0  0
  -27.5579  -37.1809   24.8458 C   0  0  0  0  0  0
  -21.4121  -29.3031   22.3736 N   0  0  0  0  0  0
  -26.4304  -37.3791   23.9401 N   0  0  0  0  0  0
  -24.6656  -31.0780   22.0996 N   0  0  0  0  0  0
  -23.4180  -28.8192   23.3010 O   0  0  0  0  0  0
  -28.4431  -26.7552   20.0924 O   0  0  0  0  0  0
  -26.5604  -34.8929   22.4677 O   0  0  0  0  0  0
  -23.5331  -32.1436   23.7504 O   0  0  0  0  0  0
  -30.8323  -19.2559   23.4992 C   0  0  0  0  0  0
  -30.8006  -21.6684   23.4790 C   0  0  0  0  0  0
  -31.0058  -20.4713   24.1828 C   0  0  0  0  0  0
  -30.4509  -19.2752   22.1411 C   0  0  0  0  0  0
  -30.3936  -21.6103   22.1391 C   0  0  0  0  0  0
  -28.7562  -17.5669   21.3263 C   0  0  0  0  0  0
  -28.8072  -16.1075   20.8710 C   0  0  0  0  0  0
  -30.8877  -16.6664   21.8324 C   0  0  0  0  0  0
  -30.2102  -17.9764   21.3558 C   0  0  2  0  0  0
  -31.3877  -20.4962   25.6475 C   0  0  0  0  0  0
  -27.1529  -24.3120   21.5779 C   0  0  0  0  0  0
  -28.5546  -25.3742   19.7038 C   0  0  0  0  0  0
  -29.1211  -22.9998   20.6082 C   0  0  0  0  0  0
  -28.5396  -24.4130   20.9210 C   0  0  2  0  0  0
  -30.2121  -20.4403   21.4763 N   0  0  0  0  0  0
  -30.1152  -15.5446   21.2510 N   0  0  0  0  0  0
  -30.2443  -22.8026   21.4665 O   0  0  0  0  0  0
  -31.4651  -12.4485   19.1094 H   0  0  0  0  0  0
  -30.3424  -11.3339   19.8298 H   0  0  0  0  0  0
  -29.7501  -11.7813   17.4256 H   0  0  0  0  0  0
  -29.6324  -13.4914   17.7557 H   0  0  0  0  0  0
  -27.8527  -11.2710   18.8271 H   0  0  0  0  0  0
  -27.3580  -12.5759   17.7824 H   0  0  0  0  0  0
  -27.6675  -14.2039   19.5052 H   0  0  0  0  0  0
  -28.7061  -11.9501   21.3136 H   0  0  0  0  0  0
  -28.4620  -13.5582   21.8801 H   0  0  0  0  0  0
  -25.2751   -9.5703   22.4741 H   0  0  0  0  0  0
  -24.0025   -7.4627   22.7465 H   0  0  0  0  0  0
  -21.0823   -8.8729   19.8939 H   0  0  0  0  0  0
  -22.3653  -10.9653   19.6160 H   0  0  0  0  0  0
  -21.1964   -7.6147   23.9734 H   0  0  0  0  0  0
  -21.1478   -6.0519   25.9090 H   0  0  0  0  0  0
  -22.0598   -2.7620   23.2838 H   0  0  0  0  0  0
  -22.4071  -11.9914   22.4825 H   0  0  0  0  0  0
  -21.1077  -13.1262   22.2583 H   0  0  0  0  0  0
  -24.6547  -15.8316   20.5066 H   0  0  0  0  0  0
  -26.2742  -15.6230   20.0686 H   0  0  0  0  0  0
  -26.7090  -32.5530   23.1117 H   0  0  0  0  0  0
  -25.0060  -33.9781   25.0456 H   0  0  0  0  0  0
  -22.6872  -31.3077   21.4101 H   0  0  0  0  0  0
  -23.3750  -35.9661   23.3324 H   0  0  0  0  0  0
  -24.3579  -36.8934   22.2046 H   0  0  0  0  0  0
  -23.7259  -37.6536   23.6653 H   0  0  0  0  0  0
  -26.0401  -31.5967   20.5908 H   0  0  0  0  0  0
  -26.8184  -30.8858   21.9778 H   0  0  0  0  0  0
  -28.0955  -29.1064   21.1447 H   0  0  0  0  0  0
  -26.0108  -25.9631   19.0267 H   0  0  0  0  0  0
  -23.9681  -27.2786   19.0618 H   0  0  0  0  0  0
  -23.7208  -30.5973   19.4049 H   0  0  0  0  0  0
  -22.7325  -29.2408   19.8697 H   0  0  0  0  0  0
  -25.1294  -36.1969   25.0819 H   0  0  0  0  0  0
  -20.9928  -28.3234   24.1451 H   0  0  0  0  0  0
  -20.5683  -26.2249   23.3603 H   0  0  0  0  0  0
  -21.6626  -26.7458   22.1195 H   0  0  0  0  0  0
  -19.6912  -25.6300   21.1234 H   0  0  0  0  0  0
  -19.6703  -27.3204   20.6763 H   0  0  0  0  0  0
  -17.4185  -26.6675   21.4015 H   0  0  0  0  0  0
  -18.0304  -26.0070   22.9018 H   0  0  0  0  0  0
  -19.7939  -30.7255   24.2241 H   0  0  0  0  0  0
  -17.5030  -31.6261   24.5176 H   0  0  0  0  0  0
  -15.5346  -30.2996   23.7674 H   0  0  0  0  0  0
  -15.8657  -28.0864   22.7017 H   0  0  0  0  0  0
  -24.5868  -30.7126   25.7840 H   0  0  0  0  0  0
  -24.8955  -32.2931   26.4926 H   0  0  0  0  0  0
  -25.8089  -30.8922   27.0233 H   0  0  0  0  0  0
  -26.2845  -29.6817   24.1137 H   0  0  0  0  0  0
  -27.4054  -29.7287   25.4553 H   0  0  0  0  0  0
  -27.8675  -30.4377   23.9252 H   0  0  0  0  0  0
  -27.2601  -33.3636   26.2075 H   0  0  0  0  0  0
  -28.3818  -32.6948   25.0327 H   0  0  0  0  0  0
  -28.0677  -31.8478   26.5404 H   0  0  0  0  0  0
  -28.2591  -38.0106   24.7501 H   0  0  0  0  0  0
  -28.1073  -36.2634   24.6294 H   0  0  0  0  0  0
  -27.2288  -37.1484   25.8859 H   0  0  0  0  0  0
  -20.9271  -29.8779   21.6990 H   0  0  0  0  0  0
  -26.0194  -38.2868   24.1411 H   0  0  0  0  0  0
  -30.9820  -18.3282   24.0309 H   0  0  0  0  0  0
  -30.9372  -22.6287   23.9593 H   0  0  0  0  0  0
  -28.3424  -17.6266   22.3349 H   0  0  0  0  0  0
  -28.1469  -18.2033   20.6850 H   0  0  0  0  0  0
  -27.9748  -15.5751   21.3217 H   0  0  0  0  0  0
  -28.7041  -16.0797   19.7844 H   0  0  0  0  0  0
  -30.8105  -16.5402   22.9106 H   0  0  0  0  0  0
  -31.9509  -16.6635   21.5906 H   0  0  0  0  0  0
  -30.5354  -18.1522   20.3284 H   0  0  0  0  0  0
  -32.0629  -21.3268   25.8564 H   0  0  0  0  0  0
  -31.8842  -19.5726   25.9467 H   0  0  0  0  0  0
  -30.4940  -20.6176   26.2608 H   0  0  0  0  0  0
  -26.8339  -25.2777   21.9698 H   0  0  0  0  0  0
  -27.1613  -23.6115   22.4140 H   0  0  0  0  0  0
  -26.4013  -23.9717   20.8654 H   0  0  0  0  0  0
  -27.8587  -25.0598   18.9287 H   0  0  0  0  0  0
  -29.5339  -25.2989   19.2304 H   0  0  0  0  0  0
  -28.3623  -22.2258   20.7459 H   0  0  0  0  0  0
  -29.4554  -22.9260   19.5722 H   0  0  0  0  0  0
  -29.1968  -24.8695   21.6627 H   0  0  0  0  0  0
  1 25  1  0  0  0
  1 30  2  0  0  0
  1 86  1  0  0  0
  2  3  1  0  0  0
  2 25  1  0  0  0
  2 88  1  0  0  0
  2 89  1  0  0  0
  3  4  1  0  0  0
  3 90  1  0  0  0
  3 91  1  0  0  0
  4  5  1  0  0  0
  4 92  1  0  0  0
  4 93  1  0  0  0
  5  6  1  0  0  0
  5 26  1  0  0  0
  5 94  1  0  0  0
  6 25  1  0  0  0
  6 95  1  0  0  0
  6 96  1  0  0  0
  7  8  2  0  0  0
  7 26  1  0  0  0
  7 29  1  0  0  0
  8  9  1  0  0  0
  8 22  1  0  0  0
  9 10  1  0  0  0
  9 27  2  0  0  0
 10 11  2  0  0  0
 10 15  1  0  0  0
 11 12  1  0  0  0
 11 97  1  0  0  0
 12 13  2  0  0  0
 12 98  1  0  0  0
 13 14  1  0  0  0
 13 31  1  0  0  0
 14 15  2  0  0  0
 14 99  1  0  0  0
 15100  1  0  0  0
 16 17  2  0  0  0
 16 21  1  0  0  0
 16 31  1  0  0  0
 17 18  1  0  0  0
 17101  1  0  0  0
 18 19  2  0  0  0
 18102  1  0  0  0
 19 20  1  0  0  0
 19 24  1  0  0  0
 20 21  2  0  0  0
 20103  1  0  0  0
 21 23  1  0  0  0
 22 28  1  0  0  0
 22 32  2  0  0  0
 26 27  1  0  0  0
 28104  1  0  0  0
 28105  1  0  0  0
 29106  1  0  0  0
 29107  1  0  0  0
 33 34  1  0  0  0
 33 66  1  0  0  0
 33 70  2  0  0  0
 34 36  1  0  0  0
 34 59  1  0  0  0
 34108  1  0  0  0
 35 44  2  0  0  0
 35 45  1  0  0  0
 35 68  1  0  0  0
 36 56  1  0  0  0
 36109  1  0  0  0
 37 39  1  0  0  0
 37 47  1  0  0  0
 37 66  1  0  0  0
 37110  1  0  0  0
 38 43  2  0  0  0
 38 46  1  0  0  0
 38 47  1  0  0  0
 39 64  1  0  0  0
 39 67  2  0  0  0
 40 52  1  0  0  0
 40 53  2  0  0  0
 40 58  1  0  0  0
 41111  1  0  0  0
 41112  1  0  0  0
 41113  1  0  0  0
 41 48  1  0  0  0
 42 43  1  0  0  0
 42 66  1  0  0  0
 42114  1  0  0  0
 42115  1  0  0  0
 43 44  1  0  0  0
 44116  1  0  0  0
 45 46  2  0  0  0
 45117  1  0  0  0
 46118  1  0  0  0
 47119  1  0  0  0
 47120  1  0  0  0
 48 56  1  0  0  0
 48 65  1  0  0  0
 48121  1  0  0  0
 49 50  1  0  0  0
 49 53  1  0  0  0
 49 64  1  0  0  0
 49122  1  0  0  0
 50 51  1  0  0  0
 50123  1  0  0  0
 50124  1  0  0  0
 51 52  1  0  0  0
 51125  1  0  0  0
 51126  1  0  0  0
 52127  1  0  0  0
 52128  1  0  0  0
 53 54  1  0  0  0
 54 55  2  0  0  0
 54129  1  0  0  0
 55 57  1  0  0  0
 55130  1  0  0  0
 56 69  2  0  0  0
 57 58  2  0  0  0
 57131  1  0  0  0
 58132  1  0  0  0
 59 60  1  0  0  0
 59 61  1  0  0  0
 59 62  1  0  0  0
 60133  1  0  0  0
 60134  1  0  0  0
 60135  1  0  0  0
 61136  1  0  0  0
 61137  1  0  0  0
 61138  1  0  0  0
 62139  1  0  0  0
 62140  1  0  0  0
 62141  1  0  0  0
 63 65  1  0  0  0
 63142  1  0  0  0
 63143  1  0  0  0
 63144  1  0  0  0
 64145  1  0  0  0
 65146  1  0  0  0
 68 82  1  0  0  0
 71 73  2  0  0  0
 71 74  1  0  0  0
 71147  1  0  0  0
 72 73  1  0  0  0
 72 75  2  0  0  0
 72148  1  0  0  0
 73 80  1  0  0  0
 74 85  2  0  0  0
 74 79  1  0  0  0
 75 85  1  0  0  0
 75 87  1  0  0  0
 76 77  1  0  0  0
 76 79  1  0  0  0
 76149  1  0  0  0
 76150  1  0  0  0
 77 86  1  0  0  0
 77151  1  0  0  0
 77152  1  0  0  0
 78 79  1  0  0  0
 78 86  1  0  0  0
 78153  1  0  0  0
 78154  1  0  0  0
 79155  1  0  0  0
 80156  1  0  0  0
 80157  1  0  0  0
 80158  1  0  0  0
 81159  1  0  0  0
 81160  1  0  0  0
 81161  1  0  0  0
 81 84  1  0  0  0
 82 84  1  0  0  0
 82162  1  0  0  0
 82163  1  0  0  0
 83 84  1  0  0  0
 83 87  1  0  0  0
 83164  1  0  0  0
 83165  1  0  0  0
 84166  1  0  0  0
M  ISO  4   1 100  68 101  82 101  86 100
M  END
> <chiral flag>
0

> <version>
0

> <s_m_source_file>
/data/baiqing/PycharmProjects/Reinvent-master-3.2/result/LINK_invent/BTK/process_docking_weight1_custom_sum_contain_oxygen_bond_distance_aromatic_linkinvent_7_9_3/rearranged_h_0146.sdf

> <i_m_source_file_index>
91

> <r_mmod_Potential_Energy-OPLS-2005>
27.2708110809326

> <r_mmod_Stretch_Energy-OPLS-2005>
42.9113807678223

> <r_mmod_Bend_Energy-OPLS-2005>
156.735290527344

> <r_mmod_Torsional_Energy-OPLS-2005>
313.784027099609

> <r_mmod_Improper_Torsional_Energy-OPLS-2005>
4.70513582229614

> <r_mmod_Van_der_Waal_Energy-OPLS-2005>
159.633453369141

> <r_mmod_Electrostatic_Energy-OPLS-2005>
-459.261566162109

> <r_mmod_Solvation_Energy-OPLS-2005>
-207.605041503906

> <b_mmod_Minimization_Converged-OPLS-2005>
0

> <r_mmod_RMS_Derivative-OPLS-2005>
2.06118679046631

$$$$
92
                    3D
 Structure written by MMmdl.
160169  0  0  1  0            999 V2000
  -30.5328  -14.8797   20.4261 C   0  0  0  0  0  0
  -30.4552  -12.5411   19.4836 C   0  0  0  0  0  0
  -29.5254  -12.5315   18.2465 C   0  0  0  0  0  0
  -28.0586  -12.3144   18.6677 C   0  0  0  0  0  0
  -27.6432  -13.2308   19.8471 C   0  0  2  0  0  0
  -28.6886  -13.2052   20.9845 C   0  0  0  0  0  0
  -25.2547  -13.8188   20.5729 C   0  0  0  0  0  0
  -24.1811  -13.0461   20.9219 C   0  0  0  0  0  0
  -24.6383  -11.6928   20.8752 C   0  0  0  0  0  0
  -23.9046  -10.4309   21.0430 C   0  0  0  0  0  0
  -24.3592   -9.4220   21.9205 C   0  0  0  0  0  0
  -23.6270   -8.2257   22.0768 C   0  0  0  0  0  0
  -22.4248   -8.0297   21.3565 C   0  0  0  0  0  0
  -21.9882   -9.0284   20.4694 C   0  0  0  0  0  0
  -22.7208  -10.2162   20.3093 C   0  0  0  0  0  0
  -21.6864   -6.0736   22.5273 C   0  0  0  0  0  0
  -21.4042   -6.5630   23.8208 C   0  0  0  0  0  0
  -21.3647   -5.6772   24.9160 C   0  0  0  0  0  0
  -21.6027   -4.3036   24.7213 C   0  0  0  0  0  0
  -21.8814   -3.8141   23.4330 C   0  0  0  0  0  0
  -21.9207   -4.6968   22.3395 C   0  0  0  0  0  0
  -22.7824  -13.5294   21.1842 C   0  0  0  0  0  0
  -22.1663   -4.2153   21.0973 F   0  0  0  0  0  0
  -21.5618   -3.4519   25.7723 F   0  0  0  0  0  0
  -29.9751  -13.6087   20.3992 N   0  0  0  0  0  0
  -26.2948  -12.9380   20.3254 N   0  0  0  0  0  0
  -25.9312  -11.6528   20.5704 N   0  0  0  0  0  0
  -22.0426  -12.8347   22.0412 N   0  0  0  0  0  0
  -25.4293  -15.1911   20.4183 N   0  0  0  0  0  0
  -31.7178  -15.0091   20.1043 O   0  0  0  0  0  0
  -21.6631   -6.8883   21.4238 O   0  0  0  0  0  0
  -22.3531  -14.5587   20.6650 O   0  0  0  0  0  0
  -24.6432  -31.8432   23.1866 C   0  0  0  0  0  0
  -25.9217  -32.4672   23.8253 C   0  0  1  0  0  0
  -27.2247  -27.1478   20.1675 C   0  0  0  0  0  0
  -25.5969  -33.8476   24.2179 N   0  0  0  0  0  0
  -23.4454  -30.4648   21.5284 C   0  0  2  0  0  0
  -24.8982  -28.8881   20.1108 C   0  0  0  0  0  0
  -22.7550  -29.4576   22.4819 C   0  0  0  0  0  0
  -18.0315  -28.1416   22.8440 C   0  0  0  0  0  0
  -24.1495  -36.7252   23.2636 C   0  0  0  0  0  0
  -25.9999  -30.7233   21.3828 C   0  0  0  0  0  0
  -26.0726  -29.3337   20.7301 C   0  0  0  0  0  0
  -27.2374  -28.4812   20.7382 C   0  0  0  0  0  0
  -26.0279  -26.7981   19.5039 C   0  0  0  0  0  0
  -24.8884  -27.6337   19.4809 C   0  0  0  0  0  0
  -23.6723  -29.7883   20.1489 C   0  0  0  0  0  0
  -25.4111  -36.3008   24.0319 C   0  0  1  0  0  0
  -20.5921  -28.3748   23.1205 C   0  0  2  0  0  0
  -20.6800  -26.9437   22.5415 C   0  0  0  0  0  0
  -19.5795  -26.6386   21.5201 C   0  0  0  0  0  0
  -18.1959  -26.7960   22.1578 C   0  0  0  0  0  0
  -19.1571  -28.8893   23.2822 C   0  0  0  0  0  0
  -18.9494  -30.1483   23.8859 C   0  0  0  0  0  0
  -17.6492  -30.6599   24.0560 C   0  0  0  0  0  0
  -25.9069  -34.9391   23.5053 C   0  0  0  0  0  0
  -16.5381  -29.9092   23.6345 C   0  0  0  0  0  0
  -16.7302  -28.6527   23.0333 C   0  0  0  0  0  0
  -26.4540  -31.6528   25.0688 C   0  0  0  0  0  0
  -25.3742  -31.3774   26.1409 C   0  0  0  0  0  0
  -27.0374  -30.2898   24.6294 C   0  0  0  0  0  0
  -27.6105  -32.4277   25.7446 C   0  0  0  0  0  0
  -27.5598  -37.1733   24.8430 C   0  0  0  0  0  0
  -21.4248  -29.3063   22.3552 N   0  0  0  0  0  0
  -26.4262  -37.3737   23.9445 N   0  0  0  0  0  0
  -24.7155  -31.0312   22.0878 N   0  0  0  0  0  0
  -23.4194  -28.8133   23.2979 O   0  0  0  0  0  0
  -28.3020  -26.1926   20.1998 O   0  0  0  0  0  0
  -26.5644  -34.8903   22.4619 O   0  0  0  0  0  0
  -23.5558  -32.1307   23.7098 O   0  0  0  0  0  0
  -29.9986  -19.8275   19.6384 C   0  0  0  0  0  0
  -28.7751  -19.6545   21.6426 C   0  0  0  0  0  0
  -29.2872  -20.5595   20.6560 C   0  0  0  0  0  0
  -30.1728  -18.3740   19.6082 C   0  0  0  0  0  0
  -28.9416  -18.2163   21.6351 C   0  0  0  0  0  0
  -29.6694  -17.4905   20.6318 C   0  0  0  0  0  0
  -28.4403  -22.7411   22.0653 C   0  0  0  0  0  0
  -28.3603  -24.3023   21.9564 C   0  0  0  0  0  0
  -28.8150  -23.3783   19.7790 C   0  0  0  0  0  0
  -29.2254  -22.2052   20.8432 C   0  0  2  0  0  0
  -28.0851  -24.6788   20.4838 C   0  0  2  0  0  0
  -30.8872  -17.7692   18.4117 C   0  0  0  0  0  0
  -28.3070  -17.4272   22.7684 C   0  0  0  0  0  0
  -29.6679  -15.9663   20.6670 N   0  0  0  0  0  0
  -31.4920  -12.6976   19.1804 H   0  0  0  0  0  0
  -30.4389  -11.5736   19.9882 H   0  0  0  0  0  0
  -29.8341  -11.7564   17.5450 H   0  0  0  0  0  0
  -29.6149  -13.4820   17.7138 H   0  0  0  0  0  0
  -27.9492  -11.2691   18.9604 H   0  0  0  0  0  0
  -27.3915  -12.4636   17.8183 H   0  0  0  0  0  0
  -27.6246  -14.2416   19.4369 H   0  0  0  0  0  0
  -28.7620  -12.2099   21.4259 H   0  0  0  0  0  0
  -28.3971  -13.8755   21.7964 H   0  0  0  0  0  0
  -25.2750   -9.5696   22.4765 H   0  0  0  0  0  0
  -24.0008   -7.4633   22.7453 H   0  0  0  0  0  0
  -21.0819   -8.8807   19.8995 H   0  0  0  0  0  0
  -22.3672  -10.9705   19.6199 H   0  0  0  0  0  0
  -21.2047   -7.6137   23.9714 H   0  0  0  0  0  0
  -21.1462   -6.0499   25.9058 H   0  0  0  0  0  0
  -22.0610   -2.7614   23.2817 H   0  0  0  0  0  0
  -22.3996  -12.0036   22.4887 H   0  0  0  0  0  0
  -21.1070  -13.1468   22.2599 H   0  0  0  0  0  0
  -24.6654  -15.8472   20.5340 H   0  0  0  0  0  0
  -26.2699  -15.6242   20.0591 H   0  0  0  0  0  0
  -26.7277  -32.5281   23.0976 H   0  0  0  0  0  0
  -25.0095  -33.9576   25.0318 H   0  0  0  0  0  0
  -22.7493  -31.2911   21.3701 H   0  0  0  0  0  0
  -23.3776  -35.9556   23.3190 H   0  0  0  0  0  0
  -24.3619  -36.8996   22.2076 H   0  0  0  0  0  0
  -23.7223  -37.6406   23.6738 H   0  0  0  0  0  0
  -26.1522  -31.4754   20.6066 H   0  0  0  0  0  0
  -26.8709  -30.7742   22.0245 H   0  0  0  0  0  0
  -28.1356  -28.8220   21.2345 H   0  0  0  0  0  0
  -25.9550  -25.8450   19.0002 H   0  0  0  0  0  0
  -23.9955  -27.2919   18.9780 H   0  0  0  0  0  0
  -23.8067  -30.5583   19.3888 H   0  0  0  0  0  0
  -22.7883  -29.2272   19.8414 H   0  0  0  0  0  0
  -25.1282  -36.1800   25.0805 H   0  0  0  0  0  0
  -21.0032  -28.3389   24.1318 H   0  0  0  0  0  0
  -20.5671  -26.2370   23.3653 H   0  0  0  0  0  0
  -21.6676  -26.7435   22.1244 H   0  0  0  0  0  0
  -19.6960  -25.6281   21.1275 H   0  0  0  0  0  0
  -19.6761  -27.3163   20.6703 H   0  0  0  0  0  0
  -17.4245  -26.6720   21.3958 H   0  0  0  0  0  0
  -18.0327  -26.0113   22.8975 H   0  0  0  0  0  0
  -19.7976  -30.7297   24.2218 H   0  0  0  0  0  0
  -17.5058  -31.6275   24.5176 H   0  0  0  0  0  0
  -15.5381  -30.2979   23.7703 H   0  0  0  0  0  0
  -15.8708  -28.0847   22.7035 H   0  0  0  0  0  0
  -24.5906  -30.7109   25.7773 H   0  0  0  0  0  0
  -24.8940  -32.2981   26.4732 H   0  0  0  0  0  0
  -25.8037  -30.9036   27.0243 H   0  0  0  0  0  0
  -26.2967  -29.6605   24.1337 H   0  0  0  0  0  0
  -27.3980  -29.7218   25.4880 H   0  0  0  0  0  0
  -27.8894  -30.4068   23.9596 H   0  0  0  0  0  0
  -27.2701  -33.3543   26.2072 H   0  0  0  0  0  0
  -28.3873  -32.6886   25.0248 H   0  0  0  0  0  0
  -28.0831  -31.8379   26.5308 H   0  0  0  0  0  0
  -28.2517  -38.0123   24.7580 H   0  0  0  0  0  0
  -28.1179  -36.2656   24.6066 H   0  0  0  0  0  0
  -27.2364  -37.1188   25.8842 H   0  0  0  0  0  0
  -20.9451  -29.8724   21.6690 H   0  0  0  0  0  0
  -26.0113  -38.2778   24.1529 H   0  0  0  0  0  0
  -30.4477  -20.4057   18.8424 H   0  0  0  0  0  0
  -28.2380  -20.0779   22.4798 H   0  0  0  0  0  0
  -27.4293  -22.3323   22.0530 H   0  0  0  0  0  0
  -28.8986  -22.4383   23.0085 H   0  0  0  0  0  0
  -29.3145  -24.7284   22.2657 H   0  0  0  0  0  0
  -27.6030  -24.7101   22.6275 H   0  0  0  0  0  0
  -28.1356  -22.9629   19.0344 H   0  0  0  0  0  0
  -29.7066  -23.6887   19.2305 H   0  0  0  0  0  0
  -30.2683  -22.4259   21.0768 H   0  0  0  0  0  0
  -27.0215  -24.4892   20.3479 H   0  0  0  0  0  0
  -30.9702  -18.4817   17.5907 H   0  0  0  0  0  0
  -30.3475  -16.9003   18.0338 H   0  0  0  0  0  0
  -31.8938  -17.4534   18.6839 H   0  0  0  0  0  0
  -27.9239  -18.0802   23.5532 H   0  0  0  0  0  0
  -29.0388  -16.7600   23.2255 H   0  0  0  0  0  0
  -27.4789  -16.8229   22.3954 H   0  0  0  0  0  0
  -28.7884  -15.6061   21.0002 H   0  0  0  0  0  0
  1 25  1  0  0  0
  1 30  2  0  0  0
  1 84  1  0  0  0
  2  3  1  0  0  0
  2 25  1  0  0  0
  2 85  1  0  0  0
  2 86  1  0  0  0
  3  4  1  0  0  0
  3 87  1  0  0  0
  3 88  1  0  0  0
  4  5  1  0  0  0
  4 89  1  0  0  0
  4 90  1  0  0  0
  5  6  1  0  0  0
  5 26  1  0  0  0
  5 91  1  0  0  0
  6 25  1  0  0  0
  6 92  1  0  0  0
  6 93  1  0  0  0
  7  8  2  0  0  0
  7 26  1  0  0  0
  7 29  1  0  0  0
  8  9  1  0  0  0
  8 22  1  0  0  0
  9 10  1  0  0  0
  9 27  2  0  0  0
 10 11  2  0  0  0
 10 15  1  0  0  0
 11 12  1  0  0  0
 11 94  1  0  0  0
 12 13  2  0  0  0
 12 95  1  0  0  0
 13 14  1  0  0  0
 13 31  1  0  0  0
 14 15  2  0  0  0
 14 96  1  0  0  0
 15 97  1  0  0  0
 16 17  2  0  0  0
 16 21  1  0  0  0
 16 31  1  0  0  0
 17 18  1  0  0  0
 17 98  1  0  0  0
 18 19  2  0  0  0
 18 99  1  0  0  0
 19 20  1  0  0  0
 19 24  1  0  0  0
 20 21  2  0  0  0
 20100  1  0  0  0
 21 23  1  0  0  0
 22 28  1  0  0  0
 22 32  2  0  0  0
 26 27  1  0  0  0
 28101  1  0  0  0
 28102  1  0  0  0
 29103  1  0  0  0
 29104  1  0  0  0
 33 34  1  0  0  0
 33 66  1  0  0  0
 33 70  2  0  0  0
 34 36  1  0  0  0
 34 59  1  0  0  0
 34105  1  0  0  0
 35 44  2  0  0  0
 35 45  1  0  0  0
 35 68  1  0  0  0
 36 56  1  0  0  0
 36106  1  0  0  0
 37 39  1  0  0  0
 37 47  1  0  0  0
 37 66  1  0  0  0
 37107  1  0  0  0
 38 43  2  0  0  0
 38 46  1  0  0  0
 38 47  1  0  0  0
 39 64  1  0  0  0
 39 67  2  0  0  0
 40 52  1  0  0  0
 40 53  2  0  0  0
 40 58  1  0  0  0
 41108  1  0  0  0
 41109  1  0  0  0
 41110  1  0  0  0
 41 48  1  0  0  0
 42 43  1  0  0  0
 42 66  1  0  0  0
 42111  1  0  0  0
 42112  1  0  0  0
 43 44  1  0  0  0
 44113  1  0  0  0
 45 46  2  0  0  0
 45114  1  0  0  0
 46115  1  0  0  0
 47116  1  0  0  0
 47117  1  0  0  0
 48 56  1  0  0  0
 48 65  1  0  0  0
 48118  1  0  0  0
 49 50  1  0  0  0
 49 53  1  0  0  0
 49 64  1  0  0  0
 49119  1  0  0  0
 50 51  1  0  0  0
 50120  1  0  0  0
 50121  1  0  0  0
 51 52  1  0  0  0
 51122  1  0  0  0
 51123  1  0  0  0
 52124  1  0  0  0
 52125  1  0  0  0
 53 54  1  0  0  0
 54 55  2  0  0  0
 54126  1  0  0  0
 55 57  1  0  0  0
 55127  1  0  0  0
 56 69  2  0  0  0
 57 58  2  0  0  0
 57128  1  0  0  0
 58129  1  0  0  0
 59 60  1  0  0  0
 59 61  1  0  0  0
 59 62  1  0  0  0
 60130  1  0  0  0
 60131  1  0  0  0
 60132  1  0  0  0
 61133  1  0  0  0
 61134  1  0  0  0
 61135  1  0  0  0
 62136  1  0  0  0
 62137  1  0  0  0
 62138  1  0  0  0
 63 65  1  0  0  0
 63139  1  0  0  0
 63140  1  0  0  0
 63141  1  0  0  0
 64142  1  0  0  0
 65143  1  0  0  0
 68 81  1  0  0  0
 71 73  2  0  0  0
 71 74  1  0  0  0
 71144  1  0  0  0
 72 73  1  0  0  0
 72 75  2  0  0  0
 72145  1  0  0  0
 73 80  1  0  0  0
 74 76  2  0  0  0
 74 82  1  0  0  0
 75 76  1  0  0  0
 75 83  1  0  0  0
 76 84  1  0  0  0
 77 78  1  0  0  0
 77 80  1  0  0  0
 77146  1  0  0  0
 77147  1  0  0  0
 78 81  1  0  0  0
 78148  1  0  0  0
 78149  1  0  0  0
 79 80  1  0  0  0
 79 81  1  0  0  0
 79150  1  0  0  0
 79151  1  0  0  0
 80152  1  0  0  0
 81153  1  0  0  0
 82154  1  0  0  0
 82155  1  0  0  0
 82156  1  0  0  0
 83157  1  0  0  0
 83158  1  0  0  0
 83159  1  0  0  0
 84160  1  0  0  0
M  ISO  4   1 100  68 101  81 101  84 100
M  END
> <chiral flag>
0

> <version>
0

> <s_m_source_file>
/data/baiqing/PycharmProjects/Reinvent-master-3.2/result/LINK_invent/BTK/process_docking_weight1_custom_sum_contain_oxygen_bond_distance_aromatic_linkinvent_7_9_3/rearranged_h_0146.sdf

> <i_m_source_file_index>
92

> <r_mmod_Potential_Energy-OPLS-2005>
444.368591308594

> <r_mmod_Stretch_Energy-OPLS-2005>
204.391525268555

> <r_mmod_Bend_Energy-OPLS-2005>
284.944122314453

> <r_mmod_Torsional_Energy-OPLS-2005>
281.056274414062

> <r_mmod_Improper_Torsional_Energy-OPLS-2005>
5.36467981338501

> <r_mmod_Van_der_Waal_Energy-OPLS-2005>
124.940635681152

> <r_mmod_Electrostatic_Energy-OPLS-2005>
-418.939361572266

> <r_mmod_Solvation_Energy-OPLS-2005>
-198.435775756836

> <b_mmod_Minimization_Converged-OPLS-2005>
0

> <r_mmod_RMS_Derivative-OPLS-2005>
3.24122762680054

$$$$
93
                    3D
 Structure written by MMmdl.
164173  0  0  1  0            999 V2000
  -30.6958  -14.6319   20.4844 C   0  0  0  0  0  0
  -30.4218  -12.3888   19.4591 C   0  0  0  0  0  0
  -29.5018  -12.4921   18.2252 C   0  0  0  0  0  0
  -28.0268  -12.3395   18.6410 C   0  0  0  0  0  0
  -27.6486  -13.2299   19.8556 C   0  0  2  0  0  0
  -28.6978  -13.1398   20.9881 C   0  0  0  0  0  0
  -25.2546  -13.8199   20.5703 C   0  0  0  0  0  0
  -24.1827  -13.0441   20.9195 C   0  0  0  0  0  0
  -24.6419  -11.6917   20.8739 C   0  0  0  0  0  0
  -23.9092  -10.4291   21.0405 C   0  0  0  0  0  0
  -24.3640   -9.4208   21.9185 C   0  0  0  0  0  0
  -23.6308   -8.2247   22.0754 C   0  0  0  0  0  0
  -22.4289   -8.0287   21.3553 C   0  0  0  0  0  0
  -21.9937   -9.0252   20.4642 C   0  0  0  0  0  0
  -22.7272  -10.2130   20.3045 C   0  0  0  0  0  0
  -21.6855   -6.0739   22.5275 C   0  0  0  0  0  0
  -21.4017   -6.5643   23.8205 C   0  0  0  0  0  0
  -21.3662   -5.6796   24.9168 C   0  0  0  0  0  0
  -21.6044   -4.3052   24.7218 C   0  0  0  0  0  0
  -21.8823   -3.8148   23.4336 C   0  0  0  0  0  0
  -21.9197   -4.6969   22.3399 C   0  0  0  0  0  0
  -22.7848  -13.5217   21.1865 C   0  0  0  0  0  0
  -22.1663   -4.2154   21.0981 F   0  0  0  0  0  0
  -21.5632   -3.4532   25.7737 F   0  0  0  0  0  0
  -30.0108  -13.4475   20.4047 N   0  0  0  0  0  0
  -26.2984  -12.9406   20.3324 N   0  0  0  0  0  0
  -25.9355  -11.6544   20.5779 N   0  0  0  0  0  0
  -22.0514  -12.8162   22.0399 N   0  0  0  0  0  0
  -25.4244  -15.1927   20.4134 N   0  0  0  0  0  0
  -31.8737  -14.7101   20.1353 O   0  0  0  0  0  0
  -21.6648   -6.8891   21.4244 O   0  0  0  0  0  0
  -22.3523  -14.5540   20.6754 O   0  0  0  0  0  0
  -24.6260  -31.8628   23.2088 C   0  0  0  0  0  0
  -25.9110  -32.4805   23.8398 C   0  0  1  0  0  0
  -27.2102  -27.3099   20.0897 C   0  0  0  0  0  0
  -25.5952  -33.8613   24.2328 N   0  0  0  0  0  0
  -23.4210  -30.4927   21.5512 C   0  0  2  0  0  0
  -24.8629  -28.9617   20.1095 C   0  0  0  0  0  0
  -22.7496  -29.4648   22.4941 C   0  0  0  0  0  0
  -18.0288  -28.1409   22.8509 C   0  0  0  0  0  0
  -24.1472  -36.7262   23.2648 C   0  0  0  0  0  0
  -25.9668  -30.7858   21.3874 C   0  0  0  0  0  0
  -26.0340  -29.4138   20.7282 C   0  0  0  0  0  0
  -27.2049  -28.5945   20.7252 C   0  0  0  0  0  0
  -26.0169  -26.9524   19.4054 C   0  0  0  0  0  0
  -24.8565  -27.7362   19.4432 C   0  0  0  0  0  0
  -23.6353  -29.8429   20.1621 C   0  0  0  0  0  0
  -25.4111  -36.3098   24.0347 C   0  0  1  0  0  0
  -20.5892  -28.3704   23.1284 C   0  0  2  0  0  0
  -20.6777  -26.9425   22.5411 C   0  0  0  0  0  0
  -19.5742  -26.6405   21.5227 C   0  0  0  0  0  0
  -18.1926  -26.7966   22.1621 C   0  0  0  0  0  0
  -19.1542  -28.8883   23.2890 C   0  0  0  0  0  0
  -18.9466  -30.1492   23.8890 C   0  0  0  0  0  0
  -17.6463  -30.6605   24.0596 C   0  0  0  0  0  0
  -25.9048  -34.9465   23.5121 C   0  0  0  0  0  0
  -16.5356  -29.9115   23.6354 C   0  0  0  0  0  0
  -16.7271  -28.6539   23.0359 C   0  0  0  0  0  0
  -26.4487  -31.6611   25.0757 C   0  0  0  0  0  0
  -25.3735  -31.3731   26.1495 C   0  0  0  0  0  0
  -27.0336  -30.3056   24.6183 C   0  0  0  0  0  0
  -27.6035  -32.4359   25.7532 C   0  0  0  0  0  0
  -27.5561  -37.1803   24.8483 C   0  0  0  0  0  0
  -21.4207  -29.3056   22.3683 N   0  0  0  0  0  0
  -26.4276  -37.3800   23.9433 N   0  0  0  0  0  0
  -24.6896  -31.0645   22.1041 N   0  0  0  0  0  0
  -23.4237  -28.8169   23.2983 O   0  0  0  0  0  0
  -28.3077  -26.4215   20.1677 O   0  0  0  0  0  0
  -26.5578  -34.8926   22.4668 O   0  0  0  0  0  0
  -23.5416  -32.1415   23.7407 O   0  0  0  0  0  0
  -28.0030  -22.7853   20.6840 C   0  0  0  0  0  0
  -30.5834  -22.0041   20.0704 C   0  0  0  0  0  0
  -28.8390  -23.7655   20.0839 C   0  0  0  0  0  0
  -28.4140  -21.4397   20.9464 C   0  0  0  0  0  0
  -30.1641  -23.3454   19.8028 C   0  0  0  0  0  0
  -29.7283  -20.9958   20.5986 C   0  0  0  0  0  0
  -26.8200  -19.9418   24.1661 C   0  0  0  0  0  0
  -27.8419  -18.9293   23.7283 C   0  0  0  0  0  0
  -27.8407  -20.3130   23.1131 C   0  0  0  0  0  0
  -31.1377  -24.3080   19.1494 C   0  0  0  0  0  0
  -27.4105  -20.5551   21.6738 C   0  0  0  0  0  0
  -28.1987  -25.0901   19.5168 C   0  0  0  0  0  0
  -30.5928  -17.1712   20.7817 C   0  0  0  0  0  0
  -29.6264  -18.4271   20.6343 C   0  0  0  0  0  0
  -30.0051  -15.7796   20.7647 N   0  0  0  0  0  0
  -30.3042  -19.7186   20.8076 O   0  0  0  0  0  0
  -31.4658  -12.4773   19.1565 H   0  0  0  0  0  0
  -30.3299  -11.4080   19.9280 H   0  0  0  0  0  0
  -29.7633  -11.7268   17.4931 H   0  0  0  0  0  0
  -29.6482  -13.4530   17.7303 H   0  0  0  0  0  0
  -27.8650  -11.2893   18.8870 H   0  0  0  0  0  0
  -27.3705  -12.5556   17.7971 H   0  0  0  0  0  0
  -27.6529  -14.2574   19.4901 H   0  0  0  0  0  0
  -28.7086  -12.1434   21.4337 H   0  0  0  0  0  0
  -28.4537  -13.8323   21.7963 H   0  0  0  0  0  0
  -25.2792   -9.5679   22.4753 H   0  0  0  0  0  0
  -24.0010   -7.4645   22.7475 H   0  0  0  0  0  0
  -21.0872   -8.8773   19.8939 H   0  0  0  0  0  0
  -22.3744  -10.9662   19.6134 H   0  0  0  0  0  0
  -21.2000   -7.6146   23.9720 H   0  0  0  0  0  0
  -21.1478   -6.0519   25.9087 H   0  0  0  0  0  0
  -22.0596   -2.7604   23.2834 H   0  0  0  0  0  0
  -22.4149  -11.9767   22.4670 H   0  0  0  0  0  0
  -21.1150  -13.1164   22.2694 H   0  0  0  0  0  0
  -24.6576  -15.8460   20.5343 H   0  0  0  0  0  0
  -26.2755  -15.6349   20.0906 H   0  0  0  0  0  0
  -26.7180  -32.5454   23.1142 H   0  0  0  0  0  0
  -25.0234  -33.9802   25.0564 H   0  0  0  0  0  0
  -22.7140  -31.3136   21.4143 H   0  0  0  0  0  0
  -23.3751  -35.9569   23.3322 H   0  0  0  0  0  0
  -24.3572  -36.8853   22.2058 H   0  0  0  0  0  0
  -23.7180  -37.6462   23.6635 H   0  0  0  0  0  0
  -26.1053  -31.5504   20.6220 H   0  0  0  0  0  0
  -26.8476  -30.8314   22.0152 H   0  0  0  0  0  0
  -28.0954  -28.9312   21.2389 H   0  0  0  0  0  0
  -25.8985  -26.0671   18.8052 H   0  0  0  0  0  0
  -23.9692  -27.3957   18.9287 H   0  0  0  0  0  0
  -23.7561  -30.6255   19.4117 H   0  0  0  0  0  0
  -22.7542  -29.2779   19.8525 H   0  0  0  0  0  0
  -25.1267  -36.1958   25.0833 H   0  0  0  0  0  0
  -20.9987  -28.3257   24.1400 H   0  0  0  0  0  0
  -20.5712  -26.2304   23.3611 H   0  0  0  0  0  0
  -21.6638  -26.7479   22.1177 H   0  0  0  0  0  0
  -19.6903  -25.6325   21.1241 H   0  0  0  0  0  0
  -19.6678  -27.3238   20.6782 H   0  0  0  0  0  0
  -17.4204  -26.6766   21.4004 H   0  0  0  0  0  0
  -18.0264  -26.0105   22.8996 H   0  0  0  0  0  0
  -19.7947  -30.7337   24.2204 H   0  0  0  0  0  0
  -17.5022  -31.6271   24.5220 H   0  0  0  0  0  0
  -15.5360  -30.3018   23.7695 H   0  0  0  0  0  0
  -15.8669  -28.0880   22.7035 H   0  0  0  0  0  0
  -24.6017  -30.6923   25.7885 H   0  0  0  0  0  0
  -24.8790  -32.2864   26.4793 H   0  0  0  0  0  0
  -25.8123  -30.9088   27.0338 H   0  0  0  0  0  0
  -26.2898  -29.6844   24.1178 H   0  0  0  0  0  0
  -27.4035  -29.7260   25.4651 H   0  0  0  0  0  0
  -27.8775  -30.4379   23.9412 H   0  0  0  0  0  0
  -27.2652  -33.3728   26.1964 H   0  0  0  0  0  0
  -28.3923  -32.6805   25.0403 H   0  0  0  0  0  0
  -28.0595  -31.8562   26.5566 H   0  0  0  0  0  0
  -28.2589  -38.0090   24.7523 H   0  0  0  0  0  0
  -28.1030  -36.2619   24.6299 H   0  0  0  0  0  0
  -27.2277  -37.1432   25.8886 H   0  0  0  0  0  0
  -20.9363  -29.8831   21.6955 H   0  0  0  0  0  0
  -26.0138  -38.2862   24.1468 H   0  0  0  0  0  0
  -26.9841  -23.0638   20.9138 H   0  0  0  0  0  0
  -31.6017  -21.7273   19.8325 H   0  0  0  0  0  0
  -26.9428  -20.3753   25.1576 H   0  0  0  0  0  0
  -25.7923  -19.7739   23.8508 H   0  0  0  0  0  0
  -27.4709  -18.0925   23.1405 H   0  0  0  0  0  0
  -28.6517  -18.6943   24.4152 H   0  0  0  0  0  0
  -28.5961  -21.0137   23.4671 H   0  0  0  0  0  0
  -32.1585  -23.9254   19.1687 H   0  0  0  0  0  0
  -31.1305  -25.2705   19.6625 H   0  0  0  0  0  0
  -30.8597  -24.4720   18.1080 H   0  0  0  0  0  0
  -27.2290  -19.6248   21.1392 H   0  0  0  0  0  0
  -26.4392  -21.0507   21.6924 H   0  0  0  0  0  0
  -27.1709  -24.7621   19.4555 H   0  0  0  0  0  0
  -28.5209  -25.2130   18.4822 H   0  0  0  0  0  0
  -31.1227  -17.2655   21.7315 H   0  0  0  0  0  0
  -31.3646  -17.2495   20.0126 H   0  0  0  0  0  0
  -28.8598  -18.3013   21.3856 H   0  0  0  0  0  0
  -29.1360  -18.4129   19.6597 H   0  0  0  0  0  0
  -29.0236  -15.6853   20.9786 H   0  0  0  0  0  0
  1 25  1  0  0  0
  1 30  2  0  0  0
  1 85  1  0  0  0
  2  3  1  0  0  0
  2 25  1  0  0  0
  2 87  1  0  0  0
  2 88  1  0  0  0
  3  4  1  0  0  0
  3 89  1  0  0  0
  3 90  1  0  0  0
  4  5  1  0  0  0
  4 91  1  0  0  0
  4 92  1  0  0  0
  5  6  1  0  0  0
  5 26  1  0  0  0
  5 93  1  0  0  0
  6 25  1  0  0  0
  6 94  1  0  0  0
  6 95  1  0  0  0
  7  8  2  0  0  0
  7 26  1  0  0  0
  7 29  1  0  0  0
  8  9  1  0  0  0
  8 22  1  0  0  0
  9 10  1  0  0  0
  9 27  2  0  0  0
 10 11  2  0  0  0
 10 15  1  0  0  0
 11 12  1  0  0  0
 11 96  1  0  0  0
 12 13  2  0  0  0
 12 97  1  0  0  0
 13 14  1  0  0  0
 13 31  1  0  0  0
 14 15  2  0  0  0
 14 98  1  0  0  0
 15 99  1  0  0  0
 16 17  2  0  0  0
 16 21  1  0  0  0
 16 31  1  0  0  0
 17 18  1  0  0  0
 17100  1  0  0  0
 18 19  2  0  0  0
 18101  1  0  0  0
 19 20  1  0  0  0
 19 24  1  0  0  0
 20 21  2  0  0  0
 20102  1  0  0  0
 21 23  1  0  0  0
 22 28  1  0  0  0
 22 32  2  0  0  0
 26 27  1  0  0  0
 28103  1  0  0  0
 28104  1  0  0  0
 29105  1  0  0  0
 29106  1  0  0  0
 33 34  1  0  0  0
 33 66  1  0  0  0
 33 70  2  0  0  0
 34 36  1  0  0  0
 34 59  1  0  0  0
 34107  1  0  0  0
 35 44  2  0  0  0
 35 45  1  0  0  0
 35 68  1  0  0  0
 36 56  1  0  0  0
 36108  1  0  0  0
 37 39  1  0  0  0
 37 47  1  0  0  0
 37 66  1  0  0  0
 37109  1  0  0  0
 38 43  2  0  0  0
 38 46  1  0  0  0
 38 47  1  0  0  0
 39 64  1  0  0  0
 39 67  2  0  0  0
 40 52  1  0  0  0
 40 53  2  0  0  0
 40 58  1  0  0  0
 41110  1  0  0  0
 41111  1  0  0  0
 41112  1  0  0  0
 41 48  1  0  0  0
 42 43  1  0  0  0
 42 66  1  0  0  0
 42113  1  0  0  0
 42114  1  0  0  0
 43 44  1  0  0  0
 44115  1  0  0  0
 45 46  2  0  0  0
 45116  1  0  0  0
 46117  1  0  0  0
 47118  1  0  0  0
 47119  1  0  0  0
 48 56  1  0  0  0
 48 65  1  0  0  0
 48120  1  0  0  0
 49 50  1  0  0  0
 49 53  1  0  0  0
 49 64  1  0  0  0
 49121  1  0  0  0
 50 51  1  0  0  0
 50122  1  0  0  0
 50123  1  0  0  0
 51 52  1  0  0  0
 51124  1  0  0  0
 51125  1  0  0  0
 52126  1  0  0  0
 52127  1  0  0  0
 53 54  1  0  0  0
 54 55  2  0  0  0
 54128  1  0  0  0
 55 57  1  0  0  0
 55129  1  0  0  0
 56 69  2  0  0  0
 57 58  2  0  0  0
 57130  1  0  0  0
 58131  1  0  0  0
 59 60  1  0  0  0
 59 61  1  0  0  0
 59 62  1  0  0  0
 60132  1  0  0  0
 60133  1  0  0  0
 60134  1  0  0  0
 61135  1  0  0  0
 61136  1  0  0  0
 61137  1  0  0  0
 62138  1  0  0  0
 62139  1  0  0  0
 62140  1  0  0  0
 63 65  1  0  0  0
 63141  1  0  0  0
 63142  1  0  0  0
 63143  1  0  0  0
 64144  1  0  0  0
 65145  1  0  0  0
 68 82  1  0  0  0
 71 73  2  0  0  0
 71 74  1  0  0  0
 71146  1  0  0  0
 72 75  2  0  0  0
 72 76  1  0  0  0
 72147  1  0  0  0
 73 75  1  0  0  0
 73 82  1  0  0  0
 74 76  2  0  0  0
 74 81  1  0  0  0
 75 80  1  0  0  0
 76 86  1  0  0  0
 77 78  1  0  0  0
 77 79  1  0  0  0
 77148  1  0  0  0
 77149  1  0  0  0
 78 79  1  0  0  0
 78150  1  0  0  0
 78151  1  0  0  0
 79 81  1  0  0  0
 79152  1  0  0  0
 80153  1  0  0  0
 80154  1  0  0  0
 80155  1  0  0  0
 81156  1  0  0  0
 81157  1  0  0  0
 82158  1  0  0  0
 82159  1  0  0  0
 83 84  1  0  0  0
 83 85  1  0  0  0
 83160  1  0  0  0
 83161  1  0  0  0
 84 86  1  0  0  0
 84162  1  0  0  0
 84163  1  0  0  0
 85164  1  0  0  0
M  ISO  4   1 100  68 101  82 101  85 100
M  END
> <chiral flag>
0

> <version>
0

> <s_m_source_file>
/data/baiqing/PycharmProjects/Reinvent-master-3.2/result/LINK_invent/BTK/process_docking_weight1_custom_sum_contain_oxygen_bond_distance_aromatic_linkinvent_7_9_3/rearranged_h_0146.sdf

> <i_m_source_file_index>
93

> <r_mmod_Potential_Energy-OPLS-2005>
136.371185302734

> <r_mmod_Stretch_Energy-OPLS-2005>
84.286376953125

> <r_mmod_Bend_Energy-OPLS-2005>
171.251358032227

> <r_mmod_Torsional_Energy-OPLS-2005>
265.454925537109

> <r_mmod_Improper_Torsional_Energy-OPLS-2005>
6.37797260284424

> <r_mmod_Van_der_Waal_Energy-OPLS-2005>
156.748687744141

> <r_mmod_Electrostatic_Energy-OPLS-2005>
-394.01611328125

> <r_mmod_Solvation_Energy-OPLS-2005>
-210.973403930664

> <b_mmod_Minimization_Converged-OPLS-2005>
0

> <r_mmod_RMS_Derivative-OPLS-2005>
2.7955265045166

$$$$
94
                    3D
 Structure written by MMmdl.
169178  0  0  1  0            999 V2000
  -30.5418  -14.9642   20.4442 C   0  0  0  0  0  0
  -30.4539  -12.6140   19.4689 C   0  0  0  0  0  0
  -29.5139  -12.5221   18.2425 C   0  0  0  0  0  0
  -28.0565  -12.2638   18.6740 C   0  0  0  0  0  0
  -27.6349  -13.1836   19.8413 C   0  0  2  0  0  0
  -28.7002  -13.1795   20.9717 C   0  0  0  0  0  0
  -25.2412  -13.7997   20.5594 C   0  0  0  0  0  0
  -24.1738  -13.0297   20.9212 C   0  0  0  0  0  0
  -24.6335  -11.6795   20.8798 C   0  0  0  0  0  0
  -23.9022  -10.4213   21.0448 C   0  0  0  0  0  0
  -24.3585   -9.4147   21.9220 C   0  0  0  0  0  0
  -23.6265   -8.2187   22.0766 C   0  0  0  0  0  0
  -22.4254   -8.0239   21.3549 C   0  0  0  0  0  0
  -21.9883   -9.0213   20.4655 C   0  0  0  0  0  0
  -22.7211  -10.2089   20.3075 C   0  0  0  0  0  0
  -21.6834   -6.0721   22.5289 C   0  0  0  0  0  0
  -21.3997   -6.5626   23.8221 C   0  0  0  0  0  0
  -21.3655   -5.6779   24.9181 C   0  0  0  0  0  0
  -21.6047   -4.3041   24.7233 C   0  0  0  0  0  0
  -21.8817   -3.8138   23.4353 C   0  0  0  0  0  0
  -21.9185   -4.6950   22.3411 C   0  0  0  0  0  0
  -22.7778  -13.5138   21.1875 C   0  0  0  0  0  0
  -22.1651   -4.2138   21.0989 F   0  0  0  0  0  0
  -21.5643   -3.4530   25.7750 F   0  0  0  0  0  0
  -29.9447  -13.6923   20.3725 N   0  0  0  0  0  0
  -26.2873  -12.9152   20.3265 N   0  0  0  0  0  0
  -25.9255  -11.6353   20.5819 N   0  0  0  0  0  0
  -22.0418  -12.8175   22.0452 N   0  0  0  0  0  0
  -25.3791  -15.1710   20.3854 N   0  0  0  0  0  0
  -31.7476  -14.9987   20.1634 O   0  0  0  0  0  0
  -21.6607   -6.8852   21.4247 O   0  0  0  0  0  0
  -22.3493  -14.5463   20.6726 O   0  0  0  0  0  0
  -24.6387  -31.8474   23.1897 C   0  0  0  0  0  0
  -25.9173  -32.4714   23.8284 C   0  0  1  0  0  0
  -27.2395  -27.1967   20.1478 C   0  0  0  0  0  0
  -25.5938  -33.8519   24.2214 N   0  0  0  0  0  0
  -23.4410  -30.4654   21.5342 C   0  0  2  0  0  0
  -24.8924  -28.8913   20.1201 C   0  0  0  0  0  0
  -22.7543  -29.4566   22.4879 C   0  0  0  0  0  0
  -18.0300  -28.1385   22.8481 C   0  0  0  0  0  0
  -24.1491  -36.7265   23.2642 C   0  0  0  0  0  0
  -25.9913  -30.7430   21.3760 C   0  0  0  0  0  0
  -26.0686  -29.3569   20.7223 C   0  0  0  0  0  0
  -27.2456  -28.5284   20.7104 C   0  0  0  0  0  0
  -26.0289  -26.8020   19.5394 C   0  0  0  0  0  0
  -24.8811  -27.6238   19.5157 C   0  0  0  0  0  0
  -23.6663  -29.7879   20.1561 C   0  0  0  0  0  0
  -25.4119  -36.3045   24.0321 C   0  0  1  0  0  0
  -20.5909  -28.3710   23.1246 C   0  0  2  0  0  0
  -20.6783  -26.9417   22.5400 C   0  0  0  0  0  0
  -19.5756  -26.6374   21.5208 C   0  0  0  0  0  0
  -18.1939  -26.7924   22.1624 C   0  0  0  0  0  0
  -19.1555  -28.8864   23.2856 C   0  0  0  0  0  0
  -18.9472  -30.1460   23.8880 C   0  0  0  0  0  0
  -17.6470  -30.6583   24.0557 C   0  0  0  0  0  0
  -25.9065  -34.9418   23.5077 C   0  0  0  0  0  0
  -16.5362  -29.9077   23.6331 C   0  0  0  0  0  0
  -16.7285  -28.6493   23.0357 C   0  0  0  0  0  0
  -26.4517  -31.6561   25.0701 C   0  0  0  0  0  0
  -25.3726  -31.3723   26.1413 C   0  0  0  0  0  0
  -27.0375  -30.2972   24.6225 C   0  0  0  0  0  0
  -27.6056  -32.4317   25.7485 C   0  0  0  0  0  0
  -27.5577  -37.1791   24.8468 C   0  0  0  0  0  0
  -21.4237  -29.3053   22.3628 N   0  0  0  0  0  0
  -26.4287  -37.3749   23.9410 N   0  0  0  0  0  0
  -24.7100  -31.0386   22.0895 N   0  0  0  0  0  0
  -23.4203  -28.8109   23.3008 O   0  0  0  0  0  0
  -28.3484  -26.2941   20.1208 O   0  0  0  0  0  0
  -26.5644  -34.8909   22.4649 O   0  0  0  0  0  0
  -23.5519  -32.1313   23.7155 O   0  0  0  0  0  0
  -27.9332  -16.9025   19.2759 C   0  0  0  0  0  0
  -28.0194  -20.5678   19.0449 C   0  0  0  0  0  0
  -27.9761  -21.7179   18.0261 C   0  0  0  0  0  0
  -29.2523  -17.4022   18.6751 C   0  0  0  0  0  0
  -29.1487  -22.0581   20.6191 C   0  0  0  0  0  0
  -28.3572  -16.3275   20.6496 C   0  0  0  0  0  0
  -29.3288  -20.5838   19.8646 C   0  0  1  0  0  0
  -27.7830  -23.1207   18.6452 C   0  0  1  0  0  0
  -28.7825  -23.4606   19.7891 C   0  0  1  0  0  0
  -30.0741  -17.6310   19.9345 C   0  0  1  0  0  0
  -27.8330  -24.1572   17.5052 C   0  0  0  0  0  0
  -30.6063  -19.3632   21.7979 C   0  0  0  0  0  0
  -28.2456  -24.8320   20.5790 C   0  0  0  0  0  0
  -29.6151  -19.1138   20.6551 C   0  0  1  0  0  0
  -29.8097  -16.2070   20.5655 N   0  0  0  0  0  0
  -31.4697  -12.8107   19.1240 H   0  0  0  0  0  0
  -30.5072  -11.6561   19.9892 H   0  0  0  0  0  0
  -29.8475  -11.7341   17.5653 H   0  0  0  0  0  0
  -29.5647  -13.4538   17.6762 H   0  0  0  0  0  0
  -27.9755  -11.2200   18.9797 H   0  0  0  0  0  0
  -27.3829  -12.3871   17.8255 H   0  0  0  0  0  0
  -27.5954  -14.1538   19.3649 H   0  0  0  0  0  0
  -28.8349  -12.1649   21.3488 H   0  0  0  0  0  0
  -28.4142  -13.7489   21.8547 H   0  0  0  0  0  0
  -25.2725   -9.5632   22.4803 H   0  0  0  0  0  0
  -23.9977   -7.4574   22.7474 H   0  0  0  0  0  0
  -21.0819   -8.8737   19.8960 H   0  0  0  0  0  0
  -22.3679  -10.9638   19.6190 H   0  0  0  0  0  0
  -21.1970   -7.6133   23.9724 H   0  0  0  0  0  0
  -21.1484   -6.0507   25.9086 H   0  0  0  0  0  0
  -22.0601   -2.7599   23.2856 H   0  0  0  0  0  0
  -22.3997  -11.9816   22.4839 H   0  0  0  0  0  0
  -21.1060  -13.1263   22.2661 H   0  0  0  0  0  0
  -24.5999  -15.8072   20.5115 H   0  0  0  0  0  0
  -26.2240  -15.6368   20.0819 H   0  0  0  0  0  0
  -26.7240  -32.5346   23.1024 H   0  0  0  0  0  0
  -25.0082  -33.9635   25.0361 H   0  0  0  0  0  0
  -22.7412  -31.2881   21.3770 H   0  0  0  0  0  0
  -23.3755  -35.9595   23.3296 H   0  0  0  0  0  0
  -24.3581  -36.8899   22.2060 H   0  0  0  0  0  0
  -23.7245  -37.6460   23.6677 H   0  0  0  0  0  0
  -26.1359  -31.4996   20.6036 H   0  0  0  0  0  0
  -26.8651  -30.7965   22.0133 H   0  0  0  0  0  0
  -28.1524  -28.8923   21.1725 H   0  0  0  0  0  0
  -25.9579  -25.8260   19.0833 H   0  0  0  0  0  0
  -23.9804  -27.2576   19.0427 H   0  0  0  0  0  0
  -23.7985  -30.5577   19.3944 H   0  0  0  0  0  0
  -22.7837  -29.2232   19.8503 H   0  0  0  0  0  0
  -25.1308  -36.1879   25.0812 H   0  0  0  0  0  0
  -21.0002  -28.3288   24.1367 H   0  0  0  0  0  0
  -20.5670  -26.2324   23.3611 H   0  0  0  0  0  0
  -21.6650  -26.7422   22.1202 H   0  0  0  0  0  0
  -19.6917  -25.6279   21.1251 H   0  0  0  0  0  0
  -19.6692  -27.3170   20.6724 H   0  0  0  0  0  0
  -17.4206  -26.6661   21.4030 H   0  0  0  0  0  0
  -18.0348  -26.0069   22.9026 H   0  0  0  0  0  0
  -19.7946  -30.7277   24.2247 H   0  0  0  0  0  0
  -17.5022  -31.6265   24.5153 H   0  0  0  0  0  0
  -15.5361  -30.2973   23.7657 H   0  0  0  0  0  0
  -15.8686  -28.0799   22.7091 H   0  0  0  0  0  0
  -24.5917  -30.7053   25.7743 H   0  0  0  0  0  0
  -24.8902  -32.2894   26.4807 H   0  0  0  0  0  0
  -25.8038  -30.8930   27.0212 H   0  0  0  0  0  0
  -26.2972  -29.6704   24.1245 H   0  0  0  0  0  0
  -27.4035  -29.7254   25.4761 H   0  0  0  0  0  0
  -27.8854  -30.4231   23.9491 H   0  0  0  0  0  0
  -27.2654  -33.3633   26.2021 H   0  0  0  0  0  0
  -28.3892  -32.6852   25.0332 H   0  0  0  0  0  0
  -28.0696  -31.8470   26.5439 H   0  0  0  0  0  0
  -28.2590  -38.0092   24.7512 H   0  0  0  0  0  0
  -28.1077  -36.2623   24.6296 H   0  0  0  0  0  0
  -27.2295  -37.1440   25.8870 H   0  0  0  0  0  0
  -20.9433  -29.8784   21.6833 H   0  0  0  0  0  0
  -26.0161  -38.2819   24.1409 H   0  0  0  0  0  0
  -27.4708  -16.1731   18.6120 H   0  0  0  0  0  0
  -27.2106  -17.7055   19.4196 H   0  0  0  0  0  0
  -27.8650  -19.6516   18.4960 H   0  0  0  0  0  0
  -27.1570  -20.6286   19.7109 H   0  0  0  0  0  0
  -27.1556  -21.5275   17.3324 H   0  0  0  0  0  0
  -28.8832  -21.6963   17.4213 H   0  0  0  0  0  0
  -29.2023  -18.2459   17.9953 H   0  0  0  0  0  0
  -29.7058  -16.6037   18.0840 H   0  0  0  0  0  0
  -30.0583  -22.2568   21.1871 H   0  0  0  0  0  0
  -28.3750  -21.9328   21.3772 H   0  0  0  0  0  0
  -27.8055  -15.4674   20.9577 H   0  0  0  0  0  0
  -28.1097  -17.0078   21.4609 H   0  0  0  0  0  0
  -30.1634  -20.6934   19.1705 H   0  0  0  0  0  0
  -26.7790  -23.1390   19.0731 H   0  0  0  0  0  0
  -29.7236  -23.7398   19.3139 H   0  0  0  0  0  0
  -31.1274  -17.6956   19.6573 H   0  0  0  0  0  0
  -27.0539  -23.9667   16.7659 H   0  0  0  0  0  0
  -28.7912  -24.1275   16.9847 H   0  0  0  0  0  0
  -27.6984  -25.1766   17.8569 H   0  0  0  0  0  0
  -31.6023  -19.5834   21.4128 H   0  0  0  0  0  0
  -30.6865  -18.4890   22.4444 H   0  0  0  0  0  0
  -30.2966  -20.1996   22.4246 H   0  0  0  0  0  0
  -28.7862  -24.8379   21.5254 H   0  0  0  0  0  0
  -27.2133  -24.6521   20.8811 H   0  0  0  0  0  0
  -28.6600  -18.9583   21.1486 H   0  0  0  0  0  0
  1 25  1  0  0  0
  1 30  2  0  0  0
  1 85  1  0  0  0
  2  3  1  0  0  0
  2 25  1  0  0  0
  2 86  1  0  0  0
  2 87  1  0  0  0
  3  4  1  0  0  0
  3 88  1  0  0  0
  3 89  1  0  0  0
  4  5  1  0  0  0
  4 90  1  0  0  0
  4 91  1  0  0  0
  5  6  1  0  0  0
  5 26  1  0  0  0
  5 92  1  0  0  0
  6 25  1  0  0  0
  6 93  1  0  0  0
  6 94  1  0  0  0
  7  8  2  0  0  0
  7 26  1  0  0  0
  7 29  1  0  0  0
  8  9  1  0  0  0
  8 22  1  0  0  0
  9 10  1  0  0  0
  9 27  2  0  0  0
 10 11  2  0  0  0
 10 15  1  0  0  0
 11 12  1  0  0  0
 11 95  1  0  0  0
 12 13  2  0  0  0
 12 96  1  0  0  0
 13 14  1  0  0  0
 13 31  1  0  0  0
 14 15  2  0  0  0
 14 97  1  0  0  0
 15 98  1  0  0  0
 16 17  2  0  0  0
 16 21  1  0  0  0
 16 31  1  0  0  0
 17 18  1  0  0  0
 17 99  1  0  0  0
 18 19  2  0  0  0
 18100  1  0  0  0
 19 20  1  0  0  0
 19 24  1  0  0  0
 20 21  2  0  0  0
 20101  1  0  0  0
 21 23  1  0  0  0
 22 28  1  0  0  0
 22 32  2  0  0  0
 26 27  1  0  0  0
 28102  1  0  0  0
 28103  1  0  0  0
 29104  1  0  0  0
 29105  1  0  0  0
 33 34  1  0  0  0
 33 66  1  0  0  0
 33 70  2  0  0  0
 34 36  1  0  0  0
 34 59  1  0  0  0
 34106  1  0  0  0
 35 44  2  0  0  0
 35 45  1  0  0  0
 35 68  1  0  0  0
 36 56  1  0  0  0
 36107  1  0  0  0
 37 39  1  0  0  0
 37 47  1  0  0  0
 37 66  1  0  0  0
 37108  1  0  0  0
 38 43  2  0  0  0
 38 46  1  0  0  0
 38 47  1  0  0  0
 39 64  1  0  0  0
 39 67  2  0  0  0
 40 52  1  0  0  0
 40 53  2  0  0  0
 40 58  1  0  0  0
 41109  1  0  0  0
 41110  1  0  0  0
 41111  1  0  0  0
 41 48  1  0  0  0
 42 43  1  0  0  0
 42 66  1  0  0  0
 42112  1  0  0  0
 42113  1  0  0  0
 43 44  1  0  0  0
 44114  1  0  0  0
 45 46  2  0  0  0
 45115  1  0  0  0
 46116  1  0  0  0
 47117  1  0  0  0
 47118  1  0  0  0
 48 56  1  0  0  0
 48 65  1  0  0  0
 48119  1  0  0  0
 49 50  1  0  0  0
 49 53  1  0  0  0
 49 64  1  0  0  0
 49120  1  0  0  0
 50 51  1  0  0  0
 50121  1  0  0  0
 50122  1  0  0  0
 51 52  1  0  0  0
 51123  1  0  0  0
 51124  1  0  0  0
 52125  1  0  0  0
 52126  1  0  0  0
 53 54  1  0  0  0
 54 55  2  0  0  0
 54127  1  0  0  0
 55 57  1  0  0  0
 55128  1  0  0  0
 56 69  2  0  0  0
 57 58  2  0  0  0
 57129  1  0  0  0
 58130  1  0  0  0
 59 60  1  0  0  0
 59 61  1  0  0  0
 59 62  1  0  0  0
 60131  1  0  0  0
 60132  1  0  0  0
 60133  1  0  0  0
 61134  1  0  0  0
 61135  1  0  0  0
 61136  1  0  0  0
 62137  1  0  0  0
 62138  1  0  0  0
 62139  1  0  0  0
 63 65  1  0  0  0
 63140  1  0  0  0
 63141  1  0  0  0
 63142  1  0  0  0
 64143  1  0  0  0
 65144  1  0  0  0
 68 83  1  0  0  0
 71 74  1  0  0  0
 71 76  1  0  0  0
 71145  1  0  0  0
 71146  1  0  0  0
 72 73  1  0  0  0
 72147  1  0  0  0
 72148  1  0  0  0
 72 77  1  0  0  0
 73 78  1  0  0  0
 73149  1  0  0  0
 73150  1  0  0  0
 74151  1  0  0  0
 74152  1  0  0  0
 74 80  1  0  0  0
 75 77  1  0  0  0
 75 79  1  0  0  0
 75153  1  0  0  0
 75154  1  0  0  0
 76 85  1  0  0  0
 76155  1  0  0  0
 76156  1  0  0  0
 77 84  1  0  0  0
 77157  1  0  0  0
 78 79  1  0  0  0
 78 81  1  0  0  0
 78158  1  0  0  0
 79 83  1  0  0  0
 79159  1  0  0  0
 80 84  1  0  0  0
 80 85  1  0  0  0
 80160  1  0  0  0
 81161  1  0  0  0
 81162  1  0  0  0
 81163  1  0  0  0
 82164  1  0  0  0
 82165  1  0  0  0
 82166  1  0  0  0
 82 84  1  0  0  0
 83167  1  0  0  0
 83168  1  0  0  0
 84169  1  0  0  0
M  ISO  4   1 100  68 101  83 101  85 100
M  END
> <chiral flag>
0

> <version>
0

> <s_m_source_file>
/data/baiqing/PycharmProjects/Reinvent-master-3.2/result/LINK_invent/BTK/process_docking_weight1_custom_sum_contain_oxygen_bond_distance_aromatic_linkinvent_7_9_3/rearranged_h_0146.sdf

> <i_m_source_file_index>
94

> <r_mmod_Potential_Energy-OPLS-2005>
876.863403320312

> <r_mmod_Stretch_Energy-OPLS-2005>
267.210205078125

> <r_mmod_Bend_Energy-OPLS-2005>
351.002349853516

> <r_mmod_Torsional_Energy-OPLS-2005>
396.571929931641

> <r_mmod_Improper_Torsional_Energy-OPLS-2005>
8.5497932434082

> <r_mmod_Van_der_Waal_Energy-OPLS-2005>
140.31608581543

> <r_mmod_Electrostatic_Energy-OPLS-2005>
-267.659027099609

> <r_mmod_Solvation_Energy-OPLS-2005>
-180.076766967773

> <b_mmod_Minimization_Converged-OPLS-2005>
0

> <r_mmod_RMS_Derivative-OPLS-2005>
1.26600646972656

$$$$
95
                    3D
 Structure written by MMmdl.
173182  0  0  1  0            999 V2000
  -30.7687  -14.3813   20.6825 C   0  0  0  0  0  0
  -30.4158  -12.3032   19.3966 C   0  0  0  0  0  0
  -29.4837  -12.5341   18.1932 C   0  0  0  0  0  0
  -28.0094  -12.3827   18.6106 C   0  0  0  0  0  0
  -27.6647  -13.2066   19.8786 C   0  0  2  0  0  0
  -28.7032  -12.9599   20.9950 C   0  0  0  0  0  0
  -25.2595  -13.8165   20.5671 C   0  0  0  0  0  0
  -24.1841  -13.0439   20.9157 C   0  0  0  0  0  0
  -24.6394  -11.6907   20.8718 C   0  0  0  0  0  0
  -23.9060  -10.4294   21.0396 C   0  0  0  0  0  0
  -24.3613   -9.4212   21.9176 C   0  0  0  0  0  0
  -23.6290   -8.2247   22.0751 C   0  0  0  0  0  0
  -22.4272   -8.0282   21.3544 C   0  0  0  0  0  0
  -21.9904   -9.0253   20.4645 C   0  0  0  0  0  0
  -22.7231  -10.2134   20.3049 C   0  0  0  0  0  0
  -21.6853   -6.0735   22.5279 C   0  0  0  0  0  0
  -21.4015   -6.5639   23.8212 C   0  0  0  0  0  0
  -21.3660   -5.6791   24.9174 C   0  0  0  0  0  0
  -21.6045   -4.3055   24.7225 C   0  0  0  0  0  0
  -21.8819   -3.8147   23.4345 C   0  0  0  0  0  0
  -21.9193   -4.6964   22.3402 C   0  0  0  0  0  0
  -22.7865  -13.5239   21.1832 C   0  0  0  0  0  0
  -22.1662   -4.2148   21.0979 F   0  0  0  0  0  0
  -21.5628   -3.4539   25.7739 F   0  0  0  0  0  0
  -30.0452  -13.2531   20.4568 N   0  0  0  0  0  0
  -26.3037  -12.9336   20.3373 N   0  0  0  0  0  0
  -25.9321  -11.6492   20.5748 N   0  0  0  0  0  0
  -22.0511  -12.8232   22.0395 N   0  0  0  0  0  0
  -25.4325  -15.1882   20.4099 N   0  0  0  0  0  0
  -31.7926  -14.6633   20.0550 O   0  0  0  0  0  0
  -21.6639   -6.8878   21.4240 O   0  0  0  0  0  0
  -22.3547  -14.5548   20.6690 O   0  0  0  0  0  0
  -24.6142  -31.8684   23.2107 C   0  0  0  0  0  0
  -25.9040  -32.4822   23.8397 C   0  0  1  0  0  0
  -27.2351  -27.4403   20.0877 C   0  0  0  0  0  0
  -25.5900  -33.8621   24.2333 N   0  0  0  0  0  0
  -23.4007  -30.4928   21.5517 C   0  0  2  0  0  0
  -24.8454  -28.9590   20.1159 C   0  0  0  0  0  0
  -22.7403  -29.4667   22.5002 C   0  0  0  0  0  0
  -18.0270  -28.1372   22.8495 C   0  0  0  0  0  0
  -24.1488  -36.7315   23.2637 C   0  0  0  0  0  0
  -25.9294  -30.8352   21.3626 C   0  0  0  0  0  0
  -26.0066  -29.4712   20.7072 C   0  0  0  0  0  0
  -27.2038  -28.7206   20.6865 C   0  0  0  0  0  0
  -26.0511  -26.9396   19.4963 C   0  0  0  0  0  0
  -24.8622  -27.6921   19.5090 C   0  0  0  0  0  0
  -23.6072  -29.8247   20.1667 C   0  0  0  0  0  0
  -25.4107  -36.3113   24.0338 C   0  0  1  0  0  0
  -20.5858  -28.3660   23.1319 C   0  0  2  0  0  0
  -20.6762  -26.9400   22.5413 C   0  0  0  0  0  0
  -19.5741  -26.6386   21.5210 C   0  0  0  0  0  0
  -18.1920  -26.7922   22.1623 C   0  0  0  0  0  0
  -19.1518  -28.8834   23.2906 C   0  0  0  0  0  0
  -18.9448  -30.1443   23.8913 C   0  0  0  0  0  0
  -17.6450  -30.6583   24.0563 C   0  0  0  0  0  0
  -25.9032  -34.9476   23.5134 C   0  0  0  0  0  0
  -16.5340  -29.9081   23.6328 C   0  0  0  0  0  0
  -16.7259  -28.6496   23.0352 C   0  0  0  0  0  0
  -26.4474  -31.6597   25.0723 C   0  0  0  0  0  0
  -25.3748  -31.3690   26.1477 C   0  0  0  0  0  0
  -27.0305  -30.3043   24.6093 C   0  0  0  0  0  0
  -27.6061  -32.4307   25.7477 C   0  0  0  0  0  0
  -27.5582  -37.1813   24.8469 C   0  0  0  0  0  0
  -21.4134  -29.3032   22.3732 N   0  0  0  0  0  0
  -26.4300  -37.3792   23.9404 N   0  0  0  0  0  0
  -24.6663  -31.0794   22.1001 N   0  0  0  0  0  0
  -23.4184  -28.8209   23.3037 O   0  0  0  0  0  0
  -28.4171  -26.7264   20.0945 O   0  0  0  0  0  0
  -26.5589  -34.8927   22.4692 O   0  0  0  0  0  0
  -23.5339  -32.1434   23.7510 O   0  0  0  0  0  0
  -29.9590  -20.2242   20.2659 C   0  0  0  0  0  0
  -29.5407  -21.1211   19.2335 C   0  0  0  0  0  0
  -29.3302  -20.3713   18.1017 C   0  0  0  0  0  0
  -30.0304  -18.9793   19.7058 C   0  0  0  0  0  0
  -27.8448  -21.9148   16.5773 C   0  0  0  0  0  0
  -27.4749  -20.4843   16.2597 C   0  0  0  0  0  0
  -28.8661  -20.8134   16.7471 C   0  0  0  0  0  0
  -28.6034  -16.8309   17.8429 C   0  0  0  0  0  0
  -30.9955  -17.3604   17.1099 C   0  0  0  0  0  0
  -29.6734  -24.6591   20.3859 C   0  0  0  0  0  0
  -30.4000  -17.6649   21.7906 C   0  0  0  0  0  0
  -31.0149  -16.3266   22.2380 C   0  0  0  0  0  0
  -28.3297  -25.2989   19.9941 C   0  0  0  0  0  0
  -29.6364  -23.1239   20.5441 C   0  0  0  0  0  0
  -29.5973  -17.9244   17.4118 C   0  0  0  0  0  0
  -29.6517  -19.0386   18.3719 N   0  0  0  0  0  0
  -30.4559  -17.8122   20.3454 N   0  0  0  0  0  0
  -30.3208  -15.1656   21.6719 N   0  0  0  0  0  0
  -29.3736  -22.4895   19.2965 O   0  0  0  0  0  0
  -31.4587  -12.4037   19.0906 H   0  0  0  0  0  0
  -30.3150  -11.2817   19.7663 H   0  0  0  0  0  0
  -29.7197  -11.8317   17.3927 H   0  0  0  0  0  0
  -29.6496  -13.5324   17.7848 H   0  0  0  0  0  0
  -27.8209  -11.3241   18.7931 H   0  0  0  0  0  0
  -27.3546  -12.6699   17.7873 H   0  0  0  0  0  0
  -27.7184  -14.2596   19.6021 H   0  0  0  0  0  0
  -28.6676  -11.9189   21.3196 H   0  0  0  0  0  0
  -28.4479  -13.5442   21.8791 H   0  0  0  0  0  0
  -25.2760   -9.5690   22.4744 H   0  0  0  0  0  0
  -24.0003   -7.4641   22.7470 H   0  0  0  0  0  0
  -21.0835   -8.8769   19.8952 H   0  0  0  0  0  0
  -22.3687  -10.9669   19.6155 H   0  0  0  0  0  0
  -21.2008   -7.6148   23.9715 H   0  0  0  0  0  0
  -21.1481   -6.0523   25.9077 H   0  0  0  0  0  0
  -22.0599   -2.7609   23.2847 H   0  0  0  0  0  0
  -22.4128  -11.9891   22.4777 H   0  0  0  0  0  0
  -21.1131  -13.1258   22.2608 H   0  0  0  0  0  0
  -24.6707  -15.8478   20.5239 H   0  0  0  0  0  0
  -26.2970  -15.6273   20.1184 H   0  0  0  0  0  0
  -26.7110  -32.5535   23.1160 H   0  0  0  0  0  0
  -25.0073  -33.9782   25.0496 H   0  0  0  0  0  0
  -22.6891  -31.3095   21.4135 H   0  0  0  0  0  0
  -23.3744  -35.9658   23.3329 H   0  0  0  0  0  0
  -24.3574  -36.8897   22.2045 H   0  0  0  0  0  0
  -23.7257  -37.6535   23.6631 H   0  0  0  0  0  0
  -26.0428  -31.6029   20.5959 H   0  0  0  0  0  0
  -26.8164  -30.8856   21.9822 H   0  0  0  0  0  0
  -28.1022  -29.1152   21.1412 H   0  0  0  0  0  0
  -26.0284  -25.9734   19.0146 H   0  0  0  0  0  0
  -23.9684  -27.2918   19.0504 H   0  0  0  0  0  0
  -23.7128  -30.5988   19.4057 H   0  0  0  0  0  0
  -22.7312  -29.2430   19.8740 H   0  0  0  0  0  0
  -25.1287  -36.1981   25.0833 H   0  0  0  0  0  0
  -20.9949  -28.3222   24.1440 H   0  0  0  0  0  0
  -20.5670  -26.2266   23.3594 H   0  0  0  0  0  0
  -21.6631  -26.7445   22.1201 H   0  0  0  0  0  0
  -19.6900  -25.6302   21.1226 H   0  0  0  0  0  0
  -19.6679  -27.3207   20.6749 H   0  0  0  0  0  0
  -17.4188  -26.6675   21.4026 H   0  0  0  0  0  0
  -18.0322  -26.0057   22.9015 H   0  0  0  0  0  0
  -19.7923  -30.7257   24.2291 H   0  0  0  0  0  0
  -17.5003  -31.6269   24.5159 H   0  0  0  0  0  0
  -15.5341  -30.2987   23.7644 H   0  0  0  0  0  0
  -15.8659  -28.0819   22.7060 H   0  0  0  0  0  0
  -24.5918  -30.7041   25.7811 H   0  0  0  0  0  0
  -24.8941  -32.2838   26.4955 H   0  0  0  0  0  0
  -25.8106  -30.8836   27.0219 H   0  0  0  0  0  0
  -26.2842  -29.6794   24.1172 H   0  0  0  0  0  0
  -27.4108  -29.7287   25.4543 H   0  0  0  0  0  0
  -27.8664  -30.4364   23.9219 H   0  0  0  0  0  0
  -27.2699  -33.3607   26.2076 H   0  0  0  0  0  0
  -28.3856  -32.6863   25.0287 H   0  0  0  0  0  0
  -28.0748  -31.8416   26.5370 H   0  0  0  0  0  0
  -28.2616  -38.0094   24.7499 H   0  0  0  0  0  0
  -28.1062  -36.2626   24.6323 H   0  0  0  0  0  0
  -27.2295  -37.1496   25.8872 H   0  0  0  0  0  0
  -20.9294  -29.8746   21.6948 H   0  0  0  0  0  0
  -26.0196  -38.2878   24.1386 H   0  0  0  0  0  0
  -30.2088  -20.4715   21.2876 H   0  0  0  0  0  0
  -27.4084  -22.3553   17.4718 H   0  0  0  0  0  0
  -27.9802  -22.5979   15.7411 H   0  0  0  0  0  0
  -27.3617  -20.2116   15.2123 H   0  0  0  0  0  0
  -26.8072  -19.9717   16.9500 H   0  0  0  0  0  0
  -29.6773  -20.7767   16.0218 H   0  0  0  0  0  0
  -28.4855  -16.0817   17.0596 H   0  0  0  0  0  0
  -27.6189  -17.2557   18.0397 H   0  0  0  0  0  0
  -28.9250  -16.3088   18.7425 H   0  0  0  0  0  0
  -30.9510  -16.6152   16.3155 H   0  0  0  0  0  0
  -31.4465  -16.8826   17.9788 H   0  0  0  0  0  0
  -31.6702  -18.1504   16.7789 H   0  0  0  0  0  0
  -29.9930  -25.0858   21.3373 H   0  0  0  0  0  0
  -30.4381  -24.9364   19.6597 H   0  0  0  0  0  0
  -30.9435  -18.4837   22.2649 H   0  0  0  0  0  0
  -29.3634  -17.7369   22.1245 H   0  0  0  0  0  0
  -30.9572  -16.2536   23.3248 H   0  0  0  0  0  0
  -32.0801  -16.3042   21.9989 H   0  0  0  0  0  0
  -27.5480  -24.9260   20.6588 H   0  0  0  0  0  0
  -28.0703  -25.0044   18.9762 H   0  0  0  0  0  0
  -28.8800  -22.8337   21.2746 H   0  0  0  0  0  0
  -30.6030  -22.7973   20.9309 H   0  0  0  0  0  0
  -29.2219  -18.3112   16.4658 H   0  0  0  0  0  0
  -30.5608  -16.9478   19.8240 H   0  0  0  0  0  0
  -29.4717  -14.8722   22.1311 H   0  0  0  0  0  0
  1 25  1  0  0  0
  1 30  2  0  0  0
  1 88  1  0  0  0
  2  3  1  0  0  0
  2 25  1  0  0  0
  2 90  1  0  0  0
  2 91  1  0  0  0
  3  4  1  0  0  0
  3 92  1  0  0  0
  3 93  1  0  0  0
  4  5  1  0  0  0
  4 94  1  0  0  0
  4 95  1  0  0  0
  5  6  1  0  0  0
  5 26  1  0  0  0
  5 96  1  0  0  0
  6 25  1  0  0  0
  6 97  1  0  0  0
  6 98  1  0  0  0
  7  8  2  0  0  0
  7 26  1  0  0  0
  7 29  1  0  0  0
  8  9  1  0  0  0
  8 22  1  0  0  0
  9 10  1  0  0  0
  9 27  2  0  0  0
 10 11  2  0  0  0
 10 15  1  0  0  0
 11 12  1  0  0  0
 11 99  1  0  0  0
 12 13  2  0  0  0
 12100  1  0  0  0
 13 14  1  0  0  0
 13 31  1  0  0  0
 14 15  2  0  0  0
 14101  1  0  0  0
 15102  1  0  0  0
 16 17  2  0  0  0
 16 21  1  0  0  0
 16 31  1  0  0  0
 17 18  1  0  0  0
 17103  1  0  0  0
 18 19  2  0  0  0
 18104  1  0  0  0
 19 20  1  0  0  0
 19 24  1  0  0  0
 20 21  2  0  0  0
 20105  1  0  0  0
 21 23  1  0  0  0
 22 28  1  0  0  0
 22 32  2  0  0  0
 26 27  1  0  0  0
 28106  1  0  0  0
 28107  1  0  0  0
 29108  1  0  0  0
 29109  1  0  0  0
 33 34  1  0  0  0
 33 66  1  0  0  0
 33 70  2  0  0  0
 34 36  1  0  0  0
 34 59  1  0  0  0
 34110  1  0  0  0
 35 44  2  0  0  0
 35 45  1  0  0  0
 35 68  1  0  0  0
 36 56  1  0  0  0
 36111  1  0  0  0
 37 39  1  0  0  0
 37 47  1  0  0  0
 37 66  1  0  0  0
 37112  1  0  0  0
 38 43  2  0  0  0
 38 46  1  0  0  0
 38 47  1  0  0  0
 39 64  1  0  0  0
 39 67  2  0  0  0
 40 52  1  0  0  0
 40 53  2  0  0  0
 40 58  1  0  0  0
 41113  1  0  0  0
 41114  1  0  0  0
 41115  1  0  0  0
 41 48  1  0  0  0
 42 43  1  0  0  0
 42 66  1  0  0  0
 42116  1  0  0  0
 42117  1  0  0  0
 43 44  1  0  0  0
 44118  1  0  0  0
 45 46  2  0  0  0
 45119  1  0  0  0
 46120  1  0  0  0
 47121  1  0  0  0
 47122  1  0  0  0
 48 56  1  0  0  0
 48 65  1  0  0  0
 48123  1  0  0  0
 49 50  1  0  0  0
 49 53  1  0  0  0
 49 64  1  0  0  0
 49124  1  0  0  0
 50 51  1  0  0  0
 50125  1  0  0  0
 50126  1  0  0  0
 51 52  1  0  0  0
 51127  1  0  0  0
 51128  1  0  0  0
 52129  1  0  0  0
 52130  1  0  0  0
 53 54  1  0  0  0
 54 55  2  0  0  0
 54131  1  0  0  0
 55 57  1  0  0  0
 55132  1  0  0  0
 56 69  2  0  0  0
 57 58  2  0  0  0
 57133  1  0  0  0
 58134  1  0  0  0
 59 60  1  0  0  0
 59 61  1  0  0  0
 59 62  1  0  0  0
 60135  1  0  0  0
 60136  1  0  0  0
 60137  1  0  0  0
 61138  1  0  0  0
 61139  1  0  0  0
 61140  1  0  0  0
 62141  1  0  0  0
 62142  1  0  0  0
 62143  1  0  0  0
 63 65  1  0  0  0
 63144  1  0  0  0
 63145  1  0  0  0
 63146  1  0  0  0
 64147  1  0  0  0
 65148  1  0  0  0
 68 83  1  0  0  0
 71 72  1  0  0  0
 71 74  2  0  0  0
 71149  1  0  0  0
 72 73  2  0  0  0
 72 89  1  0  0  0
 73 86  1  0  0  0
 73 77  1  0  0  0
 74 86  1  0  0  0
 74 87  1  0  0  0
 75 76  1  0  0  0
 75 77  1  0  0  0
 75150  1  0  0  0
 75151  1  0  0  0
 76 77  1  0  0  0
 76152  1  0  0  0
 76153  1  0  0  0
 77154  1  0  0  0
 78155  1  0  0  0
 78156  1  0  0  0
 78157  1  0  0  0
 78 85  1  0  0  0
 79 85  1  0  0  0
 79158  1  0  0  0
 79159  1  0  0  0
 79160  1  0  0  0
 80 83  1  0  0  0
 80 84  1  0  0  0
 80161  1  0  0  0
 80162  1  0  0  0
 81 82  1  0  0  0
 81 87  1  0  0  0
 81163  1  0  0  0
 81164  1  0  0  0
 82 88  1  0  0  0
 82165  1  0  0  0
 82166  1  0  0  0
 83167  1  0  0  0
 83168  1  0  0  0
 84 89  1  0  0  0
 84169  1  0  0  0
 84170  1  0  0  0
 85 86  1  0  0  0
 85171  1  0  0  0
 87172  1  0  0  0
 88173  1  0  0  0
M  ISO  4   1 100  68 101  83 101  88 100
M  END
> <chiral flag>
0

> <version>
0

> <s_m_source_file>
/data/baiqing/PycharmProjects/Reinvent-master-3.2/result/LINK_invent/BTK/process_docking_weight1_custom_sum_contain_oxygen_bond_distance_aromatic_linkinvent_7_9_3/rearranged_h_0146.sdf

> <i_m_source_file_index>
95

> <r_mmod_Potential_Energy-OPLS-2005>
-142.844207763672

> <r_mmod_Stretch_Energy-OPLS-2005>
34.403694152832

> <r_mmod_Bend_Energy-OPLS-2005>
107.38744354248

> <r_mmod_Torsional_Energy-OPLS-2005>
264.767913818359

> <r_mmod_Improper_Torsional_Energy-OPLS-2005>
2.63260912895203

> <r_mmod_Van_der_Waal_Energy-OPLS-2005>
121.086372375488

> <r_mmod_Electrostatic_Energy-OPLS-2005>
-467.731048583984

> <r_mmod_Solvation_Energy-OPLS-2005>
-213.626190185547

> <b_mmod_Minimization_Converged-OPLS-2005>
0

> <r_mmod_RMS_Derivative-OPLS-2005>
0.503495275974274

$$$$
96
                    3D
 Structure written by MMmdl.
165173  0  0  1  0            999 V2000
  -30.8350  -14.2598   20.7765 C   0  0  0  0  0  0
  -30.4099  -12.2922   19.3576 C   0  0  0  0  0  0
  -29.4658  -12.5432   18.1723 C   0  0  0  0  0  0
  -27.9987  -12.3799   18.6037 C   0  0  0  0  0  0
  -27.6650  -13.2017   19.8740 C   0  0  2  0  0  0
  -28.7029  -12.9460   20.9874 C   0  0  0  0  0  0
  -25.2607  -13.8164   20.5664 C   0  0  0  0  0  0
  -24.1842  -13.0451   20.9150 C   0  0  0  0  0  0
  -24.6380  -11.6912   20.8713 C   0  0  0  0  0  0
  -23.9040  -10.4300   21.0394 C   0  0  0  0  0  0
  -24.3599   -9.4223   21.9173 C   0  0  0  0  0  0
  -23.6281   -8.2258   22.0762 C   0  0  0  0  0  0
  -22.4265   -8.0287   21.3552 C   0  0  0  0  0  0
  -21.9890   -9.0251   20.4651 C   0  0  0  0  0  0
  -22.7213  -10.2134   20.3048 C   0  0  0  0  0  0
  -21.6850   -6.0738   22.5286 C   0  0  0  0  0  0
  -21.4009   -6.5640   23.8219 C   0  0  0  0  0  0
  -21.3655   -5.6794   24.9183 C   0  0  0  0  0  0
  -21.6043   -4.3058   24.7234 C   0  0  0  0  0  0
  -21.8812   -3.8148   23.4356 C   0  0  0  0  0  0
  -21.9188   -4.6965   22.3412 C   0  0  0  0  0  0
  -22.7865  -13.5258   21.1829 C   0  0  0  0  0  0
  -22.1656   -4.2152   21.0986 F   0  0  0  0  0  0
  -21.5631   -3.4543   25.7741 F   0  0  0  0  0  0
  -30.0545  -13.2027   20.4531 N   0  0  0  0  0  0
  -26.3040  -12.9320   20.3362 N   0  0  0  0  0  0
  -25.9303  -11.6483   20.5736 N   0  0  0  0  0  0
  -22.0500  -12.8252   22.0389 N   0  0  0  0  0  0
  -25.4344  -15.1879   20.4073 N   0  0  0  0  0  0
  -31.7491  -14.6915   20.0674 O   0  0  0  0  0  0
  -21.6635   -6.8882   21.4247 O   0  0  0  0  0  0
  -22.3546  -14.5570   20.6692 O   0  0  0  0  0  0
  -24.6099  -31.8701   23.2130 C   0  0  0  0  0  0
  -25.8997  -32.4836   23.8414 C   0  0  1  0  0  0
  -27.2380  -27.4575   20.0803 C   0  0  0  0  0  0
  -25.5862  -33.8638   24.2323 N   0  0  0  0  0  0
  -23.3959  -30.4937   21.5561 C   0  0  2  0  0  0
  -24.8409  -28.9628   20.1207 C   0  0  0  0  0  0
  -22.7389  -29.4663   22.5042 C   0  0  0  0  0  0
  -18.0260  -28.1372   22.8497 C   0  0  0  0  0  0
  -24.1485  -36.7327   23.2642 C   0  0  0  0  0  0
  -25.9226  -30.8433   21.3624 C   0  0  0  0  0  0
  -26.0011  -29.4794   20.7089 C   0  0  0  0  0  0
  -27.1997  -28.7342   20.6847 C   0  0  0  0  0  0
  -26.0486  -26.9434   19.5082 C   0  0  0  0  0  0
  -24.8587  -27.6915   19.5229 C   0  0  0  0  0  0
  -23.6010  -29.8250   20.1713 C   0  0  0  0  0  0
  -25.4115  -36.3124   24.0332 C   0  0  1  0  0  0
  -20.5853  -28.3635   23.1365 C   0  0  2  0  0  0
  -20.6762  -26.9379   22.5451 C   0  0  0  0  0  0
  -19.5747  -26.6376   21.5233 C   0  0  0  0  0  0
  -18.1906  -26.7923   22.1618 C   0  0  0  0  0  0
  -19.1514  -28.8820   23.2919 C   0  0  0  0  0  0
  -18.9446  -30.1437   23.8921 C   0  0  0  0  0  0
  -17.6450  -30.6580   24.0573 C   0  0  0  0  0  0
  -25.9036  -34.9488   23.5132 C   0  0  0  0  0  0
  -16.5340  -29.9085   23.6341 C   0  0  0  0  0  0
  -16.7254  -28.6509   23.0347 C   0  0  0  0  0  0
  -26.4449  -31.6629   25.0740 C   0  0  0  0  0  0
  -25.3722  -31.3728   26.1494 C   0  0  0  0  0  0
  -27.0272  -30.3077   24.6093 C   0  0  0  0  0  0
  -27.6025  -32.4359   25.7490 C   0  0  0  0  0  0
  -27.5584  -37.1804   24.8454 C   0  0  0  0  0  0
  -21.4128  -29.3003   22.3773 N   0  0  0  0  0  0
  -26.4299  -37.3805   23.9413 N   0  0  0  0  0  0
  -24.6611  -31.0821   22.1025 N   0  0  0  0  0  0
  -23.4180  -28.8211   23.3075 O   0  0  0  0  0  0
  -28.4435  -26.7851   20.0680 O   0  0  0  0  0  0
  -26.5615  -34.8926   22.4702 O   0  0  0  0  0  0
  -23.5301  -32.1447   23.7541 O   0  0  0  0  0  0
  -30.5183  -19.6901   22.7456 C   0  0  0  0  0  0
  -28.2678  -18.8055   22.8821 C   0  0  0  0  0  0
  -28.5974  -21.2241   22.6225 C   0  0  0  0  0  0
  -30.0094  -21.0020   22.6619 C   0  0  0  0  0  0
  -27.7181  -20.1048   22.7691 C   0  0  0  0  0  0
  -29.6527  -18.5807   22.8499 C   0  0  0  0  0  0
  -28.5322  -23.3616   21.2487 C   0  0  0  0  0  0
  -27.9968  -24.5465   20.8987 C   0  0  0  0  0  0
  -28.0392  -22.6049   22.4182 C   0  0  0  0  0  0
  -31.0393  -22.1294   22.6613 C   0  0  0  0  0  0
  -25.4460  -19.2126   23.2824 C   0  0  0  0  0  0
  -28.4765  -25.3964   19.7391 C   0  0  0  0  0  0
  -31.6333  -15.4654   22.8070 C   0  0  0  0  0  0
  -31.4119  -16.9649   22.5828 C   0  0  0  0  0  0
  -26.3168  -20.2679   22.7765 N   0  0  0  0  0  0
  -30.6969  -14.6411   22.0484 N   0  0  0  0  0  0
  -27.1781  -23.0719   23.1730 O   0  0  0  0  0  0
  -30.0704  -17.2723   22.9416 O   0  0  0  0  0  0
  -31.4483  -12.4100   19.0415 H   0  0  0  0  0  0
  -30.3200  -11.2608   19.7021 H   0  0  0  0  0  0
  -29.6933  -11.8553   17.3572 H   0  0  0  0  0  0
  -29.6250  -13.5489   17.7794 H   0  0  0  0  0  0
  -27.8170  -11.3202   18.7876 H   0  0  0  0  0  0
  -27.3334  -12.6645   17.7873 H   0  0  0  0  0  0
  -27.7240  -14.2555   19.6006 H   0  0  0  0  0  0
  -28.6470  -11.9115   21.3296 H   0  0  0  0  0  0
  -28.4552  -13.5623   21.8522 H   0  0  0  0  0  0
  -25.2744   -9.5715   22.4742 H   0  0  0  0  0  0
  -23.9992   -7.4663   22.7492 H   0  0  0  0  0  0
  -21.0816   -8.8762   19.8961 H   0  0  0  0  0  0
  -22.3660  -10.9670   19.6156 H   0  0  0  0  0  0
  -21.1990   -7.6147   23.9723 H   0  0  0  0  0  0
  -21.1481   -6.0525   25.9083 H   0  0  0  0  0  0
  -22.0585   -2.7609   23.2856 H   0  0  0  0  0  0
  -22.4101  -11.9907   22.4778 H   0  0  0  0  0  0
  -21.1126  -13.1294   22.2602 H   0  0  0  0  0  0
  -24.6723  -15.8493   20.5097 H   0  0  0  0  0  0
  -26.2995  -15.6225   20.1097 H   0  0  0  0  0  0
  -26.7063  -32.5571   23.1182 H   0  0  0  0  0  0
  -24.9965  -33.9812   25.0430 H   0  0  0  0  0  0
  -22.6821  -31.3083   21.4184 H   0  0  0  0  0  0
  -23.3745  -35.9658   23.3315 H   0  0  0  0  0  0
  -24.3570  -36.8950   22.2052 H   0  0  0  0  0  0
  -23.7237  -37.6528   23.6669 H   0  0  0  0  0  0
  -26.0303  -31.6112   20.5952 H   0  0  0  0  0  0
  -26.8113  -30.8977   21.9798 H   0  0  0  0  0  0
  -28.0999  -29.1342   21.1314 H   0  0  0  0  0  0
  -26.0100  -25.9725   19.0401 H   0  0  0  0  0  0
  -23.9626  -27.2824   19.0764 H   0  0  0  0  0  0
  -23.7009  -30.5988   19.4094 H   0  0  0  0  0  0
  -22.7257  -29.2402   19.8807 H   0  0  0  0  0  0
  -25.1287  -36.1996   25.0824 H   0  0  0  0  0  0
  -20.9926  -28.3197   24.1497 H   0  0  0  0  0  0
  -20.5693  -26.2230   23.3621 H   0  0  0  0  0  0
  -21.6628  -26.7445   22.1225 H   0  0  0  0  0  0
  -19.6919  -25.6299   21.1238 H   0  0  0  0  0  0
  -19.6713  -27.3217   20.6794 H   0  0  0  0  0  0
  -17.4195  -26.6705   21.3991 H   0  0  0  0  0  0
  -18.0273  -26.0054   22.8993 H   0  0  0  0  0  0
  -19.7931  -30.7243   24.2290 H   0  0  0  0  0  0
  -17.5012  -31.6268   24.5158 H   0  0  0  0  0  0
  -15.5344  -30.2983   23.7671 H   0  0  0  0  0  0
  -15.8658  -28.0844   22.7039 H   0  0  0  0  0  0
  -24.5891  -30.7081   25.7839 H   0  0  0  0  0  0
  -24.8904  -32.2871   26.4968 H   0  0  0  0  0  0
  -25.8065  -30.8887   27.0245 H   0  0  0  0  0  0
  -26.2798  -29.6861   24.1144 H   0  0  0  0  0  0
  -27.4052  -29.7310   25.4544 H   0  0  0  0  0  0
  -27.8638  -30.4422   23.9231 H   0  0  0  0  0  0
  -27.2636  -33.3640   26.2117 H   0  0  0  0  0  0
  -28.3795  -32.6965   25.0289 H   0  0  0  0  0  0
  -28.0740  -31.8464   26.5364 H   0  0  0  0  0  0
  -28.2590  -38.0101   24.7507 H   0  0  0  0  0  0
  -28.1079  -36.2636   24.6272 H   0  0  0  0  0  0
  -27.2297  -37.1454   25.8848 H   0  0  0  0  0  0
  -20.9277  -29.8719   21.7001 H   0  0  0  0  0  0
  -26.0195  -38.2886   24.1420 H   0  0  0  0  0  0
  -31.5901  -19.5587   22.7428 H   0  0  0  0  0  0
  -27.6340  -17.9359   22.9725 H   0  0  0  0  0  0
  -29.3379  -22.9370   20.6688 H   0  0  0  0  0  0
  -27.1662  -24.9486   21.4634 H   0  0  0  0  0  0
  -31.9138  -21.8460   23.2495 H   0  0  0  0  0  0
  -30.6602  -23.0502   23.1051 H   0  0  0  0  0  0
  -31.3823  -22.3427   21.6486 H   0  0  0  0  0  0
  -24.4370  -19.5990   23.4294 H   0  0  0  0  0  0
  -25.7972  -18.8296   24.2423 H   0  0  0  0  0  0
  -25.3831  -18.3837   22.5760 H   0  0  0  0  0  0
  -27.9305  -25.1631   18.8254 H   0  0  0  0  0  0
  -29.5130  -25.1336   19.5247 H   0  0  0  0  0  0
  -31.5021  -15.2361   23.8650 H   0  0  0  0  0  0
  -32.6621  -15.1961   22.5613 H   0  0  0  0  0  0
  -31.5994  -17.2375   21.5429 H   0  0  0  0  0  0
  -32.1197  -17.5112   23.2072 H   0  0  0  0  0  0
  -25.9720  -21.2220   22.8818 H   0  0  0  0  0  0
  -29.9546  -14.1960   22.5687 H   0  0  0  0  0  0
  1 25  1  0  0  0
  1 30  2  0  0  0
  1 86  1  0  0  0
  2  3  1  0  0  0
  2 25  1  0  0  0
  2 89  1  0  0  0
  2 90  1  0  0  0
  3  4  1  0  0  0
  3 91  1  0  0  0
  3 92  1  0  0  0
  4  5  1  0  0  0
  4 93  1  0  0  0
  4 94  1  0  0  0
  5  6  1  0  0  0
  5 26  1  0  0  0
  5 95  1  0  0  0
  6 25  1  0  0  0
  6 96  1  0  0  0
  6 97  1  0  0  0
  7  8  2  0  0  0
  7 26  1  0  0  0
  7 29  1  0  0  0
  8  9  1  0  0  0
  8 22  1  0  0  0
  9 10  1  0  0  0
  9 27  2  0  0  0
 10 11  2  0  0  0
 10 15  1  0  0  0
 11 12  1  0  0  0
 11 98  1  0  0  0
 12 13  2  0  0  0
 12 99  1  0  0  0
 13 14  1  0  0  0
 13 31  1  0  0  0
 14 15  2  0  0  0
 14100  1  0  0  0
 15101  1  0  0  0
 16 17  2  0  0  0
 16 21  1  0  0  0
 16 31  1  0  0  0
 17 18  1  0  0  0
 17102  1  0  0  0
 18 19  2  0  0  0
 18103  1  0  0  0
 19 20  1  0  0  0
 19 24  1  0  0  0
 20 21  2  0  0  0
 20104  1  0  0  0
 21 23  1  0  0  0
 22 28  1  0  0  0
 22 32  2  0  0  0
 26 27  1  0  0  0
 28105  1  0  0  0
 28106  1  0  0  0
 29107  1  0  0  0
 29108  1  0  0  0
 33 34  1  0  0  0
 33 66  1  0  0  0
 33 70  2  0  0  0
 34 36  1  0  0  0
 34 59  1  0  0  0
 34109  1  0  0  0
 35 44  2  0  0  0
 35 45  1  0  0  0
 35 68  1  0  0  0
 36 56  1  0  0  0
 36110  1  0  0  0
 37 39  1  0  0  0
 37 47  1  0  0  0
 37 66  1  0  0  0
 37111  1  0  0  0
 38 43  2  0  0  0
 38 46  1  0  0  0
 38 47  1  0  0  0
 39 64  1  0  0  0
 39 67  2  0  0  0
 40 52  1  0  0  0
 40 53  2  0  0  0
 40 58  1  0  0  0
 41112  1  0  0  0
 41113  1  0  0  0
 41114  1  0  0  0
 41 48  1  0  0  0
 42 43  1  0  0  0
 42 66  1  0  0  0
 42115  1  0  0  0
 42116  1  0  0  0
 43 44  1  0  0  0
 44117  1  0  0  0
 45 46  2  0  0  0
 45118  1  0  0  0
 46119  1  0  0  0
 47120  1  0  0  0
 47121  1  0  0  0
 48 56  1  0  0  0
 48 65  1  0  0  0
 48122  1  0  0  0
 49 50  1  0  0  0
 49 53  1  0  0  0
 49 64  1  0  0  0
 49123  1  0  0  0
 50 51  1  0  0  0
 50124  1  0  0  0
 50125  1  0  0  0
 51 52  1  0  0  0
 51126  1  0  0  0
 51127  1  0  0  0
 52128  1  0  0  0
 52129  1  0  0  0
 53 54  1  0  0  0
 54 55  2  0  0  0
 54130  1  0  0  0
 55 57  1  0  0  0
 55131  1  0  0  0
 56 69  2  0  0  0
 57 58  2  0  0  0
 57132  1  0  0  0
 58133  1  0  0  0
 59 60  1  0  0  0
 59 61  1  0  0  0
 59 62  1  0  0  0
 60134  1  0  0  0
 60135  1  0  0  0
 60136  1  0  0  0
 61137  1  0  0  0
 61138  1  0  0  0
 61139  1  0  0  0
 62140  1  0  0  0
 62141  1  0  0  0
 62142  1  0  0  0
 63 65  1  0  0  0
 63143  1  0  0  0
 63144  1  0  0  0
 63145  1  0  0  0
 64146  1  0  0  0
 65147  1  0  0  0
 68 82  1  0  0  0
 71 74  2  0  0  0
 71 76  1  0  0  0
 71148  1  0  0  0
 72 75  1  0  0  0
 72 76  2  0  0  0
 72149  1  0  0  0
 73 74  1  0  0  0
 73 75  2  0  0  0
 73 79  1  0  0  0
 74 80  1  0  0  0
 75 85  1  0  0  0
 76 88  1  0  0  0
 77 78  2  0  0  0
 77 79  1  0  0  0
 77150  1  0  0  0
 78 82  1  0  0  0
 78151  1  0  0  0
 79 87  2  0  0  0
 80152  1  0  0  0
 80153  1  0  0  0
 80154  1  0  0  0
 81 85  1  0  0  0
 81155  1  0  0  0
 81156  1  0  0  0
 81157  1  0  0  0
 82158  1  0  0  0
 82159  1  0  0  0
 83 84  1  0  0  0
 83 86  1  0  0  0
 83160  1  0  0  0
 83161  1  0  0  0
 84 88  1  0  0  0
 84162  1  0  0  0
 84163  1  0  0  0
 85164  1  0  0  0
 86165  1  0  0  0
M  ISO  4   1 100  68 101  82 101  86 100
M  END
> <chiral flag>
0

> <version>
0

> <s_m_source_file>
/data/baiqing/PycharmProjects/Reinvent-master-3.2/result/LINK_invent/BTK/process_docking_weight1_custom_sum_contain_oxygen_bond_distance_aromatic_linkinvent_7_9_3/rearranged_h_0146.sdf

> <i_m_source_file_index>
96

> <r_mmod_Potential_Energy-OPLS-2005>
-10.2815999984741

> <r_mmod_Stretch_Energy-OPLS-2005>
37.1867828369141

> <r_mmod_Bend_Energy-OPLS-2005>
109.057838439941

> <r_mmod_Torsional_Energy-OPLS-2005>
206.55110168457

> <r_mmod_Improper_Torsional_Energy-OPLS-2005>
7.52993726730347

> <r_mmod_Van_der_Waal_Energy-OPLS-2005>
177.392822265625

> <r_mmod_Electrostatic_Energy-OPLS-2005>
-328.291320800781

> <r_mmod_Solvation_Energy-OPLS-2005>
-230.297119140625

> <b_mmod_Minimization_Converged-OPLS-2005>
0

> <r_mmod_RMS_Derivative-OPLS-2005>
1.81280636787415

$$$$
97
                    3D
 Structure written by MMmdl.
169178  0  0  1  0            999 V2000
  -30.6189  -14.8269   20.5372 C   0  0  0  0  0  0
  -30.4336  -12.5226   19.5135 C   0  0  0  0  0  0
  -29.5203  -12.5426   18.2674 C   0  0  0  0  0  0
  -28.0471  -12.3485   18.6717 C   0  0  0  0  0  0
  -27.6385  -13.2529   19.8652 C   0  0  2  0  0  0
  -28.6776  -13.1966   21.0078 C   0  0  0  0  0  0
  -25.2253  -13.8111   20.5482 C   0  0  0  0  0  0
  -24.1704  -13.0335   20.9246 C   0  0  0  0  0  0
  -24.6426  -11.6862   20.8869 C   0  0  0  0  0  0
  -23.9125  -10.4239   21.0481 C   0  0  0  0  0  0
  -24.3658   -9.4142   21.9248 C   0  0  0  0  0  0
  -23.6295   -8.2186   22.0777 C   0  0  0  0  0  0
  -22.4279   -8.0263   21.3557 C   0  0  0  0  0  0
  -21.9951   -9.0252   20.4654 C   0  0  0  0  0  0
  -22.7310  -10.2111   20.3091 C   0  0  0  0  0  0
  -21.6819   -6.0750   22.5304 C   0  0  0  0  0  0
  -21.4003   -6.5633   23.8255 C   0  0  0  0  0  0
  -21.3648   -5.6774   24.9197 C   0  0  0  0  0  0
  -21.6039   -4.3035   24.7227 C   0  0  0  0  0  0
  -21.8812   -3.8149   23.4343 C   0  0  0  0  0  0
  -21.9181   -4.6983   22.3412 C   0  0  0  0  0  0
  -22.7726  -13.5105   21.1909 C   0  0  0  0  0  0
  -22.1640   -4.2169   21.0985 F   0  0  0  0  0  0
  -21.5624   -3.4523   25.7742 F   0  0  0  0  0  0
  -29.9805  -13.5918   20.4503 N   0  0  0  0  0  0
  -26.2880  -12.9493   20.3343 N   0  0  0  0  0  0
  -25.9381  -11.6607   20.5935 N   0  0  0  0  0  0
  -22.0351  -12.8161   22.0483 N   0  0  0  0  0  0
  -25.3369  -15.1792   20.3402 N   0  0  0  0  0  0
  -31.7435  -14.9347   20.0373 O   0  0  0  0  0  0
  -21.6606   -6.8882   21.4261 O   0  0  0  0  0  0
  -22.3423  -14.5448   20.6774 O   0  0  0  0  0  0
  -24.6351  -31.8515   23.1936 C   0  0  0  0  0  0
  -25.9160  -32.4717   23.8311 C   0  0  1  0  0  0
  -27.2254  -27.2247   20.1713 C   0  0  0  0  0  0
  -25.5956  -33.8524   24.2219 N   0  0  0  0  0  0
  -23.4323  -30.4725   21.5341 C   0  0  2  0  0  0
  -24.8865  -28.9053   20.1193 C   0  0  0  0  0  0
  -22.7510  -29.4585   22.4865 C   0  0  0  0  0  0
  -18.0302  -28.1374   22.8484 C   0  0  0  0  0  0
  -24.1487  -36.7278   23.2635 C   0  0  0  0  0  0
  -25.9814  -30.7574   21.3781 C   0  0  0  0  0  0
  -26.0570  -29.3706   20.7359 C   0  0  0  0  0  0
  -27.2325  -28.5465   20.7456 C   0  0  0  0  0  0
  -26.0403  -26.8373   19.5149 C   0  0  0  0  0  0
  -24.8849  -27.6472   19.4950 C   0  0  0  0  0  0
  -23.6574  -29.7962   20.1540 C   0  0  0  0  0  0
  -25.4113  -36.3040   24.0303 C   0  0  1  0  0  0
  -20.5913  -28.3690   23.1250 C   0  0  2  0  0  0
  -20.6783  -26.9394   22.5404 C   0  0  0  0  0  0
  -19.5748  -26.6358   21.5211 C   0  0  0  0  0  0
  -18.1932  -26.7924   22.1620 C   0  0  0  0  0  0
  -19.1558  -28.8849   23.2867 C   0  0  0  0  0  0
  -18.9471  -30.1460   23.8868 C   0  0  0  0  0  0
  -17.6468  -30.6568   24.0569 C   0  0  0  0  0  0
  -25.9063  -34.9417   23.5062 C   0  0  0  0  0  0
  -16.5361  -29.9064   23.6331 C   0  0  0  0  0  0
  -16.7293  -28.6491   23.0340 C   0  0  0  0  0  0
  -26.4517  -31.6565   25.0713 C   0  0  0  0  0  0
  -25.3716  -31.3748   26.1415 C   0  0  0  0  0  0
  -27.0367  -30.2964   24.6253 C   0  0  0  0  0  0
  -27.6049  -32.4340   25.7485 C   0  0  0  0  0  0
  -27.5562  -37.1786   24.8455 C   0  0  0  0  0  0
  -21.4209  -29.3040   22.3609 N   0  0  0  0  0  0
  -26.4275  -37.3749   23.9394 N   0  0  0  0  0  0
  -24.7010  -31.0475   22.0907 N   0  0  0  0  0  0
  -23.4205  -28.8112   23.2952 O   0  0  0  0  0  0
  -28.3282  -26.3384   20.0850 O   0  0  0  0  0  0
  -26.5640  -34.8905   22.4636 O   0  0  0  0  0  0
  -23.5500  -32.1350   23.7229 O   0  0  0  0  0  0
  -29.0822  -22.3974   20.5582 C   0  0  0  0  0  0
  -28.2252  -23.5972   20.6857 C   0  0  0  0  0  0
  -26.9604  -23.0570   20.6928 C   0  0  0  0  0  0
  -28.3285  -21.2197   20.4414 C   0  0  0  0  0  0
  -28.5185  -16.7391   22.8292 C   0  0  0  0  0  0
  -27.9638  -17.0016   21.4349 C   0  0  0  0  0  0
  -29.8438  -16.0082   22.5762 C   0  0  0  0  0  0
  -29.2111  -17.1790   20.5736 C   0  0  1  0  0  0
  -25.6704  -23.7894   20.9430 C   0  0  0  0  0  0
  -25.3657  -20.3521   21.8340 C   0  0  0  0  0  0
  -25.7397  -19.7074   19.4012 C   0  0  0  0  0  0
  -28.5582  -25.1545   20.9996 C   0  0  0  0  0  0
  -29.6340  -18.7815   20.7534 C   0  0  0  0  0  0
  -25.7606  -20.8447   20.4362 C   0  0  0  0  0  0
  -26.9927  -21.6591   20.4852 N   0  0  0  0  0  0
  -29.9994  -15.9557   21.1216 N   0  0  0  0  0  0
  -28.6817  -19.8156   20.1403 N   0  0  0  0  0  0
  -31.4738  -12.6517   19.2158 H   0  0  0  0  0  0
  -30.3907  -11.5467   19.9996 H   0  0  0  0  0  0
  -29.8210  -11.7636   17.5646 H   0  0  0  0  0  0
  -29.6396  -13.4929   17.7433 H   0  0  0  0  0  0
  -27.9145  -11.3013   18.9452 H   0  0  0  0  0  0
  -27.3924  -12.5209   17.8179 H   0  0  0  0  0  0
  -27.6280  -14.2791   19.4934 H   0  0  0  0  0  0
  -28.7371  -12.1949   21.4354 H   0  0  0  0  0  0
  -28.3673  -13.8508   21.8211 H   0  0  0  0  0  0
  -25.2794   -9.5564   22.4839 H   0  0  0  0  0  0
  -23.9976   -7.4547   22.7482 H   0  0  0  0  0  0
  -21.0885   -8.8788   19.8947 H   0  0  0  0  0  0
  -22.3819  -10.9656   19.6188 H   0  0  0  0  0  0
  -21.1995   -7.6143   23.9793 H   0  0  0  0  0  0
  -21.1471   -6.0475   25.9112 H   0  0  0  0  0  0
  -22.0611   -2.7614   23.2822 H   0  0  0  0  0  0
  -22.3906  -11.9818   22.4912 H   0  0  0  0  0  0
  -21.0974  -13.1234   22.2653 H   0  0  0  0  0  0
  -24.5267  -15.7820   20.4300 H   0  0  0  0  0  0
  -26.1410  -15.6462   19.9440 H   0  0  0  0  0  0
  -26.7229  -32.5364   23.1055 H   0  0  0  0  0  0
  -25.0096  -33.9675   25.0363 H   0  0  0  0  0  0
  -22.7324  -31.2959   21.3770 H   0  0  0  0  0  0
  -23.3735  -35.9627   23.3308 H   0  0  0  0  0  0
  -24.3583  -36.8909   22.2051 H   0  0  0  0  0  0
  -23.7260  -37.6479   23.6684 H   0  0  0  0  0  0
  -26.1320  -31.5125   20.6044 H   0  0  0  0  0  0
  -26.8564  -30.8083   22.0138 H   0  0  0  0  0  0
  -28.1402  -28.9142   21.2048 H   0  0  0  0  0  0
  -26.0109  -25.8794   19.0153 H   0  0  0  0  0  0
  -23.9938  -27.2925   18.9970 H   0  0  0  0  0  0
  -23.7874  -30.5671   19.3931 H   0  0  0  0  0  0
  -22.7755  -29.2292   19.8479 H   0  0  0  0  0  0
  -25.1305  -36.1872   25.0793 H   0  0  0  0  0  0
  -21.0048  -28.3297   24.1355 H   0  0  0  0  0  0
  -20.5661  -26.2302   23.3621 H   0  0  0  0  0  0
  -21.6646  -26.7383   22.1189 H   0  0  0  0  0  0
  -19.6894  -25.6259   21.1252 H   0  0  0  0  0  0
  -19.6694  -27.3158   20.6732 H   0  0  0  0  0  0
  -17.4201  -26.6700   21.4024 H   0  0  0  0  0  0
  -18.0316  -26.0061   22.9006 H   0  0  0  0  0  0
  -19.7945  -30.7297   24.2217 H   0  0  0  0  0  0
  -17.5006  -31.6231   24.5195 H   0  0  0  0  0  0
  -15.5361  -30.2945   23.7651 H   0  0  0  0  0  0
  -15.8701  -28.0798   22.7050 H   0  0  0  0  0  0
  -24.5889  -30.7099   25.7736 H   0  0  0  0  0  0
  -24.8911  -32.2934   26.4802 H   0  0  0  0  0  0
  -25.8020  -30.8940   27.0206 H   0  0  0  0  0  0
  -26.2965  -29.6679   24.1276 H   0  0  0  0  0  0
  -27.4003  -29.7271   25.4818 H   0  0  0  0  0  0
  -27.8877  -30.4192   23.9540 H   0  0  0  0  0  0
  -27.2627  -33.3646   26.2032 H   0  0  0  0  0  0
  -28.3876  -32.6897   25.0326 H   0  0  0  0  0  0
  -28.0699  -31.8481   26.5421 H   0  0  0  0  0  0
  -28.2565  -38.0092   24.7501 H   0  0  0  0  0  0
  -28.1068  -36.2623   24.6287 H   0  0  0  0  0  0
  -27.2291  -37.1444   25.8860 H   0  0  0  0  0  0
  -20.9386  -29.8796   21.6850 H   0  0  0  0  0  0
  -26.0144  -38.2806   24.1433 H   0  0  0  0  0  0
  -30.1641  -22.4104   20.5563 H   0  0  0  0  0  0
  -27.8248  -16.1664   23.4460 H   0  0  0  0  0  0
  -28.7020  -17.6867   23.3395 H   0  0  0  0  0  0
  -27.2596  -17.8298   21.4147 H   0  0  0  0  0  0
  -27.4466  -16.1108   21.1012 H   0  0  0  0  0  0
  -29.8559  -15.0217   23.0390 H   0  0  0  0  0  0
  -30.6735  -16.5750   23.0017 H   0  0  0  0  0  0
  -28.9901  -16.9835   19.5228 H   0  0  0  0  0  0
  -25.8416  -24.7889   21.3408 H   0  0  0  0  0  0
  -25.0653  -23.2836   21.6918 H   0  0  0  0  0  0
  -25.0810  -23.8903   20.0314 H   0  0  0  0  0  0
  -24.4484  -19.7653   21.7946 H   0  0  0  0  0  0
  -25.1914  -21.1854   22.5133 H   0  0  0  0  0  0
  -26.1454  -19.7304   22.2706 H   0  0  0  0  0  0
  -24.7093  -19.4006   19.2215 H   0  0  0  0  0  0
  -26.2567  -18.8147   19.7418 H   0  0  0  0  0  0
  -26.1597  -20.0116   18.4423 H   0  0  0  0  0  0
  -29.6288  -25.1674   21.2096 H   0  0  0  0  0  0
  -28.1010  -25.3933   21.9593 H   0  0  0  0  0  0
  -30.6233  -18.9439   20.3249 H   0  0  0  0  0  0
  -29.7359  -19.0204   21.8106 H   0  0  0  0  0  0
  -24.9626  -21.5041   20.0989 H   0  0  0  0  0  0
  -27.8481  -19.3460   19.8036 H   0  0  0  0  0  0
  1 25  1  0  0  0
  1 30  2  0  0  0
  1 86  1  0  0  0
  2  3  1  0  0  0
  2 25  1  0  0  0
  2 88  1  0  0  0
  2 89  1  0  0  0
  3  4  1  0  0  0
  3 90  1  0  0  0
  3 91  1  0  0  0
  4  5  1  0  0  0
  4 92  1  0  0  0
  4 93  1  0  0  0
  5  6  1  0  0  0
  5 26  1  0  0  0
  5 94  1  0  0  0
  6 25  1  0  0  0
  6 95  1  0  0  0
  6 96  1  0  0  0
  7  8  2  0  0  0
  7 26  1  0  0  0
  7 29  1  0  0  0
  8  9  1  0  0  0
  8 22  1  0  0  0
  9 10  1  0  0  0
  9 27  2  0  0  0
 10 11  2  0  0  0
 10 15  1  0  0  0
 11 12  1  0  0  0
 11 97  1  0  0  0
 12 13  2  0  0  0
 12 98  1  0  0  0
 13 14  1  0  0  0
 13 31  1  0  0  0
 14 15  2  0  0  0
 14 99  1  0  0  0
 15100  1  0  0  0
 16 17  2  0  0  0
 16 21  1  0  0  0
 16 31  1  0  0  0
 17 18  1  0  0  0
 17101  1  0  0  0
 18 19  2  0  0  0
 18102  1  0  0  0
 19 20  1  0  0  0
 19 24  1  0  0  0
 20 21  2  0  0  0
 20103  1  0  0  0
 21 23  1  0  0  0
 22 28  1  0  0  0
 22 32  2  0  0  0
 26 27  1  0  0  0
 28104  1  0  0  0
 28105  1  0  0  0
 29106  1  0  0  0
 29107  1  0  0  0
 33 34  1  0  0  0
 33 66  1  0  0  0
 33 70  2  0  0  0
 34 36  1  0  0  0
 34 59  1  0  0  0
 34108  1  0  0  0
 35 44  2  0  0  0
 35 45  1  0  0  0
 35 68  1  0  0  0
 36 56  1  0  0  0
 36109  1  0  0  0
 37 39  1  0  0  0
 37 47  1  0  0  0
 37 66  1  0  0  0
 37110  1  0  0  0
 38 43  2  0  0  0
 38 46  1  0  0  0
 38 47  1  0  0  0
 39 64  1  0  0  0
 39 67  2  0  0  0
 40 52  1  0  0  0
 40 53  2  0  0  0
 40 58  1  0  0  0
 41111  1  0  0  0
 41112  1  0  0  0
 41113  1  0  0  0
 41 48  1  0  0  0
 42 43  1  0  0  0
 42 66  1  0  0  0
 42114  1  0  0  0
 42115  1  0  0  0
 43 44  1  0  0  0
 44116  1  0  0  0
 45 46  2  0  0  0
 45117  1  0  0  0
 46118  1  0  0  0
 47119  1  0  0  0
 47120  1  0  0  0
 48 56  1  0  0  0
 48 65  1  0  0  0
 48121  1  0  0  0
 49 50  1  0  0  0
 49 53  1  0  0  0
 49 64  1  0  0  0
 49122  1  0  0  0
 50 51  1  0  0  0
 50123  1  0  0  0
 50124  1  0  0  0
 51 52  1  0  0  0
 51125  1  0  0  0
 51126  1  0  0  0
 52127  1  0  0  0
 52128  1  0  0  0
 53 54  1  0  0  0
 54 55  2  0  0  0
 54129  1  0  0  0
 55 57  1  0  0  0
 55130  1  0  0  0
 56 69  2  0  0  0
 57 58  2  0  0  0
 57131  1  0  0  0
 58132  1  0  0  0
 59 60  1  0  0  0
 59 61  1  0  0  0
 59 62  1  0  0  0
 60133  1  0  0  0
 60134  1  0  0  0
 60135  1  0  0  0
 61136  1  0  0  0
 61137  1  0  0  0
 61138  1  0  0  0
 62139  1  0  0  0
 62140  1  0  0  0
 62141  1  0  0  0
 63 65  1  0  0  0
 63142  1  0  0  0
 63143  1  0  0  0
 63144  1  0  0  0
 64145  1  0  0  0
 65146  1  0  0  0
 68 82  1  0  0  0
 71 72  1  0  0  0
 71 74  2  0  0  0
 71147  1  0  0  0
 72 73  2  0  0  0
 72 82  1  0  0  0
 73 79  1  0  0  0
 73 85  1  0  0  0
 74 85  1  0  0  0
 74 87  1  0  0  0
 75 76  1  0  0  0
 75 77  1  0  0  0
 75148  1  0  0  0
 75149  1  0  0  0
 76 78  1  0  0  0
 76150  1  0  0  0
 76151  1  0  0  0
 77 86  1  0  0  0
 77152  1  0  0  0
 77153  1  0  0  0
 78 83  1  0  0  0
 78 86  1  0  0  0
 78154  1  0  0  0
 79155  1  0  0  0
 79156  1  0  0  0
 79157  1  0  0  0
 80158  1  0  0  0
 80159  1  0  0  0
 80160  1  0  0  0
 80 84  1  0  0  0
 81 84  1  0  0  0
 81161  1  0  0  0
 81162  1  0  0  0
 81163  1  0  0  0
 82164  1  0  0  0
 82165  1  0  0  0
 83 87  1  0  0  0
 83166  1  0  0  0
 83167  1  0  0  0
 84 85  1  0  0  0
 84168  1  0  0  0
 87169  1  0  0  0
M  ISO  4   1 100  68 101  82 101  86 100
M  END
> <chiral flag>
0

> <version>
0

> <s_m_source_file>
/data/baiqing/PycharmProjects/Reinvent-master-3.2/result/LINK_invent/BTK/process_docking_weight1_custom_sum_contain_oxygen_bond_distance_aromatic_linkinvent_7_9_3/rearranged_h_0146.sdf

> <i_m_source_file_index>
97

> <r_mmod_Potential_Energy-OPLS-2005>
641.235229492188

> <r_mmod_Stretch_Energy-OPLS-2005>
173.496444702148

> <r_mmod_Bend_Energy-OPLS-2005>
308.242950439453

> <r_mmod_Torsional_Energy-OPLS-2005>
453.814910888672

> <r_mmod_Improper_Torsional_Energy-OPLS-2005>
8.38152027130127

> <r_mmod_Van_der_Waal_Energy-OPLS-2005>
105.864234924316

> <r_mmod_Electrostatic_Energy-OPLS-2005>
-315.527435302734

> <r_mmod_Solvation_Energy-OPLS-2005>
-203.628997802734

> <b_mmod_Minimization_Converged-OPLS-2005>
0

> <r_mmod_RMS_Derivative-OPLS-2005>
3.8301088809967

$$$$
